data_PCOD8268439
_publ_section_title
;
Structure prediction by ZEFSAII (Michael W. Deem and Ramdas Pophale) SiO2 
 PCOD8268439
Probable space group: C M M M
;
_chemical_formula_sum "Si O2"
_cell_formula_units_Z 104
_cell_length_a 27.370328
_cell_length_b 9.072746
_cell_length_c 23.532766
_cell_angle_alpha 90.000000
_cell_angle_beta 90.000000
_cell_angle_gamma 90.000000
_cell_volume 5843.751381
_symmetry_space_group_name_H-M "C M M M"
_symmetry_group_IT_number 65
_symmetry_cell_setting 'orthorhombic'
loop_
_space_group_symop_operation_xyz
x,y,z
-x,-y,z
x,-y,-z
-x,y,-z
-x,-y,-z
x,y,-z
-x,y,z
x,-y,z
1/2+x,1/2+y,z
1/2-x,1/2-y,z
1/2+x,1/2-y,-z
1/2-x,1/2+y,-z
1/2-x,1/2-y,-z
1/2+x,1/2+y,-z
1/2-x,1/2+y,z
1/2+x,1/2-y,z
loop_
_atom_site_type_symbol
_atom_site_label
_atom_site_fract_x
_atom_site_fract_y
_atom_site_fract_z
Si Si1 0.365868 0.825865 0.169334
Si Si2 0.703517 0.664658 0.247479
Si Si3 0.000000 0.663072 0.066590
Si Si4 0.055938 0.673334 0.263770
Si Si5 0.300083 0.326431 0.565351
Si Si6 0.097009 0.173761 0.065262
Si Si7 0.875778 0.836630 0.344358
O O1 0.316536 0.764740 0.196502
O O2 0.412824 0.779957 0.208079
O O3 0.364890 0.748485 0.107629
O O4 0.363009 0.000000 0.161422
O O5 0.716863 0.500000 0.225975
O O6 0.750000 0.750000 0.272410
O O7 0.664415 0.653229 0.296275
O O8 0.953795 0.756323 0.085530
O O9 0.000000 0.500000 0.096028
O O10 0.000000 0.640274 0.000000
O O11 0.057861 0.500000 0.271803
O O12 0.078899 0.739742 0.321859
O O13 0.000000 0.728717 0.256127
O O14 0.310391 0.286880 0.500000
O O15 0.293379 0.500000 0.575636
O O16 0.250000 0.250000 0.586205
O O17 0.347627 0.269219 0.600575
O O18 0.094602 0.000000 0.074154
O O19 0.109930 0.213287 0.000000
O O20 0.896091 0.000000 0.358380
#
# Coordination Sequence:
#
# PCOD8268439 Si02
#       7
#    16  16   8  16  16  16  16
#     4  10  20  33  51  73  97 126 161 198 243 294
#     4  10  19  32  50  72  99 126 159 200 243 290
#     4   9  17  29  45  65  89 121 159 193 228 275
#     4   9  19  34  50  70  96 126 161 204 247 286
#     4   9  17  29  46  71 103 134 164 200 242 288
#     4  10  20  33  48  69  98 128 159 197 241 289
#     4   9  18  31  48  72  99 129 164 200 240 289
#
# _framework density 17.796786000000001
#
# number of rings (size 3 to 8) (size 9 to 14) (size 15 to 20)
#    0.000    2.538    0.000    2.077    1.077    4.000 
#    0.000    0.000    0.000    0.923    0.000    3.231 
#    0.000    0.000    0.000    0.000    0.000    0.000 
#
# Total GULP energy -644535.679414 kJ/mol
# GULP energy per Si atom -12394.916912 kJ/mol
# Density = 1.775628 g / cm^3
# Si number density = 17.796786 Si / 1000 Ang^3
#
#
#
# Elastic Constant Matrix: (Units=GPa)
#
#
# Indices 1 2 3 4 5 6 
#
# 1 54.3750 27.8496 15.6128 0.0000 0.0000 0.0000
# 2 27.8496 77.1300 32.0499 0.0000 0.0000 0.0000
# 3 15.6128 32.0499 75.6455 0.0000 0.0000 0.0000
# 4 0.0000 0.0000 0.0000 25.1874 0.0000 0.0000
# 5 0.0000 0.0000 0.0000 0.0000 18.5315 0.0000
# 6 0.0000 0.0000 0.0000 0.0000 0.0000 29.8954
#
#
#
# Elastic Compliance Matrix: (Units=1/GPa)
#
#
# Indices 1 2 3 4 5 6 
#
# 1 0.022698 -0.007584 -0.001471 0.000000 0.000000 0.000000
# 2 -0.007584 0.018270 -0.006175 0.000000 0.000000 0.000000
# 3 -0.001471 -0.006175 0.016140 0.000000 0.000000 0.000000
# 4 0.000000 0.000000 0.000000 0.039702 0.000000 0.000000
# 5 0.000000 0.000000 0.000000 0.000000 0.053962 0.000000
# 6 0.000000 0.000000 0.000000 0.000000 0.000000 0.033450
#
#
# Mechanical properties :
#
#
# Convention : Reuss Voigt Hill
#
# Bulk Modulus (GPa) = 37.53000 39.79725 38.66362
# Shear Modulus (GPa) = 22.36487 23.49872 22.93180
#
# Velocity S-wave (km/s) = 3.54881 3.63766 3.59351
# Velocity P-wave (km/s) = 6.15841 6.32882 6.24420
#
# Compressibility (1/GPa) = 0.02664535
#
# Stress axis : x y z
#
# Youngs Moduli (GPa) = 44.05731 54.73582 61.95945
#
# Poissons Ratio (x) = 0.41512 0.09117
# Poissons Ratio (y) = 0.33414 0.38261
# Poissons Ratio (z) = 0.06483 0.33801
#
# Static dielectric constant tensor:
#      x y z
#    x 3.610300 0.000000 0.000000 
#    y 0.000000 3.434040 0.000000 
#    z 0.000000 0.000000 3.355950 
# 
# 
# High freq. dielectric constant tensor:
#      x y z
#    x 1.666240 0.000000 0.000000 
#    y 0.000000 1.694620 0.000000 
#    z 0.000000 0.000000 1.678460 
# 
# From -- ./inp_files/68578.got.cif
#   From: 2010.03.12/outbox.cif.g09.slc.cpg/sg65_35_cif.got.tgz:68578.got - 2010.04.10 20:52:16.
