data_PCOD8268130
_publ_section_title
;
Structure prediction by ZEFSAII (Michael W. Deem and Ramdas Pophale) SiO2 
 PCOD8268130
Probable space group: C M M M
;
_chemical_formula_sum "Si O2"
_cell_formula_units_Z 72
_cell_length_a 15.666364
_cell_length_b 29.232003
_cell_length_c 8.903853
_cell_angle_alpha 90.000000
_cell_angle_beta 90.000000
_cell_angle_gamma 90.000000
_cell_volume 4077.601392
_symmetry_space_group_name_H-M "C M M M"
_symmetry_group_IT_number 65
_symmetry_cell_setting 'orthorhombic'
loop_
_space_group_symop_operation_xyz
x,y,z
-x,-y,z
x,-y,-z
-x,y,-z
-x,-y,-z
x,y,-z
-x,y,z
x,-y,z
1/2+x,1/2+y,z
1/2-x,1/2-y,z
1/2+x,1/2-y,-z
1/2-x,1/2+y,-z
1/2-x,1/2-y,-z
1/2+x,1/2+y,-z
1/2-x,1/2+y,z
1/2+x,1/2-y,z
loop_
_atom_site_type_symbol
_atom_site_label
_atom_site_fract_x
_atom_site_fract_y
_atom_site_fract_z
Si Si1 0.326219 0.616060 0.177772
Si Si2 0.681299 0.286932 0.680111
Si Si3 0.000000 0.554352 0.330129
Si Si4 0.329560 0.947875 0.176003
Si Si5 0.000000 0.780526 0.336684
Si Si6 0.500000 0.388783 0.666538
O O1 0.298023 0.664696 0.245553
O O2 0.252754 0.580797 0.225442
O O3 0.414919 0.596471 0.243905
O O4 0.336139 0.620723 0.000000
O O5 0.677810 0.293196 0.500000
O O6 0.750000 0.250000 0.731970
O O7 0.589524 0.267631 0.743097
O O8 0.085742 0.573382 0.252235
O O9 0.000000 0.500000 0.316131
O O10 0.000000 0.571750 0.500000
O O11 0.314041 0.000000 0.228589
O O12 0.344948 0.945069 0.000000
O O13 0.000000 0.834868 0.351712
O O14 0.000000 0.756985 0.500000
O O15 0.500000 0.411369 0.500000
#
# Coordination Sequence:
#
# PCOD8268130 Si02
#       6
#    16  16   8  16   8   8
#     4  10  19  31  50  74  97 124 162 204 240 279
#     4   9  17  30  48  68  93 126 159 191 233 286
#     4   9  17  29  48  73  96 122 161 204 240 279
#     4   9  18  33  51  70  96 131 164 194 236 289
#     4   7  12  25  44  63  82 112 154 187 214 264
#     4   9  17  31  50  69  94 128 161 194 238 293
#
# _framework density 17.657439
#
# number of rings (size 3 to 8) (size 9 to 14) (size 15 to 20)
#    0.000    3.000    0.000    2.667    0.000    3.556 
#    0.000    1.667    0.000    4.667    0.000    0.000 
#    0.000    0.000    0.000    0.000    0.000    0.000 
#
# Total GULP energy -446112.993786 kJ/mol
# GULP energy per Si atom -12392.027605 kJ/mol
# Density = 1.761725 g / cm^3
# Si number density = 17.657439 Si / 1000 Ang^3
#
#
#
# Elastic Constant Matrix: (Units=GPa)
#
#
# Indices 1 2 3 4 5 6 
#
# 1 202.7122 72.4916 59.8460 0.0000 0.0000 0.0000
# 2 72.4916 63.2628 30.7785 0.0000 0.0000 0.0000
# 3 59.8460 30.7785 65.7042 0.0000 0.0000 0.0000
# 4 0.0000 0.0000 0.0000 19.3972 0.0000 0.0000
# 5 0.0000 0.0000 0.0000 0.0000 27.1701 0.0000
# 6 0.0000 0.0000 0.0000 0.0000 0.0000 31.3759
#
#
#
# Elastic Compliance Matrix: (Units=1/GPa)
#
#
# Indices 1 2 3 4 5 6 
#
# 1 0.009282 -0.008448 -0.004497 0.000000 0.000000 0.000000
# 2 -0.008448 0.028162 -0.005497 0.000000 0.000000 0.000000
# 3 -0.004497 -0.005497 0.021891 0.000000 0.000000 0.000000
# 4 0.000000 0.000000 0.000000 0.051554 0.000000 0.000000
# 5 0.000000 0.000000 0.000000 0.000000 0.036805 0.000000
# 6 0.000000 0.000000 0.000000 0.000000 0.000000 0.031872
#
#
# Mechanical properties :
#
#
# Convention : Reuss Voigt Hill
#
# Bulk Modulus (GPa) = 44.54323 73.10126 58.82225
# Shear Modulus (GPa) = 22.32808 26.82618 24.57713
#
# Velocity S-wave (km/s) = 3.55986 3.90199 3.73485
# Velocity P-wave (km/s) = 6.49445 7.86068 7.21000
#
# Compressibility (1/GPa) = 0.02245010
#
# Stress axis : x y z
#
# Youngs Moduli (GPa) = 107.73826 35.50871 45.68124
#
# Poissons Ratio (x) = 0.29998 0.20542
# Poissons Ratio (y) = 0.91017 0.25113
# Poissons Ratio (z) = 0.48448 0.19521
#
# Static dielectric constant tensor:
#      x y z
#    x 3.828550 0.000000 0.000000 
#    y 0.000000 2.925150 0.000000 
#    z 0.000000 0.000000 3.200850 
# 
# 
# High freq. dielectric constant tensor:
#      x y z
#    x 1.706450 0.000000 0.000000 
#    y 0.000000 1.637570 0.000000 
#    z 0.000000 0.000000 1.674080 
# 
# From -- ./inp_files/7720.got.cif
#   From: 2010.03.12/outbox.cif.g09.slc.cpg/sg65_4_cif.got.tgz:7720.got - 2010.04.10 20:52:16.
