data_PCOD8268831
_publ_section_title
;
Structure prediction by ZEFSAII (Michael W. Deem and Ramdas Pophale) SiO2 
 PCOD8268831
Probable space group: C M M M
;
_chemical_formula_sum "Si O2"
_cell_formula_units_Z 112
_cell_length_a 28.108047
_cell_length_b 14.275235
_cell_length_c 14.154714
_cell_angle_alpha 90.000000
_cell_angle_beta 90.000000
_cell_angle_gamma 90.000000
_cell_volume 5679.564503
_symmetry_space_group_name_H-M "C M M M"
_symmetry_group_IT_number 65
_symmetry_cell_setting 'orthorhombic'
loop_
_space_group_symop_operation_xyz
x,y,z
-x,-y,z
x,-y,-z
-x,y,-z
-x,-y,-z
x,y,-z
-x,y,z
x,-y,z
1/2+x,1/2+y,z
1/2-x,1/2-y,z
1/2+x,1/2-y,-z
1/2-x,1/2+y,-z
1/2-x,1/2-y,-z
1/2+x,1/2+y,-z
1/2-x,1/2+y,z
1/2+x,1/2-y,z
loop_
_atom_site_type_symbol
_atom_site_label
_atom_site_fract_x
_atom_site_fract_y
_atom_site_fract_z
Si Si1 0.843439 0.600947 0.893264
Si Si2 0.556193 0.392621 0.108027
Si Si3 0.182286 0.098382 0.726308
Si Si4 0.888050 0.750399 0.758061
Si Si5 0.761268 0.148832 0.106068
Si Si6 0.768029 0.644865 0.395241
Si Si7 0.376383 0.890909 0.609868
O O1 0.864074 0.500000 0.858017
O O2 0.861570 0.687504 0.834082
O O3 0.786615 0.589225 0.889196
O O4 0.860179 0.619632 0.000000
O O5 0.500000 0.384937 0.115575
O O6 0.572127 0.500000 0.131911
O O7 0.575893 0.318319 0.185700
O O8 0.572016 0.367769 0.000000
O O9 0.148457 0.184138 0.698879
O O10 0.195454 0.102927 0.837192
O O11 0.232002 0.090914 0.671421
O O12 0.155141 0.000000 0.708281
O O13 0.908604 0.678251 0.677223
O O14 0.750000 0.250000 0.151721
O O15 0.780655 0.160623 0.000000
O O16 0.765577 0.601367 0.500000
O O17 0.750000 0.750000 0.396174
O O18 0.821869 0.629862 0.358365
O O19 0.384928 0.865117 0.500000
O O20 0.389066 0.000000 0.628015
#
# Coordination Sequence:
#
# PCOD8268831 Si02
#       7
#    16  16  16  16  16  16  16
#     4  10  20  32  47  69 100 140 181 219 267 324
#     4   9  20  41  67  92 117 144 173 209 265 343
#     4  12  23  31  45  72 103 137 179 228 278 321
#     4  12  21  34  55  82 108 137 177 233 279 326
#     4  10  19  33  46  59  92 142 184 219 260 313
#     4  10  19  35  53  70 101 149 196 238 280 320
#     4  10  21  36  55  79 111 156 203 240 278 326
#
# _framework density 19.719822000000001
#
# number of rings (size 3 to 8) (size 9 to 14) (size 15 to 20)
#    0.000    1.571    2.857    3.857    0.000    2.286 
#    0.000    0.000    0.000    3.429    0.000    7.000 
#    0.000    0.000    0.000    0.000    0.000    0.000 
#
# Total GULP energy -693753.147734 kJ/mol
# GULP energy per Si atom -12388.449067 kJ/mol
# Density = 1.967494 g / cm^3
# Si number density = 19.719822 Si / 1000 Ang^3
#
#
#
# Elastic Constant Matrix: (Units=GPa)
#
#
# Indices 1 2 3 4 5 6 
#
# 1 27.7176 20.1123 18.6983 0.0000 0.0000 0.0000
# 2 20.1123 150.6647 51.2320 0.0000 0.0000 0.0000
# 3 18.6983 51.2320 87.9815 0.0000 0.0000 0.0000
# 4 0.0000 0.0000 0.0000 3.2278 0.0000 0.0000
# 5 0.0000 0.0000 0.0000 0.0000 23.6963 0.0000
# 6 0.0000 0.0000 0.0000 0.0000 0.0000 18.5282
#
#
#
# Elastic Compliance Matrix: (Units=1/GPa)
#
#
# Indices 1 2 3 4 5 6 
#
# 1 0.043404 -0.003313 -0.007295 0.000000 0.000000 0.000000
# 2 -0.003313 0.008529 -0.004262 0.000000 0.000000 0.000000
# 3 -0.007295 -0.004262 0.015398 0.000000 0.000000 0.000000
# 4 0.000000 0.000000 0.000000 0.309806 0.000000 0.000000
# 5 0.000000 0.000000 0.000000 0.000000 0.042201 0.000000
# 6 0.000000 0.000000 0.000000 0.000000 0.000000 0.053972
#
#
# Mechanical properties :
#
#
# Convention : Reuss Voigt Hill
#
# Bulk Modulus (GPa) = 26.60309 49.60545 38.10427
# Shear Modulus (GPa) = 9.69780 20.84521 15.27151
#
# Velocity S-wave (km/s) = 2.22002 3.25479 2.78587
# Velocity P-wave (km/s) = 4.48231 6.27173 5.45095
#
# Compressibility (1/GPa) = 0.03758962
#
# Stress axis : x y z
#
# Youngs Moduli (GPa) = 23.03956 117.24866 64.94221
#
# Poissons Ratio (x) = 0.38849 0.47375
# Poissons Ratio (y) = 0.07634 0.27680
# Poissons Ratio (z) = 0.16807 0.49974
#
# Static dielectric constant tensor:
#      x y z
#    x 2.982660 0.000000 0.000000 
#    y 0.000000 4.000760 0.000000 
#    z 0.000000 0.000000 3.794500 
# 
# 
# High freq. dielectric constant tensor:
#      x y z
#    x 1.690920 0.000000 0.000000 
#    y 0.000000 1.796190 0.000000 
#    z 0.000000 0.000000 1.774100 
# 
# From -- ./inp_files/41367.got.cif
#   From: 2010.03.12/outbox.cif.g09.slc.cpg/sg65_21_cif.got.tgz:41367.got - 2010.04.10 20:52:16.
