data_PCOD8268900
_publ_section_title
;
Structure prediction by ZEFSAII (Michael W. Deem and Ramdas Pophale) SiO2 
 PCOD8268900
Probable space group: C M M M
;
_chemical_formula_sum "Si O2"
_cell_formula_units_Z 104
_cell_length_a 23.025939
_cell_length_b 18.768589
_cell_length_c 13.320846
_cell_angle_alpha 90.000000
_cell_angle_beta 90.000000
_cell_angle_gamma 90.000000
_cell_volume 5756.795225
_symmetry_space_group_name_H-M "C M M M"
_symmetry_group_IT_number 65
_symmetry_cell_setting 'orthorhombic'
loop_
_space_group_symop_operation_xyz
x,y,z
-x,-y,z
x,-y,-z
-x,y,-z
-x,-y,-z
x,y,-z
-x,y,z
x,-y,z
1/2+x,1/2+y,z
1/2-x,1/2-y,z
1/2+x,1/2-y,-z
1/2-x,1/2+y,-z
1/2-x,1/2-y,-z
1/2+x,1/2+y,-z
1/2-x,1/2+y,z
1/2+x,1/2-y,z
loop_
_atom_site_type_symbol
_atom_site_label
_atom_site_fract_x
_atom_site_fract_y
_atom_site_fract_z
Si Si1 0.561237 0.417825 0.118352
Si Si2 0.187222 0.915970 0.883071
Si Si3 0.064602 0.673323 0.619561
Si Si4 0.767348 0.168267 0.288396
Si Si5 0.000000 0.081194 0.380482
Si Si6 0.832408 0.578862 0.381684
Si Si7 0.392666 0.673731 0.380444
O O1 0.500000 0.385788 0.165194
O O2 0.563195 0.500000 0.146566
O O3 0.623305 0.385580 0.152379
O O4 0.558056 0.408148 0.000000
O O5 0.233620 0.870614 0.819926
O O6 0.193283 0.000000 0.860343
O O7 0.198359 0.901170 0.000000
O O8 0.063492 0.674316 0.500000
O O9 0.107730 0.612399 0.660958
O O10 0.087408 0.749164 0.658784
O O11 0.000000 0.658480 0.661875
O O12 0.750000 0.250000 0.275078
O O13 0.720767 0.130174 0.358170
O O14 0.829185 0.156057 0.340008
O O15 0.940642 0.117424 0.338830
O O16 0.000000 0.088780 0.500000
O O17 0.000000 0.000000 0.344463
O O18 0.837137 0.573079 0.500000
O O19 0.824120 0.500000 0.334595
O O20 0.390059 0.670823 0.500000
#
# Coordination Sequence:
#
# PCOD8268900 Si02
#       7
#    16  16  16  16   8  16  16
#     4   7  10  21  44  69  90 115 149 193 247 299
#     4   9  19  36  54  72  99 133 171 219 268 312
#     4   9  16  30  53  75  98 134 175 214 260 311
#     4  12  23  34  52  76 105 142 181 214 259 317
#     4   9  18  32  50  74 106 144 184 221 252 292
#     4  10  21  35  52  78 108 135 172 222 265 307
#     4  10  19  33  52  73 103 144 182 214 251 303
#
# _framework density 18.065607
#
# number of rings (size 3 to 8) (size 9 to 14) (size 15 to 20)
#    0.000    2.538    2.308    2.308    0.000    2.462 
#    1.385    3.077    0.000    0.000    0.000    0.000 
#    0.000    0.615    0.000    3.231    0.000    0.154 
#
# Total GULP energy -644344.577762 kJ/mol
# GULP energy per Si atom -12391.241880 kJ/mol
# Density = 1.802449 g / cm^3
# Si number density = 18.065607 Si / 1000 Ang^3
#
#
#
# Elastic Constant Matrix: (Units=GPa)
#
#
# Indices 1 2 3 4 5 6 
#
# 1 131.9183 61.7128 22.3057 0.0000 0.0000 0.0000
# 2 61.7128 126.7356 21.1952 0.0000 0.0000 0.0000
# 3 22.3057 21.1952 22.7315 0.0000 0.0000 0.0000
# 4 0.0000 0.0000 0.0000 17.2314 0.0000 0.0000
# 5 0.0000 0.0000 0.0000 0.0000 15.6883 0.0000
# 6 0.0000 0.0000 0.0000 0.0000 0.0000 26.9110
#
#
#
# Elastic Compliance Matrix: (Units=1/GPa)
#
#
# Indices 1 2 3 4 5 6 
#
# 1 0.010595 -0.004052 -0.006618 0.000000 0.000000 0.000000
# 2 -0.004052 0.010898 -0.006185 0.000000 0.000000 0.000000
# 3 -0.006618 -0.006185 0.056253 0.000000 0.000000 0.000000
# 4 0.000000 0.000000 0.000000 0.058034 0.000000 0.000000
# 5 0.000000 0.000000 0.000000 0.000000 0.063742 0.000000
# 6 0.000000 0.000000 0.000000 0.000000 0.000000 0.037159
#
#
# Mechanical properties :
#
#
# Convention : Reuss Voigt Hill
#
# Bulk Modulus (GPa) = 22.70916 54.64587 38.67751
# Shear Modulus (GPa) = 17.53948 23.71093 20.62520
#
# Velocity S-wave (km/s) = 3.11927 3.62676 3.38255
# Velocity P-wave (km/s) = 5.05676 6.91752 6.05900
#
# Compressibility (1/GPa) = 0.04403510
#
# Stress axis : x y z
#
# Youngs Moduli (GPa) = 94.38146 91.75886 17.77676
#
# Poissons Ratio (x) = 0.37185 0.11765
# Poissons Ratio (y) = 0.38248 0.10995
# Poissons Ratio (z) = 0.62464 0.56753
#
# Static dielectric constant tensor:
#      x y z
#    x 3.676470 0.000000 0.000000 
#    y 0.000000 3.339790 0.000000 
#    z 0.000000 0.000000 3.031020 
# 
# 
# High freq. dielectric constant tensor:
#      x y z
#    x 1.713550 0.000000 0.000000 
#    y 0.000000 1.681100 0.000000 
#    z 0.000000 0.000000 1.671590 
# 
# From -- ./inp_files/44434.got.cif
#   From: 2010.03.12/outbox.cif.g09.slc.cpg/sg65_23_cif.got.tgz:44434.got - 2010.04.10 20:52:16.
