data_PCOD8268442
_publ_section_title
;
Structure prediction by ZEFSAII (Michael W. Deem and Ramdas Pophale) SiO2 
 PCOD8268442
Probable space group: C M M M
;
_chemical_formula_sum "Si O2"
_cell_formula_units_Z 104
_cell_length_a 27.449184
_cell_length_b 9.119284
_cell_length_c 23.104342
_cell_angle_alpha 90.000000
_cell_angle_beta 90.000000
_cell_angle_gamma 90.000000
_cell_volume 5783.407369
_symmetry_space_group_name_H-M "C M M M"
_symmetry_group_IT_number 65
_symmetry_cell_setting 'orthorhombic'
loop_
_space_group_symop_operation_xyz
x,y,z
-x,-y,z
x,-y,-z
-x,y,-z
-x,-y,-z
x,y,-z
-x,y,z
x,-y,z
1/2+x,1/2+y,z
1/2-x,1/2-y,z
1/2+x,1/2-y,-z
1/2-x,1/2+y,-z
1/2-x,1/2-y,-z
1/2+x,1/2+y,-z
1/2-x,1/2+y,z
1/2+x,1/2-y,z
loop_
_atom_site_type_symbol
_atom_site_label
_atom_site_fract_x
_atom_site_fract_y
_atom_site_fract_z
Si Si1 0.876198 0.172255 0.402956
Si Si2 0.443961 0.827307 0.178420
Si Si3 0.447648 0.673625 0.500000
Si Si4 0.797657 0.835909 0.785138
Si Si5 0.699336 0.671277 0.500000
Si Si6 0.632147 0.663337 0.893082
Si Si7 0.625738 0.827019 0.716852
Si Si8 0.803341 0.175368 0.000000
O O1 0.921304 0.222114 0.441824
O O2 0.828668 0.214249 0.440775
O O3 0.884902 0.268879 0.346620
O O4 0.876199 0.000000 0.387035
O O5 0.500000 0.771150 0.179966
O O6 0.415584 0.758323 0.123253
O O7 0.417779 0.782517 0.238850
O O8 0.442109 0.000000 0.169573
O O9 0.450216 0.500000 0.500000
O O10 0.500000 0.749631 0.500000
O O11 0.750000 0.750000 0.804744
O O12 0.832814 0.841991 0.838974
O O13 0.823379 0.747923 0.733770
O O14 0.784606 0.000000 0.763928
O O15 0.708096 0.500000 0.500000
O O16 0.750000 0.750000 0.500000
O O17 0.614013 0.500000 0.909374
O O18 0.664338 0.729150 0.945417
O O19 0.633109 0.000000 0.716273
O O20 0.750000 0.250000 0.000000
O O21 0.795309 0.000000 0.000000
#
# Coordination Sequence:
#
# PCOD8268442 Si02
#       8
#    16  16   8  16   8  16  16   8
#     4   9  18  33  50  71  99 125 156 202 247 290
#     4   9  19  36  55  74 100 135 173 213 256 301
#     4   8  15  30  52  73  93 122 157 193 240 295
#     4  10  19  32  50  72  99 131 166 202 243 292
#     4   9  19  34  51  69  93 128 164 200 242 288
#     4   9  19  34  52  76 105 135 169 209 250 297
#     4  10  20  33  50  73 100 130 164 204 251 299
#     4  10  20  34  53  80 111 139 170 209 253 300
#
# _framework density 17.982476999999999
#
# number of rings (size 3 to 8) (size 9 to 14) (size 15 to 20)
#    0.000    2.692    0.000    2.308    0.000    4.000 
#    0.000    3.077    0.000    2.769    0.000    0.000 
#    0.000    0.000    0.000    0.000    0.000    0.000 
#
# Total GULP energy -644515.528866 kJ/mol
# GULP energy per Si atom -12394.529401 kJ/mol
# Density = 1.794155 g / cm^3
# Si number density = 17.982477 Si / 1000 Ang^3
#
#
#
# Elastic Constant Matrix: (Units=GPa)
#
#
# Indices 1 2 3 4 5 6 
#
# 1 131.6317 48.6570 43.1643 0.0000 0.0000 0.0000
# 2 48.6570 69.8694 37.7408 0.0000 0.0000 0.0000
# 3 43.1643 37.7408 105.1338 0.0000 0.0000 0.0000
# 4 0.0000 0.0000 0.0000 26.4303 0.0000 0.0000
# 5 0.0000 0.0000 0.0000 0.0000 14.8802 0.0000
# 6 0.0000 0.0000 0.0000 0.0000 0.0000 27.4593
#
#
#
# Elastic Compliance Matrix: (Units=1/GPa)
#
#
# Indices 1 2 3 4 5 6 
#
# 1 0.010595 -0.006238 -0.002111 0.000000 0.000000 0.000000
# 2 -0.006238 0.021428 -0.005131 0.000000 0.000000 0.000000
# 3 -0.002111 -0.005131 0.012220 0.000000 0.000000 0.000000
# 4 0.000000 0.000000 0.000000 0.037835 0.000000 0.000000
# 5 0.000000 0.000000 0.000000 0.000000 0.067204 0.000000
# 6 0.000000 0.000000 0.000000 0.000000 0.000000 0.036418
#
#
# Mechanical properties :
#
#
# Convention : Reuss Voigt Hill
#
# Bulk Modulus (GPa) = 57.85810 62.86213 60.36012
# Shear Modulus (GPa) = 22.89155 25.55879 24.22517
#
# Velocity S-wave (km/s) = 3.57177 3.77413 3.67434
# Velocity P-wave (km/s) = 7.01816 7.35019 7.18610
#
# Compressibility (1/GPa) = 0.01728366
#
# Stress axis : x y z
#
# Youngs Moduli (GPa) = 94.38422 46.66706 81.83198
#
# Poissons Ratio (x) = 0.29112 0.17271
# Poissons Ratio (y) = 0.58880 0.41989
# Poissons Ratio (z) = 0.19920 0.23945
#
# Static dielectric constant tensor:
#      x y z
#    x 3.518900 0.000000 0.000000 
#    y 0.000000 3.330500 0.000000 
#    z 0.000000 0.000000 3.341380 
# 
# 
# High freq. dielectric constant tensor:
#      x y z
#    x 1.696630 0.000000 0.000000 
#    y 0.000000 1.687190 0.000000 
#    z 0.000000 0.000000 1.694720 
# 
# From -- ./inp_files/71904.got.cif
#   From: 2010.03.12/outbox.cif.g09.slc.cpg/sg65_36_cif.got.tgz:71904.got - 2010.04.10 20:52:16.
