data_PCOD8268618
_publ_section_title
;
Structure prediction by ZEFSAII (Michael W. Deem and Ramdas Pophale) SiO2 
 PCOD8268618
Probable space group: C M M M
;
_chemical_formula_sum "Si O2"
_cell_formula_units_Z 88
_cell_length_a 33.898090
_cell_length_b 14.150613
_cell_length_c 9.772965
_cell_angle_alpha 90.000000
_cell_angle_beta 90.000000
_cell_angle_gamma 90.000000
_cell_volume 4687.883665
_symmetry_space_group_name_H-M "C M M M"
_symmetry_group_IT_number 65
_symmetry_cell_setting 'orthorhombic'
loop_
_space_group_symop_operation_xyz
x,y,z
-x,-y,z
x,-y,-z
-x,y,-z
-x,-y,-z
x,y,-z
-x,y,z
x,-y,z
1/2+x,1/2+y,z
1/2-x,1/2-y,z
1/2+x,1/2-y,-z
1/2-x,1/2+y,-z
1/2-x,1/2-y,-z
1/2+x,1/2+y,-z
1/2-x,1/2+y,z
1/2+x,1/2-y,z
loop_
_atom_site_type_symbol
_atom_site_label
_atom_site_fract_x
_atom_site_fract_y
_atom_site_fract_z
Si Si1 0.232951 0.112419 0.152500
Si Si2 0.420475 0.704682 0.338241
Si Si3 0.386765 0.896964 0.661480
Si Si4 0.700115 0.111941 0.651904
Si Si5 0.355094 0.388298 0.845185
Si Si6 0.000000 0.892924 0.337489
O O1 0.266108 0.157325 0.251704
O O2 0.189013 0.144016 0.198112
O O3 0.235255 0.000000 0.154974
O O4 0.241845 0.149379 0.000000
O O5 0.415568 0.687671 0.500000
O O6 0.418826 0.816651 0.301202
O O7 0.384983 0.653610 0.263544
O O8 0.461655 0.662708 0.283509
O O9 0.382432 0.907125 0.500000
O O10 0.343310 0.866301 0.715583
O O11 0.399695 0.000000 0.721862
O O12 0.704711 0.155883 0.500000
O O13 0.705603 0.000000 0.643808
O O14 0.358772 0.500000 0.838723
O O15 0.364588 0.353762 0.000000
O O16 0.000000 0.894710 0.500000
O O17 0.000000 0.000000 0.279581
#
# Coordination Sequence:
#
# PCOD8268618 Si02
#       6
#    16  16  16  16  16   8
#     4   8  14  25  41  62  90 124 159 195 237 281
#     4  10  19  32  52  74  95 125 162 196 237 291
#     4   8  15  29  48  70  97 127 160 201 243 278
#     4   8  13  23  41  63  87 119 159 199 235 272
#     4   9  18  32  48  68  98 131 160 198 246 288
#     4   9  18  32  50  76 106 125 145 191 246 287
#
# _framework density 18.771796999999999
#
# number of rings (size 3 to 8) (size 9 to 14) (size 15 to 20)
#    0.000    3.364    0.000    2.727    0.000    1.818 
#    0.000    4.545    0.000   11.455    0.000    0.000 
#    0.000    1.455    0.000    0.000    0.000    0.000 
#
# Total GULP energy -545248.252823 kJ/mol
# GULP energy per Si atom -12392.005746 kJ/mol
# Density = 1.872907 g / cm^3
# Si number density = 18.771797 Si / 1000 Ang^3
#
#
#
# Elastic Constant Matrix: (Units=GPa)
#
#
# Indices 1 2 3 4 5 6 
#
# 1 135.4055 77.4780 43.4064 0.0000 0.0000 0.0000
# 2 77.4780 76.7936 25.2034 0.0000 0.0000 0.0000
# 3 43.4064 25.2034 48.9525 0.0000 0.0000 0.0000
# 4 0.0000 0.0000 0.0000 8.5732 0.0000 0.0000
# 5 0.0000 0.0000 0.0000 0.0000 -18.1535 0.0000
# 6 0.0000 0.0000 0.0000 0.0000 0.0000 28.7724
#
#
#
# Elastic Compliance Matrix: (Units=1/GPa)
#
#
# Indices 1 2 3 4 5 6 
#
# 1 0.020287 -0.017526 -0.008966 0.000000 0.000000 0.000000
# 2 -0.017526 0.030810 -0.000322 0.000000 0.000000 0.000000
# 3 -0.008966 -0.000322 0.028544 0.000000 0.000000 0.000000
# 4 0.000000 0.000000 0.000000 0.116643 0.000000 0.000000
# 5 0.000000 0.000000 0.000000 0.000000 -0.055086 0.000000
# 6 0.000000 0.000000 0.000000 0.000000 0.000000 0.034755
#
#
# Mechanical properties :
#
#
# Convention : Reuss Voigt Hill
#
# Bulk Modulus (GPa) = 38.44187 61.48081 49.96134
# Shear Modulus (GPa) = 20.98612 11.50932 16.24772
#
# Velocity S-wave (km/s) = 3.34722 2.47881 2.94520
# Velocity P-wave (km/s) = 5.95495 6.40433 6.18373
#
# Compressibility (1/GPa) = 0.02601330
#
# Stress axis : x y z
#
# Youngs Moduli (GPa) = 49.29171 32.45741 35.03374
#
# Poissons Ratio (x) = 0.56884 0.31410
# Poissons Ratio (y) = 0.86387 0.01129
# Poissons Ratio (z) = 0.44194 0.01046
#
# Static dielectric constant tensor:
#      x y z
#    x 3.538410 0.000000 0.000000 
#    y 0.000000 3.515330 0.000000 
#    z 0.000000 0.000000 3.346260 
# 
# 
# High freq. dielectric constant tensor:
#      x y z
#    x 1.718600 0.000000 0.000000 
#    y 0.000000 1.725310 0.000000 
#    z 0.000000 0.000000 1.692960 
# 
# From -- ./inp_files/32223.got.cif
#   From: 2010.03.12/outbox.cif.g09.slc.cpg/sg65_17_cif.got.tgz:32223.got - 2010.04.10 20:52:16.
