data_PCOD8268679
_publ_section_title
;
Structure prediction by ZEFSAII (Michael W. Deem and Ramdas Pophale) SiO2 
 PCOD8268679
Probable space group: C M M M
;
_chemical_formula_sum "Si O2"
_cell_formula_units_Z 80
_cell_length_a 9.660930
_cell_length_b 19.478142
_cell_length_c 22.168101
_cell_angle_alpha 90.000000
_cell_angle_beta 90.000000
_cell_angle_gamma 90.000000
_cell_volume 4171.525997
_symmetry_space_group_name_H-M "C M M M"
_symmetry_group_IT_number 65
_symmetry_cell_setting 'orthorhombic'
loop_
_space_group_symop_operation_xyz
x,y,z
-x,-y,z
x,-y,-z
-x,y,-z
-x,-y,-z
x,y,-z
-x,y,z
x,-y,z
1/2+x,1/2+y,z
1/2-x,1/2-y,z
1/2+x,1/2-y,-z
1/2-x,1/2+y,-z
1/2-x,1/2-y,-z
1/2+x,1/2+y,-z
1/2-x,1/2+y,z
1/2+x,1/2-y,z
loop_
_atom_site_type_symbol
_atom_site_label
_atom_site_fract_x
_atom_site_fract_y
_atom_site_fract_z
Si Si1 0.156640 0.918730 0.776640
Si Si2 0.159171 0.418238 0.887023
Si Si3 0.159741 0.081638 0.000000
Si Si4 0.242341 0.419690 0.354962
Si Si5 0.500000 0.580720 0.565835
Si Si6 0.149581 0.308284 0.567489
O O1 0.261291 0.890495 0.827675
O O2 0.224078 0.898005 0.713217
O O3 0.000000 0.888446 0.783617
O O4 0.144756 0.000000 0.781358
O O5 0.152972 0.500000 0.887101
O O6 0.000000 0.390010 0.889894
O O7 0.252674 0.391677 0.942646
O O8 0.000000 0.109863 0.000000
O O9 0.152641 0.000000 0.000000
O O10 0.202206 0.500000 0.359218
O O11 0.369282 0.396637 0.396335
O O12 0.127535 0.371570 0.385164
O O13 0.500000 0.500000 0.558643
O O14 0.500000 0.616067 0.500000
O O15 0.196115 0.333357 0.500000
O O16 0.250000 0.250000 0.593593
O O17 0.000000 0.273179 0.562892
#
# Coordination Sequence:
#
# PCOD8268679 Si02
#       6
#    16  16   8  16   8  16
#     4   9  16  27  42  62  90 122 158 197 242 297
#     4   9  16  24  35  53  80 115 155 200 246 290
#     4   9  15  23  35  51  73 109 158 203 242 289
#     4  10  19  32  52  77 102 130 167 210 256 306
#     4   9  16  26  44  72  98 121 154 198 248 297
#     4  10  23  40  56  75 100 132 167 207 258 312
#
# _framework density 19.177634999999999
#
# number of rings (size 3 to 8) (size 9 to 14) (size 15 to 20)
#    0.000    2.600    1.000    1.500    1.400    6.000 
#    0.000    3.000    0.000    0.000    0.000    0.000 
#    0.000    0.000    0.000    0.900    0.000    8.700 
#
# Total GULP energy -495541.636113 kJ/mol
# GULP energy per Si atom -12388.540903 kJ/mol
# Density = 1.913399 g / cm^3
# Si number density = 19.177635 Si / 1000 Ang^3
#
#
#
# Elastic Constant Matrix: (Units=GPa)
#
#
# Indices 1 2 3 4 5 6 
#
# 1 136.0884 26.8070 69.7511 0.0000 0.0000 0.0000
# 2 26.8070 36.9906 28.3269 0.0000 0.0000 0.0000
# 3 69.7511 28.3269 170.5071 0.0000 0.0000 0.0000
# 4 0.0000 0.0000 0.0000 7.7622 0.0000 0.0000
# 5 0.0000 0.0000 0.0000 0.0000 30.8914 0.0000
# 6 0.0000 0.0000 0.0000 0.0000 0.0000 12.7666
#
#
#
# Elastic Compliance Matrix: (Units=1/GPa)
#
#
# Indices 1 2 3 4 5 6 
#
# 1 0.009962 -0.004696 -0.003295 0.000000 0.000000 0.000000
# 2 -0.004696 0.033188 -0.003593 0.000000 0.000000 0.000000
# 3 -0.003295 -0.003593 0.007810 0.000000 0.000000 0.000000
# 4 0.000000 0.000000 0.000000 0.128830 0.000000 0.000000
# 5 0.000000 0.000000 0.000000 0.000000 0.032371 0.000000
# 6 0.000000 0.000000 0.000000 0.000000 0.000000 0.078329
#
#
# Mechanical properties :
#
#
# Convention : Reuss Voigt Hill
#
# Bulk Modulus (GPa) = 35.98103 65.92843 50.95473
# Shear Modulus (GPa) = 15.48358 24.86412 20.17385
#
# Velocity S-wave (km/s) = 2.84452 3.60462 3.24689
# Velocity P-wave (km/s) = 5.43977 7.19561 6.37840
#
# Compressibility (1/GPa) = 0.02779242
#
# Stress axis : x y z
#
# Youngs Moduli (GPa) = 100.38036 30.13106 128.04636
#
# Poissons Ratio (x) = 0.14150 0.42193
# Poissons Ratio (y) = 0.47140 0.46002
# Poissons Ratio (z) = 0.33076 0.10825
#
# Static dielectric constant tensor:
#      x y z
#    x 3.970370 0.000000 0.000000 
#    y 0.000000 2.744960 0.000000 
#    z 0.000000 0.000000 3.724510 
# 
# 
# High freq. dielectric constant tensor:
#      x y z
#    x 1.763110 0.000000 0.000000 
#    y 0.000000 1.665210 0.000000 
#    z 0.000000 0.000000 1.752710 
# 
# From -- ./inp_files/67391.got.cif
#   From: 2010.03.12/outbox.cif.g09.slc.cpg/sg65_34_cif.got.tgz:67391.got - 2010.04.10 20:52:16.
