data_PCOD8268961
_publ_section_title
;
Structure prediction by ZEFSAII (Michael W. Deem and Ramdas Pophale) SiO2 
 PCOD8268961
Probable space group: C M M M
;
_chemical_formula_sum "Si O2"
_cell_formula_units_Z 72
_cell_length_a 9.142066
_cell_length_b 18.415348
_cell_length_c 23.529584
_cell_angle_alpha 90.000000
_cell_angle_beta 90.000000
_cell_angle_gamma 90.000000
_cell_volume 3961.307275
_symmetry_space_group_name_H-M "C M M M"
_symmetry_group_IT_number 65
_symmetry_cell_setting 'orthorhombic'
loop_
_space_group_symop_operation_xyz
x,y,z
-x,-y,z
x,-y,-z
-x,y,-z
-x,-y,-z
x,y,-z
-x,y,z
x,-y,z
1/2+x,1/2+y,z
1/2-x,1/2-y,z
1/2+x,1/2-y,-z
1/2-x,1/2+y,-z
1/2-x,1/2-y,-z
1/2+x,1/2+y,-z
1/2-x,1/2+y,z
1/2+x,1/2-y,z
loop_
_atom_site_type_symbol
_atom_site_label
_atom_site_fract_x
_atom_site_fract_y
_atom_site_fract_z
Si Si1 0.333240 0.413867 0.219043
Si Si2 0.172275 0.327734 0.876672
Si Si3 0.664262 0.913422 0.670305
Si Si4 0.166090 0.676626 0.000000
Si Si5 0.664433 0.586366 0.437367
O O1 0.500000 0.386114 0.216487
O O2 0.325689 0.500000 0.216042
O O3 0.241576 0.383811 0.166720
O O4 0.261742 0.384949 0.277403
O O5 0.250000 0.250000 0.870723
O O6 0.200111 0.363435 0.939946
O O7 0.000000 0.318646 0.864199
O O8 0.500000 0.883401 0.677100
O O9 0.730459 0.881824 0.611517
O O10 0.664715 0.000000 0.669059
O O11 0.250000 0.750000 0.000000
O O12 0.000000 0.701027 0.000000
O O13 0.719217 0.611735 0.500000
O O14 0.500000 0.614772 0.426548
O O15 0.664874 0.500000 0.434538
#
# Coordination Sequence:
#
# PCOD8268961 Si02
#       5
#    16  16  16   8  16
#     4  10  20  33  48  67  94 128 163 197 236 282
#     4  10  19  33  53  75  98 123 155 193 234 280
#     4   9  16  25  38  57  82 114 151 190 233 279
#     4   8  16  30  49  72  95 121 151 187 231 278
#     4   8  13  21  33  50  75 109 147 185 226 273
#
# _framework density 18.175818
#
# number of rings (size 3 to 8) (size 9 to 14) (size 15 to 20)
#    0.000    2.889    0.000    2.667    0.000    5.333 
#    0.000    2.778    0.000    3.333    0.000    0.000 
#    0.000    0.889    0.000    3.333    0.000    7.778 
#
# Total GULP energy -446054.163812 kJ/mol
# GULP energy per Si atom -12390.393439 kJ/mol
# Density = 1.813445 g / cm^3
# Si number density = 18.175818 Si / 1000 Ang^3
#
#
#
# Elastic Constant Matrix: (Units=GPa)
#
#
# Indices 1 2 3 4 5 6 
#
# 1 138.9641 17.4737 91.5808 0.0000 0.0000 0.0000
# 2 17.4737 10.3819 19.7622 0.0000 0.0000 0.0000
# 3 91.5808 19.7622 183.5694 0.0000 0.0000 0.0000
# 4 0.0000 0.0000 0.0000 -2.6849 0.0000 0.0000
# 5 0.0000 0.0000 0.0000 0.0000 37.6079 0.0000
# 6 0.0000 0.0000 0.0000 0.0000 0.0000 19.1310
#
#
#
# Elastic Compliance Matrix: (Units=1/GPa)
#
#
# Indices 1 2 3 4 5 6 
#
# 1 0.011594 -0.010695 -0.004633 0.000000 0.000000 0.000000
# 2 -0.010695 0.131014 -0.008769 0.000000 0.000000 0.000000
# 3 -0.004633 -0.008769 0.008703 0.000000 0.000000 0.000000
# 4 0.000000 0.000000 0.000000 -0.372447 0.000000 0.000000
# 5 0.000000 0.000000 0.000000 0.000000 0.026590 0.000000
# 6 0.000000 0.000000 0.000000 0.000000 0.000000 0.052271
#
#
# Mechanical properties :
#
#
# Convention : Reuss Voigt Hill
#
# Bulk Modulus (GPa) = 9.69765 65.61651 37.65708
# Shear Modulus (GPa) = -83.73949 24.41739 -29.66105
#
# Velocity S-wave (km/s) = -6.79499 3.66922 -4.04406
# Velocity P-wave (km/s) = 7.49770 7.35733 1.02110
#
# Compressibility (1/GPa) = 0.10311779
#
# Stress axis : x y z
#
# Youngs Moduli (GPa) = 86.25118 7.63276 114.90653
#
# Poissons Ratio (x) = 0.08164 0.53233
# Poissons Ratio (y) = 0.92249 1.00756
# Poissons Ratio (z) = 0.39958 0.06693
#
# Static dielectric constant tensor:
#      x y z
#    x 3.596680 0.000000 0.000000 
#    y 0.000000 2.611730 0.000000 
#    z 0.000000 0.000000 4.040950 
# 
# 
# High freq. dielectric constant tensor:
#      x y z
#    x 1.718760 0.000000 0.000000 
#    y 0.000000 1.623280 0.000000 
#    z 0.000000 0.000000 1.730800 
# 
# From -- ./inp_files/59305.got.cif
#   From: 2010.03.12/outbox.cif.g09.slc.cpg/sg65_30_cif.got.tgz:59305.got - 2010.04.10 20:52:16.
