data_PCOD8268008
_publ_section_title
;
Structure prediction by ZEFSAII (Michael W. Deem and Ramdas Pophale) SiO2 
 PCOD8268008
Probable space group: C M M M
;
_chemical_formula_sum "Si O2"
_cell_formula_units_Z 88
_cell_length_a 9.017708
_cell_length_b 18.408920
_cell_length_c 29.030332
_cell_angle_alpha 90.000000
_cell_angle_beta 90.000000
_cell_angle_gamma 90.000000
_cell_volume 4819.216992
_symmetry_space_group_name_H-M "C M M M"
_symmetry_group_IT_number 65
_symmetry_cell_setting 'orthorhombic'
loop_
_space_group_symop_operation_xyz
x,y,z
-x,-y,z
x,-y,-z
-x,y,-z
-x,-y,-z
x,y,-z
-x,y,z
x,-y,z
1/2+x,1/2+y,z
1/2-x,1/2-y,z
1/2+x,1/2-y,-z
1/2-x,1/2+y,-z
1/2-x,1/2-y,-z
1/2+x,1/2+y,-z
1/2-x,1/2+y,z
1/2+x,1/2-y,z
loop_
_atom_site_type_symbol
_atom_site_label
_atom_site_fract_x
_atom_site_fract_y
_atom_site_fract_z
Si Si1 0.332456 0.586548 0.681087
Si Si2 0.168890 0.586175 0.227835
Si Si3 0.324661 0.328392 0.148613
Si Si4 0.827918 0.826217 0.951403
Si Si5 0.332497 0.413384 0.500000
Si Si6 0.832432 0.413363 0.409408
O O1 0.500000 0.616540 0.682677
O O2 0.332263 0.500000 0.680450
O O3 0.243843 0.615720 0.725428
O O4 0.252687 0.616830 0.635380
O O5 0.176560 0.500000 0.225953
O O6 0.258620 0.615730 0.184660
O O7 0.000000 0.613979 0.226502
O O8 0.500000 0.320551 0.156595
O O9 0.250000 0.250000 0.154705
O O10 0.287026 0.363243 0.097663
O O11 0.750000 0.750000 0.953177
O O12 0.000000 0.809074 0.950489
O O13 0.788402 0.869137 0.000000
O O14 0.331809 0.500000 0.500000
O O15 0.500000 0.383657 0.500000
O O16 0.249209 0.383433 0.545147
O O17 0.831774 0.500000 0.409319
O O18 0.000000 0.383691 0.408859
#
# Coordination Sequence:
#
# PCOD8268008 Si02
#       6
#    16  16  16  16   8  16
#     4   9  16  26  40  57  77 104 141 182 222 267
#     4  10  20  33  48  66  90 121 157 195 233 274
#     4  10  19  31  49  72  97 123 152 188 230 275
#     4   8  14  25  42  65  91 117 146 181 221 266
#     4   9  15  21  29  43  65  95 132 173 216 261
#     4   9  15  22  32  47  69  98 133 173 217 264
#
# _framework density 18.260227
#
# number of rings (size 3 to 8) (size 9 to 14) (size 15 to 20)
#    0.000    2.818    0.000    2.455    0.000    7.273 
#    0.000    0.000    0.000    0.545    0.000    3.818 
#    0.000    0.000    0.000    0.818    0.000   12.364 
#
# Total GULP energy -545136.298622 kJ/mol
# GULP energy per Si atom -12389.461332 kJ/mol
# Density = 1.821867 g / cm^3
# Si number density = 18.260227 Si / 1000 Ang^3
#
#
#
# Elastic Constant Matrix: (Units=GPa)
#
#
# Indices 1 2 3 4 5 6 
#
# 1 143.8223 13.2437 89.8507 0.0000 0.0000 0.0000
# 2 13.2437 6.9783 16.3164 0.0000 0.0000 0.0000
# 3 89.8507 16.3164 209.8768 0.0000 0.0000 0.0000
# 4 0.0000 0.0000 0.0000 -5.1115 0.0000 0.0000
# 5 0.0000 0.0000 0.0000 0.0000 31.7651 0.0000
# 6 0.0000 0.0000 0.0000 0.0000 0.0000 15.2780
#
#
#
# Elastic Compliance Matrix: (Units=1/GPa)
#
#
# Indices 1 2 3 4 5 6 
#
# 1 0.010153 -0.011128 -0.003481 0.000000 0.000000 0.000000
# 2 -0.011128 0.187335 -0.009800 0.000000 0.000000 0.000000
# 3 -0.003481 -0.009800 0.007017 0.000000 0.000000 0.000000
# 4 0.000000 0.000000 0.000000 -0.195637 0.000000 0.000000
# 5 0.000000 0.000000 0.000000 0.000000 0.031481 0.000000
# 6 0.000000 0.000000 0.000000 0.000000 0.000000 0.065453
#
#
# Mechanical properties :
#
#
# Convention : Reuss Voigt Hill
#
# Bulk Modulus (GPa) = 6.42320 66.61100 36.51710
# Shear Modulus (GPa) = 24.21118 24.47077 24.34098
#
# Velocity S-wave (km/s) = 3.64524 3.66473 3.65500
# Velocity P-wave (km/s) = 4.60893 7.38003 6.15253
#
# Compressibility (1/GPa) = 0.15568554
#
# Stress axis : x y z
#
# Youngs Moduli (GPa) = 98.49629 5.33804 142.51188
#
# Poissons Ratio (x) = 0.05940 0.49613
# Poissons Ratio (y) = 1.09609 1.39658
# Poissons Ratio (z) = 0.34290 0.05231
#
# Static dielectric constant tensor:
#      x y z
#    x 3.594750 0.000000 0.000000 
#    y 0.000000 2.530880 0.000000 
#    z 0.000000 0.000000 4.032500 
# 
# 
# High freq. dielectric constant tensor:
#      x y z
#    x 1.726870 0.000000 0.000000 
#    y 0.000000 1.613430 0.000000 
#    z 0.000000 0.000000 1.740450 
# 
# From -- ./inp_files/76656.got.cif
#   From: 2010.03.12/outbox.cif.g09.slc.cpg/sg65_39_cif.got.tgz:76656.got - 2010.04.10 20:52:16.
