data_PCOD8268216
_publ_section_title
;
Structure prediction by ZEFSAII (Michael W. Deem and Ramdas Pophale) SiO2 
 PCOD8268216
Probable space group: C M M M
;
_chemical_formula_sum "Si O2"
_cell_formula_units_Z 128
_cell_length_a 20.624245
_cell_length_b 17.511844
_cell_length_c 20.577789
_cell_angle_alpha 90.000000
_cell_angle_beta 90.000000
_cell_angle_gamma 90.000000
_cell_volume 7432.050443
_symmetry_space_group_name_H-M "C M M M"
_symmetry_group_IT_number 65
_symmetry_cell_setting 'orthorhombic'
loop_
_space_group_symop_operation_xyz
x,y,z
-x,-y,z
x,-y,-z
-x,y,-z
-x,-y,-z
x,y,-z
-x,y,z
x,-y,z
1/2+x,1/2+y,z
1/2-x,1/2-y,z
1/2+x,1/2-y,-z
1/2-x,1/2+y,-z
1/2-x,1/2-y,-z
1/2+x,1/2+y,-z
1/2-x,1/2+y,z
1/2+x,1/2-y,z
loop_
_atom_site_type_symbol
_atom_site_label
_atom_site_fract_x
_atom_site_fract_y
_atom_site_fract_z
Si Si1 0.427979 0.802785 0.319089
Si Si2 0.190704 0.808051 0.313946
Si Si3 0.738749 0.587957 0.200351
Si Si4 0.884650 0.586499 0.931302
Si Si5 0.274345 0.586962 0.426099
Si Si6 0.607731 0.913339 0.208453
Si Si7 0.250377 0.162945 0.071335
Si Si8 0.876321 0.413728 0.424859
O O1 0.500000 0.767383 0.325149
O O2 0.377222 0.735266 0.308386
O O3 0.427835 0.858159 0.257378
O O4 0.414760 0.852212 0.383282
O O5 0.250000 0.750000 0.319745
O O6 0.199210 0.862049 0.251798
O O7 0.185404 0.858571 0.378953
O O8 0.720815 0.500000 0.211960
O O9 0.815270 0.602932 0.208629
O O10 0.716447 0.612411 0.127529
O O11 0.857223 0.500000 0.925431
O O12 0.922742 0.602763 0.863972
O O13 0.825005 0.642611 0.935933
O O14 0.925082 0.594999 0.000000
O O15 0.285766 0.614077 0.500000
O O16 0.297982 0.500000 0.417304
O O17 0.199109 0.593090 0.407134
O O18 0.593927 0.000000 0.230277
O O19 0.250000 0.250000 0.094436
O O20 0.216369 0.152009 0.000000
O O21 0.888566 0.394832 0.500000
O O22 0.899914 0.500000 0.409149
#
# Coordination Sequence:
#
# PCOD8268216 Si02
#       8
#    16  16  16  16  16  16  16  16
#     4  12  25  36  48  73 107 140 172 212 257 304
#     4  12  21  34  55  77 102 136 171 214 260 300
#     4  10  19  31  51  75 100 133 176 217 253 302
#     4   8  14  25  42  65  95 132 169 204 243 291
#     4   9  18  34  58  85 107 129 165 210 253 302
#     4   9  17  30  49  73 101 135 171 205 247 306
#     4   9  16  24  39  69 108 138 159 196 256 313
#     4   9  18  34  55  79 108 140 171 201 242 304
#
# _framework density 17.222704
#
# number of rings (size 3 to 8) (size 9 to 14) (size 15 to 20)
#    0.000    2.250    2.500    3.000    1.750    4.750 
#    0.000    0.625    0.000    1.875    0.000    2.625 
#    0.000    0.000    0.000    1.125    0.000    0.125 
#
# Total GULP energy -793140.097494 kJ/mol
# GULP energy per Si atom -12392.814023 kJ/mol
# Density = 1.718350 g / cm^3
# Si number density = 17.222704 Si / 1000 Ang^3
#
#
#
# Elastic Constant Matrix: (Units=GPa)
#
#
# Indices 1 2 3 4 5 6 
#
# 1 61.1499 34.0302 27.8504 0.0000 0.0000 0.0000
# 2 34.0302 80.1532 46.8805 0.0000 0.0000 0.0000
# 3 27.8504 46.8805 123.2746 0.0000 0.0000 0.0000
# 4 0.0000 0.0000 0.0000 30.7910 0.0000 0.0000
# 5 0.0000 0.0000 0.0000 0.0000 4.2105 0.0000
# 6 0.0000 0.0000 0.0000 0.0000 0.0000 13.2314
#
#
#
# Elastic Compliance Matrix: (Units=1/GPa)
#
#
# Indices 1 2 3 4 5 6 
#
# 1 0.021719 -0.008168 -0.001801 0.000000 0.000000 0.000000
# 2 -0.008168 0.019117 -0.005425 0.000000 0.000000 0.000000
# 3 -0.001801 -0.005425 0.010582 0.000000 0.000000 0.000000
# 4 0.000000 0.000000 0.000000 0.032477 0.000000 0.000000
# 5 0.000000 0.000000 0.000000 0.000000 0.237502 0.000000
# 6 0.000000 0.000000 0.000000 0.000000 0.000000 0.075578
#
#
# Mechanical properties :
#
#
# Convention : Reuss Voigt Hill
#
# Bulk Modulus (GPa) = 48.47071 53.56663 51.01867
# Shear Modulus (GPa) = 11.50387 20.03436 15.76911
#
# Velocity S-wave (km/s) = 2.58727 3.41435 3.02917
# Velocity P-wave (km/s) = 6.09343 6.83473 6.47470
#
# Compressibility (1/GPa) = 0.02063101
#
# Stress axis : x y z
#
# Youngs Moduli (GPa) = 46.04310 52.31034 94.50269
#
# Poissons Ratio (x) = 0.42726 0.17016
# Poissons Ratio (y) = 0.37607 0.51264
# Poissons Ratio (z) = 0.08290 0.28376
#
# Static dielectric constant tensor:
#      x y z
#    x 2.705790 0.000000 0.000000 
#    y 0.000000 3.224890 0.000000 
#    z 0.000000 0.000000 3.682970 
# 
# 
# High freq. dielectric constant tensor:
#      x y z
#    x 1.601060 0.000000 0.000000 
#    y 0.000000 1.660450 0.000000 
#    z 0.000000 0.000000 1.695420 
# 
# From -- ./inp_files/64874.got.cif
#   From: 2010.03.12/outbox.cif.g09.slc.cpg/sg65_33_cif.got.tgz:64874.got - 2010.04.10 20:52:16.
