data_PCOD8268845
_publ_section_title
;
Structure prediction by ZEFSAII (Michael W. Deem and Ramdas Pophale) SiO2 
 PCOD8268845
Probable space group: C M M M
;
_chemical_formula_sum "Si O2"
_cell_formula_units_Z 80
_cell_length_a 25.682635
_cell_length_b 9.252453
_cell_length_c 21.930645
_cell_angle_alpha 90.000000
_cell_angle_beta 90.000000
_cell_angle_gamma 90.000000
_cell_volume 5211.321565
_symmetry_space_group_name_H-M "C M M M"
_symmetry_group_IT_number 65
_symmetry_cell_setting 'orthorhombic'
loop_
_space_group_symop_operation_xyz
x,y,z
-x,-y,z
x,-y,-z
-x,y,-z
-x,-y,-z
x,y,-z
-x,y,z
x,-y,z
1/2+x,1/2+y,z
1/2-x,1/2-y,z
1/2+x,1/2-y,-z
1/2-x,1/2+y,-z
1/2-x,1/2-y,-z
1/2+x,1/2+y,-z
1/2-x,1/2+y,z
1/2+x,1/2-y,z
loop_
_atom_site_type_symbol
_atom_site_label
_atom_site_fract_x
_atom_site_fract_y
_atom_site_fract_z
Si Si1 0.937960 0.663344 0.116725
Si Si2 0.439882 0.665403 0.233422
Si Si3 0.800805 0.168366 0.569880
Si Si4 0.000000 0.331639 0.571529
Si Si5 0.906243 0.168322 0.633747
Si Si6 0.937882 0.163688 0.000000
O O1 0.916838 0.500000 0.112564
O O2 0.917753 0.734910 0.179298
O O3 0.000000 0.666360 0.115762
O O4 0.916200 0.753790 0.059493
O O5 0.500000 0.700312 0.247943
O O6 0.433561 0.500000 0.212412
O O7 0.407265 0.698930 0.294083
O O8 0.812394 0.211459 0.500000
O O9 0.750000 0.250000 0.594792
O O10 0.849876 0.216802 0.610054
O O11 0.789735 0.000000 0.576629
O O12 0.051198 0.261561 0.599391
O O13 0.000000 0.500000 0.587706
O O14 0.000000 0.302781 0.500000
O O15 0.917507 0.000000 0.619867
O O16 0.000000 0.164016 0.000000
O O17 0.916586 0.000000 0.000000
#
# Coordination Sequence:
#
# PCOD8268845 Si02
#       6
#    16  16  16   8  16   8
#     4   9  16  24  35  52  76 106 139 175 214 253
#     4   9  16  27  41  58  80 108 143 178 211 252
#     4   9  18  32  50  69  87 110 143 183 227 272
#     4  11  23  33  43  65  93 116 141 180 227 267
#     4  10  19  33  50  66  85 116 152 183 217 267
#     4   9  15  23  35  51  71 101 142 183 214 241
#
# _framework density 15.351193
#
# number of rings (size 3 to 8) (size 9 to 14) (size 15 to 20)
#    0.000    2.600    1.000    1.800    0.000    6.800 
#    0.000    2.000    0.000    0.000    0.000    0.000 
#    0.000    0.000    0.000    0.900    0.000   10.900 
#
# Total GULP energy -496026.497253 kJ/mol
# GULP energy per Si atom -12400.662431 kJ/mol
# Density = 1.531625 g / cm^3
# Si number density = 15.351193 Si / 1000 Ang^3
#
#
#
# Elastic Constant Matrix: (Units=GPa)
#
#
# Indices 1 2 3 4 5 6 
#
# 1 76.3550 43.8333 53.8896 0.0000 0.0000 0.0000
# 2 43.8333 101.1931 69.4370 0.0000 0.0000 0.0000
# 3 53.8896 69.4370 120.3801 0.0000 0.0000 0.0000
# 4 0.0000 0.0000 0.0000 26.2758 0.0000 0.0000
# 5 0.0000 0.0000 0.0000 0.0000 26.1697 0.0000
# 6 0.0000 0.0000 0.0000 0.0000 0.0000 18.2371
#
#
#
# Elastic Compliance Matrix: (Units=1/GPa)
#
#
# Indices 1 2 3 4 5 6 
#
# 1 0.020173 -0.004206 -0.006604 0.000000 0.000000 0.000000
# 2 -0.004206 0.017233 -0.008057 0.000000 0.000000 0.000000
# 3 -0.006604 -0.008057 0.015911 0.000000 0.000000 0.000000
# 4 0.000000 0.000000 0.000000 0.038058 0.000000 0.000000
# 5 0.000000 0.000000 0.000000 0.000000 0.038212 0.000000
# 6 0.000000 0.000000 0.000000 0.000000 0.000000 0.054833
#
#
# Mechanical properties :
#
#
# Convention : Reuss Voigt Hill
#
# Bulk Modulus (GPa) = 64.18089 70.24977 67.21533
# Shear Modulus (GPa) = 21.99267 22.85440 22.42353
#
# Velocity S-wave (km/s) = 3.78912 3.86264 3.82606
# Velocity P-wave (km/s) = 7.81297 8.10891 7.96231
#
# Compressibility (1/GPa) = 0.01558096
#
# Stress axis : x y z
#
# Youngs Moduli (GPa) = 49.57225 58.02891 62.84997
#
# Poissons Ratio (x) = 0.24409 0.41507
# Poissons Ratio (y) = 0.20852 0.50639
# Poissons Ratio (z) = 0.32738 0.46754
#
# Static dielectric constant tensor:
#      x y z
#    x 2.548100 0.000000 0.000000 
#    y 0.000000 3.053720 0.000000 
#    z 0.000000 0.000000 3.062020 
# 
# 
# High freq. dielectric constant tensor:
#      x y z
#    x 1.529010 0.000000 0.000000 
#    y 0.000000 1.597610 0.000000 
#    z 0.000000 0.000000 1.595970 
# 
# From -- ./inp_files/71350.got.cif
#   From: 2010.03.12/outbox.cif.g09.slc.cpg/sg65_36_cif.got.tgz:71350.got - 2010.04.10 20:52:16.
