data_PCOD8268521
_publ_section_title
;
Structure prediction by ZEFSAII (Michael W. Deem and Ramdas Pophale) SiO2 
 PCOD8268521
Probable space group: C M M M
;
_chemical_formula_sum "Si O2"
_cell_formula_units_Z 96
_cell_length_a 9.615831
_cell_length_b 29.062205
_cell_length_c 18.066925
_cell_angle_alpha 90.000000
_cell_angle_beta 90.000000
_cell_angle_gamma 90.000000
_cell_volume 5048.933208
_symmetry_space_group_name_H-M "C M M M"
_symmetry_group_IT_number 65
_symmetry_cell_setting 'orthorhombic'
loop_
_space_group_symop_operation_xyz
x,y,z
-x,-y,z
x,-y,-z
-x,y,-z
-x,-y,-z
x,y,-z
-x,y,z
x,-y,z
1/2+x,1/2+y,z
1/2-x,1/2-y,z
1/2+x,1/2-y,-z
1/2-x,1/2+y,-z
1/2-x,1/2-y,-z
1/2+x,1/2+y,-z
1/2-x,1/2+y,z
1/2+x,1/2-y,z
loop_
_atom_site_type_symbol
_atom_site_label
_atom_site_fract_x
_atom_site_fract_y
_atom_site_fract_z
Si Si1 0.338689 0.141924 0.652208
Si Si2 0.653402 0.711358 0.585019
Si Si3 0.336269 0.949898 0.417451
Si Si4 0.343325 0.449188 0.087923
Si Si5 0.660867 0.795826 0.208764
Si Si6 0.161197 0.634833 0.085078
O O1 0.500000 0.150382 0.630436
O O2 0.236340 0.164059 0.591812
O O3 0.299070 0.087872 0.645714
O O4 0.304633 0.164222 0.731522
O O5 0.632779 0.724164 0.500000
O O6 0.500000 0.709888 0.622918
O O7 0.750000 0.750000 0.625014
O O8 0.280186 0.936462 0.500000
O O9 0.500000 0.953817 0.422801
O O10 0.274787 0.000000 0.393902
O O11 0.500000 0.438903 0.114891
O O12 0.296016 0.500000 0.116540
O O13 0.243465 0.409056 0.118393
O O14 0.336608 0.449155 0.000000
O O15 0.500000 0.781380 0.212693
O O16 0.750000 0.750000 0.220922
O O17 0.698684 0.818919 0.130033
O O18 0.000000 0.622441 0.094564
O O19 0.201136 0.644658 0.000000
#
# Coordination Sequence:
#
# PCOD8268521 Si02
#       6
#    16  16  16  16  16  16
#     4  10  19  32  51  73  99 129 162 202 247 295
#     4  10  20  32  47  70  99 129 163 201 239 283
#     4   8  14  26  47  75 102 128 161 198 234 276
#     4   8  14  26  46  73 102 128 156 193 238 292
#     4  10  22  37  51  71  97 127 165 209 259 311
#     4   9  18  33  51  71  97 128 166 213 261 310
#
# _framework density 19.013918
#
# number of rings (size 3 to 8) (size 9 to 14) (size 15 to 20)
#    0.000    2.833    0.000    2.500    0.000    5.000 
#    0.000    2.500    0.000    3.500    0.000    2.333 
#    0.000    0.000    0.000    0.000    0.000    0.000 
#
# Total GULP energy -594717.266625 kJ/mol
# GULP energy per Si atom -12389.943055 kJ/mol
# Density = 1.897064 g / cm^3
# Si number density = 19.013918 Si / 1000 Ang^3
#
#
#
# Elastic Constant Matrix: (Units=GPa)
#
#
# Indices 1 2 3 4 5 6 
#
# 1 84.4077 63.6357 29.9539 0.0000 0.0000 0.0000
# 2 63.6357 167.9633 60.1625 0.0000 0.0000 0.0000
# 3 29.9539 60.1625 62.2170 0.0000 0.0000 0.0000
# 4 0.0000 0.0000 0.0000 26.8274 0.0000 0.0000
# 5 0.0000 0.0000 0.0000 0.0000 14.9080 0.0000
# 6 0.0000 0.0000 0.0000 0.0000 0.0000 30.6803
#
#
#
# Elastic Compliance Matrix: (Units=1/GPa)
#
#
# Indices 1 2 3 4 5 6 
#
# 1 0.016938 -0.005349 -0.002982 0.000000 0.000000 0.000000
# 2 -0.005349 0.010798 -0.007866 0.000000 0.000000 0.000000
# 3 -0.002982 -0.007866 0.025115 0.000000 0.000000 0.000000
# 4 0.000000 0.000000 0.000000 0.037275 0.000000 0.000000
# 5 0.000000 0.000000 0.000000 0.000000 0.067078 0.000000
# 6 0.000000 0.000000 0.000000 0.000000 0.000000 0.032594
#
#
# Mechanical properties :
#
#
# Convention : Reuss Voigt Hill
#
# Bulk Modulus (GPa) = 48.88511 69.12134 59.00322
# Shear Modulus (GPa) = 21.83292 25.20553 23.51923
#
# Velocity S-wave (km/s) = 3.39227 3.64488 3.52084
# Velocity P-wave (km/s) = 6.41166 7.35836 6.90126
#
# Compressibility (1/GPa) = 0.02045613
#
# Stress axis : x y z
#
# Youngs Moduli (GPa) = 59.03754 92.61169 39.81715
#
# Poissons Ratio (x) = 0.49539 0.11875
# Poissons Ratio (y) = 0.31580 0.31320
# Poissons Ratio (z) = 0.17607 0.72848
#
# Static dielectric constant tensor:
#      x y z
#    x 3.472030 0.000000 0.000000 
#    y 0.000000 3.873550 0.000000 
#    z 0.000000 0.000000 3.238360 
# 
# 
# High freq. dielectric constant tensor:
#      x y z
#    x 1.719530 0.000000 0.000000 
#    y 0.000000 1.744820 0.000000 
#    z 0.000000 0.000000 1.708590 
# 
# From -- ./inp_files/60232.got.cif
#   From: 2010.03.12/outbox.cif.g09.slc.cpg/sg65_31_cif.got.tgz:60232.got - 2010.04.10 20:52:16.
