data_PCOD8268916
_publ_section_title
;
Structure prediction by ZEFSAII (Michael W. Deem and Ramdas Pophale) SiO2 
 PCOD8268916
Probable space group: C M M M
;
_chemical_formula_sum "Si O2"
_cell_formula_units_Z 104
_cell_length_a 9.298085
_cell_length_b 28.714586
_cell_length_c 23.116230
_cell_angle_alpha 90.000000
_cell_angle_beta 90.000000
_cell_angle_gamma 90.000000
_cell_volume 6171.817536
_symmetry_space_group_name_H-M "C M M M"
_symmetry_group_IT_number 65
_symmetry_cell_setting 'orthorhombic'
loop_
_space_group_symop_operation_xyz
x,y,z
-x,-y,z
x,-y,-z
-x,y,-z
-x,-y,-z
x,y,-z
-x,y,z
x,-y,z
1/2+x,1/2+y,z
1/2-x,1/2-y,z
1/2+x,1/2-y,-z
1/2-x,1/2+y,-z
1/2-x,1/2-y,-z
1/2+x,1/2+y,-z
1/2-x,1/2+y,z
1/2+x,1/2-y,z
loop_
_atom_site_type_symbol
_atom_site_label
_atom_site_fract_x
_atom_site_fract_y
_atom_site_fract_z
Si Si1 0.837559 0.944619 0.500000
Si Si2 0.665368 0.794384 0.760972
Si Si3 0.336348 0.617164 0.935083
Si Si4 0.166979 0.445992 0.388819
Si Si5 0.831644 0.946891 0.829850
Si Si6 0.331266 0.104405 0.727866
Si Si7 0.668614 0.795699 0.895271
O O1 0.756817 0.926247 0.442924
O O2 0.000000 0.925533 0.500000
O O3 0.833056 0.000000 0.500000
O O4 0.500000 0.782284 0.752428
O O5 0.750000 0.750000 0.735823
O O6 0.709489 0.840950 0.726487
O O7 0.702735 0.803229 0.827833
O O8 0.500000 0.633672 0.922535
O O9 0.291375 0.576539 0.890947
O O10 0.229679 0.660465 0.929466
O O11 0.322376 0.596996 0.000000
O O12 0.200818 0.500000 0.376695
O O13 0.216486 0.417217 0.332988
O O14 0.000000 0.438430 0.403025
O O15 0.750650 0.921198 0.778700
O O16 0.000000 0.943600 0.816905
O O17 0.778989 0.000000 0.832811
O O18 0.500000 0.097507 0.739347
O O19 0.500000 0.790567 0.907842
O O20 0.750000 0.750000 0.918352
#
# Coordination Sequence:
#
# PCOD8268916 Si02
#       7
#     8  16  16  16  16  16  16
#     4   9  17  29  45  67 100 137 170 205 240 275
#     4   9  18  31  49  73  99 126 157 194 241 294
#     4  10  21  36  52  70  94 126 164 203 245 296
#     4   9  17  29  47  71 100 135 170 200 234 281
#     4  10  21  35  51  72  97 126 161 203 249 294
#     4  10  19  33  52  76 102 130 164 202 244 291
#     4  10  19  33  53  75  98 124 155 196 246 300
#
# _framework density 16.850788999999999
#
# number of rings (size 3 to 8) (size 9 to 14) (size 15 to 20)
#    0.000    2.385    1.538    1.154    0.000    4.615 
#    0.000    3.077    0.000    0.000    0.000    2.692 
#    0.000    0.000    0.000    0.000    0.000    0.000 
#
# Total GULP energy -644888.404426 kJ/mol
# GULP energy per Si atom -12401.700085 kJ/mol
# Density = 1.681244 g / cm^3
# Si number density = 16.850789 Si / 1000 Ang^3
#
#
#
# Elastic Constant Matrix: (Units=GPa)
#
#
# Indices 1 2 3 4 5 6 
#
# 1 66.8154 45.7529 53.3235 0.0000 0.0000 0.0000
# 2 45.7529 109.7318 64.3120 0.0000 0.0000 0.0000
# 3 53.3235 64.3120 125.1420 0.0000 0.0000 0.0000
# 4 0.0000 0.0000 0.0000 19.3962 0.0000 0.0000
# 5 0.0000 0.0000 0.0000 0.0000 10.6138 0.0000
# 6 0.0000 0.0000 0.0000 0.0000 0.0000 24.9697
#
#
#
# Elastic Compliance Matrix: (Units=1/GPa)
#
#
# Indices 1 2 3 4 5 6 
#
# 1 0.025187 -0.006027 -0.007635 0.000000 0.000000 0.000000
# 2 -0.006027 0.014483 -0.004875 0.000000 0.000000 0.000000
# 3 -0.007635 -0.004875 0.013749 0.000000 0.000000 0.000000
# 4 0.000000 0.000000 0.000000 0.051556 0.000000 0.000000
# 5 0.000000 0.000000 0.000000 0.000000 0.094217 0.000000
# 6 0.000000 0.000000 0.000000 0.000000 0.000000 0.040049
#
#
# Mechanical properties :
#
#
# Convention : Reuss Voigt Hill
#
# Bulk Modulus (GPa) = 61.17757 69.82955 65.50356
# Shear Modulus (GPa) = 17.74536 20.21600 18.98068
#
# Velocity S-wave (km/s) = 3.24865 3.46744 3.35983
# Velocity P-wave (km/s) = 7.10323 7.58688 7.34904
#
# Compressibility (1/GPa) = 0.01634586
#
# Stress axis : x y z
#
# Youngs Moduli (GPa) = 39.70314 69.04519 72.72998
#
# Poissons Ratio (x) = 0.41614 0.55528
# Poissons Ratio (y) = 0.23929 0.35456
# Poissons Ratio (z) = 0.30313 0.33659
#
# Static dielectric constant tensor:
#      x y z
#    x 3.171420 0.000000 0.000000 
#    y 0.000000 3.186080 0.000000 
#    z 0.000000 0.000000 3.116480 
# 
# 
# High freq. dielectric constant tensor:
#      x y z
#    x 1.651430 0.000000 0.000000 
#    y 0.000000 1.638310 0.000000 
#    z 0.000000 0.000000 1.637740 
# 
# From -- ./inp_files/60882.got.cif
#   From: 2010.03.12/outbox.cif.g09.slc.cpg/sg65_31_cif.got.tgz:60882.got - 2010.04.10 20:52:16.
