data_PCOD8268387
_publ_section_title
;
Structure prediction by ZEFSAII (Michael W. Deem and Ramdas Pophale) SiO2 
 PCOD8268387
Probable space group: C M M M
;
_chemical_formula_sum "Si O2"
_cell_formula_units_Z 96
_cell_length_a 22.160901
_cell_length_b 27.616898
_cell_length_c 8.839773
_cell_angle_alpha 90.000000
_cell_angle_beta 90.000000
_cell_angle_gamma 90.000000
_cell_volume 5410.076700
_symmetry_space_group_name_H-M "C M M M"
_symmetry_group_IT_number 65
_symmetry_cell_setting 'orthorhombic'
loop_
_space_group_symop_operation_xyz
x,y,z
-x,-y,z
x,-y,-z
-x,y,-z
-x,-y,-z
x,y,-z
-x,y,z
x,-y,z
1/2+x,1/2+y,z
1/2-x,1/2-y,z
1/2+x,1/2-y,-z
1/2-x,1/2+y,-z
1/2-x,1/2-y,-z
1/2+x,1/2+y,-z
1/2-x,1/2+y,z
1/2+x,1/2-y,z
loop_
_atom_site_type_symbol
_atom_site_label
_atom_site_fract_x
_atom_site_fract_y
_atom_site_fract_z
Si Si1 0.000000 0.768259 0.175248
Si Si2 0.230644 0.945103 0.323547
Si Si3 0.625432 0.220184 0.824262
Si Si4 0.318427 0.693059 0.671689
Si Si5 0.378670 0.605151 0.822109
Si Si6 0.500000 0.373328 0.678939
Si Si7 0.307004 0.143222 0.670586
O O1 0.057235 0.734932 0.215676
O O2 0.000000 0.817214 0.271028
O O3 0.000000 0.783746 0.000000
O O4 0.217885 0.934629 0.500000
O O5 0.168768 0.934794 0.235564
O O6 0.284394 0.909354 0.268582
O O7 0.251283 0.000000 0.293245
O O8 0.671840 0.252666 0.728578
O O9 0.638886 0.164591 0.773613
O O10 0.639361 0.226016 0.000000
O O11 0.342343 0.687134 0.500000
O O12 0.356738 0.658958 0.782177
O O13 0.248458 0.680405 0.680126
O O14 0.442765 0.597258 0.742310
O O15 0.386583 0.600015 0.000000
O O16 0.500000 0.375368 0.500000
O O17 0.331291 0.138301 0.500000
#
# Coordination Sequence:
#
# PCOD8268387 Si02
#       7
#     8  16  16  16  16   8  16
#     4  10  22  36  48  69 104 143 178 217 256 292
#     4   9  19  38  60  79 101 131 167 211 265 319
#     4  11  21  32  48  71 103 138 173 211 254 303
#     4  10  19  32  49  71 101 137 174 210 250 302
#     4  11  21  33  51  76 106 136 171 218 261 302
#     4  12  22  34  53  73  98 141 187 217 250 300
#     4   9  19  33  50  74 103 131 164 209 256 308
#
# _framework density 17.744665999999999
#
# number of rings (size 3 to 8) (size 9 to 14) (size 15 to 20)
#    0.000    1.833    1.667    4.750    0.000    6.333 
#    0.000    0.417    0.000    2.500    0.000    0.583 
#    0.000    4.667    0.000    0.000    0.000    0.000 
#
# Total GULP energy -595201.148677 kJ/mol
# GULP energy per Si atom -12400.023931 kJ/mol
# Density = 1.770428 g / cm^3
# Si number density = 17.744666 Si / 1000 Ang^3
#
#
#
# Elastic Constant Matrix: (Units=GPa)
#
#
# Indices 1 2 3 4 5 6 
#
# 1 41.7366 37.8281 28.0592 0.0000 0.0000 0.0000
# 2 37.8281 104.3444 34.4870 0.0000 0.0000 0.0000
# 3 28.0592 34.4870 95.2667 0.0000 0.0000 0.0000
# 4 0.0000 0.0000 0.0000 19.8856 0.0000 0.0000
# 5 0.0000 0.0000 0.0000 0.0000 26.8263 0.0000
# 6 0.0000 0.0000 0.0000 0.0000 0.0000 15.6603
#
#
#
# Elastic Compliance Matrix: (Units=1/GPa)
#
#
# Indices 1 2 3 4 5 6 
#
# 1 0.039782 -0.011983 -0.007379 0.000000 0.000000 0.000000
# 2 -0.011983 0.014496 -0.001718 0.000000 0.000000 0.000000
# 3 -0.007379 -0.001718 0.013292 0.000000 0.000000 0.000000
# 4 0.000000 0.000000 0.000000 0.050288 0.000000 0.000000
# 5 0.000000 0.000000 0.000000 0.000000 0.037277 0.000000
# 6 0.000000 0.000000 0.000000 0.000000 0.000000 0.063856
#
#
# Mechanical properties :
#
#
# Convention : Reuss Voigt Hill
#
# Bulk Modulus (GPa) = 39.35621 49.12181 44.23901
# Shear Modulus (GPa) = 18.54458 21.87267 20.20862
#
# Velocity S-wave (km/s) = 3.23628 3.51470 3.37836
# Velocity P-wave (km/s) = 6.01598 6.64932 6.34056
#
# Compressibility (1/GPa) = 0.02540895
#
# Stress axis : x y z
#
# Youngs Moduli (GPa) = 25.13710 68.98542 75.23227
#
# Poissons Ratio (x) = 0.82667 0.55514
# Poissons Ratio (y) = 0.30123 0.12925
# Poissons Ratio (z) = 0.18549 0.11852
#
# Static dielectric constant tensor:
#      x y z
#    x 3.242210 0.000000 0.000000 
#    y 0.000000 3.177830 0.000000 
#    z 0.000000 0.000000 3.292970 
# 
# 
# High freq. dielectric constant tensor:
#      x y z
#    x 1.667720 0.000000 0.000000 
#    y 0.000000 1.665480 0.000000 
#    z 0.000000 0.000000 1.692180 
# 
# From -- ./inp_files/14643.got.cif
#   From: 2010.03.12/outbox.cif.g09.slc.cpg/sg65_8_cif.got.tgz:14643.got - 2010.04.10 20:52:16.
