data_PCOD8268018
_publ_section_title
;
Structure prediction by ZEFSAII (Michael W. Deem and Ramdas Pophale) SiO2 
 PCOD8268018
Probable space group: C M M M
;
_chemical_formula_sum "Si O2"
_cell_formula_units_Z 96
_cell_length_a 9.127541
_cell_length_b 19.310401
_cell_length_c 30.910398
_cell_angle_alpha 90.000000
_cell_angle_beta 90.000000
_cell_angle_gamma 90.000000
_cell_volume 5448.157850
_symmetry_space_group_name_H-M "C M M M"
_symmetry_group_IT_number 65
_symmetry_cell_setting 'orthorhombic'
loop_
_space_group_symop_operation_xyz
x,y,z
-x,-y,z
x,-y,-z
-x,y,-z
-x,-y,-z
x,y,-z
-x,y,z
x,-y,z
1/2+x,1/2+y,z
1/2-x,1/2-y,z
1/2+x,1/2-y,-z
1/2-x,1/2+y,-z
1/2-x,1/2-y,-z
1/2+x,1/2+y,-z
1/2-x,1/2+y,z
1/2+x,1/2-y,z
loop_
_atom_site_type_symbol
_atom_site_label
_atom_site_fract_x
_atom_site_fract_y
_atom_site_fract_z
Si Si1 0.662204 0.082140 0.291629
Si Si2 0.330571 0.080735 0.387686
Si Si3 0.328994 0.680507 0.549751
Si Si4 0.673286 0.175651 0.860206
Si Si5 0.830737 0.321612 0.045627
Si Si6 0.331082 0.418307 0.791636
O O1 0.500000 0.110561 0.279769
O O2 0.708860 0.108327 0.339350
O O3 0.777585 0.107308 0.255629
O O4 0.655693 0.000000 0.293300
O O5 0.500000 0.096492 0.398056
O O6 0.227038 0.117069 0.422054
O O7 0.296997 0.000000 0.391509
O O8 0.290796 0.664287 0.500000
O O9 0.500000 0.690675 0.557095
O O10 0.250000 0.750000 0.565540
O O11 0.500000 0.184592 0.852520
O O12 0.750000 0.250000 0.853819
O O13 0.708808 0.143067 0.908296
O O14 0.736236 0.120061 0.827369
O O15 0.750000 0.250000 0.043498
O O16 0.000000 0.303172 0.046734
O O17 0.794566 0.363242 0.000000
O O18 0.500000 0.397878 0.796658
O O19 0.305718 0.500000 0.797326
#
# Coordination Sequence:
#
# PCOD8268018 Si02
#       6
#    16  16  16  16  16  16
#     4   8  15  30  51  73  97 126 161 199 240 288
#     4   9  18  33  54  79 104 129 159 199 245 290
#     4  10  21  36  53  73 100 135 171 205 242 287
#     4  10  19  31  49  72  99 128 158 198 245 289
#     4   8  14  25  42  65  91 119 153 192 235 284
#     4  10  20  33  50  72  98 129 165 202 240 287
#
# _framework density 17.620635
#
# number of rings (size 3 to 8) (size 9 to 14) (size 15 to 20)
#    0.000    2.833    0.000    2.500    0.000    4.000 
#    0.000    4.167    0.000    4.500    0.000    3.500 
#    0.000    0.000    0.000    0.000    0.000    0.000 
#
# Total GULP energy -594691.086740 kJ/mol
# GULP energy per Si atom -12389.397640 kJ/mol
# Density = 1.758053 g / cm^3
# Si number density = 17.620635 Si / 1000 Ang^3
#
#
#
# Elastic Constant Matrix: (Units=GPa)
#
#
# Indices 1 2 3 4 5 6 
#
# 1 89.6001 36.7470 63.5556 0.0000 0.0000 0.0000
# 2 36.7470 42.8018 46.3951 0.0000 0.0000 0.0000
# 3 63.5556 46.3951 134.5948 0.0000 0.0000 0.0000
# 4 0.0000 0.0000 0.0000 33.4305 0.0000 0.0000
# 5 0.0000 0.0000 0.0000 0.0000 27.0344 0.0000
# 6 0.0000 0.0000 0.0000 0.0000 0.0000 27.5194
#
#
#
# Elastic Compliance Matrix: (Units=1/GPa)
#
#
# Indices 1 2 3 4 5 6 
#
# 1 0.019465 -0.010774 -0.005477 0.000000 0.000000 0.000000
# 2 -0.010774 0.043264 -0.009826 0.000000 0.000000 0.000000
# 3 -0.005477 -0.009826 0.013403 0.000000 0.000000 0.000000
# 4 0.000000 0.000000 0.000000 0.029913 0.000000 0.000000
# 5 0.000000 0.000000 0.000000 0.000000 0.036990 0.000000
# 6 0.000000 0.000000 0.000000 0.000000 0.000000 0.036338
#
#
# Mechanical properties :
#
#
# Convention : Reuss Voigt Hill
#
# Bulk Modulus (GPa) = 41.70561 62.26580 51.98570
# Shear Modulus (GPa) = 20.87517 25.61678 23.24597
#
# Velocity S-wave (km/s) = 3.44568 3.81700 3.63608
# Velocity P-wave (km/s) = 6.28890 7.40538 6.86986
#
# Compressibility (1/GPa) = 0.02397759
#
# Stress axis : x y z
#
# Youngs Moduli (GPa) = 51.37547 23.11390 74.60969
#
# Poissons Ratio (x) = 0.24903 0.40866
# Poissons Ratio (y) = 0.55351 0.73310
# Poissons Ratio (z) = 0.28140 0.22711
#
# Static dielectric constant tensor:
#      x y z
#    x 3.370470 0.000000 0.000000 
#    y 0.000000 2.822580 0.000000 
#    z 0.000000 0.000000 3.859510 
# 
# 
# High freq. dielectric constant tensor:
#      x y z
#    x 1.689350 0.000000 0.000000 
#    y 0.000000 1.632220 0.000000 
#    z 0.000000 0.000000 1.704040 
# 
# From -- ./inp_files/73154.got.cif
#   From: 2010.03.12/outbox.cif.g09.slc.cpg/sg65_37_cif.got.tgz:73154.got - 2010.04.10 20:52:16.
