data_PCOD8268418
_publ_section_title
;
Structure prediction by ZEFSAII (Michael W. Deem and Ramdas Pophale) SiO2 
 PCOD8268418
Probable space group: C M M M
;
_chemical_formula_sum "Si O2"
_cell_formula_units_Z 80
_cell_length_a 18.174473
_cell_length_b 27.891637
_cell_length_c 8.862459
_cell_angle_alpha 90.000000
_cell_angle_beta 90.000000
_cell_angle_gamma 90.000000
_cell_volume 4492.520526
_symmetry_space_group_name_H-M "C M M M"
_symmetry_group_IT_number 65
_symmetry_cell_setting 'orthorhombic'
loop_
_space_group_symop_operation_xyz
x,y,z
-x,-y,z
x,-y,-z
-x,y,-z
-x,-y,-z
x,y,-z
-x,y,z
x,-y,z
1/2+x,1/2+y,z
1/2-x,1/2-y,z
1/2+x,1/2-y,-z
1/2-x,1/2+y,-z
1/2-x,1/2-y,-z
1/2+x,1/2+y,-z
1/2-x,1/2+y,z
1/2+x,1/2-y,z
loop_
_atom_site_type_symbol
_atom_site_label
_atom_site_fract_x
_atom_site_fract_y
_atom_site_fract_z
Si Si1 0.704636 0.351369 0.320902
Si Si2 0.343931 0.806989 0.177525
Si Si3 0.776030 0.447778 0.677571
Si Si4 0.915950 0.792741 0.822119
Si Si5 0.082389 0.606748 0.674293
O O1 0.705338 0.348975 0.500000
O O2 0.766201 0.314870 0.259412
O O3 0.722652 0.405496 0.262460
O O4 0.625093 0.337027 0.257793
O O5 0.376665 0.756180 0.228328
O O6 0.403425 0.846683 0.224415
O O7 0.330136 0.808968 0.000000
O O8 0.766773 0.451576 0.500000
O O9 0.757038 0.500000 0.750162
O O10 0.860548 0.435028 0.719028
O O11 0.000000 0.792257 0.765990
O O12 0.911593 0.799934 0.000000
O O13 0.094205 0.621642 0.500000
O O14 0.000000 0.587724 0.703983
#
# Coordination Sequence:
#
# PCOD8268418 Si02
#       5
#    16  16  16  16  16
#     4  10  20  33  51  75  98 122 157 199 240 279
#     4  10  19  32  50  70  96 133 168 191 222 275
#     4   8  15  29  48  69  93 122 157 197 240 285
#     4  10  21  35  50  70  97 129 162 193 230 281
#     4   9  17  28  44  70 101 129 160 199 237 271
#
# _framework density 17.807376000000001
#
# number of rings (size 3 to 8) (size 9 to 14) (size 15 to 20)
#    0.000    2.600    0.000    3.600    0.000    6.000 
#    0.000    2.000    0.000   15.600    0.000    9.800 
#    0.000    0.000    0.000    0.000    0.000    0.000 
#
# Total GULP energy -495891.320357 kJ/mol
# GULP energy per Si atom -12397.283009 kJ/mol
# Density = 1.776685 g / cm^3
# Si number density = 17.807376 Si / 1000 Ang^3
#
#
#
# Elastic Constant Matrix: (Units=GPa)
#
#
# Indices 1 2 3 4 5 6 
#
# 1 116.9167 76.8370 31.9390 0.0000 0.0000 0.0000
# 2 76.8370 136.9991 29.6163 0.0000 0.0000 0.0000
# 3 31.9390 29.6163 33.3201 0.0000 0.0000 0.0000
# 4 0.0000 0.0000 0.0000 7.1606 0.0000 0.0000
# 5 0.0000 0.0000 0.0000 0.0000 28.4267 0.0000
# 6 0.0000 0.0000 0.0000 0.0000 0.0000 13.8086
#
#
#
# Elastic Compliance Matrix: (Units=1/GPa)
#
#
# Indices 1 2 3 4 5 6 
#
# 1 0.015363 -0.006725 -0.008748 0.000000 0.000000 0.000000
# 2 -0.006725 0.011979 -0.004201 0.000000 0.000000 0.000000
# 3 -0.008748 -0.004201 0.042132 0.000000 0.000000 0.000000
# 4 0.000000 0.000000 0.000000 0.139653 0.000000 0.000000
# 5 0.000000 0.000000 0.000000 0.000000 0.035178 0.000000
# 6 0.000000 0.000000 0.000000 0.000000 0.000000 0.072419
#
#
# Mechanical properties :
#
#
# Convention : Reuss Voigt Hill
#
# Bulk Modulus (GPa) = 33.19570 62.66894 47.93232
# Shear Modulus (GPa) = 13.65689 19.80209 16.72949
#
# Velocity S-wave (km/s) = 2.77234 3.33831 3.06840
# Velocity P-wave (km/s) = 5.37865 7.08012 6.28721
#
# Compressibility (1/GPa) = 0.03012438
#
# Stress axis : x y z
#
# Youngs Moduli (GPa) = 65.09315 83.47679 23.73485
#
# Poissons Ratio (x) = 0.56138 0.20764
# Poissons Ratio (y) = 0.43775 0.09972
# Poissons Ratio (z) = 0.56946 0.35073
#
# Static dielectric constant tensor:
#      x y z
#    x 3.331000 0.000000 0.000000 
#    y 0.000000 3.548580 0.000000 
#    z 0.000000 0.000000 3.102420 
# 
# 
# High freq. dielectric constant tensor:
#      x y z
#    x 1.681620 0.000000 0.000000 
#    y 0.000000 1.681170 0.000000 
#    z 0.000000 0.000000 1.670850 
# 
# From -- ./inp_files/9568.got.cif
#   From: 2010.03.12/outbox.cif.g09.slc.cpg/sg65_5_cif.got.tgz:9568.got - 2010.04.10 20:52:16.
