data_PCOD8268782
_publ_section_title
;
Structure prediction by ZEFSAII (Michael W. Deem and Ramdas Pophale) SiO2 
 PCOD8268782
Probable space group: C M M M
;
_chemical_formula_sum "Si O2"
_cell_formula_units_Z 80
_cell_length_a 17.765462
_cell_length_b 23.049588
_cell_length_c 11.393352
_cell_angle_alpha 90.000000
_cell_angle_beta 90.000000
_cell_angle_gamma 90.000000
_cell_volume 4665.424742
_symmetry_space_group_name_H-M "C M M M"
_symmetry_group_IT_number 65
_symmetry_cell_setting 'orthorhombic'
loop_
_space_group_symop_operation_xyz
x,y,z
-x,-y,z
x,-y,-z
-x,y,-z
-x,-y,-z
x,y,-z
-x,y,z
x,-y,z
1/2+x,1/2+y,z
1/2-x,1/2-y,z
1/2+x,1/2-y,-z
1/2-x,1/2+y,-z
1/2-x,1/2-y,-z
1/2+x,1/2+y,-z
1/2-x,1/2+y,z
1/2+x,1/2-y,z
loop_
_atom_site_type_symbol
_atom_site_label
_atom_site_fract_x
_atom_site_fract_y
_atom_site_fract_z
Si Si1 0.645110 0.389589 0.243916
Si Si2 0.589329 0.569262 0.000000
Si Si3 0.583425 0.154583 0.361040
Si Si4 0.000000 0.067655 0.373384
Si Si5 0.335099 0.729541 0.634133
Si Si6 0.291783 0.066412 0.635194
O O1 0.573541 0.415452 0.305833
O O2 0.651588 0.321887 0.274321
O O3 0.718517 0.423599 0.286850
O O4 0.632397 0.400277 0.107070
O O5 0.601804 0.500000 0.000000
O O6 0.500000 0.583291 0.000000
O O7 0.580733 0.149623 0.500000
O O8 0.500000 0.144313 0.307881
O O9 0.611274 0.218304 0.324381
O O10 0.640444 0.105579 0.313488
O O11 0.000000 0.098767 0.500000
O O12 0.000000 0.000000 0.389707
O O13 0.353241 0.710075 0.500000
O O14 0.250000 0.750000 0.642238
O O15 0.273174 0.083407 0.500000
O O16 0.317633 0.000000 0.644621
#
# Coordination Sequence:
#
# PCOD8268782 Si02
#       6
#    16   8  16   8  16  16
#     4  12  22  36  56  79 107 148 191 229 275 337
#     4  11  24  42  57  74 109 157 197 236 283 337
#     4   9  18  31  49  77 113 149 179 213 271 340
#     4  11  22  33  51  83 117 142 174 228 287 344
#     4  10  19  34  56  83 115 146 179 226 283 338
#     4  10  19  32  53  80 109 141 180 229 281 332
#
# _framework density 17.14742
#
# number of rings (size 3 to 8) (size 9 to 14) (size 15 to 20)
#    0.000    1.600    3.000    3.600    1.400    2.000 
#    0.000    2.500    0.000    0.000    0.000    0.700 
#    0.000    2.400    0.000    0.000    0.000    0.000 
#
# Total GULP energy -495970.092562 kJ/mol
# GULP energy per Si atom -12399.252314 kJ/mol
# Density = 1.710839 g / cm^3
# Si number density = 17.147420 Si / 1000 Ang^3
#
#
#
# Elastic Constant Matrix: (Units=GPa)
#
#
# Indices 1 2 3 4 5 6 
#
# 1 124.7781 47.2863 42.4966 0.0000 0.0000 0.0000
# 2 47.2863 114.8178 46.4456 0.0000 0.0000 0.0000
# 3 42.4966 46.4456 101.2481 0.0000 0.0000 0.0000
# 4 0.0000 0.0000 0.0000 22.0278 0.0000 0.0000
# 5 0.0000 0.0000 0.0000 0.0000 61.6395 0.0000
# 6 0.0000 0.0000 0.0000 0.0000 0.0000 54.1384
#
#
#
# Elastic Compliance Matrix: (Units=1/GPa)
#
#
# Indices 1 2 3 4 5 6 
#
# 1 0.010134 -0.003012 -0.002872 0.000000 0.000000 0.000000
# 2 -0.003012 0.011589 -0.004052 0.000000 0.000000 0.000000
# 3 -0.002872 -0.004052 0.012941 0.000000 0.000000 0.000000
# 4 0.000000 0.000000 0.000000 0.045397 0.000000 0.000000
# 5 0.000000 0.000000 0.000000 0.000000 0.016223 0.000000
# 6 0.000000 0.000000 0.000000 0.000000 0.000000 0.018471
#
#
# Mechanical properties :
#
#
# Convention : Reuss Voigt Hill
#
# Bulk Modulus (GPa) = 67.60297 68.14458 67.87378
# Shear Modulus (GPa) = 35.82761 41.20216 38.51489
#
# Velocity S-wave (km/s) = 4.57594 4.90717 4.74445
# Velocity P-wave (km/s) = 8.21153 8.48138 8.34754
#
# Compressibility (1/GPa) = 0.01479225
#
# Stress axis : x y z
#
# Youngs Moduli (GPa) = 98.68132 86.28926 77.27430
#
# Poissons Ratio (x) = 0.25988 0.22192
# Poissons Ratio (y) = 0.29720 0.31312
# Poissons Ratio (z) = 0.28339 0.34965
#
# Static dielectric constant tensor:
#      x y z
#    x 3.307950 0.000000 0.000000 
#    y 0.000000 3.246180 0.000000 
#    z 0.000000 0.000000 3.111290 
# 
# 
# High freq. dielectric constant tensor:
#      x y z
#    x 1.674790 0.000000 0.000000 
#    y 0.000000 1.673370 0.000000 
#    z 0.000000 0.000000 1.615650 
# 
# From -- ./inp_files/26704.got.cif
#   From: 2010.03.12/outbox.cif.g09.slc.cpg/sg65_14_cif.got.tgz:26704.got - 2010.04.10 20:52:16.
