data_PCOD8268384
_publ_section_title
;
Structure prediction by ZEFSAII (Michael W. Deem and Ramdas Pophale) SiO2 
 PCOD8268384
Probable space group: C M M M
;
_chemical_formula_sum "Si O2"
_cell_formula_units_Z 96
_cell_length_a 27.294527
_cell_length_b 8.918546
_cell_length_c 24.001168
_cell_angle_alpha 90.000000
_cell_angle_beta 90.000000
_cell_angle_gamma 90.000000
_cell_volume 5842.544194
_symmetry_space_group_name_H-M "C M M M"
_symmetry_group_IT_number 65
_symmetry_cell_setting 'orthorhombic'
loop_
_space_group_symop_operation_xyz
x,y,z
-x,-y,z
x,-y,-z
-x,y,-z
-x,-y,-z
x,y,-z
-x,y,z
x,-y,z
1/2+x,1/2+y,z
1/2-x,1/2-y,z
1/2+x,1/2-y,-z
1/2-x,1/2+y,-z
1/2-x,1/2-y,-z
1/2+x,1/2+y,-z
1/2-x,1/2+y,z
1/2+x,1/2-y,z
loop_
_atom_site_type_symbol
_atom_site_label
_atom_site_fract_x
_atom_site_fract_y
_atom_site_fract_z
Si Si1 0.945205 0.824932 0.281137
Si Si2 0.697205 0.176651 0.119934
Si Si3 0.802681 0.677800 0.338608
Si Si4 0.891598 0.823249 0.605362
Si Si5 0.141696 0.324012 0.772888
Si Si6 0.057213 0.677350 0.500000
Si Si7 0.198337 0.326131 0.000000
O O1 0.926341 0.786744 0.342622
O O2 0.911525 0.747591 0.234919
O O3 0.000000 0.760839 0.275208
O O4 0.943787 0.000000 0.269756
O O5 0.750000 0.250000 0.125505
O O6 0.662850 0.239677 0.168972
O O7 0.672181 0.215762 0.059090
O O8 0.704224 0.000000 0.127637
O O9 0.799867 0.500000 0.346808
O O10 0.750000 0.750000 0.347656
O O11 0.838670 0.748109 0.384828
O O12 0.821778 0.722015 0.277061
O O13 0.917241 0.748371 0.553203
O O14 0.884842 0.000000 0.595643
O O15 0.134341 0.500000 0.774855
O O16 0.065095 0.500000 0.500000
O O17 0.000000 0.720053 0.500000
O O18 0.250000 0.250000 0.000000
O O19 0.209453 0.500000 0.000000
#
# Coordination Sequence:
#
# PCOD8268384 Si02
#       7
#    16  16  16  16  16   8   8
#     4   9  18  32  49  69  92 117 147 185 228 272
#     4   9  16  26  40  61  89 120 153 186 222 264
#     4  10  19  32  49  70  97 127 157 189 227 270
#     4  10  20  35  54  74  96 123 155 188 225 271
#     4   9  18  29  43  66  93 120 152 188 226 271
#     4  11  23  37  54  77 102 125 151 187 229 271
#     4   8  14  24  38  56  83 118 151 185 222 261
#
# _framework density 16.431197000000001
#
# number of rings (size 3 to 8) (size 9 to 14) (size 15 to 20)
#    0.000    2.583    0.000    2.250    0.000    3.667 
#    0.000    0.417    0.000    0.000    0.000    0.583 
#    0.000    4.667    0.000    0.000    0.000    0.000 
#
# Total GULP energy -594976.034923 kJ/mol
# GULP energy per Si atom -12395.334061 kJ/mol
# Density = 1.639380 g / cm^3
# Si number density = 16.431197 Si / 1000 Ang^3
#
#
#
# Elastic Constant Matrix: (Units=GPa)
#
#
# Indices 1 2 3 4 5 6 
#
# 1 140.9958 47.2718 75.1936 0.0000 0.0000 0.0000
# 2 47.2718 51.2315 45.6851 0.0000 0.0000 0.0000
# 3 75.1936 45.6851 138.3401 0.0000 0.0000 0.0000
# 4 0.0000 0.0000 0.0000 19.4543 0.0000 0.0000
# 5 0.0000 0.0000 0.0000 0.0000 19.2406 0.0000
# 6 0.0000 0.0000 0.0000 0.0000 0.0000 28.7471
#
#
#
# Elastic Compliance Matrix: (Units=1/GPa)
#
#
# Indices 1 2 3 4 5 6 
#
# 1 0.011602 -0.007203 -0.003927 0.000000 0.000000 0.000000
# 2 -0.007203 0.032139 -0.006698 0.000000 0.000000 0.000000
# 3 -0.003927 -0.006698 0.011575 0.000000 0.000000 0.000000
# 4 0.000000 0.000000 0.000000 0.051402 0.000000 0.000000
# 5 0.000000 0.000000 0.000000 0.000000 0.051973 0.000000
# 6 0.000000 0.000000 0.000000 0.000000 0.000000 0.034786
#
#
# Mechanical properties :
#
#
# Convention : Reuss Voigt Hill
#
# Bulk Modulus (GPa) = 50.86857 74.09650 62.48254
# Shear Modulus (GPa) = 21.21451 24.31620 22.76535
#
# Velocity S-wave (km/s) = 3.59710 3.85109 3.72626
# Velocity P-wave (km/s) = 6.94823 8.06024 7.52481
#
# Compressibility (1/GPa) = 0.01965850
#
# Stress axis : x y z
#
# Youngs Moduli (GPa) = 86.19322 31.11522 86.39077
#
# Poissons Ratio (x) = 0.22412 0.33929
# Poissons Ratio (y) = 0.62084 0.57867
# Poissons Ratio (z) = 0.33852 0.20842
#
# Static dielectric constant tensor:
#      x y z
#    x 3.091050 0.000000 0.000000 
#    y 0.000000 3.229810 0.000000 
#    z 0.000000 0.000000 3.524080 
# 
# 
# High freq. dielectric constant tensor:
#      x y z
#    x 1.615280 0.000000 0.000000 
#    y 0.000000 1.638200 0.000000 
#    z 0.000000 0.000000 1.632960 
# 
# From -- ./inp_files/68112.got.cif
#   From: 2010.03.12/outbox.cif.g09.slc.cpg/sg65_35_cif.got.tgz:68112.got - 2010.04.10 20:52:16.
