data_PCOD8268219
_publ_section_title
;
Structure prediction by ZEFSAII (Michael W. Deem and Ramdas Pophale) SiO2 
 PCOD8268219
Probable space group: C M M M
;
_chemical_formula_sum "Si O2"
_cell_formula_units_Z 104
_cell_length_a 17.798024
_cell_length_b 19.699048
_cell_length_c 16.884406
_cell_angle_alpha 90.000000
_cell_angle_beta 90.000000
_cell_angle_gamma 90.000000
_cell_volume 5919.742461
_symmetry_space_group_name_H-M "C M M M"
_symmetry_group_IT_number 65
_symmetry_cell_setting 'orthorhombic'
loop_
_space_group_symop_operation_xyz
x,y,z
-x,-y,z
x,-y,-z
-x,y,-z
-x,-y,-z
x,y,-z
-x,y,z
x,-y,z
1/2+x,1/2+y,z
1/2-x,1/2-y,z
1/2+x,1/2-y,-z
1/2-x,1/2+y,-z
1/2-x,1/2-y,-z
1/2+x,1/2+y,-z
1/2-x,1/2+y,z
1/2+x,1/2-y,z
loop_
_atom_site_type_symbol
_atom_site_label
_atom_site_fract_x
_atom_site_fract_y
_atom_site_fract_z
Si Si1 0.416562 0.217218 0.708794
Si Si2 0.910337 0.500000 0.905283
Si Si3 0.085593 0.844174 0.181567
Si Si4 0.313698 0.574690 0.700808
Si Si5 0.821397 0.202518 0.590634
Si Si6 0.826079 0.395216 0.794499
Si Si7 0.276144 0.325119 0.083563
O O1 0.500000 0.193419 0.689218
O O2 0.413088 0.270087 0.780030
O O3 0.387459 0.254639 0.630438
O O4 0.373963 0.148916 0.733204
O O5 0.877546 0.435914 0.857170
O O6 0.000000 0.500000 0.897889
O O7 0.888090 0.500000 0.000000
O O8 0.122017 0.900996 0.238306
O O9 0.135573 0.835785 0.102871
O O10 0.000000 0.865753 0.160725
O O11 0.337351 0.500000 0.668082
O O12 0.307023 0.629434 0.630580
O O13 0.232532 0.561896 0.742297
O O14 0.842669 0.188698 0.500000
O O15 0.750000 0.250000 0.600452
O O16 0.773725 0.346781 0.844167
O O17 0.250000 0.250000 0.067951
O O18 0.262859 0.364857 0.000000
#
# Coordination Sequence:
#
# PCOD8268219 Si02
#       7
#    16   8  16  16  16  16  16
#     4  10  19  33  55  79 104 139 178 222 273 327
#     4  11  24  38  52  76 112 150 190 237 286 334
#     4   9  19  33  52  76 104 138 181 228 273 327
#     4  10  20  34  57  82 107 148 188 226 274 331
#     4  10  20  35  57  84 114 144 179 228 280 331
#     4  11  19  35  54  77 104 143 187 229 269 333
#     4  10  19  31  51  75 103 137 174 225 285 335
#
# _framework density 17.568331000000001
#
# number of rings (size 3 to 8) (size 9 to 14) (size 15 to 20)
#    0.000    1.923    3.846    0.923    0.000    1.231 
#    0.000    0.000    0.000    0.000    0.000    6.462 
#    0.000    4.923    0.000    0.000    0.000    0.000 
#
# Total GULP energy -644218.504291 kJ/mol
# GULP energy per Si atom -12388.817390 kJ/mol
# Density = 1.752834 g / cm^3
# Si number density = 17.568331 Si / 1000 Ang^3
#
#
#
# Elastic Constant Matrix: (Units=GPa)
#
#
# Indices 1 2 3 4 5 6 
#
# 1 116.7673 32.7522 38.7936 0.0000 0.0000 0.0000
# 2 32.7522 98.4565 37.7989 0.0000 0.0000 0.0000
# 3 38.7936 37.7989 102.8903 0.0000 0.0000 0.0000
# 4 0.0000 0.0000 0.0000 17.6500 0.0000 0.0000
# 5 0.0000 0.0000 0.0000 0.0000 21.6458 0.0000
# 6 0.0000 0.0000 0.0000 0.0000 0.0000 15.5644
#
#
#
# Elastic Compliance Matrix: (Units=1/GPa)
#
#
# Indices 1 2 3 4 5 6 
#
# 1 0.010194 -0.002230 -0.003024 0.000000 0.000000 0.000000
# 2 -0.002230 0.012312 -0.003682 0.000000 0.000000 0.000000
# 3 -0.003024 -0.003682 0.012212 0.000000 0.000000 0.000000
# 4 0.000000 0.000000 0.000000 0.056657 0.000000 0.000000
# 5 0.000000 0.000000 0.000000 0.000000 0.046198 0.000000
# 6 0.000000 0.000000 0.000000 0.000000 0.000000 0.064249
#
#
# Mechanical properties :
#
#
# Convention : Reuss Voigt Hill
#
# Bulk Modulus (GPa) = 59.36415 59.64480 59.50448
# Shear Modulus (GPa) = 22.19144 24.89002 23.54073
#
# Velocity S-wave (km/s) = 3.55794 3.76806 3.66451
# Velocity P-wave (km/s) = 7.12337 7.27702 7.20060
#
# Compressibility (1/GPa) = 0.01684518
#
# Stress axis : x y z
#
# Youngs Moduli (GPa) = 98.09345 81.21930 81.88537
#
# Poissons Ratio (x) = 0.18113 0.24765
# Poissons Ratio (y) = 0.21876 0.30153
# Poissons Ratio (z) = 0.29667 0.29908
#
# Static dielectric constant tensor:
#      x y z
#    x 3.193510 0.000000 0.000000 
#    y 0.000000 3.091430 0.000000 
#    z 0.000000 0.000000 3.445580 
# 
# 
# High freq. dielectric constant tensor:
#      x y z
#    x 1.684960 0.000000 0.000000 
#    y 0.000000 1.671890 0.000000 
#    z 0.000000 0.000000 1.670410 
# 
# From -- ./inp_files/54580.got.cif
#   From: 2010.03.12/outbox.cif.g09.slc.cpg/sg65_28_cif.got.tgz:54580.got - 2010.04.10 20:52:16.
