data_PCOD8268958
_publ_section_title
;
Structure prediction by ZEFSAII (Michael W. Deem and Ramdas Pophale) SiO2 
 PCOD8268958
Probable space group: C M M M
;
_chemical_formula_sum "Si O2"
_cell_formula_units_Z 72
_cell_length_a 8.699855
_cell_length_b 18.682488
_cell_length_c 23.036274
_cell_angle_alpha 90.000000
_cell_angle_beta 90.000000
_cell_angle_gamma 90.000000
_cell_volume 3744.199335
_symmetry_space_group_name_H-M "C M M M"
_symmetry_group_IT_number 65
_symmetry_cell_setting 'orthorhombic'
loop_
_space_group_symop_operation_xyz
x,y,z
-x,-y,z
x,-y,-z
-x,y,-z
-x,-y,-z
x,y,-z
-x,y,z
x,-y,z
1/2+x,1/2+y,z
1/2-x,1/2-y,z
1/2+x,1/2-y,-z
1/2-x,1/2+y,-z
1/2-x,1/2-y,-z
1/2+x,1/2+y,-z
1/2-x,1/2+y,z
1/2+x,1/2-y,z
loop_
_atom_site_type_symbol
_atom_site_label
_atom_site_fract_x
_atom_site_fract_y
_atom_site_fract_z
Si Si1 0.325623 0.915886 0.934515
Si Si2 0.317736 0.172534 0.282283
Si Si3 0.682603 0.080528 0.609483
Si Si4 0.182732 0.670958 0.500000
Si Si5 0.179220 0.174223 0.838256
O O1 0.500000 0.893532 0.918892
O O2 0.207232 0.879762 0.890789
O O3 0.305103 0.000000 0.928750
O O4 0.286341 0.891287 0.000000
O O5 0.500000 0.178496 0.280506
O O6 0.250000 0.250000 0.297294
O O7 0.261176 0.116660 0.330796
O O8 0.257077 0.144365 0.220399
O O9 0.500000 0.077340 0.607201
O O10 0.744062 0.127917 0.556035
O O11 0.750165 0.000000 0.605636
O O12 0.250000 0.750000 0.500000
O O13 0.000000 0.676607 0.500000
O O14 0.250000 0.250000 0.855912
O O15 0.000000 0.183365 0.826784
#
# Coordination Sequence:
#
# PCOD8268958 Si02
#       5
#    16  16  16   8  16
#     4   9  19  37  59  81 107 140 176 215 263 319
#     4  10  19  33  53  75 102 136 174 216 262 314
#     4   9  18  32  52  78 104 134 174 216 257 305
#     4  10  19  33  55  79 105 136 172 214 258 308
#     4  11  22  36  55  79 108 141 179 222 266 313
#
# _framework density 19.229745000000001
#
# number of rings (size 3 to 8) (size 9 to 14) (size 15 to 20)
#    0.000    2.222    0.000    5.667    0.000    3.556 
#    0.000    4.444    0.000    6.000    0.000    0.000 
#    0.000    0.000    0.000    0.000    0.000    0.000 
#
# Total GULP energy -446444.400237 kJ/mol
# GULP energy per Si atom -12401.233340 kJ/mol
# Density = 1.918598 g / cm^3
# Si number density = 19.229745 Si / 1000 Ang^3
#
#
#
# Elastic Constant Matrix: (Units=GPa)
#
#
# Indices 1 2 3 4 5 6 
#
# 1 73.2061 29.5480 38.4061 0.0000 0.0000 0.0000
# 2 29.5480 118.3395 84.8695 0.0000 0.0000 0.0000
# 3 38.4061 84.8695 152.8257 0.0000 0.0000 0.0000
# 4 0.0000 0.0000 0.0000 39.3408 0.0000 0.0000
# 5 0.0000 0.0000 0.0000 0.0000 21.6022 0.0000
# 6 0.0000 0.0000 0.0000 0.0000 0.0000 28.9385
#
#
#
# Elastic Compliance Matrix: (Units=1/GPa)
#
#
# Indices 1 2 3 4 5 6 
#
# 1 0.015973 -0.001844 -0.002990 0.000000 0.000000 0.000000
# 2 -0.001844 0.014256 -0.007454 0.000000 0.000000 0.000000
# 3 -0.002990 -0.007454 0.011434 0.000000 0.000000 0.000000
# 4 0.000000 0.000000 0.000000 0.025419 0.000000 0.000000
# 5 0.000000 0.000000 0.000000 0.000000 0.046292 0.000000
# 6 0.000000 0.000000 0.000000 0.000000 0.000000 0.034556
#
#
# Mechanical properties :
#
#
# Convention : Reuss Voigt Hill
#
# Bulk Modulus (GPa) = 58.52030 72.22428 65.37229
# Shear Modulus (GPa) = 28.05820 30.74613 29.40216
#
# Velocity S-wave (km/s) = 3.82397 4.00294 3.91448
# Velocity P-wave (km/s) = 7.07073 7.68146 7.38241
#
# Compressibility (1/GPa) = 0.01708809
#
# Stress axis : x y z
#
# Youngs Moduli (GPa) = 62.60562 70.14532 87.45783
#
# Poissons Ratio (x) = 0.12933 0.26152
# Poissons Ratio (y) = 0.11543 0.65187
# Poissons Ratio (z) = 0.18720 0.52283
#
# Static dielectric constant tensor:
#      x y z
#    x 3.323820 0.000000 0.000000 
#    y 0.000000 3.502600 0.000000 
#    z 0.000000 0.000000 3.721350 
# 
# 
# High freq. dielectric constant tensor:
#      x y z
#    x 1.727390 0.000000 0.000000 
#    y 0.000000 1.746560 0.000000 
#    z 0.000000 0.000000 1.763310 
# 
# From -- ./inp_files/67108.got.cif
#   From: 2010.03.12/outbox.cif.g09.slc.cpg/sg65_34_cif.got.tgz:67108.got - 2010.04.10 20:52:16.
