data_PCOD8268819
_publ_section_title
;
Structure prediction by ZEFSAII (Michael W. Deem and Ramdas Pophale) SiO2 
 PCOD8268819
Probable space group: C M M M
;
_chemical_formula_sum "Si O2"
_cell_formula_units_Z 112
_cell_length_a 13.162469
_cell_length_b 27.371475
_cell_length_c 15.371064
_cell_angle_alpha 90.000000
_cell_angle_beta 90.000000
_cell_angle_gamma 90.000000
_cell_volume 5537.828392
_symmetry_space_group_name_H-M "C M M M"
_symmetry_group_IT_number 65
_symmetry_cell_setting 'orthorhombic'
loop_
_space_group_symop_operation_xyz
x,y,z
-x,-y,z
x,-y,-z
-x,y,-z
-x,-y,-z
x,y,-z
-x,y,z
x,-y,z
1/2+x,1/2+y,z
1/2-x,1/2-y,z
1/2+x,1/2-y,-z
1/2-x,1/2+y,-z
1/2-x,1/2-y,-z
1/2+x,1/2+y,-z
1/2-x,1/2+y,z
1/2+x,1/2-y,z
loop_
_atom_site_type_symbol
_atom_site_label
_atom_site_fract_x
_atom_site_fract_y
_atom_site_fract_z
Si Si1 0.883362 0.581675 0.599909
Si Si2 0.384292 0.643790 0.806609
Si Si3 0.759520 0.053436 0.751508
Si Si4 0.797260 0.684269 0.902466
Si Si5 0.385283 0.916384 0.901350
Si Si6 0.115020 0.749771 0.242615
Si Si7 0.381874 0.805252 0.594049
O O1 0.857876 0.567999 0.500000
O O2 0.807052 0.554280 0.663802
O O3 0.866191 0.638568 0.617535
O O4 0.000000 0.567179 0.620582
O O5 0.500000 0.633744 0.838054
O O6 0.343522 0.596468 0.754111
O O7 0.312247 0.657766 0.887679
O O8 0.380318 0.691781 0.745449
O O9 0.687186 0.055829 0.835175
O O10 0.813213 0.000000 0.753600
O O11 0.880681 0.642154 0.887359
O O12 0.820565 0.729828 0.839284
O O13 0.800701 0.705219 0.000000
O O14 0.500000 0.933392 0.883453
O O15 0.352085 0.929577 0.000000
O O16 0.166432 0.726891 0.328903
O O17 0.000000 0.731741 0.229875
O O18 0.331167 0.793228 0.500000
O O19 0.500000 0.792639 0.587284
#
# Coordination Sequence:
#
# PCOD8268819 Si02
#       7
#    16  16  16  16  16  16  16
#     4   9  18  33  55  87 124 152 175 212 267 337
#     4  10  23  40  55  75 105 143 191 243 284 317
#     4  11  23  38  57  77 101 141 191 239 286 330
#     4  10  20  34  55  84 117 150 179 209 260 334
#     4   9  18  33  54  83 117 144 167 205 263 335
#     4  10  19  32  54  84 118 149 177 217 269 331
#     4   8  14  27  50  80 114 150 177 197 240 314
#
# _framework density 20.224533999999998
#
# number of rings (size 3 to 8) (size 9 to 14) (size 15 to 20)
#    0.000    2.429    0.000    3.857    0.000    5.429 
#    0.000    3.571    0.000    4.714    0.000    5.000 
#    0.000    0.000    0.000    0.000    0.000    0.000 
#
# Total GULP energy -694011.575332 kJ/mol
# GULP energy per Si atom -12393.063845 kJ/mol
# Density = 2.017850 g / cm^3
# Si number density = 20.224534 Si / 1000 Ang^3
#
#
#
# Elastic Constant Matrix: (Units=GPa)
#
#
# Indices 1 2 3 4 5 6 
#
# 1 92.3099 32.1257 30.1587 0.0000 0.0000 0.0000
# 2 32.1257 120.2075 53.3682 0.0000 0.0000 0.0000
# 3 30.1587 53.3682 121.6487 0.0000 0.0000 0.0000
# 4 0.0000 0.0000 0.0000 7.4070 0.0000 0.0000
# 5 0.0000 0.0000 0.0000 0.0000 -3.9104 0.0000
# 6 0.0000 0.0000 0.0000 0.0000 0.0000 21.0896
#
#
#
# Elastic Compliance Matrix: (Units=1/GPa)
#
#
# Indices 1 2 3 4 5 6 
#
# 1 0.012324 -0.002406 -0.002000 0.000000 0.000000 0.000000
# 2 -0.002406 0.010801 -0.004142 0.000000 0.000000 0.000000
# 3 -0.002000 -0.004142 0.010533 0.000000 0.000000 0.000000
# 4 0.000000 0.000000 0.000000 0.135008 0.000000 0.000000
# 5 0.000000 0.000000 0.000000 0.000000 -0.255731 0.000000
# 6 0.000000 0.000000 0.000000 0.000000 0.000000 0.047417
#
#
# Mechanical properties :
#
#
# Convention : Reuss Voigt Hill
#
# Bulk Modulus (GPa) = 60.37642 62.83015 61.60328
# Shear Modulus (GPa) = -293.54680 19.48481 -137.03100
#
# Velocity S-wave (km/s) = -12.06064 3.10727 -8.24026
# Velocity P-wave (km/s) = 12.80732 6.63380 7.74662
#
# Compressibility (1/GPa) = 0.01656276
#
# Stress axis : x y z
#
# Youngs Moduli (GPa) = 81.14471 92.58599 94.93696
#
# Poissons Ratio (x) = 0.22273 0.18986
# Poissons Ratio (y) = 0.19521 0.39323
# Poissons Ratio (z) = 0.16228 0.38349
#
# Static dielectric constant tensor:
#      x y z
#    x 3.586990 0.000000 0.000000 
#    y 0.000000 3.592820 0.000000 
#    z 0.000000 0.000000 3.915670 
# 
# 
# High freq. dielectric constant tensor:
#      x y z
#    x 1.770330 0.000000 0.000000 
#    y 0.000000 1.787030 0.000000 
#    z 0.000000 0.000000 1.784710 
# 
# From -- ./inp_files/41035.got.cif
#   From: 2010.03.12/outbox.cif.g09.slc.cpg/sg65_21_cif.got.tgz:41035.got - 2010.04.10 20:52:16.
