data_PCOD8268977
_publ_section_title
;
Structure prediction by ZEFSAII (Michael W. Deem and Ramdas Pophale) SiO2 
 PCOD8268977
Probable space group: C M M M
;
_chemical_formula_sum "Si O2"
_cell_formula_units_Z 80
_cell_length_a 28.951644
_cell_length_b 19.267929
_cell_length_c 7.760141
_cell_angle_alpha 90.000000
_cell_angle_beta 90.000000
_cell_angle_gamma 90.000000
_cell_volume 4328.903250
_symmetry_space_group_name_H-M "C M M M"
_symmetry_group_IT_number 65
_symmetry_cell_setting 'orthorhombic'
loop_
_space_group_symop_operation_xyz
x,y,z
-x,-y,z
x,-y,-z
-x,y,-z
-x,-y,-z
x,y,-z
-x,y,z
x,-y,z
1/2+x,1/2+y,z
1/2-x,1/2-y,z
1/2+x,1/2-y,-z
1/2-x,1/2+y,-z
1/2-x,1/2-y,-z
1/2+x,1/2+y,-z
1/2-x,1/2+y,z
1/2+x,1/2-y,z
loop_
_atom_site_type_symbol
_atom_site_label
_atom_site_fract_x
_atom_site_fract_y
_atom_site_fract_z
Si Si1 0.694800 0.421150 0.303839
Si Si2 0.205170 0.421737 0.202013
Si Si3 0.881889 0.668169 0.800477
Si Si4 0.448583 0.331900 0.500000
Si Si5 0.948593 0.667319 0.500000
Si Si6 0.385215 0.671276 0.190659
O O1 0.678309 0.416281 0.500000
O O2 0.691190 0.500000 0.233893
O O3 0.747663 0.395546 0.290026
O O4 0.661812 0.372435 0.192449
O O5 0.193125 0.500000 0.261892
O O6 0.163904 0.371787 0.259626
O O7 0.213059 0.418165 0.000000
O O8 0.922930 0.642580 0.674758
O O9 0.872111 0.749225 0.770530
O O10 0.894927 0.651670 0.000000
O O11 0.500000 0.364580 0.500000
O O12 0.452033 0.249701 0.500000
O O13 0.421928 0.357717 0.671072
O O14 0.000000 0.634765 0.500000
O O15 0.407373 0.664754 0.000000
#
# Coordination Sequence:
#
# PCOD8268977 Si02
#       6
#    16  16  16   8   8  16
#     4  10  20  33  50  74 103 135 170 205 243 293
#     4   9  18  33  51  72 101 137 172 204 243 293
#     4   9  19  33  51  77 103 130 167 208 249 293
#     4   9  18  34  52  75 104 128 163 209 252 301
#     4   9  18  32  52  75 100 132 165 205 256 301
#     4  10  19  33  53  76 103 132 165 206 250 295
#
# _framework density 18.480430999999999
#
# number of rings (size 3 to 8) (size 9 to 14) (size 15 to 20)
#    0.000    2.600    1.000    0.600    1.400    2.800 
#    0.000    8.000    0.000    2.400    0.000    4.200 
#    0.000    0.000    0.000    0.000    0.000    0.000 
#
# Total GULP energy -495959.424010 kJ/mol
# GULP energy per Si atom -12398.985600 kJ/mol
# Density = 1.843837 g / cm^3
# Si number density = 18.480431 Si / 1000 Ang^3
#
#
#
# Elastic Constant Matrix: (Units=GPa)
#
#
# Indices 1 2 3 4 5 6 
#
# 1 147.4279 52.3874 66.4605 0.0000 0.0000 0.0000
# 2 52.3874 47.8858 30.3025 0.0000 0.0000 0.0000
# 3 66.4605 30.3025 103.4132 0.0000 0.0000 0.0000
# 4 0.0000 0.0000 0.0000 17.3584 0.0000 0.0000
# 5 0.0000 0.0000 0.0000 0.0000 26.8156 0.0000
# 6 0.0000 0.0000 0.0000 0.0000 0.0000 5.3085
#
#
#
# Elastic Compliance Matrix: (Units=1/GPa)
#
#
# Indices 1 2 3 4 5 6 
#
# 1 0.012996 -0.010966 -0.005139 0.000000 0.000000 0.000000
# 2 -0.010966 0.034890 -0.003176 0.000000 0.000000 0.000000
# 3 -0.005139 -0.003176 0.013903 0.000000 0.000000 0.000000
# 4 0.000000 0.000000 0.000000 0.057609 0.000000 0.000000
# 5 0.000000 0.000000 0.000000 0.000000 0.037292 0.000000
# 6 0.000000 0.000000 0.000000 0.000000 0.000000 0.188378
#
#
# Mechanical properties :
#
#
# Convention : Reuss Voigt Hill
#
# Bulk Modulus (GPa) = 43.05288 66.33643 54.69465
# Shear Modulus (GPa) = 12.77553 19.86824 16.32189
#
# Velocity S-wave (km/s) = 2.63211 3.28242 2.97509
# Velocity P-wave (km/s) = 5.70827 7.09501 6.43908
#
# Compressibility (1/GPa) = 0.02322725
#
# Stress axis : x y z
#
# Youngs Moduli (GPa) = 76.94446 28.66164 71.92542
#
# Poissons Ratio (x) = 0.31431 0.36963
# Poissons Ratio (y) = 0.84378 0.22843
# Poissons Ratio (z) = 0.39542 0.09103
#
# Static dielectric constant tensor:
#      x y z
#    x 3.450120 0.000000 0.000000 
#    y 0.000000 3.197700 0.000000 
#    z 0.000000 0.000000 3.512270 
# 
# 
# High freq. dielectric constant tensor:
#      x y z
#    x 1.707950 0.000000 0.000000 
#    y 0.000000 1.685720 0.000000 
#    z 0.000000 0.000000 1.729570 
# 
# From -- ./inp_files/14231.got.cif
#   From: 2010.03.12/outbox.cif.g09.slc.cpg/sg65_8_cif.got.tgz:14231.got - 2010.04.10 20:52:16.
