data_PCOD8268059
_publ_section_title
;
Structure prediction by ZEFSAII (Michael W. Deem and Ramdas Pophale) SiO2 
 PCOD8268059
Probable space group: C M M M
;
_chemical_formula_sum "Si O2"
_cell_formula_units_Z 88
_cell_length_a 27.207272
_cell_length_b 9.076816
_cell_length_c 20.859531
_cell_angle_alpha 90.000000
_cell_angle_beta 90.000000
_cell_angle_gamma 90.000000
_cell_volume 5151.373860
_symmetry_space_group_name_H-M "C M M M"
_symmetry_group_IT_number 65
_symmetry_cell_setting 'orthorhombic'
loop_
_space_group_symop_operation_xyz
x,y,z
-x,-y,z
x,-y,-z
-x,y,-z
-x,-y,-z
x,y,-z
-x,y,z
x,-y,z
1/2+x,1/2+y,z
1/2-x,1/2-y,z
1/2+x,1/2-y,-z
1/2-x,1/2+y,-z
1/2-x,1/2-y,-z
1/2+x,1/2+y,-z
1/2-x,1/2+y,z
1/2+x,1/2-y,z
loop_
_atom_site_type_symbol
_atom_site_label
_atom_site_fract_x
_atom_site_fract_y
_atom_site_fract_z
Si Si1 0.056953 0.668077 0.926620
Si Si2 0.801597 0.326679 0.755187
Si Si3 0.857914 0.671944 0.372917
Si Si4 0.555485 0.672697 0.689031
Si Si5 0.697534 0.174333 0.500000
Si Si6 0.388752 0.327575 0.182802
O O1 0.066732 0.500000 0.904949
O O2 0.088148 0.780121 0.884317
O O3 0.000000 0.707534 0.918382
O O4 0.073209 0.690067 0.000000
O O5 0.796167 0.500000 0.765392
O O6 0.750000 0.250000 0.765650
O O7 0.821095 0.286703 0.684480
O O8 0.838496 0.261810 0.807931
O O9 0.869051 0.500000 0.374977
O O10 0.910134 0.751687 0.364086
O O11 0.832887 0.727242 0.438160
O O12 0.500000 0.732010 0.681045
O O13 0.558038 0.500000 0.677111
O O14 0.573445 0.713219 0.760416
O O15 0.750000 0.250000 0.500000
O O16 0.705825 0.000000 0.500000
O O17 0.376827 0.500000 0.181617
#
# Coordination Sequence:
#
# PCOD8268059 Si02
#       6
#    16  16  16  16   8  16
#     4   9  18  32  49  71 101 134 164 195 234 281
#     4  10  19  32  50  72  97 125 159 198 242 289
#     4   9  19  33  49  71  97 125 158 196 238 287
#     4   9  18  32  49  70  97 127 160 199 239 280
#     4  10  20  34  51  72  97 123 156 197 241 288
#     4  10  19  31  49  73  99 127 161 201 242 283
#
# _framework density 17.082820999999999
#
# number of rings (size 3 to 8) (size 9 to 14) (size 15 to 20)
#    0.000    2.545    0.000    2.727    0.000    4.000 
#    0.000    1.364    0.000    3.273    0.000    0.000 
#    0.000    0.000    0.000    0.000    0.000    0.000 
#
# Total GULP energy -545719.835899 kJ/mol
# GULP energy per Si atom -12402.723543 kJ/mol
# Density = 1.704394 g / cm^3
# Si number density = 17.082821 Si / 1000 Ang^3
#
#
#
# Elastic Constant Matrix: (Units=GPa)
#
#
# Indices 1 2 3 4 5 6 
#
# 1 145.8017 55.1718 57.3818 0.0000 0.0000 0.0000
# 2 55.1718 62.4822 37.4741 0.0000 0.0000 0.0000
# 3 57.3818 37.4741 93.9938 0.0000 0.0000 0.0000
# 4 0.0000 0.0000 0.0000 26.3406 0.0000 0.0000
# 5 0.0000 0.0000 0.0000 0.0000 24.0305 0.0000
# 6 0.0000 0.0000 0.0000 0.0000 0.0000 35.2125
#
#
#
# Elastic Compliance Matrix: (Units=1/GPa)
#
#
# Indices 1 2 3 4 5 6 
#
# 1 0.011257 -0.007647 -0.003824 0.000000 0.000000 0.000000
# 2 -0.007647 0.026228 -0.005789 0.000000 0.000000 0.000000
# 3 -0.003824 -0.005789 0.015281 0.000000 0.000000 0.000000
# 4 0.000000 0.000000 0.000000 0.037964 0.000000 0.000000
# 5 0.000000 0.000000 0.000000 0.000000 0.041614 0.000000
# 6 0.000000 0.000000 0.000000 0.000000 0.000000 0.028399
#
#
# Mechanical properties :
#
#
# Convention : Reuss Voigt Hill
#
# Bulk Modulus (GPa) = 54.79899 66.92590 60.86244
# Shear Modulus (GPa) = 24.83305 27.26671 26.04988
#
# Velocity S-wave (km/s) = 3.81686 3.99952 3.90925
# Velocity P-wave (km/s) = 7.18141 7.78399 7.48876
#
# Compressibility (1/GPa) = 0.01824851
#
# Stress axis : x y z
#
# Youngs Moduli (GPa) = 88.83381 38.12652 65.44019
#
# Poissons Ratio (x) = 0.29154 0.25021
# Poissons Ratio (y) = 0.67929 0.37882
# Poissons Ratio (z) = 0.33966 0.22070
#
# Static dielectric constant tensor:
#      x y z
#    x 3.209460 0.000000 0.000000 
#    y 0.000000 3.148590 0.000000 
#    z 0.000000 0.000000 3.146440 
# 
# 
# High freq. dielectric constant tensor:
#      x y z
#    x 1.658520 0.000000 0.000000 
#    y 0.000000 1.662070 0.000000 
#    z 0.000000 0.000000 1.646840 
# 
# From -- ./inp_files/57967.got.cif
#   From: 2010.03.12/outbox.cif.g09.slc.cpg/sg65_29_cif.got.tgz:57967.got - 2010.04.10 20:52:16.
