data_PCOD8268966
_publ_section_title
;
Structure prediction by ZEFSAII (Michael W. Deem and Ramdas Pophale) SiO2 
 PCOD8268966
Probable space group: C M M M
;
_chemical_formula_sum "Si O2"
_cell_formula_units_Z 88
_cell_length_a 9.189372
_cell_length_b 27.042007
_cell_length_c 19.105786
_cell_angle_alpha 90.000000
_cell_angle_beta 90.000000
_cell_angle_gamma 90.000000
_cell_volume 4747.769899
_symmetry_space_group_name_H-M "C M M M"
_symmetry_group_IT_number 65
_symmetry_cell_setting 'orthorhombic'
loop_
_space_group_symop_operation_xyz
x,y,z
-x,-y,z
x,-y,-z
-x,y,-z
-x,-y,-z
x,y,-z
-x,y,z
x,-y,z
1/2+x,1/2+y,z
1/2-x,1/2-y,z
1/2+x,1/2-y,-z
1/2-x,1/2+y,-z
1/2-x,1/2-y,-z
1/2+x,1/2+y,-z
1/2-x,1/2+y,z
1/2+x,1/2-y,z
loop_
_atom_site_type_symbol
_atom_site_label
_atom_site_fract_x
_atom_site_fract_y
_atom_site_fract_z
Si Si1 0.168180 0.386971 0.418380
Si Si2 0.336785 0.443157 0.313514
Si Si3 0.826300 0.000000 0.920675
Si Si4 0.669213 0.298282 0.347028
Si Si5 0.172889 0.906575 0.833679
Si Si6 0.331708 0.701370 0.183186
O O1 0.192234 0.395570 0.500000
O O2 0.227478 0.435341 0.378300
O O3 0.266504 0.342709 0.391227
O O4 0.000000 0.377353 0.400457
O O5 0.500000 0.423517 0.331801
O O6 0.344043 0.500000 0.293743
O O7 0.273155 0.415401 0.245503
O O8 0.764399 0.050413 0.884533
O O9 0.000000 0.000000 0.917312
O O10 0.769553 0.000000 0.000000
O O11 0.500000 0.292903 0.363404
O O12 0.750000 0.250000 0.375009
O O13 0.699825 0.306054 0.265131
O O14 0.219716 0.850107 0.854850
O O15 0.000000 0.910285 0.834324
O O16 0.500000 0.711039 0.168469
O O17 0.250000 0.750000 0.153498
#
# Coordination Sequence:
#
# PCOD8268966 Si02
#       6
#    16  16   8  16  16  16
#     4  11  24  38  50  68  99 136 173 220 272 320
#     4  10  19  34  56  76  96 130 173 218 268 321
#     4   9  16  26  48  84 118 143 168 206 259 313
#     4  10  19  33  53  75  99 131 171 218 270 319
#     4   9  15  28  49  75 108 139 169 211 261 308
#     4   9  17  29  48  74 103 135 170 215 261 302
#
# _framework density 18.535018999999998
#
# number of rings (size 3 to 8) (size 9 to 14) (size 15 to 20)
#    0.000    2.273    2.727    1.091    0.000    3.273 
#    0.000    1.818    0.000    0.545    0.000    0.000 
#    0.000    5.091    0.000    0.000    0.000    0.000 
#
# Total GULP energy -545349.048523 kJ/mol
# GULP energy per Si atom -12394.296557 kJ/mol
# Density = 1.849283 g / cm^3
# Si number density = 18.535019 Si / 1000 Ang^3
#
#
#
# Elastic Constant Matrix: (Units=GPa)
#
#
# Indices 1 2 3 4 5 6 
#
# 1 58.6308 38.7006 30.2239 0.0000 0.0000 0.0000
# 2 38.7006 149.6308 49.4452 0.0000 0.0000 0.0000
# 3 30.2239 49.4452 62.9444 0.0000 0.0000 0.0000
# 4 0.0000 0.0000 0.0000 21.9160 0.0000 0.0000
# 5 0.0000 0.0000 0.0000 0.0000 9.8963 0.0000
# 6 0.0000 0.0000 0.0000 0.0000 0.0000 28.8610
#
#
#
# Elastic Compliance Matrix: (Units=1/GPa)
#
#
# Indices 1 2 3 4 5 6 
#
# 1 0.023754 -0.003207 -0.008886 0.000000 0.000000 0.000000
# 2 -0.003207 0.009459 -0.005891 0.000000 0.000000 0.000000
# 3 -0.008886 -0.005891 0.024781 0.000000 0.000000 0.000000
# 4 0.000000 0.000000 0.000000 0.045629 0.000000 0.000000
# 5 0.000000 0.000000 0.000000 0.000000 0.101048 0.000000
# 6 0.000000 0.000000 0.000000 0.000000 0.000000 0.034649
#
#
# Mechanical properties :
#
#
# Convention : Reuss Voigt Hill
#
# Bulk Modulus (GPa) = 45.40116 56.43839 50.91978
# Shear Modulus (GPa) = 17.69096 22.32374 20.00735
#
# Velocity S-wave (km/s) = 3.09279 3.47422 3.28904
# Velocity P-wave (km/s) = 6.10752 6.82710 6.47731
#
# Compressibility (1/GPa) = 0.02202587
#
# Stress axis : x y z
#
# Youngs Moduli (GPa) = 42.09853 105.71785 40.35302
#
# Poissons Ratio (x) = 0.33906 0.35860
# Poissons Ratio (y) = 0.13502 0.23770
# Poissons Ratio (z) = 0.37411 0.62273
#
# Static dielectric constant tensor:
#      x y z
#    x 3.397520 0.000000 0.000000 
#    y 0.000000 3.897410 0.000000 
#    z 0.000000 0.000000 3.197390 
# 
# 
# High freq. dielectric constant tensor:
#      x y z
#    x 1.687350 0.000000 0.000000 
#    y 0.000000 1.740750 0.000000 
#    z 0.000000 0.000000 1.683430 
# 
# From -- ./inp_files/50382.got.cif
#   From: 2010.03.12/outbox.cif.g09.slc.cpg/sg65_26_cif.got.tgz:50382.got - 2010.04.10 20:52:16.
