data_PCOD8268986
_publ_section_title
;
Structure prediction by ZEFSAII (Michael W. Deem and Ramdas Pophale) SiO2 
 PCOD8268986
Probable space group: C M M M
;
_chemical_formula_sum "Si O2"
_cell_formula_units_Z 120
_cell_length_a 26.880589
_cell_length_b 8.591228
_cell_length_c 28.120918
_cell_angle_alpha 90.000000
_cell_angle_beta 90.000000
_cell_angle_gamma 90.000000
_cell_volume 6494.168001
_symmetry_space_group_name_H-M "C M M M"
_symmetry_group_IT_number 65
_symmetry_cell_setting 'orthorhombic'
loop_
_space_group_symop_operation_xyz
x,y,z
-x,-y,z
x,-y,-z
-x,y,-z
-x,-y,-z
x,y,-z
-x,y,z
x,-y,z
1/2+x,1/2+y,z
1/2-x,1/2-y,z
1/2+x,1/2-y,-z
1/2-x,1/2+y,-z
1/2-x,1/2-y,-z
1/2+x,1/2+y,-z
1/2-x,1/2+y,z
1/2+x,1/2-y,z
loop_
_atom_site_type_symbol
_atom_site_label
_atom_site_fract_x
_atom_site_fract_y
_atom_site_fract_z
Si Si1 0.352720 0.184035 0.699481
Si Si2 0.803546 0.316398 0.890021
Si Si3 0.802449 0.183271 0.787442
Si Si4 0.000000 0.322933 0.056474
Si Si5 0.896431 0.178224 0.943725
Si Si6 0.946358 0.683227 0.356865
Si Si7 0.113343 0.319153 0.553760
Si Si8 0.301085 0.318222 0.610722
O O1 0.343815 0.271194 0.749008
O O2 0.405958 0.246592 0.680501
O O3 0.312472 0.228866 0.659856
O O4 0.351359 0.000000 0.707844
O O5 0.798326 0.500000 0.889292
O O6 0.750000 0.250000 0.907469
O O7 0.817214 0.256277 0.837746
O O8 0.848708 0.269867 0.924286
O O9 0.750000 0.250000 0.769276
O O10 0.798563 0.000000 0.793413
O O11 0.050654 0.242968 0.076144
O O12 0.000000 0.500000 0.074216
O O13 0.000000 0.310717 0.000000
O O14 0.892188 0.000000 0.927647
O O15 0.895200 0.197303 0.000000
O O16 0.949328 0.500000 0.350561
O O17 0.932084 0.723223 0.411297
O O18 0.000000 0.760110 0.346095
O O19 0.097421 0.279200 0.500000
O O20 0.128266 0.500000 0.559487
O O21 0.159806 0.214809 0.569022
O O22 0.297999 0.500000 0.621514
O O23 0.250000 0.250000 0.590832
#
# Coordination Sequence:
#
# PCOD8268986 Si02
#       8
#    16  16  16   8  16  16  16  16
#     4  10  19  33  53  77 103 129 164 207 252 301
#     4  11  22  37  56  80 112 148 187 229 278 333
#     4  11  21  35  55  79 107 138 174 212 259 313
#     4   9  17  31  53  81 109 141 185 233 279 327
#     4  10  20  35  56  82 113 150 191 236 284 332
#     4   8  15  29  51  77 101 127 161 204 250 294
#     4   9  18  32  49  71  99 129 163 202 244 294
#     4  11  21  33  49  70  97 128 163 202 247 297
#
# _framework density 18.478117000000001
#
# number of rings (size 3 to 8) (size 9 to 14) (size 15 to 20)
#    0.000    2.067    0.000    6.600    0.000    2.667 
#    0.000    1.333    1.467   10.000    0.000    3.733 
#    0.000    0.000    0.000    0.000    0.000    0.000 
#
# Total GULP energy -743920.202705 kJ/mol
# GULP energy per Si atom -12398.670045 kJ/mol
# Density = 1.843606 g / cm^3
# Si number density = 18.478117 Si / 1000 Ang^3
#
#
#
# Elastic Constant Matrix: (Units=GPa)
#
#
# Indices 1 2 3 4 5 6 
#
# 1 128.7027 45.8338 39.3190 0.0000 0.0000 0.0000
# 2 45.8338 117.5485 30.9018 0.0000 0.0000 0.0000
# 3 39.3190 30.9018 57.1498 0.0000 0.0000 0.0000
# 4 0.0000 0.0000 0.0000 26.8055 0.0000 0.0000
# 5 0.0000 0.0000 0.0000 0.0000 21.3843 0.0000
# 6 0.0000 0.0000 0.0000 0.0000 0.0000 25.4620
#
#
#
# Elastic Compliance Matrix: (Units=1/GPa)
#
#
# Indices 1 2 3 4 5 6 
#
# 1 0.010453 -0.002547 -0.005815 0.000000 0.000000 0.000000
# 2 -0.002547 0.010538 -0.003945 0.000000 0.000000 0.000000
# 3 -0.005815 -0.003945 0.023632 0.000000 0.000000 0.000000
# 4 0.000000 0.000000 0.000000 0.037306 0.000000 0.000000
# 5 0.000000 0.000000 0.000000 0.000000 0.046763 0.000000
# 6 0.000000 0.000000 0.000000 0.000000 0.000000 0.039274
#
#
# Mechanical properties :
#
#
# Convention : Reuss Voigt Hill
#
# Bulk Modulus (GPa) = 49.97952 59.50116 54.74034
# Shear Modulus (GPa) = 25.09418 27.22010 26.15714
#
# Velocity S-wave (km/s) = 3.68917 3.84226 3.76649
# Velocity P-wave (km/s) = 6.72706 7.20796 6.97166
#
# Compressibility (1/GPa) = 0.02000819
#
# Stress axis : x y z
#
# Youngs Moduli (GPa) = 95.66301 94.89892 42.31639
#
# Poissons Ratio (x) = 0.24174 0.24605
# Poissons Ratio (y) = 0.24369 0.16695
# Poissons Ratio (z) = 0.55623 0.37440
#
# Static dielectric constant tensor:
#      x y z
#    x 3.722180 0.000000 0.000000 
#    y 0.000000 3.381190 0.000000 
#    z 0.000000 0.000000 3.248450 
# 
# 
# High freq. dielectric constant tensor:
#      x y z
#    x 1.718500 0.000000 0.000000 
#    y 0.000000 1.717840 0.000000 
#    z 0.000000 0.000000 1.698490 
# 
# From -- ./inp_files/76113.got.cif
#   From: 2010.03.12/outbox.cif.g09.slc.cpg/sg65_39_cif.got.tgz:76113.got - 2010.04.10 20:52:16.
