data_PCOD8268779
_publ_section_title
;
Structure prediction by ZEFSAII (Michael W. Deem and Ramdas Pophale) SiO2 
 PCOD8268779
Probable space group: C M M M
;
_chemical_formula_sum "Si O2"
_cell_formula_units_Z 88
_cell_length_a 22.914280
_cell_length_b 22.860184
_cell_length_c 8.800755
_cell_angle_alpha 90.000000
_cell_angle_beta 90.000000
_cell_angle_gamma 90.000000
_cell_volume 4610.052469
_symmetry_space_group_name_H-M "C M M M"
_symmetry_group_IT_number 65
_symmetry_cell_setting 'orthorhombic'
loop_
_space_group_symop_operation_xyz
x,y,z
-x,-y,z
x,-y,-z
-x,y,-z
-x,-y,-z
x,y,-z
-x,y,z
x,-y,z
1/2+x,1/2+y,z
1/2-x,1/2-y,z
1/2+x,1/2-y,-z
1/2-x,1/2+y,-z
1/2-x,1/2-y,-z
1/2+x,1/2+y,-z
1/2-x,1/2+y,z
1/2+x,1/2-y,z
loop_
_atom_site_type_symbol
_atom_site_label
_atom_site_fract_x
_atom_site_fract_y
_atom_site_fract_z
Si Si1 0.500000 0.567855 0.819401
Si Si2 0.562957 0.065496 0.318824
Si Si3 0.224272 0.934203 0.675663
Si Si4 0.121539 0.124373 0.821138
Si Si5 0.185740 0.234452 0.674955
Si Si6 0.667068 0.136585 0.675178
O O1 0.500000 0.500000 0.758089
O O2 0.557157 0.604366 0.762169
O O3 0.500000 0.564966 0.000000
O O4 0.565174 0.068232 0.500000
O O5 0.500000 0.088741 0.262521
O O6 0.613438 0.104305 0.242790
O O7 0.572758 0.000000 0.261421
O O8 0.209215 0.922203 0.500000
O O9 0.165492 0.926932 0.772405
O O10 0.271008 0.886664 0.740565
O O11 0.248429 0.000000 0.698723
O O12 0.146252 0.185524 0.754730
O O13 0.120036 0.131531 0.000000
O O14 0.193980 0.214907 0.500000
O O15 0.250000 0.250000 0.744085
O O16 0.152196 0.295428 0.693767
O O17 0.669450 0.117775 0.500000
#
# Coordination Sequence:
#
# PCOD8268779 Si02
#       6
#     8  16  16  16  16  16
#     4   9  20  40  61  79 105 145 186 229 286 342
#     4   8  13  22  38  63  95 128 165 206 245 294
#     4  10  19  32  53  80 108 138 174 217 271 330
#     4  11  22  37  58  80 106 140 184 229 273 330
#     4  10  19  35  55  75 107 143 174 214 267 324
#     4   9  16  28  46  68 100 140 173 204 254 316
#
# _framework density 19.088721
#
# number of rings (size 3 to 8) (size 9 to 14) (size 15 to 20)
#    0.000    2.455    1.818    2.182    0.000    3.636 
#    1.636    1.818    0.000    3.273    0.000    0.000 
#    0.000    0.000    0.000    5.818    0.000    5.455 
#
# Total GULP energy -545091.926225 kJ/mol
# GULP energy per Si atom -12388.452869 kJ/mol
# Density = 1.904527 g / cm^3
# Si number density = 19.088721 Si / 1000 Ang^3
#
#
#
# Elastic Constant Matrix: (Units=GPa)
#
#
# Indices 1 2 3 4 5 6 
#
# 1 161.1490 69.4498 26.4869 0.0000 0.0000 0.0000
# 2 69.4498 117.3141 22.1840 0.0000 0.0000 0.0000
# 3 26.4869 22.1840 30.1345 0.0000 0.0000 0.0000
# 4 0.0000 0.0000 0.0000 19.3388 0.0000 0.0000
# 5 0.0000 0.0000 0.0000 0.0000 17.9316 0.0000
# 6 0.0000 0.0000 0.0000 0.0000 0.0000 35.2348
#
#
#
# Elastic Compliance Matrix: (Units=1/GPa)
#
#
# Indices 1 2 3 4 5 6 
#
# 1 0.008837 -0.004371 -0.004549 0.000000 0.000000 0.000000
# 2 -0.004371 0.012065 -0.005040 0.000000 0.000000 0.000000
# 3 -0.004549 -0.005040 0.040893 0.000000 0.000000 0.000000
# 4 0.000000 0.000000 0.000000 0.051710 0.000000 0.000000
# 5 0.000000 0.000000 0.000000 0.000000 0.055767 0.000000
# 6 0.000000 0.000000 0.000000 0.000000 0.000000 0.028381
#
#
# Mechanical properties :
#
#
# Convention : Reuss Voigt Hill
#
# Bulk Modulus (GPa) = 29.52057 60.53766 45.02911
# Shear Modulus (GPa) = 21.10903 27.19949 24.15426
#
# Velocity S-wave (km/s) = 3.32902 3.77888 3.56106
# Velocity P-wave (km/s) = 5.50227 7.12900 6.36779
#
# Compressibility (1/GPa) = 0.03387469
#
# Stress axis : x y z
#
# Youngs Moduli (GPa) = 113.16001 82.88518 24.45386
#
# Poissons Ratio (x) = 0.36231 0.11125
# Poissons Ratio (y) = 0.49465 0.12324
# Poissons Ratio (z) = 0.51481 0.41771
#
# Static dielectric constant tensor:
#      x y z
#    x 3.933810 0.000000 0.000000 
#    y 0.000000 3.592550 0.000000 
#    z 0.000000 0.000000 2.944680 
# 
# 
# High freq. dielectric constant tensor:
#      x y z
#    x 1.750430 0.000000 0.000000 
#    y 0.000000 1.754180 0.000000 
#    z 0.000000 0.000000 1.678340 
# 
# From -- ./inp_files/11832.got.cif
#   From: 2010.03.12/outbox.cif.g09.slc.cpg/sg65_6_cif.got.tgz:11832.got - 2010.04.10 20:52:16.
