data_PCOD8268302
_publ_section_title
;
Structure prediction by ZEFSAII (Michael W. Deem and Ramdas Pophale) SiO2 
 PCOD8268302
Probable space group: C M M M
;
_chemical_formula_sum "Si O2"
_cell_formula_units_Z 112
_cell_length_a 14.633507
_cell_length_b 14.565915
_cell_length_c 26.054061
_cell_angle_alpha 90.000000
_cell_angle_beta 90.000000
_cell_angle_gamma 90.000000
_cell_volume 5553.434022
_symmetry_space_group_name_H-M "C M M M"
_symmetry_group_IT_number 65
_symmetry_cell_setting 'orthorhombic'
loop_
_space_group_symop_operation_xyz
x,y,z
-x,-y,z
x,-y,-z
-x,y,-z
-x,-y,-z
x,y,-z
-x,y,z
x,-y,z
1/2+x,1/2+y,z
1/2-x,1/2-y,z
1/2+x,1/2-y,-z
1/2-x,1/2+y,-z
1/2-x,1/2-y,-z
1/2+x,1/2+y,-z
1/2-x,1/2+y,z
1/2+x,1/2-y,z
loop_
_atom_site_type_symbol
_atom_site_label
_atom_site_fract_x
_atom_site_fract_y
_atom_site_fract_z
Si Si1 0.603017 0.390964 0.943582
Si Si2 0.290552 0.605463 0.153463
Si Si3 0.100883 0.397789 0.194108
Si Si4 0.104201 0.209153 0.758455
Si Si5 0.103458 0.789724 0.356067
Si Si6 0.209504 0.104503 0.556710
Si Si7 0.399530 0.101138 0.598967
O O1 0.500000 0.358797 0.930854
O O2 0.608117 0.500000 0.944571
O O3 0.669822 0.352051 0.899370
O O4 0.632358 0.353466 0.000000
O O5 0.321189 0.500000 0.159628
O O6 0.180477 0.615722 0.151559
O O7 0.329098 0.660411 0.201866
O O8 0.111418 0.500000 0.218965
O O9 0.111834 0.319746 0.237256
O O10 0.000000 0.388879 0.167934
O O11 0.134908 0.180806 0.700970
O O12 0.000000 0.177440 0.768777
O O13 0.167235 0.833105 0.399194
O O14 0.110744 0.679229 0.357847
O O15 0.000000 0.822742 0.366207
O O16 0.177154 0.136959 0.500000
O O17 0.319599 0.113167 0.557141
O O18 0.178344 0.000000 0.566396
O O19 0.500000 0.110644 0.572320
O O20 0.390645 0.000000 0.625044
#
# Coordination Sequence:
#
# PCOD8268302 Si02
#       7
#    16  16  16  16  16  16  16
#     4   8  14  26  46  74 108 143 178 218 265 316
#     4  10  19  31  52  81 110 140 174 216 267 319
#     4   9  19  35  53  74 103 142 184 219 254 305
#     4  10  21  36  54  78 108 139 173 216 264 315
#     4  10  22  38  56  80 108 139 174 213 260 313
#     4  10  22  39  58  80 106 139 177 213 253 308
#     4   9  19  36  57  81 107 134 169 216 266 311
#
# _framework density 20.167701999999998
#
# number of rings (size 3 to 8) (size 9 to 14) (size 15 to 20)
#    0.000    2.571    0.000    1.714    0.000    6.286 
#    0.000   10.714    0.000    2.143    0.000    5.000 
#    0.000    0.000    0.000    0.000    0.000    0.286 
#
# Total GULP energy -693838.520167 kJ/mol
# GULP energy per Si atom -12389.973574 kJ/mol
# Density = 2.012180 g / cm^3
# Si number density = 20.167702 Si / 1000 Ang^3
#
#
#
# Elastic Constant Matrix: (Units=GPa)
#
#
# Indices 1 2 3 4 5 6 
#
# 1 131.3319 41.9618 81.8268 0.0000 0.0000 0.0000
# 2 41.9618 79.7956 49.7524 0.0000 0.0000 0.0000
# 3 81.8268 49.7524 149.7074 0.0000 0.0000 0.0000
# 4 0.0000 0.0000 0.0000 15.5315 0.0000 0.0000
# 5 0.0000 0.0000 0.0000 0.0000 20.8320 0.0000
# 6 0.0000 0.0000 0.0000 0.0000 0.0000 26.3905
#
#
#
# Elastic Compliance Matrix: (Units=1/GPa)
#
#
# Indices 1 2 3 4 5 6 
#
# 1 0.012025 -0.002807 -0.005640 0.000000 0.000000 0.000000
# 2 -0.002807 0.016463 -0.003937 0.000000 0.000000 0.000000
# 3 -0.005640 -0.003937 0.011071 0.000000 0.000000 0.000000
# 4 0.000000 0.000000 0.000000 0.064385 0.000000 0.000000
# 5 0.000000 0.000000 0.000000 0.000000 0.048003 0.000000
# 6 0.000000 0.000000 0.000000 0.000000 0.000000 0.037892
#
#
# Mechanical properties :
#
#
# Convention : Reuss Voigt Hill
#
# Bulk Modulus (GPa) = 67.60840 78.65743 73.13292
# Shear Modulus (GPa) = 22.77522 25.03708 23.90615
#
# Velocity S-wave (km/s) = 3.36414 3.52724 3.44665
# Velocity P-wave (km/s) = 6.97752 7.46156 7.22360
#
# Compressibility (1/GPa) = 0.01479106
#
# Stress axis : x y z
#
# Youngs Moduli (GPa) = 83.15965 60.74312 90.32995
#
# Poissons Ratio (x) = 0.17052 0.50943
# Poissons Ratio (y) = 0.23345 0.35560
# Poissons Ratio (z) = 0.46900 0.23913
#
# Static dielectric constant tensor:
#      x y z
#    x 3.925900 0.000000 0.000000 
#    y 0.000000 3.676480 0.000000 
#    z 0.000000 0.000000 3.510290 
# 
# 
# High freq. dielectric constant tensor:
#      x y z
#    x 1.797750 0.000000 0.000000 
#    y 0.000000 1.778840 0.000000 
#    z 0.000000 0.000000 1.755700 
# 
# From -- ./inp_files/74904.got.cif
#   From: 2010.03.12/outbox.cif.g09.slc.cpg/sg65_38_cif.got.tgz:74904.got - 2010.04.10 20:52:16.
