data_PCOD8268011
_publ_section_title
;
Structure prediction by ZEFSAII (Michael W. Deem and Ramdas Pophale) SiO2 
 PCOD8268011
Probable space group: C M M M
;
_chemical_formula_sum "Si O2"
_cell_formula_units_Z 96
_cell_length_a 8.601862
_cell_length_b 27.445915
_cell_length_c 23.682056
_cell_angle_alpha 90.000000
_cell_angle_beta 90.000000
_cell_angle_gamma 90.000000
_cell_volume 5591.001240
_symmetry_space_group_name_H-M "C M M M"
_symmetry_group_IT_number 65
_symmetry_cell_setting 'orthorhombic'
loop_
_space_group_symop_operation_xyz
x,y,z
-x,-y,z
x,-y,-z
-x,y,-z
-x,-y,-z
x,y,-z
-x,y,z
x,-y,z
1/2+x,1/2+y,z
1/2-x,1/2-y,z
1/2+x,1/2-y,-z
1/2-x,1/2+y,-z
1/2-x,1/2-y,-z
1/2+x,1/2+y,-z
1/2-x,1/2+y,z
1/2+x,1/2-y,z
loop_
_atom_site_type_symbol
_atom_site_label
_atom_site_fract_x
_atom_site_fract_y
_atom_site_fract_z
Si Si1 0.319152 0.944493 0.266279
Si Si2 0.816734 0.697921 0.226775
Si Si3 0.683255 0.301692 0.562789
Si Si4 0.183811 0.859184 0.670058
Si Si5 0.680751 0.610546 0.164924
Si Si6 0.679876 0.055649 0.064770
O O1 0.500000 0.935467 0.254215
O O2 0.264329 0.911047 0.318321
O O3 0.226303 0.931105 0.209713
O O4 0.283834 0.000000 0.282801
O O5 0.750000 0.750000 0.208890
O O6 0.738529 0.680959 0.285045
O O7 0.775993 0.659855 0.177190
O O8 0.000000 0.700902 0.235255
O O9 0.743366 0.316200 0.500000
O O10 0.500000 0.296563 0.563312
O O11 0.750000 0.250000 0.581939
O O12 0.736668 0.342448 0.607600
O O13 0.000000 0.865293 0.674960
O O14 0.500000 0.622484 0.170412
O O15 0.717886 0.591708 0.102410
O O16 0.500000 0.061402 0.081292
O O17 0.732707 0.000000 0.074951
O O18 0.707729 0.070415 0.000000
#
# Coordination Sequence:
#
# PCOD8268011 Si02
#       6
#    16  16  16  16  16  16
#     4  10  20  33  49  69  95 127 161 197 239 286
#     4  11  21  34  51  71  98 128 160 197 238 285
#     4   9  18  31  47  69  96 125 156 191 233 282
#     4  10  19  31  49  72  97 125 158 196 238 284
#     4  11  21  32  49  74 101 128 160 197 239 285
#     4   9  18  33  52  73  99 132 166 198 236 282
#
# _framework density 17.170449000000001
#
# number of rings (size 3 to 8) (size 9 to 14) (size 15 to 20)
#    0.000    2.000    0.000    7.500    0.000    6.667 
#    0.000    0.833    0.000    1.000    0.000    3.500 
#    0.000    0.000    0.000    0.000    0.000    0.000 
#
# Total GULP energy -595275.520019 kJ/mol
# GULP energy per Si atom -12401.573334 kJ/mol
# Density = 1.713137 g / cm^3
# Si number density = 17.170449 Si / 1000 Ang^3
#
#
#
# Elastic Constant Matrix: (Units=GPa)
#
#
# Indices 1 2 3 4 5 6 
#
# 1 47.8688 25.0850 17.0641 0.0000 0.0000 0.0000
# 2 25.0850 112.6229 52.5426 0.0000 0.0000 0.0000
# 3 17.0641 52.5426 96.4712 0.0000 0.0000 0.0000
# 4 0.0000 0.0000 0.0000 65.6190 0.0000 0.0000
# 5 0.0000 0.0000 0.0000 0.0000 24.1809 0.0000
# 6 0.0000 0.0000 0.0000 0.0000 0.0000 29.5335
#
#
#
# Elastic Compliance Matrix: (Units=1/GPa)
#
#
# Indices 1 2 3 4 5 6 
#
# 1 0.023877 -0.004488 -0.001779 0.000000 0.000000 0.000000
# 2 -0.004488 0.012748 -0.006149 0.000000 0.000000 0.000000
# 3 -0.001779 -0.006149 0.014029 0.000000 0.000000 0.000000
# 4 0.000000 0.000000 0.000000 0.015239 0.000000 0.000000
# 5 0.000000 0.000000 0.000000 0.000000 0.041355 0.000000
# 6 0.000000 0.000000 0.000000 0.000000 0.000000 0.033860
#
#
# Mechanical properties :
#
#
# Convention : Reuss Voigt Hill
#
# Bulk Modulus (GPa) = 38.72758 49.59402 44.16080
# Shear Modulus (GPa) = 28.64554 34.68477 31.66516
#
# Velocity S-wave (km/s) = 4.08892 4.49935 4.29903
# Velocity P-wave (km/s) = 6.70046 7.47919 7.10050
#
# Compressibility (1/GPa) = 0.02582139
#
# Stress axis : x y z
#
# Youngs Moduli (GPa) = 41.88212 78.44607 71.27850
#
# Poissons Ratio (x) = 0.35208 0.12679
# Poissons Ratio (y) = 0.18798 0.43829
# Poissons Ratio (z) = 0.07450 0.48237
#
# Static dielectric constant tensor:
#      x y z
#    x 3.272550 0.000000 0.000000 
#    y 0.000000 3.426570 0.000000 
#    z 0.000000 0.000000 3.276450 
# 
# 
# High freq. dielectric constant tensor:
#      x y z
#    x 1.673620 0.000000 0.000000 
#    y 0.000000 1.653550 0.000000 
#    z 0.000000 0.000000 1.651980 
# 
# From -- ./inp_files/68013.got.cif
#   From: 2010.03.12/outbox.cif.g09.slc.cpg/sg65_35_cif.got.tgz:68013.got - 2010.04.10 20:52:16.
