data_PCOD8268570
_publ_section_title
;
Structure prediction by ZEFSAII (Michael W. Deem and Ramdas Pophale) SiO2 
 PCOD8268570
Probable space group: C M M M
;
_chemical_formula_sum "Si O2"
_cell_formula_units_Z 80
_cell_length_a 16.897629
_cell_length_b 27.469513
_cell_length_c 9.080419
_cell_angle_alpha 90.000000
_cell_angle_beta 90.000000
_cell_angle_gamma 90.000000
_cell_volume 4214.854814
_symmetry_space_group_name_H-M "C M M M"
_symmetry_group_IT_number 65
_symmetry_cell_setting 'orthorhombic'
loop_
_space_group_symop_operation_xyz
x,y,z
-x,-y,z
x,-y,-z
-x,y,-z
-x,-y,-z
x,y,-z
-x,y,z
x,-y,z
1/2+x,1/2+y,z
1/2-x,1/2-y,z
1/2+x,1/2-y,-z
1/2-x,1/2+y,-z
1/2-x,1/2-y,-z
1/2+x,1/2+y,-z
1/2-x,1/2+y,z
1/2+x,1/2-y,z
loop_
_atom_site_type_symbol
_atom_site_label
_atom_site_fract_x
_atom_site_fract_y
_atom_site_fract_z
Si Si1 0.409795 0.500000 0.824082
Si Si2 0.908404 0.711558 0.327322
Si Si3 0.822357 0.905159 0.173168
Si Si4 0.000000 0.554446 0.174996
Si Si5 0.146664 0.382063 0.826947
Si Si6 0.592217 0.690425 0.829477
O O1 0.500000 0.500000 0.768205
O O2 0.365486 0.547542 0.759170
O O3 0.406097 0.500000 0.000000
O O4 0.893484 0.712267 0.500000
O O5 0.856662 0.669236 0.255327
O O6 0.879560 0.762666 0.261161
O O7 0.000000 0.702437 0.287151
O O8 0.729583 0.907698 0.211313
O O9 0.860738 0.855739 0.236502
O O10 0.837071 0.904981 0.000000
O O11 0.077811 0.582413 0.231865
O O12 0.000000 0.500000 0.241486
O O13 0.000000 0.551882 0.000000
O O14 0.137617 0.371954 0.000000
O O15 0.500000 0.679769 0.806450
O O16 0.612517 0.699845 0.000000
#
# Coordination Sequence:
#
# PCOD8268570 Si02
#       6
#     8  16  16   8  16  16
#     4   9  16  28  48  75 110 141 164 199 255 305
#     4  10  20  34  52  73  99 133 172 211 252 301
#     4   9  18  29  46  75 105 133 166 209 251 296
#     4   9  18  30  49  75 101 133 169 206 247 294
#     4  10  19  32  51  75 104 134 169 208 251 298
#     4   9  17  31  51  73 100 133 169 205 249 302
#
# _framework density 18.980488000000001
#
# number of rings (size 3 to 8) (size 9 to 14) (size 15 to 20)
#    0.000    2.600    1.000    1.200    1.400    4.000 
#    0.000    5.000    0.000    1.200    0.000    2.100 
#    0.000    6.400    0.000    0.000    0.000    0.000 
#
# Total GULP energy -496051.605894 kJ/mol
# GULP energy per Si atom -12401.290147 kJ/mol
# Density = 1.893729 g / cm^3
# Si number density = 18.980488 Si / 1000 Ang^3
#
#
#
# Elastic Constant Matrix: (Units=GPa)
#
#
# Indices 1 2 3 4 5 6 
#
# 1 122.7136 87.6301 28.1324 0.0000 0.0000 0.0000
# 2 87.6301 183.4853 36.8151 0.0000 0.0000 0.0000
# 3 28.1324 36.8151 36.3702 0.0000 0.0000 0.0000
# 4 0.0000 0.0000 0.0000 -0.1779 0.0000 0.0000
# 5 0.0000 0.0000 0.0000 0.0000 10.7774 0.0000
# 6 0.0000 0.0000 0.0000 0.0000 0.0000 33.5161
#
#
#
# Elastic Compliance Matrix: (Units=1/GPa)
#
#
# Indices 1 2 3 4 5 6 
#
# 1 0.012983 -0.005252 -0.004726 0.000000 0.000000 0.000000
# 2 -0.005252 0.008964 -0.005011 0.000000 0.000000 0.000000
# 3 -0.004726 -0.005011 0.036223 0.000000 0.000000 0.000000
# 4 0.000000 0.000000 0.000000 -5.622109 0.000000 0.000000
# 5 0.000000 0.000000 0.000000 0.000000 0.092787 0.000000
# 6 0.000000 0.000000 0.000000 0.000000 0.000000 0.029836
#
#
# Mechanical properties :
#
#
# Convention : Reuss Voigt Hill
#
# Bulk Modulus (GPa) = 35.47164 71.96935 53.72049
# Shear Modulus (GPa) = -0.92559 21.48923 10.28182
#
# Velocity S-wave (km/s) = -0.69908 3.36843 2.32998
# Velocity P-wave (km/s) = 4.25176 7.28892 5.96681
#
# Compressibility (1/GPa) = 0.02819154
#
# Stress axis : x y z
#
# Youngs Moduli (GPa) = 77.02245 111.55884 27.60707
#
# Poissons Ratio (x) = 0.58595 0.13047
# Poissons Ratio (y) = 0.40455 0.13833
# Poissons Ratio (z) = 0.36400 0.55900
#
# Static dielectric constant tensor:
#      x y z
#    x 3.482630 0.000000 0.000000 
#    y 0.000000 3.701630 0.000000 
#    z 0.000000 0.000000 2.939840 
# 
# 
# High freq. dielectric constant tensor:
#      x y z
#    x 1.740010 0.000000 0.000000 
#    y 0.000000 1.751850 0.000000 
#    z 0.000000 0.000000 1.680610 
# 
# From -- ./inp_files/9683.got.cif
#   From: 2010.03.12/outbox.cif.g09.slc.cpg/sg65_5_cif.got.tgz:9683.got - 2010.04.10 20:52:16.
