data_PCOD8268835
_publ_section_title
;
Structure prediction by ZEFSAII (Michael W. Deem and Ramdas Pophale) SiO2 
 PCOD8268835
Probable space group: C M M M
;
_chemical_formula_sum "Si O2"
_cell_formula_units_Z 88
_cell_length_a 21.528524
_cell_length_b 16.753578
_cell_length_c 16.746529
_cell_angle_alpha 90.000000
_cell_angle_beta 90.000000
_cell_angle_gamma 90.000000
_cell_volume 6040.134832
_symmetry_space_group_name_H-M "C M M M"
_symmetry_group_IT_number 65
_symmetry_cell_setting 'orthorhombic'
loop_
_space_group_symop_operation_xyz
x,y,z
-x,-y,z
x,-y,-z
-x,y,-z
-x,-y,-z
x,y,-z
-x,y,z
x,-y,z
1/2+x,1/2+y,z
1/2-x,1/2-y,z
1/2+x,1/2-y,-z
1/2-x,1/2+y,-z
1/2-x,1/2-y,-z
1/2+x,1/2+y,-z
1/2-x,1/2+y,z
1/2+x,1/2-y,z
loop_
_atom_site_type_symbol
_atom_site_label
_atom_site_fract_x
_atom_site_fract_y
_atom_site_fract_z
Si Si1 0.928499 0.906867 0.000000
Si Si2 0.866293 0.855081 0.672195
Si Si3 0.118536 0.686807 0.593505
Si Si4 0.572386 0.500000 0.586856
Si Si5 0.256441 0.093674 0.591465
Si Si6 0.000000 0.411091 0.405226
Si Si7 0.927064 0.905133 0.826914
O O1 0.902688 0.874867 0.085182
O O2 0.000000 0.885755 0.000000
O O3 0.917558 0.000000 0.000000
O O4 0.883720 0.768597 0.641033
O O5 0.909557 0.920441 0.631824
O O6 0.794781 0.874391 0.652995
O O7 0.881817 0.858785 0.766095
O O8 0.113193 0.705916 0.500000
O O9 0.180562 0.638451 0.613442
O O10 0.061075 0.634572 0.624681
O O11 0.500000 0.500000 0.576339
O O12 0.605513 0.500000 0.500000
O O13 0.236540 0.112785 0.500000
O O14 0.266920 0.000000 0.603390
O O15 0.000000 0.500000 0.368380
O O16 0.000000 0.416622 0.500000
O O17 0.000000 0.883892 0.813503
O O18 0.918387 0.000000 0.816981
#
# Coordination Sequence:
#
# PCOD8268835 Si02
#       7
#     8  16  16   8  16   8  16
#     4   7  12  24  42  60  81 114 152 181 210 251
#     4  12  20  29  43  65  92 120 150 182 220 265
#     4  10  21  32  46  64  85 114 154 198 231 261
#     4  11  22  30  38  55  91 132 156 171 203 257
#     4  10  19  33  48  61  82 117 159 196 228 262
#     4   9  18  34  50  63  79 108 153 199 239 266
#     4   9  16  27  42  62  89 120 150 180 213 261
#
# _framework density 14.569212
#
# number of rings (size 3 to 8) (size 9 to 14) (size 15 to 20)
#    0.000    2.091    1.818    4.364    2.545    3.636 
#    0.000    0.000    0.000    0.000    0.000    2.545 
#    0.000    0.000    0.000    3.273    0.000    0.000 
#
# Total GULP energy -545341.947016 kJ/mol
# GULP energy per Si atom -12394.135159 kJ/mol
# Density = 1.453605 g / cm^3
# Si number density = 14.569212 Si / 1000 Ang^3
#
#
#
# Elastic Constant Matrix: (Units=GPa)
#
#
# Indices 1 2 3 4 5 6 
#
# 1 94.5310 44.7138 50.2609 0.0000 0.0000 0.0000
# 2 44.7138 104.3283 44.2948 0.0000 0.0000 0.0000
# 3 50.2609 44.2948 107.5523 0.0000 0.0000 0.0000
# 4 0.0000 0.0000 0.0000 13.6453 0.0000 0.0000
# 5 0.0000 0.0000 0.0000 0.0000 12.4415 0.0000
# 6 0.0000 0.0000 0.0000 0.0000 0.0000 35.3759
#
#
#
# Elastic Compliance Matrix: (Units=1/GPa)
#
#
# Indices 1 2 3 4 5 6 
#
# 1 0.015541 -0.004335 -0.005477 0.000000 0.000000 0.000000
# 2 -0.004335 0.012826 -0.003256 0.000000 0.000000 0.000000
# 3 -0.005477 -0.003256 0.013198 0.000000 0.000000 0.000000
# 4 0.000000 0.000000 0.000000 0.073285 0.000000 0.000000
# 5 0.000000 0.000000 0.000000 0.000000 0.080376 0.000000
# 6 0.000000 0.000000 0.000000 0.000000 0.000000 0.028268
#
#
# Mechanical properties :
#
#
# Convention : Reuss Voigt Hill
#
# Bulk Modulus (GPa) = 64.81759 64.99452 64.90606
# Shear Modulus (GPa) = 19.62514 23.43534 21.53024
#
# Velocity S-wave (km/s) = 3.67417 4.01503 3.84837
# Velocity P-wave (km/s) = 7.91109 8.13644 8.02456
#
# Compressibility (1/GPa) = 0.01542791
#
# Stress axis : x y z
#
# Youngs Moduli (GPa) = 64.34435 77.96843 75.76648
#
# Poissons Ratio (x) = 0.33802 0.41499
# Poissons Ratio (y) = 0.27896 0.24671
# Poissons Ratio (z) = 0.35243 0.25388
#
# Static dielectric constant tensor:
#      x y z
#    x 2.870140 0.000000 0.000000 
#    y 0.000000 2.890790 0.000000 
#    z 0.000000 0.000000 2.975540 
# 
# 
# High freq. dielectric constant tensor:
#      x y z
#    x 1.552530 0.000000 0.000000 
#    y 0.000000 1.547400 0.000000 
#    z 0.000000 0.000000 1.530530 
# 
# From -- ./inp_files/55789.got.cif
#   From: 2010.03.12/outbox.cif.g09.slc.cpg/sg65_28_cif.got.tgz:55789.got - 2010.04.10 20:52:16.
