data_PCOD8268645
_publ_section_title
;
Structure prediction by ZEFSAII (Michael W. Deem and Ramdas Pophale) SiO2 
 PCOD8268645
Probable space group: C M M M
;
_chemical_formula_sum "Si O2"
_cell_formula_units_Z 104
_cell_length_a 9.178020
_cell_length_b 19.997730
_cell_length_c 32.407815
_cell_angle_alpha 90.000000
_cell_angle_beta 90.000000
_cell_angle_gamma 90.000000
_cell_volume 5948.116297
_symmetry_space_group_name_H-M "C M M M"
_symmetry_group_IT_number 65
_symmetry_cell_setting 'orthorhombic'
loop_
_space_group_symop_operation_xyz
x,y,z
-x,-y,z
x,-y,-z
-x,y,-z
-x,-y,-z
x,y,-z
-x,y,z
x,-y,z
1/2+x,1/2+y,z
1/2-x,1/2-y,z
1/2+x,1/2-y,-z
1/2-x,1/2+y,-z
1/2-x,1/2-y,-z
1/2+x,1/2+y,-z
1/2-x,1/2+y,z
1/2+x,1/2-y,z
loop_
_atom_site_type_symbol
_atom_site_label
_atom_site_fract_x
_atom_site_fract_y
_atom_site_fract_z
Si Si1 0.170833 0.816991 0.109164
Si Si2 0.826954 0.074252 0.954101
Si Si3 0.828956 0.178699 0.410399
Si Si4 0.334023 0.922966 0.257165
Si Si5 0.834139 0.817382 0.500000
Si Si6 0.832706 0.576579 0.353044
Si Si7 0.329642 0.317556 0.796208
O O1 0.250000 0.750000 0.095014
O O2 0.235188 0.875683 0.080373
O O3 0.207550 0.834640 0.156410
O O4 0.000000 0.806704 0.102470
O O5 0.000000 0.072820 0.951681
O O6 0.765868 0.000000 0.944804
O O7 0.777634 0.097197 0.000000
O O8 0.750000 0.250000 0.404891
O O9 0.798971 0.146152 0.456348
O O10 0.770977 0.125515 0.378011
O O11 0.000000 0.189938 0.402600
O O12 0.500000 0.905580 0.245002
O O13 0.308321 0.907969 0.305112
O O14 0.223554 0.879035 0.230981
O O15 0.300139 0.000000 0.247322
O O16 0.750000 0.750000 0.500000
O O17 0.000000 0.795602 0.500000
O O18 0.790178 0.500000 0.362895
O O19 0.000000 0.589635 0.365404
O O20 0.500000 0.306963 0.789151
O O21 0.250000 0.250000 0.781937
#
# Coordination Sequence:
#
# PCOD8268645 Si02
#       7
#    16  16  16  16   8  16  16
#     4   9  18  31  47  69  96 124 155 193 236 280
#     4   8  14  26  45  68  93 122 157 195 233 275
#     4  10  19  32  52  76 101 130 165 203 242 286
#     4   9  19  36  55  73  96 127 161 199 244 292
#     4   8  16  30  47  70  99 129 161 199 241 282
#     4   9  19  36  54  72  98 130 162 199 243 289
#     4  10  20  33  50  72  99 129 161 201 244 287
#
# _framework density 17.484525999999999
#
# number of rings (size 3 to 8) (size 9 to 14) (size 15 to 20)
#    0.000    2.923    0.000    2.308    0.000    4.000 
#    0.000    3.462    0.000    2.769    0.000    1.077 
#    0.000    0.000    0.000    0.000    0.000    0.000 
#
# Total GULP energy -644522.491214 kJ/mol
# GULP energy per Si atom -12394.663293 kJ/mol
# Density = 1.744473 g / cm^3
# Si number density = 17.484526 Si / 1000 Ang^3
#
#
#
# Elastic Constant Matrix: (Units=GPa)
#
#
# Indices 1 2 3 4 5 6 
#
# 1 66.9723 52.5232 47.3479 0.0000 0.0000 0.0000
# 2 52.5232 112.9959 77.3231 0.0000 0.0000 0.0000
# 3 47.3479 77.3231 96.9719 0.0000 0.0000 0.0000
# 4 0.0000 0.0000 0.0000 0.8379 0.0000 0.0000
# 5 0.0000 0.0000 0.0000 0.0000 19.6490 0.0000
# 6 0.0000 0.0000 0.0000 0.0000 0.0000 31.8762
#
#
#
# Elastic Compliance Matrix: (Units=1/GPa)
#
#
# Indices 1 2 3 4 5 6 
#
# 1 0.025249 -0.007263 -0.006537 0.000000 0.000000 0.000000
# 2 -0.007263 0.021567 -0.013651 0.000000 0.000000 0.000000
# 3 -0.006537 -0.013651 0.024389 0.000000 0.000000 0.000000
# 4 0.000000 0.000000 0.000000 1.193428 0.000000 0.000000
# 5 0.000000 0.000000 0.000000 0.000000 0.050893 0.000000
# 6 0.000000 0.000000 0.000000 0.000000 0.000000 0.031371
#
#
# Mechanical properties :
#
#
# Convention : Reuss Voigt Hill
#
# Bulk Modulus (GPa) = 61.33643 70.14761 65.74202
# Shear Modulus (GPa) = 3.55307 17.12235 10.33771
#
# Velocity S-wave (km/s) = 1.42707 3.13275 2.43420
# Velocity P-wave (km/s) = 6.15402 7.30016 6.75146
#
# Compressibility (1/GPa) = 0.01630353
#
# Stress axis : x y z
#
# Youngs Moduli (GPa) = 39.60536 46.36641 41.00267
#
# Poissons Ratio (x) = 0.33678 0.26802
# Poissons Ratio (y) = 0.28767 0.55972
# Poissons Ratio (z) = 0.25888 0.63294
#
# Static dielectric constant tensor:
#      x y z
#    x 3.095560 0.000000 0.000000 
#    y 0.000000 3.215510 0.000000 
#    z 0.000000 0.000000 3.594100 
# 
# 
# High freq. dielectric constant tensor:
#      x y z
#    x 1.663990 0.000000 0.000000 
#    y 0.000000 1.666870 0.000000 
#    z 0.000000 0.000000 1.683360 
# 
# From -- ./inp_files/76891.got.cif
#   From: 2010.03.12/outbox.cif.g09.slc.cpg/sg65_39_cif.got.tgz:76891.got - 2010.04.10 20:52:16.
