data_PCOD8268574
_publ_section_title
;
Structure prediction by ZEFSAII (Michael W. Deem and Ramdas Pophale) SiO2 
 PCOD8268574
Probable space group: C M M M
;
_chemical_formula_sum "Si O2"
_cell_formula_units_Z 80
_cell_length_a 9.802862
_cell_length_b 16.911767
_cell_length_c 24.477817
_cell_angle_alpha 90.000000
_cell_angle_beta 90.000000
_cell_angle_gamma 90.000000
_cell_volume 4058.023513
_symmetry_space_group_name_H-M "C M M M"
_symmetry_group_IT_number 65
_symmetry_cell_setting 'orthorhombic'
loop_
_space_group_symop_operation_xyz
x,y,z
-x,-y,z
x,-y,-z
-x,y,-z
-x,-y,-z
x,y,-z
-x,y,z
x,-y,z
1/2+x,1/2+y,z
1/2-x,1/2-y,z
1/2+x,1/2-y,-z
1/2-x,1/2+y,-z
1/2-x,1/2-y,-z
1/2+x,1/2+y,-z
1/2-x,1/2+y,z
1/2+x,1/2-y,z
loop_
_atom_site_type_symbol
_atom_site_label
_atom_site_fract_x
_atom_site_fract_y
_atom_site_fract_z
Si Si1 0.847268 0.094020 0.438937
Si Si2 0.500000 0.152010 0.938187
Si Si3 0.247216 0.843676 0.868444
Si Si4 0.000000 0.160225 0.939777
Si Si5 0.156044 0.594337 0.343241
Si Si6 0.155247 0.093205 0.755038
O O1 0.812851 0.124567 0.500000
O O2 0.731283 0.126542 0.397892
O O3 0.000000 0.122460 0.421565
O O4 0.845319 0.000000 0.437797
O O5 0.625117 0.123073 0.901693
O O6 0.500000 0.245740 0.944017
O O7 0.500000 0.115806 0.000000
O O8 0.250000 0.750000 0.859294
O O9 0.232826 0.884535 0.810252
O O10 0.126992 0.872019 0.907009
O O11 0.000000 0.122964 0.000000
O O12 0.151961 0.500000 0.342606
O O13 0.248167 0.626629 0.293165
O O14 0.000000 0.627095 0.340337
O O15 0.000000 0.128717 0.752407
O O16 0.144201 0.000000 0.749840
#
# Coordination Sequence:
#
# PCOD8268574 Si02
#       6
#    16   8  16   8  16  16
#     4   8  13  22  37  57  83 117 156 196 236 278
#     4   9  18  30  49  75  97 121 150 191 244 288
#     4  10  19  32  51  75  98 122 156 197 239 283
#     4   9  16  30  51  73  97 121 154 195 234 284
#     4   9  17  27  40  61  88 121 159 196 238 284
#     4  10  20  34  50  67  93 130 167 198 232 281
#
# _framework density 19.714032
#
# number of rings (size 3 to 8) (size 9 to 14) (size 15 to 20)
#    0.000    2.800    1.000    1.800    1.400    5.200 
#    0.000    2.000    0.000    3.600    0.000    0.000 
#    0.000    0.800    0.000    1.800    0.000    2.000 
#
# Total GULP energy -495678.494551 kJ/mol
# GULP energy per Si atom -12391.962364 kJ/mol
# Density = 1.966916 g / cm^3
# Si number density = 19.714032 Si / 1000 Ang^3
#
#
#
# Elastic Constant Matrix: (Units=GPa)
#
#
# Indices 1 2 3 4 5 6 
#
# 1 198.9391 5.8965 112.0370 0.0000 0.0000 0.0000
# 2 5.8965 1.8065 3.7907 0.0000 0.0000 0.0000
# 3 112.0370 3.7907 190.6989 0.0000 0.0000 0.0000
# 4 0.0000 0.0000 0.0000 720.2545 0.0000 0.0000
# 5 0.0000 0.0000 0.0000 0.0000 31.4969 0.0000
# 6 0.0000 0.0000 0.0000 0.0000 0.0000 10.8538
#
#
#
# Elastic Compliance Matrix: (Units=1/GPa)
#
#
# Indices 1 2 3 4 5 6 
#
# 1 0.007978 -0.016912 -0.004351 0.000000 0.000000 0.000000
# 2 -0.016912 0.613509 -0.002260 0.000000 0.000000 0.000000
# 3 -0.004351 -0.002260 0.007845 0.000000 0.000000 0.000000
# 4 0.000000 0.000000 0.000000 0.001388 0.000000 0.000000
# 5 0.000000 0.000000 0.000000 0.000000 0.031749 0.000000
# 6 0.000000 0.000000 0.000000 0.000000 0.000000 0.092134
#
#
# Mechanical properties :
#
#
# Convention : Reuss Voigt Hill
#
# Bulk Modulus (GPa) = 1.71737 70.54367 36.13052
# Shear Modulus (GPa) = 5.02137 170.50240 87.76188
#
# Velocity S-wave (km/s) = 1.59770 9.30997 6.67938
# Velocity P-wave (km/s) = 2.06798 12.30563 8.82341
#
# Compressibility (1/GPa) = 0.58228705
#
# Stress axis : x y z
#
# Youngs Moduli (GPa) = 125.33864 1.62997 127.46748
#
# Poissons Ratio (x) = 0.02757 0.55463
# Poissons Ratio (y) = 2.11968 0.28804
# Poissons Ratio (z) = 0.54537 0.00368
#
# Static dielectric constant tensor:
#      x y z
#    x 3.969800 0.000000 0.000000 
#    y 0.000000 2.808140 0.000000 
#    z 0.000000 0.000000 3.861030 
# 
# 
# High freq. dielectric constant tensor:
#      x y z
#    x 1.784570 0.000000 0.000000 
#    y 0.000000 1.689110 0.000000 
#    z 0.000000 0.000000 1.785960 
# 
# From -- ./inp_files/67362.got.cif
#   From: 2010.03.12/outbox.cif.g09.slc.cpg/sg65_34_cif.got.tgz:67362.got - 2010.04.10 20:52:16.
