data_PCOD8268711
_publ_section_title
;
Structure prediction by ZEFSAII (Michael W. Deem and Ramdas Pophale) SiO2 
 PCOD8268711
Probable space group: C M M M
;
_chemical_formula_sum "Si O2"
_cell_formula_units_Z 56
_cell_length_a 19.456701
_cell_length_b 8.484789
_cell_length_c 17.888763
_cell_angle_alpha 90.000000
_cell_angle_beta 90.000000
_cell_angle_gamma 90.000000
_cell_volume 2953.184376
_symmetry_space_group_name_H-M "C M M M"
_symmetry_group_IT_number 65
_symmetry_cell_setting 'orthorhombic'
loop_
_space_group_symop_operation_xyz
x,y,z
-x,-y,z
x,-y,-z
-x,y,-z
-x,-y,-z
x,y,-z
-x,y,z
x,-y,z
1/2+x,1/2+y,z
1/2-x,1/2-y,z
1/2+x,1/2-y,-z
1/2-x,1/2+y,-z
1/2-x,1/2-y,-z
1/2+x,1/2+y,-z
1/2-x,1/2+y,z
1/2+x,1/2-y,z
loop_
_atom_site_type_symbol
_atom_site_label
_atom_site_fract_x
_atom_site_fract_y
_atom_site_fract_z
Si Si1 0.923203 0.312731 0.417533
Si Si2 0.174966 0.186260 0.127890
Si Si3 0.824033 0.687574 0.289250
Si Si4 0.920347 0.313699 0.000000
O O1 0.897834 0.257205 0.500000
O O2 0.922880 0.500000 0.414325
O O3 0.874714 0.245029 0.352733
O O4 0.000000 0.249049 0.403105
O O5 0.250000 0.250000 0.104455
O O6 0.152987 0.243890 0.209776
O O7 0.178942 0.000000 0.125655
O O8 0.116269 0.245920 0.072926
O O9 0.823855 0.500000 0.284198
O O10 0.750000 0.750000 0.312380
O O11 0.913434 0.500000 0.000000
O O12 0.000000 0.260706 0.000000
#
# Coordination Sequence:
#
# PCOD8268711 Si02
#       4
#    16  16  16   8
#     4   8  15  29  49  73 101 135 176 219 262 311
#     4  11  22  38  59  81 109 143 180 220 265 318
#     4  10  19  32  52  78 106 137 175 218 265 315
#     4  11  24  41  60  83 111 141 176 217 262 315
#
# _framework density 18.962582000000001
#
# number of rings (size 3 to 8) (size 9 to 14) (size 15 to 20)
#    0.000    2.143    0.000    6.857    0.000    2.857 
#    0.000    2.857    0.000    5.143    0.000    8.000 
#    0.000    0.000    0.000    0.000    0.000    0.000 
#
# Total GULP energy -347167.346773 kJ/mol
# GULP energy per Si atom -12398.833813 kJ/mol
# Density = 1.891942 g / cm^3
# Si number density = 18.962582 Si / 1000 Ang^3
#
#
#
# Elastic Constant Matrix: (Units=GPa)
#
#
# Indices 1 2 3 4 5 6 
#
# 1 145.7426 50.1357 126.6842 0.0000 0.0000 0.0000
# 2 50.1357 97.8703 46.4425 0.0000 0.0000 0.0000
# 3 126.6842 46.4425 177.5043 0.0000 0.0000 0.0000
# 4 0.0000 0.0000 0.0000 12.7679 0.0000 0.0000
# 5 0.0000 0.0000 0.0000 0.0000 38.8244 0.0000
# 6 0.0000 0.0000 0.0000 0.0000 0.0000 27.5157
#
#
#
# Elastic Compliance Matrix: (Units=1/GPa)
#
#
# Indices 1 2 3 4 5 6 
#
# 1 0.019245 -0.003814 -0.012737 0.000000 0.000000 0.000000
# 2 -0.003814 0.012422 -0.000528 0.000000 0.000000 0.000000
# 3 -0.012737 -0.000528 0.014862 0.000000 0.000000 0.000000
# 4 0.000000 0.000000 0.000000 0.078321 0.000000 0.000000
# 5 0.000000 0.000000 0.000000 0.000000 0.025757 0.000000
# 6 0.000000 0.000000 0.000000 0.000000 0.000000 0.036343
#
#
# Mechanical properties :
#
#
# Convention : Reuss Voigt Hill
#
# Bulk Modulus (GPa) = 80.83651 96.40466 88.62058
# Shear Modulus (GPa) = 22.19923 29.01192 25.60557
#
# Velocity S-wave (km/s) = 3.42524 3.91571 3.67866
# Velocity P-wave (km/s) = 7.63970 8.44947 8.05477
#
# Compressibility (1/GPa) = 0.01237065
#
# Stress axis : x y z
#
# Youngs Moduli (GPa) = 51.96101 80.50185 67.28456
#
# Poissons Ratio (x) = 0.30707 0.85702
# Poissons Ratio (y) = 0.19820 0.03551
# Poissons Ratio (z) = 0.66184 0.04248
#
# Static dielectric constant tensor:
#      x y z
#    x 3.675460 0.000000 0.000000 
#    y 0.000000 3.338710 0.000000 
#    z 0.000000 0.000000 3.778480 
# 
# 
# High freq. dielectric constant tensor:
#      x y z
#    x 1.735180 0.000000 0.000000 
#    y 0.000000 1.726010 0.000000 
#    z 0.000000 0.000000 1.752290 
# 
# From -- ./inp_files/48771.got.cif
#   From: 2010.03.12/outbox.cif.g09.slc.cpg/sg65_25_cif.got.tgz:48771.got - 2010.04.10 20:52:16.
