data_PCOD8268339
_publ_section_title
;
Structure prediction by ZEFSAII (Michael W. Deem and Ramdas Pophale) SiO2 
 PCOD8268339
Probable space group: C M M M
;
_chemical_formula_sum "Si O2"
_cell_formula_units_Z 96
_cell_length_a 22.175230
_cell_length_b 16.992321
_cell_length_c 15.109682
_cell_angle_alpha 90.000000
_cell_angle_beta 90.000000
_cell_angle_gamma 90.000000
_cell_volume 5693.458520
_symmetry_space_group_name_H-M "C M M M"
_symmetry_group_IT_number 65
_symmetry_cell_setting 'orthorhombic'
loop_
_space_group_symop_operation_xyz
x,y,z
-x,-y,z
x,-y,-z
-x,y,-z
-x,-y,-z
x,y,-z
-x,y,z
x,-y,z
1/2+x,1/2+y,z
1/2-x,1/2-y,z
1/2+x,1/2-y,-z
1/2-x,1/2+y,-z
1/2-x,1/2-y,-z
1/2+x,1/2+y,-z
1/2-x,1/2+y,z
1/2+x,1/2-y,z
loop_
_atom_site_type_symbol
_atom_site_label
_atom_site_fract_x
_atom_site_fract_y
_atom_site_fract_z
Si Si1 0.116143 0.177132 0.338268
Si Si2 0.145145 0.649914 0.606035
Si Si3 0.932889 0.909025 0.180613
Si Si4 0.744076 0.339103 0.265039
Si Si5 0.566650 0.000000 0.396097
Si Si6 0.307880 0.591723 0.096179
Si Si7 0.933805 0.907678 0.500000
O O1 0.112686 0.269105 0.364919
O O2 0.069948 0.154046 0.260521
O O3 0.182503 0.148160 0.315714
O O4 0.102438 0.120786 0.417401
O O5 0.160561 0.651390 0.500000
O O6 0.204097 0.634856 0.666240
O O7 0.101269 0.578861 0.632490
O O8 0.878030 0.885985 0.115607
O O9 0.000000 0.899531 0.137111
O O10 0.924923 0.000000 0.213204
O O11 0.750000 0.250000 0.235695
O O12 0.740683 0.384260 0.171313
O O13 0.500000 0.000000 0.352110
O O14 0.559604 0.000000 0.500000
O O15 0.302106 0.500000 0.087755
O O16 0.291727 0.629750 0.000000
O O17 0.000000 0.868942 0.500000
O O18 0.938534 0.000000 0.500000
#
# Coordination Sequence:
#
# PCOD8268339 Si02
#       7
#    16  16  16  16   8  16   8
#     4  10  19  32  47  69  98 134 172 210 248 292
#     4  10  20  35  52  73  98 132 170 213 258 305
#     4   9  17  30  47  69 101 137 173 209 243 290
#     4   9  20  33  52  73 100 128 163 210 257 303
#     4   9  20  36  50  70  97 125 169 218 254 296
#     4   9  18  32  50  74 101 130 165 205 252 306
#     4  11  22  32  43  67 101 137 176 208 237 283
#
# _framework density 16.861456
#
# number of rings (size 3 to 8) (size 9 to 14) (size 15 to 20)
#    0.000    2.500    0.833    1.000    2.333    5.000 
#    0.000    1.667    0.000    0.000    0.000    0.000 
#    0.000    1.333    0.000    0.000    0.000    0.833 
#
# Total GULP energy -594638.106718 kJ/mol
# GULP energy per Si atom -12388.293890 kJ/mol
# Density = 1.682308 g / cm^3
# Si number density = 16.861456 Si / 1000 Ang^3
#
#
#
# Elastic Constant Matrix: (Units=GPa)
#
#
# Indices 1 2 3 4 5 6 
#
# 1 80.6211 29.5599 39.4725 0.0000 0.0000 0.0000
# 2 29.5599 64.4899 40.3885 0.0000 0.0000 0.0000
# 3 39.4725 40.3885 116.9803 0.0000 0.0000 0.0000
# 4 0.0000 0.0000 0.0000 11.9928 0.0000 0.0000
# 5 0.0000 0.0000 0.0000 0.0000 10.5711 0.0000
# 6 0.0000 0.0000 0.0000 0.0000 0.0000 21.4244
#
#
#
# Elastic Compliance Matrix: (Units=1/GPa)
#
#
# Indices 1 2 3 4 5 6 
#
# 1 0.016056 -0.005061 -0.003671 0.000000 0.000000 0.000000
# 2 -0.005061 0.021379 -0.005674 0.000000 0.000000 0.000000
# 3 -0.003671 -0.005674 0.011746 0.000000 0.000000 0.000000
# 4 0.000000 0.000000 0.000000 0.083383 0.000000 0.000000
# 5 0.000000 0.000000 0.000000 0.000000 0.094597 0.000000
# 6 0.000000 0.000000 0.000000 0.000000 0.000000 0.046676
#
#
# Mechanical properties :
#
#
# Convention : Reuss Voigt Hill
#
# Bulk Modulus (GPa) = 49.08869 53.43701 51.26285
# Shear Modulus (GPa) = 16.15830 18.97571 17.56700
#
# Velocity S-wave (km/s) = 3.09900 3.35832 3.23126
# Velocity P-wave (km/s) = 6.47929 6.84093 6.66257
#
# Compressibility (1/GPa) = 0.02037129
#
# Stress axis : x y z
#
# Youngs Moduli (GPa) = 62.28038 46.77409 85.13602
#
# Poissons Ratio (x) = 0.23672 0.31250
# Poissons Ratio (y) = 0.31519 0.48304
# Poissons Ratio (z) = 0.22860 0.26538
#
# Static dielectric constant tensor:
#      x y z
#    x 2.965790 0.000000 0.000000 
#    y 0.000000 3.242300 0.000000 
#    z 0.000000 0.000000 3.131410 
# 
# 
# High freq. dielectric constant tensor:
#      x y z
#    x 1.649380 0.000000 0.000000 
#    y 0.000000 1.644540 0.000000 
#    z 0.000000 0.000000 1.639740 
# 
# From -- ./inp_files/45669.got.cif
#   From: 2010.03.12/outbox.cif.g09.slc.cpg/sg65_23_cif.got.tgz:45669.got - 2010.04.10 20:52:16.
