data_PCOD8268122
_publ_section_title
;
Structure prediction by ZEFSAII (Michael W. Deem and Ramdas Pophale) SiO2 
 PCOD8268122
Probable space group: C M M M
;
_chemical_formula_sum "Si O2"
_cell_formula_units_Z 80
_cell_length_a 18.063870
_cell_length_b 9.210044
_cell_length_c 25.975865
_cell_angle_alpha 90.000000
_cell_angle_beta 90.000000
_cell_angle_gamma 90.000000
_cell_volume 4321.579659
_symmetry_space_group_name_H-M "C M M M"
_symmetry_group_IT_number 65
_symmetry_cell_setting 'orthorhombic'
loop_
_space_group_symop_operation_xyz
x,y,z
-x,-y,z
x,-y,-z
-x,y,-z
-x,-y,-z
x,y,-z
-x,y,z
x,-y,z
1/2+x,1/2+y,z
1/2-x,1/2-y,z
1/2+x,1/2-y,-z
1/2-x,1/2+y,-z
1/2-x,1/2-y,-z
1/2+x,1/2+y,-z
1/2-x,1/2+y,z
1/2+x,1/2-y,z
loop_
_atom_site_type_symbol
_atom_site_label
_atom_site_fract_x
_atom_site_fract_y
_atom_site_fract_z
Si Si1 0.911914 0.663956 0.500000
Si Si2 0.082893 0.172146 0.000000
Si Si3 0.082851 0.172293 0.199626
Si Si4 0.672394 0.671537 0.298593
Si Si5 0.328113 0.327524 0.099798
Si Si6 0.085509 0.831154 0.400390
O O1 0.882089 0.500000 0.500000
O O2 0.881992 0.743568 0.550989
O O3 0.000000 0.671163 0.500000
O O4 0.125922 0.226288 0.949576
O O5 0.000000 0.238067 0.000000
O O6 0.077849 0.000000 0.000000
O O7 0.123571 0.227900 0.250870
O O8 0.127690 0.226224 0.149948
O O9 0.000000 0.237967 0.198114
O O10 0.078097 0.000000 0.199803
O O11 0.684918 0.500000 0.295669
O O12 0.750000 0.750000 0.296369
O O13 0.630831 0.717470 0.350540
O O14 0.316274 0.500000 0.099658
O O15 0.250000 0.250000 0.099056
O O16 0.000000 0.793178 0.389975
O O17 0.095494 0.000000 0.412666
#
# Coordination Sequence:
#
# PCOD8268122 Si02
#       6
#     8   8  16  16  16  16
#     4   9  17  29  48  75 102 125 153 195 244 287
#     4   9  17  30  49  73  98 129 174 216 244 281
#     4   9  17  31  52  75  96 124 166 208 242 283
#     4  10  20  33  50  72  98 127 159 198 243 290
#     4  10  19  31  50  74 101 132 164 204 251 296
#     4   9  17  31  51  72  94 124 162 199 234 279
#
# _framework density 18.511749999999999
#
# number of rings (size 3 to 8) (size 9 to 14) (size 15 to 20)
#    0.000    2.600    0.000    2.400    0.000    6.800 
#    0.000    0.500    0.000    6.000    0.000    0.000 
#    0.000    0.000    0.000    0.000    0.000    0.000 
#
# Total GULP energy -496042.006320 kJ/mol
# GULP energy per Si atom -12401.050158 kJ/mol
# Density = 1.846962 g / cm^3
# Si number density = 18.511750 Si / 1000 Ang^3
#
#
#
# Elastic Constant Matrix: (Units=GPa)
#
#
# Indices 1 2 3 4 5 6 
#
# 1 161.1164 39.8604 101.3169 0.0000 0.0000 0.0000
# 2 39.8604 35.4887 46.4840 0.0000 0.0000 0.0000
# 3 101.3169 46.4840 208.1881 0.0000 0.0000 0.0000
# 4 0.0000 0.0000 0.0000 10.8085 0.0000 0.0000
# 5 0.0000 0.0000 0.0000 0.0000 18.5199 0.0000
# 6 0.0000 0.0000 0.0000 0.0000 0.0000 29.0787
#
#
#
# Elastic Compliance Matrix: (Units=1/GPa)
#
#
# Indices 1 2 3 4 5 6 
#
# 1 0.010003 -0.006867 -0.003335 0.000000 0.000000 0.000000
# 2 -0.006867 0.044539 -0.006603 0.000000 0.000000 0.000000
# 3 -0.003335 -0.006603 0.007900 0.000000 0.000000 0.000000
# 4 0.000000 0.000000 0.000000 0.092520 0.000000 0.000000
# 5 0.000000 0.000000 0.000000 0.000000 0.053996 0.000000
# 6 0.000000 0.000000 0.000000 0.000000 0.000000 0.034389
#
#
# Mechanical properties :
#
#
# Convention : Reuss Voigt Hill
#
# Bulk Modulus (GPa) = 34.68175 86.67954 60.68065
# Shear Modulus (GPa) = 17.44789 26.15687 21.80238
#
# Velocity S-wave (km/s) = 3.07340 3.76305 3.43557
# Velocity P-wave (km/s) = 5.60089 8.11212 6.97053
#
# Compressibility (1/GPa) = 0.02883361
#
# Stress axis : x y z
#
# Youngs Moduli (GPa) = 99.97488 22.45202 126.57534
#
# Poissons Ratio (x) = 0.15418 0.42208
# Poissons Ratio (y) = 0.68652 0.83576
# Poissons Ratio (z) = 0.33337 0.14825
#
# Static dielectric constant tensor:
#      x y z
#    x 3.391950 0.000000 0.000000 
#    y 0.000000 3.041860 0.000000 
#    z 0.000000 0.000000 3.771220 
# 
# 
# High freq. dielectric constant tensor:
#      x y z
#    x 1.717150 0.000000 0.000000 
#    y 0.000000 1.677110 0.000000 
#    z 0.000000 0.000000 1.740170 
# 
# From -- ./inp_files/72864.got.cif
#   From: 2010.03.12/outbox.cif.g09.slc.cpg/sg65_37_cif.got.tgz:72864.got - 2010.04.10 20:52:16.
