data_PCOD8268621
_publ_section_title
;
Structure prediction by ZEFSAII (Michael W. Deem and Ramdas Pophale) SiO2 
 PCOD8268621
Probable space group: C M M M
;
_chemical_formula_sum "Si O2"
_cell_formula_units_Z 96
_cell_length_a 8.986949
_cell_length_b 18.391298
_cell_length_c 30.694486
_cell_angle_alpha 90.000000
_cell_angle_beta 90.000000
_cell_angle_gamma 90.000000
_cell_volume 5073.235512
_symmetry_space_group_name_H-M "C M M M"
_symmetry_group_IT_number 65
_symmetry_cell_setting 'orthorhombic'
loop_
_space_group_symop_operation_xyz
x,y,z
-x,-y,z
x,-y,-z
-x,y,-z
-x,-y,-z
x,y,-z
-x,y,z
x,-y,z
1/2+x,1/2+y,z
1/2-x,1/2-y,z
1/2+x,1/2-y,-z
1/2-x,1/2+y,-z
1/2-x,1/2-y,-z
1/2+x,1/2+y,-z
1/2-x,1/2+y,z
1/2+x,1/2-y,z
loop_
_atom_site_type_symbol
_atom_site_label
_atom_site_fract_x
_atom_site_fract_y
_atom_site_fract_z
Si Si1 0.325106 0.674728 0.451086
Si Si2 0.171295 0.416660 0.949585
Si Si3 0.823402 0.918435 0.794398
Si Si4 0.823246 0.919066 0.628710
Si Si5 0.824124 0.172425 0.122795
Si Si6 0.823120 0.171796 0.711252
O O1 0.279895 0.650389 0.500000
O O2 0.500000 0.686655 0.447153
O O3 0.250000 0.750000 0.438014
O O4 0.269035 0.613760 0.417382
O O5 0.213178 0.500000 0.939351
O O6 0.276714 0.363880 0.922449
O O7 0.000000 0.401773 0.937441
O O8 0.199823 0.399215 0.000000
O O9 0.767321 0.878313 0.837837
O O10 0.766242 0.874557 0.752432
O O11 0.000000 0.922413 0.793759
O O12 0.756549 0.000000 0.793495
O O13 0.765215 0.869237 0.668113
O O14 0.000000 0.923054 0.630422
O O15 0.755860 0.000000 0.633215
O O16 0.750000 0.250000 0.128608
O O17 0.000000 0.182432 0.123298
O O18 0.750000 0.250000 0.713321
O O19 0.000000 0.180686 0.711369
#
# Coordination Sequence:
#
# PCOD8268621 Si02
#       6
#    16  16  16  16  16  16
#     4   9  17  29  46  68  94 124 158 199 245 291
#     4   9  19  37  59  81 106 136 170 210 256 303
#     4   9  18  33  53  76 100 128 165 207 249 294
#     4   9  17  29  47  71  95 123 163 204 241 285
#     4  11  22  35  53  77 106 138 172 210 251 298
#     4  10  19  32  52  74  98 128 161 200 244 292
#
# _framework density 18.922834999999999
#
# number of rings (size 3 to 8) (size 9 to 14) (size 15 to 20)
#    0.000    2.500    0.000    3.000    0.000    4.000 
#    0.000    3.333    0.000    5.500    0.000    2.333 
#    0.000    0.000    0.000    0.000    0.000    0.000 
#
# Total GULP energy -595237.148156 kJ/mol
# GULP energy per Si atom -12400.773920 kJ/mol
# Density = 1.887977 g / cm^3
# Si number density = 18.922835 Si / 1000 Ang^3
#
#
#
# Elastic Constant Matrix: (Units=GPa)
#
#
# Indices 1 2 3 4 5 6 
#
# 1 34.7167 38.1721 31.5086 0.0000 0.0000 0.0000
# 2 38.1721 183.9834 96.0044 0.0000 0.0000 0.0000
# 3 31.5086 96.0044 141.0025 0.0000 0.0000 0.0000
# 4 0.0000 0.0000 0.0000 39.7055 0.0000 0.0000
# 5 0.0000 0.0000 0.0000 0.0000 15.9439 0.0000
# 6 0.0000 0.0000 0.0000 0.0000 0.0000 20.5266
#
#
#
# Elastic Compliance Matrix: (Units=1/GPa)
#
#
# Indices 1 2 3 4 5 6 
#
# 1 0.039496 -0.005567 -0.005035 0.000000 0.000000 0.000000
# 2 -0.005567 0.009215 -0.005030 0.000000 0.000000 0.000000
# 3 -0.005035 -0.005030 0.011642 0.000000 0.000000 0.000000
# 4 0.000000 0.000000 0.000000 0.025185 0.000000 0.000000
# 5 0.000000 0.000000 0.000000 0.000000 0.062720 0.000000
# 6 0.000000 0.000000 0.000000 0.000000 0.000000 0.048717
#
#
# Mechanical properties :
#
#
# Convention : Reuss Voigt Hill
#
# Bulk Modulus (GPa) = 34.37866 76.78586 55.58226
# Shear Modulus (GPa) = 21.01398 28.16971 24.59184
#
# Velocity S-wave (km/s) = 3.33605 3.86250 3.60889
# Velocity P-wave (km/s) = 5.74858 7.78193 6.84122
#
# Compressibility (1/GPa) = 0.02908781
#
# Stress axis : x y z
#
# Youngs Moduli (GPa) = 25.31927 108.51706 85.89367
#
# Poissons Ratio (x) = 0.60410 0.43251
# Poissons Ratio (y) = 0.14095 0.43207
# Poissons Ratio (z) = 0.12749 0.54588
#
# Static dielectric constant tensor:
#      x y z
#    x 3.079340 0.000000 0.000000 
#    y 0.000000 3.648240 0.000000 
#    z 0.000000 0.000000 3.703750 
# 
# 
# High freq. dielectric constant tensor:
#      x y z
#    x 1.694640 0.000000 0.000000 
#    y 0.000000 1.744810 0.000000 
#    z 0.000000 0.000000 1.752300 
# 
# From -- ./inp_files/73139.got.cif
#   From: 2010.03.12/outbox.cif.g09.slc.cpg/sg65_37_cif.got.tgz:73139.got - 2010.04.10 20:52:16.
