data_PCOD8268635
_publ_section_title
;
Structure prediction by ZEFSAII (Michael W. Deem and Ramdas Pophale) SiO2 
 PCOD8268635
Probable space group: C M M M
;
_chemical_formula_sum "Si O2"
_cell_formula_units_Z 104
_cell_length_a 17.275704
_cell_length_b 20.491037
_cell_length_c 17.064098
_cell_angle_alpha 90.000000
_cell_angle_beta 90.000000
_cell_angle_gamma 90.000000
_cell_volume 6040.641033
_symmetry_space_group_name_H-M "C M M M"
_symmetry_group_IT_number 65
_symmetry_cell_setting 'orthorhombic'
loop_
_space_group_symop_operation_xyz
x,y,z
-x,-y,z
x,-y,-z
-x,y,-z
-x,-y,-z
x,y,-z
-x,y,z
x,-y,z
1/2+x,1/2+y,z
1/2-x,1/2-y,z
1/2+x,1/2-y,-z
1/2-x,1/2+y,-z
1/2-x,1/2-y,-z
1/2+x,1/2+y,-z
1/2-x,1/2+y,z
1/2+x,1/2-y,z
loop_
_atom_site_type_symbol
_atom_site_label
_atom_site_fract_x
_atom_site_fract_y
_atom_site_fract_z
Si Si1 0.289443 0.573826 0.691964
Si Si2 0.203476 0.184725 0.909872
Si Si3 0.911933 0.700921 0.286452
Si Si4 0.175131 0.391516 0.822880
Si Si5 0.588236 0.658824 0.776098
Si Si6 0.212796 0.319971 0.591173
Si Si7 0.590460 0.000000 0.087056
O O1 0.304181 0.500000 0.661364
O O2 0.217903 0.571858 0.752001
O O3 0.366552 0.599615 0.734998
O O4 0.269180 0.622024 0.620124
O O5 0.250000 0.250000 0.889966
O O6 0.261635 0.126727 0.888083
O O7 0.125728 0.178690 0.859074
O O8 0.178360 0.180511 0.000000
O O9 0.869831 0.671431 0.210138
O O10 0.908316 0.778991 0.281103
O O11 0.869474 0.676893 0.365123
O O12 0.000000 0.675770 0.290537
O O13 0.113512 0.436682 0.864638
O O14 0.500000 0.636767 0.791131
O O15 0.197227 0.329783 0.500000
O O16 0.250000 0.250000 0.610561
O O17 0.500000 0.000000 0.078421
O O18 0.628042 0.000000 0.000000
#
# Coordination Sequence:
#
# PCOD8268635 Si02
#       7
#    16  16  16  16  16  16   8
#     4  10  20  35  58  81 104 143 180 220 265 321
#     4  10  19  32  52  75 104 140 178 228 284 329
#     4  10  19  33  55  79 106 138 173 222 271 316
#     4  10  19  34  52  76 100 137 183 226 259 322
#     4  10  20  34  54  79 107 140 183 228 270 322
#     4  10  20  35  57  83 109 137 175 220 261 317
#     4  11  22  34  48  72 108 144 178 219 272 332
#
# _framework density 17.216716000000002
#
# number of rings (size 3 to 8) (size 9 to 14) (size 15 to 20)
#    0.000    1.923    3.846    0.923    0.000    1.231 
#    0.000    0.000    0.000    0.462    0.000    5.385 
#    0.000    0.000    0.000    0.000    0.000    0.000 
#
# Total GULP energy -644775.063577 kJ/mol
# GULP energy per Si atom -12399.520453 kJ/mol
# Density = 1.717753 g / cm^3
# Si number density = 17.216716 Si / 1000 Ang^3
#
#
#
# Elastic Constant Matrix: (Units=GPa)
#
#
# Indices 1 2 3 4 5 6 
#
# 1 114.1166 31.8685 48.7878 0.0000 0.0000 0.0000
# 2 31.8685 100.8457 36.3824 0.0000 0.0000 0.0000
# 3 48.7878 36.3824 94.8381 0.0000 0.0000 0.0000
# 4 0.0000 0.0000 0.0000 17.6971 0.0000 0.0000
# 5 0.0000 0.0000 0.0000 0.0000 21.5867 0.0000
# 6 0.0000 0.0000 0.0000 0.0000 0.0000 23.0671
#
#
#
# Elastic Compliance Matrix: (Units=1/GPa)
#
#
# Indices 1 2 3 4 5 6 
#
# 1 0.011491 -0.001739 -0.005244 0.000000 0.000000 0.000000
# 2 -0.001739 0.011772 -0.003621 0.000000 0.000000 0.000000
# 3 -0.005244 -0.003621 0.014631 0.000000 0.000000 0.000000
# 4 0.000000 0.000000 0.000000 0.056507 0.000000 0.000000
# 5 0.000000 0.000000 0.000000 0.000000 0.046325 0.000000
# 6 0.000000 0.000000 0.000000 0.000000 0.000000 0.043352
#
#
# Mechanical properties :
#
#
# Convention : Reuss Voigt Hill
#
# Bulk Modulus (GPa) = 59.93464 60.43090 60.18277
# Shear Modulus (GPa) = 23.71378 25.32097 24.51737
#
# Velocity S-wave (km/s) = 3.71532 3.83916 3.77775
# Velocity P-wave (km/s) = 7.30015 7.40463 7.35258
#
# Compressibility (1/GPa) = 0.01668484
#
# Stress axis : x y z
#
# Youngs Moduli (GPa) = 87.02775 84.94525 68.34722
#
# Poissons Ratio (x) = 0.14775 0.35840
# Poissons Ratio (y) = 0.15137 0.24751
# Poissons Ratio (z) = 0.45636 0.30762
#
# Static dielectric constant tensor:
#      x y z
#    x 3.178470 0.000000 0.000000 
#    y 0.000000 3.131140 0.000000 
#    z 0.000000 0.000000 3.079090 
# 
# 
# High freq. dielectric constant tensor:
#      x y z
#    x 1.662790 0.000000 0.000000 
#    y 0.000000 1.659980 0.000000 
#    z 0.000000 0.000000 1.656070 
# 
# From -- ./inp_files/54587.got.cif
#   From: 2010.03.12/outbox.cif.g09.slc.cpg/sg65_28_cif.got.tgz:54587.got - 2010.04.10 20:52:16.
