data_PCOD8268397
_publ_section_title
;
Structure prediction by ZEFSAII (Michael W. Deem and Ramdas Pophale) SiO2 
 PCOD8268397
Probable space group: C M M M
;
_chemical_formula_sum "Si O2"
_cell_formula_units_Z 120
_cell_length_a 28.178978
_cell_length_b 7.981119
_cell_length_c 28.700423
_cell_angle_alpha 90.000000
_cell_angle_beta 90.000000
_cell_angle_gamma 90.000000
_cell_volume 6454.718724
_symmetry_space_group_name_H-M "C M M M"
_symmetry_group_IT_number 65
_symmetry_cell_setting 'orthorhombic'
loop_
_space_group_symop_operation_xyz
x,y,z
-x,-y,z
x,-y,-z
-x,y,-z
-x,-y,-z
x,y,-z
-x,y,z
x,-y,z
1/2+x,1/2+y,z
1/2-x,1/2-y,z
1/2+x,1/2-y,-z
1/2-x,1/2+y,-z
1/2-x,1/2-y,-z
1/2+x,1/2+y,-z
1/2-x,1/2+y,z
1/2+x,1/2-y,z
loop_
_atom_site_type_symbol
_atom_site_label
_atom_site_fract_x
_atom_site_fract_y
_atom_site_fract_z
Si Si1 0.360966 0.192162 0.694981
Si Si2 0.802597 0.302083 0.883947
Si Si3 0.802280 0.302092 0.778997
Si Si4 0.947338 0.500000 0.944707
Si Si5 0.885563 0.188266 0.945980
Si Si6 0.947184 0.699635 0.362439
Si Si7 0.114652 0.302595 0.552253
Si Si8 0.302187 0.308611 0.611028
O O1 0.340744 0.276202 0.742629
O O2 0.410995 0.272273 0.677156
O O3 0.321675 0.202853 0.654571
O O4 0.370881 0.000000 0.705859
O O5 0.810059 0.500000 0.889314
O O6 0.750000 0.250000 0.898706
O O7 0.813068 0.238753 0.831248
O O8 0.836910 0.202671 0.918083
O O9 0.804915 0.500000 0.777572
O O10 0.750000 0.250000 0.762686
O O11 0.921740 0.330060 0.927089
O O12 0.000000 0.500000 0.923084
O O13 0.949935 0.500000 0.000000
O O14 0.906630 0.000000 0.938910
O O15 0.874191 0.221269 0.000000
O O16 0.948661 0.500000 0.359600
O O17 0.927653 0.754846 0.413166
O O18 0.000000 0.774721 0.355014
O O19 0.100847 0.247020 0.500000
O O20 0.122510 0.500000 0.555841
O O21 0.164037 0.215993 0.566376
O O22 0.301469 0.500000 0.626683
O O23 0.250000 0.250000 0.596793
#
# Coordination Sequence:
#
# PCOD8268397 Si02
#       8
#    16  16  16   8  16  16  16  16
#     4   9  17  31  49  71  97 126 159 201 243 288
#     4  10  19  32  49  72 105 145 183 222 266 321
#     4   9  18  30  47  71  99 132 166 207 249 298
#     4   9  18  34  56  80 106 138 180 234 285 323
#     4  10  20  34  53  79 110 145 186 230 279 333
#     4   8  14  26  47  73  96 119 152 195 238 281
#     4   9  18  32  48  67  92 120 152 191 234 281
#     4  11  21  32  47  67  92 122 155 190 233 284
#
# _framework density 18.591049000000002
#
# number of rings (size 3 to 8) (size 9 to 14) (size 15 to 20)
#    0.000    2.600    0.667    2.800    0.000    3.467 
#    0.000    2.667    0.000    7.200    0.000    3.733 
#    0.000    0.000    0.000    0.000    0.000    0.000 
#
# Total GULP energy -743698.640262 kJ/mol
# GULP energy per Si atom -12394.977338 kJ/mol
# Density = 1.854874 g / cm^3
# Si number density = 18.591049 Si / 1000 Ang^3
#
#
#
# Elastic Constant Matrix: (Units=GPa)
#
#
# Indices 1 2 3 4 5 6 
#
# 1 154.4391 31.4098 64.0709 0.0000 0.0000 0.0000
# 2 31.4098 57.3130 22.1255 0.0000 0.0000 0.0000
# 3 64.0709 22.1255 85.8384 0.0000 0.0000 0.0000
# 4 0.0000 0.0000 0.0000 13.5622 0.0000 0.0000
# 5 0.0000 0.0000 0.0000 0.0000 25.0973 0.0000
# 6 0.0000 0.0000 0.0000 0.0000 0.0000 20.7510
#
#
#
# Elastic Compliance Matrix: (Units=1/GPa)
#
#
# Indices 1 2 3 4 5 6 
#
# 1 0.009774 -0.002821 -0.006568 0.000000 0.000000 0.000000
# 2 -0.002821 0.020190 -0.003099 0.000000 0.000000 0.000000
# 3 -0.006568 -0.003099 0.017351 0.000000 0.000000 0.000000
# 4 0.000000 0.000000 0.000000 0.073734 0.000000 0.000000
# 5 0.000000 0.000000 0.000000 0.000000 0.039845 0.000000
# 6 0.000000 0.000000 0.000000 0.000000 0.000000 0.048191
#
#
# Mechanical properties :
#
#
# Convention : Reuss Voigt Hill
#
# Bulk Modulus (GPa) = 44.76338 59.20032 51.98185
# Shear Modulus (GPa) = 20.70341 23.88105 22.29223
#
# Velocity S-wave (km/s) = 3.34072 3.58794 3.46654
# Velocity P-wave (km/s) = 6.24586 7.00550 6.63656
#
# Compressibility (1/GPa) = 0.02233969
#
# Stress axis : x y z
#
# Youngs Moduli (GPa) = 102.31693 49.52907 57.63360
#
# Poissons Ratio (x) = 0.13971 0.37854
# Poissons Ratio (y) = 0.28861 0.17859
# Poissons Ratio (z) = 0.67202 0.15348
#
# Static dielectric constant tensor:
#      x y z
#    x 3.592110 0.000000 0.000000 
#    y 0.000000 3.309740 0.000000 
#    z 0.000000 0.000000 3.539330 
# 
# 
# High freq. dielectric constant tensor:
#      x y z
#    x 1.711200 0.000000 0.000000 
#    y 0.000000 1.711030 0.000000 
#    z 0.000000 0.000000 1.705920 
# 
# From -- ./inp_files/76112.got.cif
#   From: 2010.03.12/outbox.cif.g09.slc.cpg/sg65_39_cif.got.tgz:76112.got - 2010.04.10 20:52:16.
