data_PCOD8268858
_publ_section_title
;
Structure prediction by ZEFSAII (Michael W. Deem and Ramdas Pophale) SiO2 
 PCOD8268858
Probable space group: C M M M
;
_chemical_formula_sum "Si O2"
_cell_formula_units_Z 72
_cell_length_a 23.728602
_cell_length_b 9.451466
_cell_length_c 20.132345
_cell_angle_alpha 90.000000
_cell_angle_beta 90.000000
_cell_angle_gamma 90.000000
_cell_volume 4515.082524
_symmetry_space_group_name_H-M "C M M M"
_symmetry_group_IT_number 65
_symmetry_cell_setting 'orthorhombic'
loop_
_space_group_symop_operation_xyz
x,y,z
-x,-y,z
x,-y,-z
-x,y,-z
-x,-y,-z
x,y,-z
-x,y,z
x,-y,z
1/2+x,1/2+y,z
1/2-x,1/2-y,z
1/2+x,1/2-y,-z
1/2-x,1/2+y,-z
1/2-x,1/2-y,-z
1/2+x,1/2+y,-z
1/2-x,1/2+y,z
1/2+x,1/2-y,z
loop_
_atom_site_type_symbol
_atom_site_label
_atom_site_fract_x
_atom_site_fract_y
_atom_site_fract_z
Si Si1 0.603875 0.160379 0.109131
Si Si2 0.933086 0.839885 0.624584
Si Si3 0.564962 0.840264 0.749539
Si Si4 0.693273 0.163619 0.000000
Si Si5 0.067240 0.338772 0.500000
Si Si6 0.500000 0.650685 0.075232
O O1 0.608816 0.174963 0.189127
O O2 0.555241 0.263045 0.088779
O O3 0.587027 0.000000 0.090168
O O4 0.659533 0.202848 0.067783
O O5 0.914071 0.767720 0.693354
O O6 0.909416 0.745569 0.564077
O O7 0.000000 0.843296 0.620439
O O8 0.908974 0.000000 0.620760
O O9 0.500000 0.806760 0.772158
O O10 0.567157 0.000000 0.720947
O O11 0.750000 0.250000 0.000000
O O12 0.709446 0.000000 0.000000
O O13 0.090422 0.500000 0.500000
O O14 0.000000 0.341420 0.500000
O O15 0.500000 0.500000 0.115280
O O16 0.500000 0.608919 0.000000
#
# Coordination Sequence:
#
# PCOD8268858 Si02
#       6
#    16  16  16   8   8   8
#     4  10  19  33  51  67  87 120 153 184 225 280
#     4   9  16  24  34  51  78 110 142 178 219 259
#     4   9  16  26  41  61  83 109 143 181 218 262
#     4  10  22  37  54  69  87 116 154 192 231 274
#     4   9  15  23  35  49  69 105 152 189 210 241
#     4  11  21  29  43  71  97 114 137 182 233 273
#
# _framework density 15.946553
#
# number of rings (size 3 to 8) (size 9 to 14) (size 15 to 20)
#    0.000    2.444    2.222    1.333    0.000    6.222 
#    0.000    0.000    0.000    0.000    0.000    0.000 
#    0.000    0.000    0.000    1.000    0.000   12.111 
#
# Total GULP energy -446106.491351 kJ/mol
# GULP energy per Si atom -12391.846982 kJ/mol
# Density = 1.591026 g / cm^3
# Si number density = 15.946553 Si / 1000 Ang^3
#
#
#
# Elastic Constant Matrix: (Units=GPa)
#
#
# Indices 1 2 3 4 5 6 
#
# 1 59.8905 48.3874 33.6707 0.0000 0.0000 0.0000
# 2 48.3874 129.9947 66.6875 0.0000 0.0000 0.0000
# 3 33.6707 66.6875 120.5036 0.0000 0.0000 0.0000
# 4 0.0000 0.0000 0.0000 22.7229 0.0000 0.0000
# 5 0.0000 0.0000 0.0000 0.0000 4.4379 0.0000
# 6 0.0000 0.0000 0.0000 0.0000 0.0000 17.9183
#
#
#
# Elastic Compliance Matrix: (Units=1/GPa)
#
#
# Indices 1 2 3 4 5 6 
#
# 1 0.024407 -0.007801 -0.002503 0.000000 0.000000 0.000000
# 2 -0.007801 0.013236 -0.005145 0.000000 0.000000 0.000000
# 3 -0.002503 -0.005145 0.011845 0.000000 0.000000 0.000000
# 4 0.000000 0.000000 0.000000 0.044009 0.000000 0.000000
# 5 0.000000 0.000000 0.000000 0.000000 0.225330 0.000000
# 6 0.000000 0.000000 0.000000 0.000000 0.000000 0.055809
#
#
# Mechanical properties :
#
#
# Convention : Reuss Voigt Hill
#
# Bulk Modulus (GPa) = 53.79112 67.54220 60.66666
# Shear Modulus (GPa) = 12.14391 19.79204 15.96798
#
# Velocity S-wave (km/s) = 2.76259 3.52682 3.16783
# Velocity P-wave (km/s) = 6.63184 7.68322 7.17681
#
# Compressibility (1/GPa) = 0.01859043
#
# Stress axis : x y z
#
# Youngs Moduli (GPa) = 40.97230 75.55284 84.42348
#
# Poissons Ratio (x) = 0.58939 0.21127
# Poissons Ratio (y) = 0.31963 0.43436
# Poissons Ratio (z) = 0.10253 0.38872
#
# Static dielectric constant tensor:
#      x y z
#    x 2.449060 0.000000 0.000000 
#    y 0.000000 3.278390 0.000000 
#    z 0.000000 0.000000 3.277140 
# 
# 
# High freq. dielectric constant tensor:
#      x y z
#    x 1.526650 0.000000 0.000000 
#    y 0.000000 1.631880 0.000000 
#    z 0.000000 0.000000 1.623940 
# 
# From -- ./inp_files/59547.got.cif
#   From: 2010.03.12/outbox.cif.g09.slc.cpg/sg65_30_cif.got.tgz:59547.got - 2010.04.10 20:52:16.
