data_PCOD8268172
_publ_section_title
;
Structure prediction by ZEFSAII (Michael W. Deem and Ramdas Pophale) SiO2 
 PCOD8268172
Probable space group: C M M M
;
_chemical_formula_sum "Si O2"
_cell_formula_units_Z 88
_cell_length_a 9.114102
_cell_length_b 18.361419
_cell_length_c 28.708823
_cell_angle_alpha 90.000000
_cell_angle_beta 90.000000
_cell_angle_gamma 90.000000
_cell_volume 4804.359680
_symmetry_space_group_name_H-M "C M M M"
_symmetry_group_IT_number 65
_symmetry_cell_setting 'orthorhombic'
loop_
_space_group_symop_operation_xyz
x,y,z
-x,-y,z
x,-y,-z
-x,y,-z
-x,-y,-z
x,y,-z
-x,y,z
x,-y,z
1/2+x,1/2+y,z
1/2-x,1/2-y,z
1/2+x,1/2-y,-z
1/2-x,1/2+y,-z
1/2-x,1/2-y,-z
1/2+x,1/2+y,-z
1/2-x,1/2+y,z
1/2+x,1/2-y,z
loop_
_atom_site_type_symbol
_atom_site_label
_atom_site_fract_x
_atom_site_fract_y
_atom_site_fract_z
Si Si1 0.329088 0.826708 0.170526
Si Si2 0.671383 0.085095 0.918959
Si Si3 0.334563 0.585821 0.447828
Si Si4 0.324441 0.328687 0.000000
Si Si5 0.171406 0.673019 0.628401
Si Si6 0.669198 0.175073 0.728867
O O1 0.500000 0.808963 0.166968
O O2 0.250000 0.750000 0.161693
O O3 0.284452 0.885949 0.132110
O O4 0.289742 0.863011 0.221561
O O5 0.500000 0.099291 0.930294
O O6 0.773142 0.127225 0.954966
O O7 0.708042 0.000000 0.921397
O O8 0.295573 0.612934 0.500000
O O9 0.500000 0.609671 0.435133
O O10 0.318720 0.500000 0.445306
O O11 0.222332 0.619075 0.411480
O O12 0.250000 0.250000 0.000000
O O13 0.500000 0.320408 0.000000
O O14 0.250000 0.750000 0.622962
O O15 0.206655 0.635481 0.679516
O O16 0.000000 0.686669 0.622167
O O17 0.500000 0.194372 0.729255
O O18 0.750000 0.250000 0.728133
#
# Coordination Sequence:
#
# PCOD8268172 Si02
#       6
#    16  16  16   8  16  16
#     4   9  17  31  52  76 101 133 172 210 248 293
#     4  10  21  37  56  79 109 142 173 208 253 302
#     4   9  19  36  54  70  93 128 167 207 254 307
#     4  12  25  40  59  81 105 135 173 216 259 304
#     4  10  19  31  50  76 104 133 166 207 252 298
#     4   8  15  28  46  71 101 131 165 204 247 293
#
# _framework density 18.316697999999999
#
# number of rings (size 3 to 8) (size 9 to 14) (size 15 to 20)
#    0.000    2.545    0.000    2.727    0.000    5.455 
#    0.000    1.818    0.000    3.273    0.000    0.000 
#    0.000    0.000    0.000    0.000    0.000    0.000 
#
# Total GULP energy -545085.199992 kJ/mol
# GULP energy per Si atom -12388.300000 kJ/mol
# Density = 1.827501 g / cm^3
# Si number density = 18.316698 Si / 1000 Ang^3
#
#
#
# Elastic Constant Matrix: (Units=GPa)
#
#
# Indices 1 2 3 4 5 6 
#
# 1 76.0212 40.6437 66.7991 0.0000 0.0000 0.0000
# 2 40.6437 77.4109 62.7691 0.0000 0.0000 0.0000
# 3 66.7991 62.7691 176.4534 0.0000 0.0000 0.0000
# 4 0.0000 0.0000 0.0000 -10.3213 0.0000 0.0000
# 5 0.0000 0.0000 0.0000 0.0000 22.5507 0.0000
# 6 0.0000 0.0000 0.0000 0.0000 0.0000 25.8537
#
#
#
# Elastic Compliance Matrix: (Units=1/GPa)
#
#
# Indices 1 2 3 4 5 6 
#
# 1 0.021949 -0.006727 -0.005916 0.000000 0.000000 0.000000
# 2 -0.006727 0.020216 -0.004645 0.000000 0.000000 0.000000
# 3 -0.005916 -0.004645 0.009559 0.000000 0.000000 0.000000
# 4 0.000000 0.000000 0.000000 -0.096887 0.000000 0.000000
# 5 0.000000 0.000000 0.000000 0.000000 0.044344 0.000000
# 6 0.000000 0.000000 0.000000 0.000000 0.000000 0.038679
#
#
# Mechanical properties :
#
#
# Convention : Reuss Voigt Hill
#
# Bulk Modulus (GPa) = 58.31389 74.47880 66.39635
# Shear Modulus (GPa) = 63.97675 18.26154 41.11915
#
# Velocity S-wave (km/s) = 5.91641 3.16094 4.74318
# Velocity P-wave (km/s) = 8.86439 7.35337 8.14400
#
# Compressibility (1/GPa) = 0.01714857
#
# Stress axis : x y z
#
# Youngs Moduli (GPa) = 45.55964 49.46504 104.61117
#
# Poissons Ratio (x) = 0.33275 0.61891
# Poissons Ratio (y) = 0.30648 0.48591
# Poissons Ratio (z) = 0.26954 0.22976
#
# Static dielectric constant tensor:
#      x y z
#    x 3.404160 0.000000 0.000000 
#    y 0.000000 3.028600 0.000000 
#    z 0.000000 0.000000 4.249180 
# 
# 
# High freq. dielectric constant tensor:
#      x y z
#    x 1.709180 0.000000 0.000000 
#    y 0.000000 1.674760 0.000000 
#    z 0.000000 0.000000 1.740800 
# 
# From -- ./inp_files/76638.got.cif
#   From: 2010.03.12/outbox.cif.g09.slc.cpg/sg65_39_cif.got.tgz:76638.got - 2010.04.10 20:52:16.
