data_PCOD8268253
_publ_section_title
;
Structure prediction by ZEFSAII (Michael W. Deem and Ramdas Pophale) SiO2 
 PCOD8268253
Probable space group: C M M M
;
_chemical_formula_sum "Si O2"
_cell_formula_units_Z 72
_cell_length_a 15.909444
_cell_length_b 8.696936
_cell_length_c 26.240050
_cell_angle_alpha 90.000000
_cell_angle_beta 90.000000
_cell_angle_gamma 90.000000
_cell_volume 3630.662961
_symmetry_space_group_name_H-M "C M M M"
_symmetry_group_IT_number 65
_symmetry_cell_setting 'orthorhombic'
loop_
_space_group_symop_operation_xyz
x,y,z
-x,-y,z
x,-y,-z
-x,y,-z
-x,-y,-z
x,y,-z
-x,y,z
x,-y,z
1/2+x,1/2+y,z
1/2-x,1/2-y,z
1/2+x,1/2-y,-z
1/2-x,1/2+y,-z
1/2-x,1/2-y,-z
1/2+x,1/2+y,-z
1/2-x,1/2+y,z
1/2+x,1/2-y,z
loop_
_atom_site_type_symbol
_atom_site_label
_atom_site_fract_x
_atom_site_fract_y
_atom_site_fract_z
Si Si1 0.837756 0.317740 0.211114
Si Si2 0.000000 0.818021 0.617053
Si Si3 0.159323 0.316730 0.000000
Si Si4 0.162873 0.181603 0.441603
Si Si5 0.592176 0.818034 0.106190
Si Si6 0.000000 0.182080 0.734177
O O1 0.838146 0.500000 0.217679
O O2 0.750000 0.250000 0.232144
O O3 0.845729 0.267291 0.151615
O O4 0.915851 0.250262 0.241706
O O5 0.915914 0.751517 0.590288
O O6 0.000000 0.767577 0.675487
O O7 0.000000 0.000000 0.610573
O O8 0.250000 0.250000 0.000000
O O9 0.116172 0.249762 0.948975
O O10 0.159514 0.500000 0.000000
O O11 0.149897 0.232887 0.500000
O O12 0.250000 0.250000 0.419761
O O13 0.168144 0.000000 0.436255
O O14 0.500000 0.755831 0.120649
O O15 0.591412 0.000000 0.101831
O O16 0.000000 0.000000 0.741263
#
# Coordination Sequence:
#
# PCOD8268253 Si02
#       6
#    16   8   8  16  16   8
#     4  11  22  39  61  84 112 147 189 235 285 341
#     4   9  19  35  56  80 109 145 186 228 273 328
#     4  10  19  31  51  77 107 138 174 216 268 332
#     4   9  17  32  55  82 112 146 182 221 268 324
#     4   9  17  32  55  80 105 138 179 223 272 333
#     4  11  23  40  59  83 113 148 193 242 287 332
#
# _framework density 19.831088999999999
#
# number of rings (size 3 to 8) (size 9 to 14) (size 15 to 20)
#    0.000    2.222    1.111    2.333    0.000    3.556 
#    0.000    6.111    0.000    3.333    0.000    0.000 
#    0.000    0.000    0.000    0.000    0.000    0.000 
#
# Total GULP energy -446280.941437 kJ/mol
# GULP energy per Si atom -12396.692818 kJ/mol
# Density = 1.978595 g / cm^3
# Si number density = 19.831089 Si / 1000 Ang^3
#
#
#
# Elastic Constant Matrix: (Units=GPa)
#
#
# Indices 1 2 3 4 5 6 
#
# 1 196.6310 37.8760 85.6243 0.0000 0.0000 0.0000
# 2 37.8760 43.4642 36.5096 0.0000 0.0000 0.0000
# 3 85.6243 36.5096 130.8980 0.0000 0.0000 0.0000
# 4 0.0000 0.0000 0.0000 20.5774 0.0000 0.0000
# 5 0.0000 0.0000 0.0000 0.0000 23.0347 0.0000
# 6 0.0000 0.0000 0.0000 0.0000 0.0000 34.7407
#
#
#
# Elastic Compliance Matrix: (Units=1/GPa)
#
#
# Indices 1 2 3 4 5 6 
#
# 1 0.007422 -0.003121 -0.003984 0.000000 0.000000 0.000000
# 2 -0.003121 0.031359 -0.006705 0.000000 0.000000 0.000000
# 3 -0.003984 -0.006705 0.012116 0.000000 0.000000 0.000000
# 4 0.000000 0.000000 0.000000 0.048597 0.000000 0.000000
# 5 0.000000 0.000000 0.000000 0.000000 0.043413 0.000000
# 6 0.000000 0.000000 0.000000 0.000000 0.000000 0.028785
#
#
# Mechanical properties :
#
#
# Convention : Reuss Voigt Hill
#
# Bulk Modulus (GPa) = 42.96197 76.77923 59.87060
# Shear Modulus (GPa) = 24.14625 29.73610 26.94118
#
# Velocity S-wave (km/s) = 3.49319 3.87650 3.68983
# Velocity P-wave (km/s) = 6.16286 7.67053 6.95765
#
# Compressibility (1/GPa) = 0.02327640
#
# Stress axis : x y z
#
# Youngs Moduli (GPa) = 134.73749 31.88840 82.53492
#
# Poissons Ratio (x) = 0.09952 0.32885
# Poissons Ratio (y) = 0.42048 0.55342
# Poissons Ratio (z) = 0.53685 0.21382
#
# Static dielectric constant tensor:
#      x y z
#    x 3.828010 0.000000 0.000000 
#    y 0.000000 3.250270 0.000000 
#    z 0.000000 0.000000 4.240600 
# 
# 
# High freq. dielectric constant tensor:
#      x y z
#    x 1.790860 0.000000 0.000000 
#    y 0.000000 1.737400 0.000000 
#    z 0.000000 0.000000 1.775840 
# 
# From -- ./inp_files/74683.got.cif
#   From: 2010.03.12/outbox.cif.g09.slc.cpg/sg65_38_cif.got.tgz:74683.got - 2010.04.10 20:52:16.
