data_PCOD8268942
_publ_section_title
;
Structure prediction by ZEFSAII (Michael W. Deem and Ramdas Pophale) SiO2 
 PCOD8268942
Probable space group: C M M M
;
_chemical_formula_sum "Si O2"
_cell_formula_units_Z 104
_cell_length_a 23.677521
_cell_length_b 8.686524
_cell_length_c 28.560400
_cell_angle_alpha 90.000000
_cell_angle_beta 90.000000
_cell_angle_gamma 90.000000
_cell_volume 5874.170393
_symmetry_space_group_name_H-M "C M M M"
_symmetry_group_IT_number 65
_symmetry_cell_setting 'orthorhombic'
loop_
_space_group_symop_operation_xyz
x,y,z
-x,-y,z
x,-y,-z
-x,y,-z
-x,-y,-z
x,y,-z
-x,y,z
x,-y,z
1/2+x,1/2+y,z
1/2-x,1/2-y,z
1/2+x,1/2-y,-z
1/2-x,1/2+y,-z
1/2-x,1/2-y,-z
1/2+x,1/2+y,-z
1/2-x,1/2+y,z
1/2+x,1/2-y,z
loop_
_atom_site_type_symbol
_atom_site_label
_atom_site_fract_x
_atom_site_fract_y
_atom_site_fract_z
Si Si1 0.000000 0.682018 0.206610
Si Si2 0.891471 0.319526 0.353656
Si Si3 0.000000 0.179623 0.307280
Si Si4 0.615803 0.316294 0.187796
Si Si5 0.811135 0.819523 0.000000
Si Si6 0.311601 0.681437 0.899365
Si Si7 0.063845 0.317472 0.551155
Si Si8 0.312065 0.182178 0.272252
O O1 0.000000 0.775856 0.253910
O O2 0.944206 0.735078 0.179313
O O3 0.000000 0.500000 0.215236
O O4 0.901432 0.500000 0.351336
O O5 0.891866 0.263400 0.408290
O O6 0.834765 0.276528 0.324761
O O7 0.944291 0.243731 0.329855
O O8 0.000000 0.000000 0.313226
O O9 0.609348 0.500000 0.190387
O O10 0.650261 0.257846 0.142759
O O11 0.645995 0.257885 0.234863
O O12 0.750000 0.750000 0.000000
O O13 0.839672 0.770096 0.950218
O O14 0.804012 0.000000 0.000000
O O15 0.305613 0.500000 0.895768
O O16 0.250000 0.750000 0.892986
O O17 0.082832 0.252443 0.500000
O O18 0.063090 0.500000 0.548812
O O19 0.000000 0.259446 0.562797
O O20 0.250000 0.250000 0.266382
O O21 0.310390 0.000000 0.263831
#
# Coordination Sequence:
#
# PCOD8268942 Si02
#       8
#     8  16   8  16   8  16  16  16
#     4  12  24  38  54  74 102 138 175 209 251 306
#     4  10  19  33  53  74 101 135 171 210 254 304
#     4  12  22  32  51  77 103 134 168 206 254 302
#     4  11  22  36  54  78 106 135 170 213 257 306
#     4   8  14  28  48  73 102 133 169 210 254 300
#     4   9  18  31  51  77 106 137 171 211 256 302
#     4   8  13  23  45  76 102 125 161 210 255 298
#     4  11  23  36  52  73 101 138 175 213 256 304
#
# _framework density 17.704626999999999
#
# number of rings (size 3 to 8) (size 9 to 14) (size 15 to 20)
#    0.000    2.000    2.308    3.231    0.000    3.077 
#    0.000    0.000    0.000    1.846    0.000    3.231 
#    0.000    0.000    0.000    0.000    0.000    0.154 
#
# Total GULP energy -644220.635613 kJ/mol
# GULP energy per Si atom -12388.858377 kJ/mol
# Density = 1.766433 g / cm^3
# Si number density = 17.704627 Si / 1000 Ang^3
#
#
#
# Elastic Constant Matrix: (Units=GPa)
#
#
# Indices 1 2 3 4 5 6 
#
# 1 103.2093 44.6248 60.6967 0.0000 0.0000 0.0000
# 2 44.6248 125.6425 63.2677 0.0000 0.0000 0.0000
# 3 60.6967 63.2677 167.7891 0.0000 0.0000 0.0000
# 4 0.0000 0.0000 0.0000 12.0206 0.0000 0.0000
# 5 0.0000 0.0000 0.0000 0.0000 43.3056 0.0000
# 6 0.0000 0.0000 0.0000 0.0000 0.0000 16.0311
#
#
#
# Elastic Compliance Matrix: (Units=1/GPa)
#
#
# Indices 1 2 3 4 5 6 
#
# 1 0.013053 -0.002788 -0.003671 0.000000 0.000000 0.000000
# 2 -0.002788 0.010420 -0.002921 0.000000 0.000000 0.000000
# 3 -0.003671 -0.002921 0.008389 0.000000 0.000000 0.000000
# 4 0.000000 0.000000 0.000000 0.083190 0.000000 0.000000
# 5 0.000000 0.000000 0.000000 0.000000 0.023092 0.000000
# 6 0.000000 0.000000 0.000000 0.000000 0.000000 0.062379
#
#
# Mechanical properties :
#
#
# Convention : Reuss Voigt Hill
#
# Bulk Modulus (GPa) = 76.31273 81.53547 78.92410
# Shear Modulus (GPa) = 22.35649 29.47490 25.91570
#
# Velocity S-wave (km/s) = 3.55737 4.08464 3.83009
# Velocity P-wave (km/s) = 7.75049 8.27036 8.01464
#
# Compressibility (1/GPa) = 0.01310397
#
# Stress axis : x y z
#
# Youngs Moduli (GPa) = 76.61008 95.97059 119.20408
#
# Poissons Ratio (x) = 0.26754 0.43757
# Poissons Ratio (y) = 0.21357 0.34814
# Poissons Ratio (z) = 0.28122 0.28029
#
# Static dielectric constant tensor:
#      x y z
#    x 3.264110 0.000000 0.000000 
#    y 0.000000 3.247220 0.000000 
#    z 0.000000 0.000000 4.044150 
# 
# 
# High freq. dielectric constant tensor:
#      x y z
#    x 1.654850 0.000000 0.000000 
#    y 0.000000 1.675850 0.000000 
#    z 0.000000 0.000000 1.702230 
# 
# From -- ./inp_files/75809.got.cif
#   From: 2010.03.12/outbox.cif.g09.slc.cpg/sg65_38_cif.got.tgz:75809.got - 2010.04.10 20:52:16.
