data_PCOD8268235
_publ_section_title
;
Structure prediction by ZEFSAII (Michael W. Deem and Ramdas Pophale) SiO2 
 PCOD8268235
Probable space group: C M M M
;
_chemical_formula_sum "Si O2"
_cell_formula_units_Z 96
_cell_length_a 17.012057
_cell_length_b 25.710100
_cell_length_c 12.362443
_cell_angle_alpha 90.000000
_cell_angle_beta 90.000000
_cell_angle_gamma 90.000000
_cell_volume 5407.106171
_symmetry_space_group_name_H-M "C M M M"
_symmetry_group_IT_number 65
_symmetry_cell_setting 'orthorhombic'
loop_
_space_group_symop_operation_xyz
x,y,z
-x,-y,z
x,-y,-z
-x,y,-z
-x,-y,-z
x,y,-z
-x,y,z
x,-y,z
1/2+x,1/2+y,z
1/2-x,1/2-y,z
1/2+x,1/2-y,-z
1/2-x,1/2+y,-z
1/2-x,1/2-y,-z
1/2+x,1/2+y,-z
1/2-x,1/2+y,z
1/2+x,1/2-y,z
loop_
_atom_site_type_symbol
_atom_site_label
_atom_site_fract_x
_atom_site_fract_y
_atom_site_fract_z
Si Si1 0.179164 0.942542 0.313223
Si Si2 0.742654 0.310487 0.500000
Si Si3 0.410737 0.413583 0.882076
Si Si4 0.904867 0.881534 0.500000
Si Si5 0.408546 0.191515 0.123595
Si Si6 0.784571 0.349138 0.273655
Si Si7 0.154799 0.804236 0.124030
O O1 0.133600 0.949926 0.201599
O O2 0.119128 0.914859 0.395576
O O3 0.256015 0.908660 0.285609
O O4 0.203641 0.000000 0.355830
O O5 0.750000 0.250000 0.500000
O O6 0.650569 0.329679 0.500000
O O7 0.790832 0.329247 0.395739
O O8 0.500000 0.430463 0.880050
O O9 0.404266 0.352079 0.855042
O O10 0.373701 0.424354 0.000000
O O11 0.000000 0.869618 0.500000
O O12 0.500000 0.181805 0.138478
O O13 0.366750 0.152816 0.209246
O O14 0.389811 0.251303 0.153347
O O15 0.382739 0.179066 0.000000
O O16 0.727950 0.311534 0.203991
O O17 0.185287 0.803064 0.000000
#
# Coordination Sequence:
#
# PCOD8268235 Si02
#       7
#    16   8  16   8  16  16  16
#     4  10  21  35  51  70  94 130 172 211 253 298
#     4  10  20  35  51  72 107 145 174 196 235 301
#     4   9  17  28  42  65  99 131 158 193 237 291
#     4  10  21  36  56  81 106 132 170 218 255 285
#     4  10  19  31  51  77 101 126 162 211 261 307
#     4  10  20  34  50  70  99 133 169 207 248 300
#     4   9  16  28  48  72  98 130 164 196 242 304
#
# _framework density 17.754413
#
# number of rings (size 3 to 8) (size 9 to 14) (size 15 to 20)
#    0.000    2.333    0.000    3.250    0.000    6.000 
#    0.000    7.917    0.000    0.500    0.000    1.167 
#    0.000    4.000    0.000    0.000    0.000    0.000 
#
# Total GULP energy -594889.140654 kJ/mol
# GULP energy per Si atom -12393.523764 kJ/mol
# Density = 1.771400 g / cm^3
# Si number density = 17.754413 Si / 1000 Ang^3
#
#
#
# Elastic Constant Matrix: (Units=GPa)
#
#
# Indices 1 2 3 4 5 6 
#
# 1 83.2839 41.4919 44.4267 0.0000 0.0000 0.0000
# 2 41.4919 97.9149 37.0519 0.0000 0.0000 0.0000
# 3 44.4267 37.0519 114.8848 0.0000 0.0000 0.0000
# 4 0.0000 0.0000 0.0000 10.7346 0.0000 0.0000
# 5 0.0000 0.0000 0.0000 0.0000 29.3488 0.0000
# 6 0.0000 0.0000 0.0000 0.0000 0.0000 10.7261
#
#
#
# Elastic Compliance Matrix: (Units=1/GPa)
#
#
# Indices 1 2 3 4 5 6 
#
# 1 0.017385 -0.005493 -0.004951 0.000000 0.000000 0.000000
# 2 -0.005493 0.013368 -0.002187 0.000000 0.000000 0.000000
# 3 -0.004951 -0.002187 0.011324 0.000000 0.000000 0.000000
# 4 0.000000 0.000000 0.000000 0.093157 0.000000 0.000000
# 5 0.000000 0.000000 0.000000 0.000000 0.034073 0.000000
# 6 0.000000 0.000000 0.000000 0.000000 0.000000 0.093231
#
#
# Mechanical properties :
#
#
# Convention : Reuss Voigt Hill
#
# Bulk Modulus (GPa) = 59.47301 60.22497 59.84899
# Shear Modulus (GPa) = 17.04120 21.70277 19.37199
#
# Velocity S-wave (km/s) = 3.10147 3.50006 3.30678
# Velocity P-wave (km/s) = 6.81145 7.09427 6.95430
#
# Compressibility (1/GPa) = 0.01681435
#
# Stress axis : x y z
#
# Youngs Moduli (GPa) = 57.52054 74.80294 88.30467
#
# Poissons Ratio (x) = 0.41092 0.43722
# Poissons Ratio (y) = 0.31598 0.19314
# Poissons Ratio (z) = 0.28480 0.16361
#
# Static dielectric constant tensor:
#      x y z
#    x 3.144320 0.000000 0.000000 
#    y 0.000000 3.179020 0.000000 
#    z 0.000000 0.000000 3.465650 
# 
# 
# High freq. dielectric constant tensor:
#      x y z
#    x 1.654520 0.000000 0.000000 
#    y 0.000000 1.672090 0.000000 
#    z 0.000000 0.000000 1.704070 
# 
# From -- ./inp_files/27170.got.cif
#   From: 2010.03.12/outbox.cif.g09.slc.cpg/sg65_14_cif.got.tgz:27170.got - 2010.04.10 20:52:16.
