data_PCOD8268448
_publ_section_title
;
Structure prediction by ZEFSAII (Michael W. Deem and Ramdas Pophale) SiO2 
 PCOD8268448
Probable space group: C M M M
;
_chemical_formula_sum "Si O2"
_cell_formula_units_Z 96
_cell_length_a 30.204854
_cell_length_b 19.626544
_cell_length_c 9.340168
_cell_angle_alpha 90.000000
_cell_angle_beta 90.000000
_cell_angle_gamma 90.000000
_cell_volume 5537.009402
_symmetry_space_group_name_H-M "C M M M"
_symmetry_group_IT_number 65
_symmetry_cell_setting 'orthorhombic'
loop_
_space_group_symop_operation_xyz
x,y,z
-x,-y,z
x,-y,-z
-x,y,-z
-x,-y,-z
x,y,-z
-x,y,z
x,-y,z
1/2+x,1/2+y,z
1/2-x,1/2-y,z
1/2+x,1/2-y,-z
1/2-x,1/2+y,-z
1/2-x,1/2-y,-z
1/2+x,1/2+y,-z
1/2-x,1/2+y,z
1/2+x,1/2-y,z
loop_
_atom_site_type_symbol
_atom_site_label
_atom_site_fract_x
_atom_site_fract_y
_atom_site_fract_z
Si Si1 0.671972 0.075486 0.663832
Si Si2 0.552516 0.428144 0.159953
Si Si3 0.125838 0.289227 0.667231
Si Si4 0.297103 0.283997 0.834781
Si Si5 0.759466 0.924397 0.165262
Si Si6 0.948881 0.780850 0.829886
O O1 0.687187 0.078739 0.500000
O O2 0.633897 0.130552 0.694352
O O3 0.714826 0.094629 0.753793
O O4 0.653902 0.000000 0.703584
O O5 0.500000 0.425295 0.150980
O O6 0.567154 0.500000 0.238541
O O7 0.567286 0.356052 0.228827
O O8 0.572025 0.430933 0.000000
O O9 0.121849 0.271814 0.500000
O O10 0.165713 0.245459 0.731924
O O11 0.079910 0.274314 0.746705
O O12 0.250000 0.250000 0.798659
O O13 0.295322 0.365511 0.803225
O O14 0.309961 0.269937 0.000000
O O15 0.777424 0.000000 0.209714
O O16 0.746369 0.923187 0.000000
O O17 0.000000 0.767140 0.792131
O O18 0.941197 0.775946 0.000000
#
# Coordination Sequence:
#
# PCOD8268448 Si02
#       6
#    16  16  16  16  16  16
#     4   9  18  32  49  70  96 126 162 202 243 292
#     4   7  10  20  42  70  93 114 149 196 239 279
#     4  11  22  33  50  75 101 131 165 202 247 299
#     4  10  19  32  50  73 101 131 162 201 245 288
#     4   9  17  30  49  72  98 130 167 204 242 284
#     4   9  18  33  53  75  99 129 165 207 253 296
#
# _framework density 17.337879999999998
#
# number of rings (size 3 to 8) (size 9 to 14) (size 15 to 20)
#    0.000    2.833    1.667    2.000    0.000    2.000 
#    0.000    0.833    0.000    6.000    0.000    5.833 
#    0.000    0.000    0.000    0.000    0.000    0.000 
#
# Total GULP energy -594642.481174 kJ/mol
# GULP energy per Si atom -12388.385024 kJ/mol
# Density = 1.729842 g / cm^3
# Si number density = 17.337880 Si / 1000 Ang^3
#
#
#
# Elastic Constant Matrix: (Units=GPa)
#
#
# Indices 1 2 3 4 5 6 
#
# 1 75.1317 50.3858 42.7622 0.0000 0.0000 0.0000
# 2 50.3858 117.9813 46.0223 0.0000 0.0000 0.0000
# 3 42.7622 46.0223 58.0041 0.0000 0.0000 0.0000
# 4 0.0000 0.0000 0.0000 22.3393 0.0000 0.0000
# 5 0.0000 0.0000 0.0000 0.0000 365.7463 0.0000
# 6 0.0000 0.0000 0.0000 0.0000 0.0000 21.2604
#
#
#
# Elastic Compliance Matrix: (Units=1/GPa)
#
#
# Indices 1 2 3 4 5 6 
#
# 1 0.024825 -0.005015 -0.014323 0.000000 0.000000 0.000000
# 2 -0.005015 0.013288 -0.006846 0.000000 0.000000 0.000000
# 3 -0.014323 -0.006846 0.033231 0.000000 0.000000 0.000000
# 4 0.000000 0.000000 0.000000 0.044764 0.000000 0.000000
# 5 0.000000 0.000000 0.000000 0.000000 0.002734 0.000000
# 6 0.000000 0.000000 0.000000 0.000000 0.000000 0.047036
#
#
# Mechanical properties :
#
#
# Convention : Reuss Voigt Hill
#
# Bulk Modulus (GPa) = 52.69560 58.82863 55.76211
# Shear Modulus (GPa) = 22.26461 89.33233 55.79847
#
# Velocity S-wave (km/s) = 3.58741 7.18584 5.67916
# Velocity P-wave (km/s) = 6.90062 10.14163 8.67385
#
# Compressibility (1/GPa) = 0.01897692
#
# Stress axis : x y z
#
# Youngs Moduli (GPa) = 40.28180 75.25488 30.09218
#
# Poissons Ratio (x) = 0.37740 0.43100
# Poissons Ratio (y) = 0.20201 0.20601
# Poissons Ratio (z) = 0.57695 0.51520
#
# Static dielectric constant tensor:
#      x y z
#    x 2.876340 0.000000 0.000000 
#    y 0.000000 3.858770 0.000000 
#    z 0.000000 0.000000 3.051310 
# 
# 
# High freq. dielectric constant tensor:
#      x y z
#    x 1.630860 0.000000 0.000000 
#    y 0.000000 1.690370 0.000000 
#    z 0.000000 0.000000 1.646410 
# 
# From -- ./inp_files/16355.got.cif
#   From: 2010.03.12/outbox.cif.g09.slc.cpg/sg65_9_cif.got.tgz:16355.got - 2010.04.10 20:52:16.
