data_PCOD8268091
_publ_section_title
;
Structure prediction by ZEFSAII (Michael W. Deem and Ramdas Pophale) SiO2 
 PCOD8268091
Probable space group: C M M M
;
_chemical_formula_sum "Si O2"
_cell_formula_units_Z 88
_cell_length_a 23.482374
_cell_length_b 16.308400
_cell_length_c 13.016327
_cell_angle_alpha 90.000000
_cell_angle_beta 90.000000
_cell_angle_gamma 90.000000
_cell_volume 4984.731913
_symmetry_space_group_name_H-M "C M M M"
_symmetry_group_IT_number 65
_symmetry_cell_setting 'orthorhombic'
loop_
_space_group_symop_operation_xyz
x,y,z
-x,-y,z
x,-y,-z
-x,y,-z
-x,-y,-z
x,y,-z
-x,y,z
x,-y,z
1/2+x,1/2+y,z
1/2-x,1/2-y,z
1/2+x,1/2-y,-z
1/2-x,1/2+y,-z
1/2-x,1/2-y,-z
1/2+x,1/2+y,-z
1/2-x,1/2+y,z
1/2+x,1/2-y,z
loop_
_atom_site_type_symbol
_atom_site_label
_atom_site_fract_x
_atom_site_fract_y
_atom_site_fract_z
Si Si1 0.126463 0.905637 0.383851
Si Si2 0.566815 0.000000 0.747865
Si Si3 0.567811 0.409181 0.000000
Si Si4 0.247278 0.343224 0.382686
Si Si5 0.676290 0.000000 0.621992
Si Si6 0.566960 0.152161 0.885651
Si Si7 0.567307 0.680255 0.200527
O O1 0.105902 0.887842 0.500000
O O2 0.191914 0.884562 0.371485
O O3 0.090065 0.849744 0.308891
O O4 0.116366 0.000000 0.354877
O O5 0.583446 0.925684 0.820468
O O6 0.500000 0.000000 0.712751
O O7 0.609035 0.000000 0.650594
O O8 0.592249 0.369336 0.896452
O O9 0.591200 0.500000 0.000000
O O10 0.500000 0.402662 0.000000
O O11 0.228524 0.329650 0.500000
O O12 0.250000 0.250000 0.331913
O O13 0.204706 0.413873 0.335365
O O14 0.683140 0.000000 0.500000
O O15 0.500000 0.160032 0.900796
O O16 0.589220 0.227942 0.818322
O O17 0.594756 0.149408 0.000000
O O18 0.500000 0.672557 0.205235
#
# Coordination Sequence:
#
# PCOD8268091 Si02
#       7
#    16   8   8  16   8  16  16
#     4  10  20  34  51  74 107 140 176 223 267 319
#     4  10  21  33  52  85 113 141 176 212 274 339
#     4   9  16  28  46  69  96 127 173 222 260 310
#     4   9  18  34  55  75  97 133 183 227 259 302
#     4  10  20  36  57  82 111 143 180 223 270 319
#     4   9  17  33  53  75 104 137 179 226 264 315
#     4  10  19  31  49  76 106 138 177 221 270 321
#
# _framework density 17.653908999999999
#
# number of rings (size 3 to 8) (size 9 to 14) (size 15 to 20)
#    0.000    2.455    1.818    0.818    2.545    2.727 
#    0.000    0.909    0.000    3.273    4.727    1.909 
#    0.000    0.000    0.000    0.000    0.000    0.000 
#
# Total GULP energy -545098.597342 kJ/mol
# GULP energy per Si atom -12388.604485 kJ/mol
# Density = 1.761373 g / cm^3
# Si number density = 17.653909 Si / 1000 Ang^3
#
#
#
# Elastic Constant Matrix: (Units=GPa)
#
#
# Indices 1 2 3 4 5 6 
#
# 1 45.5761 35.3467 25.7134 0.0000 0.0000 0.0000
# 2 35.3467 159.2869 53.2432 0.0000 0.0000 0.0000
# 3 25.7134 53.2432 73.6781 0.0000 0.0000 0.0000
# 4 0.0000 0.0000 0.0000 44.3943 0.0000 0.0000
# 5 0.0000 0.0000 0.0000 0.0000 3.6702 0.0000
# 6 0.0000 0.0000 0.0000 0.0000 0.0000 22.2158
#
#
#
# Elastic Compliance Matrix: (Units=1/GPa)
#
#
# Indices 1 2 3 4 5 6 
#
# 1 0.029175 -0.004049 -0.007256 0.000000 0.000000 0.000000
# 2 -0.004049 0.008839 -0.004975 0.000000 0.000000 0.000000
# 3 -0.007256 -0.004975 0.019700 0.000000 0.000000 0.000000
# 4 0.000000 0.000000 0.000000 0.022525 0.000000 0.000000
# 5 0.000000 0.000000 0.000000 0.000000 0.272467 0.000000
# 6 0.000000 0.000000 0.000000 0.000000 0.000000 0.045013
#
#
# Mechanical properties :
#
#
# Convention : Reuss Voigt Hill
#
# Bulk Modulus (GPa) = 39.75345 56.34976 48.05160
# Shear Modulus (GPa) = 11.39825 25.00524 18.20175
#
# Velocity S-wave (km/s) = 2.54372 3.76761 3.21445
# Velocity P-wave (km/s) = 5.58520 7.13547 6.40739
#
# Compressibility (1/GPa) = 0.02515505
#
# Stress axis : x y z
#
# Youngs Moduli (GPa) = 34.27574 113.13199 50.76167
#
# Poissons Ratio (x) = 0.45803 0.36834
# Poissons Ratio (y) = 0.13877 0.25252
# Poissons Ratio (z) = 0.24871 0.56279
#
# Static dielectric constant tensor:
#      x y z
#    x 2.978610 0.000000 0.000000 
#    y 0.000000 3.761790 0.000000 
#    z 0.000000 0.000000 3.220650 
# 
# 
# High freq. dielectric constant tensor:
#      x y z
#    x 1.640380 0.000000 0.000000 
#    y 0.000000 1.709700 0.000000 
#    z 0.000000 0.000000 1.663950 
# 
# From -- ./inp_files/32283.got.cif
#   From: 2010.03.12/outbox.cif.g09.slc.cpg/sg65_17_cif.got.tgz:32283.got - 2010.04.10 20:52:16.
