data_PCOD8268764
_publ_section_title
;
Structure prediction by ZEFSAII (Michael W. Deem and Ramdas Pophale) SiO2 
 PCOD8268764
Probable space group: C M M M
;
_chemical_formula_sum "Si O2"
_cell_formula_units_Z 72
_cell_length_a 8.715318
_cell_length_b 18.082682
_cell_length_c 23.649286
_cell_angle_alpha 90.000000
_cell_angle_beta 90.000000
_cell_angle_gamma 90.000000
_cell_volume 3727.040537
_symmetry_space_group_name_H-M "C M M M"
_symmetry_group_IT_number 65
_symmetry_cell_setting 'orthorhombic'
loop_
_space_group_symop_operation_xyz
x,y,z
-x,-y,z
x,-y,-z
-x,y,-z
-x,-y,-z
x,y,-z
-x,y,z
x,-y,z
1/2+x,1/2+y,z
1/2-x,1/2-y,z
1/2+x,1/2-y,-z
1/2-x,1/2+y,-z
1/2-x,1/2-y,-z
1/2+x,1/2+y,-z
1/2-x,1/2+y,z
1/2+x,1/2-y,z
loop_
_atom_site_type_symbol
_atom_site_label
_atom_site_fract_x
_atom_site_fract_y
_atom_site_fract_z
Si Si1 0.322172 0.086567 0.785819
Si Si2 0.679614 0.670065 0.559608
Si Si3 0.317333 0.583068 0.000000
Si Si4 0.318801 0.330756 0.109596
Si Si5 0.817786 0.168104 0.317451
O O1 0.500000 0.107514 0.791196
O O2 0.228268 0.127552 0.833989
O O3 0.259510 0.111841 0.725483
O O4 0.293601 0.000000 0.792282
O O5 0.727193 0.627889 0.500000
O O6 0.500000 0.680942 0.560368
O O7 0.750000 0.750000 0.557622
O O8 0.726010 0.634240 0.620012
O O9 0.254906 0.624714 0.944525
O O10 0.250622 0.500000 0.000000
O O11 0.500000 0.581187 0.000000
O O12 0.500000 0.324335 0.107426
O O13 0.250000 0.250000 0.108839
O O14 0.750000 0.250000 0.308920
O O15 0.000000 0.171356 0.307570
#
# Coordination Sequence:
#
# PCOD8268764 Si02
#       5
#    16  16   8  16  16
#     4  11  24  40  56  76 105 140 180 226 273 320
#     4   8  14  25  43  70 102 133 167 210 259 310
#     4   9  19  36  59  87 116 147 182 219 260 308
#     4  11  22  38  61  86 114 145 180 221 264 314
#     4  10  19  32  53  79 107 139 176 218 265 319
#
# _framework density 19.318276000000001
#
# number of rings (size 3 to 8) (size 9 to 14) (size 15 to 20)
#    0.000    2.111    0.000    3.667    0.000    3.556 
#    0.000    1.667    0.000    4.667    0.000    4.667 
#    0.000    0.000    0.000    0.000    0.000    0.000 
#
# Total GULP energy -446065.151711 kJ/mol
# GULP energy per Si atom -12390.698659 kJ/mol
# Density = 1.927431 g / cm^3
# Si number density = 19.318276 Si / 1000 Ang^3
#
#
#
# Elastic Constant Matrix: (Units=GPa)
#
#
# Indices 1 2 3 4 5 6 
#
# 1 53.0987 34.4955 31.3075 0.0000 0.0000 0.0000
# 2 34.4955 90.6807 61.3167 0.0000 0.0000 0.0000
# 3 31.3075 61.3167 180.3930 0.0000 0.0000 0.0000
# 4 0.0000 0.0000 0.0000 5.9086 0.0000 0.0000
# 5 0.0000 0.0000 0.0000 0.0000 -39.7802 0.0000
# 6 0.0000 0.0000 0.0000 0.0000 0.0000 -3.3707
#
#
#
# Elastic Compliance Matrix: (Units=1/GPa)
#
#
# Indices 1 2 3 4 5 6 
#
# 1 0.025305 -0.008643 -0.001454 0.000000 0.000000 0.000000
# 2 -0.008643 0.017271 -0.004370 0.000000 0.000000 0.000000
# 3 -0.001454 -0.004370 0.007281 0.000000 0.000000 0.000000
# 4 0.000000 0.000000 0.000000 0.169245 0.000000 0.000000
# 5 0.000000 0.000000 0.000000 0.000000 -0.025138 0.000000
# 6 0.000000 0.000000 0.000000 0.000000 0.000000 -0.296673
#
#
# Mechanical properties :
#
#
# Convention : Reuss Voigt Hill
#
# Bulk Modulus (GPa) = 47.79582 64.26797 56.03190
# Shear Modulus (GPa) = -74.85089 5.68839 -34.58125
#
# Velocity S-wave (km/s) = -6.23139 1.71783 -4.23552
# Velocity P-wave (km/s) = 5.19411 6.10531 2.26893
#
# Compressibility (1/GPa) = 0.02092233
#
# Stress axis : x y z
#
# Youngs Moduli (GPa) = 39.51773 57.90118 137.33794
#
# Poissons Ratio (x) = 0.50045 0.19967
# Poissons Ratio (y) = 0.34156 0.60022
# Poissons Ratio (z) = 0.05745 0.25305
#
# Static dielectric constant tensor:
#      x y z
#    x 3.533360 0.000000 0.000000 
#    y 0.000000 3.279870 0.000000 
#    z 0.000000 0.000000 4.358140 
# 
# 
# High freq. dielectric constant tensor:
#      x y z
#    x 1.750480 0.000000 0.000000 
#    y 0.000000 1.720980 0.000000 
#    z 0.000000 0.000000 1.787350 
# 
# From -- ./inp_files/66976.got.cif
#   From: 2010.03.12/outbox.cif.g09.slc.cpg/sg65_34_cif.got.tgz:66976.got - 2010.04.10 20:52:16.
