data_PCOD8268777
_publ_section_title
;
Structure prediction by ZEFSAII (Michael W. Deem and Ramdas Pophale) SiO2 
 PCOD8268777
Probable space group: C M M M
;
_chemical_formula_sum "Si O2"
_cell_formula_units_Z 104
_cell_length_a 28.511777
_cell_length_b 8.972741
_cell_length_c 22.660707
_cell_angle_alpha 90.000000
_cell_angle_beta 90.000000
_cell_angle_gamma 90.000000
_cell_volume 5797.261263
_symmetry_space_group_name_H-M "C M M M"
_symmetry_group_IT_number 65
_symmetry_cell_setting 'orthorhombic'
loop_
_space_group_symop_operation_xyz
x,y,z
-x,-y,z
x,-y,-z
-x,y,-z
-x,-y,-z
x,y,-z
-x,y,z
x,-y,z
1/2+x,1/2+y,z
1/2-x,1/2-y,z
1/2+x,1/2-y,-z
1/2-x,1/2+y,-z
1/2-x,1/2-y,-z
1/2+x,1/2+y,-z
1/2-x,1/2+y,z
1/2+x,1/2-y,z
loop_
_atom_site_type_symbol
_atom_site_label
_atom_site_fract_x
_atom_site_fract_y
_atom_site_fract_z
Si Si1 0.448992 0.823141 0.777745
Si Si2 0.800033 0.825021 0.500000
Si Si3 0.947246 0.326182 0.643743
Si Si4 0.857112 0.176023 0.614702
Si Si5 0.144759 0.325984 0.835391
Si Si6 0.201804 0.826208 0.932173
Si Si7 0.299968 0.174491 0.282582
O O1 0.500000 0.770861 0.802688
O O2 0.443217 0.767313 0.710876
O O3 0.406668 0.762406 0.817971
O O4 0.446454 0.000000 0.776188
O O5 0.750000 0.750000 0.500000
O O6 0.828204 0.773156 0.442420
O O7 0.792364 0.000000 0.500000
O O8 0.934237 0.500000 0.639486
O O9 0.910645 0.230541 0.605290
O O10 0.000000 0.298429 0.619894
O O11 0.836502 0.256866 0.671812
O O12 0.855454 0.000000 0.623916
O O13 0.142709 0.500000 0.850661
O O14 0.159550 0.237109 0.893439
O O15 0.181321 0.294611 0.783007
O O16 0.250000 0.750000 0.912201
O O17 0.207559 0.000000 0.920676
O O18 0.190141 0.789663 0.000000
O O19 0.250000 0.250000 0.290974
O O20 0.295148 0.000000 0.295418
#
# Coordination Sequence:
#
# PCOD8268777 Si02
#       7
#    16   8  16  16  16  16  16
#     4   8  14  28  51  78 107 137 169 208 256 307
#     4  10  24  42  57  76 101 139 184 225 267 316
#     4   9  17  33  57  82 109 140 174 215 264 317
#     4  11  22  37  56  78 106 139 178 222 268 319
#     4  10  19  32  53  80 107 136 172 214 262 312
#     4  10  21  36  53  74 103 140 180 220 261 308
#     4  11  22  35  51  77 109 138 172 215 269 321
#
# _framework density 17.939506000000002
#
# number of rings (size 3 to 8) (size 9 to 14) (size 15 to 20)
#    0.000    2.154    1.538    3.231    0.000    6.154 
#    0.000    0.385    0.000    3.231    0.000    3.231 
#    0.000    0.000    0.000    0.000    0.000    0.000 
#
# Total GULP energy -644816.223014 kJ/mol
# GULP energy per Si atom -12400.311981 kJ/mol
# Density = 1.789867 g / cm^3
# Si number density = 17.939506 Si / 1000 Ang^3
#
#
#
# Elastic Constant Matrix: (Units=GPa)
#
#
# Indices 1 2 3 4 5 6 
#
# 1 144.9346 45.7906 48.6997 0.0000 0.0000 0.0000
# 2 45.7906 64.4523 39.2805 0.0000 0.0000 0.0000
# 3 48.6997 39.2805 76.4454 0.0000 0.0000 0.0000
# 4 0.0000 0.0000 0.0000 24.0591 0.0000 0.0000
# 5 0.0000 0.0000 0.0000 0.0000 27.0878 0.0000
# 6 0.0000 0.0000 0.0000 0.0000 0.0000 30.5874
#
#
#
# Elastic Compliance Matrix: (Units=1/GPa)
#
#
# Indices 1 2 3 4 5 6 
#
# 1 0.009600 -0.004503 -0.003802 0.000000 0.000000 0.000000
# 2 -0.004503 0.024702 -0.009824 0.000000 0.000000 0.000000
# 3 -0.003802 -0.009824 0.020551 0.000000 0.000000 0.000000
# 4 0.000000 0.000000 0.000000 0.041564 0.000000 0.000000
# 5 0.000000 0.000000 0.000000 0.000000 0.036917 0.000000
# 6 0.000000 0.000000 0.000000 0.000000 0.000000 0.032693
#
#
# Mechanical properties :
#
#
# Convention : Reuss Voigt Hill
#
# Bulk Modulus (GPa) = 53.77793 61.48599 57.63196
# Shear Modulus (GPa) = 23.98272 26.48429 25.23351
#
# Velocity S-wave (km/s) = 3.66028 3.84645 3.75452
# Velocity P-wave (km/s) = 6.92142 7.35360 7.14078
#
# Compressibility (1/GPa) = 0.01859499
#
# Stress axis : x y z
#
# Youngs Moduli (GPa) = 104.16834 40.48250 48.65963
#
# Poissons Ratio (x) = 0.18231 0.18498
# Poissons Ratio (y) = 0.46911 0.47803
# Poissons Ratio (z) = 0.39600 0.39770
#
# Static dielectric constant tensor:
#      x y z
#    x 3.636860 0.000000 0.000000 
#    y 0.000000 3.157440 0.000000 
#    z 0.000000 0.000000 3.205260 
# 
# 
# High freq. dielectric constant tensor:
#      x y z
#    x 1.707880 0.000000 0.000000 
#    y 0.000000 1.682740 0.000000 
#    z 0.000000 0.000000 1.675330 
# 
# From -- ./inp_files/60831.got.cif
#   From: 2010.03.12/outbox.cif.g09.slc.cpg/sg65_31_cif.got.tgz:60831.got - 2010.04.10 20:52:16.
