data_PCOD8268750
_publ_section_title
;
Structure prediction by ZEFSAII (Michael W. Deem and Ramdas Pophale) SiO2 
 PCOD8268750
Probable space group: C M M M
;
_chemical_formula_sum "Si O2"
_cell_formula_units_Z 104
_cell_length_a 23.830825
_cell_length_b 26.336100
_cell_length_c 8.831405
_cell_angle_alpha 90.000000
_cell_angle_beta 90.000000
_cell_angle_gamma 90.000000
_cell_volume 5542.686838
_symmetry_space_group_name_H-M "C M M M"
_symmetry_group_IT_number 65
_symmetry_cell_setting 'orthorhombic'
loop_
_space_group_symop_operation_xyz
x,y,z
-x,-y,z
x,-y,-z
-x,y,-z
-x,-y,-z
x,y,-z
-x,y,z
x,-y,z
1/2+x,1/2+y,z
1/2-x,1/2-y,z
1/2+x,1/2-y,-z
1/2-x,1/2+y,-z
1/2-x,1/2-y,-z
1/2+x,1/2+y,-z
1/2-x,1/2+y,z
1/2+x,1/2-y,z
loop_
_atom_site_type_symbol
_atom_site_label
_atom_site_fract_x
_atom_site_fract_y
_atom_site_fract_z
Si Si1 0.437116 0.705176 0.179504
Si Si2 0.061861 0.500000 0.679602
Si Si3 0.250038 0.058756 0.819439
Si Si4 0.135146 0.406657 0.678884
Si Si5 0.938761 0.059277 0.665483
Si Si6 0.355498 0.379847 0.173288
Si Si7 0.435624 0.178925 0.823154
O O1 0.500000 0.691206 0.241139
O O2 0.386392 0.669896 0.248267
O O3 0.423322 0.763026 0.222073
O O4 0.438028 0.698116 0.000000
O O5 0.058381 0.500000 0.500000
O O6 0.093570 0.450313 0.737641
O O7 0.000000 0.500000 0.751971
O O8 0.306479 0.084056 0.760892
O O9 0.201936 0.097380 0.754930
O O10 0.242894 0.000000 0.760829
O O11 0.249197 0.058162 0.000000
O O12 0.144698 0.408540 0.500000
O O13 0.107914 0.353415 0.725217
O O14 0.914670 0.076195 0.500000
O O15 0.900169 0.075473 0.804725
O O16 0.000000 0.083907 0.688575
O O17 0.944409 0.000000 0.670941
O O18 0.343456 0.368043 0.000000
O O19 0.500000 0.164717 0.782737
O O20 0.424405 0.169627 0.000000
#
# Coordination Sequence:
#
# PCOD8268750 Si02
#       7
#    16   8  16  16  16  16  16
#     4   8  15  30  53  80 108 136 170 215 265 316
#     4   9  18  32  51  77 105 127 156 205 258 307
#     4  10  21  36  52  73 106 142 177 221 267 312
#     4  11  21  35  55  78 105 139 176 214 259 309
#     4   9  18  31  45  66 100 137 169 210 269 328
#     4  10  19  32  53  78 100 132 180 227 266 303
#     4   9  18  34  56  81 109 139 168 205 260 320
#
# _framework density 18.763463000000002
#
# number of rings (size 3 to 8) (size 9 to 14) (size 15 to 20)
#    0.000    2.538    0.769    3.231    0.000    3.385 
#    0.000    2.308    0.000    7.385    0.000    0.000 
#    0.000    0.000    0.000    0.000    0.000    0.000 
#
# Total GULP energy -644182.132187 kJ/mol
# GULP energy per Si atom -12388.117927 kJ/mol
# Density = 1.872076 g / cm^3
# Si number density = 18.763463 Si / 1000 Ang^3
#
#
#
# Elastic Constant Matrix: (Units=GPa)
#
#
# Indices 1 2 3 4 5 6 
#
# 1 143.6322 80.7501 10.9261 0.0000 0.0000 0.0000
# 2 80.7501 117.4070 15.0983 0.0000 0.0000 0.0000
# 3 10.9261 15.0983 6.9684 0.0000 0.0000 0.0000
# 4 0.0000 0.0000 0.0000 19.1162 0.0000 0.0000
# 5 0.0000 0.0000 0.0000 0.0000 15.5400 0.0000
# 6 0.0000 0.0000 0.0000 0.0000 0.0000 4.4119
#
#
#
# Elastic Compliance Matrix: (Units=1/GPa)
#
#
# Indices 1 2 3 4 5 6 
#
# 1 0.011359 -0.007655 -0.001224 0.000000 0.000000 0.000000
# 2 -0.007655 0.016966 -0.024757 0.000000 0.000000 0.000000
# 3 -0.001224 -0.024757 0.199066 0.000000 0.000000 0.000000
# 4 0.000000 0.000000 0.000000 0.052312 0.000000 0.000000
# 5 0.000000 0.000000 0.000000 0.000000 0.064350 0.000000
# 6 0.000000 0.000000 0.000000 0.000000 0.000000 0.226658
#
#
# Mechanical properties :
#
#
# Convention : Reuss Voigt Hill
#
# Bulk Modulus (GPa) = 6.24541 53.50629 29.87585
# Shear Modulus (GPa) = 7.23215 18.56248 12.89731
#
# Velocity S-wave (km/s) = 1.96539 3.14871 2.62461
# Velocity P-wave (km/s) = 2.91308 6.46508 5.01415
#
# Compressibility (1/GPa) = 0.16011747
#
# Stress axis : x y z
#
# Youngs Moduli (GPa) = 88.03548 58.94112 5.02346
#
# Poissons Ratio (x) = 0.45120 0.00615
# Poissons Ratio (y) = 0.67392 0.12437
# Poissons Ratio (z) = 0.10780 1.45922
#
# Static dielectric constant tensor:
#      x y z
#    x 3.644320 0.000000 0.000000 
#    y 0.000000 3.573630 0.000000 
#    z 0.000000 0.000000 3.186040 
# 
# 
# High freq. dielectric constant tensor:
#      x y z
#    x 1.729610 0.000000 0.000000 
#    y 0.000000 1.730240 0.000000 
#    z 0.000000 0.000000 1.695230 
# 
# From -- ./inp_files/12762.got.cif
#   From: 2010.03.12/outbox.cif.g09.slc.cpg/sg65_7_cif.got.tgz:12762.got - 2010.04.10 20:52:16.
