data_PCOD8268757
_publ_section_title
;
Structure prediction by ZEFSAII (Michael W. Deem and Ramdas Pophale) SiO2 
 PCOD8268757
Probable space group: C M M M
;
_chemical_formula_sum "Si O2"
_cell_formula_units_Z 104
_cell_length_a 24.417734
_cell_length_b 8.810761
_cell_length_c 26.272814
_cell_angle_alpha 90.000000
_cell_angle_beta 90.000000
_cell_angle_gamma 90.000000
_cell_volume 5652.302161
_symmetry_space_group_name_H-M "C M M M"
_symmetry_group_IT_number 65
_symmetry_cell_setting 'orthorhombic'
loop_
_space_group_symop_operation_xyz
x,y,z
-x,-y,z
x,-y,-z
-x,y,-z
-x,-y,-z
x,y,-z
-x,y,z
x,-y,z
1/2+x,1/2+y,z
1/2-x,1/2-y,z
1/2+x,1/2-y,-z
1/2-x,1/2+y,-z
1/2-x,1/2-y,-z
1/2+x,1/2+y,-z
1/2-x,1/2+y,z
1/2+x,1/2-y,z
loop_
_atom_site_type_symbol
_atom_site_label
_atom_site_fract_x
_atom_site_fract_y
_atom_site_fract_z
Si Si1 0.500000 0.820713 0.714186
Si Si2 0.083859 0.179524 0.639628
Si Si3 0.806225 0.675783 0.218334
Si Si4 0.382237 0.676614 0.139681
Si Si5 0.500000 0.321215 0.556126
Si Si6 0.500000 0.325685 0.177464
Si Si7 0.806924 0.321577 0.941630
Si Si8 0.693885 0.175619 0.337635
O O1 0.554507 0.754162 0.688240
O O2 0.500000 0.781396 0.773509
O O3 0.500000 0.000000 0.707521
O O4 0.053450 0.229131 0.587741
O O5 0.145177 0.239404 0.633577
O O6 0.082697 0.000000 0.647752
O O7 0.805464 0.500000 0.203203
O O8 0.750000 0.750000 0.198940
O O9 0.856446 0.758089 0.191312
O O10 0.813977 0.701489 0.277891
O O11 0.368690 0.500000 0.135543
O O12 0.447187 0.707859 0.142390
O O13 0.357843 0.759586 0.090475
O O14 0.500000 0.500000 0.549712
O O15 0.500000 0.244288 0.500000
O O16 0.500000 0.500000 0.196410
O O17 0.802603 0.500000 0.934112
O O18 0.750000 0.250000 0.921969
O O19 0.817565 0.275685 0.000000
O O20 0.750000 0.250000 0.356861
O O21 0.693943 0.000000 0.352384
#
# Coordination Sequence:
#
# PCOD8268757 Si02
#       8
#     8  16  16  16   8   8  16  16
#     4  11  21  33  52  77 106 140 178 219 258 301
#     4  10  19  32  53  78 105 138 174 216 264 310
#     4  10  20  33  50  74 103 136 171 208 251 297
#     4  11  22  36  54  75 102 135 170 209 251 299
#     4   8  16  32  54  79 103 130 169 216 266 315
#     4  10  23  39  53  73 104 143 180 210 248 299
#     4  10  21  38  60  83 104 127 159 203 254 305
#     4  10  20  33  50  74 106 142 178 214 254 306
#
# _framework density 18.399581999999999
#
# number of rings (size 3 to 8) (size 9 to 14) (size 15 to 20)
#    0.000    1.923    0.000    4.846    0.000    6.462 
#    0.000    0.385    0.000   11.077    0.000    0.000 
#    0.000    0.000    0.000    0.000    0.000    0.000 
#
# Total GULP energy -644987.037884 kJ/mol
# GULP energy per Si atom -12403.596882 kJ/mol
# Density = 1.835770 g / cm^3
# Si number density = 18.399582 Si / 1000 Ang^3
#
#
#
# Elastic Constant Matrix: (Units=GPa)
#
#
# Indices 1 2 3 4 5 6 
#
# 1 161.9519 61.6019 54.9737 0.0000 0.0000 0.0000
# 2 61.6019 110.2058 41.4263 0.0000 0.0000 0.0000
# 3 54.9737 41.4263 86.9851 0.0000 0.0000 0.0000
# 4 0.0000 0.0000 0.0000 16.8703 0.0000 0.0000
# 5 0.0000 0.0000 0.0000 0.0000 18.6249 0.0000
# 6 0.0000 0.0000 0.0000 0.0000 0.0000 33.0651
#
#
#
# Elastic Compliance Matrix: (Units=1/GPa)
#
#
# Indices 1 2 3 4 5 6 
#
# 1 0.008823 -0.003454 -0.003931 0.000000 0.000000 0.000000
# 2 -0.003454 0.012405 -0.003725 0.000000 0.000000 0.000000
# 3 -0.003931 -0.003725 0.015754 0.000000 0.000000 0.000000
# 4 0.000000 0.000000 0.000000 0.059276 0.000000 0.000000
# 5 0.000000 0.000000 0.000000 0.000000 0.053692 0.000000
# 6 0.000000 0.000000 0.000000 0.000000 0.000000 0.030243
#
#
# Mechanical properties :
#
#
# Convention : Reuss Voigt Hill
#
# Bulk Modulus (GPa) = 67.73941 75.01629 71.37785
# Shear Modulus (GPa) = 24.11577 27.12147 25.61862
#
# Velocity S-wave (km/s) = 3.62424 3.84347 3.73547
# Velocity P-wave (km/s) = 7.37626 7.78174 7.58171
#
# Compressibility (1/GPa) = 0.01476246
#
# Stress axis : x y z
#
# Youngs Moduli (GPa) = 113.34204 80.61394 63.47408
#
# Poissons Ratio (x) = 0.27845 0.24951
# Poissons Ratio (y) = 0.39149 0.23643
# Poissons Ratio (z) = 0.44554 0.30027
#
# Static dielectric constant tensor:
#      x y z
#    x 3.412660 0.000000 0.000000 
#    y 0.000000 3.428840 0.000000 
#    z 0.000000 0.000000 3.296750 
# 
# 
# High freq. dielectric constant tensor:
#      x y z
#    x 1.719510 0.000000 0.000000 
#    y 0.000000 1.722710 0.000000 
#    z 0.000000 0.000000 1.690250 
# 
# From -- ./inp_files/78415.got.cif
#   From: 2010.03.12/outbox.cif.g09.slc.cpg/sg65_40_cif.got.tgz:78415.got - 2010.04.10 20:52:16.
