data_PCOD8268684
_publ_section_title
;
Structure prediction by ZEFSAII (Michael W. Deem and Ramdas Pophale) SiO2 
 PCOD8268684
Probable space group: C M M M
;
_chemical_formula_sum "Si O2"
_cell_formula_units_Z 120
_cell_length_a 26.669489
_cell_length_b 8.955604
_cell_length_c 27.641952
_cell_angle_alpha 90.000000
_cell_angle_beta 90.000000
_cell_angle_gamma 90.000000
_cell_volume 6602.042027
_symmetry_space_group_name_H-M "C M M M"
_symmetry_group_IT_number 65
_symmetry_cell_setting 'orthorhombic'
loop_
_space_group_symop_operation_xyz
x,y,z
-x,-y,z
x,-y,-z
-x,y,-z
-x,-y,-z
x,y,-z
-x,y,z
x,-y,z
1/2+x,1/2+y,z
1/2-x,1/2-y,z
1/2+x,1/2-y,-z
1/2-x,1/2+y,-z
1/2-x,1/2-y,-z
1/2+x,1/2+y,-z
1/2-x,1/2+y,z
1/2+x,1/2-y,z
loop_
_atom_site_type_symbol
_atom_site_label
_atom_site_fract_x
_atom_site_fract_y
_atom_site_fract_z
Si Si1 0.799396 0.826470 0.228356
Si Si2 0.400894 0.177295 0.609021
Si Si3 0.648962 0.175082 0.140765
Si Si4 0.603110 0.328080 0.288999
Si Si5 0.500000 0.822177 0.445351
Si Si6 0.302548 0.325671 0.055331
Si Si7 0.943999 0.330039 0.797200
Si Si8 0.698946 0.175507 0.444142
O O1 0.750000 0.750000 0.250291
O O2 0.811682 0.744574 0.178215
O O3 0.841484 0.800442 0.268565
O O4 0.790921 0.000000 0.217472
O O5 0.404324 0.231422 0.663568
O O6 0.449784 0.238642 0.580771
O O7 0.349609 0.237613 0.584488
O O8 0.400821 0.000000 0.607967
O O9 0.654765 0.252833 0.088743
O O10 0.592916 0.212118 0.158976
O O11 0.659200 0.000000 0.136029
O O12 0.593186 0.500000 0.301233
O O13 0.563406 0.275739 0.248917
O O14 0.500000 0.761093 0.500000
O O15 0.500000 0.000000 0.444859
O O16 0.297850 0.500000 0.066187
O O17 0.250000 0.250000 0.068276
O O18 0.317851 0.294283 0.000000
O O19 0.933912 0.500000 0.780350
O O20 0.000000 0.308126 0.817127
O O21 0.690942 0.218645 0.500000
O O22 0.750000 0.250000 0.423916
O O23 0.704635 0.000000 0.436957
#
# Coordination Sequence:
#
# PCOD8268684 Si02
#       8
#    16  16  16  16   8  16  16  16
#     4  10  20  34  51  71 100 137 174 210 250 300
#     4  10  20  34  54  78 103 132 167 209 255 305
#     4  10  19  32  52  77 103 133 171 215 261 306
#     4  10  22  36  50  74 105 135 166 204 253 304
#     4   9  18  34  57  81 101 127 167 211 252 299
#     4  10  20  33  50  74 106 142 177 213 254 303
#     4   9  19  36  57  77  99 130 171 215 255 302
#     4   9  18  33  53  76 101 131 168 209 252 301
#
# _framework density 18.176193999999999
#
# number of rings (size 3 to 8) (size 9 to 14) (size 15 to 20)
#    0.000    2.333    0.000    2.400    0.933    5.867 
#    0.000    2.667    0.000    2.000    0.000    2.800 
#    0.000    0.000    0.000    0.000    0.000    0.000 
#
# Total GULP energy -744127.778460 kJ/mol
# GULP energy per Si atom -12402.129641 kJ/mol
# Density = 1.813482 g / cm^3
# Si number density = 18.176194 Si / 1000 Ang^3
#
#
#
# Elastic Constant Matrix: (Units=GPa)
#
#
# Indices 1 2 3 4 5 6 
#
# 1 135.7435 41.2846 61.5051 0.0000 0.0000 0.0000
# 2 41.2846 58.2829 37.9295 0.0000 0.0000 0.0000
# 3 61.5051 37.9295 112.8071 0.0000 0.0000 0.0000
# 4 0.0000 0.0000 0.0000 28.7042 0.0000 0.0000
# 5 0.0000 0.0000 0.0000 0.0000 17.1316 0.0000
# 6 0.0000 0.0000 0.0000 0.0000 0.0000 25.2351
#
#
#
# Elastic Compliance Matrix: (Units=1/GPa)
#
#
# Indices 1 2 3 4 5 6 
#
# 1 0.010766 -0.004872 -0.004232 0.000000 0.000000 0.000000
# 2 -0.004872 0.024169 -0.005470 0.000000 0.000000 0.000000
# 3 -0.004232 -0.005470 0.013011 0.000000 0.000000 0.000000
# 4 0.000000 0.000000 0.000000 0.034838 0.000000 0.000000
# 5 0.000000 0.000000 0.000000 0.000000 0.058372 0.000000
# 6 0.000000 0.000000 0.000000 0.000000 0.000000 0.039627
#
#
# Mechanical properties :
#
#
# Convention : Reuss Voigt Hill
#
# Bulk Modulus (GPa) = 53.19661 65.36355 59.28008
# Shear Modulus (GPa) = 23.12712 25.28846 24.20779
#
# Velocity S-wave (km/s) = 3.57092 3.73405 3.65340
# Velocity P-wave (km/s) = 6.80681 7.39121 7.10502
#
# Compressibility (1/GPa) = 0.01879819
#
# Stress axis : x y z
#
# Youngs Moduli (GPa) = 92.88489 41.37602 76.85765
#
# Poissons Ratio (x) = 0.20159 0.32524
# Poissons Ratio (y) = 0.45255 0.42040
# Poissons Ratio (z) = 0.39306 0.22632
#
# Static dielectric constant tensor:
#      x y z
#    x 3.484230 0.000000 0.000000 
#    y 0.000000 3.321790 0.000000 
#    z 0.000000 0.000000 3.261680 
# 
# 
# High freq. dielectric constant tensor:
#      x y z
#    x 1.705730 0.000000 0.000000 
#    y 0.000000 1.701430 0.000000 
#    z 0.000000 0.000000 1.696290 
# 
# From -- ./inp_files/76168.got.cif
#   From: 2010.03.12/outbox.cif.g09.slc.cpg/sg65_39_cif.got.tgz:76168.got - 2010.04.10 20:52:16.
