data_PCOD8268655
_publ_section_title
;
Structure prediction by ZEFSAII (Michael W. Deem and Ramdas Pophale) SiO2 
 PCOD8268655
Probable space group: C M M M
;
_chemical_formula_sum "Si O2"
_cell_formula_units_Z 104
_cell_length_a 9.853814
_cell_length_b 28.729385
_cell_length_c 20.179547
_cell_angle_alpha 90.000000
_cell_angle_beta 90.000000
_cell_angle_gamma 90.000000
_cell_volume 5712.709004
_symmetry_space_group_name_H-M "C M M M"
_symmetry_group_IT_number 65
_symmetry_cell_setting 'orthorhombic'
loop_
_space_group_symop_operation_xyz
x,y,z
-x,-y,z
x,-y,-z
-x,y,-z
-x,-y,-z
x,y,-z
-x,y,z
x,-y,z
1/2+x,1/2+y,z
1/2-x,1/2-y,z
1/2+x,1/2-y,-z
1/2-x,1/2+y,-z
1/2-x,1/2-y,-z
1/2+x,1/2+y,-z
1/2-x,1/2+y,z
1/2+x,1/2-y,z
loop_
_atom_site_type_symbol
_atom_site_label
_atom_site_fract_x
_atom_site_fract_y
_atom_site_fract_z
Si Si1 0.839129 0.947038 0.500000
Si Si2 0.158499 0.106530 0.369695
Si Si3 0.843018 0.792719 0.176157
Si Si4 0.654093 0.629435 0.926256
Si Si5 0.154712 0.207708 0.671058
Si Si6 0.845442 0.552940 0.727553
Si Si7 0.653239 0.947130 0.881886
O O1 0.787840 0.918487 0.436161
O O2 0.000000 0.948909 0.500000
O O3 0.780619 0.000000 0.500000
O O4 0.183689 0.162164 0.373773
O O5 0.241729 0.086579 0.308699
O O6 0.000000 0.096167 0.357239
O O7 0.750000 0.750000 0.155022
O O8 0.795305 0.834606 0.129261
O O9 0.816863 0.806159 0.252625
O O10 0.000000 0.779805 0.163561
O O11 0.500000 0.614633 0.911056
O O12 0.745210 0.583684 0.924258
O O13 0.666326 0.651441 0.000000
O O14 0.250000 0.250000 0.647305
O O15 0.000000 0.224541 0.662179
O O16 0.821543 0.500000 0.703972
O O17 0.813847 0.557714 0.804621
O O18 0.000000 0.567937 0.711853
O O19 0.500000 0.930687 0.896221
O O20 0.672903 0.000000 0.905112
#
# Coordination Sequence:
#
# PCOD8268655 Si02
#       7
#     8  16  16  16  16  16  16
#     4   9  18  32  50  75 107 139 171 207 244 285
#     4  10  19  32  52  76 102 135 173 208 244 290
#     4   9  18  33  51  72  98 126 159 202 251 299
#     4  10  21  35  50  71 100 131 164 205 250 296
#     4   9  18  32  51  74  98 126 163 207 252 296
#     4   9  18  32  50  74 102 129 161 206 257 302
#     4   9  19  35  52  71  97 129 166 208 252 299
#
# _framework density 18.205024000000002
#
# number of rings (size 3 to 8) (size 9 to 14) (size 15 to 20)
#    0.000    2.692    0.000    2.308    0.000    5.231 
#    0.000    6.923    0.000    1.385    0.000    0.000 
#    0.000    0.000    0.000    0.000    0.000    0.000 
#
# Total GULP energy -644795.360208 kJ/mol
# GULP energy per Si atom -12399.910773 kJ/mol
# Density = 1.816359 g / cm^3
# Si number density = 18.205024 Si / 1000 Ang^3
#
#
#
# Elastic Constant Matrix: (Units=GPa)
#
#
# Indices 1 2 3 4 5 6 
#
# 1 62.7451 51.2440 26.8299 0.0000 0.0000 0.0000
# 2 51.2440 111.5982 46.1582 0.0000 0.0000 0.0000
# 3 26.8299 46.1582 56.8620 0.0000 0.0000 0.0000
# 4 0.0000 0.0000 0.0000 23.3343 0.0000 0.0000
# 5 0.0000 0.0000 0.0000 0.0000 16.7228 0.0000
# 6 0.0000 0.0000 0.0000 0.0000 0.0000 35.8397
#
#
#
# Elastic Compliance Matrix: (Units=1/GPa)
#
#
# Indices 1 2 3 4 5 6 
#
# 1 0.026059 -0.010358 -0.003888 0.000000 0.000000 0.000000
# 2 -0.010358 0.017607 -0.009405 0.000000 0.000000 0.000000
# 3 -0.003888 -0.009405 0.027056 0.000000 0.000000 0.000000
# 4 0.000000 0.000000 0.000000 0.042855 0.000000 0.000000
# 5 0.000000 0.000000 0.000000 0.000000 0.059798 0.000000
# 6 0.000000 0.000000 0.000000 0.000000 0.000000 0.027902
#
#
# Mechanical properties :
#
#
# Convention : Reuss Voigt Hill
#
# Bulk Modulus (GPa) = 42.69861 53.29660 47.99760
# Shear Modulus (GPa) = 19.50181 22.31092 20.90636
#
# Velocity S-wave (km/s) = 3.27652 3.50456 3.39246
# Velocity P-wave (km/s) = 6.14974 6.76131 6.46276
#
# Compressibility (1/GPa) = 0.02341997
#
# Stress axis : x y z
#
# Youngs Moduli (GPa) = 38.37408 56.79536 36.96084
#
# Poissons Ratio (x) = 0.58828 0.14369
# Poissons Ratio (y) = 0.39748 0.34763
# Poissons Ratio (z) = 0.14919 0.53418
#
# Static dielectric constant tensor:
#      x y z
#    x 3.258250 0.000000 0.000000 
#    y 0.000000 3.345090 0.000000 
#    z 0.000000 0.000000 3.287290 
# 
# 
# High freq. dielectric constant tensor:
#      x y z
#    x 1.697860 0.000000 0.000000 
#    y 0.000000 1.702100 0.000000 
#    z 0.000000 0.000000 1.695780 
# 
# From -- ./inp_files/60438.got.cif
#   From: 2010.03.12/outbox.cif.g09.slc.cpg/sg65_31_cif.got.tgz:60438.got - 2010.04.10 20:52:16.
