data_PCOD8268829
_publ_section_title
;
Structure prediction by ZEFSAII (Michael W. Deem and Ramdas Pophale) SiO2 
 PCOD8268829
Probable space group: C M M M
;
_chemical_formula_sum "Si O2"
_cell_formula_units_Z 64
_cell_length_a 20.707867
_cell_length_b 13.882715
_cell_length_c 12.009734
_cell_angle_alpha 90.000000
_cell_angle_beta 90.000000
_cell_angle_gamma 90.000000
_cell_volume 3452.575334
_symmetry_space_group_name_H-M "C M M M"
_symmetry_group_IT_number 65
_symmetry_cell_setting 'orthorhombic'
loop_
_space_group_symop_operation_xyz
x,y,z
-x,-y,z
x,-y,-z
-x,y,-z
-x,-y,-z
x,y,-z
-x,y,z
x,-y,z
1/2+x,1/2+y,z
1/2-x,1/2-y,z
1/2+x,1/2-y,-z
1/2-x,1/2+y,-z
1/2-x,1/2-y,-z
1/2+x,1/2+y,-z
1/2-x,1/2+y,z
1/2+x,1/2-y,z
loop_
_atom_site_type_symbol
_atom_site_label
_atom_site_fract_x
_atom_site_fract_y
_atom_site_fract_z
Si Si1 0.834810 0.112971 0.000000
Si Si2 0.425357 0.183124 0.239974
Si Si3 0.927047 0.714973 0.000000
Si Si4 0.621725 0.000000 0.367895
Si Si5 0.691886 0.679537 0.761876
Si Si6 0.770091 0.000000 0.369064
O O1 0.795989 0.140981 0.112136
O O2 0.897863 0.178275 0.000000
O O3 0.852367 0.000000 0.000000
O O4 0.500000 0.216406 0.254929
O O5 0.410255 0.153225 0.110760
O O6 0.413034 0.093786 0.319914
O O7 0.377091 0.271291 0.264421
O O8 0.000000 0.744092 0.000000
O O9 0.695769 0.000000 0.329745
O O10 0.613529 0.000000 0.500000
O O11 0.750000 0.750000 0.731551
O O12 0.693277 0.592298 0.676675
O O13 0.775277 0.000000 0.500000
#
# Coordination Sequence:
#
# PCOD8268829 Si02
#       6
#     8  16   8   8  16   8
#     4  10  19  32  57  86 115 144 186 241 287 336
#     4  10  21  38  60  87 119 152 190 238 289 344
#     4   8  18  35  54  83 119 153 186 222 286 356
#     4  11  23  39  59  85 116 154 199 243 287 340
#     4  11  21  39  60  86 118 152 190 237 290 347
#     4  11  24  40  60  87 114 153 202 240 287 342
#
# _framework density 18.536887
#
# number of rings (size 3 to 8) (size 9 to 14) (size 15 to 20)
#    0.000    1.750    3.750    0.750    0.000    3.250 
#    0.000    3.750    0.000    0.750    0.000    0.000 
#    0.000    0.000    0.000    0.000    0.000    0.000 
#
# Total GULP energy -396635.006057 kJ/mol
# GULP energy per Si atom -12394.843939 kJ/mol
# Density = 1.849470 g / cm^3
# Si number density = 18.536887 Si / 1000 Ang^3
#
#
#
# Elastic Constant Matrix: (Units=GPa)
#
#
# Indices 1 2 3 4 5 6 
#
# 1 114.4436 49.5595 47.8345 0.0000 0.0000 0.0000
# 2 49.5595 115.2281 58.9805 0.0000 0.0000 0.0000
# 3 47.8345 58.9805 86.4508 0.0000 0.0000 0.0000
# 4 0.0000 0.0000 0.0000 14.9054 0.0000 0.0000
# 5 0.0000 0.0000 0.0000 0.0000 25.4278 0.0000
# 6 0.0000 0.0000 0.0000 0.0000 0.0000 35.3132
#
#
#
# Elastic Compliance Matrix: (Units=1/GPa)
#
#
# Indices 1 2 3 4 5 6 
#
# 1 0.011883 -0.002682 -0.004745 0.000000 0.000000 0.000000
# 2 -0.002682 0.013941 -0.008027 0.000000 0.000000 0.000000
# 3 -0.004745 -0.008027 0.019669 0.000000 0.000000 0.000000
# 4 0.000000 0.000000 0.000000 0.067090 0.000000 0.000000
# 5 0.000000 0.000000 0.000000 0.000000 0.039327 0.000000
# 6 0.000000 0.000000 0.000000 0.000000 0.000000 0.028318
#
#
# Mechanical properties :
#
#
# Convention : Reuss Voigt Hill
#
# Bulk Modulus (GPa) = 68.56619 69.87461 69.22040
# Shear Modulus (GPa) = 23.14848 25.77914 24.46381
#
# Velocity S-wave (km/s) = 3.53764 3.73325 3.63676
# Velocity P-wave (km/s) = 7.33184 7.50730 7.42009
#
# Compressibility (1/GPa) = 0.01458445
#
# Stress axis : x y z
#
# Youngs Moduli (GPa) = 84.15621 71.73306 50.84094
#
# Poissons Ratio (x) = 0.19238 0.24125
# Poissons Ratio (y) = 0.22570 0.40810
# Poissons Ratio (z) = 0.39933 0.57580
#
# Static dielectric constant tensor:
#      x y z
#    x 3.479500 0.000000 0.000000 
#    y 0.000000 3.311870 0.000000 
#    z 0.000000 0.000000 3.635050 
# 
# 
# High freq. dielectric constant tensor:
#      x y z
#    x 1.720270 0.000000 0.000000 
#    y 0.000000 1.711880 0.000000 
#    z 0.000000 0.000000 1.727590 
# 
# From -- ./inp_files/26146.got.cif
#   From: 2010.03.12/outbox.cif.g09.slc.cpg/sg65_14_cif.got.tgz:26146.got - 2010.04.10 20:52:16.
