data_PCOD8268355
_publ_section_title
;
Structure prediction by ZEFSAII (Michael W. Deem and Ramdas Pophale) SiO2 
 PCOD8268355
Probable space group: C M M M
;
_chemical_formula_sum "Si O2"
_cell_formula_units_Z 112
_cell_length_a 34.181679
_cell_length_b 14.244173
_cell_length_c 13.847767
_cell_angle_alpha 90.000000
_cell_angle_beta 90.000000
_cell_angle_gamma 90.000000
_cell_volume 6742.335800
_symmetry_space_group_name_H-M "C M M M"
_symmetry_group_IT_number 65
_symmetry_cell_setting 'orthorhombic'
loop_
_space_group_symop_operation_xyz
x,y,z
-x,-y,z
x,-y,-z
-x,y,-z
-x,-y,-z
x,y,-z
-x,y,z
x,-y,z
1/2+x,1/2+y,z
1/2-x,1/2-y,z
1/2+x,1/2-y,-z
1/2-x,1/2+y,-z
1/2-x,1/2-y,-z
1/2+x,1/2+y,-z
1/2-x,1/2+y,z
1/2+x,1/2-y,z
loop_
_atom_site_type_symbol
_atom_site_label
_atom_site_fract_x
_atom_site_fract_y
_atom_site_fract_z
Si Si1 0.144343 0.893970 0.815019
Si Si2 0.728791 0.610477 0.891008
Si Si3 0.042831 0.605961 0.885253
Si Si4 0.691922 0.111492 0.790480
Si Si5 0.881627 0.291988 0.888832
Si Si6 0.791739 0.719598 0.607349
Si Si7 0.653978 0.604022 0.603602
O O1 0.190311 0.865060 0.827165
O O2 0.118861 0.820764 0.876011
O O3 0.129700 0.884995 0.703213
O O4 0.137408 0.000000 0.854191
O O5 0.733710 0.500000 0.896970
O O6 0.768443 0.650553 0.841844
O O7 0.724119 0.651625 0.000000
O O8 0.050677 0.500000 0.849917
O O9 0.077486 0.671128 0.843419
O O10 0.000000 0.639890 0.847225
O O11 0.042683 0.610035 0.000000
O O12 0.654693 0.158259 0.839225
O O13 0.690441 0.142169 0.678697
O O14 0.688554 0.000000 0.797776
O O15 0.879437 0.319180 0.000000
O O16 0.790416 0.674602 0.500000
O O17 0.750000 0.750000 0.646402
O O18 0.813998 0.817105 0.604654
O O19 0.630237 0.612006 0.500000
O O20 0.673755 0.500000 0.608141
#
# Coordination Sequence:
#
# PCOD8268355 Si02
#       7
#    16  16  16  16  16  16  16
#     4  10  19  32  48  68  95 125 161 200 239 284
#     4   9  18  31  44  58  84 127 168 197 228 273
#     4   8  15  30  51  72  95 125 161 199 236 277
#     4  11  22  33  46  67  95 125 162 208 252 286
#     4  11  21  31  48  73  99 129 163 200 241 286
#     4  10  20  33  48  65  87 119 161 203 248 297
#     4   9  17  31  50  66  82 110 153 202 242 277
#
# _framework density 16.611453999999998
#
# number of rings (size 3 to 8) (size 9 to 14) (size 15 to 20)
#    0.000    2.286    1.429    2.571    0.000    4.286 
#    0.000    2.857    0.000    0.429    0.000    2.000 
#    0.000    2.286    0.000   11.429    0.000    0.571 
#
# Total GULP energy -693766.230920 kJ/mol
# GULP energy per Si atom -12388.682695 kJ/mol
# Density = 1.657365 g / cm^3
# Si number density = 16.611454 Si / 1000 Ang^3
#
#
#
# Elastic Constant Matrix: (Units=GPa)
#
#
# Indices 1 2 3 4 5 6 
#
# 1 93.0821 45.7252 23.6618 0.0000 0.0000 0.0000
# 2 45.7252 72.5598 20.4365 0.0000 0.0000 0.0000
# 3 23.6618 20.4365 85.6507 0.0000 0.0000 0.0000
# 4 0.0000 0.0000 0.0000 -18.4110 0.0000 0.0000
# 5 0.0000 0.0000 0.0000 0.0000 3.7287 0.0000
# 6 0.0000 0.0000 0.0000 0.0000 0.0000 21.0030
#
#
#
# Elastic Compliance Matrix: (Units=1/GPa)
#
#
# Indices 1 2 3 4 5 6 
#
# 1 0.015921 -0.009427 -0.002149 0.000000 0.000000 0.000000
# 2 -0.009427 0.020357 -0.002253 0.000000 0.000000 0.000000
# 3 -0.002149 -0.002253 0.012806 0.000000 0.000000 0.000000
# 4 0.000000 0.000000 0.000000 -0.054315 0.000000 0.000000
# 5 0.000000 0.000000 0.000000 0.000000 0.268191 0.000000
# 6 0.000000 0.000000 0.000000 0.000000 0.000000 0.047612
#
#
# Mechanical properties :
#
#
# Convention : Reuss Voigt Hill
#
# Bulk Modulus (GPa) = 46.67228 47.88218 47.27723
# Shear Modulus (GPa) = 14.47712 12.02874 13.25293
#
# Velocity S-wave (km/s) = 2.95535 2.69387 2.82763
# Velocity P-wave (km/s) = 6.30895 6.20994 6.25964
#
# Compressibility (1/GPa) = 0.02142600
#
# Stress axis : x y z
#
# Youngs Moduli (GPa) = 62.81198 49.12268 78.08544
#
# Poissons Ratio (x) = 0.46310 0.16779
# Poissons Ratio (y) = 0.59216 0.17592
# Poissons Ratio (z) = 0.13497 0.11067
#
# Static dielectric constant tensor:
#      x y z
#    x 2.997510 0.000000 0.000000 
#    y 0.000000 3.223580 0.000000 
#    z 0.000000 0.000000 3.435690 
# 
# 
# High freq. dielectric constant tensor:
#      x y z
#    x 1.586460 0.000000 0.000000 
#    y 0.000000 1.648660 0.000000 
#    z 0.000000 0.000000 1.637100 
# 
# From -- ./inp_files/41354.got.cif
#   From: 2010.03.12/outbox.cif.g09.slc.cpg/sg65_21_cif.got.tgz:41354.got - 2010.04.10 20:52:16.
