data_PCOD8268855
_publ_section_title
;
Structure prediction by ZEFSAII (Michael W. Deem and Ramdas Pophale) SiO2 
 PCOD8268855
Probable space group: C M M M
;
_chemical_formula_sum "Si O2"
_cell_formula_units_Z 104
_cell_length_a 23.808619
_cell_length_b 16.798850
_cell_length_c 13.574416
_cell_angle_alpha 90.000000
_cell_angle_beta 90.000000
_cell_angle_gamma 90.000000
_cell_volume 5429.188392
_symmetry_space_group_name_H-M "C M M M"
_symmetry_group_IT_number 65
_symmetry_cell_setting 'orthorhombic'
loop_
_space_group_symop_operation_xyz
x,y,z
-x,-y,z
x,-y,-z
-x,y,-z
-x,-y,-z
x,y,-z
-x,y,z
x,-y,z
1/2+x,1/2+y,z
1/2-x,1/2-y,z
1/2+x,1/2-y,-z
1/2-x,1/2+y,-z
1/2-x,1/2-y,-z
1/2+x,1/2+y,-z
1/2-x,1/2+y,z
1/2+x,1/2-y,z
loop_
_atom_site_type_symbol
_atom_site_label
_atom_site_fract_x
_atom_site_fract_y
_atom_site_fract_z
Si Si1 0.660271 0.407514 0.282397
Si Si2 0.168082 0.592843 0.787125
Si Si3 0.230268 0.838620 0.888098
Si Si4 0.563751 0.844547 0.726174
Si Si5 0.434417 0.000000 0.393872
Si Si6 0.261646 0.841788 0.612263
Si Si7 0.935746 0.181092 0.386454
O O1 0.657042 0.500000 0.257198
O O2 0.678590 0.361563 0.182784
O O3 0.704588 0.390951 0.369049
O O4 0.599630 0.379218 0.319840
O O5 0.152963 0.500000 0.783127
O O6 0.215664 0.605388 0.869586
O O7 0.111711 0.646875 0.811533
O O8 0.190182 0.623453 0.681440
O O9 0.250000 0.750000 0.863818
O O10 0.209692 0.848774 0.000000
O O11 0.500000 0.849474 0.768687
O O12 0.571356 0.768732 0.657348
O O13 0.582146 0.920442 0.662403
O O14 0.500000 0.000000 0.410326
O O15 0.403930 0.000000 0.500000
O O16 0.280769 0.852641 0.500000
O O17 0.250000 0.750000 0.638175
O O18 0.915165 0.181924 0.500000
O O19 0.000000 0.152683 0.380263
#
# Coordination Sequence:
#
# PCOD8268855 Si02
#       7
#    16  16  16  16   8  16  16
#     4  11  22  36  56  80 109 142 180 225 274 330
#     4  11  21  32  49  78 109 138 176 220 269 326
#     4  10  21  39  63  85 106 135 174 224 281 339
#     4  10  19  33  50  72 107 149 189 227 268 318
#     4   9  16  26  42  66  97 137 183 223 257 302
#     4  10  20  33  49  70 101 141 180 221 268 317
#     4  10  21  36  55  79 110 152 195 232 270 315
#
# _framework density 19.155718
#
# number of rings (size 3 to 8) (size 9 to 14) (size 15 to 20)
#    0.000    1.769    0.769    6.462    0.000    8.000 
#    0.000    0.769    0.000    0.923    0.000    6.462 
#    0.000    0.000    0.000    0.000    0.000    0.000 
#
# Total GULP energy -644550.094324 kJ/mol
# GULP energy per Si atom -12395.194122 kJ/mol
# Density = 1.911212 g / cm^3
# Si number density = 19.155718 Si / 1000 Ang^3
#
#
#
# Elastic Constant Matrix: (Units=GPa)
#
#
# Indices 1 2 3 4 5 6 
#
# 1 104.2300 35.7076 30.1916 0.0000 0.0000 0.0000
# 2 35.7076 107.7789 37.0385 0.0000 0.0000 0.0000
# 3 30.1916 37.0385 77.1657 0.0000 0.0000 0.0000
# 4 0.0000 0.0000 0.0000 11.3251 0.0000 0.0000
# 5 0.0000 0.0000 0.0000 0.0000 17.4834 0.0000
# 6 0.0000 0.0000 0.0000 0.0000 0.0000 31.3113
#
#
#
# Elastic Compliance Matrix: (Units=1/GPa)
#
#
# Indices 1 2 3 4 5 6 
#
# 1 0.011440 -0.002697 -0.003181 0.000000 0.000000 0.000000
# 2 -0.002697 0.011747 -0.004583 0.000000 0.000000 0.000000
# 3 -0.003181 -0.004583 0.016404 0.000000 0.000000 0.000000
# 4 0.000000 0.000000 0.000000 0.088300 0.000000 0.000000
# 5 0.000000 0.000000 0.000000 0.000000 0.057197 0.000000
# 6 0.000000 0.000000 0.000000 0.000000 0.000000 0.031937
#
#
# Mechanical properties :
#
#
# Convention : Reuss Voigt Hill
#
# Bulk Modulus (GPa) = 53.56919 55.00555 54.28737
# Shear Modulus (GPa) = 20.47760 24.43975 22.45867
#
# Velocity S-wave (km/s) = 3.27311 3.57577 3.42779
# Velocity P-wave (km/s) = 6.50463 6.76945 6.63836
#
# Compressibility (1/GPa) = 0.01866745
#
# Stress axis : x y z
#
# Youngs Moduli (GPa) = 87.41610 85.13038 60.96169
#
# Poissons Ratio (x) = 0.22957 0.19395
# Poissons Ratio (y) = 0.23573 0.27940
# Poissons Ratio (z) = 0.27811 0.39017
#
# Static dielectric constant tensor:
#      x y z
#    x 3.681030 0.000000 0.000000 
#    y 0.000000 3.573870 0.000000 
#    z 0.000000 0.000000 3.311550 
# 
# 
# High freq. dielectric constant tensor:
#      x y z
#    x 1.750770 0.000000 0.000000 
#    y 0.000000 1.754180 0.000000 
#    z 0.000000 0.000000 1.710740 
# 
# From -- ./inp_files/45779.got.cif
#   From: 2010.03.12/outbox.cif.g09.slc.cpg/sg65_23_cif.got.tgz:45779.got - 2010.04.10 20:52:16.
