data_PCOD8268945
_publ_section_title
;
Structure prediction by ZEFSAII (Michael W. Deem and Ramdas Pophale) SiO2 
 PCOD8268945
Probable space group: C M M M
;
_chemical_formula_sum "Si O2"
_cell_formula_units_Z 104
_cell_length_a 15.588551
_cell_length_b 17.290190
_cell_length_c 20.225913
_cell_angle_alpha 90.000000
_cell_angle_beta 90.000000
_cell_angle_gamma 90.000000
_cell_volume 5451.470279
_symmetry_space_group_name_H-M "C M M M"
_symmetry_group_IT_number 65
_symmetry_cell_setting 'orthorhombic'
loop_
_space_group_symop_operation_xyz
x,y,z
-x,-y,z
x,-y,-z
-x,y,-z
-x,-y,-z
x,y,-z
-x,y,z
x,-y,z
1/2+x,1/2+y,z
1/2-x,1/2-y,z
1/2+x,1/2-y,-z
1/2-x,1/2+y,-z
1/2-x,1/2-y,-z
1/2+x,1/2+y,-z
1/2-x,1/2+y,z
1/2+x,1/2-y,z
loop_
_atom_site_type_symbol
_atom_site_label
_atom_site_fract_x
_atom_site_fract_y
_atom_site_fract_z
Si Si1 0.096536 0.294470 0.131969
Si Si2 0.260235 0.086135 0.152506
Si Si3 0.597136 0.636262 0.074704
Si Si4 0.398473 0.410183 0.500000
Si Si5 0.684694 0.912800 0.297471
Si Si6 0.404921 0.762457 0.278290
Si Si7 0.799997 0.177054 0.612512
O O1 0.168538 0.358841 0.118848
O O2 0.104891 0.229503 0.075913
O O3 0.114306 0.249241 0.200968
O O4 0.000000 0.330983 0.132744
O O5 0.165224 0.098443 0.124033
O O6 0.256812 0.096857 0.231763
O O7 0.290349 0.000000 0.134738
O O8 0.500000 0.611692 0.095716
O O9 0.616021 0.608803 0.000000
O O10 0.367191 0.500000 0.500000
O O11 0.500000 0.407245 0.500000
O O12 0.366178 0.363130 0.436527
O O13 0.604912 0.854282 0.292592
O O14 0.737674 0.891097 0.363151
O O15 0.649864 0.000000 0.305030
O O16 0.500000 0.737229 0.297725
O O17 0.342426 0.710523 0.321300
O O18 0.750000 0.250000 0.578422
#
# Coordination Sequence:
#
# PCOD8268945 Si02
#       7
#    16  16  16   8  16  16  16
#     4   9  18  33  53  77 102 129 164 202 243 295
#     4  10  20  33  51  76 104 132 161 198 248 302
#     4  10  21  36  53  71  93 127 171 215 254 293
#     4  11  23  36  50  70  99 133 166 202 244 289
#     4   9  18  32  50  73 101 130 159 194 239 292
#     4   9  17  30  51  76 100 127 158 197 241 285
#     4  10  19  33  53  74  97 127 165 204 240 281
#
# _framework density 19.077421000000001
#
# number of rings (size 3 to 8) (size 9 to 14) (size 15 to 20)
#    0.000    2.385    0.000    2.538    0.000    4.923 
#    0.000    4.615    0.000    1.846    0.000    3.231 
#    0.000   11.077    0.000    0.000    0.000    0.000 
#
# Total GULP energy -644531.650687 kJ/mol
# GULP energy per Si atom -12394.839436 kJ/mol
# Density = 1.903400 g / cm^3
# Si number density = 19.077421 Si / 1000 Ang^3
#
#
#
# Elastic Constant Matrix: (Units=GPa)
#
#
# Indices 1 2 3 4 5 6 
#
# 1 72.1126 14.1769 20.0607 0.0000 0.0000 0.0000
# 2 14.1769 77.8059 16.1370 0.0000 0.0000 0.0000
# 3 20.0607 16.1370 50.4799 0.0000 0.0000 0.0000
# 4 0.0000 0.0000 0.0000 16.8452 0.0000 0.0000
# 5 0.0000 0.0000 0.0000 0.0000 25.8385 0.0000
# 6 0.0000 0.0000 0.0000 0.0000 0.0000 21.3476
#
#
#
# Elastic Compliance Matrix: (Units=1/GPa)
#
#
# Indices 1 2 3 4 5 6 
#
# 1 0.015795 -0.001688 -0.005737 0.000000 0.000000 0.000000
# 2 -0.001688 0.013946 -0.003787 0.000000 0.000000 0.000000
# 3 -0.005737 -0.003787 0.023301 0.000000 0.000000 0.000000
# 4 0.000000 0.000000 0.000000 0.059364 0.000000 0.000000
# 5 0.000000 0.000000 0.000000 0.000000 0.038702 0.000000
# 6 0.000000 0.000000 0.000000 0.000000 0.000000 0.046844
#
#
# Mechanical properties :
#
#
# Convention : Reuss Voigt Hill
#
# Bulk Modulus (GPa) = 32.66261 33.46084 33.06172
# Shear Modulus (GPa) = 21.68431 22.80784 22.24607
#
# Velocity S-wave (km/s) = 3.37508 3.46141 3.41852
# Velocity P-wave (km/s) = 5.68739 5.79247 5.74017
#
# Compressibility (1/GPa) = 0.03061604
#
# Stress axis : x y z
#
# Youngs Moduli (GPa) = 63.31064 71.70753 42.91744
#
# Poissons Ratio (x) = 0.12105 0.24623
# Poissons Ratio (y) = 0.10687 0.16253
# Poissons Ratio (z) = 0.36324 0.27157
#
# Static dielectric constant tensor:
#      x y z
#    x 3.432720 0.000000 0.000000 
#    y 0.000000 3.509190 0.000000 
#    z 0.000000 0.000000 3.309050 
# 
# 
# High freq. dielectric constant tensor:
#      x y z
#    x 1.738400 0.000000 0.000000 
#    y 0.000000 1.740330 0.000000 
#    z 0.000000 0.000000 1.726430 
# 
# From -- ./inp_files/62833.got.cif
#   From: 2010.03.12/outbox.cif.g09.slc.cpg/sg65_32_cif.got.tgz:62833.got - 2010.04.10 20:52:16.
