data_PCOD8268511
_publ_section_title
;
Structure prediction by ZEFSAII (Michael W. Deem and Ramdas Pophale) SiO2 
 PCOD8268511
Probable space group: C M M M
;
_chemical_formula_sum "Si O2"
_cell_formula_units_Z 80
_cell_length_a 9.456741
_cell_length_b 18.594188
_cell_length_c 25.871363
_cell_angle_alpha 90.000000
_cell_angle_beta 90.000000
_cell_angle_gamma 90.000000
_cell_volume 4549.231336
_symmetry_space_group_name_H-M "C M M M"
_symmetry_group_IT_number 65
_symmetry_cell_setting 'orthorhombic'
loop_
_space_group_symop_operation_xyz
x,y,z
-x,-y,z
x,-y,-z
-x,y,-z
-x,-y,-z
x,y,-z
-x,y,z
x,-y,z
1/2+x,1/2+y,z
1/2-x,1/2-y,z
1/2+x,1/2-y,-z
1/2-x,1/2+y,-z
1/2-x,1/2-y,-z
1/2+x,1/2+y,-z
1/2-x,1/2+y,z
1/2+x,1/2-y,z
loop_
_atom_site_type_symbol
_atom_site_label
_atom_site_fract_x
_atom_site_fract_y
_atom_site_fract_z
Si Si1 0.337983 0.915303 0.308514
Si Si2 0.334175 0.324544 0.612129
Si Si3 0.334675 0.582456 0.902028
Si Si4 0.343194 0.914594 0.193427
Si Si5 0.658974 0.680375 0.500000
Si Si6 0.166799 0.823987 0.000000
O O1 0.500000 0.894400 0.321886
O O2 0.228287 0.879913 0.347286
O O3 0.299580 0.887649 0.250631
O O4 0.317384 0.000000 0.312695
O O5 0.500000 0.311438 0.623869
O O6 0.250000 0.250000 0.616517
O O7 0.312911 0.360650 0.554506
O O8 0.500000 0.587538 0.892531
O O9 0.288805 0.500000 0.912800
O O10 0.261955 0.614567 0.850537
O O11 0.286701 0.630177 0.950293
O O12 0.500000 0.886533 0.179866
O O13 0.341176 0.000000 0.194235
O O14 0.500000 0.708904 0.500000
O O15 0.750000 0.750000 0.500000
O O16 0.250000 0.750000 0.000000
O O17 0.000000 0.808602 0.000000
#
# Coordination Sequence:
#
# PCOD8268511 Si02
#       6
#    16  16  16  16   8   8
#     4   9  18  33  51  72 101 133 162 197 243 290
#     4  10  19  32  51  73  97 126 163 204 245 291
#     4   9  17  31  52  74  94 120 158 199 233 272
#     4   8  15  29  49  72  97 124 155 194 238 280
#     4   8  16  30  47  68  93 123 159 201 245 286
#     4  10  21  35  49  69  99 130 156 188 236 284
#
# _framework density 17.585388999999999
#
# number of rings (size 3 to 8) (size 9 to 14) (size 15 to 20)
#    0.000    3.000    0.000    2.100    0.000    4.000 
#    0.000    3.500    0.000    8.400    0.000    0.000 
#    0.000    0.000    0.000    0.000    0.000    0.000 
#
# Total GULP energy -495640.499817 kJ/mol
# GULP energy per Si atom -12391.012495 kJ/mol
# Density = 1.754536 g / cm^3
# Si number density = 17.585389 Si / 1000 Ang^3
#
#
#
# Elastic Constant Matrix: (Units=GPa)
#
#
# Indices 1 2 3 4 5 6 
#
# 1 86.1825 40.0523 81.5587 0.0000 0.0000 0.0000
# 2 40.0523 50.6786 52.3260 0.0000 0.0000 0.0000
# 3 81.5587 52.3260 172.2843 0.0000 0.0000 0.0000
# 4 0.0000 0.0000 0.0000 -18.7972 0.0000 0.0000
# 5 0.0000 0.0000 0.0000 0.0000 33.9473 0.0000
# 6 0.0000 0.0000 0.0000 0.0000 0.0000 28.3931
#
#
#
# Elastic Compliance Matrix: (Units=1/GPa)
#
#
# Indices 1 2 3 4 5 6 
#
# 1 0.024474 -0.010751 -0.008320 0.000000 0.000000 0.000000
# 2 -0.010751 0.033470 -0.005076 0.000000 0.000000 0.000000
# 3 -0.008320 -0.005076 0.011285 0.000000 0.000000 0.000000
# 4 0.000000 0.000000 0.000000 -0.053199 0.000000 0.000000
# 5 0.000000 0.000000 0.000000 0.000000 0.029457 0.000000
# 6 0.000000 0.000000 0.000000 0.000000 0.000000 0.035220
#
#
# Mechanical properties :
#
#
# Convention : Reuss Voigt Hill
#
# Bulk Modulus (GPa) = 47.77023 73.00216 60.38619
# Shear Modulus (GPa) = 36.77024 17.72254 27.24639
#
# Velocity S-wave (km/s) = 4.57766 3.17803 3.94048
# Velocity P-wave (km/s) = 7.42722 7.42089 7.42405
#
# Compressibility (1/GPa) = 0.02093354
#
# Stress axis : x y z
#
# Youngs Moduli (GPa) = 40.85995 29.87753 88.61429
#
# Poissons Ratio (x) = 0.32122 0.73731
# Poissons Ratio (y) = 0.43930 0.44979
# Poissons Ratio (z) = 0.33997 0.15165
#
# Static dielectric constant tensor:
#      x y z
#    x 3.335680 0.000000 0.000000 
#    y 0.000000 2.739160 0.000000 
#    z 0.000000 0.000000 3.827210 
# 
# 
# High freq. dielectric constant tensor:
#      x y z
#    x 1.682620 0.000000 0.000000 
#    y 0.000000 1.635410 0.000000 
#    z 0.000000 0.000000 1.700320 
# 
# From -- ./inp_files/67299.got.cif
#   From: 2010.03.12/outbox.cif.g09.slc.cpg/sg65_34_cif.got.tgz:67299.got - 2010.04.10 20:52:16.
