data_PCOD8268093
_publ_section_title
;
Structure prediction by ZEFSAII (Michael W. Deem and Ramdas Pophale) SiO2 
 PCOD8268093
Probable space group: C M M M
;
_chemical_formula_sum "Si O2"
_cell_formula_units_Z 88
_cell_length_a 21.094417
_cell_length_b 23.930601
_cell_length_c 9.556410
_cell_angle_alpha 90.000000
_cell_angle_beta 90.000000
_cell_angle_gamma 90.000000
_cell_volume 4824.095612
_symmetry_space_group_name_H-M "C M M M"
_symmetry_group_IT_number 65
_symmetry_cell_setting 'orthorhombic'
loop_
_space_group_symop_operation_xyz
x,y,z
-x,-y,z
x,-y,-z
-x,y,-z
-x,-y,-z
x,y,-z
-x,y,z
x,-y,z
1/2+x,1/2+y,z
1/2-x,1/2-y,z
1/2+x,1/2-y,-z
1/2-x,1/2+y,-z
1/2-x,1/2-y,-z
1/2+x,1/2+y,-z
1/2-x,1/2+y,z
1/2+x,1/2-y,z
loop_
_atom_site_type_symbol
_atom_site_label
_atom_site_fract_x
_atom_site_fract_y
_atom_site_fract_z
Si Si1 0.429825 0.768379 0.344530
Si Si2 0.641048 0.849399 0.157046
Si Si3 0.109210 0.146543 0.659169
Si Si4 0.000000 0.064413 0.666565
Si Si5 0.775769 0.190351 0.158165
Si Si6 0.071826 0.435908 0.658975
O O1 0.407674 0.787359 0.500000
O O2 0.500000 0.792029 0.314829
O O3 0.381716 0.792242 0.230489
O O4 0.433316 0.701817 0.335903
O O5 0.716793 0.851956 0.156607
O O6 0.617313 0.903035 0.238787
O O7 0.613782 0.850125 0.000000
O O8 0.130973 0.133218 0.500000
O O9 0.171504 0.158652 0.750877
O O10 0.064450 0.096144 0.718386
O O11 0.000000 0.066854 0.500000
O O12 0.000000 0.000000 0.720904
O O13 0.750000 0.250000 0.218968
O O14 0.801751 0.200257 0.000000
O O15 0.094222 0.426519 0.500000
O O16 0.076903 0.500000 0.701613
O O17 0.000000 0.414648 0.676793
#
# Coordination Sequence:
#
# PCOD8268093 Si02
#       6
#    16  16  16   8  16  16
#     4  10  19  31  49  76 110 140 173 221 274 324
#     4  11  22  34  51  77 109 144 183 219 261 317
#     4  10  19  33  56  83 106 137 182 226 273 329
#     4   9  18  36  61  87 115 143 178 233 290 331
#     4  10  21  37  52  73 111 151 180 216 272 327
#     4   9  19  37  58  78 104 139 176 217 266 314
#
# _framework density 18.241761
#
# number of rings (size 3 to 8) (size 9 to 14) (size 15 to 20)
#    0.000    2.091    2.727    1.636    0.000    5.091 
#    0.000    2.273    0.000    4.364    0.000    0.000 
#    0.000    0.000    0.000    0.000    0.000    0.000 
#
# Total GULP energy -545388.216012 kJ/mol
# GULP energy per Si atom -12395.186728 kJ/mol
# Density = 1.820024 g / cm^3
# Si number density = 18.241761 Si / 1000 Ang^3
#
#
#
# Elastic Constant Matrix: (Units=GPa)
#
#
# Indices 1 2 3 4 5 6 
#
# 1 101.9762 45.6313 56.2727 0.0000 0.0000 0.0000
# 2 45.6313 101.7842 37.3929 0.0000 0.0000 0.0000
# 3 56.2727 37.3929 92.0949 0.0000 0.0000 0.0000
# 4 0.0000 0.0000 0.0000 15.0564 0.0000 0.0000
# 5 0.0000 0.0000 0.0000 0.0000 19.6731 0.0000
# 6 0.0000 0.0000 0.0000 0.0000 0.0000 7.7081
#
#
#
# Elastic Compliance Matrix: (Units=1/GPa)
#
#
# Indices 1 2 3 4 5 6 
#
# 1 0.016234 -0.004271 -0.008186 0.000000 0.000000 0.000000
# 2 -0.004271 0.012671 -0.002535 0.000000 0.000000 0.000000
# 3 -0.008186 -0.002535 0.016889 0.000000 0.000000 0.000000
# 4 0.000000 0.000000 0.000000 0.066417 0.000000 0.000000
# 5 0.000000 0.000000 0.000000 0.000000 0.050831 0.000000
# 6 0.000000 0.000000 0.000000 0.000000 0.000000 0.129734
#
#
# Mechanical properties :
#
#
# Convention : Reuss Voigt Hill
#
# Bulk Modulus (GPa) = 63.24561 63.82771 63.53666
# Shear Modulus (GPa) = 15.24253 18.92474 17.08363
#
# Velocity S-wave (km/s) = 2.89378 3.22443 3.06357
# Velocity P-wave (km/s) = 6.77579 6.99488 6.88621
#
# Compressibility (1/GPa) = 0.01581137
#
# Stress axis : x y z
#
# Youngs Moduli (GPa) = 61.59813 78.92225 59.20934
#
# Poissons Ratio (x) = 0.33707 0.48466
# Poissons Ratio (y) = 0.26308 0.15009
# Poissons Ratio (z) = 0.50421 0.20007
#
# Static dielectric constant tensor:
#      x y z
#    x 3.283750 0.000000 0.000000 
#    y 0.000000 3.307600 0.000000 
#    z 0.000000 0.000000 3.293460 
# 
# 
# High freq. dielectric constant tensor:
#      x y z
#    x 1.702810 0.000000 0.000000 
#    y 0.000000 1.698530 0.000000 
#    z 0.000000 0.000000 1.694300 
# 
# From -- ./inp_files/11746.got.cif
#   From: 2010.03.12/outbox.cif.g09.slc.cpg/sg65_6_cif.got.tgz:11746.got - 2010.04.10 20:52:16.
