data_PCOD8268590
_publ_section_title
;
Structure prediction by ZEFSAII (Michael W. Deem and Ramdas Pophale) SiO2 
 PCOD8268590
Probable space group: C M M M
;
_chemical_formula_sum "Si O2"
_cell_formula_units_Z 96
_cell_length_a 24.975109
_cell_length_b 8.912342
_cell_length_c 21.938066
_cell_angle_alpha 90.000000
_cell_angle_beta 90.000000
_cell_angle_gamma 90.000000
_cell_volume 4883.121998
_symmetry_space_group_name_H-M "C M M M"
_symmetry_group_IT_number 65
_symmetry_cell_setting 'orthorhombic'
loop_
_space_group_symop_operation_xyz
x,y,z
-x,-y,z
x,-y,-z
-x,y,-z
-x,-y,-z
x,y,-z
-x,y,z
x,-y,z
1/2+x,1/2+y,z
1/2-x,1/2-y,z
1/2+x,1/2-y,-z
1/2-x,1/2+y,-z
1/2-x,1/2-y,-z
1/2+x,1/2+y,-z
1/2-x,1/2+y,z
1/2+x,1/2-y,z
loop_
_atom_site_type_symbol
_atom_site_label
_atom_site_fract_x
_atom_site_fract_y
_atom_site_fract_z
Si Si1 0.195292 0.675787 0.931006
Si Si2 0.000000 0.820322 0.200486
Si Si3 0.586278 0.678845 0.432964
Si Si4 0.610644 0.822019 0.169749
Si Si5 0.500000 0.321324 0.660118
Si Si6 0.803989 0.828030 0.249942
Si Si7 0.801907 0.830609 0.605844
O O1 0.204582 0.500000 0.927332
O O2 0.250000 0.750000 0.906126
O O3 0.144147 0.723243 0.890645
O O4 0.183481 0.729406 0.000000
O O5 0.947494 0.755824 0.166862
O O6 0.000000 0.761856 0.270681
O O7 0.000000 0.000000 0.196446
O O8 0.564648 0.726876 0.500000
O O9 0.586979 0.500000 0.427694
O O10 0.550470 0.742274 0.377822
O O11 0.645760 0.744269 0.423998
O O12 0.643614 0.759112 0.227055
O O13 0.603269 0.000000 0.175803
O O14 0.500000 0.500000 0.661526
O O15 0.750000 0.750000 0.224597
O O16 0.806046 0.817225 0.321975
O O17 0.805046 0.000000 0.227358
O O18 0.750000 0.750000 0.579569
O O19 0.797239 0.000000 0.584145
#
# Coordination Sequence:
#
# PCOD8268590 Si02
#       7
#    16   8  16  16   8  16  16
#     4   9  19  36  58  84 113 144 176 213 258 305
#     4  11  23  38  56  77 106 143 180 219 266 318
#     4   9  16  27  46  71  96 123 160 207 256 307
#     4  11  22  36  55  80 109 140 179 222 264 314
#     4   9  17  31  50  72  97 126 162 209 264 314
#     4  10  19  32  51  76 107 140 175 217 266 318
#     4   9  18  31  46  68  99 133 167 204 251 308
#
# _framework density 19.659554
#
# number of rings (size 3 to 8) (size 9 to 14) (size 15 to 20)
#    0.000    2.333    0.000    3.000    0.000    7.333 
#    0.000    0.417    0.000    2.500    0.000    0.000 
#    0.000    5.333    0.000    0.000    0.000    0.000 
#
# Total GULP energy -595064.696424 kJ/mol
# GULP energy per Si atom -12397.181175 kJ/mol
# Density = 1.961481 g / cm^3
# Si number density = 19.659554 Si / 1000 Ang^3
#
#
#
# Elastic Constant Matrix: (Units=GPa)
#
#
# Indices 1 2 3 4 5 6 
#
# 1 174.4632 45.9885 54.5254 0.0000 0.0000 0.0000
# 2 45.9885 63.0849 28.6105 0.0000 0.0000 0.0000
# 3 54.5254 28.6105 78.7538 0.0000 0.0000 0.0000
# 4 0.0000 0.0000 0.0000 15.2375 0.0000 0.0000
# 5 0.0000 0.0000 0.0000 0.0000 27.9925 0.0000
# 6 0.0000 0.0000 0.0000 0.0000 0.0000 34.6640
#
#
#
# Elastic Compliance Matrix: (Units=1/GPa)
#
#
# Indices 1 2 3 4 5 6 
#
# 1 0.008084 -0.004016 -0.004138 0.000000 0.000000 0.000000
# 2 -0.004016 0.020974 -0.004839 0.000000 0.000000 0.000000
# 3 -0.004138 -0.004839 0.017320 0.000000 0.000000 0.000000
# 4 0.000000 0.000000 0.000000 0.065628 0.000000 0.000000
# 5 0.000000 0.000000 0.000000 0.000000 0.035724 0.000000
# 6 0.000000 0.000000 0.000000 0.000000 0.000000 0.028848
#
#
# Mechanical properties :
#
#
# Convention : Reuss Voigt Hill
#
# Bulk Modulus (GPa) = 49.03812 63.83898 56.43855
# Shear Modulus (GPa) = 23.88209 28.05728 25.96968
#
# Velocity S-wave (km/s) = 3.48915 3.78187 3.63846
# Velocity P-wave (km/s) = 6.42106 7.18421 6.81333
#
# Compressibility (1/GPa) = 0.02039230
#
# Stress axis : x y z
#
# Youngs Moduli (GPa) = 123.70469 47.67764 57.73513
#
# Poissons Ratio (x) = 0.19150 0.23889
# Poissons Ratio (y) = 0.49686 0.27938
# Poissons Ratio (z) = 0.51185 0.23071
#
# Static dielectric constant tensor:
#      x y z
#    x 3.808240 0.000000 0.000000 
#    y 0.000000 3.381970 0.000000 
#    z 0.000000 0.000000 3.641530 
# 
# 
# High freq. dielectric constant tensor:
#      x y z
#    x 1.775390 0.000000 0.000000 
#    y 0.000000 1.735460 0.000000 
#    z 0.000000 0.000000 1.764060 
# 
# From -- ./inp_files/71453.got.cif
#   From: 2010.03.12/outbox.cif.g09.slc.cpg/sg65_36_cif.got.tgz:71453.got - 2010.04.10 20:52:16.
