data_PCOD8268077
_publ_section_title
;
Structure prediction by ZEFSAII (Michael W. Deem and Ramdas Pophale) SiO2 
 PCOD8268077
Probable space group: C M M M
;
_chemical_formula_sum "Si O2"
_cell_formula_units_Z 96
_cell_length_a 17.871244
_cell_length_b 26.295780
_cell_length_c 11.845111
_cell_angle_alpha 90.000000
_cell_angle_beta 90.000000
_cell_angle_gamma 90.000000
_cell_volume 5566.471333
_symmetry_space_group_name_H-M "C M M M"
_symmetry_group_IT_number 65
_symmetry_cell_setting 'orthorhombic'
loop_
_space_group_symop_operation_xyz
x,y,z
-x,-y,z
x,-y,-z
-x,y,-z
-x,-y,-z
x,y,-z
-x,y,z
x,-y,z
1/2+x,1/2+y,z
1/2-x,1/2-y,z
1/2+x,1/2-y,-z
1/2-x,1/2+y,-z
1/2-x,1/2-y,-z
1/2+x,1/2+y,-z
1/2-x,1/2+y,z
1/2+x,1/2-y,z
loop_
_atom_site_type_symbol
_atom_site_label
_atom_site_fract_x
_atom_site_fract_y
_atom_site_fract_z
Si Si1 0.224471 0.807734 0.257857
Si Si2 0.734014 0.809398 0.500000
Si Si3 0.641811 0.445261 0.867398
Si Si4 0.086853 0.370926 0.500000
Si Si5 0.083576 0.840451 0.131709
Si Si6 0.413932 0.942018 0.711425
Si Si7 0.704418 0.103951 0.132663
O O1 0.250000 0.750000 0.256903
O O2 0.227518 0.830844 0.385574
O O3 0.140191 0.808946 0.209371
O O4 0.281541 0.839515 0.180457
O O5 0.750000 0.750000 0.500000
O O6 0.644732 0.823346 0.500000
O O7 0.619934 0.500000 0.811748
O O8 0.586119 0.399955 0.831211
O O9 0.725649 0.430782 0.830703
O O10 0.638317 0.451670 0.000000
O O11 0.104311 0.406146 0.393505
O O12 0.000000 0.351580 0.500000
O O13 0.000000 0.819635 0.151913
O O14 0.107157 0.835075 0.000000
O O15 0.500000 0.938611 0.745814
O O16 0.369402 0.921937 0.819254
O O17 0.391887 0.000000 0.680936
O O18 0.694551 0.108548 0.000000
#
# Coordination Sequence:
#
# PCOD8268077 Si02
#       7
#    16   8  16   8  16  16  16
#     4  10  20  36  56  77 101 132 174 221 269 318
#     4  10  20  37  59  84 100 127 173 229 273 315
#     4   8  14  25  43  68  97 130 166 200 237 286
#     4  10  19  36  58  79 107 141 180 226 270 316
#     4   9  18  32  50  75 106 137 169 206 250 303
#     4  10  20  33  51  76 106 142 182 223 266 312
#     4  10  19  31  49  74 107 141 172 211 261 317
#
# _framework density 17.246113000000001
#
# number of rings (size 3 to 8) (size 9 to 14) (size 15 to 20)
#    0.000    2.500    1.667    2.250    0.000    4.000 
#    0.000    7.083    0.000    0.000    0.000    0.000 
#    0.000    3.000    0.000    0.000    0.000    0.000 
#
# Total GULP energy -594859.288790 kJ/mol
# GULP energy per Si atom -12392.901850 kJ/mol
# Density = 1.720686 g / cm^3
# Si number density = 17.246113 Si / 1000 Ang^3
#
#
#
# Elastic Constant Matrix: (Units=GPa)
#
#
# Indices 1 2 3 4 5 6 
#
# 1 102.4507 41.7302 57.8267 0.0000 0.0000 0.0000
# 2 41.7302 86.0063 28.3193 0.0000 0.0000 0.0000
# 3 57.8267 28.3193 95.6978 0.0000 0.0000 0.0000
# 4 0.0000 0.0000 0.0000 17.2829 0.0000 0.0000
# 5 0.0000 0.0000 0.0000 0.0000 23.4526 0.0000
# 6 0.0000 0.0000 0.0000 0.0000 0.0000 22.4193
#
#
#
# Elastic Compliance Matrix: (Units=1/GPa)
#
#
# Indices 1 2 3 4 5 6 
#
# 1 0.016750 -0.005312 -0.008550 0.000000 0.000000 0.000000
# 2 -0.005312 0.014567 -0.001101 0.000000 0.000000 0.000000
# 3 -0.008550 -0.001101 0.015942 0.000000 0.000000 0.000000
# 4 0.000000 0.000000 0.000000 0.057861 0.000000 0.000000
# 5 0.000000 0.000000 0.000000 0.000000 0.042639 0.000000
# 6 0.000000 0.000000 0.000000 0.000000 0.000000 0.044604
#
#
# Mechanical properties :
#
#
# Convention : Reuss Voigt Hill
#
# Bulk Modulus (GPa) = 57.69097 59.98970 58.84034
# Shear Modulus (GPa) = 21.92352 23.04954 22.48653
#
# Velocity S-wave (km/s) = 3.56928 3.65979 3.61482
# Velocity P-wave (km/s) = 7.10708 7.26077 7.18433
#
# Compressibility (1/GPa) = 0.01733373
#
# Stress axis : x y z
#
# Youngs Moduli (GPa) = 59.70088 68.64863 62.72929
#
# Poissons Ratio (x) = 0.36467 0.53631
# Poissons Ratio (y) = 0.31714 0.06905
# Poissons Ratio (z) = 0.51042 0.07557
#
# Static dielectric constant tensor:
#      x y z
#    x 3.253740 0.000000 0.000000 
#    y 0.000000 3.325780 0.000000 
#    z 0.000000 0.000000 3.314220 
# 
# 
# High freq. dielectric constant tensor:
#      x y z
#    x 1.658710 0.000000 0.000000 
#    y 0.000000 1.664380 0.000000 
#    z 0.000000 0.000000 1.651430 
# 
# From -- ./inp_files/27419.got.cif
#   From: 2010.03.12/outbox.cif.g09.slc.cpg/sg65_14_cif.got.tgz:27419.got - 2010.04.10 20:52:16.
