data_PCOD8268427
_publ_section_title
;
Structure prediction by ZEFSAII (Michael W. Deem and Ramdas Pophale) SiO2 
 PCOD8268427
Probable space group: C M M M
;
_chemical_formula_sum "Si O2"
_cell_formula_units_Z 88
_cell_length_a 20.290721
_cell_length_b 8.010889
_cell_length_c 29.320006
_cell_angle_alpha 90.000000
_cell_angle_beta 90.000000
_cell_angle_gamma 90.000000
_cell_volume 4765.870620
_symmetry_space_group_name_H-M "C M M M"
_symmetry_group_IT_number 65
_symmetry_cell_setting 'orthorhombic'
loop_
_space_group_symop_operation_xyz
x,y,z
-x,-y,z
x,-y,-z
-x,y,-z
-x,-y,-z
x,y,-z
-x,y,z
x,-y,z
1/2+x,1/2+y,z
1/2-x,1/2-y,z
1/2+x,1/2-y,-z
1/2-x,1/2+y,-z
1/2-x,1/2-y,-z
1/2+x,1/2+y,-z
1/2-x,1/2+y,z
1/2+x,1/2-y,z
loop_
_atom_site_type_symbol
_atom_site_label
_atom_site_fract_x
_atom_site_fract_y
_atom_site_fract_z
Si Si1 0.821018 0.197012 0.878782
Si Si2 0.078692 0.500000 0.551723
Si Si3 0.926448 0.801297 0.050822
Si Si4 0.678209 0.696776 0.224065
Si Si5 0.074086 0.692157 0.703937
Si Si6 0.078255 0.815604 0.392342
O O1 0.750000 0.250000 0.897938
O O2 0.876010 0.275655 0.912265
O O3 0.830885 0.265770 0.827467
O O4 0.826875 0.000000 0.878262
O O5 0.104369 0.500000 0.500000
O O6 0.107189 0.332172 0.575854
O O7 0.000000 0.500000 0.553695
O O8 0.000000 0.739597 0.063295
O O9 0.923842 0.000000 0.051984
O O10 0.907295 0.738797 0.000000
O O11 0.670214 0.500000 0.226746
O O12 0.750000 0.750000 0.242637
O O13 0.621606 0.780970 0.253590
O O14 0.073164 0.500000 0.689564
O O15 0.100940 0.792402 0.660048
O O16 0.000000 0.750800 0.717337
O O17 0.000000 0.804591 0.394243
O O18 0.102231 0.000000 0.408971
#
# Coordination Sequence:
#
# PCOD8268427 Si02
#       6
#    16   8  16  16  16  16
#     4   9  18  31  47  67  92 121 154 193 241 293
#     4   9  16  26  40  62  96 134 170 210 256 306
#     4   8  14  26  45  68  92 119 154 197 241 284
#     4  10  20  33  48  68  96 129 162 204 253 300
#     4  10  19  32  50  71  97 130 166 206 254 305
#     4   9  16  27  43  64  93 130 169 209 255 304
#
# _framework density 18.464623
#
# number of rings (size 3 to 8) (size 9 to 14) (size 15 to 20)
#    0.000    2.818    0.909    1.636    0.000    3.273 
#    0.000    3.636    0.000    0.545    0.000    1.273 
#    0.000    0.727    0.364    0.000    0.000    0.000 
#
# Total GULP energy -545415.610362 kJ/mol
# GULP energy per Si atom -12395.809326 kJ/mol
# Density = 1.842260 g / cm^3
# Si number density = 18.464623 Si / 1000 Ang^3
#
#
#
# Elastic Constant Matrix: (Units=GPa)
#
#
# Indices 1 2 3 4 5 6 
#
# 1 90.6932 19.7523 69.4970 0.0000 0.0000 0.0000
# 2 19.7523 74.3298 37.3888 0.0000 0.0000 0.0000
# 3 69.4970 37.3888 120.8061 0.0000 0.0000 0.0000
# 4 0.0000 0.0000 0.0000 15.0967 0.0000 0.0000
# 5 0.0000 0.0000 0.0000 0.0000 7.9833 0.0000
# 6 0.0000 0.0000 0.0000 0.0000 0.0000 18.5776
#
#
#
# Elastic Compliance Matrix: (Units=1/GPa)
#
#
# Indices 1 2 3 4 5 6 
#
# 1 0.019738 0.000552 -0.011526 0.000000 0.000000 0.000000
# 2 0.000552 0.015950 -0.005254 0.000000 0.000000 0.000000
# 3 -0.011526 -0.005254 0.016534 0.000000 0.000000 0.000000
# 4 0.000000 0.000000 0.000000 0.066240 0.000000 0.000000
# 5 0.000000 0.000000 0.000000 0.000000 0.125261 0.000000
# 6 0.000000 0.000000 0.000000 0.000000 0.000000 0.053828
#
#
# Mechanical properties :
#
#
# Convention : Reuss Voigt Hill
#
# Bulk Modulus (GPa) = 50.58927 59.90058 55.24493
# Shear Modulus (GPa) = 14.85468 18.94428 16.89948
#
# Velocity S-wave (km/s) = 2.83944 3.20656 3.02857
# Velocity P-wave (km/s) = 6.18121 6.79857 6.49722
#
# Compressibility (1/GPa) = 0.01976704
#
# Stress axis : x y z
#
# Youngs Moduli (GPa) = 50.66404 62.69736 60.48024
#
# Poissons Ratio (x) = -0.03464 0.69708
# Poissons Ratio (y) = -0.02799 0.31777
# Poissons Ratio (z) = 0.58394 0.32942
#
# Static dielectric constant tensor:
#      x y z
#    x 3.156170 0.000000 0.000000 
#    y 0.000000 3.356420 0.000000 
#    z 0.000000 0.000000 3.552770 
# 
# 
# High freq. dielectric constant tensor:
#      x y z
#    x 1.678120 0.000000 0.000000 
#    y 0.000000 1.712400 0.000000 
#    z 0.000000 0.000000 1.712950 
# 
# From -- ./inp_files/77906.got.cif
#   From: 2010.03.12/outbox.cif.g09.slc.cpg/sg65_39_cif.got.tgz:77906.got - 2010.04.10 20:52:16.
