data_PCOD8268535
_publ_section_title
;
Structure prediction by ZEFSAII (Michael W. Deem and Ramdas Pophale) SiO2 
 PCOD8268535
Probable space group: C M M M
;
_chemical_formula_sum "Si O2"
_cell_formula_units_Z 104
_cell_length_a 25.679854
_cell_length_b 9.490510
_cell_length_c 23.357859
_cell_angle_alpha 90.000000
_cell_angle_beta 90.000000
_cell_angle_gamma 90.000000
_cell_volume 5692.658532
_symmetry_space_group_name_H-M "C M M M"
_symmetry_group_IT_number 65
_symmetry_cell_setting 'orthorhombic'
loop_
_space_group_symop_operation_xyz
x,y,z
-x,-y,z
x,-y,-z
-x,y,-z
-x,-y,-z
x,y,-z
-x,y,z
x,-y,z
1/2+x,1/2+y,z
1/2-x,1/2-y,z
1/2+x,1/2-y,-z
1/2-x,1/2+y,-z
1/2-x,1/2-y,-z
1/2+x,1/2+y,-z
1/2-x,1/2+y,z
1/2+x,1/2-y,z
loop_
_atom_site_type_symbol
_atom_site_label
_atom_site_fract_x
_atom_site_fract_y
_atom_site_fract_z
Si Si1 0.500000 0.652818 0.768040
Si Si2 0.612055 0.840041 0.890794
Si Si3 0.000000 0.841826 0.633410
Si Si4 0.500000 0.834485 0.935742
Si Si5 0.799937 0.663296 0.433801
Si Si6 0.398795 0.164867 0.638882
Si Si7 0.907408 0.343573 0.232274
Si Si8 0.796539 0.157043 0.066754
O O1 0.500000 0.500000 0.797189
O O2 0.500000 0.640508 0.700388
O O3 0.549925 0.734779 0.788275
O O4 0.552284 0.788957 0.901323
O O5 0.629998 0.837942 0.823211
O O6 0.648675 0.733793 0.924439
O O7 0.619352 0.000000 0.914139
O O8 0.948341 0.753907 0.616363
O O9 0.000000 0.000000 0.605336
O O10 0.500000 0.000000 0.941183
O O11 0.500000 0.768143 0.000000
O O12 0.812058 0.694209 0.500000
O O13 0.788032 0.500000 0.422653
O O14 0.750000 0.750000 0.412582
O O15 0.849568 0.714706 0.397868
O O16 0.383660 0.196289 0.705619
O O17 0.411117 0.000000 0.628983
O O18 0.932025 0.500000 0.238058
O O19 0.750000 0.250000 0.094605
O O20 0.797175 0.000000 0.094591
O O21 0.786193 0.141033 0.000000
#
# Coordination Sequence:
#
# PCOD8268535 Si02
#       8
#     8  16   8   8  16  16  16  16
#     4   9  16  26  42  65  94 128 166 204 237 275
#     4  10  19  32  51  74 101 132 165 200 240 292
#     4   9  17  28  45  71  99 127 163 204 243 284
#     4   9  17  28  45  71 100 129 160 196 240 287
#     4   9  18  33  53  75  97 125 164 207 250 297
#     4   9  17  31  50  71  98 132 167 202 243 293
#     4   9  17  29  46  68  96 131 167 199 237 291
#     4  10  21  37  56  75  94 121 160 204 248 293
#
# _framework density 18.269144000000001
#
# number of rings (size 3 to 8) (size 9 to 14) (size 15 to 20)
#    0.000    2.692    0.000    1.846    0.000    5.846 
#    0.000    1.538    0.000    5.538    0.000    0.000 
#    0.000    0.000    0.000    0.000    0.000    0.000 
#
# Total GULP energy -644292.421730 kJ/mol
# GULP energy per Si atom -12390.238879 kJ/mol
# Density = 1.822756 g / cm^3
# Si number density = 18.269144 Si / 1000 Ang^3
#
#
#
# Elastic Constant Matrix: (Units=GPa)
#
#
# Indices 1 2 3 4 5 6 
#
# 1 123.3855 57.9263 41.1722 0.0000 0.0000 0.0000
# 2 57.9263 98.5547 24.2800 0.0000 0.0000 0.0000
# 3 41.1722 24.2800 67.8812 0.0000 0.0000 0.0000
# 4 0.0000 0.0000 0.0000 16.3281 0.0000 0.0000
# 5 0.0000 0.0000 0.0000 0.0000 12.1659 0.0000
# 6 0.0000 0.0000 0.0000 0.0000 0.0000 29.9152
#
#
#
# Elastic Compliance Matrix: (Units=1/GPa)
#
#
# Indices 1 2 3 4 5 6 
#
# 1 0.012879 -0.006191 -0.005597 0.000000 0.000000 0.000000
# 2 -0.006191 0.014103 -0.001290 0.000000 0.000000 0.000000
# 3 -0.005597 -0.001290 0.018588 0.000000 0.000000 0.000000
# 4 0.000000 0.000000 0.000000 0.061244 0.000000 0.000000
# 5 0.000000 0.000000 0.000000 0.000000 0.082197 0.000000
# 6 0.000000 0.000000 0.000000 0.000000 0.000000 0.033428
#
#
# Mechanical properties :
#
#
# Convention : Reuss Voigt Hill
#
# Bulk Modulus (GPa) = 51.50714 59.61982 55.56348
# Shear Modulus (GPa) = 19.60286 22.77801 21.19043
#
# Velocity S-wave (km/s) = 3.27923 3.53484 3.40943
# Velocity P-wave (km/s) = 6.52629 7.02603 6.78077
#
# Compressibility (1/GPa) = 0.01941478
#
# Stress axis : x y z
#
# Youngs Moduli (GPa) = 77.64748 70.90717 53.79902
#
# Poissons Ratio (x) = 0.43896 0.30112
# Poissons Ratio (y) = 0.48069 0.06938
# Poissons Ratio (z) = 0.43460 0.09144
#
# Static dielectric constant tensor:
#      x y z
#    x 3.231360 0.000000 0.000000 
#    y 0.000000 3.642250 0.000000 
#    z 0.000000 0.000000 3.288070 
# 
# 
# High freq. dielectric constant tensor:
#      x y z
#    x 1.687870 0.000000 0.000000 
#    y 0.000000 1.705750 0.000000 
#    z 0.000000 0.000000 1.693690 
# 
# From -- ./inp_files/71880.got.cif
#   From: 2010.03.12/outbox.cif.g09.slc.cpg/sg65_36_cif.got.tgz:71880.got - 2010.04.10 20:52:16.
