data_PCOD8268555
_publ_section_title
;
Structure prediction by ZEFSAII (Michael W. Deem and Ramdas Pophale) SiO2 
 PCOD8268555
Probable space group: C M M M
;
_chemical_formula_sum "Si O2"
_cell_formula_units_Z 80
_cell_length_a 19.733561
_cell_length_b 8.655403
_cell_length_c 25.592713
_cell_angle_alpha 90.000000
_cell_angle_beta 90.000000
_cell_angle_gamma 90.000000
_cell_volume 4371.284597
_symmetry_space_group_name_H-M "C M M M"
_symmetry_group_IT_number 65
_symmetry_cell_setting 'orthorhombic'
loop_
_space_group_symop_operation_xyz
x,y,z
-x,-y,z
x,-y,-z
-x,y,-z
-x,-y,-z
x,y,-z
-x,y,z
x,-y,z
1/2+x,1/2+y,z
1/2-x,1/2-y,z
1/2+x,1/2-y,-z
1/2-x,1/2+y,-z
1/2-x,1/2-y,-z
1/2+x,1/2+y,-z
1/2-x,1/2+y,z
1/2+x,1/2-y,z
loop_
_atom_site_type_symbol
_atom_site_label
_atom_site_fract_x
_atom_site_fract_y
_atom_site_fract_z
Si Si1 0.322669 0.683890 0.645108
Si Si2 0.919662 0.673443 0.942957
Si Si3 0.424354 0.316408 0.557918
Si Si4 0.420607 0.677721 0.162214
Si Si5 0.822141 0.681480 0.755903
O O1 0.320345 0.500000 0.646008
O O2 0.250000 0.750000 0.629876
O O3 0.374290 0.750118 0.601805
O O4 0.346165 0.743711 0.701555
O O5 0.893037 0.500000 0.931923
O O6 0.894896 0.785606 0.896659
O O7 0.000000 0.672813 0.944463
O O8 0.892625 0.730668 0.000000
O O9 0.401229 0.261197 0.500000
O O10 0.500000 0.254783 0.569690
O O11 0.424082 0.500000 0.559996
O O12 0.500000 0.716554 0.168564
O O13 0.405339 0.500000 0.174468
O O14 0.379442 0.784243 0.201719
O O15 0.813609 0.500000 0.748261
O O16 0.750000 0.750000 0.774110
#
# Coordination Sequence:
#
# PCOD8268555 Si02
#       5
#    16  16  16  16  16
#     4  10  19  32  51  74  99 128 164 205 248 296
#     4   8  14  26  45  70 101 135 169 206 249 295
#     4   8  15  29  49  73 100 130 164 201 242 289
#     4  10  20  33  51  77 106 134 169 211 252 299
#     4  11  22  37  55  73  99 134 171 211 257 308
#
# _framework density 18.301255999999999
#
# number of rings (size 3 to 8) (size 9 to 14) (size 15 to 20)
#    0.000    2.600    0.000    5.400    0.000    2.800 
#    0.000    4.000    0.000    4.200    0.000    5.600 
#    0.000    0.000    0.000    0.000    0.000    0.000 
#
# Total GULP energy -495848.356912 kJ/mol
# GULP energy per Si atom -12396.208923 kJ/mol
# Density = 1.825960 g / cm^3
# Si number density = 18.301256 Si / 1000 Ang^3
#
#
#
# Elastic Constant Matrix: (Units=GPa)
#
#
# Indices 1 2 3 4 5 6 
#
# 1 70.6206 26.2974 73.3640 0.0000 0.0000 0.0000
# 2 26.2974 74.2064 34.4472 0.0000 0.0000 0.0000
# 3 73.3640 34.4472 143.6321 0.0000 0.0000 0.0000
# 4 0.0000 0.0000 0.0000 24.0709 0.0000 0.0000
# 5 0.0000 0.0000 0.0000 0.0000 10.7257 0.0000
# 6 0.0000 0.0000 0.0000 0.0000 0.0000 22.8749
#
#
#
# Elastic Compliance Matrix: (Units=1/GPa)
#
#
# Indices 1 2 3 4 5 6 
#
# 1 0.031251 -0.004124 -0.014973 0.000000 0.000000 0.000000
# 2 -0.004124 0.015708 -0.001661 0.000000 0.000000 0.000000
# 3 -0.014973 -0.001661 0.015008 0.000000 0.000000 0.000000
# 4 0.000000 0.000000 0.000000 0.041544 0.000000 0.000000
# 5 0.000000 0.000000 0.000000 0.000000 0.093234 0.000000
# 6 0.000000 0.000000 0.000000 0.000000 0.000000 0.043716
#
#
# Mechanical properties :
#
#
# Convention : Reuss Voigt Hill
#
# Bulk Modulus (GPa) = 48.89605 61.85292 55.37448
# Shear Modulus (GPa) = 17.31336 21.82433 19.56884
#
# Velocity S-wave (km/s) = 3.07908 3.45701 3.27351
# Velocity P-wave (km/s) = 6.27824 7.05727 6.67912
#
# Compressibility (1/GPa) = 0.02045155
#
# Stress axis : x y z
#
# Youngs Moduli (GPa) = 31.99945 63.66016 66.62923
#
# Poissons Ratio (x) = 0.26254 0.99764
# Poissons Ratio (y) = 0.13197 0.11066
# Poissons Ratio (z) = 0.47913 0.10573
#
# Static dielectric constant tensor:
#      x y z
#    x 3.228250 0.000000 0.000000 
#    y 0.000000 3.238190 0.000000 
#    z 0.000000 0.000000 3.784470 
# 
# 
# High freq. dielectric constant tensor:
#      x y z
#    x 1.682070 0.000000 0.000000 
#    y 0.000000 1.698150 0.000000 
#    z 0.000000 0.000000 1.723590 
# 
# From -- ./inp_files/72845.got.cif
#   From: 2010.03.12/outbox.cif.g09.slc.cpg/sg65_37_cif.got.tgz:72845.got - 2010.04.10 20:52:16.
