data_PCOD8268971
_publ_section_title
;
Structure prediction by ZEFSAII (Michael W. Deem and Ramdas Pophale) SiO2 
 PCOD8268971
Probable space group: C M M M
;
_chemical_formula_sum "Si O2"
_cell_formula_units_Z 80
_cell_length_a 18.458177
_cell_length_b 9.067787
_cell_length_c 26.030065
_cell_angle_alpha 90.000000
_cell_angle_beta 90.000000
_cell_angle_gamma 90.000000
_cell_volume 4356.777377
_symmetry_space_group_name_H-M "C M M M"
_symmetry_group_IT_number 65
_symmetry_cell_setting 'orthorhombic'
loop_
_space_group_symop_operation_xyz
x,y,z
-x,-y,z
x,-y,-z
-x,y,-z
-x,-y,-z
x,y,-z
-x,y,z
x,-y,z
1/2+x,1/2+y,z
1/2-x,1/2-y,z
1/2+x,1/2-y,-z
1/2-x,1/2+y,-z
1/2-x,1/2-y,-z
1/2+x,1/2+y,-z
1/2-x,1/2+y,z
1/2+x,1/2-y,z
loop_
_atom_site_type_symbol
_atom_site_label
_atom_site_fract_x
_atom_site_fract_y
_atom_site_fract_z
Si Si1 0.413797 0.833541 0.299541
Si Si2 0.414012 0.668295 0.801142
Si Si3 0.176042 0.331938 0.000000
Si Si4 0.416332 0.672260 0.598927
Si Si5 0.172020 0.326306 0.111448
Si Si6 0.673103 0.673996 0.500000
O O1 0.500000 0.830710 0.299097
O O2 0.383901 0.741933 0.251064
O O3 0.385507 0.759086 0.351843
O O4 0.383973 0.000000 0.296375
O O5 0.500000 0.677698 0.803371
O O6 0.386937 0.500000 0.802809
O O7 0.383928 0.757375 0.849148
O O8 0.250000 0.250000 0.000000
O O9 0.136517 0.296104 0.054332
O O10 0.198856 0.500000 0.000000
O O11 0.500000 0.710541 0.588199
O O12 0.406488 0.500000 0.609966
O O13 0.371174 0.725610 0.549886
O O14 0.180604 0.500000 0.122243
O O15 0.250000 0.250000 0.117161
O O16 0.683728 0.500000 0.500000
O O17 0.750000 0.750000 0.500000
#
# Coordination Sequence:
#
# PCOD8268971 Si02
#       6
#    16  16   8  16  16   8
#     4   9  17  30  50  76 102 128 162 206 254 299
#     4  10  20  34  52  75 104 137 171 208 253 303
#     4   8  16  30  49  72  97 129 167 207 251 298
#     4   9  17  32  54  76  97 126 167 208 242 285
#     4  10  19  33  53  76 102 132 169 211 254 302
#     4  10  21  35  51  73 103 136 164 196 244 296
#
# _framework density 18.362196000000001
#
# number of rings (size 3 to 8) (size 9 to 14) (size 15 to 20)
#    0.000    2.600    0.000    2.100    0.000    6.400 
#    0.000    1.500    0.000    8.400    0.000    0.000 
#    0.000    0.000    0.000    0.000    0.000    0.000 
#
# Total GULP energy -495809.700347 kJ/mol
# GULP energy per Si atom -12395.242509 kJ/mol
# Density = 1.832040 g / cm^3
# Si number density = 18.362196 Si / 1000 Ang^3
#
#
#
# Elastic Constant Matrix: (Units=GPa)
#
#
# Indices 1 2 3 4 5 6 
#
# 1 40.3353 31.5710 45.0336 0.0000 0.0000 0.0000
# 2 31.5710 113.6005 86.0720 0.0000 0.0000 0.0000
# 3 45.0336 86.0720 194.9402 0.0000 0.0000 0.0000
# 4 0.0000 0.0000 0.0000 35.3101 0.0000 0.0000
# 5 0.0000 0.0000 0.0000 0.0000 4.7471 0.0000
# 6 0.0000 0.0000 0.0000 0.0000 0.0000 26.8455
#
#
#
# Elastic Compliance Matrix: (Units=1/GPa)
#
#
# Indices 1 2 3 4 5 6 
#
# 1 0.035555 -0.005497 -0.005787 0.000000 0.000000 0.000000
# 2 -0.005497 0.014078 -0.004946 0.000000 0.000000 0.000000
# 3 -0.005787 -0.004946 0.008650 0.000000 0.000000 0.000000
# 4 0.000000 0.000000 0.000000 0.028321 0.000000 0.000000
# 5 0.000000 0.000000 0.000000 0.000000 0.210654 0.000000
# 6 0.000000 0.000000 0.000000 0.000000 0.000000 0.037250
#
#
# Mechanical properties :
#
#
# Convention : Reuss Voigt Hill
#
# Bulk Modulus (GPa) = 38.72283 74.91434 56.81859
# Shear Modulus (GPa) = 13.31289 25.79382 19.55336
#
# Velocity S-wave (km/s) = 2.69553 3.75203 3.26678
# Velocity P-wave (km/s) = 5.55176 7.72380 6.72603
#
# Compressibility (1/GPa) = 0.02582456
#
# Stress axis : x y z
#
# Youngs Moduli (GPa) = 28.12514 71.03365 115.60211
#
# Poissons Ratio (x) = 0.39046 0.66896
# Poissons Ratio (y) = 0.15460 0.57176
# Poissons Ratio (z) = 0.16275 0.35133
#
# Static dielectric constant tensor:
#      x y z
#    x 2.922230 0.000000 0.000000 
#    y 0.000000 3.529590 0.000000 
#    z 0.000000 0.000000 3.941240 
# 
# 
# High freq. dielectric constant tensor:
#      x y z
#    x 1.664780 0.000000 0.000000 
#    y 0.000000 1.722170 0.000000 
#    z 0.000000 0.000000 1.735680 
# 
# From -- ./inp_files/67329.got.cif
#   From: 2010.03.12/outbox.cif.g09.slc.cpg/sg65_34_cif.got.tgz:67329.got - 2010.04.10 20:52:16.
