data_PCOD8268126
_publ_section_title
;
Structure prediction by ZEFSAII (Michael W. Deem and Ramdas Pophale) SiO2 
 PCOD8268126
Probable space group: C M M M
;
_chemical_formula_sum "Si O2"
_cell_formula_units_Z 88
_cell_length_a 8.050665
_cell_length_b 28.683048
_cell_length_c 19.234969
_cell_angle_alpha 90.000000
_cell_angle_beta 90.000000
_cell_angle_gamma 90.000000
_cell_volume 4441.693082
_symmetry_space_group_name_H-M "C M M M"
_symmetry_group_IT_number 65
_symmetry_cell_setting 'orthorhombic'
loop_
_space_group_symop_operation_xyz
x,y,z
-x,-y,z
x,-y,-z
-x,y,-z
-x,-y,-z
x,y,-z
-x,y,z
x,-y,z
1/2+x,1/2+y,z
1/2-x,1/2-y,z
1/2+x,1/2-y,-z
1/2-x,1/2+y,-z
1/2-x,1/2-y,-z
1/2+x,1/2+y,-z
1/2-x,1/2+y,z
1/2+x,1/2-y,z
loop_
_atom_site_type_symbol
_atom_site_label
_atom_site_fract_x
_atom_site_fract_y
_atom_site_fract_z
Si Si1 0.500000 0.946406 0.417974
Si Si2 0.194016 0.101165 0.657296
Si Si3 0.689341 0.200501 0.146213
Si Si4 0.306850 0.551998 0.799595
Si Si5 0.690842 0.701929 0.700549
Si Si6 0.193875 0.609949 0.076367
O O1 0.500000 0.942344 0.500000
O O2 0.328145 0.922655 0.392878
O O3 0.500000 0.000000 0.393136
O O4 0.238077 0.085675 0.735566
O O5 0.219748 0.157093 0.651311
O O6 0.000000 0.087895 0.638702
O O7 0.500000 0.196792 0.126792
O O8 0.750000 0.250000 0.117254
O O9 0.708453 0.196074 0.228739
O O10 0.779192 0.157138 0.107486
O O11 0.500000 0.552732 0.814071
O O12 0.244607 0.500000 0.780962
O O13 0.221161 0.567661 0.870645
O O14 0.500000 0.706112 0.721775
O O15 0.750000 0.750000 0.662495
O O16 0.000000 0.617362 0.068167
O O17 0.271189 0.599090 0.000000
#
# Coordination Sequence:
#
# PCOD8268126 Si02
#       6
#     8  16  16  16  16  16
#     4  11  26  44  68 102 133 169 209 243 301 373
#     4  10  22  40  65  96 129 165 206 256 305 363
#     4  10  19  31  50  74 107 145 189 243 297 359
#     4  10  21  37  57  81 109 145 194 247 299 355
#     4  10  19  31  55  90 121 154 199 251 307 361
#     4  10  22  37  51  72 106 148 194 246 305 363
#
# _framework density 19.812266000000001
#
# number of rings (size 3 to 8) (size 9 to 14) (size 15 to 20)
#    0.000    1.909    1.818    2.727    3.818    3.636 
#    0.000    2.727    0.000    0.545    0.000    0.000 
#    0.000    0.000    0.000    0.000    0.000    0.000 
#
# Total GULP energy -545346.985275 kJ/mol
# GULP energy per Si atom -12394.249665 kJ/mol
# Density = 1.976717 g / cm^3
# Si number density = 19.812266 Si / 1000 Ang^3
#
#
#
# Elastic Constant Matrix: (Units=GPa)
#
#
# Indices 1 2 3 4 5 6 
#
# 1 71.2875 46.5533 33.7699 0.0000 0.0000 0.0000
# 2 46.5533 141.7488 39.4753 0.0000 0.0000 0.0000
# 3 33.7699 39.4753 71.9474 0.0000 0.0000 0.0000
# 4 0.0000 0.0000 0.0000 20.8269 0.0000 0.0000
# 5 0.0000 0.0000 0.0000 0.0000 20.9527 0.0000
# 6 0.0000 0.0000 0.0000 0.0000 0.0000 32.2076
#
#
#
# Elastic Compliance Matrix: (Units=1/GPa)
#
#
# Indices 1 2 3 4 5 6 
#
# 1 0.020451 -0.004773 -0.006981 0.000000 0.000000 0.000000
# 2 -0.004773 0.009441 -0.002940 0.000000 0.000000 0.000000
# 3 -0.006981 -0.002940 0.018788 0.000000 0.000000 0.000000
# 4 0.000000 0.000000 0.000000 0.048015 0.000000 0.000000
# 5 0.000000 0.000000 0.000000 0.000000 0.047726 0.000000
# 6 0.000000 0.000000 0.000000 0.000000 0.000000 0.031049
#
#
# Mechanical properties :
#
#
# Convention : Reuss Voigt Hill
#
# Bulk Modulus (GPa) = 51.82800 58.28673 55.05736
# Shear Modulus (GPa) = 23.66441 25.80980 24.73710
#
# Velocity S-wave (km/s) = 3.45981 3.61323 3.53735
# Velocity P-wave (km/s) = 6.49436 6.84768 6.67336
#
# Compressibility (1/GPa) = 0.01929459
#
# Stress axis : x y z
#
# Youngs Moduli (GPa) = 48.89698 105.92261 53.22409
#
# Poissons Ratio (x) = 0.50553 0.37153
# Poissons Ratio (y) = 0.23337 0.15647
# Poissons Ratio (z) = 0.34133 0.31139
#
# Static dielectric constant tensor:
#      x y z
#    x 3.579930 0.000000 0.000000 
#    y 0.000000 4.404390 0.000000 
#    z 0.000000 0.000000 3.281470 
# 
# 
# High freq. dielectric constant tensor:
#      x y z
#    x 1.771540 0.000000 0.000000 
#    y 0.000000 1.791170 0.000000 
#    z 0.000000 0.000000 1.730500 
# 
# From -- ./inp_files/50367.got.cif
#   From: 2010.03.12/outbox.cif.g09.slc.cpg/sg65_26_cif.got.tgz:50367.got - 2010.04.10 20:52:16.
