data_PCOD8268482
_publ_section_title
;
Structure prediction by ZEFSAII (Michael W. Deem and Ramdas Pophale) SiO2 
 PCOD8268482
Probable space group: C M M M
;
_chemical_formula_sum "Si O2"
_cell_formula_units_Z 104
_cell_length_a 19.202869
_cell_length_b 8.920663
_cell_length_c 33.430777
_cell_angle_alpha 90.000000
_cell_angle_beta 90.000000
_cell_angle_gamma 90.000000
_cell_volume 5726.769759
_symmetry_space_group_name_H-M "C M M M"
_symmetry_group_IT_number 65
_symmetry_cell_setting 'orthorhombic'
loop_
_space_group_symop_operation_xyz
x,y,z
-x,-y,z
x,-y,-z
-x,y,-z
-x,-y,-z
x,y,-z
-x,y,z
x,-y,z
1/2+x,1/2+y,z
1/2-x,1/2-y,z
1/2+x,1/2-y,-z
1/2-x,1/2+y,-z
1/2-x,1/2-y,-z
1/2+x,1/2+y,-z
1/2-x,1/2+y,z
1/2+x,1/2-y,z
loop_
_atom_site_type_symbol
_atom_site_label
_atom_site_fract_x
_atom_site_fract_y
_atom_site_fract_z
Si Si1 0.323908 0.678949 0.313916
Si Si2 0.079238 0.324902 0.841798
Si Si3 0.677741 0.323386 0.454734
Si Si4 0.582949 0.668884 0.078703
Si Si5 0.083088 0.668781 0.000000
Si Si6 0.176848 0.678168 0.231003
Si Si7 0.922226 0.177700 0.614149
O O1 0.316362 0.500000 0.310674
O O2 0.250000 0.750000 0.326066
O O3 0.349946 0.747645 0.272048
O O4 0.380223 0.729031 0.346710
O O5 0.084090 0.500000 0.850204
O O6 0.111262 0.244811 0.880817
O O7 0.122185 0.277363 0.802969
O O8 0.000000 0.273941 0.834125
O O9 0.657783 0.277303 0.500000
O O10 0.687354 0.500000 0.450436
O O11 0.750000 0.250000 0.441346
O O12 0.617007 0.263593 0.425611
O O13 0.500000 0.677806 0.078294
O O14 0.610319 0.500000 0.077526
O O15 0.613076 0.751571 0.039617
O O16 0.110621 0.500000 0.000000
O O17 0.000000 0.675560 0.000000
O O18 0.184488 0.500000 0.236425
O O19 0.250000 0.750000 0.218481
O O20 0.000000 0.247093 0.615287
O O21 0.926836 0.000000 0.612842
#
# Coordination Sequence:
#
# PCOD8268482 Si02
#       7
#    16  16  16  16   8  16  16
#     4  10  19  32  51  70  91 121 155 193 234 278
#     4   9  18  32  48  67  93 124 155 189 234 284
#     4   9  17  30  50  73  96 126 163 201 239 281
#     4   9  16  25  39  62  91 121 155 196 238 279
#     4   9  15  23  37  57  86 125 162 195 234 281
#     4  10  20  34  52  72  95 123 157 197 236 280
#     4   9  18  31  47  71 100 126 156 196 240 284
#
# _framework density 18.160325
#
# number of rings (size 3 to 8) (size 9 to 14) (size 15 to 20)
#    0.000    2.692    0.000    3.000    0.000    4.923 
#    0.000    2.308    0.000    3.692    0.000    2.692 
#    0.000    0.000    0.000    0.000    0.000    0.000 
#
# Total GULP energy -644739.003655 kJ/mol
# GULP energy per Si atom -12398.826993 kJ/mol
# Density = 1.811899 g / cm^3
# Si number density = 18.160325 Si / 1000 Ang^3
#
#
#
# Elastic Constant Matrix: (Units=GPa)
#
#
# Indices 1 2 3 4 5 6 
#
# 1 98.6395 36.0465 91.7520 0.0000 0.0000 0.0000
# 2 36.0465 73.7629 59.2186 0.0000 0.0000 0.0000
# 3 91.7520 59.2186 176.8263 0.0000 0.0000 0.0000
# 4 0.0000 0.0000 0.0000 26.1754 0.0000 0.0000
# 5 0.0000 0.0000 0.0000 0.0000 14.8787 0.0000
# 6 0.0000 0.0000 0.0000 0.0000 0.0000 18.1208
#
#
#
# Elastic Compliance Matrix: (Units=1/GPa)
#
#
# Indices 1 2 3 4 5 6 
#
# 1 0.019799 -0.001953 -0.009620 0.000000 0.000000 0.000000
# 2 -0.001953 0.018735 -0.005261 0.000000 0.000000 0.000000
# 3 -0.009620 -0.005261 0.012409 0.000000 0.000000 0.000000
# 4 0.000000 0.000000 0.000000 0.038204 0.000000 0.000000
# 5 0.000000 0.000000 0.000000 0.000000 0.067210 0.000000
# 6 0.000000 0.000000 0.000000 0.000000 0.000000 0.055185
#
#
# Mechanical properties :
#
#
# Convention : Reuss Voigt Hill
#
# Bulk Modulus (GPa) = 57.88315 80.36255 69.12285
# Shear Modulus (GPa) = 19.92289 22.64908 21.28599
#
# Velocity S-wave (km/s) = 3.31578 3.53537 3.42733
# Velocity P-wave (km/s) = 6.82655 7.81107 7.33535
#
# Compressibility (1/GPa) = 0.01727619
#
# Stress axis : x y z
#
# Youngs Moduli (GPa) = 50.50649 53.37639 80.58938
#
# Poissons Ratio (x) = 0.10423 0.77524
# Poissons Ratio (y) = 0.09863 0.42398
# Poissons Ratio (z) = 0.48585 0.28081
#
# Static dielectric constant tensor:
#      x y z
#    x 3.213620 0.000000 0.000000 
#    y 0.000000 3.274270 0.000000 
#    z 0.000000 0.000000 3.582160 
# 
# 
# High freq. dielectric constant tensor:
#      x y z
#    x 1.669420 0.000000 0.000000 
#    y 0.000000 1.695980 0.000000 
#    z 0.000000 0.000000 1.720890 
# 
# From -- ./inp_files/78209.got.cif
#   From: 2010.03.12/outbox.cif.g09.slc.cpg/sg65_40_cif.got.tgz:78209.got - 2010.04.10 20:52:16.
