data_PCOD8268991
_publ_section_title
;
Structure prediction by ZEFSAII (Michael W. Deem and Ramdas Pophale) SiO2 
 PCOD8268991
Probable space group: C M M M
;
_chemical_formula_sum "Si O2"
_cell_formula_units_Z 104
_cell_length_a 28.611333
_cell_length_b 8.937607
_cell_length_c 22.998307
_cell_angle_alpha 90.000000
_cell_angle_beta 90.000000
_cell_angle_gamma 90.000000
_cell_volume 5881.054624
_symmetry_space_group_name_H-M "C M M M"
_symmetry_group_IT_number 65
_symmetry_cell_setting 'orthorhombic'
loop_
_space_group_symop_operation_xyz
x,y,z
-x,-y,z
x,-y,-z
-x,y,-z
-x,-y,-z
x,y,-z
-x,y,z
x,-y,z
1/2+x,1/2+y,z
1/2-x,1/2-y,z
1/2+x,1/2-y,-z
1/2-x,1/2+y,-z
1/2-x,1/2-y,-z
1/2+x,1/2+y,-z
1/2-x,1/2+y,z
1/2+x,1/2-y,z
loop_
_atom_site_type_symbol
_atom_site_label
_atom_site_fract_x
_atom_site_fract_y
_atom_site_fract_z
Si Si1 0.108620 0.677636 0.279809
Si Si2 0.946731 0.675147 0.833691
Si Si3 0.892821 0.176762 0.934157
Si Si4 0.555562 0.830713 0.500000
Si Si5 0.296638 0.674572 0.117842
Si Si6 0.797491 0.176048 0.252615
Si Si7 0.944535 0.171497 0.383526
O O1 0.113296 0.500000 0.282268
O O2 0.085174 0.731611 0.219507
O O3 0.159256 0.752369 0.286916
O O4 0.076098 0.732161 0.331530
O O5 0.940776 0.500000 0.842980
O O6 0.932142 0.754281 0.893205
O O7 0.000000 0.718432 0.819436
O O8 0.841419 0.236904 0.916769
O O9 0.894224 0.000000 0.926209
O O10 0.903808 0.225300 0.000000
O O11 0.500000 0.833642 0.500000
O O12 0.574018 0.742626 0.556432
O O13 0.575400 0.000000 0.500000
O O14 0.290523 0.500000 0.108516
O O15 0.250000 0.750000 0.092404
O O16 0.303590 0.716791 0.185054
O O17 0.750000 0.250000 0.276786
O O18 0.795918 0.000000 0.263927
O O19 0.000000 0.182307 0.379588
O O20 0.927615 0.000000 0.379874
#
# Coordination Sequence:
#
# PCOD8268991 Si02
#       7
#    16  16  16   8  16  16  16
#     4  11  21  34  54  79 107 138 175 218 266 315
#     4  10  22  38  54  73  99 131 169 215 263 310
#     4  10  21  37  54  73  98 129 167 210 258 315
#     4   9  17  31  51  75 108 149 188 225 263 305
#     4   9  18  32  51  74 100 127 159 201 253 311
#     4  10  19  33  53  77 105 135 169 210 261 316
#     4  10  20  33  51  78 112 149 186 223 264 311
#
# _framework density 17.683903000000001
#
# number of rings (size 3 to 8) (size 9 to 14) (size 15 to 20)
#    0.000    2.077    1.538    2.077    0.000    5.538 
#    0.000    1.538    0.000    0.000    0.000    0.538 
#    0.000    0.000    0.000    0.000    0.000    0.000 
#
# Total GULP energy -644960.327982 kJ/mol
# GULP energy per Si atom -12403.083230 kJ/mol
# Density = 1.764365 g / cm^3
# Si number density = 17.683903 Si / 1000 Ang^3
#
#
#
# Elastic Constant Matrix: (Units=GPa)
#
#
# Indices 1 2 3 4 5 6 
#
# 1 74.9936 35.6294 29.0326 0.0000 0.0000 0.0000
# 2 35.6294 66.4541 34.7933 0.0000 0.0000 0.0000
# 3 29.0326 34.7933 90.3006 0.0000 0.0000 0.0000
# 4 0.0000 0.0000 0.0000 28.8796 0.0000 0.0000
# 5 0.0000 0.0000 0.0000 0.0000 13.9818 0.0000
# 6 0.0000 0.0000 0.0000 0.0000 0.0000 32.4739
#
#
#
# Elastic Compliance Matrix: (Units=1/GPa)
#
#
# Indices 1 2 3 4 5 6 
#
# 1 0.018383 -0.008471 -0.002647 0.000000 0.000000 0.000000
# 2 -0.008471 0.022754 -0.006044 0.000000 0.000000 0.000000
# 3 -0.002647 -0.006044 0.014254 0.000000 0.000000 0.000000
# 4 0.000000 0.000000 0.000000 0.034627 0.000000 0.000000
# 5 0.000000 0.000000 0.000000 0.000000 0.071522 0.000000
# 6 0.000000 0.000000 0.000000 0.000000 0.000000 0.030794
#
#
# Mechanical properties :
#
#
# Convention : Reuss Voigt Hill
#
# Bulk Modulus (GPa) = 47.46332 47.85099 47.65715
# Shear Modulus (GPa) = 21.39692 23.88659 22.64175
#
# Velocity S-wave (km/s) = 3.48223 3.67925 3.58209
# Velocity P-wave (km/s) = 6.56247 6.72064 6.64202
#
# Compressibility (1/GPa) = 0.02106890
#
# Stress axis : x y z
#
# Youngs Moduli (GPa) = 54.39665 43.94866 70.15691
#
# Poissons Ratio (x) = 0.37227 0.18569
# Poissons Ratio (y) = 0.46077 0.42401
# Poissons Ratio (z) = 0.14397 0.26562
#
# Static dielectric constant tensor:
#      x y z
#    x 3.266020 0.000000 0.000000 
#    y 0.000000 3.299630 0.000000 
#    z 0.000000 0.000000 3.203440 
# 
# 
# High freq. dielectric constant tensor:
#      x y z
#    x 1.675980 0.000000 0.000000 
#    y 0.000000 1.689990 0.000000 
#    z 0.000000 0.000000 1.668310 
# 
# From -- ./inp_files/60876.got.cif
#   From: 2010.03.12/outbox.cif.g09.slc.cpg/sg65_31_cif.got.tgz:60876.got - 2010.04.10 20:52:16.
