data_PCOD8268161
_publ_section_title
;
Structure prediction by ZEFSAII (Michael W. Deem and Ramdas Pophale) SiO2 
 PCOD8268161
Probable space group: C M M M
;
_chemical_formula_sum "Si O2"
_cell_formula_units_Z 72
_cell_length_a 9.052649
_cell_length_b 14.915173
_cell_length_c 26.993965
_cell_angle_alpha 90.000000
_cell_angle_beta 90.000000
_cell_angle_gamma 90.000000
_cell_volume 3644.774444
_symmetry_space_group_name_H-M "C M M M"
_symmetry_group_IT_number 65
_symmetry_cell_setting 'orthorhombic'
loop_
_space_group_symop_operation_xyz
x,y,z
-x,-y,z
x,-y,-z
-x,y,-z
-x,-y,-z
x,y,-z
-x,y,z
x,-y,z
1/2+x,1/2+y,z
1/2-x,1/2-y,z
1/2+x,1/2-y,-z
1/2-x,1/2+y,-z
1/2-x,1/2-y,-z
1/2+x,1/2+y,-z
1/2-x,1/2+y,z
1/2+x,1/2-y,z
loop_
_atom_site_type_symbol
_atom_site_label
_atom_site_fract_x
_atom_site_fract_y
_atom_site_fract_z
Si Si1 0.324845 0.161212 0.747353
Si Si2 0.175354 0.500000 0.074523
Si Si3 0.165927 0.393374 0.554516
Si Si4 0.824963 0.652059 0.000000
Si Si5 0.324659 0.000000 0.185224
Si Si6 0.833580 0.106535 0.649394
O O1 0.500000 0.169333 0.747019
O O2 0.250000 0.250000 0.768579
O O3 0.271922 0.143882 0.691724
O O4 0.267416 0.085416 0.784643
O O5 0.226042 0.591966 0.047277
O O6 0.242675 0.500000 0.129880
O O7 0.000000 0.500000 0.075049
O O8 0.219775 0.360652 0.500000
O O9 0.166951 0.500000 0.555999
O O10 0.275119 0.355593 0.596739
O O11 0.000000 0.358779 0.564858
O O12 0.750000 0.750000 0.000000
O O13 0.000000 0.667768 0.000000
O O14 0.500000 0.000000 0.182462
O O15 0.000000 0.141644 0.657663
O O16 0.827702 0.000000 0.650274
#
# Coordination Sequence:
#
# PCOD8268161 Si02
#       6
#    16   8  16   8   8  16
#     4  11  22  37  56  79 105 141 184 229 279 333
#     4   8  16  33  54  80 112 153 193 225 270 331
#     4   8  14  25  43  69 100 134 173 216 264 324
#     4   9  17  31  56  84 116 153 191 231 272 322
#     4   9  19  36  58  80 109 147 190 231 274 330
#     4  10  19  31  50  75 104 138 176 223 273 327
#
# _framework density 19.754308999999999
#
# number of rings (size 3 to 8) (size 9 to 14) (size 15 to 20)
#    0.000    2.667    1.111    2.667    0.000    2.222 
#    0.000    3.333    0.000    4.667    0.000    0.000 
#    0.000    0.000    0.000    0.000    0.000    0.000 
#
# Total GULP energy -446238.553487 kJ/mol
# GULP energy per Si atom -12395.515375 kJ/mol
# Density = 1.970935 g / cm^3
# Si number density = 19.754309 Si / 1000 Ang^3
#
#
#
# Elastic Constant Matrix: (Units=GPa)
#
#
# Indices 1 2 3 4 5 6 
#
# 1 79.9337 42.8803 44.6210 0.0000 0.0000 0.0000
# 2 42.8803 118.4417 70.0823 0.0000 0.0000 0.0000
# 3 44.6210 70.0823 168.0469 0.0000 0.0000 0.0000
# 4 0.0000 0.0000 0.0000 -27.3310 0.0000 0.0000
# 5 0.0000 0.0000 0.0000 0.0000 12.8242 0.0000
# 6 0.0000 0.0000 0.0000 0.0000 0.0000 28.5285
#
#
#
# Elastic Compliance Matrix: (Units=1/GPa)
#
#
# Indices 1 2 3 4 5 6 
#
# 1 0.016265 -0.004425 -0.002473 0.000000 0.000000 0.000000
# 2 -0.004425 0.012413 -0.004002 0.000000 0.000000 0.000000
# 3 -0.002473 -0.004002 0.008276 0.000000 0.000000 0.000000
# 4 0.000000 0.000000 0.000000 -0.036589 0.000000 0.000000
# 5 0.000000 0.000000 0.000000 0.000000 0.077977 0.000000
# 6 0.000000 0.000000 0.000000 0.000000 0.000000 0.035053
#
#
# Mechanical properties :
#
#
# Convention : Reuss Voigt Hill
#
# Bulk Modulus (GPa) = 65.98958 75.73218 70.86088
# Shear Modulus (GPa) = 35.65142 16.72693 26.18917
#
# Velocity S-wave (km/s) = 4.25283 2.91305 3.64503
# Velocity P-wave (km/s) = 7.58901 7.05229 7.32557
#
# Compressibility (1/GPa) = 0.01515391
#
# Stress axis : x y z
#
# Youngs Moduli (GPa) = 61.48227 80.56211 120.82662
#
# Poissons Ratio (x) = 0.35649 0.29885
# Poissons Ratio (y) = 0.27206 0.48351
# Poissons Ratio (z) = 0.15207 0.32238
#
# Static dielectric constant tensor:
#      x y z
#    x 3.423130 0.000000 0.000000 
#    y 0.000000 3.590620 0.000000 
#    z 0.000000 0.000000 3.966890 
# 
# 
# High freq. dielectric constant tensor:
#      x y z
#    x 1.746540 0.000000 0.000000 
#    y 0.000000 1.762940 0.000000 
#    z 0.000000 0.000000 1.772540 
# 
# From -- ./inp_files/76382.got.cif
#   From: 2010.03.12/outbox.cif.g09.slc.cpg/sg65_39_cif.got.tgz:76382.got - 2010.04.10 20:52:16.
