data_PCOD8268050
_publ_section_title
;
Structure prediction by ZEFSAII (Michael W. Deem and Ramdas Pophale) SiO2 
 PCOD8268050
Probable space group: C M M M
;
_chemical_formula_sum "Si O2"
_cell_formula_units_Z 72
_cell_length_a 16.525075
_cell_length_b 17.776187
_cell_length_c 12.913606
_cell_angle_alpha 90.000000
_cell_angle_beta 90.000000
_cell_angle_gamma 90.000000
_cell_volume 3793.408223
_symmetry_space_group_name_H-M "C M M M"
_symmetry_group_IT_number 65
_symmetry_cell_setting 'orthorhombic'
loop_
_space_group_symop_operation_xyz
x,y,z
-x,-y,z
x,-y,-z
-x,y,-z
-x,-y,-z
x,y,-z
-x,y,z
x,-y,z
1/2+x,1/2+y,z
1/2-x,1/2-y,z
1/2+x,1/2-y,-z
1/2-x,1/2+y,-z
1/2-x,1/2-y,-z
1/2+x,1/2+y,-z
1/2-x,1/2+y,z
1/2+x,1/2-y,z
loop_
_atom_site_type_symbol
_atom_site_label
_atom_site_fract_x
_atom_site_fract_y
_atom_site_fract_z
Si Si1 0.911980 0.411028 0.000000
Si Si2 0.314873 0.913667 0.197724
Si Si3 0.840677 0.842588 0.119224
Si Si4 0.337656 0.769400 0.696250
Si Si5 0.000000 0.802731 0.617208
Si Si6 0.500000 0.588418 0.805453
O O1 0.867772 0.384305 0.897595
O O2 0.917273 0.500000 0.000000
O O3 0.000000 0.372980 0.000000
O O4 0.222351 0.903045 0.164382
O O5 0.340006 0.860088 0.293197
O O6 0.330747 0.000000 0.229505
O O7 0.838535 0.767404 0.188801
O O8 0.924996 0.885182 0.126710
O O9 0.823288 0.820500 0.000000
O O10 0.250000 0.750000 0.642667
O O11 0.417111 0.745012 0.632707
O O12 0.000000 0.832298 0.500000
O O13 0.000000 0.874372 0.691644
O O14 0.500000 0.500000 0.787911
#
# Coordination Sequence:
#
# PCOD8268050 Si02
#       6
#     8  16  16  16   8   8
#     4   9  18  28  39  65  99 139 182 214 244 282
#     4  10  19  31  49  73 107 146 183 217 252 296
#     4  10  19  32  49  76 115 154 180 205 246 304
#     4   9  21  36  54  80 107 140 179 219 266 314
#     4  10  22  42  62  80 100 130 175 224 281 334
#     4  10  21  35  54  82 109 135 175 218 258 310
#
# _framework density 18.980294000000001
#
# number of rings (size 3 to 8) (size 9 to 14) (size 15 to 20)
#    0.000    2.333    1.111    1.000    3.111    3.778 
#    0.000    0.000    0.000    1.333    0.000    0.000 
#    0.000    0.000    0.000    0.000    0.000    0.000 
#
# Total GULP energy -446205.515595 kJ/mol
# GULP energy per Si atom -12394.597655 kJ/mol
# Density = 1.893709 g / cm^3
# Si number density = 18.980294 Si / 1000 Ang^3
#
#
#
# Elastic Constant Matrix: (Units=GPa)
#
#
# Indices 1 2 3 4 5 6 
#
# 1 119.7898 21.0351 -1.9837 0.0000 0.0000 0.0000
# 2 21.0351 94.4825 12.1542 0.0000 0.0000 0.0000
# 3 -1.9837 12.1542 53.6979 0.0000 0.0000 0.0000
# 4 0.0000 0.0000 0.0000 8.2514 0.0000 0.0000
# 5 0.0000 0.0000 0.0000 0.0000 17.1908 0.0000
# 6 0.0000 0.0000 0.0000 0.0000 0.0000 21.7116
#
#
#
# Elastic Compliance Matrix: (Units=1/GPa)
#
#
# Indices 1 2 3 4 5 6 
#
# 1 0.008720 -0.002042 0.000784 0.000000 0.000000 0.000000
# 2 -0.002042 0.011380 -0.002651 0.000000 0.000000 0.000000
# 3 0.000784 -0.002651 0.019252 0.000000 0.000000 0.000000
# 4 0.000000 0.000000 0.000000 0.121191 0.000000 0.000000
# 5 0.000000 0.000000 0.000000 0.000000 0.058171 0.000000
# 6 0.000000 0.000000 0.000000 0.000000 0.000000 0.046058
#
#
# Mechanical properties :
#
#
# Convention : Reuss Voigt Hill
#
# Bulk Modulus (GPa) = 31.71279 36.70903 34.21091
# Shear Modulus (GPa) = 17.66161 25.21509 21.43835
#
# Velocity S-wave (km/s) = 3.05376 3.64880 3.36446
# Velocity P-wave (km/s) = 5.40171 6.09378 5.75815
#
# Compressibility (1/GPa) = 0.03153302
#
# Stress axis : x y z
#
# Youngs Moduli (GPa) = 114.68486 87.87604 51.94334
#
# Poissons Ratio (x) = 0.17946 -0.04074
# Poissons Ratio (y) = 0.23421 0.13771
# Poissons Ratio (z) = -0.08995 0.23297
#
# Static dielectric constant tensor:
#      x y z
#    x 3.729750 0.000000 0.000000 
#    y 0.000000 3.300350 0.000000 
#    z 0.000000 0.000000 3.035220 
# 
# 
# High freq. dielectric constant tensor:
#      x y z
#    x 1.761970 0.000000 0.000000 
#    y 0.000000 1.731890 0.000000 
#    z 0.000000 0.000000 1.693410 
# 
# From -- ./inp_files/39888.got.cif
#   From: 2010.03.12/outbox.cif.g09.slc.cpg/sg65_20_cif.got.tgz:39888.got - 2010.04.10 20:52:16.
