data_PCOD8268935
_publ_section_title
;
Structure prediction by ZEFSAII (Michael W. Deem and Ramdas Pophale) SiO2 
 PCOD8268935
Probable space group: C M M M
;
_chemical_formula_sum "Si O2"
_cell_formula_units_Z 104
_cell_length_a 29.573019
_cell_length_b 9.024749
_cell_length_c 22.922913
_cell_angle_alpha 90.000000
_cell_angle_beta 90.000000
_cell_angle_gamma 90.000000
_cell_volume 6117.875016
_symmetry_space_group_name_H-M "C M M M"
_symmetry_group_IT_number 65
_symmetry_cell_setting 'orthorhombic'
loop_
_space_group_symop_operation_xyz
x,y,z
-x,-y,z
x,-y,-z
-x,y,-z
-x,-y,-z
x,y,-z
-x,y,z
x,-y,z
1/2+x,1/2+y,z
1/2-x,1/2-y,z
1/2+x,1/2-y,-z
1/2-x,1/2+y,-z
1/2-x,1/2-y,-z
1/2+x,1/2+y,-z
1/2-x,1/2+y,z
1/2+x,1/2-y,z
loop_
_atom_site_type_symbol
_atom_site_label
_atom_site_fract_x
_atom_site_fract_y
_atom_site_fract_z
Si Si1 0.553695 0.167608 0.676785
Si Si2 0.793389 0.833976 0.902029
Si Si3 0.609100 0.676916 0.226665
Si Si4 0.050441 0.324861 0.000000
Si Si5 0.053730 0.833576 0.435818
Si Si6 0.614302 0.176533 0.104310
Si Si7 0.207965 0.838070 0.236059
O O1 0.500000 0.176674 0.678941
O O2 0.571745 0.273223 0.727481
O O3 0.572344 0.224732 0.614288
O O4 0.570776 0.000000 0.685934
O O5 0.750000 0.750000 0.929349
O O6 0.838006 0.741238 0.917693
O O7 0.787229 0.845328 0.833121
O O8 0.796915 0.000000 0.928400
O O9 0.608472 0.500000 0.217691
O O10 0.598462 0.754591 0.165420
O O11 0.658525 0.730148 0.250209
O O12 0.076755 0.273271 0.942229
O O13 0.047117 0.500000 0.000000
O O14 0.000000 0.255041 0.000000
O O15 0.070619 0.780330 0.500000
O O16 0.000000 0.833091 0.434954
O O17 0.071367 0.000000 0.423404
O O18 0.618693 0.000000 0.110168
O O19 0.250000 0.750000 0.264001
O O20 0.211202 0.000000 0.264043
#
# Coordination Sequence:
#
# PCOD8268935 Si02
#       7
#    16  16  16   8  16  16  16
#     4  10  20  31  44  66  95 127 163 200 237 276
#     4   9  16  28  47  72  99 123 148 179 222 277
#     4  10  20  33  48  69  97 126 156 191 234 283
#     4   9  20  38  56  71  88 115 154 199 242 285
#     4   8  14  26  44  64  88 122 160 194 232 278
#     4  10  19  33  53  73  93 119 153 193 238 286
#     4   8  15  26  42  64  89 117 147 180 220 269
#
# _framework density 16.999366999999999
#
# number of rings (size 3 to 8) (size 9 to 14) (size 15 to 20)
#    0.000    2.846    0.000    3.231    0.000    6.154 
#    0.000    5.000    0.000    3.231    0.000    0.000 
#    0.000    0.615    0.000    2.000    0.000    2.615 
#
# Total GULP energy -644505.679128 kJ/mol
# GULP energy per Si atom -12394.339983 kJ/mol
# Density = 1.696068 g / cm^3
# Si number density = 16.999367 Si / 1000 Ang^3
#
#
#
# Elastic Constant Matrix: (Units=GPa)
#
#
# Indices 1 2 3 4 5 6 
#
# 1 80.4426 40.1757 45.3003 0.0000 0.0000 0.0000
# 2 40.1757 94.4058 42.4011 0.0000 0.0000 0.0000
# 3 45.3003 42.4011 87.7637 0.0000 0.0000 0.0000
# 4 0.0000 0.0000 0.0000 12.4270 0.0000 0.0000
# 5 0.0000 0.0000 0.0000 0.0000 -0.3888 0.0000
# 6 0.0000 0.0000 0.0000 0.0000 0.0000 25.3453
#
#
#
# Elastic Compliance Matrix: (Units=1/GPa)
#
#
# Indices 1 2 3 4 5 6 
#
# 1 0.019035 -0.004710 -0.007550 0.000000 0.000000 0.000000
# 2 -0.004710 0.014693 -0.004668 0.000000 0.000000 0.000000
# 3 -0.007550 -0.004668 0.017546 0.000000 0.000000 0.000000
# 4 0.000000 0.000000 0.000000 0.080470 0.000000 0.000000
# 5 0.000000 0.000000 0.000000 0.000000 -2.571904 0.000000
# 6 0.000000 0.000000 0.000000 0.000000 0.000000 0.039455
#
#
# Mechanical properties :
#
#
# Convention : Reuss Voigt Hill
#
# Bulk Modulus (GPa) = 57.40503 57.59625 57.50064
# Shear Modulus (GPa) = -2.11771 16.45903 7.17066
#
# Velocity S-wave (km/s) = -1.11735 3.11499 2.05605
# Velocity P-wave (km/s) = 5.67253 6.84781 6.28769
#
# Compressibility (1/GPa) = 0.01742008
#
# Stress axis : x y z
#
# Youngs Moduli (GPa) = 52.53489 68.05814 56.99222
#
# Poissons Ratio (x) = 0.32054 0.43028
# Poissons Ratio (y) = 0.24743 0.26603
# Poissons Ratio (z) = 0.39662 0.31768
#
# Static dielectric constant tensor:
#      x y z
#    x 3.203010 0.000000 0.000000 
#    y 0.000000 3.344760 0.000000 
#    z 0.000000 0.000000 3.041150 
# 
# 
# High freq. dielectric constant tensor:
#      x y z
#    x 1.636720 0.000000 0.000000 
#    y 0.000000 1.661150 0.000000 
#    z 0.000000 0.000000 1.627340 
# 
# From -- ./inp_files/71821.got.cif
#   From: 2010.03.12/outbox.cif.g09.slc.cpg/sg65_36_cif.got.tgz:71821.got - 2010.04.10 20:52:16.
