data_PCOD8268359
_publ_section_title
;
Structure prediction by ZEFSAII (Michael W. Deem and Ramdas Pophale) SiO2 
 PCOD8268359
Probable space group: C M M M
;
_chemical_formula_sum "Si O2"
_cell_formula_units_Z 104
_cell_length_a 32.714271
_cell_length_b 17.259507
_cell_length_c 11.988733
_cell_angle_alpha 90.000000
_cell_angle_beta 90.000000
_cell_angle_gamma 90.000000
_cell_volume 6769.224561
_symmetry_space_group_name_H-M "C M M M"
_symmetry_group_IT_number 65
_symmetry_cell_setting 'orthorhombic'
loop_
_space_group_symop_operation_xyz
x,y,z
-x,-y,z
x,-y,-z
-x,y,-z
-x,-y,-z
x,y,-z
-x,y,z
x,-y,z
1/2+x,1/2+y,z
1/2-x,1/2-y,z
1/2+x,1/2-y,-z
1/2-x,1/2+y,-z
1/2-x,1/2-y,-z
1/2+x,1/2+y,-z
1/2-x,1/2+y,z
1/2+x,1/2-y,z
loop_
_atom_site_type_symbol
_atom_site_label
_atom_site_fract_x
_atom_site_fract_y
_atom_site_fract_z
Si Si1 0.172671 0.166585 0.226186
Si Si2 0.611520 0.590637 0.621726
Si Si3 0.240433 0.592116 0.210372
Si Si4 0.454523 0.587561 0.212900
Si Si5 0.863493 0.780494 0.000000
Si Si6 0.292221 0.205122 0.625407
Si Si7 0.784720 0.318984 0.000000
Si Si8 0.545716 0.694047 0.000000
O O1 0.153008 0.108108 0.313921
O O2 0.215179 0.128596 0.194296
O O3 0.145313 0.171509 0.113931
O O4 0.177813 0.249406 0.289202
O O5 0.612448 0.630524 0.500000
O O6 0.606553 0.500000 0.607136
O O7 0.573517 0.624739 0.691015
O O8 0.241864 0.500000 0.209656
O O9 0.217718 0.620454 0.323250
O O10 0.216288 0.625811 0.105950
O O11 0.500000 0.587336 0.261755
O O12 0.440489 0.500000 0.182327
O O13 0.451325 0.639114 0.104900
O O14 0.831062 0.711554 0.000000
O O15 0.912153 0.754058 0.000000
O O16 0.311001 0.196329 0.500000
O O17 0.250000 0.250000 0.616923
O O18 0.750000 0.250000 0.000000
O O19 0.500000 0.736537 0.000000
#
# Coordination Sequence:
#
# PCOD8268359 Si02
#       8
#    16  16  16  16   8  16   8   8
#     4  11  19  33  48  69  93 125 166 199 241 285
#     4  10  20  31  43  63  91 122 162 208 243 276
#     4  11  21  32  48  70  98 127 159 206 247 279
#     4   9  17  29  44  61  85 118 154 194 242 292
#     4  12  20  31  55  70  90 124 158 197 240 291
#     4   9  18  32  49  65  88 128 168 196 231 283
#     4  12  19  36  50  70  97 128 165 197 238 297
#     4  10  19  32  48  71  93 114 151 200 248 287
#
# _framework density 15.36365
#
# number of rings (size 3 to 8) (size 9 to 14) (size 15 to 20)
#    0.000    1.692    4.615    1.846    0.000    2.154 
#    0.000    2.692    0.000    0.000    0.000    0.000 
#    0.000    1.231    0.000    0.000    0.000    2.308 
#
# Total GULP energy -644262.997944 kJ/mol
# GULP energy per Si atom -12389.673037 kJ/mol
# Density = 1.532868 g / cm^3
# Si number density = 15.363650 Si / 1000 Ang^3
#
#
#
# Elastic Constant Matrix: (Units=GPa)
#
#
# Indices 1 2 3 4 5 6 
#
# 1 87.9721 17.2343 31.9557 0.0000 0.0000 0.0000
# 2 17.2343 52.7960 23.7855 0.0000 0.0000 0.0000
# 3 31.9557 23.7855 115.6137 0.0000 0.0000 0.0000
# 4 0.0000 0.0000 0.0000 17.7383 0.0000 0.0000
# 5 0.0000 0.0000 0.0000 0.0000 21.1090 0.0000
# 6 0.0000 0.0000 0.0000 0.0000 0.0000 17.9093
#
#
#
# Elastic Compliance Matrix: (Units=1/GPa)
#
#
# Indices 1 2 3 4 5 6 
#
# 1 0.013026 -0.002899 -0.003004 0.000000 0.000000 0.000000
# 2 -0.002899 0.021521 -0.003626 0.000000 0.000000 0.000000
# 3 -0.003004 -0.003626 0.010226 0.000000 0.000000 0.000000
# 4 0.000000 0.000000 0.000000 0.056375 0.000000 0.000000
# 5 0.000000 0.000000 0.000000 0.000000 0.047373 0.000000
# 6 0.000000 0.000000 0.000000 0.000000 0.000000 0.055837
#
#
# Mechanical properties :
#
#
# Convention : Reuss Voigt Hill
#
# Bulk Modulus (GPa) = 38.88839 44.70363 41.79601
# Shear Modulus (GPa) = 21.55280 23.57840 22.56560
#
# Velocity S-wave (km/s) = 3.74952 3.92176 3.83661
# Velocity P-wave (km/s) = 6.64169 7.04749 6.84760
#
# Compressibility (1/GPa) = 0.02571461
#
# Stress axis : x y z
#
# Youngs Moduli (GPa) = 76.76737 46.46665 97.79105
#
# Poissons Ratio (x) = 0.13470 0.29378
# Poissons Ratio (y) = 0.22253 0.35462
# Poissons Ratio (z) = 0.23062 0.16850
#
# Static dielectric constant tensor:
#      x y z
#    x 3.110430 0.000000 0.000000 
#    y 0.000000 2.670750 0.000000 
#    z 0.000000 0.000000 3.494620 
# 
# 
# High freq. dielectric constant tensor:
#      x y z
#    x 1.577180 0.000000 0.000000 
#    y 0.000000 1.542070 0.000000 
#    z 0.000000 0.000000 1.613050 
# 
# From -- ./inp_files/34188.got.cif
#   From: 2010.03.12/outbox.cif.g09.slc.cpg/sg65_18_cif.got.tgz:34188.got - 2010.04.10 20:52:16.
