data_PCOD8268404
_publ_section_title
;
Structure prediction by ZEFSAII (Michael W. Deem and Ramdas Pophale) SiO2 
 PCOD8268404
Probable space group: C M M M
;
_chemical_formula_sum "Si O2"
_cell_formula_units_Z 120
_cell_length_a 27.604300
_cell_length_b 18.656409
_cell_length_c 12.930583
_cell_angle_alpha 90.000000
_cell_angle_beta 90.000000
_cell_angle_gamma 90.000000
_cell_volume 6659.212888
_symmetry_space_group_name_H-M "C M M M"
_symmetry_group_IT_number 65
_symmetry_cell_setting 'orthorhombic'
loop_
_space_group_symop_operation_xyz
x,y,z
-x,-y,z
x,-y,-z
-x,y,-z
-x,-y,-z
x,y,-z
-x,y,z
x,-y,z
1/2+x,1/2+y,z
1/2-x,1/2-y,z
1/2+x,1/2-y,-z
1/2-x,1/2+y,-z
1/2-x,1/2-y,-z
1/2+x,1/2+y,-z
1/2-x,1/2+y,z
1/2+x,1/2-y,z
loop_
_atom_site_type_symbol
_atom_site_label
_atom_site_fract_x
_atom_site_fract_y
_atom_site_fract_z
Si Si1 0.148532 0.082929 0.389456
Si Si2 0.296358 0.917023 0.119252
Si Si3 0.442769 0.083582 0.000000
Si Si4 0.612424 0.159473 0.815375
Si Si5 0.946067 0.147708 0.685009
Si Si6 0.689596 0.414440 0.178455
Si Si7 0.555454 0.191452 0.382955
Si Si8 0.104654 0.818991 0.885121
O O1 0.161933 0.119729 0.500000
O O2 0.091869 0.093622 0.365301
O O3 0.182077 0.112361 0.297082
O O4 0.158378 0.000000 0.399592
O O5 0.334732 0.876279 0.190610
O O6 0.242403 0.889204 0.142664
O O7 0.299388 0.000000 0.147292
O O8 0.309495 0.902498 0.000000
O O9 0.421704 0.119576 0.897240
O O10 0.500000 0.095171 0.000000
O O11 0.428318 0.000000 0.000000
O O12 0.588832 0.151732 0.701496
O O13 0.621520 0.241031 0.847810
O O14 0.939553 0.223676 0.629819
O O15 0.936944 0.153221 0.808234
O O16 0.000000 0.117388 0.667733
O O17 0.681976 0.500000 0.164646
O O18 0.650271 0.372857 0.110253
O O19 0.571645 0.170788 0.500000
O O20 0.500000 0.167851 0.363805
O O21 0.082336 0.814614 0.000000
#
# Coordination Sequence:
#
# PCOD8268404 Si02
#       8
#    16  16   8  16  16  16  16  16
#     4   9  17  30  48  68  93 126 168 220 262 297
#     4  10  19  33  54  76 101 134 167 208 259 309
#     4  11  22  36  56  79 107 141 169 204 257 314
#     4  11  20  34  52  81 109 130 169 219 261 307
#     4   9  18  30  46  70  98 131 170 210 257 311
#     4   9  19  34  51  72  99 138 180 209 250 316
#     4   9  18  33  52  72  99 137 173 205 248 305
#     4  10  19  32  49  74 105 136 171 212 263 301
#
# _framework density 18.020147000000001
#
# number of rings (size 3 to 8) (size 9 to 14) (size 15 to 20)
#    0.000    2.333    1.333    1.600    0.000    3.200 
#    0.000    2.667    0.000    2.400    0.000   14.000 
#    0.000    0.000    0.000    0.000    0.000    0.000 
#
# Total GULP energy -743803.636639 kJ/mol
# GULP energy per Si atom -12396.727277 kJ/mol
# Density = 1.797913 g / cm^3
# Si number density = 18.020147 Si / 1000 Ang^3
#
#
#
# Elastic Constant Matrix: (Units=GPa)
#
#
# Indices 1 2 3 4 5 6 
#
# 1 68.9799 23.1803 18.6594 0.0000 0.0000 0.0000
# 2 23.1803 40.6821 19.6466 0.0000 0.0000 0.0000
# 3 18.6594 19.6466 119.7901 0.0000 0.0000 0.0000
# 4 0.0000 0.0000 0.0000 19.9558 0.0000 0.0000
# 5 0.0000 0.0000 0.0000 0.0000 22.3677 0.0000
# 6 0.0000 0.0000 0.0000 0.0000 0.0000 27.4314
#
#
#
# Elastic Compliance Matrix: (Units=1/GPa)
#
#
# Indices 1 2 3 4 5 6 
#
# 1 0.018094 -0.009718 -0.001225 0.000000 0.000000 0.000000
# 2 -0.009718 0.031915 -0.003721 0.000000 0.000000 0.000000
# 3 -0.001225 -0.003721 0.009149 0.000000 0.000000 0.000000
# 4 0.000000 0.000000 0.000000 0.050111 0.000000 0.000000
# 5 0.000000 0.000000 0.000000 0.000000 0.044707 0.000000
# 6 0.000000 0.000000 0.000000 0.000000 0.000000 0.036455
#
#
# Mechanical properties :
#
#
# Convention : Reuss Voigt Hill
#
# Bulk Modulus (GPa) = 33.52222 39.15828 36.34025
# Shear Modulus (GPa) = 21.76739 25.14869 23.45804
#
# Velocity S-wave (km/s) = 3.47932 3.73981 3.61192
# Velocity P-wave (km/s) = 5.89779 6.35812 6.13228
#
# Compressibility (1/GPa) = 0.02983096
#
# Stress axis : x y z
#
# Youngs Moduli (GPa) = 55.26680 31.33316 109.30306
#
# Poissons Ratio (x) = 0.30451 0.13385
# Poissons Ratio (y) = 0.53711 0.40667
# Poissons Ratio (z) = 0.06768 0.11658
#
# Static dielectric constant tensor:
#      x y z
#    x 3.284650 0.000000 0.000000 
#    y 0.000000 3.172240 0.000000 
#    z 0.000000 0.000000 3.863920 
# 
# 
# High freq. dielectric constant tensor:
#      x y z
#    x 1.689980 0.000000 0.000000 
#    y 0.000000 1.677380 0.000000 
#    z 0.000000 0.000000 1.706660 
# 
# From -- ./inp_files/32818.got.cif
#   From: 2010.03.12/outbox.cif.g09.slc.cpg/sg65_17_cif.got.tgz:32818.got - 2010.04.10 20:52:16.
