data_PCOD8268233
_publ_section_title
;
Structure prediction by ZEFSAII (Michael W. Deem and Ramdas Pophale) SiO2 
 PCOD8268233
Probable space group: C M M M
;
_chemical_formula_sum "Si O2"
_cell_formula_units_Z 96
_cell_length_a 20.456685
_cell_length_b 18.227050
_cell_length_c 14.294826
_cell_angle_alpha 90.000000
_cell_angle_beta 90.000000
_cell_angle_gamma 90.000000
_cell_volume 5330.040587
_symmetry_space_group_name_H-M "C M M M"
_symmetry_group_IT_number 65
_symmetry_cell_setting 'orthorhombic'
loop_
_space_group_symop_operation_xyz
x,y,z
-x,-y,z
x,-y,-z
-x,y,-z
-x,-y,-z
x,y,-z
-x,y,z
x,-y,z
1/2+x,1/2+y,z
1/2-x,1/2-y,z
1/2+x,1/2-y,-z
1/2-x,1/2+y,-z
1/2-x,1/2-y,-z
1/2+x,1/2+y,-z
1/2-x,1/2+y,z
1/2+x,1/2-y,z
loop_
_atom_site_type_symbol
_atom_site_label
_atom_site_fract_x
_atom_site_fract_y
_atom_site_fract_z
Si Si1 0.191146 0.695375 0.892318
Si Si2 0.572582 0.087128 0.395555
Si Si3 0.925827 0.799895 0.106427
Si Si4 0.187632 0.913140 0.604044
Si Si5 0.425660 0.584379 0.737526
Si Si6 0.308661 0.087134 0.271723
O O1 0.250000 0.750000 0.868318
O O2 0.122375 0.733733 0.868220
O O3 0.197416 0.622861 0.830024
O O4 0.194189 0.670146 0.000000
O O5 0.588668 0.116669 0.500000
O O6 0.500000 0.113425 0.364910
O O7 0.625462 0.116496 0.321779
O O8 0.575688 0.000000 0.397884
O O9 0.910095 0.870234 0.169429
O O10 0.000000 0.771957 0.121949
O O11 0.914229 0.825649 0.000000
O O12 0.190087 0.878363 0.500000
O O13 0.120566 0.887947 0.653677
O O14 0.248924 0.885316 0.664194
O O15 0.190528 0.000000 0.595817
O O16 0.500000 0.595453 0.703510
O O17 0.410957 0.500000 0.762820
O O18 0.308380 0.000000 0.257885
#
# Coordination Sequence:
#
# PCOD8268233 Si02
#       6
#    16  16  16  16  16  16
#     4  10  21  36  52  70  95 128 162 194 236 293
#     4   8  14  26  46  73 102 128 156 193 236 280
#     4   9  18  33  52  72  96 129 164 195 234 286
#     4   9  17  29  46  70  99 127 156 193 237 285
#     4   9  17  29  48  75 101 125 159 201 239 274
#     4  10  19  31  51  76  97 121 158 202 242 277
#
# _framework density 18.011119999999998
#
# number of rings (size 3 to 8) (size 9 to 14) (size 15 to 20)
#    0.000    2.833    0.000    2.000    0.000    3.667 
#    0.000    3.333    0.000   15.000    0.000    4.667 
#    0.000    0.000    0.000    0.000    0.000    0.000 
#
# Total GULP energy -595106.762215 kJ/mol
# GULP energy per Si atom -12398.057546 kJ/mol
# Density = 1.797013 g / cm^3
# Si number density = 18.011120 Si / 1000 Ang^3
#
#
#
# Elastic Constant Matrix: (Units=GPa)
#
#
# Indices 1 2 3 4 5 6 
#
# 1 128.5581 37.0777 76.0380 0.0000 0.0000 0.0000
# 2 37.0777 43.2707 52.2297 0.0000 0.0000 0.0000
# 3 76.0380 52.2297 133.1416 0.0000 0.0000 0.0000
# 4 0.0000 0.0000 0.0000 15.6560 0.0000 0.0000
# 5 0.0000 0.0000 0.0000 0.0000 29.9281 0.0000
# 6 0.0000 0.0000 0.0000 0.0000 0.0000 17.1526
#
#
#
# Elastic Compliance Matrix: (Units=1/GPa)
#
#
# Indices 1 2 3 4 5 6 
#
# 1 0.012074 -0.003842 -0.005388 0.000000 0.000000 0.000000
# 2 -0.003842 0.045117 -0.015505 0.000000 0.000000 0.000000
# 3 -0.005388 -0.015505 0.016670 0.000000 0.000000 0.000000
# 4 0.000000 0.000000 0.000000 0.063873 0.000000 0.000000
# 5 0.000000 0.000000 0.000000 0.000000 0.033413 0.000000
# 6 0.000000 0.000000 0.000000 0.000000 0.000000 0.058300
#
#
# Mechanical properties :
#
#
# Convention : Reuss Voigt Hill
#
# Bulk Modulus (GPa) = 40.99769 70.62903 55.81336
# Shear Modulus (GPa) = 17.41866 21.85568 19.63717
#
# Velocity S-wave (km/s) = 3.11321 3.48725 3.30552
# Velocity P-wave (km/s) = 5.97784 7.45076 6.75457
#
# Compressibility (1/GPa) = 0.02439162
#
# Stress axis : x y z
#
# Youngs Moduli (GPa) = 82.82572 22.16439 59.98649
#
# Poissons Ratio (x) = 0.08515 0.32322
# Poissons Ratio (y) = 0.31819 0.93009
# Poissons Ratio (z) = 0.44628 0.34366
#
# Static dielectric constant tensor:
#      x y z
#    x 3.679220 0.000000 0.000000 
#    y 0.000000 2.829830 0.000000 
#    z 0.000000 0.000000 3.410760 
# 
# 
# High freq. dielectric constant tensor:
#      x y z
#    x 1.717720 0.000000 0.000000 
#    y 0.000000 1.649440 0.000000 
#    z 0.000000 0.000000 1.699200 
# 
# From -- ./inp_files/27121.got.cif
#   From: 2010.03.12/outbox.cif.g09.slc.cpg/sg65_14_cif.got.tgz:27121.got - 2010.04.10 20:52:16.
