data_PCOD8268722
_publ_section_title
;
Structure prediction by ZEFSAII (Michael W. Deem and Ramdas Pophale) SiO2 
 PCOD8268722
Probable space group: C M M M
;
_chemical_formula_sum "Si O2"
_cell_formula_units_Z 120
_cell_length_a 26.608280
_cell_length_b 9.145275
_cell_length_c 26.835823
_cell_angle_alpha 90.000000
_cell_angle_beta 90.000000
_cell_angle_gamma 90.000000
_cell_volume 6530.230185
_symmetry_space_group_name_H-M "C M M M"
_symmetry_group_IT_number 65
_symmetry_cell_setting 'orthorhombic'
loop_
_space_group_symop_operation_xyz
x,y,z
-x,-y,z
x,-y,-z
-x,y,-z
-x,-y,-z
x,y,-z
-x,y,z
x,-y,z
1/2+x,1/2+y,z
1/2-x,1/2-y,z
1/2+x,1/2-y,-z
1/2-x,1/2+y,-z
1/2-x,1/2-y,-z
1/2+x,1/2+y,-z
1/2-x,1/2+y,z
1/2+x,1/2-y,z
loop_
_atom_site_type_symbol
_atom_site_label
_atom_site_fract_x
_atom_site_fract_y
_atom_site_fract_z
Si Si1 0.796508 0.161538 0.558558
Si Si2 0.802408 0.327163 0.202959
Si Si3 0.444234 0.660741 0.776887
Si Si4 0.879659 0.331244 0.290416
Si Si5 0.056806 0.332430 0.058611
Si Si6 0.500000 0.674240 0.557322
Si Si7 0.127287 0.833864 0.868937
Si Si8 0.396610 0.673294 0.392479
O O1 0.790030 0.159244 0.500000
O O2 0.750000 0.250000 0.582852
O O3 0.851870 0.224057 0.570531
O O4 0.792188 0.000000 0.581497
O O5 0.796319 0.500000 0.195163
O O6 0.750000 0.250000 0.212765
O O7 0.834225 0.291910 0.252880
O O8 0.825951 0.259985 0.152212
O O9 0.500000 0.691372 0.794156
O O10 0.437710 0.500000 0.751696
O O11 0.430379 0.786531 0.737904
O O12 0.413959 0.668916 0.826923
O O13 0.880597 0.500000 0.304787
O O14 0.878716 0.238274 0.340320
O O15 0.063379 0.500000 0.075888
O O16 0.101151 0.237000 0.082958
O O17 0.000000 0.279370 0.072716
O O18 0.064563 0.317930 0.000000
O O19 0.500000 0.500000 0.556632
O O20 0.500000 0.731643 0.500000
O O21 0.549935 0.733039 0.586220
O O22 0.144711 0.000000 0.881299
O O23 0.400693 0.500000 0.387728
#
# Coordination Sequence:
#
# PCOD8268722 Si02
#       8
#    16  16  16  16  16   8  16  16
#     4   9  18  33  53  76 100 127 162 206 255 307
#     4  10  21  38  58  78 103 138 179 222 270 324
#     4   9  18  32  50  71  99 134 171 210 251 301
#     4  10  22  36  50  74 105 135 167 207 257 310
#     4   9  18  32  50  75 111 153 191 228 273 324
#     4   9  18  34  57  81 103 135 181 225 262 311
#     4  10  19  32  52  79 107 137 178 225 272 322
#     4  10  20  34  54  78 104 135 172 215 262 313
#
# _framework density 18.376073999999999
#
# number of rings (size 3 to 8) (size 9 to 14) (size 15 to 20)
#    0.000    2.467    0.000    2.400    0.933    6.133 
#    0.000    3.333    0.000    2.000    0.000    0.000 
#    0.000    0.000    0.000    0.000    0.000    0.000 
#
# Total GULP energy -743584.600573 kJ/mol
# GULP energy per Si atom -12393.076676 kJ/mol
# Density = 1.833425 g / cm^3
# Si number density = 18.376074 Si / 1000 Ang^3
#
#
#
# Elastic Constant Matrix: (Units=GPa)
#
#
# Indices 1 2 3 4 5 6 
#
# 1 116.7161 48.5375 30.0942 0.0000 0.0000 0.0000
# 2 48.5375 68.3534 36.4287 0.0000 0.0000 0.0000
# 3 30.0942 36.4287 61.9013 0.0000 0.0000 0.0000
# 4 0.0000 0.0000 0.0000 27.6922 0.0000 0.0000
# 5 0.0000 0.0000 0.0000 0.0000 8.6495 0.0000
# 6 0.0000 0.0000 0.0000 0.0000 0.0000 44.5726
#
#
#
# Elastic Compliance Matrix: (Units=1/GPa)
#
#
# Indices 1 2 3 4 5 6 
#
# 1 0.012221 -0.008030 -0.001216 0.000000 0.000000 0.000000
# 2 -0.008030 0.026591 -0.011745 0.000000 0.000000 0.000000
# 3 -0.001216 -0.011745 0.023658 0.000000 0.000000 0.000000
# 4 0.000000 0.000000 0.000000 0.036111 0.000000 0.000000
# 5 0.000000 0.000000 0.000000 0.000000 0.115613 0.000000
# 6 0.000000 0.000000 0.000000 0.000000 0.000000 0.022435
#
#
# Mechanical properties :
#
#
# Convention : Reuss Voigt Hill
#
# Bulk Modulus (GPa) = 48.80816 53.01020 50.90918
# Shear Modulus (GPa) = 17.51682 24.97688 21.24685
#
# Velocity S-wave (km/s) = 3.09081 3.69074 3.40402
# Velocity P-wave (km/s) = 6.27342 6.86091 6.57373
#
# Compressibility (1/GPa) = 0.02048838
#
# Stress axis : x y z
#
# Youngs Moduli (GPa) = 81.82936 37.60623 42.26959
#
# Poissons Ratio (x) = 0.30197 0.05138
# Poissons Ratio (y) = 0.65708 0.49646
# Poissons Ratio (z) = 0.09947 0.44169
#
# Static dielectric constant tensor:
#      x y z
#    x 3.669380 0.000000 0.000000 
#    y 0.000000 3.548290 0.000000 
#    z 0.000000 0.000000 3.298710 
# 
# 
# High freq. dielectric constant tensor:
#      x y z
#    x 1.714650 0.000000 0.000000 
#    y 0.000000 1.704910 0.000000 
#    z 0.000000 0.000000 1.700710 
# 
# From -- ./inp_files/76164.got.cif
#   From: 2010.03.12/outbox.cif.g09.slc.cpg/sg65_39_cif.got.tgz:76164.got - 2010.04.10 20:52:16.
