data_PCOD8268664
_publ_section_title
;
Structure prediction by ZEFSAII (Michael W. Deem and Ramdas Pophale) SiO2 
 PCOD8268664
Probable space group: C M M M
;
_chemical_formula_sum "Si O2"
_cell_formula_units_Z 104
_cell_length_a 18.625175
_cell_length_b 9.042768
_cell_length_c 33.078811
_cell_angle_alpha 90.000000
_cell_angle_beta 90.000000
_cell_angle_gamma 90.000000
_cell_volume 5571.237100
_symmetry_space_group_name_H-M "C M M M"
_symmetry_group_IT_number 65
_symmetry_cell_setting 'orthorhombic'
loop_
_space_group_symop_operation_xyz
x,y,z
-x,-y,z
x,-y,-z
-x,y,-z
-x,-y,-z
x,y,-z
-x,y,z
x,-y,z
1/2+x,1/2+y,z
1/2-x,1/2-y,z
1/2+x,1/2-y,-z
1/2-x,1/2+y,-z
1/2-x,1/2-y,-z
1/2+x,1/2+y,-z
1/2-x,1/2+y,z
1/2+x,1/2-y,z
loop_
_atom_site_type_symbol
_atom_site_label
_atom_site_fract_x
_atom_site_fract_y
_atom_site_fract_z
Si Si1 0.826133 0.672589 0.912842
Si Si2 0.917108 0.171940 0.755482
Si Si3 0.083788 0.165402 0.151943
Si Si4 0.321798 0.671898 0.545255
Si Si5 0.583338 0.328130 0.619578
Si Si6 0.175463 0.670823 0.000000
Si Si7 0.827255 0.324342 0.311658
O O1 0.812743 0.500000 0.908295
O O2 0.750000 0.750000 0.907713
O O3 0.878887 0.720744 0.877682
O O4 0.862881 0.710968 0.957098
O O5 0.899565 0.208798 0.801930
O O6 0.865185 0.274942 0.729652
O O7 0.000000 0.208429 0.745358
O O8 0.901922 0.000000 0.745949
O O9 0.000000 0.173917 0.143653
O O10 0.112128 0.000000 0.143262
O O11 0.342000 0.726977 0.500000
O O12 0.304484 0.500000 0.545166
O O13 0.250000 0.750000 0.561416
O O14 0.387639 0.708821 0.574815
O O15 0.500000 0.287269 0.620419
O O16 0.596019 0.500000 0.630721
O O17 0.623821 0.225715 0.651211
O O18 0.250000 0.750000 0.000000
O O19 0.193692 0.500000 0.000000
O O20 0.818270 0.500000 0.312036
O O21 0.750000 0.250000 0.315495
#
# Coordination Sequence:
#
# PCOD8268664 Si02
#       7
#    16  16  16  16  16   8  16
#     4  10  19  32  52  76 103 136 175 219 263 310
#     4   9  19  38  61  81 105 138 173 212 261 315
#     4   9  19  36  56  78 106 139 173 211 258 312
#     4   9  18  33  54  80 109 143 183 224 266 313
#     4  10  21  37  57  81 111 146 181 220 268 319
#     4   8  16  30  47  70  99 133 173 215 261 308
#     4  12  25  39  57  81 109 140 177 221 265 313
#
# _framework density 18.667307999999998
#
# number of rings (size 3 to 8) (size 9 to 14) (size 15 to 20)
#    0.000    2.308    0.000    3.692    0.000    6.769 
#    0.000    3.462    0.000    2.308    0.000    3.231 
#    0.000    0.000    0.000    0.000    0.000    0.000 
#
# Total GULP energy -644614.844257 kJ/mol
# GULP energy per Si atom -12396.439313 kJ/mol
# Density = 1.862482 g / cm^3
# Si number density = 18.667308 Si / 1000 Ang^3
#
#
#
# Elastic Constant Matrix: (Units=GPa)
#
#
# Indices 1 2 3 4 5 6 
#
# 1 106.2649 56.9644 73.9999 0.0000 0.0000 0.0000
# 2 56.9644 91.4115 61.4905 0.0000 0.0000 0.0000
# 3 73.9999 61.4905 130.6797 0.0000 0.0000 0.0000
# 4 0.0000 0.0000 0.0000 27.9641 0.0000 0.0000
# 5 0.0000 0.0000 0.0000 0.0000 -20.7716 0.0000
# 6 0.0000 0.0000 0.0000 0.0000 0.0000 31.6082
#
#
#
# Elastic Compliance Matrix: (Units=1/GPa)
#
#
# Indices 1 2 3 4 5 6 
#
# 1 0.017695 -0.006272 -0.007069 0.000000 0.000000 0.000000
# 2 -0.006272 0.018229 -0.005026 0.000000 0.000000 0.000000
# 3 -0.007069 -0.005026 0.014020 0.000000 0.000000 0.000000
# 4 0.000000 0.000000 0.000000 0.035760 0.000000 0.000000
# 5 0.000000 0.000000 0.000000 0.000000 -0.048143 0.000000
# 6 0.000000 0.000000 0.000000 0.000000 0.000000 0.031637
#
#
# Mechanical properties :
#
#
# Convention : Reuss Voigt Hill
#
# Bulk Modulus (GPa) = 75.69691 79.25174 77.47433
# Shear Modulus (GPa) = 45.31607 16.82023 31.06815
#
# Velocity S-wave (km/s) = 4.93238 3.00501 4.08402
# Velocity P-wave (km/s) = 8.54847 7.38831 7.98948
#
# Compressibility (1/GPa) = 0.01321058
#
# Stress axis : x y z
#
# Youngs Moduli (GPa) = 56.51234 54.85848 71.32564
#
# Poissons Ratio (x) = 0.34406 0.50421
# Poissons Ratio (y) = 0.35444 0.35847
# Poissons Ratio (z) = 0.39949 0.27571
#
# Static dielectric constant tensor:
#      x y z
#    x 3.278370 0.000000 0.000000 
#    y 0.000000 3.328160 0.000000 
#    z 0.000000 0.000000 3.842400 
# 
# 
# High freq. dielectric constant tensor:
#      x y z
#    x 1.709870 0.000000 0.000000 
#    y 0.000000 1.721250 0.000000 
#    z 0.000000 0.000000 1.744410 
# 
# From -- ./inp_files/78175.got.cif
#   From: 2010.03.12/outbox.cif.g09.slc.cpg/sg65_40_cif.got.tgz:78175.got - 2010.04.10 20:52:16.
