data_PCOD8268327
_publ_section_title
;
Structure prediction by ZEFSAII (Michael W. Deem and Ramdas Pophale) SiO2 
 PCOD8268327
Probable space group: C M M M
;
_chemical_formula_sum "Si O2"
_cell_formula_units_Z 52
_cell_length_a 11.667360
_cell_length_b 23.727529
_cell_length_c 9.739848
_cell_angle_alpha 90.000000
_cell_angle_beta 90.000000
_cell_angle_gamma 90.000000
_cell_volume 2696.356366
_symmetry_space_group_name_H-M "C M M M"
_symmetry_group_IT_number 65
_symmetry_cell_setting 'orthorhombic'
loop_
_space_group_symop_operation_xyz
x,y,z
-x,-y,z
x,-y,-z
-x,y,-z
-x,-y,-z
x,y,-z
-x,y,z
x,-y,z
1/2+x,1/2+y,z
1/2-x,1/2-y,z
1/2+x,1/2-y,-z
1/2-x,1/2+y,-z
1/2-x,1/2-y,-z
1/2+x,1/2+y,-z
1/2-x,1/2+y,z
1/2+x,1/2-y,z
loop_
_atom_site_type_symbol
_atom_site_label
_atom_site_fract_x
_atom_site_fract_y
_atom_site_fract_z
Si Si1 0.500000 0.000000 0.772358
Si Si2 0.500000 0.124885 0.338736
Si Si3 0.749049 0.500000 0.153277
Si Si4 0.368076 0.587595 0.343871
Si Si5 0.780041 0.690050 0.342505
O O1 0.500000 0.942283 0.684945
O O2 0.613926 0.000000 0.864140
O O3 0.500000 0.132306 0.500000
O O4 0.387796 0.156406 0.275160
O O5 0.708889 0.445832 0.236996
O O6 0.695982 0.500000 0.000000
O O7 0.343965 0.566621 0.500000
O O8 0.500000 0.579191 0.305361
O O9 0.334732 0.652840 0.329934
O O10 0.812356 0.702005 0.500000
O O11 0.750000 0.750000 0.269868
#
# Coordination Sequence:
#
# PCOD8268327 Si02
#       5
#     4   8   8  16  16
#     4  12  22  38  56  82 113 152 195 242 287 346
#     4  10  19  31  55  86 117 153 190 236 291 348
#     4  12  25  40  58  81 112 149 191 239 291 344
#     4  10  21  37  58  85 115 149 186 233 285 339
#     4   9  18  31  51  83 118 149 185 231 284 338
#
# _framework density 19.285284999999998
#
# number of rings (size 3 to 8) (size 9 to 14) (size 15 to 20)
#    0.000    1.846    3.077    1.385    2.154    3.692 
#    0.000    0.000    0.000    0.923    0.000    0.000 
#    0.000    0.000    0.000    0.000    0.000    0.000 
#
# Total GULP energy -322209.490356 kJ/mol
# GULP energy per Si atom -12392.672706 kJ/mol
# Density = 1.924139 g / cm^3
# Si number density = 19.285285 Si / 1000 Ang^3
#
#
#
# Elastic Constant Matrix: (Units=GPa)
#
#
# Indices 1 2 3 4 5 6 
#
# 1 122.3331 54.9227 35.3960 0.0000 0.0000 0.0000
# 2 54.9227 159.3890 31.8469 0.0000 0.0000 0.0000
# 3 35.3960 31.8469 69.0111 0.0000 0.0000 0.0000
# 4 0.0000 0.0000 0.0000 -16.0917 0.0000 0.0000
# 5 0.0000 0.0000 0.0000 0.0000 12.0053 0.0000
# 6 0.0000 0.0000 0.0000 0.0000 0.0000 32.2399
#
#
#
# Elastic Compliance Matrix: (Units=1/GPa)
#
#
# Indices 1 2 3 4 5 6 
#
# 1 0.010651 -0.002841 -0.004152 0.000000 0.000000 0.000000
# 2 -0.002841 0.007669 -0.002082 0.000000 0.000000 0.000000
# 3 -0.004152 -0.002082 0.017581 0.000000 0.000000 0.000000
# 4 0.000000 0.000000 0.000000 -0.062144 0.000000 0.000000
# 5 0.000000 0.000000 0.000000 0.000000 0.083296 0.000000
# 6 0.000000 0.000000 0.000000 0.000000 0.000000 0.031018
#
#
# Mechanical properties :
#
#
# Convention : Reuss Voigt Hill
#
# Bulk Modulus (GPa) = 56.33386 66.11826 61.22606
# Shear Modulus (GPa) = 44.58815 20.86853 32.72834
#
# Velocity S-wave (km/s) = 4.81357 3.29309 4.12401
# Velocity P-wave (km/s) = 7.75682 6.98699 7.38194
#
# Compressibility (1/GPa) = 0.01775131
#
# Stress axis : x y z
#
# Youngs Moduli (GPa) = 93.88729 130.39906 56.88004
#
# Poissons Ratio (x) = 0.37041 0.23617
# Poissons Ratio (y) = 0.26669 0.11843
# Poissons Ratio (z) = 0.38983 0.27149
#
# Static dielectric constant tensor:
#      x y z
#    x 3.875010 0.000000 0.000000 
#    y 0.000000 3.697140 0.000000 
#    z 0.000000 0.000000 2.938350 
# 
# 
# High freq. dielectric constant tensor:
#      x y z
#    x 1.766000 0.000000 0.000000 
#    y 0.000000 1.763830 0.000000 
#    z 0.000000 0.000000 1.682010 
# 
# From -- ./inp_files/4306.got.cif
#   From: 2010.03.12/outbox.cif.g09.slc.cpg/sg65_3_cif.got.tgz:4306.got - 2010.04.10 20:52:16.
