data_PCOD8268523
_publ_section_title
;
Structure prediction by ZEFSAII (Michael W. Deem and Ramdas Pophale) SiO2 
 PCOD8268523
Probable space group: C M M M
;
_chemical_formula_sum "Si O2"
_cell_formula_units_Z 88
_cell_length_a 22.558295
_cell_length_b 22.716737
_cell_length_c 9.293583
_cell_angle_alpha 90.000000
_cell_angle_beta 90.000000
_cell_angle_gamma 90.000000
_cell_volume 4762.504551
_symmetry_space_group_name_H-M "C M M M"
_symmetry_group_IT_number 65
_symmetry_cell_setting 'orthorhombic'
loop_
_space_group_symop_operation_xyz
x,y,z
-x,-y,z
x,-y,-z
-x,y,-z
-x,-y,-z
x,y,-z
-x,y,z
x,-y,z
1/2+x,1/2+y,z
1/2-x,1/2-y,z
1/2+x,1/2-y,-z
1/2-x,1/2+y,-z
1/2-x,1/2-y,-z
1/2+x,1/2+y,-z
1/2-x,1/2+y,z
1/2+x,1/2-y,z
loop_
_atom_site_type_symbol
_atom_site_label
_atom_site_fract_x
_atom_site_fract_y
_atom_site_fract_z
Si Si1 0.364516 0.828851 0.663691
Si Si2 0.566379 0.736556 0.164486
Si Si3 0.431659 0.500000 0.828644
Si Si4 0.766604 0.814872 0.663902
Si Si5 0.433568 0.936850 0.671297
Si Si6 0.130407 0.880091 0.164925
O O1 0.384981 0.818803 0.500000
O O2 0.382490 0.769352 0.745956
O O3 0.296131 0.847704 0.670293
O O4 0.397200 0.883495 0.739771
O O5 0.500000 0.750066 0.222847
O O6 0.577327 0.666854 0.178013
O O7 0.571990 0.756974 0.000000
O O8 0.500000 0.500000 0.769872
O O9 0.395426 0.442067 0.773952
O O10 0.434355 0.500000 0.000000
O O11 0.790285 0.807515 0.500000
O O12 0.750000 0.750000 0.727701
O O13 0.812751 0.854899 0.750422
O O14 0.431341 0.933305 0.500000
O O15 0.500000 0.930596 0.728162
O O16 0.407443 0.000000 0.721786
O O17 0.150526 0.888141 0.000000
#
# Coordination Sequence:
#
# PCOD8268523 Si02
#       6
#    16  16   8  16  16  16
#     4  10  19  32  51  73  99 134 174 209 252 310
#     4  10  20  32  49  77 107 131 163 213 269 318
#     4   9  18  36  61  85 109 141 186 237 282 329
#     4  10  20  35  52  74 107 140 171 214 264 314
#     4   8  14  26  45  69  94 119 156 205 246 286
#     4  10  20  35  57  80 104 139 181 222 269 325
#
# _framework density 18.477672999999999
#
# number of rings (size 3 to 8) (size 9 to 14) (size 15 to 20)
#    0.000    2.455    1.818    1.636    0.000    4.364 
#    1.636    0.455    0.000    2.727    0.000    2.545 
#    0.000    0.000    0.000    0.000    0.000    0.000 
#
# Total GULP energy -545201.663676 kJ/mol
# GULP energy per Si atom -12390.946902 kJ/mol
# Density = 1.843562 g / cm^3
# Si number density = 18.477673 Si / 1000 Ang^3
#
#
#
# Elastic Constant Matrix: (Units=GPa)
#
#
# Indices 1 2 3 4 5 6 
#
# 1 99.8204 56.0330 34.3635 0.0000 0.0000 0.0000
# 2 56.0330 139.7329 30.6377 0.0000 0.0000 0.0000
# 3 34.3635 30.6377 44.1780 0.0000 0.0000 0.0000
# 4 0.0000 0.0000 0.0000 18.8232 0.0000 0.0000
# 5 0.0000 0.0000 0.0000 0.0000 22.5212 0.0000
# 6 0.0000 0.0000 0.0000 0.0000 0.0000 33.4964
#
#
#
# Elastic Compliance Matrix: (Units=1/GPa)
#
#
# Indices 1 2 3 4 5 6 
#
# 1 0.015543 -0.004224 -0.009160 0.000000 0.000000 0.000000
# 2 -0.004224 0.009588 -0.003364 0.000000 0.000000 0.000000
# 3 -0.009160 -0.003364 0.032094 0.000000 0.000000 0.000000
# 4 0.000000 0.000000 0.000000 0.053126 0.000000 0.000000
# 5 0.000000 0.000000 0.000000 0.000000 0.044403 0.000000
# 6 0.000000 0.000000 0.000000 0.000000 0.000000 0.029854
#
#
# Mechanical properties :
#
#
# Convention : Reuss Voigt Hill
#
# Bulk Modulus (GPa) = 42.14392 58.42219 50.28305
# Shear Modulus (GPa) = 22.12275 25.81463 23.96869
#
# Velocity S-wave (km/s) = 3.46391 3.74180 3.60553
# Velocity P-wave (km/s) = 6.23344 7.09608 6.67870
#
# Compressibility (1/GPa) = 0.02372822
#
# Stress axis : x y z
#
# Youngs Moduli (GPa) = 64.33934 104.29836 31.15895
#
# Poissons Ratio (x) = 0.44057 0.28542
# Poissons Ratio (y) = 0.27178 0.10480
# Poissons Ratio (z) = 0.58936 0.35081
#
# Static dielectric constant tensor:
#      x y z
#    x 3.457020 0.000000 0.000000 
#    y 0.000000 3.699190 0.000000 
#    z 0.000000 0.000000 3.029400 
# 
# 
# High freq. dielectric constant tensor:
#      x y z
#    x 1.720850 0.000000 0.000000 
#    y 0.000000 1.723140 0.000000 
#    z 0.000000 0.000000 1.672420 
# 
# From -- ./inp_files/11806.got.cif
#   From: 2010.03.12/outbox.cif.g09.slc.cpg/sg65_6_cif.got.tgz:11806.got - 2010.04.10 20:52:16.
