data_PCOD8268866
_publ_section_title
;
Structure prediction by ZEFSAII (Michael W. Deem and Ramdas Pophale) SiO2 
 PCOD8268866
Probable space group: C M M M
;
_chemical_formula_sum "Si O2"
_cell_formula_units_Z 120
_cell_length_a 13.795338
_cell_length_b 23.637420
_cell_length_c 19.945697
_cell_angle_alpha 90.000000
_cell_angle_beta 90.000000
_cell_angle_gamma 90.000000
_cell_volume 6504.016508
_symmetry_space_group_name_H-M "C M M M"
_symmetry_group_IT_number 65
_symmetry_cell_setting 'orthorhombic'
loop_
_space_group_symop_operation_xyz
x,y,z
-x,-y,z
x,-y,-z
-x,y,-z
-x,-y,-z
x,y,-z
-x,y,z
x,-y,z
1/2+x,1/2+y,z
1/2-x,1/2-y,z
1/2+x,1/2-y,-z
1/2-x,1/2+y,-z
1/2-x,1/2-y,-z
1/2+x,1/2+y,-z
1/2-x,1/2+y,z
1/2+x,1/2-y,z
loop_
_atom_site_type_symbol
_atom_site_label
_atom_site_fract_x
_atom_site_fract_y
_atom_site_fract_z
Si Si1 0.611641 0.218581 0.392854
Si Si2 0.610558 0.739988 0.252716
Si Si3 0.753999 0.153714 0.926990
Si Si4 0.181694 0.065268 0.164538
Si Si5 0.116219 0.880338 0.296036
Si Si6 0.802723 0.160607 0.425777
Si Si7 0.500000 0.433522 0.074943
Si Si8 0.386254 0.754234 0.893035
O O1 0.500000 0.203949 0.412736
O O2 0.626418 0.215517 0.312430
O O3 0.686930 0.173487 0.422695
O O4 0.635401 0.281862 0.417360
O O5 0.500000 0.724421 0.241749
O O6 0.657986 0.679782 0.270606
O O7 0.650145 0.764844 0.183667
O O8 0.737382 0.106833 0.867726
O O9 0.659896 0.193752 0.932553
O O10 0.848145 0.193203 0.915730
O O11 0.764578 0.123696 0.000000
O O12 0.158331 0.073947 0.243428
O O13 0.091958 0.085064 0.118341
O O14 0.211182 0.000000 0.154798
O O15 0.162521 0.886172 0.370982
O O16 0.000000 0.885981 0.301078
O O17 0.823567 0.135959 0.500000
O O18 0.500000 0.500000 0.067491
O O19 0.500000 0.406249 0.000000
O O20 0.500000 0.755298 0.904423
#
# Coordination Sequence:
#
# PCOD8268866 Si02
#       8
#    16  16  16  16  16  16   8  16
#     4   9  17  28  45  70 104 140 178 218 258 311
#     4   8  15  27  45  71  98 136 175 206 253 305
#     4  11  24  35  52  82 109 144 185 220 273 329
#     4  11  22  37  56  78 106 139 181 230 276 323
#     4  10  19  33  51  72 101 137 175 213 256 318
#     4  10  20  29  45  73 103 141 178 211 262 315
#     4   9  18  32  52  78 105 131 163 213 275 325
#     4  10  20  35  54  77 113 149 181 220 263 324
#
# _framework density 18.450137000000002
#
# number of rings (size 3 to 8) (size 9 to 14) (size 15 to 20)
#    0.000    2.200    2.000    3.200    2.800    4.800 
#    0.000    0.000    0.000    0.800    0.000    1.867 
#    0.000    0.000    0.000    1.200    0.000    0.000 
#
# Total GULP energy -743391.753715 kJ/mol
# GULP energy per Si atom -12389.862562 kJ/mol
# Density = 1.840814 g / cm^3
# Si number density = 18.450137 Si / 1000 Ang^3
#
#
#
# Elastic Constant Matrix: (Units=GPa)
#
#
# Indices 1 2 3 4 5 6 
#
# 1 90.8054 23.5096 23.5974 0.0000 0.0000 0.0000
# 2 23.5096 69.8274 30.4479 0.0000 0.0000 0.0000
# 3 23.5974 30.4479 152.6454 0.0000 0.0000 0.0000
# 4 0.0000 0.0000 0.0000 20.0033 0.0000 0.0000
# 5 0.0000 0.0000 0.0000 0.0000 19.0177 0.0000
# 6 0.0000 0.0000 0.0000 0.0000 0.0000 11.7306
#
#
#
# Elastic Compliance Matrix: (Units=1/GPa)
#
#
# Indices 1 2 3 4 5 6 
#
# 1 0.012253 -0.003614 -0.001173 0.000000 0.000000 0.000000
# 2 -0.003614 0.016751 -0.002783 0.000000 0.000000 0.000000
# 3 -0.001173 -0.002783 0.007288 0.000000 0.000000 0.000000
# 4 0.000000 0.000000 0.000000 0.049992 0.000000 0.000000
# 5 0.000000 0.000000 0.000000 0.000000 0.052582 0.000000
# 6 0.000000 0.000000 0.000000 0.000000 0.000000 0.085247
#
#
# Mechanical properties :
#
#
# Convention : Reuss Voigt Hill
#
# Bulk Modulus (GPa) = 47.27645 52.04310 49.65978
# Shear Modulus (GPa) = 20.30018 25.86522 23.08270
#
# Velocity S-wave (km/s) = 3.32063 3.74826 3.54091
# Velocity P-wave (km/s) = 6.35466 6.85574 6.60995
#
# Compressibility (1/GPa) = 0.02115218
#
# Stress axis : x y z
#
# Youngs Moduli (GPa) = 81.61210 59.69768 137.21990
#
# Poissons Ratio (x) = 0.21573 0.16101
# Poissons Ratio (y) = 0.29493 0.38184
# Poissons Ratio (z) = 0.09576 0.16612
#
# Static dielectric constant tensor:
#      x y z
#    x 3.280830 0.000000 0.000000 
#    y 0.000000 2.892420 0.000000 
#    z 0.000000 0.000000 3.859220 
# 
# 
# High freq. dielectric constant tensor:
#      x y z
#    x 1.700860 0.000000 0.000000 
#    y 0.000000 1.651470 0.000000 
#    z 0.000000 0.000000 1.738770 
# 
# From -- ./inp_files/63123.got.cif
#   From: 2010.03.12/outbox.cif.g09.slc.cpg/sg65_32_cif.got.tgz:63123.got - 2010.04.10 20:52:16.
