data_PCOD8268286
_publ_section_title
;
Structure prediction by ZEFSAII (Michael W. Deem and Ramdas Pophale) SiO2 
 PCOD8268286
Probable space group: C M M M
;
_chemical_formula_sum "Si O2"
_cell_formula_units_Z 112
_cell_length_a 25.749565
_cell_length_b 15.666143
_cell_length_c 14.825156
_cell_angle_alpha 90.000000
_cell_angle_beta 90.000000
_cell_angle_gamma 90.000000
_cell_volume 5980.414078
_symmetry_space_group_name_H-M "C M M M"
_symmetry_group_IT_number 65
_symmetry_cell_setting 'orthorhombic'
loop_
_space_group_symop_operation_xyz
x,y,z
-x,-y,z
x,-y,-z
-x,y,-z
-x,-y,-z
x,y,-z
-x,y,z
x,-y,z
1/2+x,1/2+y,z
1/2-x,1/2-y,z
1/2+x,1/2-y,-z
1/2-x,1/2+y,-z
1/2-x,1/2-y,-z
1/2+x,1/2+y,-z
1/2-x,1/2+y,z
1/2+x,1/2-y,z
loop_
_atom_site_type_symbol
_atom_site_label
_atom_site_fract_x
_atom_site_fract_y
_atom_site_fract_z
Si Si1 0.862328 0.400188 0.900662
Si Si2 0.345476 0.597182 0.788360
Si Si3 0.560885 0.900554 0.252310
Si Si4 0.442516 0.601302 0.897635
Si Si5 0.249843 0.348322 0.098622
Si Si6 0.613363 0.404090 0.398602
Si Si7 0.439324 0.230249 0.401573
O O1 0.868053 0.500000 0.910170
O O2 0.907842 0.367869 0.835146
O O3 0.805485 0.378122 0.861084
O O4 0.869177 0.357526 0.000000
O O5 0.346088 0.500000 0.818675
O O6 0.397922 0.639541 0.831266
O O7 0.293438 0.635801 0.827558
O O8 0.343332 0.607569 0.679425
O O9 0.500000 0.887021 0.233410
O O10 0.582731 0.839485 0.331727
O O11 0.572500 0.000000 0.276115
O O12 0.500000 0.637079 0.870440
O O13 0.444451 0.500000 0.889852
O O14 0.429028 0.628778 0.000000
O O15 0.250000 0.250000 0.079927
O O16 0.259812 0.393230 0.000000
O O17 0.637261 0.394976 0.500000
O O18 0.588410 0.500000 0.388412
O O19 0.571695 0.329801 0.379159
O O20 0.415525 0.208292 0.500000
O O21 0.500000 0.218505 0.403660
#
# Coordination Sequence:
#
# PCOD8268286 Si02
#       7
#    16  16  16  16  16  16  16
#     4   9  18  33  53  76 104 137 171 211 258 309
#     4  10  19  31  52  75  96 133 176 214 259 309
#     4   9  18  32  53  82 110 137 172 214 262 317
#     4   8  14  25  42  67  98 127 158 200 247 298
#     4  10  21  34  50  75 105 135 170 215 261 307
#     4   9  19  34  51  74 103 136 177 223 266 311
#     4   9  18  32  51  75 104 140 177 216 264 313
#
# _framework density 18.727799999999998
#
# number of rings (size 3 to 8) (size 9 to 14) (size 15 to 20)
#    0.000    2.857    0.000    1.286    2.000    2.857 
#    0.000    5.714    0.000    1.286    0.000    2.000 
#    0.000    0.000    0.000    0.000    0.000    0.000 
#
# Total GULP energy -693734.418812 kJ/mol
# GULP energy per Si atom -12388.114622 kJ/mol
# Density = 1.868517 g / cm^3
# Si number density = 18.727800 Si / 1000 Ang^3
#
#
#
# Elastic Constant Matrix: (Units=GPa)
#
#
# Indices 1 2 3 4 5 6 
#
# 1 97.1482 29.0349 69.7787 0.0000 0.0000 0.0000
# 2 29.0349 58.3818 49.9505 0.0000 0.0000 0.0000
# 3 69.7787 49.9505 133.3928 0.0000 0.0000 0.0000
# 4 0.0000 0.0000 0.0000 20.2545 0.0000 0.0000
# 5 0.0000 0.0000 0.0000 0.0000 26.6079 0.0000
# 6 0.0000 0.0000 0.0000 0.0000 0.0000 16.8671
#
#
#
# Elastic Compliance Matrix: (Units=1/GPa)
#
#
# Indices 1 2 3 4 5 6 
#
# 1 0.016547 -0.001212 -0.008202 0.000000 0.000000 0.000000
# 2 -0.001212 0.025292 -0.008837 0.000000 0.000000 0.000000
# 3 -0.008202 -0.008837 0.015096 0.000000 0.000000 0.000000
# 4 0.000000 0.000000 0.000000 0.049372 0.000000 0.000000
# 5 0.000000 0.000000 0.000000 0.000000 0.037583 0.000000
# 6 0.000000 0.000000 0.000000 0.000000 0.000000 0.059287
#
#
# Mechanical properties :
#
#
# Convention : Reuss Voigt Hill
#
# Bulk Modulus (GPa) = 48.93868 65.16123 57.04995
# Shear Modulus (GPa) = 20.28477 22.08981 21.18729
#
# Velocity S-wave (km/s) = 3.29468 3.43814 3.36717
# Velocity P-wave (km/s) = 6.37664 7.11551 6.75618
#
# Compressibility (1/GPa) = 0.02043374
#
# Stress axis : x y z
#
# Youngs Moduli (GPa) = 60.43370 39.53799 66.24089
#
# Poissons Ratio (x) = 0.04791 0.54332
# Poissons Ratio (y) = 0.07323 0.58538
# Poissons Ratio (z) = 0.49569 0.34940
#
# Static dielectric constant tensor:
#      x y z
#    x 3.182220 0.000000 0.000000 
#    y 0.000000 3.345860 0.000000 
#    z 0.000000 0.000000 3.935060 
# 
# 
# High freq. dielectric constant tensor:
#      x y z
#    x 1.697710 0.000000 0.000000 
#    y 0.000000 1.716700 0.000000 
#    z 0.000000 0.000000 1.730280 
# 
# From -- ./inp_files/47043.got.cif
#   From: 2010.03.12/outbox.cif.g09.slc.cpg/sg65_24_cif.got.tgz:47043.got - 2010.04.10 20:52:16.
