data_PCOD8268337
_publ_section_title
;
Structure prediction by ZEFSAII (Michael W. Deem and Ramdas Pophale) SiO2 
 PCOD8268337
Probable space group: C M M M
;
_chemical_formula_sum "Si O2"
_cell_formula_units_Z 72
_cell_length_a 10.505628
_cell_length_b 21.672152
_cell_length_c 18.238184
_cell_angle_alpha 90.000000
_cell_angle_beta 90.000000
_cell_angle_gamma 90.000000
_cell_volume 4152.461834
_symmetry_space_group_name_H-M "C M M M"
_symmetry_group_IT_number 65
_symmetry_cell_setting 'orthorhombic'
loop_
_space_group_symop_operation_xyz
x,y,z
-x,-y,z
x,-y,-z
-x,y,-z
-x,-y,-z
x,y,-z
-x,y,z
x,-y,z
1/2+x,1/2+y,z
1/2-x,1/2-y,z
1/2+x,1/2-y,-z
1/2-x,1/2+y,-z
1/2-x,1/2-y,-z
1/2+x,1/2+y,-z
1/2-x,1/2+y,z
1/2+x,1/2-y,z
loop_
_atom_site_type_symbol
_atom_site_label
_atom_site_fract_x
_atom_site_fract_y
_atom_site_fract_z
Si Si1 0.750000 0.750000 0.805562
Si Si2 0.640473 0.162275 0.917884
Si Si3 0.644320 0.364227 0.720311
Si Si4 0.854936 0.929082 0.866696
Si Si5 0.151546 0.069380 0.419263
O O1 0.647905 0.781737 0.859716
O O2 0.696587 0.699259 0.751137
O O3 0.500000 0.131777 0.907179
O O4 0.752417 0.112296 0.908853
O O5 0.652341 0.189415 0.000000
O O6 0.500000 0.350724 0.701327
O O7 0.660092 0.418614 0.779790
O O8 0.711161 0.386869 0.644510
O O9 0.000000 0.911316 0.890709
O O10 0.826931 0.000000 0.885303
O O11 0.191396 0.094477 0.500000
O O12 0.000000 0.067495 0.412144
O O13 0.204431 0.000000 0.408937
#
# Coordination Sequence:
#
# PCOD8268337 Si02
#       5
#     8  16  16  16  16
#     4  10  19  32  47  64  86 118 158 198 231 270
#     4  10  21  35  50  68  91 121 157 197 240 285
#     4   9  16  27  44  64  88 119 152 187 227 270
#     4   9  18  32  50  72  96 122 154 193 237 284
#     4   8  13  22  39  64  91 116 142 176 222 273
#
# _framework density 17.339112
#
# number of rings (size 3 to 8) (size 9 to 14) (size 15 to 20)
#    0.000    2.889    0.000    2.333    0.000    4.889 
#    0.000    2.778    0.000    0.000    0.000    0.000 
#    0.000    8.000    0.000   71.333    0.000   27.778 
#
# Total GULP energy -445980.027345 kJ/mol
# GULP energy per Si atom -12388.334093 kJ/mol
# Density = 1.729965 g / cm^3
# Si number density = 17.339112 Si / 1000 Ang^3
#
#
#
# Elastic Constant Matrix: (Units=GPa)
#
#
# Indices 1 2 3 4 5 6 
#
# 1 72.7620 37.0033 39.4282 0.0000 0.0000 0.0000
# 2 37.0033 97.8525 61.2851 0.0000 0.0000 0.0000
# 3 39.4282 61.2851 142.2930 0.0000 0.0000 0.0000
# 4 0.0000 0.0000 0.0000 18.9317 0.0000 0.0000
# 5 0.0000 0.0000 0.0000 0.0000 13.9847 0.0000
# 6 0.0000 0.0000 0.0000 0.0000 0.0000 20.1462
#
#
#
# Elastic Compliance Matrix: (Units=1/GPa)
#
#
# Indices 1 2 3 4 5 6 
#
# 1 0.017785 -0.004983 -0.002782 0.000000 0.000000 0.000000
# 2 -0.004983 0.015391 -0.005248 0.000000 0.000000 0.000000
# 3 -0.002782 -0.005248 0.010059 0.000000 0.000000 0.000000
# 4 0.000000 0.000000 0.000000 0.052822 0.000000 0.000000
# 5 0.000000 0.000000 0.000000 0.000000 0.071507 0.000000
# 6 0.000000 0.000000 0.000000 0.000000 0.000000 0.049637
#
#
# Mechanical properties :
#
#
# Convention : Reuss Voigt Hill
#
# Bulk Modulus (GPa) = 58.11031 65.37118 61.74075
# Shear Modulus (GPa) = 20.08340 22.29191 21.18766
#
# Velocity S-wave (km/s) = 3.40703 3.58948 3.49944
# Velocity P-wave (km/s) = 7.00456 7.41367 7.21202
#
# Compressibility (1/GPa) = 0.01720865
#
# Stress axis : x y z
#
# Youngs Moduli (GPa) = 56.22688 64.97450 99.41510
#
# Poissons Ratio (x) = 0.32378 0.27656
# Poissons Ratio (y) = 0.28019 0.52172
# Poissons Ratio (z) = 0.15641 0.34098
#
# Static dielectric constant tensor:
#      x y z
#    x 3.003700 0.000000 0.000000 
#    y 0.000000 3.211250 0.000000 
#    z 0.000000 0.000000 3.575370 
# 
# 
# High freq. dielectric constant tensor:
#      x y z
#    x 1.632030 0.000000 0.000000 
#    y 0.000000 1.658860 0.000000 
#    z 0.000000 0.000000 1.679570 
# 
# From -- ./inp_files/51268.got.cif
#   From: 2010.03.12/outbox.cif.g09.slc.cpg/sg65_26_cif.got.tgz:51268.got - 2010.04.10 20:52:16.
