data_PCOD8268677
_publ_section_title
;
Structure prediction by ZEFSAII (Michael W. Deem and Ramdas Pophale) SiO2 
 PCOD8268677
Probable space group: C M M M
;
_chemical_formula_sum "Si O2"
_cell_formula_units_Z 88
_cell_length_a 9.050801
_cell_length_b 19.158723
_cell_length_c 28.541390
_cell_angle_alpha 90.000000
_cell_angle_beta 90.000000
_cell_angle_gamma 90.000000
_cell_volume 4949.128095
_symmetry_space_group_name_H-M "C M M M"
_symmetry_group_IT_number 65
_symmetry_cell_setting 'orthorhombic'
loop_
_space_group_symop_operation_xyz
x,y,z
-x,-y,z
x,-y,-z
-x,y,-z
-x,-y,-z
x,y,-z
-x,y,z
x,-y,z
1/2+x,1/2+y,z
1/2-x,1/2-y,z
1/2+x,1/2-y,-z
1/2-x,1/2+y,-z
1/2-x,1/2-y,-z
1/2+x,1/2+y,-z
1/2-x,1/2+y,z
1/2+x,1/2-y,z
loop_
_atom_site_type_symbol
_atom_site_label
_atom_site_fract_x
_atom_site_fract_y
_atom_site_fract_z
Si Si1 0.174666 0.325615 0.829419
Si Si2 0.671821 0.582327 0.093420
Si Si3 0.169015 0.678395 0.727552
Si Si4 0.830966 0.919116 0.446723
Si Si5 0.172578 0.675671 0.373666
Si Si6 0.332986 0.917133 0.000000
O O1 0.250000 0.250000 0.835065
O O2 0.247342 0.380225 0.864135
O O3 0.205151 0.359121 0.777197
O O4 0.000000 0.318506 0.839584
O O5 0.500000 0.602444 0.092400
O O6 0.694671 0.500000 0.099597
O O7 0.745935 0.609839 0.045558
O O8 0.250000 0.750000 0.727539
O O9 0.207588 0.640478 0.677982
O O10 0.000000 0.699063 0.727323
O O11 0.802552 0.894931 0.500000
O O12 0.725043 0.876921 0.413003
O O13 0.000000 0.904862 0.432671
O O14 0.792132 0.000000 0.441251
O O15 0.250000 0.750000 0.379535
O O16 0.000000 0.688225 0.380533
O O17 0.500000 0.887163 0.000000
O O18 0.336030 0.000000 0.000000
#
# Coordination Sequence:
#
# PCOD8268677 Si02
#       6
#    16  16  16  16  16   8
#     4  10  19  33  53  75 101 133 168 204 246 296
#     4  10  20  34  52  75 103 133 167 207 248 291
#     4   8  16  30  48  71  98 129 163 200 243 291
#     4   9  19  36  54  71  96 131 167 203 247 298
#     4  10  19  32  52  77 102 128 163 206 248 291
#     4   9  17  31  52  75  98 129 168 205 247 299
#
# _framework density 17.780909000000001
#
# number of rings (size 3 to 8) (size 9 to 14) (size 15 to 20)
#    0.000    2.636    0.000    2.455    0.000    4.727 
#    0.000    2.273    0.000    5.455    0.000    0.000 
#    0.000    0.000    0.000    0.000    0.000    0.000 
#
# Total GULP energy -545137.410734 kJ/mol
# GULP energy per Si atom -12389.486608 kJ/mol
# Density = 1.774044 g / cm^3
# Si number density = 17.780909 Si / 1000 Ang^3
#
#
#
# Elastic Constant Matrix: (Units=GPa)
#
#
# Indices 1 2 3 4 5 6 
#
# 1 111.9375 40.6682 79.5245 0.0000 0.0000 0.0000
# 2 40.6682 43.4709 53.9106 0.0000 0.0000 0.0000
# 3 79.5245 53.9106 164.6130 0.0000 0.0000 0.0000
# 4 0.0000 0.0000 0.0000 31.8192 0.0000 0.0000
# 5 0.0000 0.0000 0.0000 0.0000 30.6076 0.0000
# 6 0.0000 0.0000 0.0000 0.0000 0.0000 29.7859
#
#
#
# Elastic Compliance Matrix: (Units=1/GPa)
#
#
# Indices 1 2 3 4 5 6 
#
# 1 0.015329 -0.008684 -0.004562 0.000000 0.000000 0.000000
# 2 -0.008684 0.043656 -0.010102 0.000000 0.000000 0.000000
# 3 -0.004562 -0.010102 0.011587 0.000000 0.000000 0.000000
# 4 0.000000 0.000000 0.000000 0.031428 0.000000 0.000000
# 5 0.000000 0.000000 0.000000 0.000000 0.032672 0.000000
# 6 0.000000 0.000000 0.000000 0.000000 0.000000 0.033573
#
#
# Mechanical properties :
#
#
# Convention : Reuss Voigt Hill
#
# Bulk Modulus (GPa) = 41.88104 74.24755 58.06429
# Shear Modulus (GPa) = 22.43171 28.17040 25.30106
#
# Velocity S-wave (km/s) = 3.55570 3.98465 3.77627
# Velocity P-wave (km/s) = 6.36101 7.93836 7.19305
#
# Compressibility (1/GPa) = 0.02387715
#
# Stress axis : x y z
#
# Youngs Moduli (GPa) = 65.23489 22.90631 86.30349
#
# Poissons Ratio (x) = 0.19891 0.39368
# Poissons Ratio (y) = 0.56649 0.87185
# Poissons Ratio (z) = 0.29758 0.23140
#
# Static dielectric constant tensor:
#      x y z
#    x 3.406000 0.000000 0.000000 
#    y 0.000000 2.845010 0.000000 
#    z 0.000000 0.000000 4.046310 
# 
# 
# High freq. dielectric constant tensor:
#      x y z
#    x 1.703010 0.000000 0.000000 
#    y 0.000000 1.643510 0.000000 
#    z 0.000000 0.000000 1.712810 
# 
# From -- ./inp_files/67563.got.cif
#   From: 2010.03.12/outbox.cif.g09.slc.cpg/sg65_34_cif.got.tgz:67563.got - 2010.04.10 20:52:16.
