data_PCOD8268495
_publ_section_title
;
Structure prediction by ZEFSAII (Michael W. Deem and Ramdas Pophale) SiO2 
 PCOD8268495
Probable space group: C M M M
;
_chemical_formula_sum "Si O2"
_cell_formula_units_Z 80
_cell_length_a 7.925443
_cell_length_b 19.998756
_cell_length_c 28.809715
_cell_angle_alpha 90.000000
_cell_angle_beta 90.000000
_cell_angle_gamma 90.000000
_cell_volume 4566.311039
_symmetry_space_group_name_H-M "C M M M"
_symmetry_group_IT_number 65
_symmetry_cell_setting 'orthorhombic'
loop_
_space_group_symop_operation_xyz
x,y,z
-x,-y,z
x,-y,-z
-x,y,-z
-x,-y,-z
x,y,-z
-x,y,z
x,-y,z
1/2+x,1/2+y,z
1/2-x,1/2-y,z
1/2+x,1/2-y,-z
1/2-x,1/2+y,-z
1/2-x,1/2-y,-z
1/2+x,1/2+y,-z
1/2-x,1/2+y,z
1/2+x,1/2-y,z
loop_
_atom_site_type_symbol
_atom_site_label
_atom_site_fract_x
_atom_site_fract_y
_atom_site_fract_z
Si Si1 0.185964 0.920579 0.274951
Si Si2 0.197865 0.822750 0.447239
Si Si3 0.806705 0.425334 0.372440
Si Si4 0.000000 0.579871 0.888558
Si Si5 0.187304 0.920522 0.947724
Si Si6 0.500000 0.920120 0.783606
O O1 0.207593 0.895555 0.328024
O O2 0.331784 0.891375 0.241523
O O3 0.000000 0.898010 0.257171
O O4 0.202118 0.000000 0.275186
O O5 0.262629 0.831115 0.500000
O O6 0.250000 0.750000 0.428270
O O7 0.286543 0.878972 0.416937
O O8 0.000000 0.832455 0.443678
O O9 0.741759 0.500000 0.385195
O O10 0.000000 0.428353 0.357224
O O11 0.832132 0.608278 0.913902
O O12 0.000000 0.606868 0.836100
O O13 0.000000 0.500000 0.889736
O O14 0.000000 0.896772 0.931360
O O15 0.193895 0.000000 0.947112
O O16 0.222608 0.894921 0.000000
O O17 0.500000 0.000000 0.782851
#
# Coordination Sequence:
#
# PCOD8268495 Si02
#       6
#    16  16  16   8  16   8
#     4   9  16  27  42  58  79 106 136 173 217 263
#     4  10  21  36  52  71  97 126 154 186 229 279
#     4  10  19  32  51  72  94 120 154 192 227 274
#     4   9  15  20  29  42  60  85 116 155 207 266
#     4   8  13  20  28  38  54  79 115 159 205 253
#     4   9  16  25  34  51  75  98 127 168 218 269
#
# _framework density 17.519611999999999
#
# number of rings (size 3 to 8) (size 9 to 14) (size 15 to 20)
#    0.000    2.800    1.000    2.100    0.000    4.800 
#    0.000    6.000    0.000    0.000    0.000    0.000 
#    0.000    0.000    0.000    0.000    0.000    0.000 
#
# Total GULP energy -495803.880978 kJ/mol
# GULP energy per Si atom -12395.097024 kJ/mol
# Density = 1.747974 g / cm^3
# Si number density = 17.519612 Si / 1000 Ang^3
#
#
#
# Elastic Constant Matrix: (Units=GPa)
#
#
# Indices 1 2 3 4 5 6 
#
# 1 133.2465 16.7968 68.3121 0.0000 0.0000 0.0000
# 2 16.7968 33.6863 31.3166 0.0000 0.0000 0.0000
# 3 68.3121 31.3166 120.5814 0.0000 0.0000 0.0000
# 4 0.0000 0.0000 0.0000 0.9265 0.0000 0.0000
# 5 0.0000 0.0000 0.0000 0.0000 26.1103 0.0000
# 6 0.0000 0.0000 0.0000 0.0000 0.0000 11.9539
#
#
#
# Elastic Compliance Matrix: (Units=1/GPa)
#
#
# Indices 1 2 3 4 5 6 
#
# 1 0.010581 0.000391 -0.006096 0.000000 0.000000 0.000000
# 2 0.000391 0.039149 -0.010389 0.000000 0.000000 0.000000
# 3 -0.006096 -0.010389 0.014445 0.000000 0.000000 0.000000
# 4 0.000000 0.000000 0.000000 1.079279 0.000000 0.000000
# 5 0.000000 0.000000 0.000000 0.000000 0.038299 0.000000
# 6 0.000000 0.000000 0.000000 0.000000 0.000000 0.083655
#
#
# Mechanical properties :
#
#
# Convention : Reuss Voigt Hill
#
# Bulk Modulus (GPa) = 31.26281 57.81837 44.54059
# Shear Modulus (GPa) = 3.82188 19.20406 11.51297
#
# Velocity S-wave (km/s) = 1.47859 3.31440 2.56627
# Velocity P-wave (km/s) = 4.56050 6.90802 5.85316
#
# Compressibility (1/GPa) = 0.03198688
#
# Stress axis : x y z
#
# Youngs Moduli (GPa) = 94.51120 25.54356 69.22915
#
# Poissons Ratio (x) = -0.00999 0.42201
# Poissons Ratio (y) = -0.03697 0.71923
# Poissons Ratio (z) = 0.57613 0.26537
#
# Static dielectric constant tensor:
#      x y z
#    x 3.566640 0.000000 0.000000 
#    y 0.000000 2.563960 0.000000 
#    z 0.000000 0.000000 3.332990 
# 
# 
# High freq. dielectric constant tensor:
#      x y z
#    x 1.699360 0.000000 0.000000 
#    y 0.000000 1.591340 0.000000 
#    z 0.000000 0.000000 1.675140 
# 
# From -- ./inp_files/72955.got.cif
#   From: 2010.03.12/outbox.cif.g09.slc.cpg/sg65_37_cif.got.tgz:72955.got - 2010.04.10 20:52:16.
