data_PCOD8268394
_publ_section_title
;
Structure prediction by ZEFSAII (Michael W. Deem and Ramdas Pophale) SiO2 
 PCOD8268394
Probable space group: C M M M
;
_chemical_formula_sum "Si O2"
_cell_formula_units_Z 104
_cell_length_a 22.603769
_cell_length_b 28.990112
_cell_length_c 8.177309
_cell_angle_alpha 90.000000
_cell_angle_beta 90.000000
_cell_angle_gamma 90.000000
_cell_volume 5358.474428
_symmetry_space_group_name_H-M "C M M M"
_symmetry_group_IT_number 65
_symmetry_cell_setting 'orthorhombic'
loop_
_space_group_symop_operation_xyz
x,y,z
-x,-y,z
x,-y,-z
-x,y,-z
-x,-y,-z
x,y,-z
-x,y,z
x,-y,z
1/2+x,1/2+y,z
1/2-x,1/2-y,z
1/2+x,1/2-y,-z
1/2-x,1/2+y,-z
1/2-x,1/2-y,-z
1/2+x,1/2+y,-z
1/2-x,1/2+y,z
1/2+x,1/2-y,z
loop_
_atom_site_type_symbol
_atom_site_label
_atom_site_fract_x
_atom_site_fract_y
_atom_site_fract_z
Si Si1 0.569524 0.899134 0.320404
Si Si2 0.635452 0.808479 0.313161
Si Si3 0.364895 0.639371 0.812132
Si Si4 0.570466 0.948182 0.000000
Si Si5 0.433404 0.720373 0.308415
Si Si6 0.243263 0.801731 0.811444
Si Si7 0.567015 0.551725 0.805287
O O1 0.594025 0.915802 0.500000
O O2 0.500000 0.905816 0.320112
O O3 0.583806 0.845687 0.293955
O O4 0.597326 0.926606 0.166988
O O5 0.654839 0.802641 0.500000
O O6 0.610137 0.760438 0.243541
O O7 0.692791 0.825286 0.212109
O O8 0.419735 0.674028 0.790757
O O9 0.307004 0.664647 0.729796
O O10 0.386210 0.590036 0.734600
O O11 0.350272 0.630184 0.000000
O O12 0.500000 0.942959 0.000000
O O13 0.592183 0.000000 0.000000
O O14 0.424104 0.711465 0.500000
O O15 0.500000 0.735733 0.270271
O O16 0.250000 0.750000 0.732106
O O17 0.226168 0.796199 0.000000
O O18 0.500000 0.561513 0.741168
O O19 0.586736 0.500000 0.750110
O O20 0.566380 0.555008 0.000000
#
# Coordination Sequence:
#
# PCOD8268394 Si02
#       7
#    16  16  16   8  16  16  16
#     4   9  18  33  52  77 108 139 174 218 269 326
#     4  10  20  33  51  71  96 135 176 209 253 311
#     4  10  19  32  49  71  99 131 169 209 250 305
#     4   9  18  32  52  80 107 134 172 214 263 324
#     4  10  20  32  47  70 101 133 164 205 254 304
#     4  10  20  33  47  68  99 133 168 213 254 297
#     4   8  14  26  47  74  99 123 157 206 258 303
#
# _framework density 19.408508999999999
#
# number of rings (size 3 to 8) (size 9 to 14) (size 15 to 20)
#    0.000    2.538    1.538    1.385    1.077    4.000 
#    0.000    1.538    0.000    1.385    0.000    2.154 
#    0.000    0.000    0.000    0.000    0.000    0.000 
#
# Total GULP energy -644246.877420 kJ/mol
# GULP energy per Si atom -12389.363027 kJ/mol
# Density = 1.936433 g / cm^3
# Si number density = 19.408509 Si / 1000 Ang^3
#
#
#
# Elastic Constant Matrix: (Units=GPa)
#
#
# Indices 1 2 3 4 5 6 
#
# 1 88.6384 52.2425 11.5266 0.0000 0.0000 0.0000
# 2 52.2425 148.6129 34.8265 0.0000 0.0000 0.0000
# 3 11.5266 34.8265 52.4531 0.0000 0.0000 0.0000
# 4 0.0000 0.0000 0.0000 17.1951 0.0000 0.0000
# 5 0.0000 0.0000 0.0000 0.0000 18.2384 0.0000
# 6 0.0000 0.0000 0.0000 0.0000 0.0000 28.9043
#
#
#
# Elastic Compliance Matrix: (Units=1/GPa)
#
#
# Indices 1 2 3 4 5 6 
#
# 1 0.014232 -0.005057 0.000230 0.000000 0.000000 0.000000
# 2 -0.005057 0.009766 -0.005373 0.000000 0.000000 0.000000
# 3 0.000230 -0.005373 0.022581 0.000000 0.000000 0.000000
# 4 0.000000 0.000000 0.000000 0.058156 0.000000 0.000000
# 5 0.000000 0.000000 0.000000 0.000000 0.054829 0.000000
# 6 0.000000 0.000000 0.000000 0.000000 0.000000 0.034597
#
#
# Mechanical properties :
#
#
# Convention : Reuss Voigt Hill
#
# Bulk Modulus (GPa) = 38.19697 54.09952 46.14824
# Shear Modulus (GPa) = 22.39264 25.60817 24.00040
#
# Velocity S-wave (km/s) = 3.40038 3.63634 3.52034
# Velocity P-wave (km/s) = 5.92790 6.75020 6.35237
#
# Compressibility (1/GPa) = 0.02618009
#
# Stress axis : x y z
#
# Youngs Moduli (GPa) = 70.26176 102.39920 44.28446
#
# Poissons Ratio (x) = 0.51785 -0.01019
# Poissons Ratio (y) = 0.35532 0.23793
# Poissons Ratio (z) = -0.01617 0.55016
#
# Static dielectric constant tensor:
#      x y z
#    x 3.479460 0.000000 0.000000 
#    y 0.000000 3.710640 0.000000 
#    z 0.000000 0.000000 3.480490 
# 
# 
# High freq. dielectric constant tensor:
#      x y z
#    x 1.734740 0.000000 0.000000 
#    y 0.000000 1.746110 0.000000 
#    z 0.000000 0.000000 1.732480 
# 
# From -- ./inp_files/14739.got.cif
#   From: 2010.03.12/outbox.cif.g09.slc.cpg/sg65_8_cif.got.tgz:14739.got - 2010.04.10 20:52:16.
