data_PCOD8268247
_publ_section_title
;
Structure prediction by ZEFSAII (Michael W. Deem and Ramdas Pophale) SiO2 
 PCOD8268247
Probable space group: C M M M
;
_chemical_formula_sum "Si O2"
_cell_formula_units_Z 80
_cell_length_a 18.256227
_cell_length_b 8.859372
_cell_length_c 25.713909
_cell_angle_alpha 90.000000
_cell_angle_beta 90.000000
_cell_angle_gamma 90.000000
_cell_volume 4158.934376
_symmetry_space_group_name_H-M "C M M M"
_symmetry_group_IT_number 65
_symmetry_cell_setting 'orthorhombic'
loop_
_space_group_symop_operation_xyz
x,y,z
-x,-y,z
x,-y,-z
-x,y,-z
-x,-y,-z
x,y,-z
-x,y,z
x,-y,z
1/2+x,1/2+y,z
1/2-x,1/2-y,z
1/2+x,1/2-y,-z
1/2-x,1/2+y,-z
1/2-x,1/2-y,-z
1/2+x,1/2+y,-z
1/2-x,1/2+y,z
1/2+x,1/2-y,z
loop_
_atom_site_type_symbol
_atom_site_label
_atom_site_fract_x
_atom_site_fract_y
_atom_site_fract_z
Si Si1 0.329501 0.322124 0.657620
Si Si2 0.585429 0.325795 0.760540
Si Si3 0.329386 0.176785 0.556370
Si Si4 0.171784 0.322958 0.851538
Si Si5 0.083599 0.825401 0.060136
O O1 0.321527 0.500000 0.651787
O O2 0.250000 0.250000 0.665804
O O3 0.378895 0.276191 0.706309
O O4 0.369480 0.255673 0.605481
O O5 0.500000 0.294588 0.755987
O O6 0.602483 0.500000 0.773281
O O7 0.616526 0.224313 0.806424
O O8 0.368717 0.204905 0.500000
O O9 0.250000 0.250000 0.553861
O O10 0.322067 0.000000 0.567435
O O11 0.182370 0.500000 0.851215
O O12 0.250000 0.250000 0.841180
O O13 0.139316 0.274407 0.906981
O O14 0.000000 0.778857 0.072738
O O15 0.095444 0.000000 0.074440
O O16 0.101273 0.795839 0.000000
#
# Coordination Sequence:
#
# PCOD8268247 Si02
#       5
#    16  16  16  16  16
#     4  10  19  31  51  77 104 136 173 216 265 315
#     4  10  22  40  59  79 107 142 179 222 273 328
#     4   9  16  26  43  69 101 135 170 211 260 312
#     4  12  25  39  58  84 113 146 184 227 274 321
#     4   9  19  38  63  88 116 151 186 221 267 321
#
# _framework density 19.235696999999998
#
# number of rings (size 3 to 8) (size 9 to 14) (size 15 to 20)
#    0.000    2.000    0.000    6.000    0.000    8.400 
#    0.000    1.000    0.000    0.600    0.000    4.200 
#    0.000    0.000    0.000    0.000    0.000    0.000 
#
# Total GULP energy -495923.257680 kJ/mol
# GULP energy per Si atom -12398.081442 kJ/mol
# Density = 1.919192 g / cm^3
# Si number density = 19.235697 Si / 1000 Ang^3
#
#
#
# Elastic Constant Matrix: (Units=GPa)
#
#
# Indices 1 2 3 4 5 6 
#
# 1 72.4047 36.5189 47.5711 0.0000 0.0000 0.0000
# 2 36.5189 111.8197 59.7040 0.0000 0.0000 0.0000
# 3 47.5711 59.7040 138.2999 0.0000 0.0000 0.0000
# 4 0.0000 0.0000 0.0000 -47.4544 0.0000 0.0000
# 5 0.0000 0.0000 0.0000 0.0000 3.6892 0.0000
# 6 0.0000 0.0000 0.0000 0.0000 0.0000 24.9188
#
#
#
# Elastic Compliance Matrix: (Units=1/GPa)
#
#
# Indices 1 2 3 4 5 6 
#
# 1 0.018842 -0.003500 -0.004970 0.000000 0.000000 0.000000
# 2 -0.003500 0.012272 -0.004094 0.000000 0.000000 0.000000
# 3 -0.004970 -0.004094 0.010708 0.000000 0.000000 0.000000
# 4 0.000000 0.000000 0.000000 -0.021073 0.000000 0.000000
# 5 0.000000 0.000000 0.000000 0.000000 0.271062 0.000000
# 6 0.000000 0.000000 0.000000 0.000000 0.000000 0.040130
#
#
# Mechanical properties :
#
#
# Convention : Reuss Voigt Hill
#
# Bulk Modulus (GPa) = 59.90339 67.79026 63.84683
# Shear Modulus (GPa) = 13.78804 8.14606 10.96705
#
# Velocity S-wave (km/s) = 2.68021 2.06011 2.39035
# Velocity P-wave (km/s) = 6.38650 6.40134 6.39393
#
# Compressibility (1/GPa) = 0.01669354
#
# Stress axis : x y z
#
# Youngs Moduli (GPa) = 53.07300 81.48743 93.39147
#
# Poissons Ratio (x) = 0.28519 0.46418
# Poissons Ratio (y) = 0.18574 0.38234
# Poissons Ratio (z) = 0.26378 0.33360
#
# Static dielectric constant tensor:
#      x y z
#    x 3.257730 0.000000 0.000000 
#    y 0.000000 3.563480 0.000000 
#    z 0.000000 0.000000 4.129040 
# 
# 
# High freq. dielectric constant tensor:
#      x y z
#    x 1.716750 0.000000 0.000000 
#    y 0.000000 1.751910 0.000000 
#    z 0.000000 0.000000 1.774790 
# 
# From -- ./inp_files/72744.got.cif
#   From: 2010.03.12/outbox.cif.g09.slc.cpg/sg65_37_cif.got.tgz:72744.got - 2010.04.10 20:52:16.
