data_PCOD8268238
_publ_section_title
;
Structure prediction by ZEFSAII (Michael W. Deem and Ramdas Pophale) SiO2 
 PCOD8268238
Probable space group: C M M M
;
_chemical_formula_sum "Si O2"
_cell_formula_units_Z 88
_cell_length_a 9.565754
_cell_length_b 17.965075
_cell_length_c 29.055495
_cell_angle_alpha 90.000000
_cell_angle_beta 90.000000
_cell_angle_gamma 90.000000
_cell_volume 4993.171941
_symmetry_space_group_name_H-M "C M M M"
_symmetry_group_IT_number 65
_symmetry_cell_setting 'orthorhombic'
loop_
_space_group_symop_operation_xyz
x,y,z
-x,-y,z
x,-y,-z
-x,y,-z
-x,-y,-z
x,y,-z
-x,y,z
x,-y,z
1/2+x,1/2+y,z
1/2-x,1/2-y,z
1/2+x,1/2-y,-z
1/2-x,1/2+y,-z
1/2-x,1/2-y,-z
1/2+x,1/2+y,-z
1/2-x,1/2+y,z
1/2+x,1/2-y,z
loop_
_atom_site_type_symbol
_atom_site_label
_atom_site_fract_x
_atom_site_fract_y
_atom_site_fract_z
Si Si1 0.334012 0.174061 0.500000
Si Si2 0.338241 0.085796 0.231508
Si Si3 0.835212 0.674690 0.322640
Si Si4 0.157460 0.089059 0.147142
Si Si5 0.334593 0.083019 0.410858
Si Si6 0.333873 0.583419 0.951274
O O1 0.500000 0.189842 0.500000
O O2 0.250000 0.250000 0.500000
O O3 0.285191 0.127788 0.455607
O O4 0.500000 0.094927 0.219722
O O5 0.295574 0.131102 0.276489
O O6 0.254277 0.119255 0.188124
O O7 0.299161 0.000000 0.240634
O O8 0.750000 0.750000 0.323710
O O9 0.782893 0.625109 0.365301
O O10 0.000000 0.691643 0.325729
O O11 0.214647 0.120661 0.097337
O O12 0.000000 0.116855 0.156865
O O13 0.162099 0.000000 0.144895
O O14 0.500000 0.076544 0.410429
O O15 0.269277 0.000000 0.411842
O O16 0.500000 0.579993 0.948758
O O17 0.273535 0.500000 0.953374
O O18 0.287818 0.623739 0.000000
#
# Coordination Sequence:
#
# PCOD8268238 Si02
#       6
#     8  16  16  16  16  16
#     4  10  19  31  51  77 103 130 158 192 232 270
#     4   9  17  29  44  61  83 114 149 181 217 264
#     4  10  20  33  49  68  91 119 150 187 229 271
#     4   8  13  21  35  56  80 107 141 180 218 255
#     4   9  17  31  52  75  96 122 160 197 225 263
#     4   7   9  14  26  46  73 104 136 169 207 253
#
# _framework density 17.624068000000001
#
# number of rings (size 3 to 8) (size 9 to 14) (size 15 to 20)
#    0.000    3.273    0.000    3.000    0.000    4.000 
#    0.000    0.000    0.000    4.364    0.000    3.818 
#    0.000    0.727    0.000    1.636    0.000    4.364 
#
# Total GULP energy -545089.661436 kJ/mol
# GULP energy per Si atom -12388.401396 kJ/mol
# Density = 1.758396 g / cm^3
# Si number density = 17.624068 Si / 1000 Ang^3
#
#
#
# Elastic Constant Matrix: (Units=GPa)
#
#
# Indices 1 2 3 4 5 6 
#
# 1 34.9984 34.5141 52.9434 0.0000 0.0000 0.0000
# 2 34.5141 92.0955 73.4491 0.0000 0.0000 0.0000
# 3 52.9434 73.4491 220.2910 0.0000 0.0000 0.0000
# 4 0.0000 0.0000 0.0000 0.4692 0.0000 0.0000
# 5 0.0000 0.0000 0.0000 0.0000 22.9149 0.0000
# 6 0.0000 0.0000 0.0000 0.0000 0.0000 20.9074
#
#
#
# Elastic Compliance Matrix: (Units=1/GPa)
#
#
# Indices 1 2 3 4 5 6 
#
# 1 0.055344 -0.013803 -0.008699 0.000000 0.000000 0.000000
# 2 -0.013803 0.018234 -0.002762 0.000000 0.000000 0.000000
# 3 -0.008699 -0.002762 0.007551 0.000000 0.000000 0.000000
# 4 0.000000 0.000000 0.000000 2.131081 0.000000 0.000000
# 5 0.000000 0.000000 0.000000 0.000000 0.043640 0.000000
# 6 0.000000 0.000000 0.000000 0.000000 0.000000 0.047830
#
#
# Mechanical properties :
#
#
# Convention : Reuss Voigt Hill
#
# Bulk Modulus (GPa) = 32.67917 74.35535 53.51726
# Shear Modulus (GPa) = 2.11469 21.29020 11.70245
#
# Velocity S-wave (km/s) = 1.09658 3.47943 2.57962
# Velocity P-wave (km/s) = 4.49288 7.64350 6.26933
#
# Compressibility (1/GPa) = 0.03060053
#
# Stress axis : x y z
#
# Youngs Moduli (GPa) = 18.06881 54.84168 132.43262
#
# Poissons Ratio (x) = 0.75701 1.15199
# Poissons Ratio (y) = 0.24941 0.36581
# Poissons Ratio (z) = 0.15717 0.15148
#
# Static dielectric constant tensor:
#      x y z
#    x 2.907050 0.000000 0.000000 
#    y 0.000000 2.950570 0.000000 
#    z 0.000000 0.000000 3.946770 
# 
# 
# High freq. dielectric constant tensor:
#      x y z
#    x 1.635760 0.000000 0.000000 
#    y 0.000000 1.639910 0.000000 
#    z 0.000000 0.000000 1.714460 
# 
# From -- ./inp_files/76607.got.cif
#   From: 2010.03.12/outbox.cif.g09.slc.cpg/sg65_39_cif.got.tgz:76607.got - 2010.04.10 20:52:16.
