data_PCOD8268293
_publ_section_title
;
Structure prediction by ZEFSAII (Michael W. Deem and Ramdas Pophale) SiO2 
 PCOD8268293
Probable space group: C M M M
;
_chemical_formula_sum "Si O2"
_cell_formula_units_Z 96
_cell_length_a 25.317318
_cell_length_b 23.125212
_cell_length_c 9.269127
_cell_angle_alpha 90.000000
_cell_angle_beta 90.000000
_cell_angle_gamma 90.000000
_cell_volume 5426.780454
_symmetry_space_group_name_H-M "C M M M"
_symmetry_group_IT_number 65
_symmetry_cell_setting 'orthorhombic'
loop_
_space_group_symop_operation_xyz
x,y,z
-x,-y,z
x,-y,-z
-x,y,-z
-x,-y,-z
x,y,-z
-x,y,z
x,-y,z
1/2+x,1/2+y,z
1/2-x,1/2-y,z
1/2+x,1/2-y,-z
1/2-x,1/2+y,-z
1/2-x,1/2-y,-z
1/2+x,1/2+y,-z
1/2-x,1/2+y,z
1/2+x,1/2-y,z
loop_
_atom_site_type_symbol
_atom_site_label
_atom_site_fract_x
_atom_site_fract_y
_atom_site_fract_z
Si Si1 0.746483 0.933649 0.334413
Si Si2 0.152577 0.378901 0.168818
Si Si3 0.846064 0.857942 0.329009
Si Si4 0.689598 0.750978 0.168207
Si Si5 0.058763 0.064640 0.671293
Si Si6 0.060730 0.566638 0.665924
O O1 0.732195 0.920233 0.500000
O O2 0.695516 0.920844 0.239204
O O3 0.795081 0.894656 0.281507
O O4 0.763402 0.000000 0.314431
O O5 0.165217 0.312799 0.204999
O O6 0.095204 0.392620 0.232206
O O7 0.152647 0.391066 0.000000
O O8 0.848502 0.849979 0.500000
O O9 0.844356 0.795556 0.255512
O O10 0.897963 0.890654 0.268404
O O11 0.750000 0.750000 0.221972
O O12 0.686408 0.735714 0.000000
O O13 0.062570 0.062938 0.500000
O O14 0.000000 0.084606 0.719739
O O15 0.070358 0.000000 0.730739
O O16 0.075692 0.578225 0.500000
O O17 0.071615 0.500000 0.704785
O O18 0.000000 0.582448 0.694587
#
# Coordination Sequence:
#
# PCOD8268293 Si02
#       6
#    16  16  16  16  16  16
#     4  10  20  32  48  74 107 135 162 208 267 318
#     4  11  22  35  53  76 102 136 178 217 253 303
#     4  10  19  31  52  79 102 130 175 219 253 302
#     4  10  21  38  53  68 100 143 177 211 259 307
#     4   8  14  27  49  77 108 137 164 203 257 308
#     4   9  19  37  59  81 107 138 168 205 260 316
#
# _framework density 17.690047
#
# number of rings (size 3 to 8) (size 9 to 14) (size 15 to 20)
#    0.000    2.333    1.667    2.500    0.000    6.667 
#    0.000    1.667    0.000    5.000    0.000    1.167 
#    0.000    0.000    0.000    0.000    0.000    0.000 
#
# Total GULP energy -595293.940034 kJ/mol
# GULP energy per Si atom -12401.957084 kJ/mol
# Density = 1.764978 g / cm^3
# Si number density = 17.690047 Si / 1000 Ang^3
#
#
#
# Elastic Constant Matrix: (Units=GPa)
#
#
# Indices 1 2 3 4 5 6 
#
# 1 114.8754 54.3691 38.0681 0.0000 0.0000 0.0000
# 2 54.3691 92.4955 40.1461 0.0000 0.0000 0.0000
# 3 38.0681 40.1461 47.8962 0.0000 0.0000 0.0000
# 4 0.0000 0.0000 0.0000 21.0411 0.0000 0.0000
# 5 0.0000 0.0000 0.0000 0.0000 17.8467 0.0000
# 6 0.0000 0.0000 0.0000 0.0000 0.0000 31.3100
#
#
#
# Elastic Compliance Matrix: (Units=1/GPa)
#
#
# Indices 1 2 3 4 5 6 
#
# 1 0.013150 -0.005019 -0.006245 0.000000 0.000000 0.000000
# 2 -0.005019 0.018909 -0.011860 0.000000 0.000000 0.000000
# 3 -0.006245 -0.011860 0.035783 0.000000 0.000000 0.000000
# 4 0.000000 0.000000 0.000000 0.047526 0.000000 0.000000
# 5 0.000000 0.000000 0.000000 0.000000 0.056033 0.000000
# 6 0.000000 0.000000 0.000000 0.000000 0.000000 0.031939
#
#
# Mechanical properties :
#
#
# Convention : Reuss Voigt Hill
#
# Bulk Modulus (GPa) = 46.30923 57.82597 52.06760
# Shear Modulus (GPa) = 19.47141 22.21846 20.84494
#
# Velocity S-wave (km/s) = 3.32128 3.54783 3.43642
# Velocity P-wave (km/s) = 6.39866 7.03862 6.72626
#
# Compressibility (1/GPa) = 0.02159397
#
# Stress axis : x y z
#
# Youngs Moduli (GPa) = 76.04562 52.88350 27.94622
#
# Poissons Ratio (x) = 0.26544 0.17451
# Poissons Ratio (y) = 0.38169 0.33145
# Poissons Ratio (z) = 0.47487 0.62722
#
# Static dielectric constant tensor:
#      x y z
#    x 3.399660 0.000000 0.000000 
#    y 0.000000 3.262590 0.000000 
#    z 0.000000 0.000000 3.050750 
# 
# 
# High freq. dielectric constant tensor:
#      x y z
#    x 1.688520 0.000000 0.000000 
#    y 0.000000 1.684020 0.000000 
#    z 0.000000 0.000000 1.661580 
# 
# From -- ./inp_files/12237.got.cif
#   From: 2010.03.12/outbox.cif.g09.slc.cpg/sg65_7_cif.got.tgz:12237.got - 2010.04.10 20:52:16.
