data_PCOD8268936
_publ_section_title
;
Structure prediction by ZEFSAII (Michael W. Deem and Ramdas Pophale) SiO2 
 PCOD8268936
Probable space group: C M M M
;
_chemical_formula_sum "Si O2"
_cell_formula_units_Z 96
_cell_length_a 20.626343
_cell_length_b 28.097023
_cell_length_c 9.858047
_cell_angle_alpha 90.000000
_cell_angle_beta 90.000000
_cell_angle_gamma 90.000000
_cell_volume 5713.121061
_symmetry_space_group_name_H-M "C M M M"
_symmetry_group_IT_number 65
_symmetry_cell_setting 'orthorhombic'
loop_
_space_group_symop_operation_xyz
x,y,z
-x,-y,z
x,-y,-z
-x,y,-z
-x,-y,-z
x,y,-z
-x,y,z
x,-y,z
1/2+x,1/2+y,z
1/2-x,1/2-y,z
1/2+x,1/2-y,-z
1/2-x,1/2+y,-z
1/2-x,1/2-y,-z
1/2+x,1/2+y,-z
1/2-x,1/2+y,z
1/2+x,1/2-y,z
loop_
_atom_site_type_symbol
_atom_site_label
_atom_site_fract_x
_atom_site_fract_y
_atom_site_fract_z
Si Si1 0.398727 0.650750 0.146113
Si Si2 0.289739 0.445894 0.648658
Si Si3 0.694084 0.211527 0.657448
Si Si4 0.428363 0.447211 0.253176
Si Si5 0.571164 0.270304 0.652935
Si Si6 0.248560 0.866153 0.843360
O O1 0.421058 0.595584 0.145991
O O2 0.432247 0.681144 0.262359
O O3 0.321998 0.657028 0.162546
O O4 0.419808 0.671255 0.000000
O O5 0.266022 0.428403 0.500000
O O6 0.269024 0.500000 0.673815
O O7 0.368320 0.440759 0.643950
O O8 0.254591 0.416949 0.768016
O O9 0.693046 0.194697 0.500000
O O10 0.750000 0.250000 0.680298
O O11 0.625271 0.233532 0.703777
O O12 0.703296 0.167342 0.758430
O O13 0.500000 0.443371 0.323513
O O14 0.422525 0.500000 0.183809
O O15 0.588440 0.285770 0.500000
O O16 0.500000 0.245989 0.661218
O O17 0.271924 0.872382 0.000000
#
# Coordination Sequence:
#
# PCOD8268936 Si02
#       6
#    16  16  16  16  16  16
#     4  10  20  32  46  65  89 120 160 203 245 287
#     4   9  18  32  49  68  92 123 158 198 242 286
#     4  10  19  33  53  73  93 124 163 200 238 286
#     4   9  18  30  42  60  87 119 158 204 250 290
#     4  10  21  35  50  70  96 124 155 196 244 288
#     4  10  20  32  49  72  96 124 159 201 242 282
#
# _framework density 16.803424
#
# number of rings (size 3 to 8) (size 9 to 14) (size 15 to 20)
#    0.000    2.333    1.667    1.000    0.000    6.000 
#    0.000    5.833    0.000    0.000    0.000    0.000 
#    0.000    0.667    0.000    7.667    0.000    2.333 
#
# Total GULP energy -594715.053221 kJ/mol
# GULP energy per Si atom -12389.896942 kJ/mol
# Density = 1.676518 g / cm^3
# Si number density = 16.803424 Si / 1000 Ang^3
#
#
#
# Elastic Constant Matrix: (Units=GPa)
#
#
# Indices 1 2 3 4 5 6 
#
# 1 73.8423 47.6558 32.8951 0.0000 0.0000 0.0000
# 2 47.6558 93.7263 63.7198 0.0000 0.0000 0.0000
# 3 32.8951 63.7198 113.9164 0.0000 0.0000 0.0000
# 4 0.0000 0.0000 0.0000 20.9896 0.0000 0.0000
# 5 0.0000 0.0000 0.0000 0.0000 9.3435 0.0000
# 6 0.0000 0.0000 0.0000 0.0000 0.0000 18.6055
#
#
#
# Elastic Compliance Matrix: (Units=1/GPa)
#
#
# Indices 1 2 3 4 5 6 
#
# 1 0.020158 -0.010153 -0.000142 0.000000 0.000000 0.000000
# 2 -0.010153 0.022330 -0.009559 0.000000 0.000000 0.000000
# 3 -0.000142 -0.009559 0.014166 0.000000 0.000000 0.000000
# 4 0.000000 0.000000 0.000000 0.047643 0.000000 0.000000
# 5 0.000000 0.000000 0.000000 0.000000 0.107026 0.000000
# 6 0.000000 0.000000 0.000000 0.000000 0.000000 0.053747
#
#
# Mechanical properties :
#
#
# Convention : Reuss Voigt Hill
#
# Bulk Modulus (GPa) = 59.00679 63.33626 61.17153
# Shear Modulus (GPa) = 16.10686 18.93535 17.52111
#
# Velocity S-wave (km/s) = 3.09940 3.36054 3.23261
# Velocity P-wave (km/s) = 6.92824 7.26856 7.10044
#
# Compressibility (1/GPa) = 0.01694720
#
# Stress axis : x y z
#
# Youngs Moduli (GPa) = 49.60797 44.78231 70.59157
#
# Poissons Ratio (x) = 0.45468 0.01001
# Poissons Ratio (y) = 0.50368 0.67476
# Poissons Ratio (z) = 0.00703 0.42806
#
# Static dielectric constant tensor:
#      x y z
#    x 3.029350 0.000000 0.000000 
#    y 0.000000 3.044970 0.000000 
#    z 0.000000 0.000000 3.136130 
# 
# 
# High freq. dielectric constant tensor:
#      x y z
#    x 1.616560 0.000000 0.000000 
#    y 0.000000 1.632660 0.000000 
#    z 0.000000 0.000000 1.645700 
# 
# From -- ./inp_files/12254.got.cif
#   From: 2010.03.12/outbox.cif.g09.slc.cpg/sg65_7_cif.got.tgz:12254.got - 2010.04.10 20:52:16.
