data_PCOD8268120
_publ_section_title
;
Structure prediction by ZEFSAII (Michael W. Deem and Ramdas Pophale) SiO2 
 PCOD8268120
Probable space group: C M M M
;
_chemical_formula_sum "Si O2"
_cell_formula_units_Z 64
_cell_length_a 18.795597
_cell_length_b 8.878914
_cell_length_c 20.523189
_cell_angle_alpha 90.000000
_cell_angle_beta 90.000000
_cell_angle_gamma 90.000000
_cell_volume 3425.001916
_symmetry_space_group_name_H-M "C M M M"
_symmetry_group_IT_number 65
_symmetry_cell_setting 'orthorhombic'
loop_
_space_group_symop_operation_xyz
x,y,z
-x,-y,z
x,-y,-z
-x,y,-z
-x,-y,-z
x,y,-z
-x,y,z
x,-y,z
1/2+x,1/2+y,z
1/2-x,1/2-y,z
1/2+x,1/2-y,-z
1/2-x,1/2+y,-z
1/2-x,1/2-y,-z
1/2+x,1/2+y,-z
1/2-x,1/2+y,z
1/2+x,1/2-y,z
loop_
_atom_site_type_symbol
_atom_site_label
_atom_site_fract_x
_atom_site_fract_y
_atom_site_fract_z
Si Si1 0.822860 0.176535 0.925253
Si Si2 0.173097 0.176358 0.570641
Si Si3 0.418188 0.824169 0.821966
Si Si4 0.827413 0.678113 0.697710
O O1 0.750000 0.250000 0.899133
O O2 0.889179 0.235499 0.884192
O O3 0.815239 0.000000 0.916269
O O4 0.836630 0.222476 0.000000
O O5 0.134627 0.202643 0.500000
O O6 0.250000 0.250000 0.566805
O O7 0.134429 0.256907 0.631820
O O8 0.180426 0.000000 0.585259
O O9 0.500000 0.780526 0.812221
O O10 0.376578 0.772742 0.757552
O O11 0.407950 0.000000 0.835278
O O12 0.820150 0.500000 0.691930
O O13 0.750000 0.750000 0.708058
#
# Coordination Sequence:
#
# PCOD8268120 Si02
#       4
#    16  16  16  16
#     4  10  21  37  58  83 108 135 170 211 255 305
#     4   9  16  26  43  69  99 128 161 204 253 303
#     4  10  22  38  54  75 105 140 176 214 257 305
#     4  10  19  31  50  74 100 131 168 210 254 303
#
# _framework density 18.686121
#
# number of rings (size 3 to 8) (size 9 to 14) (size 15 to 20)
#    0.000    2.250    0.000    4.500    0.000    8.000 
#    0.000    2.500    0.000    0.750    0.000    5.250 
#    0.000    0.000    0.000    0.000    0.000    0.000 
#
# Total GULP energy -396688.115758 kJ/mol
# GULP energy per Si atom -12396.503617 kJ/mol
# Density = 1.864359 g / cm^3
# Si number density = 18.686121 Si / 1000 Ang^3
#
#
#
# Elastic Constant Matrix: (Units=GPa)
#
#
# Indices 1 2 3 4 5 6 
#
# 1 87.3119 39.0612 66.9433 0.0000 0.0000 0.0000
# 2 39.0612 84.5485 58.9039 0.0000 0.0000 0.0000
# 3 66.9433 58.9039 146.9581 0.0000 0.0000 0.0000
# 4 0.0000 0.0000 0.0000 36.9200 0.0000 0.0000
# 5 0.0000 0.0000 0.0000 0.0000 6.0977 0.0000
# 6 0.0000 0.0000 0.0000 0.0000 0.0000 22.6396
#
#
#
# Elastic Compliance Matrix: (Units=1/GPa)
#
#
# Indices 1 2 3 4 5 6 
#
# 1 0.018395 -0.003691 -0.006900 0.000000 0.000000 0.000000
# 2 -0.003691 0.017151 -0.005193 0.000000 0.000000 0.000000
# 3 -0.006900 -0.005193 0.012029 0.000000 0.000000 0.000000
# 4 0.000000 0.000000 0.000000 0.027086 0.000000 0.000000
# 5 0.000000 0.000000 0.000000 0.000000 0.163996 0.000000
# 6 0.000000 0.000000 0.000000 0.000000 0.000000 0.044170
#
#
# Mechanical properties :
#
#
# Convention : Reuss Voigt Hill
#
# Bulk Modulus (GPa) = 62.47404 72.07058 67.27231
# Shear Modulus (GPa) = 15.63818 23.39213 19.51516
#
# Velocity S-wave (km/s) = 2.89604 3.54198 3.23517
# Velocity P-wave (km/s) = 6.68496 7.44179 7.07351
#
# Compressibility (1/GPa) = 0.01600665
#
# Stress axis : x y z
#
# Youngs Moduli (GPa) = 54.36333 58.30652 83.13197
#
# Poissons Ratio (x) = 0.21523 0.57359
# Poissons Ratio (y) = 0.20068 0.43169
# Poissons Ratio (z) = 0.37509 0.30278
#
# Static dielectric constant tensor:
#      x y z
#    x 3.080590 0.000000 0.000000 
#    y 0.000000 3.497200 0.000000 
#    z 0.000000 0.000000 4.162200 
# 
# 
# High freq. dielectric constant tensor:
#      x y z
#    x 1.679050 0.000000 0.000000 
#    y 0.000000 1.736370 0.000000 
#    z 0.000000 0.000000 1.750640 
# 
# From -- ./inp_files/49027.got.cif
#   From: 2010.03.12/outbox.cif.g09.slc.cpg/sg65_25_cif.got.tgz:49027.got - 2010.04.10 20:52:16.
