data_PCOD8268871
_publ_section_title
;
Structure prediction by ZEFSAII (Michael W. Deem and Ramdas Pophale) SiO2 
 PCOD8268871
Probable space group: C M M M
;
_chemical_formula_sum "Si O2"
_cell_formula_units_Z 96
_cell_length_a 9.110190
_cell_length_b 22.981149
_cell_length_c 25.715983
_cell_angle_alpha 90.000000
_cell_angle_beta 90.000000
_cell_angle_gamma 90.000000
_cell_volume 5383.965932
_symmetry_space_group_name_H-M "C M M M"
_symmetry_group_IT_number 65
_symmetry_cell_setting 'orthorhombic'
loop_
_space_group_symop_operation_xyz
x,y,z
-x,-y,z
x,-y,-z
-x,y,-z
-x,-y,-z
x,y,-z
-x,y,z
x,-y,z
1/2+x,1/2+y,z
1/2-x,1/2-y,z
1/2+x,1/2-y,-z
1/2-x,1/2+y,-z
1/2-x,1/2-y,-z
1/2+x,1/2+y,-z
1/2-x,1/2+y,z
1/2+x,1/2-y,z
loop_
_atom_site_type_symbol
_atom_site_label
_atom_site_fract_x
_atom_site_fract_y
_atom_site_fract_z
Si Si1 0.326032 0.500000 0.872694
Si Si2 0.673363 0.623120 0.713874
Si Si3 0.670779 0.191210 0.802943
Si Si4 0.330660 0.887038 0.902152
Si Si5 0.326209 0.500000 0.245439
Si Si6 0.672336 0.188690 0.000000
Si Si7 0.169790 0.810008 0.500000
Si Si8 0.671340 0.311532 0.612241
O O1 0.500000 0.500000 0.873558
O O2 0.267825 0.555719 0.903400
O O3 0.264778 0.500000 0.813444
O O4 0.500000 0.628203 0.724553
O O5 0.756639 0.667952 0.750597
O O6 0.730024 0.557406 0.724295
O O7 0.716376 0.640702 0.655094
O O8 0.500000 0.203629 0.793106
O O9 0.750000 0.250000 0.820413
O O10 0.696616 0.144934 0.848028
O O11 0.500000 0.904814 0.909182
O O12 0.277752 0.846383 0.949091
O O13 0.500000 0.500000 0.243843
O O14 0.750000 0.250000 0.000000
O O15 0.500000 0.200153 0.000000
O O16 0.250000 0.750000 0.500000
O O17 0.210583 0.840594 0.555295
O O18 0.000000 0.795667 0.500000
O O19 0.500000 0.297710 0.616606
O O20 0.750000 0.250000 0.621666
#
# Coordination Sequence:
#
# PCOD8268871 Si02
#       8
#     8  16  16  16   8   8   8  16
#     4  11  21  36  60  83 105 138 178 218 255 302
#     4  10  19  33  51  72  99 133 170 211 256 304
#     4  11  22  34  51  76 104 134 166 206 255 308
#     4  10  22  39  58  80 108 140 173 212 259 307
#     4   9  18  33  52  73  99 133 172 209 252 299
#     4  10  22  41  62  83 109 142 176 214 261 312
#     4   8  14  26  42  65  93 127 165 202 249 298
#     4   9  17  28  46  69  98 130 164 207 252 303
#
# _framework density 17.830722000000002
#
# number of rings (size 3 to 8) (size 9 to 14) (size 15 to 20)
#    0.000    2.167    1.667    1.750    0.000    3.667 
#    0.000    2.083    0.000    0.500    0.000    3.500 
#    0.000    0.000    0.000   13.750    0.000   10.167 
#
# Total GULP energy -595048.245266 kJ/mol
# GULP energy per Si atom -12396.838443 kJ/mol
# Density = 1.779014 g / cm^3
# Si number density = 17.830722 Si / 1000 Ang^3
#
#
#
# Elastic Constant Matrix: (Units=GPa)
#
#
# Indices 1 2 3 4 5 6 
#
# 1 54.5474 45.6507 37.8236 0.0000 0.0000 0.0000
# 2 45.6507 119.9236 54.2199 0.0000 0.0000 0.0000
# 3 37.8236 54.2199 137.1651 0.0000 0.0000 0.0000
# 4 0.0000 0.0000 0.0000 24.4383 0.0000 0.0000
# 5 0.0000 0.0000 0.0000 0.0000 22.1153 0.0000
# 6 0.0000 0.0000 0.0000 0.0000 0.0000 26.0145
#
#
#
# Elastic Compliance Matrix: (Units=1/GPa)
#
#
# Indices 1 2 3 4 5 6 
#
# 1 0.028945 -0.009022 -0.004415 0.000000 0.000000 0.000000
# 2 -0.009022 0.012965 -0.002637 0.000000 0.000000 0.000000
# 3 -0.004415 -0.002637 0.009550 0.000000 0.000000 0.000000
# 4 0.000000 0.000000 0.000000 0.040919 0.000000 0.000000
# 5 0.000000 0.000000 0.000000 0.000000 0.045217 0.000000
# 6 0.000000 0.000000 0.000000 0.000000 0.000000 0.038440
#
#
# Mechanical properties :
#
#
# Convention : Reuss Voigt Hill
#
# Bulk Modulus (GPa) = 51.78247 65.22493 58.50370
# Shear Modulus (GPa) = 23.29658 26.10976 24.70317
#
# Velocity S-wave (km/s) = 3.61853 3.83079 3.72617
# Velocity P-wave (km/s) = 6.82368 7.49840 7.16898
#
# Compressibility (1/GPa) = 0.01931156
#
# Stress axis : x y z
#
# Youngs Moduli (GPa) = 34.54857 77.12870 104.70692
#
# Poissons Ratio (x) = 0.69586 0.46231
# Poissons Ratio (y) = 0.31170 0.27613
# Poissons Ratio (z) = 0.15254 0.20341
#
# Static dielectric constant tensor:
#      x y z
#    x 3.126410 0.000000 0.000000 
#    y 0.000000 3.264330 0.000000 
#    z 0.000000 0.000000 3.784160 
# 
# 
# High freq. dielectric constant tensor:
#      x y z
#    x 1.681630 0.000000 0.000000 
#    y 0.000000 1.676620 0.000000 
#    z 0.000000 0.000000 1.702780 
# 
# From -- ./inp_files/67938.got.cif
#   From: 2010.03.12/outbox.cif.g09.slc.cpg/sg65_34_cif.got.tgz:67938.got - 2010.04.10 20:52:16.
