data_PCOD8268965
_publ_section_title
;
Structure prediction by ZEFSAII (Michael W. Deem and Ramdas Pophale) SiO2 
 PCOD8268965
Probable space group: C M M M
;
_chemical_formula_sum "Si O2"
_cell_formula_units_Z 80
_cell_length_a 9.393571
_cell_length_b 15.814326
_cell_length_c 29.123178
_cell_angle_alpha 90.000000
_cell_angle_beta 90.000000
_cell_angle_gamma 90.000000
_cell_volume 4326.335290
_symmetry_space_group_name_H-M "C M M M"
_symmetry_group_IT_number 65
_symmetry_cell_setting 'orthorhombic'
loop_
_space_group_symop_operation_xyz
x,y,z
-x,-y,z
x,-y,-z
-x,y,-z
-x,-y,-z
x,y,-z
-x,y,z
x,-y,z
1/2+x,1/2+y,z
1/2-x,1/2-y,z
1/2+x,1/2-y,-z
1/2-x,1/2+y,-z
1/2-x,1/2-y,-z
1/2+x,1/2+y,-z
1/2-x,1/2+y,z
1/2+x,1/2-y,z
loop_
_atom_site_type_symbol
_atom_site_label
_atom_site_fract_x
_atom_site_fract_y
_atom_site_fract_z
Si Si1 0.831467 0.091271 0.802919
Si Si2 0.836883 0.166439 0.290258
Si Si3 0.330858 0.500000 0.447782
Si Si4 0.331541 0.667889 0.895877
Si Si5 0.834796 0.837692 0.607440
Si Si6 0.331093 0.500000 0.948196
O O1 0.774404 0.111507 0.751722
O O2 0.786504 0.157520 0.842246
O O3 0.000000 0.085579 0.801895
O O4 0.768248 0.000000 0.816537
O O5 0.750000 0.250000 0.290938
O O6 0.818691 0.125275 0.340639
O O7 0.000000 0.188551 0.280227
O O8 0.500000 0.500000 0.443846
O O9 0.277052 0.500000 0.500000
O O10 0.273689 0.586573 0.424313
O O11 0.500000 0.681067 0.902070
O O12 0.250000 0.750000 0.915312
O O13 0.277331 0.585023 0.923086
O O14 0.750000 0.750000 0.599061
O O15 0.000000 0.818001 0.596540
O O16 0.500000 0.500000 0.947146
O O17 0.271815 0.500000 0.000000
#
# Coordination Sequence:
#
# PCOD8268965 Si02
#       6
#    16  16   8  16  16   8
#     4   9  16  27  46  71  96 125 162 198 230 275
#     4   9  17  28  45  68  94 122 155 193 232 277
#     4   9  18  32  50  72  96 123 159 201 242 284
#     4  10  19  33  53  75  99 129 164 200 240 286
#     4   9  18  32  50  72  97 126 159 196 239 285
#     4   9  18  34  54  74  98 129 165 201 240 292
#
# _framework density 18.491399000000001
#
# number of rings (size 3 to 8) (size 9 to 14) (size 15 to 20)
#    0.000    2.800    1.000    0.600    1.400    0.800 
#    0.000    1.000    0.000    3.000    0.000    0.000 
#    0.000    0.000    0.000    0.000    0.000    0.000 
#
# Total GULP energy -495597.332628 kJ/mol
# GULP energy per Si atom -12389.933316 kJ/mol
# Density = 1.844931 g / cm^3
# Si number density = 18.491399 Si / 1000 Ang^3
#
#
#
# Elastic Constant Matrix: (Units=GPa)
#
#
# Indices 1 2 3 4 5 6 
#
# 1 27.2019 30.8287 23.9060 0.0000 0.0000 0.0000
# 2 30.8287 127.8250 72.5181 0.0000 0.0000 0.0000
# 3 23.9060 72.5181 134.4727 0.0000 0.0000 0.0000
# 4 0.0000 0.0000 0.0000 28.2648 0.0000 0.0000
# 5 0.0000 0.0000 0.0000 0.0000 14.5639 0.0000
# 6 0.0000 0.0000 0.0000 0.0000 0.0000 7.7345
#
#
#
# Elastic Compliance Matrix: (Units=1/GPa)
#
#
# Indices 1 2 3 4 5 6 
#
# 1 0.051745 -0.010462 -0.003557 0.000000 0.000000 0.000000
# 2 -0.010462 0.013387 -0.005359 0.000000 0.000000 0.000000
# 3 -0.003557 -0.005359 0.010959 0.000000 0.000000 0.000000
# 4 0.000000 0.000000 0.000000 0.035380 0.000000 0.000000
# 5 0.000000 0.000000 0.000000 0.000000 0.068663 0.000000
# 6 0.000000 0.000000 0.000000 0.000000 0.000000 0.129291
#
#
# Mechanical properties :
#
#
# Convention : Reuss Voigt Hill
#
# Bulk Modulus (GPa) = 26.78514 60.44502 43.61508
# Shear Modulus (GPa) = 13.86480 20.92910 17.39695
#
# Velocity S-wave (km/s) = 2.74121 3.36792 3.07060
# Velocity P-wave (km/s) = 4.95335 6.91975 6.01742
#
# Compressibility (1/GPa) = 0.03733413
#
# Stress axis : x y z
#
# Youngs Moduli (GPa) = 19.32560 74.70019 91.24887
#
# Poissons Ratio (x) = 0.78149 0.32459
# Poissons Ratio (y) = 0.20218 0.48904
# Poissons Ratio (z) = 0.06875 0.40035
#
# Static dielectric constant tensor:
#      x y z
#    x 2.925690 0.000000 0.000000 
#    y 0.000000 3.333680 0.000000 
#    z 0.000000 0.000000 4.500480 
# 
# 
# High freq. dielectric constant tensor:
#      x y z
#    x 1.662880 0.000000 0.000000 
#    y 0.000000 1.719870 0.000000 
#    z 0.000000 0.000000 1.728620 
# 
# From -- ./inp_files/74188.got.cif
#   From: 2010.03.12/outbox.cif.g09.slc.cpg/sg65_38_cif.got.tgz:74188.got - 2010.04.10 20:52:16.
