data_PCOD8268265
_publ_section_title
;
Structure prediction by ZEFSAII (Michael W. Deem and Ramdas Pophale) SiO2 
 PCOD8268265
Probable space group: C M M M
;
_chemical_formula_sum "Si O2"
_cell_formula_units_Z 104
_cell_length_a 22.158825
_cell_length_b 14.292575
_cell_length_c 17.734248
_cell_angle_alpha 90.000000
_cell_angle_beta 90.000000
_cell_angle_gamma 90.000000
_cell_volume 5616.554598
_symmetry_space_group_name_H-M "C M M M"
_symmetry_group_IT_number 65
_symmetry_cell_setting 'orthorhombic'
loop_
_space_group_symop_operation_xyz
x,y,z
-x,-y,z
x,-y,-z
-x,y,-z
-x,-y,-z
x,y,-z
-x,y,z
x,-y,z
1/2+x,1/2+y,z
1/2-x,1/2-y,z
1/2+x,1/2-y,-z
1/2-x,1/2+y,-z
1/2-x,1/2-y,-z
1/2+x,1/2+y,-z
1/2-x,1/2+y,z
1/2+x,1/2-y,z
loop_
_atom_site_type_symbol
_atom_site_label
_atom_site_fract_x
_atom_site_fract_y
_atom_site_fract_z
Si Si1 0.631440 0.606256 0.193526
Si Si2 0.068979 0.745426 0.292844
Si Si3 0.678479 0.755496 0.085457
Si Si4 0.067353 0.000000 0.411904
Si Si5 0.260446 0.604372 0.692538
Si Si6 0.852961 0.389254 0.785861
Si Si7 0.853627 0.178436 0.411321
O O1 0.608752 0.500000 0.176623
O O2 0.581808 0.662758 0.241827
O O3 0.646521 0.661200 0.116470
O O4 0.692972 0.603440 0.239490
O O5 0.084331 0.651804 0.245707
O O6 0.109916 0.739853 0.368986
O O7 0.000000 0.744035 0.317653
O O8 0.750000 0.750000 0.089917
O O9 0.658377 0.846692 0.131949
O O10 0.656242 0.768684 0.000000
O O11 0.106583 0.911610 0.387535
O O12 0.057980 0.000000 0.500000
O O13 0.000000 0.000000 0.374320
O O14 0.248238 0.500000 0.661878
O O15 0.198871 0.646343 0.727168
O O16 0.286010 0.665543 0.622343
O O17 0.855359 0.500000 0.793017
O O18 0.849418 0.197748 0.500000
#
# Coordination Sequence:
#
# PCOD8268265 Si02
#       7
#    16  16  16   8  16  16  16
#     4   9  18  32  51  77 113 150 177 210 264 331
#     4  10  22  36  54  79 106 142 192 238 274 323
#     4  10  19  31  53  86 119 145 173 214 267 328
#     4   9  16  26  42  70 108 146 174 204 260 323
#     4   9  16  30  51  74 103 140 179 215 263 325
#     4  10  21  38  58  77 106 145 185 232 276 318
#     4  10  19  31  51  78 110 144 176 224 278 327
#
# _framework density 18.516690000000001
#
# number of rings (size 3 to 8) (size 9 to 14) (size 15 to 20)
#    0.000    2.385    2.308    0.462    1.077    2.154 
#    0.000    3.077    0.000    8.769    0.000    9.692 
#    0.000    0.000    0.000    0.000    0.000    0.000 
#
# Total GULP energy -644514.648385 kJ/mol
# GULP energy per Si atom -12394.512469 kJ/mol
# Density = 1.847455 g / cm^3
# Si number density = 18.516690 Si / 1000 Ang^3
#
#
#
# Elastic Constant Matrix: (Units=GPa)
#
#
# Indices 1 2 3 4 5 6 
#
# 1 48.0875 22.9598 32.8431 0.0000 0.0000 0.0000
# 2 22.9598 99.6564 49.9686 0.0000 0.0000 0.0000
# 3 32.8431 49.9686 137.9443 0.0000 0.0000 0.0000
# 4 0.0000 0.0000 0.0000 20.7156 0.0000 0.0000
# 5 0.0000 0.0000 0.0000 0.0000 15.7468 0.0000
# 6 0.0000 0.0000 0.0000 0.0000 0.0000 18.6600
#
#
#
# Elastic Compliance Matrix: (Units=1/GPa)
#
#
# Indices 1 2 3 4 5 6 
#
# 1 0.025795 -0.003499 -0.004874 0.000000 0.000000 0.000000
# 2 -0.003499 0.012736 -0.003780 0.000000 0.000000 0.000000
# 3 -0.004874 -0.003780 0.009779 0.000000 0.000000 0.000000
# 4 0.000000 0.000000 0.000000 0.048273 0.000000 0.000000
# 5 0.000000 0.000000 0.000000 0.000000 0.063505 0.000000
# 6 0.000000 0.000000 0.000000 0.000000 0.000000 0.053590
#
#
# Mechanical properties :
#
#
# Convention : Reuss Voigt Hill
#
# Bulk Modulus (GPa) = 41.66089 55.24793 48.45441
# Shear Modulus (GPa) = 20.32631 23.01892 21.67262
#
# Velocity S-wave (km/s) = 3.31679 3.52965 3.42488
# Velocity P-wave (km/s) = 6.10050 6.82003 6.47028
#
# Compressibility (1/GPa) = 0.02400333
#
# Stress axis : x y z
#
# Youngs Moduli (GPa) = 38.76723 78.51656 102.25804
#
# Poissons Ratio (x) = 0.27473 0.49841
# Poissons Ratio (y) = 0.13565 0.38658
# Poissons Ratio (z) = 0.18895 0.29683
#
# Static dielectric constant tensor:
#      x y z
#    x 3.273160 0.000000 0.000000 
#    y 0.000000 3.622060 0.000000 
#    z 0.000000 0.000000 3.355230 
# 
# 
# High freq. dielectric constant tensor:
#      x y z
#    x 1.699460 0.000000 0.000000 
#    y 0.000000 1.710830 0.000000 
#    z 0.000000 0.000000 1.706930 
# 
# From -- ./inp_files/56831.got.cif
#   From: 2010.03.12/outbox.cif.g09.slc.cpg/sg65_29_cif.got.tgz:56831.got - 2010.04.10 20:52:16.
