data_PCOD8268370
_publ_section_title
;
Structure prediction by ZEFSAII (Michael W. Deem and Ramdas Pophale) SiO2 
 PCOD8268370
Probable space group: C M M M
;
_chemical_formula_sum "Si O2"
_cell_formula_units_Z 96
_cell_length_a 33.058760
_cell_length_b 13.577078
_cell_length_c 11.697263
_cell_angle_alpha 90.000000
_cell_angle_beta 90.000000
_cell_angle_gamma 90.000000
_cell_volume 5250.215469
_symmetry_space_group_name_H-M "C M M M"
_symmetry_group_IT_number 65
_symmetry_cell_setting 'orthorhombic'
loop_
_space_group_symop_operation_xyz
x,y,z
-x,-y,z
x,-y,-z
-x,y,-z
-x,-y,-z
x,y,-z
-x,y,z
x,-y,z
1/2+x,1/2+y,z
1/2-x,1/2-y,z
1/2+x,1/2-y,-z
1/2-x,1/2+y,-z
1/2-x,1/2-y,-z
1/2+x,1/2+y,-z
1/2-x,1/2+y,z
1/2+x,1/2-y,z
loop_
_atom_site_type_symbol
_atom_site_label
_atom_site_fract_x
_atom_site_fract_y
_atom_site_fract_z
Si Si1 0.723484 0.846718 0.000000
Si Si2 0.344937 0.615016 0.863942
Si Si3 0.046400 0.387489 0.367011
Si Si4 0.865130 0.386616 0.000000
Si Si5 0.311458 0.882490 0.631714
Si Si6 0.885527 0.703460 0.227422
Si Si7 0.260642 0.393315 0.774305
O O1 0.750000 0.750000 0.000000
O O2 0.675797 0.821172 0.000000
O O3 0.734006 0.908824 0.888042
O O4 0.352149 0.500000 0.834103
O O5 0.380140 0.681451 0.807662
O O6 0.303122 0.658175 0.807602
O O7 0.343166 0.628710 0.000000
O O8 0.052574 0.365094 0.500000
O O9 0.059833 0.500000 0.340819
O O10 0.073051 0.309770 0.296713
O O11 0.000000 0.371825 0.331367
O O12 0.890436 0.360769 0.112642
O O13 0.852778 0.500000 0.000000
O O14 0.314065 0.852123 0.500000
O O15 0.348648 0.833581 0.695940
O O16 0.268654 0.839661 0.682082
O O17 0.313381 0.000000 0.649363
O O18 0.271962 0.500000 0.724469
#
# Coordination Sequence:
#
# PCOD8268370 Si02
#       7
#     8  16  16   8  16  16  16
#     4  12  20  28  46  69  98 139 185 232 267 314
#     4  10  21  37  55  76 104 144 193 236 271 316
#     4   9  19  38  64  90 115 145 177 207 250 321
#     4  12  22  30  46  82 117 139 173 228 283 328
#     4  10  21  34  49  73 108 148 185 223 274 336
#     4  12  21  34  55  82 110 144 178 223 274 329
#     4  10  19  32  49  68  96 138 188 235 274 309
#
# _framework density 18.284963000000001
#
# number of rings (size 3 to 8) (size 9 to 14) (size 15 to 20)
#    0.000    1.500    3.333    4.250    0.000    1.333 
#    0.000    2.917    0.000    6.000    0.000    2.333 
#    0.000    0.000    0.000    0.000    0.000    0.000 
#
# Total GULP energy -594914.220610 kJ/mol
# GULP energy per Si atom -12394.046263 kJ/mol
# Density = 1.824335 g / cm^3
# Si number density = 18.284963 Si / 1000 Ang^3
#
#
#
# Elastic Constant Matrix: (Units=GPa)
#
#
# Indices 1 2 3 4 5 6 
#
# 1 97.4864 44.4438 49.4029 0.0000 0.0000 0.0000
# 2 44.4438 76.4910 39.0095 0.0000 0.0000 0.0000
# 3 49.4029 39.0095 110.7370 0.0000 0.0000 0.0000
# 4 0.0000 0.0000 0.0000 9.4496 0.0000 0.0000
# 5 0.0000 0.0000 0.0000 0.0000 35.0236 0.0000
# 6 0.0000 0.0000 0.0000 0.0000 0.0000 25.4806
#
#
#
# Elastic Compliance Matrix: (Units=1/GPa)
#
#
# Indices 1 2 3 4 5 6 
#
# 1 0.015676 -0.006755 -0.004614 0.000000 0.000000 0.000000
# 2 -0.006755 0.018847 -0.003626 0.000000 0.000000 0.000000
# 3 -0.004614 -0.003626 0.012366 0.000000 0.000000 0.000000
# 4 0.000000 0.000000 0.000000 0.105825 0.000000 0.000000
# 5 0.000000 0.000000 0.000000 0.000000 0.028552 0.000000
# 6 0.000000 0.000000 0.000000 0.000000 0.000000 0.039246
#
#
# Mechanical properties :
#
#
# Convention : Reuss Voigt Hill
#
# Bulk Modulus (GPa) = 59.17209 61.15853 60.16531
# Shear Modulus (GPa) = 19.52106 24.11463 21.81784
#
# Velocity S-wave (km/s) = 3.27096 3.63550 3.45804
# Velocity P-wave (km/s) = 6.83351 7.15140 6.99426
#
# Compressibility (1/GPa) = 0.01689986
#
# Stress axis : x y z
#
# Youngs Moduli (GPa) = 63.79372 53.05757 80.86716
#
# Poissons Ratio (x) = 0.35841 0.37309
# Poissons Ratio (y) = 0.43093 0.29321
# Poissons Ratio (z) = 0.29432 0.19238
#
# Static dielectric constant tensor:
#      x y z
#    x 3.130880 0.000000 0.000000 
#    y 0.000000 3.297000 0.000000 
#    z 0.000000 0.000000 3.534890 
# 
# 
# High freq. dielectric constant tensor:
#      x y z
#    x 1.674480 0.000000 0.000000 
#    y 0.000000 1.702210 0.000000 
#    z 0.000000 0.000000 1.710400 
# 
# From -- ./inp_files/33921.got.cif
#   From: 2010.03.12/outbox.cif.g09.slc.cpg/sg65_17_cif.got.tgz:33921.got - 2010.04.10 20:52:16.
