data_PCOD8268754
_publ_section_title
;
Structure prediction by ZEFSAII (Michael W. Deem and Ramdas Pophale) SiO2 
 PCOD8268754
Probable space group: C M M M
;
_chemical_formula_sum "Si O2"
_cell_formula_units_Z 88
_cell_length_a 8.828010
_cell_length_b 18.955288
_cell_length_c 28.420667
_cell_angle_alpha 90.000000
_cell_angle_beta 90.000000
_cell_angle_gamma 90.000000
_cell_volume 4755.842569
_symmetry_space_group_name_H-M "C M M M"
_symmetry_group_IT_number 65
_symmetry_cell_setting 'orthorhombic'
loop_
_space_group_symop_operation_xyz
x,y,z
-x,-y,z
x,-y,-z
-x,y,-z
-x,-y,-z
x,y,-z
-x,y,z
x,-y,z
1/2+x,1/2+y,z
1/2-x,1/2-y,z
1/2+x,1/2-y,-z
1/2-x,1/2+y,-z
1/2-x,1/2-y,-z
1/2+x,1/2+y,-z
1/2-x,1/2+y,z
1/2+x,1/2-y,z
loop_
_atom_site_type_symbol
_atom_site_label
_atom_site_fract_x
_atom_site_fract_y
_atom_site_fract_z
Si Si1 0.320954 0.824250 0.189094
Si Si2 0.823231 0.325433 0.450392
Si Si3 0.680362 0.921897 0.000000
Si Si4 0.822042 0.677209 0.082025
Si Si5 0.177433 0.917533 0.266531
Si Si6 0.320358 0.827493 0.348089
O O1 0.500000 0.819933 0.196301
O O2 0.250000 0.750000 0.205495
O O3 0.275096 0.841400 0.135352
O O4 0.253160 0.887107 0.219648
O O5 0.778869 0.366329 0.500000
O O6 0.750000 0.250000 0.452255
O O7 0.778644 0.360149 0.400175
O O8 0.000000 0.312606 0.449564
O O9 0.738815 0.883209 0.952865
O O10 0.500000 0.924878 0.000000
O O11 0.750457 0.000000 0.000000
O O12 0.750000 0.750000 0.065311
O O13 0.000000 0.686076 0.077628
O O14 0.249285 0.881713 0.311973
O O15 0.000000 0.901832 0.265342
O O16 0.213710 0.000000 0.268646
O O17 0.500000 0.822193 0.339883
O O18 0.250000 0.750000 0.341079
#
# Coordination Sequence:
#
# PCOD8268754 Si02
#       6
#    16  16   8  16  16  16
#     4  10  20  35  56  80 104 131 168 211 254 303
#     4   8  14  25  43  70 101 129 159 198 244 291
#     4   9  17  30  49  75 106 137 170 206 244 287
#     4   9  18  32  53  78 102 132 166 204 247 292
#     4  11  24  39  53  71  99 134 170 211 258 304
#     4  10  19  32  53  78 104 134 168 207 249 297
#
# _framework density 18.503557000000001
#
# number of rings (size 3 to 8) (size 9 to 14) (size 15 to 20)
#    0.000    2.455    0.000    2.455    0.000    3.636 
#    0.000    1.818    0.000    1.636    0.000    3.818 
#    0.000    0.000    0.000    0.000    0.000    0.000 
#
# Total GULP energy -545214.190481 kJ/mol
# GULP energy per Si atom -12391.231602 kJ/mol
# Density = 1.846144 g / cm^3
# Si number density = 18.503557 Si / 1000 Ang^3
#
#
#
# Elastic Constant Matrix: (Units=GPa)
#
#
# Indices 1 2 3 4 5 6 
#
# 1 62.0748 46.1637 45.4471 0.0000 0.0000 0.0000
# 2 46.1637 118.8915 87.1187 0.0000 0.0000 0.0000
# 3 45.4471 87.1187 162.1415 0.0000 0.0000 0.0000
# 4 0.0000 0.0000 0.0000 5.6028 0.0000 0.0000
# 5 0.0000 0.0000 0.0000 0.0000 13.6160 0.0000
# 6 0.0000 0.0000 0.0000 0.0000 0.0000 24.9086
#
#
#
# Elastic Compliance Matrix: (Units=1/GPa)
#
#
# Indices 1 2 3 4 5 6 
#
# 1 0.023377 -0.007052 -0.002763 0.000000 0.000000 0.000000
# 2 -0.007052 0.016000 -0.006620 0.000000 0.000000 0.000000
# 3 -0.002763 -0.006620 0.010499 0.000000 0.000000 0.000000
# 4 0.000000 0.000000 0.000000 0.178481 0.000000 0.000000
# 5 0.000000 0.000000 0.000000 0.000000 0.073443 0.000000
# 6 0.000000 0.000000 0.000000 0.000000 0.000000 0.040147
#
#
# Mechanical properties :
#
#
# Convention : Reuss Voigt Hill
#
# Bulk Modulus (GPa) = 58.80600 77.84076 68.32338
# Shear Modulus (GPa) = 13.14104 19.78403 16.46253
#
# Velocity S-wave (km/s) = 2.66783 3.27341 2.98601
# Velocity P-wave (km/s) = 6.42959 7.51307 6.99235
#
# Compressibility (1/GPa) = 0.01700507
#
# Stress axis : x y z
#
# Youngs Moduli (GPa) = 42.77654 62.49844 95.24605
#
# Poissons Ratio (x) = 0.44075 0.26320
# Poissons Ratio (y) = 0.30167 0.63056
# Poissons Ratio (z) = 0.11821 0.41376
#
# Static dielectric constant tensor:
#      x y z
#    x 3.382620 0.000000 0.000000 
#    y 0.000000 3.217870 0.000000 
#    z 0.000000 0.000000 4.109240 
# 
# 
# High freq. dielectric constant tensor:
#      x y z
#    x 1.716230 0.000000 0.000000 
#    y 0.000000 1.683040 0.000000 
#    z 0.000000 0.000000 1.747910 
# 
# From -- ./inp_files/76700.got.cif
#   From: 2010.03.12/outbox.cif.g09.slc.cpg/sg65_39_cif.got.tgz:76700.got - 2010.04.10 20:52:16.
