data_PCOD8268595
_publ_section_title
;
Structure prediction by ZEFSAII (Michael W. Deem and Ramdas Pophale) SiO2 
 PCOD8268595
Probable space group: C M M M
;
_chemical_formula_sum "Si O2"
_cell_formula_units_Z 72
_cell_length_a 9.994701
_cell_length_b 18.094632
_cell_length_c 21.635237
_cell_angle_alpha 90.000000
_cell_angle_beta 90.000000
_cell_angle_gamma 90.000000
_cell_volume 3912.742056
_symmetry_space_group_name_H-M "C M M M"
_symmetry_group_IT_number 65
_symmetry_cell_setting 'orthorhombic'
loop_
_space_group_symop_operation_xyz
x,y,z
-x,-y,z
x,-y,-z
-x,y,-z
-x,-y,-z
x,y,-z
-x,y,z
x,-y,z
1/2+x,1/2+y,z
1/2-x,1/2-y,z
1/2+x,1/2-y,-z
1/2-x,1/2+y,-z
1/2-x,1/2-y,-z
1/2+x,1/2+y,-z
1/2-x,1/2+y,z
1/2+x,1/2-y,z
loop_
_atom_site_type_symbol
_atom_site_label
_atom_site_fract_x
_atom_site_fract_y
_atom_site_fract_z
Si Si1 0.654739 0.587000 0.268823
Si Si2 0.000000 0.658757 0.929949
Si Si3 0.346462 0.180681 0.500000
Si Si4 0.247088 0.162338 0.853217
Si Si5 0.152232 0.585650 0.620225
Si Si6 0.000000 0.165720 0.931756
O O1 0.500000 0.614075 0.274814
O O2 0.659633 0.500000 0.257907
O O3 0.732428 0.625787 0.213217
O O4 0.738777 0.610094 0.329093
O O5 0.125283 0.631700 0.889887
O O6 0.000000 0.746407 0.935774
O O7 0.000000 0.625470 0.000000
O O8 0.500000 0.207786 0.500000
O O9 0.250000 0.250000 0.500000
O O10 0.314833 0.131788 0.440421
O O11 0.250000 0.250000 0.843921
O O12 0.126562 0.135564 0.895646
O O13 0.169663 0.500000 0.603311
O O14 0.000000 0.600820 0.643729
O O15 0.000000 0.131332 0.000000
#
# Coordination Sequence:
#
# PCOD8268595 Si02
#       6
#    16   8   8  16  16   8
#     4  10  21  37  55  77 107 142 180 221 265 315
#     4   9  18  30  49  77 103 132 175 224 269 317
#     4  10  21  37  57  87 119 146 174 216 268 312
#     4  10  19  32  51  77 105 136 175 221 270 318
#     4   9  19  37  60  81 104 142 187 222 256 307
#     4   9  16  30  51  73 101 136 175 218 265 319
#
# _framework density 18.401416999999999
#
# number of rings (size 3 to 8) (size 9 to 14) (size 15 to 20)
#    0.000    2.444    1.111    1.000    1.556    5.778 
#    0.000    2.222    0.000    7.333    0.000    0.000 
#    0.000    0.000    0.000    0.000    0.000    0.000 
#
# Total GULP energy -446331.212989 kJ/mol
# GULP energy per Si atom -12398.089250 kJ/mol
# Density = 1.835953 g / cm^3
# Si number density = 18.401417 Si / 1000 Ang^3
#
#
#
# Elastic Constant Matrix: (Units=GPa)
#
#
# Indices 1 2 3 4 5 6 
#
# 1 164.2083 40.3136 101.8814 0.0000 0.0000 0.0000
# 2 40.3136 38.2889 53.3595 0.0000 0.0000 0.0000
# 3 101.8814 53.3595 177.0508 0.0000 0.0000 0.0000
# 4 0.0000 0.0000 0.0000 51.6694 0.0000 0.0000
# 5 0.0000 0.0000 0.0000 0.0000 36.8613 0.0000
# 6 0.0000 0.0000 0.0000 0.0000 0.0000 26.8251
#
#
#
# Elastic Compliance Matrix: (Units=1/GPa)
#
#
# Indices 1 2 3 4 5 6 
#
# 1 0.009860 -0.004266 -0.004388 0.000000 0.000000 0.000000
# 2 -0.004266 0.046876 -0.011673 0.000000 0.000000 0.000000
# 3 -0.004388 -0.011673 0.011691 0.000000 0.000000 0.000000
# 4 0.000000 0.000000 0.000000 0.019354 0.000000 0.000000
# 5 0.000000 0.000000 0.000000 0.000000 0.027129 0.000000
# 6 0.000000 0.000000 0.000000 0.000000 0.000000 0.037278
#
#
# Mechanical properties :
#
#
# Convention : Reuss Voigt Hill
#
# Bulk Modulus (GPa) = 36.00582 85.62855 60.81718
# Shear Modulus (GPa) = 24.74051 35.33739 30.03895
#
# Velocity S-wave (km/s) = 3.67071 4.38695 4.04471
# Velocity P-wave (km/s) = 6.12983 8.50265 7.41181
#
# Compressibility (1/GPa) = 0.02777329
#
# Stress axis : x y z
#
# Youngs Moduli (GPa) = 101.42462 21.33304 85.53662
#
# Poissons Ratio (x) = 0.09101 0.37532
# Poissons Ratio (y) = 0.43267 0.99843
# Poissons Ratio (z) = 0.44504 0.24901
#
# Static dielectric constant tensor:
#      x y z
#    x 3.650360 0.000000 0.000000 
#    y 0.000000 3.043780 0.000000 
#    z 0.000000 0.000000 3.475560 
# 
# 
# High freq. dielectric constant tensor:
#      x y z
#    x 1.728360 0.000000 0.000000 
#    y 0.000000 1.679670 0.000000 
#    z 0.000000 0.000000 1.725720 
# 
# From -- ./inp_files/59337.got.cif
#   From: 2010.03.12/outbox.cif.g09.slc.cpg/sg65_30_cif.got.tgz:59337.got - 2010.04.10 20:52:16.
