data_PCOD8268617
_publ_section_title
;
Structure prediction by ZEFSAII (Michael W. Deem and Ramdas Pophale) SiO2 
 PCOD8268617
Probable space group: C M M M
;
_chemical_formula_sum "Si O2"
_cell_formula_units_Z 88
_cell_length_a 19.732336
_cell_length_b 24.645706
_cell_length_c 10.071772
_cell_angle_alpha 90.000000
_cell_angle_beta 90.000000
_cell_angle_gamma 90.000000
_cell_volume 4898.077486
_symmetry_space_group_name_H-M "C M M M"
_symmetry_group_IT_number 65
_symmetry_cell_setting 'orthorhombic'
loop_
_space_group_symop_operation_xyz
x,y,z
-x,-y,z
x,-y,-z
-x,y,-z
-x,-y,-z
x,y,-z
-x,y,z
x,-y,z
1/2+x,1/2+y,z
1/2-x,1/2-y,z
1/2+x,1/2-y,-z
1/2-x,1/2+y,-z
1/2-x,1/2-y,-z
1/2+x,1/2+y,-z
1/2-x,1/2+y,z
1/2+x,1/2-y,z
loop_
_atom_site_type_symbol
_atom_site_label
_atom_site_fract_x
_atom_site_fract_y
_atom_site_fract_z
Si Si1 0.172416 0.060908 0.350778
Si Si2 0.820082 0.590679 0.344293
Si Si3 0.425122 0.385601 0.853318
Si Si4 0.577826 0.000000 0.341220
Si Si5 0.075534 0.757623 0.145704
Si Si6 0.316191 0.785338 0.343147
O O1 0.165988 0.084950 0.500000
O O2 0.250499 0.060926 0.305499
O O3 0.128937 0.097129 0.254213
O O4 0.144575 0.000000 0.345780
O O5 0.830113 0.593094 0.500000
O O6 0.882834 0.554328 0.287552
O O7 0.813390 0.652423 0.291605
O O8 0.500000 0.407831 0.815692
O O9 0.426769 0.321687 0.855323
O O10 0.404769 0.407498 0.000000
O O11 0.500000 0.000000 0.288442
O O12 0.578743 0.000000 0.500000
O O13 0.120779 0.739389 0.267332
O O14 0.000000 0.734433 0.169420
O O15 0.102090 0.737657 0.000000
O O16 0.329343 0.781716 0.500000
O O17 0.250000 0.750000 0.304637
#
# Coordination Sequence:
#
# PCOD8268617 Si02
#       6
#    16  16  16   8  16  16
#     4  10  19  32  52  74 100 134 169 209 256 302
#     4   9  17  31  48  71 105 136 166 209 259 308
#     4   9  19  35  52  71  99 135 172 210 250 296
#     4   9  16  28  48  72  98 133 174 212 253 305
#     4   9  19  36  54  72  99 136 175 212 254 307
#     4  10  20  32  50  79 110 136 167 213 266 316
#
# _framework density 17.966232999999999
#
# number of rings (size 3 to 8) (size 9 to 14) (size 15 to 20)
#    0.000    2.636    0.909    2.182    0.000    4.727 
#    0.000    6.364    0.000    0.000    0.000    0.000 
#    0.000    2.909    0.000    0.000    0.000    0.000 
#
# Total GULP energy -545214.516492 kJ/mol
# GULP energy per Si atom -12391.239011 kJ/mol
# Density = 1.792534 g / cm^3
# Si number density = 17.966233 Si / 1000 Ang^3
#
#
#
# Elastic Constant Matrix: (Units=GPa)
#
#
# Indices 1 2 3 4 5 6 
#
# 1 109.4521 50.2173 49.2642 0.0000 0.0000 0.0000
# 2 50.2173 84.4945 23.9052 0.0000 0.0000 0.0000
# 3 49.2642 23.9052 60.8530 0.0000 0.0000 0.0000
# 4 0.0000 0.0000 0.0000 13.1682 0.0000 0.0000
# 5 0.0000 0.0000 0.0000 0.0000 11.8360 0.0000
# 6 0.0000 0.0000 0.0000 0.0000 0.0000 32.5045
#
#
#
# Elastic Compliance Matrix: (Units=1/GPa)
#
#
# Indices 1 2 3 4 5 6 
#
# 1 0.017579 -0.007224 -0.011393 0.000000 0.000000 0.000000
# 2 -0.007224 0.016284 -0.000548 0.000000 0.000000 0.000000
# 3 -0.011393 -0.000548 0.025872 0.000000 0.000000 0.000000
# 4 0.000000 0.000000 0.000000 0.075941 0.000000 0.000000
# 5 0.000000 0.000000 0.000000 0.000000 0.084488 0.000000
# 6 0.000000 0.000000 0.000000 0.000000 0.000000 0.030765
#
#
# Mechanical properties :
#
#
# Convention : Reuss Voigt Hill
#
# Bulk Modulus (GPa) = 46.72256 55.73034 51.22645
# Shear Modulus (GPa) = 16.86937 20.26259 18.56598
#
# Velocity S-wave (km/s) = 3.06755 3.36194 3.21811
# Velocity P-wave (km/s) = 6.21359 6.79390 6.51021
#
# Compressibility (1/GPa) = 0.02140294
#
# Stress axis : x y z
#
# Youngs Moduli (GPa) = 56.88564 61.41057 38.65171
#
# Poissons Ratio (x) = 0.44365 0.44037
# Poissons Ratio (y) = 0.41096 0.02119
# Poissons Ratio (z) = 0.64812 0.03367
#
# Static dielectric constant tensor:
#      x y z
#    x 3.504810 0.000000 0.000000 
#    y 0.000000 3.481850 0.000000 
#    z 0.000000 0.000000 3.315350 
# 
# 
# High freq. dielectric constant tensor:
#      x y z
#    x 1.698310 0.000000 0.000000 
#    y 0.000000 1.695000 0.000000 
#    z 0.000000 0.000000 1.664720 
# 
# From -- ./inp_files/11753.got.cif
#   From: 2010.03.12/outbox.cif.g09.slc.cpg/sg65_6_cif.got.tgz:11753.got - 2010.04.10 20:52:16.
