data_PCOD8268371
_publ_section_title
;
Structure prediction by ZEFSAII (Michael W. Deem and Ramdas Pophale) SiO2 
 PCOD8268371
Probable space group: C M M M
;
_chemical_formula_sum "Si O2"
_cell_formula_units_Z 96
_cell_length_a 24.867347
_cell_length_b 26.804375
_cell_length_c 8.165752
_cell_angle_alpha 90.000000
_cell_angle_beta 90.000000
_cell_angle_gamma 90.000000
_cell_volume 5442.912162
_symmetry_space_group_name_H-M "C M M M"
_symmetry_group_IT_number 65
_symmetry_cell_setting 'orthorhombic'
loop_
_space_group_symop_operation_xyz
x,y,z
-x,-y,z
x,-y,-z
-x,y,-z
-x,-y,-z
x,y,-z
-x,y,z
x,-y,z
1/2+x,1/2+y,z
1/2-x,1/2-y,z
1/2+x,1/2-y,-z
1/2-x,1/2+y,-z
1/2-x,1/2-y,-z
1/2+x,1/2+y,-z
1/2-x,1/2+y,z
1/2+x,1/2-y,z
loop_
_atom_site_type_symbol
_atom_site_label
_atom_site_fract_x
_atom_site_fract_y
_atom_site_fract_z
Si Si1 0.757035 0.308746 0.817821
Si Si2 0.145455 0.812411 0.310997
Si Si3 0.062620 0.107924 0.806300
Si Si4 0.937971 0.000000 0.808478
Si Si5 0.367550 0.799131 0.687875
Si Si6 0.562913 0.117052 0.184073
Si Si7 0.563909 0.055784 0.500000
O O1 0.750000 0.250000 0.805800
O O2 0.700660 0.334175 0.765711
O O3 0.807639 0.323103 0.703963
O O4 0.770889 0.326795 0.000000
O O5 0.157209 0.805659 0.500000
O O6 0.096426 0.849608 0.281836
O O7 0.130987 0.757470 0.241572
O O8 0.084599 0.053262 0.742147
O O9 0.000000 0.114887 0.759949
O O10 0.070446 0.112481 0.000000
O O11 0.000000 0.000000 0.764857
O O12 0.928920 0.000000 0.000000
O O13 0.386192 0.801947 0.500000
O O14 0.408983 0.829481 0.799134
O O15 0.500000 0.125713 0.206483
O O16 0.584682 0.081706 0.331535
O O17 0.574854 0.095367 0.000000
O O18 0.500000 0.054835 0.500000
O O19 0.587480 0.000000 0.500000
#
# Coordination Sequence:
#
# PCOD8268371 Si02
#       7
#    16  16  16   8  16  16   8
#     4   9  17  30  48  69  92 121 164 209 242 284
#     4  10  20  31  45  69 100 131 163 200 244 297
#     4   9  17  30  48  69  93 123 162 205 249 295
#     4   7  12  26  47  67  87 117 159 205 248 289
#     4  10  19  32  49  69 100 137 167 200 246 299
#     4  10  20  33  51  77 106 136 171 205 246 303
#     4   9  18  34  54  76 103 132 166 209 251 290
#
# _framework density 17.637616999999999
#
# number of rings (size 3 to 8) (size 9 to 14) (size 15 to 20)
#    0.000    2.667    0.833    2.500    0.000    5.333 
#    0.000    5.417    0.000    1.500    2.167    0.000 
#    0.000    0.000    0.000    0.000    0.000    0.000 
#
# Total GULP energy -594733.950301 kJ/mol
# GULP energy per Si atom -12390.290631 kJ/mol
# Density = 1.759747 g / cm^3
# Si number density = 17.637617 Si / 1000 Ang^3
#
#
#
# Elastic Constant Matrix: (Units=GPa)
#
#
# Indices 1 2 3 4 5 6 
#
# 1 60.5025 42.0027 22.0333 0.0000 0.0000 0.0000
# 2 42.0027 97.8313 33.7730 0.0000 0.0000 0.0000
# 3 22.0333 33.7730 83.1353 0.0000 0.0000 0.0000
# 4 0.0000 0.0000 0.0000 18.1708 0.0000 0.0000
# 5 0.0000 0.0000 0.0000 0.0000 27.1150 0.0000
# 6 0.0000 0.0000 0.0000 0.0000 0.0000 3.4531
#
#
#
# Elastic Compliance Matrix: (Units=1/GPa)
#
#
# Indices 1 2 3 4 5 6 
#
# 1 0.023995 -0.009429 -0.002529 0.000000 0.000000 0.000000
# 2 -0.009429 0.015594 -0.003836 0.000000 0.000000 0.000000
# 3 -0.002529 -0.003836 0.014257 0.000000 0.000000 0.000000
# 4 0.000000 0.000000 0.000000 0.055033 0.000000 0.000000
# 5 0.000000 0.000000 0.000000 0.000000 0.036880 0.000000
# 6 0.000000 0.000000 0.000000 0.000000 0.000000 0.289594
#
#
# Mechanical properties :
#
#
# Convention : Reuss Voigt Hill
#
# Bulk Modulus (GPa) = 44.92667 48.56524 46.74596
# Shear Modulus (GPa) = 10.54049 19.32512 14.93280
#
# Velocity S-wave (km/s) = 2.44727 3.31369 2.91287
# Velocity P-wave (km/s) = 5.78903 6.49889 6.15420
#
# Compressibility (1/GPa) = 0.02225849
#
# Stress axis : x y z
#
# Youngs Moduli (GPa) = 41.67515 64.12658 70.13999
#
# Poissons Ratio (x) = 0.60465 0.17738
# Poissons Ratio (y) = 0.39295 0.26906
# Poissons Ratio (z) = 0.10540 0.24599
#
# Static dielectric constant tensor:
#      x y z
#    x 3.167250 0.000000 0.000000 
#    y 0.000000 3.317140 0.000000 
#    z 0.000000 0.000000 3.321560 
# 
# 
# High freq. dielectric constant tensor:
#      x y z
#    x 1.660830 0.000000 0.000000 
#    y 0.000000 1.656970 0.000000 
#    z 0.000000 0.000000 1.685480 
# 
# From -- ./inp_files/14356.got.cif
#   From: 2010.03.12/outbox.cif.g09.slc.cpg/sg65_8_cif.got.tgz:14356.got - 2010.04.10 20:52:16.
