data_PCOD8268276
_publ_section_title
;
Structure prediction by ZEFSAII (Michael W. Deem and Ramdas Pophale) SiO2 
 PCOD8268276
Probable space group: C M M M
;
_chemical_formula_sum "Si O2"
_cell_formula_units_Z 88
_cell_length_a 9.106155
_cell_length_b 28.525743
_cell_length_c 19.628233
_cell_angle_alpha 90.000000
_cell_angle_beta 90.000000
_cell_angle_gamma 90.000000
_cell_volume 5098.626610
_symmetry_space_group_name_H-M "C M M M"
_symmetry_group_IT_number 65
_symmetry_cell_setting 'orthorhombic'
loop_
_space_group_symop_operation_xyz
x,y,z
-x,-y,z
x,-y,-z
-x,y,-z
-x,-y,-z
x,y,-z
-x,y,z
x,-y,z
1/2+x,1/2+y,z
1/2-x,1/2-y,z
1/2+x,1/2-y,-z
1/2-x,1/2+y,-z
1/2-x,1/2-y,-z
1/2+x,1/2+y,-z
1/2-x,1/2+y,z
1/2+x,1/2-y,z
loop_
_atom_site_type_symbol
_atom_site_label
_atom_site_fract_x
_atom_site_fract_y
_atom_site_fract_z
Si Si1 0.162965 0.886790 0.679496
Si Si2 0.828555 0.297360 0.702653
Si Si3 0.670929 0.203221 0.861069
Si Si4 0.326539 0.448131 0.801968
Si Si5 0.668674 0.617347 0.077462
Si Si6 0.500000 0.555081 0.579587
O O1 0.263367 0.841926 0.661807
O O2 0.237845 0.916224 0.740926
O O3 0.000000 0.868735 0.702093
O O4 0.144996 0.920866 0.613400
O O5 0.750000 0.250000 0.677054
O O6 0.793889 0.306262 0.781958
O O7 0.000000 0.292767 0.687103
O O8 0.500000 0.209447 0.874157
O O9 0.750000 0.250000 0.886485
O O10 0.729409 0.161220 0.906680
O O11 0.500000 0.451937 0.791496
O O12 0.256001 0.500000 0.798898
O O13 0.285309 0.425948 0.874737
O O14 0.500000 0.631813 0.090983
O O15 0.693386 0.601064 0.000000
O O16 0.500000 0.500000 0.596182
O O17 0.500000 0.565376 0.500000
#
# Coordination Sequence:
#
# PCOD8268276 Si02
#       6
#    16  16  16  16  16   8
#     4   9  17  29  53  80 106 139 172 210 256 303
#     4  10  19  31  51  80 109 135 176 222 265 313
#     4  10  20  33  50  70  96 128 166 212 261 313
#     4   9  16  28  48  72  97 126 167 210 253 303
#     4  10  20  32  47  68  96 128 166 213 262 309
#     4   9  18  32  56  90 119 143 179 217 253 305
#
# _framework density 17.259550999999998
#
# number of rings (size 3 to 8) (size 9 to 14) (size 15 to 20)
#    0.545    1.909    1.818    1.636    0.000    2.545 
#    0.000    1.818    0.000    4.909    0.000    2.545 
#    0.000    0.000    0.000    0.000    0.000    0.000 
#
# Total GULP energy -545492.231131 kJ/mol
# GULP energy per Si atom -12397.550708 kJ/mol
# Density = 1.722027 g / cm^3
# Si number density = 17.259551 Si / 1000 Ang^3
#
#
#
# Elastic Constant Matrix: (Units=GPa)
#
#
# Indices 1 2 3 4 5 6 
#
# 1 63.8000 49.5640 26.0727 0.0000 0.0000 0.0000
# 2 49.5640 153.2925 54.9840 0.0000 0.0000 0.0000
# 3 26.0727 54.9840 86.0849 0.0000 0.0000 0.0000
# 4 0.0000 0.0000 0.0000 24.8812 0.0000 0.0000
# 5 0.0000 0.0000 0.0000 0.0000 10.7070 0.0000
# 6 0.0000 0.0000 0.0000 0.0000 0.0000 26.2486
#
#
#
# Elastic Compliance Matrix: (Units=1/GPa)
#
#
# Indices 1 2 3 4 5 6 
#
# 1 0.021396 -0.005959 -0.002674 0.000000 0.000000 0.000000
# 2 -0.005959 0.010122 -0.004660 0.000000 0.000000 0.000000
# 3 -0.002674 -0.004660 0.015403 0.000000 0.000000 0.000000
# 4 0.000000 0.000000 0.000000 0.040191 0.000000 0.000000
# 5 0.000000 0.000000 0.000000 0.000000 0.093397 0.000000
# 6 0.000000 0.000000 0.000000 0.000000 0.000000 0.038097
#
#
# Mechanical properties :
#
#
# Convention : Reuss Voigt Hill
#
# Bulk Modulus (GPa) = 49.17819 62.71321 55.94570
# Shear Modulus (GPa) = 19.84365 23.87114 21.85739
#
# Velocity S-wave (km/s) = 3.39443 3.72300 3.56250
# Velocity P-wave (km/s) = 6.62707 7.40913 7.02898
#
# Compressibility (1/GPa) = 0.02033422
#
# Stress axis : x y z
#
# Youngs Moduli (GPa) = 46.73771 98.79820 64.92273
#
# Poissons Ratio (x) = 0.58871 0.17362
# Poissons Ratio (y) = 0.27850 0.30255
# Poissons Ratio (z) = 0.12499 0.46041
#
# Static dielectric constant tensor:
#      x y z
#    x 2.902880 0.000000 0.000000 
#    y 0.000000 3.324120 0.000000 
#    z 0.000000 0.000000 2.951880 
# 
# 
# High freq. dielectric constant tensor:
#      x y z
#    x 1.634110 0.000000 0.000000 
#    y 0.000000 1.677900 0.000000 
#    z 0.000000 0.000000 1.636830 
# 
# From -- ./inp_files/60726.got.cif
#   From: 2010.03.12/outbox.cif.g09.slc.cpg/sg65_31_cif.got.tgz:60726.got - 2010.04.10 20:52:16.
