data_PCOD8268010
_publ_section_title
;
Structure prediction by ZEFSAII (Michael W. Deem and Ramdas Pophale) SiO2 
 PCOD8268010
Probable space group: C M M M
;
_chemical_formula_sum "Si O2"
_cell_formula_units_Z 72
_cell_length_a 8.558078
_cell_length_b 18.801433
_cell_length_c 23.424526
_cell_angle_alpha 90.000000
_cell_angle_beta 90.000000
_cell_angle_gamma 90.000000
_cell_volume 3769.102980
_symmetry_space_group_name_H-M "C M M M"
_symmetry_group_IT_number 65
_symmetry_cell_setting 'orthorhombic'
loop_
_space_group_symop_operation_xyz
x,y,z
-x,-y,z
x,-y,-z
-x,y,-z
-x,-y,-z
x,y,-z
-x,y,z
x,-y,z
1/2+x,1/2+y,z
1/2-x,1/2-y,z
1/2+x,1/2-y,-z
1/2-x,1/2+y,-z
1/2-x,1/2-y,-z
1/2+x,1/2+y,-z
1/2-x,1/2+y,z
1/2+x,1/2-y,z
loop_
_atom_site_type_symbol
_atom_site_label
_atom_site_fract_x
_atom_site_fract_y
_atom_site_fract_z
Si Si1 0.685628 0.580372 0.392506
Si Si2 0.814288 0.327808 0.166242
Si Si3 0.814385 0.420427 0.937417
Si Si4 0.814329 0.829503 0.500000
Si Si5 0.185218 0.828171 0.714373
O O1 0.500000 0.577270 0.394842
O O2 0.753533 0.500000 0.395765
O O3 0.748722 0.627503 0.445053
O O4 0.742518 0.617592 0.334296
O O5 0.750000 0.250000 0.156548
O O6 0.745371 0.373373 0.113744
O O7 0.751086 0.358697 0.226021
O O8 0.000000 0.327403 0.167727
O O9 0.749589 0.500000 0.929556
O O10 0.000000 0.420775 0.933844
O O11 0.762196 0.391052 0.000000
O O12 0.750000 0.750000 0.500000
O O13 0.000000 0.825280 0.500000
O O14 0.250000 0.750000 0.700716
O O15 0.000000 0.823048 0.717650
#
# Coordination Sequence:
#
# PCOD8268010 Si02
#       5
#    16  16  16   8  16
#     4   9  18  32  51  75  99 126 162 200 238 281
#     4  10  19  31  49  72  97 125 158 196 237 282
#     4   8  15  29  48  69  93 122 157 196 237 282
#     4  10  19  33  55  77  99 128 162 200 238 282
#     4  10  19  32  50  70  96 128 160 196 236 282
#
# _framework density 19.102687
#
# number of rings (size 3 to 8) (size 9 to 14) (size 15 to 20)
#    0.000    2.667    0.000    4.333    0.000    2.667 
#    0.000    1.111    0.000   10.000    0.000    6.222 
#    0.000    0.000    0.000    0.000    0.000    0.000 
#
# Total GULP energy -446269.346697 kJ/mol
# GULP energy per Si atom -12396.370742 kJ/mol
# Density = 1.905921 g / cm^3
# Si number density = 19.102687 Si / 1000 Ang^3
#
#
#
# Elastic Constant Matrix: (Units=GPa)
#
#
# Indices 1 2 3 4 5 6 
#
# 1 42.4177 18.7083 28.7955 0.0000 0.0000 0.0000
# 2 18.7083 134.5726 116.8475 0.0000 0.0000 0.0000
# 3 28.7955 116.8475 218.3511 0.0000 0.0000 0.0000
# 4 0.0000 0.0000 0.0000 42.5409 0.0000 0.0000
# 5 0.0000 0.0000 0.0000 0.0000 19.6087 0.0000
# 6 0.0000 0.0000 0.0000 0.0000 0.0000 18.8399
#
#
#
# Elastic Compliance Matrix: (Units=1/GPa)
#
#
# Indices 1 2 3 4 5 6 
#
# 1 0.025995 -0.001190 -0.002791 0.000000 0.000000 0.000000
# 2 -0.001190 0.013935 -0.007300 0.000000 0.000000 0.000000
# 3 -0.002791 -0.007300 0.008854 0.000000 0.000000 0.000000
# 4 0.000000 0.000000 0.000000 0.023507 0.000000 0.000000
# 5 0.000000 0.000000 0.000000 0.000000 0.050998 0.000000
# 6 0.000000 0.000000 0.000000 0.000000 0.000000 0.053079
#
#
# Mechanical properties :
#
#
# Convention : Reuss Voigt Hill
#
# Bulk Modulus (GPa) = 38.13722 80.44935 59.29329
# Shear Modulus (GPa) = 24.07650 31.59723 27.83686
#
# Velocity S-wave (km/s) = 3.55402 4.07144 3.82150
# Velocity P-wave (km/s) = 6.07035 8.01921 7.11185
#
# Compressibility (1/GPa) = 0.02622110
#
# Stress axis : x y z
#
# Youngs Moduli (GPa) = 38.46918 71.76150 112.93745
#
# Poissons Ratio (x) = 0.08542 0.31523
# Poissons Ratio (y) = 0.04579 0.82446
# Poissons Ratio (z) = 0.10737 0.52387
#
# Static dielectric constant tensor:
#      x y z
#    x 3.108850 0.000000 0.000000 
#    y 0.000000 3.629930 0.000000 
#    z 0.000000 0.000000 4.023230 
# 
# 
# High freq. dielectric constant tensor:
#      x y z
#    x 1.705140 0.000000 0.000000 
#    y 0.000000 1.740300 0.000000 
#    z 0.000000 0.000000 1.764050 
# 
# From -- ./inp_files/59290.got.cif
#   From: 2010.03.12/outbox.cif.g09.slc.cpg/sg65_30_cif.got.tgz:59290.got - 2010.04.10 20:52:16.
