data_PCOD8268292
_publ_section_title
;
Structure prediction by ZEFSAII (Michael W. Deem and Ramdas Pophale) SiO2 
 PCOD8268292
Probable space group: C M M M
;
_chemical_formula_sum "Si O2"
_cell_formula_units_Z 104
_cell_length_a 18.852940
_cell_length_b 33.985330
_cell_length_c 8.245966
_cell_angle_alpha 90.000000
_cell_angle_beta 90.000000
_cell_angle_gamma 90.000000
_cell_volume 5283.383268
_symmetry_space_group_name_H-M "C M M M"
_symmetry_group_IT_number 65
_symmetry_cell_setting 'orthorhombic'
loop_
_space_group_symop_operation_xyz
x,y,z
-x,-y,z
x,-y,-z
-x,y,-z
-x,-y,-z
x,y,-z
-x,y,z
x,-y,z
1/2+x,1/2+y,z
1/2-x,1/2-y,z
1/2+x,1/2-y,-z
1/2-x,1/2+y,-z
1/2-x,1/2-y,-z
1/2+x,1/2+y,-z
1/2-x,1/2+y,z
1/2+x,1/2-y,z
loop_
_atom_site_type_symbol
_atom_site_label
_atom_site_fract_x
_atom_site_fract_y
_atom_site_fract_z
Si Si1 0.805256 0.349822 0.682529
Si Si2 0.419315 0.543848 0.192663
Si Si3 0.915650 0.456983 0.000000
Si Si4 0.082295 0.586034 0.320951
Si Si5 0.578878 0.304618 0.189721
Si Si6 0.829079 0.735264 0.682897
Si Si7 0.161841 0.120063 0.190384
O O1 0.777284 0.342184 0.500000
O O2 0.878648 0.372745 0.683019
O O3 0.825007 0.308069 0.764975
O O4 0.745103 0.374818 0.774171
O O5 0.500000 0.552423 0.249303
O O6 0.395792 0.500000 0.255032
O O7 0.368441 0.578659 0.263315
O O8 0.415755 0.543939 0.000000
O O9 0.887621 0.438404 0.831763
O O10 0.882599 0.500000 0.000000
O O11 0.000000 0.457687 0.000000
O O12 0.094727 0.565693 0.500000
O O13 0.000000 0.594806 0.295044
O O14 0.500000 0.302489 0.266311
O O15 0.619713 0.263956 0.219148
O O16 0.620168 0.342257 0.265749
O O17 0.573100 0.311050 0.000000
O O18 0.858682 0.732817 0.500000
O O19 0.750000 0.750000 0.687568
O O20 0.149917 0.119005 0.000000
#
# Coordination Sequence:
#
# PCOD8268292 Si02
#       7
#    16  16   8  16  16  16  16
#     4  10  21  36  55  76 104 141 181 222 270 328
#     4   8  14  27  49  76 104 136 177 220 259 304
#     4   9  18  34  58  86 111 138 179 231 282 339
#     4   9  19  36  56  80 112 148 186 231 283 336
#     4  10  21  35  51  78 112 141 177 225 275 328
#     4  10  20  36  55  75 101 138 183 226 267 318
#     4  10  19  31  52  78 107 143 178 218 270 323
#
# _framework density 19.684356000000001
#
# number of rings (size 3 to 8) (size 9 to 14) (size 15 to 20)
#    0.000    2.538    1.538    0.923    1.077    4.000 
#    0.000    3.846    0.000    2.769    0.000    1.077 
#    0.000    0.000    0.000    0.000    0.000    0.000 
#
# Total GULP energy -644342.717109 kJ/mol
# GULP energy per Si atom -12391.206098 kJ/mol
# Density = 1.963955 g / cm^3
# Si number density = 19.684356 Si / 1000 Ang^3
#
#
#
# Elastic Constant Matrix: (Units=GPa)
#
#
# Indices 1 2 3 4 5 6 
#
# 1 81.4737 58.1095 19.2042 0.0000 0.0000 0.0000
# 2 58.1095 167.7224 36.9041 0.0000 0.0000 0.0000
# 3 19.2042 36.9041 61.2894 0.0000 0.0000 0.0000
# 4 0.0000 0.0000 0.0000 22.4015 0.0000 0.0000
# 5 0.0000 0.0000 0.0000 0.0000 2.8466 0.0000
# 6 0.0000 0.0000 0.0000 0.0000 0.0000 32.6562
#
#
#
# Elastic Compliance Matrix: (Units=1/GPa)
#
#
# Indices 1 2 3 4 5 6 
#
# 1 0.016511 -0.005282 -0.001993 0.000000 0.000000 0.000000
# 2 -0.005282 0.008562 -0.003501 0.000000 0.000000 0.000000
# 3 -0.001993 -0.003501 0.019048 0.000000 0.000000 0.000000
# 4 0.000000 0.000000 0.000000 0.044640 0.000000 0.000000
# 5 0.000000 0.000000 0.000000 0.000000 0.351302 0.000000
# 6 0.000000 0.000000 0.000000 0.000000 0.000000 0.030622
#
#
# Mechanical properties :
#
#
# Convention : Reuss Voigt Hill
#
# Bulk Modulus (GPa) = 44.30572 59.88011 52.09291
# Shear Modulus (GPa) = 10.00480 24.66538 17.33509
#
# Velocity S-wave (km/s) = 2.25691 3.54368 2.97080
# Velocity P-wave (km/s) = 5.41742 6.87239 6.18782
#
# Compressibility (1/GPa) = 0.02257045
#
# Stress axis : x y z
#
# Youngs Moduli (GPa) = 60.56611 116.78888 52.49781
#
# Poissons Ratio (x) = 0.61686 0.10463
# Poissons Ratio (y) = 0.31990 0.18378
# Poissons Ratio (z) = 0.12071 0.40884
#
# Static dielectric constant tensor:
#      x y z
#    x 3.478300 0.000000 0.000000 
#    y 0.000000 3.812600 0.000000 
#    z 0.000000 0.000000 3.552350 
# 
# 
# High freq. dielectric constant tensor:
#      x y z
#    x 1.755590 0.000000 0.000000 
#    y 0.000000 1.773100 0.000000 
#    z 0.000000 0.000000 1.741550 
# 
# From -- ./inp_files/12850.got.cif
#   From: 2010.03.12/outbox.cif.g09.slc.cpg/sg65_7_cif.got.tgz:12850.got - 2010.04.10 20:52:16.
