data_PCOD8268300
_publ_section_title
;
Structure prediction by ZEFSAII (Michael W. Deem and Ramdas Pophale) SiO2 
 PCOD8268300
Probable space group: C M M M
;
_chemical_formula_sum "Si O2"
_cell_formula_units_Z 72
_cell_length_a 24.136596
_cell_length_b 17.019127
_cell_length_c 9.307875
_cell_angle_alpha 90.000000
_cell_angle_beta 90.000000
_cell_angle_gamma 90.000000
_cell_volume 3823.524194
_symmetry_space_group_name_H-M "C M M M"
_symmetry_group_IT_number 65
_symmetry_cell_setting 'orthorhombic'
loop_
_space_group_symop_operation_xyz
x,y,z
-x,-y,z
x,-y,-z
-x,y,-z
-x,-y,-z
x,y,-z
-x,y,z
x,-y,z
1/2+x,1/2+y,z
1/2-x,1/2-y,z
1/2+x,1/2-y,-z
1/2-x,1/2+y,-z
1/2-x,1/2-y,-z
1/2+x,1/2+y,-z
1/2-x,1/2+y,z
1/2+x,1/2-y,z
loop_
_atom_site_type_symbol
_atom_site_label
_atom_site_fract_x
_atom_site_fract_y
_atom_site_fract_z
Si Si1 0.755029 0.843269 0.662607
Si Si2 0.851232 0.632425 0.167482
Si Si3 0.140669 0.814473 0.165985
Si Si4 0.936874 0.500000 0.830266
Si Si5 0.434846 0.587293 0.658613
O O1 0.758243 0.875244 0.500000
O O2 0.750000 0.750000 0.666307
O O3 0.704020 0.886887 0.741651
O O4 0.811455 0.860457 0.747290
O O5 0.866540 0.722409 0.198215
O O6 0.902318 0.577330 0.219196
O O7 0.838096 0.617465 0.000000
O O8 0.084087 0.853641 0.217323
O O9 0.152399 0.829363 0.000000
O O10 0.000000 0.500000 0.764826
O O11 0.942544 0.500000 0.000000
O O12 0.414886 0.615628 0.500000
O O13 0.500000 0.585824 0.663821
O O14 0.411618 0.500000 0.688768
#
# Coordination Sequence:
#
# PCOD8268300 Si02
#       5
#    16  16  16   8  16
#     4   9  17  31  52  75 101 134 170 210 260 315
#     4   9  18  33  53  77 105 137 175 220 263 306
#     4  10  19  31  52  81 108 134 171 218 265 314
#     4   9  18  34  55  77 105 143 182 219 262 311
#     4   9  19  36  54  72 100 137 173 210 254 308
#
# _framework density 18.830794999999998
#
# number of rings (size 3 to 8) (size 9 to 14) (size 15 to 20)
#    0.000    2.778    0.000    2.000    0.000    5.333 
#    2.000    3.889    0.000    1.333    0.000    0.000 
#    0.000    0.000    0.000    0.000    0.000    0.000 
#
# Total GULP energy -446218.635224 kJ/mol
# GULP energy per Si atom -12394.962090 kJ/mol
# Density = 1.878793 g / cm^3
# Si number density = 18.830795 Si / 1000 Ang^3
#
#
#
# Elastic Constant Matrix: (Units=GPa)
#
#
# Indices 1 2 3 4 5 6 
#
# 1 106.8135 57.5880 51.7314 0.0000 0.0000 0.0000
# 2 57.5880 73.0511 46.6752 0.0000 0.0000 0.0000
# 3 51.7314 46.6752 88.6631 0.0000 0.0000 0.0000
# 4 0.0000 0.0000 0.0000 20.4605 0.0000 0.0000
# 5 0.0000 0.0000 0.0000 0.0000 34.3469 0.0000
# 6 0.0000 0.0000 0.0000 0.0000 0.0000 32.7595
#
#
#
# Elastic Compliance Matrix: (Units=1/GPa)
#
#
# Indices 1 2 3 4 5 6 
#
# 1 0.017354 -0.010866 -0.004405 0.000000 0.000000 0.000000
# 2 -0.010866 0.027431 -0.008101 0.000000 0.000000 0.000000
# 3 -0.004405 -0.008101 0.018113 0.000000 0.000000 0.000000
# 4 0.000000 0.000000 0.000000 0.048875 0.000000 0.000000
# 5 0.000000 0.000000 0.000000 0.000000 0.029115 0.000000
# 6 0.000000 0.000000 0.000000 0.000000 0.000000 0.030525
#
#
# Mechanical properties :
#
#
# Convention : Reuss Voigt Hill
#
# Bulk Modulus (GPa) = 61.90185 64.50186 63.20185
# Shear Modulus (GPa) = 22.36728 25.01559 23.69143
#
# Velocity S-wave (km/s) = 3.45019 3.64873 3.55085
# Velocity P-wave (km/s) = 6.98683 7.21656 7.10262
#
# Compressibility (1/GPa) = 0.01615461
#
# Stress axis : x y z
#
# Youngs Moduli (GPa) = 57.62401 36.45555 55.20805
#
# Poissons Ratio (x) = 0.39612 0.24320
# Poissons Ratio (y) = 0.62614 0.44722
# Poissons Ratio (z) = 0.25384 0.29531
#
# Static dielectric constant tensor:
#      x y z
#    x 3.533040 0.000000 0.000000 
#    y 0.000000 3.396040 0.000000 
#    z 0.000000 0.000000 3.439660 
# 
# 
# High freq. dielectric constant tensor:
#      x y z
#    x 1.731710 0.000000 0.000000 
#    y 0.000000 1.714710 0.000000 
#    z 0.000000 0.000000 1.722400 
# 
# From -- ./inp_files/7205.got.cif
#   From: 2010.03.12/outbox.cif.g09.slc.cpg/sg65_4_cif.got.tgz:7205.got - 2010.04.10 20:52:16.
