data_PCOD8268105
_publ_section_title
;
Structure prediction by ZEFSAII (Michael W. Deem and Ramdas Pophale) SiO2 
 PCOD8268105
Probable space group: C M M M
;
_chemical_formula_sum "Si O2"
_cell_formula_units_Z 88
_cell_length_a 8.972405
_cell_length_b 18.284312
_cell_length_c 29.046227
_cell_angle_alpha 90.000000
_cell_angle_beta 90.000000
_cell_angle_gamma 90.000000
_cell_volume 4765.157056
_symmetry_space_group_name_H-M "C M M M"
_symmetry_group_IT_number 65
_symmetry_cell_setting 'orthorhombic'
loop_
_space_group_symop_operation_xyz
x,y,z
-x,-y,z
x,-y,-z
-x,y,-z
-x,-y,-z
x,y,-z
-x,y,z
x,-y,z
1/2+x,1/2+y,z
1/2-x,1/2-y,z
1/2+x,1/2-y,-z
1/2-x,1/2+y,-z
1/2-x,1/2-y,-z
1/2+x,1/2+y,-z
1/2-x,1/2+y,z
1/2+x,1/2-y,z
loop_
_atom_site_type_symbol
_atom_site_label
_atom_site_fract_x
_atom_site_fract_y
_atom_site_fract_z
Si Si1 0.826113 0.171443 0.636226
Si Si2 0.822734 0.918309 0.823241
Si Si3 0.173854 0.172233 0.737293
Si Si4 0.322978 0.671283 0.088544
Si Si5 0.674035 0.171124 0.450009
Si Si6 0.823030 0.082173 0.000000
O O1 0.750000 0.250000 0.638077
O O2 0.797228 0.135998 0.686640
O O3 0.749497 0.127317 0.593239
O O4 0.000000 0.178789 0.625903
O O5 0.763519 0.883089 0.775678
O O6 0.765784 0.870015 0.865857
O O7 0.000000 0.921934 0.823531
O O8 0.756436 0.000000 0.827403
O O9 0.250000 0.250000 0.743340
O O10 0.000000 0.186366 0.744647
O O11 0.500000 0.680186 0.088281
O O12 0.250000 0.750000 0.086446
O O13 0.266164 0.624626 0.045042
O O14 0.700219 0.132133 0.500000
O O15 0.500000 0.180003 0.440188
O O16 0.750000 0.250000 0.452010
O O17 0.000000 0.078078 0.000000
O O18 0.756785 0.000000 0.000000
#
# Coordination Sequence:
#
# PCOD8268105 Si02
#       6
#    16  16  16  16  16   8
#     4   9  15  22  33  50  73 101 133 168 208 253
#     4   9  17  30  48  68  89 116 152 189 224 266
#     4   9  17  28  43  63  85 111 144 181 220 264
#     4  10  19  31  50  73  96 124 156 192 232 271
#     4   9  15  21  30  46  70 101 135 168 204 248
#     4   9  17  30  49  73  98 125 162 200 228 263
#
# _framework density 18.467386999999999
#
# number of rings (size 3 to 8) (size 9 to 14) (size 15 to 20)
#    0.000    2.818    0.000    3.545    0.000    4.000 
#    0.000    0.000    0.000    4.364    0.000    0.000 
#    0.000    0.727    0.000    9.091    0.000    4.909 
#
# Total GULP energy -545127.789900 kJ/mol
# GULP energy per Si atom -12389.267952 kJ/mol
# Density = 1.842535 g / cm^3
# Si number density = 18.467387 Si / 1000 Ang^3
#
#
#
# Elastic Constant Matrix: (Units=GPa)
#
#
# Indices 1 2 3 4 5 6 
#
# 1 56.9285 23.4787 48.1992 0.0000 0.0000 0.0000
# 2 23.4787 105.8665 75.1527 0.0000 0.0000 0.0000
# 3 48.1992 75.1527 217.6713 0.0000 0.0000 0.0000
# 4 0.0000 0.0000 0.0000 6.6938 0.0000 0.0000
# 5 0.0000 0.0000 0.0000 0.0000 18.0267 0.0000
# 6 0.0000 0.0000 0.0000 0.0000 0.0000 15.4245
#
#
#
# Elastic Compliance Matrix: (Units=1/GPa)
#
#
# Indices 1 2 3 4 5 6 
#
# 1 0.021896 -0.001873 -0.004202 0.000000 0.000000 0.000000
# 2 -0.001873 0.012673 -0.003961 0.000000 0.000000 0.000000
# 3 -0.004202 -0.003961 0.006892 0.000000 0.000000 0.000000
# 4 0.000000 0.000000 0.000000 0.149391 0.000000 0.000000
# 5 0.000000 0.000000 0.000000 0.000000 0.055473 0.000000
# 6 0.000000 0.000000 0.000000 0.000000 0.000000 0.064832
#
#
# Mechanical properties :
#
#
# Convention : Reuss Voigt Hill
#
# Bulk Modulus (GPa) = 46.75190 74.90305 60.82747
# Shear Modulus (GPa) = 14.77723 23.60471 19.19097
#
# Velocity S-wave (km/s) = 2.83181 3.57905 3.22713
# Velocity P-wave (km/s) = 6.00526 7.59784 6.84800
#
# Compressibility (1/GPa) = 0.02138950
#
# Stress axis : x y z
#
# Youngs Moduli (GPa) = 45.67070 78.90868 145.09816
#
# Poissons Ratio (x) = 0.14782 0.60965
# Poissons Ratio (y) = 0.08556 0.57468
# Poissons Ratio (z) = 0.19189 0.31253
#
# Static dielectric constant tensor:
#      x y z
#    x 3.163000 0.000000 0.000000 
#    y 0.000000 3.023420 0.000000 
#    z 0.000000 0.000000 4.652630 
# 
# 
# High freq. dielectric constant tensor:
#      x y z
#    x 1.689860 0.000000 0.000000 
#    y 0.000000 1.661850 0.000000 
#    z 0.000000 0.000000 1.753950 
# 
# From -- ./inp_files/76648.got.cif
#   From: 2010.03.12/outbox.cif.g09.slc.cpg/sg65_39_cif.got.tgz:76648.got - 2010.04.10 20:52:16.
