data_PCOD8268438
_publ_section_title
;
Structure prediction by ZEFSAII (Michael W. Deem and Ramdas Pophale) SiO2 
 PCOD8268438
Probable space group: C M M M
;
_chemical_formula_sum "Si O2"
_cell_formula_units_Z 120
_cell_length_a 17.198640
_cell_length_b 19.263837
_cell_length_c 21.342662
_cell_angle_alpha 90.000000
_cell_angle_beta 90.000000
_cell_angle_gamma 90.000000
_cell_volume 7071.075712
_symmetry_space_group_name_H-M "C M M M"
_symmetry_group_IT_number 65
_symmetry_cell_setting 'orthorhombic'
loop_
_space_group_symop_operation_xyz
x,y,z
-x,-y,z
x,-y,-z
-x,y,-z
-x,-y,-z
x,y,-z
-x,y,z
x,-y,z
1/2+x,1/2+y,z
1/2-x,1/2-y,z
1/2+x,1/2-y,-z
1/2-x,1/2+y,-z
1/2-x,1/2-y,-z
1/2+x,1/2+y,-z
1/2-x,1/2+y,z
1/2+x,1/2-y,z
loop_
_atom_site_type_symbol
_atom_site_label
_atom_site_fract_x
_atom_site_fract_y
_atom_site_fract_z
Si Si1 0.911253 0.500000 0.926900
Si Si2 0.704108 0.180898 0.824836
Si Si3 0.413091 0.824268 0.715563
Si Si4 0.287631 0.677099 0.427737
Si Si5 0.091381 0.349617 0.074176
Si Si6 0.088810 0.833446 0.675698
Si Si7 0.314678 0.078288 0.358013
Si Si8 0.697082 0.421324 0.757527
O O1 0.879736 0.426541 0.901897
O O2 0.000000 0.500000 0.909314
O O3 0.898494 0.500000 0.000000
O O4 0.750000 0.250000 0.807158
O O5 0.638159 0.162582 0.775771
O O6 0.657044 0.195279 0.890139
O O7 0.766820 0.117812 0.818874
O O8 0.500000 0.841239 0.736008
O O9 0.403199 0.746163 0.693595
O O10 0.390599 0.877269 0.659961
O O11 0.311725 0.681061 0.500000
O O12 0.250000 0.750000 0.404952
O O13 0.364213 0.657210 0.388686
O O14 0.225391 0.615686 0.417208
O O15 0.000000 0.334566 0.091371
O O16 0.101401 0.339285 0.000000
O O17 0.121010 0.880837 0.732554
O O18 0.000000 0.855464 0.663628
O O19 0.257679 0.078957 0.298966
O O20 0.338082 0.000000 0.376810
O O21 0.675162 0.500000 0.777213
#
# Coordination Sequence:
#
# PCOD8268438 Si02
#       8
#     8  16  16  16  16  16  16  16
#     4   7  12  26  46  66  90 124 159 191 236 289
#     4  11  20  31  50  74 102 134 165 209 250 296
#     4  10  19  32  50  72  98 131 168 204 249 301
#     4  10  19  32  52  75  99 131 169 207 248 298
#     4   9  18  32  49  70 100 135 169 206 249 299
#     4  10  19  33  54  74  98 132 166 207 254 296
#     4   9  18  32  51  72  99 131 161 200 249 298
#     4   9  19  33  50  74  99 129 164 200 247 299
#
# _framework density 16.970544
#
# number of rings (size 3 to 8) (size 9 to 14) (size 15 to 20)
#    0.000    2.467    2.667    1.200    0.933    1.333 
#    0.000    0.000    0.000    0.400    0.000    4.667 
#    0.000    0.000    0.000    2.667    0.000    0.000 
#
# Total GULP energy -743322.519467 kJ/mol
# GULP energy per Si atom -12388.708658 kJ/mol
# Density = 1.693192 g / cm^3
# Si number density = 16.970544 Si / 1000 Ang^3
#
#
#
# Elastic Constant Matrix: (Units=GPa)
#
#
# Indices 1 2 3 4 5 6 
#
# 1 101.6910 48.4655 43.1084 0.0000 0.0000 0.0000
# 2 48.4655 108.5629 16.6849 0.0000 0.0000 0.0000
# 3 43.1084 16.6849 60.1820 0.0000 0.0000 0.0000
# 4 0.0000 0.0000 0.0000 12.7640 0.0000 0.0000
# 5 0.0000 0.0000 0.0000 0.0000 23.9645 0.0000
# 6 0.0000 0.0000 0.0000 0.0000 0.0000 5.1403
#
#
#
# Elastic Compliance Matrix: (Units=1/GPa)
#
#
# Indices 1 2 3 4 5 6 
#
# 1 0.017246 -0.006059 -0.010674 0.000000 0.000000 0.000000
# 2 -0.006059 0.011750 0.001082 0.000000 0.000000 0.000000
# 3 -0.010674 0.001082 0.023962 0.000000 0.000000 0.000000
# 4 0.000000 0.000000 0.000000 0.078346 0.000000 0.000000
# 5 0.000000 0.000000 0.000000 0.000000 0.041728 0.000000
# 6 0.000000 0.000000 0.000000 0.000000 0.000000 0.194541
#
#
# Mechanical properties :
#
#
# Convention : Reuss Voigt Hill
#
# Bulk Modulus (GPa) = 46.17340 54.10594 50.13967
# Shear Modulus (GPa) = 12.31250 19.18558 15.74904
#
# Velocity S-wave (km/s) = 2.69647 3.36597 3.04965
# Velocity P-wave (km/s) = 6.07961 6.85987 6.48149
#
# Compressibility (1/GPa) = 0.02165749
#
# Stress axis : x y z
#
# Youngs Moduli (GPa) = 57.98474 85.10893 41.73335
#
# Poissons Ratio (x) = 0.51564 0.44544
# Poissons Ratio (y) = 0.35131 -0.04517
# Poissons Ratio (z) = 0.61890 -0.09212
#
# Static dielectric constant tensor:
#      x y z
#    x 3.193550 0.000000 0.000000 
#    y 0.000000 3.370940 0.000000 
#    z 0.000000 0.000000 2.898110 
# 
# 
# High freq. dielectric constant tensor:
#      x y z
#    x 1.643040 0.000000 0.000000 
#    y 0.000000 1.656330 0.000000 
#    z 0.000000 0.000000 1.628330 
# 
# From -- ./inp_files/64025.got.cif
#   From: 2010.03.12/outbox.cif.g09.slc.cpg/sg65_33_cif.got.tgz:64025.got - 2010.04.10 20:52:16.
