data_PCOD8268572
_publ_section_title
;
Structure prediction by ZEFSAII (Michael W. Deem and Ramdas Pophale) SiO2 
 PCOD8268572
Probable space group: C M M M
;
_chemical_formula_sum "Si O2"
_cell_formula_units_Z 80
_cell_length_a 30.851108
_cell_length_b 17.790681
_cell_length_c 7.787363
_cell_angle_alpha 90.000000
_cell_angle_beta 90.000000
_cell_angle_gamma 90.000000
_cell_volume 4274.189351
_symmetry_space_group_name_H-M "C M M M"
_symmetry_group_IT_number 65
_symmetry_cell_setting 'orthorhombic'
loop_
_space_group_symop_operation_xyz
x,y,z
-x,-y,z
x,-y,-z
-x,y,-z
-x,-y,-z
x,y,-z
-x,y,z
x,-y,z
1/2+x,1/2+y,z
1/2-x,1/2-y,z
1/2+x,1/2-y,-z
1/2-x,1/2+y,-z
1/2-x,1/2-y,-z
1/2+x,1/2+y,-z
1/2-x,1/2+y,z
1/2+x,1/2-y,z
loop_
_atom_site_type_symbol
_atom_site_label
_atom_site_fract_x
_atom_site_fract_y
_atom_site_fract_z
Si Si1 0.606235 0.286171 0.809568
Si Si2 0.050982 0.734924 0.500000
Si Si3 0.900355 0.417567 0.500000
Si Si4 0.747980 0.665837 0.198794
Si Si5 0.345121 0.136140 0.193838
Si Si6 0.335783 0.415705 0.304128
O O1 0.568660 0.276444 0.669371
O O2 0.643248 0.223737 0.778498
O O3 0.629556 0.366468 0.799451
O O4 0.585622 0.278047 0.000000
O O5 0.063261 0.646749 0.500000
O O6 0.000000 0.742698 0.500000
O O7 0.922677 0.500000 0.500000
O O8 0.870943 0.413561 0.670147
O O9 0.750000 0.750000 0.275537
O O10 0.794149 0.625647 0.225596
O O11 0.712635 0.616842 0.296648
O O12 0.734483 0.669818 0.000000
O O13 0.357451 0.110527 0.000000
O O14 0.350944 0.415943 0.500000
O O15 0.336176 0.500000 0.227477
#
# Coordination Sequence:
#
# PCOD8268572 Si02
#       6
#    16   8   8  16  16  16
#     4  10  19  37  62  84 110 147 186 228 280 335
#     4  10  22  41  64  91 114 135 175 228 280 343
#     4  10  22  37  56  83 114 151 186 222 279 336
#     4  10  19  32  51  75 107 151 199 243 279 316
#     4   9  19  34  54  79 109 151 201 240 271 317
#     4  11  23  35  51  81 117 152 193 239 284 327
#
# _framework density 18.716999000000001
#
# number of rings (size 3 to 8) (size 9 to 14) (size 15 to 20)
#    0.000    2.000    3.000    0.600    1.400    3.800 
#    0.000    2.000    0.000    1.200    0.000    7.000 
#    0.000    0.000    0.000    0.000    0.000    0.000 
#
# Total GULP energy -496034.756792 kJ/mol
# GULP energy per Si atom -12400.868920 kJ/mol
# Density = 1.867440 g / cm^3
# Si number density = 18.716999 Si / 1000 Ang^3
#
#
#
# Elastic Constant Matrix: (Units=GPa)
#
#
# Indices 1 2 3 4 5 6 
#
# 1 110.0813 39.9973 48.0868 0.0000 0.0000 0.0000
# 2 39.9973 117.1892 31.4871 0.0000 0.0000 0.0000
# 3 48.0868 31.4871 108.4230 0.0000 0.0000 0.0000
# 4 0.0000 0.0000 0.0000 15.5086 0.0000 0.0000
# 5 0.0000 0.0000 0.0000 0.0000 13.1166 0.0000
# 6 0.0000 0.0000 0.0000 0.0000 0.0000 15.8346
#
#
#
# Elastic Compliance Matrix: (Units=1/GPa)
#
#
# Indices 1 2 3 4 5 6 
#
# 1 0.012124 -0.002921 -0.004529 0.000000 0.000000 0.000000
# 2 -0.002921 0.009959 -0.001597 0.000000 0.000000 0.000000
# 3 -0.004529 -0.001597 0.011695 0.000000 0.000000 0.000000
# 4 0.000000 0.000000 0.000000 0.064481 0.000000 0.000000
# 5 0.000000 0.000000 0.000000 0.000000 0.076239 0.000000
# 6 0.000000 0.000000 0.000000 0.000000 0.000000 0.063153
#
#
# Mechanical properties :
#
#
# Convention : Reuss Voigt Hill
#
# Bulk Modulus (GPa) = 63.75389 63.87064 63.81226
# Shear Modulus (GPa) = 19.15909 23.30011 21.22960
#
# Velocity S-wave (km/s) = 3.20288 3.53209 3.37150
# Velocity P-wave (km/s) = 6.91476 7.12971 7.02305
#
# Compressibility (1/GPa) = 0.01568532
#
# Stress axis : x y z
#
# Youngs Moduli (GPa) = 82.48198 100.40953 85.50379
#
# Poissons Ratio (x) = 0.29331 0.38722
# Poissons Ratio (y) = 0.24094 0.13652
# Poissons Ratio (z) = 0.37354 0.16032
#
# Static dielectric constant tensor:
#      x y z
#    x 3.015560 0.000000 0.000000 
#    y 0.000000 3.394870 0.000000 
#    z 0.000000 0.000000 3.561850 
# 
# 
# High freq. dielectric constant tensor:
#      x y z
#    x 1.688390 0.000000 0.000000 
#    y 0.000000 1.719190 0.000000 
#    z 0.000000 0.000000 1.738890 
# 
# From -- ./inp_files/18192.got.cif
#   From: 2010.03.12/outbox.cif.g09.slc.cpg/sg65_10_cif.got.tgz:18192.got - 2010.04.10 20:52:16.
