data_PCOD8268730
_publ_section_title
;
Structure prediction by ZEFSAII (Michael W. Deem and Ramdas Pophale) SiO2 
 PCOD8268730
Probable space group: C M M M
;
_chemical_formula_sum "Si O2"
_cell_formula_units_Z 88
_cell_length_a 23.482050
_cell_length_b 20.517259
_cell_length_c 9.004066
_cell_angle_alpha 90.000000
_cell_angle_beta 90.000000
_cell_angle_gamma 90.000000
_cell_volume 4338.044662
_symmetry_space_group_name_H-M "C M M M"
_symmetry_group_IT_number 65
_symmetry_cell_setting 'orthorhombic'
loop_
_space_group_symop_operation_xyz
x,y,z
-x,-y,z
x,-y,-z
-x,y,-z
-x,-y,-z
x,y,-z
-x,y,z
x,-y,z
1/2+x,1/2+y,z
1/2-x,1/2-y,z
1/2+x,1/2-y,-z
1/2-x,1/2+y,-z
1/2-x,1/2-y,-z
1/2+x,1/2+y,-z
1/2-x,1/2+y,z
1/2+x,1/2-y,z
loop_
_atom_site_type_symbol
_atom_site_label
_atom_site_fract_x
_atom_site_fract_y
_atom_site_fract_z
Si Si1 0.435822 0.252217 0.830661
Si Si2 0.364347 0.500000 0.663642
Si Si3 0.883457 0.361962 0.325068
Si Si4 0.644213 0.368597 0.824598
Si Si5 0.268882 0.000000 0.664804
Si Si6 0.935740 0.500000 0.324385
Si Si7 0.226659 0.370379 0.824784
O O1 0.500000 0.278723 0.820647
O O2 0.431637 0.188355 0.728213
O O3 0.394973 0.309577 0.771159
O O4 0.419583 0.234223 0.000000
O O5 0.393400 0.500000 0.500000
O O6 0.380799 0.565498 0.751755
O O7 0.297546 0.500000 0.642092
O O8 0.876021 0.359032 0.500000
O O9 0.901777 0.434889 0.272454
O O10 0.825310 0.331224 0.250547
O O11 0.709315 0.351271 0.774696
O O12 0.642468 0.380292 0.000000
O O13 0.289464 0.940699 0.762527
O O14 0.298437 0.000000 0.500000
O O15 0.941251 0.500000 0.500000
O O16 0.000000 0.500000 0.256629
O O17 0.221036 0.365967 0.000000
#
# Coordination Sequence:
#
# PCOD8268730 Si02
#       7
#    16   8  16  16   8   8  16
#     4  10  22  41  61  80 106 143 188 236 284 336
#     4   9  17  30  53  84 113 141 176 222 271 322
#     4  11  22  36  57  83 112 146 185 232 283 335
#     4   9  19  36  58  82 111 149 187 225 276 338
#     4   9  16  28  47  75 112 146 176 215 269 326
#     4   9  19  36  56  78 106 143 185 224 264 316
#     4  10  19  32  52  79 111 146 185 226 273 332
#
# _framework density 20.285637000000001
#
# number of rings (size 3 to 8) (size 9 to 14) (size 15 to 20)
#    0.000    2.273    0.000    2.727    0.000    6.182 
#    0.000    5.455    0.000    6.000    0.000    0.000 
#    0.000    0.000    0.000    0.000    0.000    0.000 
#
# Total GULP energy -545249.019762 kJ/mol
# GULP energy per Si atom -12392.023176 kJ/mol
# Density = 2.023947 g / cm^3
# Si number density = 20.285637 Si / 1000 Ang^3
#
#
#
# Elastic Constant Matrix: (Units=GPa)
#
#
# Indices 1 2 3 4 5 6 
#
# 1 117.7495 56.4659 36.8630 0.0000 0.0000 0.0000
# 2 56.4659 112.7410 39.9312 0.0000 0.0000 0.0000
# 3 36.8630 39.9312 67.6070 0.0000 0.0000 0.0000
# 4 0.0000 0.0000 0.0000 21.4765 0.0000 0.0000
# 5 0.0000 0.0000 0.0000 0.0000 20.1175 0.0000
# 6 0.0000 0.0000 0.0000 0.0000 0.0000 30.4336
#
#
#
# Elastic Compliance Matrix: (Units=1/GPa)
#
#
# Indices 1 2 3 4 5 6 
#
# 1 0.011884 -0.004624 -0.003748 0.000000 0.000000 0.000000
# 2 -0.004624 0.013016 -0.005166 0.000000 0.000000 0.000000
# 3 -0.003748 -0.005166 0.019886 0.000000 0.000000 0.000000
# 4 0.000000 0.000000 0.000000 0.046563 0.000000 0.000000
# 5 0.000000 0.000000 0.000000 0.000000 0.049708 0.000000
# 6 0.000000 0.000000 0.000000 0.000000 0.000000 0.032858
#
#
# Mechanical properties :
#
#
# Convention : Reuss Voigt Hill
#
# Bulk Modulus (GPa) = 56.47067 62.73528 59.60298
# Shear Modulus (GPa) = 24.16684 25.39467 24.78076
#
# Velocity S-wave (km/s) = 3.45531 3.54199 3.49892
# Velocity P-wave (km/s) = 6.61944 6.90802 6.76527
#
# Compressibility (1/GPa) = 0.01770831
#
# Stress axis : x y z
#
# Youngs Moduli (GPa) = 84.14965 76.83028 50.28537
#
# Poissons Ratio (x) = 0.35528 0.18849
# Poissons Ratio (y) = 0.38913 0.25978
# Poissons Ratio (z) = 0.31542 0.39692
#
# Static dielectric constant tensor:
#      x y z
#    x 3.781600 0.000000 0.000000 
#    y 0.000000 3.604290 0.000000 
#    z 0.000000 0.000000 3.571200 
# 
# 
# High freq. dielectric constant tensor:
#      x y z
#    x 1.794780 0.000000 0.000000 
#    y 0.000000 1.781680 0.000000 
#    z 0.000000 0.000000 1.779670 
# 
# From -- ./inp_files/14033.got.cif
#   From: 2010.03.12/outbox.cif.g09.slc.cpg/sg65_8_cif.got.tgz:14033.got - 2010.04.10 20:52:16.
