data_PCOD8268699
_publ_section_title
;
Structure prediction by ZEFSAII (Michael W. Deem and Ramdas Pophale) SiO2 
 PCOD8268699
Probable space group: C M M M
;
_chemical_formula_sum "Si O2"
_cell_formula_units_Z 64
_cell_length_a 17.914739
_cell_length_b 8.683016
_cell_length_c 20.785060
_cell_angle_alpha 90.000000
_cell_angle_beta 90.000000
_cell_angle_gamma 90.000000
_cell_volume 3233.198504
_symmetry_space_group_name_H-M "C M M M"
_symmetry_group_IT_number 65
_symmetry_cell_setting 'orthorhombic'
loop_
_space_group_symop_operation_xyz
x,y,z
-x,-y,z
x,-y,-z
-x,y,-z
-x,-y,-z
x,y,-z
-x,y,z
x,-y,z
1/2+x,1/2+y,z
1/2-x,1/2-y,z
1/2+x,1/2-y,-z
1/2-x,1/2+y,-z
1/2-x,1/2-y,-z
1/2+x,1/2+y,-z
1/2-x,1/2+y,z
1/2+x,1/2-y,z
loop_
_atom_site_type_symbol
_atom_site_label
_atom_site_fract_x
_atom_site_fract_y
_atom_site_fract_z
Si Si1 0.168115 0.682953 0.626461
Si Si2 0.331768 0.817453 0.120618
Si Si3 0.916056 0.316834 0.752913
Si Si4 0.583975 0.183323 0.500000
Si Si5 0.411724 0.676003 0.000000
O O1 0.172657 0.500000 0.626395
O O2 0.250000 0.750000 0.628685
O O3 0.122741 0.744420 0.688104
O O4 0.126550 0.745032 0.562947
O O5 0.250000 0.750000 0.113498
O O6 0.368899 0.755954 0.186415
O O7 0.382419 0.761890 0.062510
O O8 0.326998 0.000000 0.119661
O O9 0.918680 0.500000 0.752870
O O10 0.000000 0.250058 0.756584
O O11 0.500000 0.249407 0.500000
O O12 0.581823 0.000000 0.500000
O O13 0.383568 0.500000 0.000000
O O14 0.500000 0.686348 0.000000
#
# Coordination Sequence:
#
# PCOD8268699 Si02
#       5
#    16  16  16   8   8
#     4  10  19  32  52  77 106 138 174 218 264 313
#     4  11  22  37  58  82 110 143 180 221 266 319
#     4   9  18  33  54  79 105 137 179 223 264 310
#     4   9  17  30  51  77 102 135 180 222 258 303
#     4  11  24  41  60  83 111 141 176 221 270 319
#
# _framework density 19.794640000000001
#
# number of rings (size 3 to 8) (size 9 to 14) (size 15 to 20)
#    0.000    2.000    0.000    4.125    0.000    5.000 
#    0.000    1.250    0.000    6.750    0.000    0.000 
#    0.000    0.000    0.000    0.000    0.000    0.000 
#
# Total GULP energy -396893.638818 kJ/mol
# GULP energy per Si atom -12402.926213 kJ/mol
# Density = 1.974959 g / cm^3
# Si number density = 19.794640 Si / 1000 Ang^3
#
#
#
# Elastic Constant Matrix: (Units=GPa)
#
#
# Indices 1 2 3 4 5 6 
#
# 1 137.0709 25.2402 61.8883 0.0000 0.0000 0.0000
# 2 25.2402 41.7862 29.6376 0.0000 0.0000 0.0000
# 3 61.8883 29.6376 183.5965 0.0000 0.0000 0.0000
# 4 0.0000 0.0000 0.0000 35.3942 0.0000 0.0000
# 5 0.0000 0.0000 0.0000 0.0000 50.7147 0.0000
# 6 0.0000 0.0000 0.0000 0.0000 0.0000 25.4511
#
#
#
# Elastic Compliance Matrix: (Units=1/GPa)
#
#
# Indices 1 2 3 4 5 6 
#
# 1 0.009097 -0.003749 -0.002461 0.000000 0.000000 0.000000
# 2 -0.003749 0.028571 -0.003348 0.000000 0.000000 0.000000
# 3 -0.002461 -0.003348 0.006817 0.000000 0.000000 0.000000
# 4 0.000000 0.000000 0.000000 0.028253 0.000000 0.000000
# 5 0.000000 0.000000 0.000000 0.000000 0.019718 0.000000
# 6 0.000000 0.000000 0.000000 0.000000 0.000000 0.039291
#
#
# Mechanical properties :
#
#
# Convention : Reuss Voigt Hill
#
# Bulk Modulus (GPa) = 39.42096 66.22063 52.82080
# Shear Modulus (GPa) = 31.38320 38.69115 35.03718
#
# Velocity S-wave (km/s) = 3.98608 4.42591 4.21174
# Velocity P-wave (km/s) = 6.41430 7.72300 7.09887
#
# Compressibility (1/GPa) = 0.02536721
#
# Stress axis : x y z
#
# Youngs Moduli (GPa) = 109.92413 35.00070 146.69374
#
# Poissons Ratio (x) = 0.13123 0.36106
# Poissons Ratio (y) = 0.41213 0.49118
# Poissons Ratio (z) = 0.27056 0.11719
#
# Static dielectric constant tensor:
#      x y z
#    x 3.765620 0.000000 0.000000 
#    y 0.000000 3.266300 0.000000 
#    z 0.000000 0.000000 4.035100 
# 
# 
# High freq. dielectric constant tensor:
#      x y z
#    x 1.791900 0.000000 0.000000 
#    y 0.000000 1.733090 0.000000 
#    z 0.000000 0.000000 1.794400 
# 
# From -- ./inp_files/58845.got.cif
#   From: 2010.03.12/outbox.cif.g09.slc.cpg/sg65_30_cif.got.tgz:58845.got - 2010.04.10 20:52:16.
