data_PCOD8268766
_publ_section_title
;
Structure prediction by ZEFSAII (Michael W. Deem and Ramdas Pophale) SiO2 
 PCOD8268766
Probable space group: C M M M
;
_chemical_formula_sum "Si O2"
_cell_formula_units_Z 128
_cell_length_a 18.841542
_cell_length_b 17.016415
_cell_length_c 22.502581
_cell_angle_alpha 90.000000
_cell_angle_beta 90.000000
_cell_angle_gamma 90.000000
_cell_volume 7214.676212
_symmetry_space_group_name_H-M "C M M M"
_symmetry_group_IT_number 65
_symmetry_cell_setting 'orthorhombic'
loop_
_space_group_symop_operation_xyz
x,y,z
-x,-y,z
x,-y,-z
-x,y,-z
-x,-y,-z
x,y,-z
-x,y,z
x,-y,z
1/2+x,1/2+y,z
1/2-x,1/2-y,z
1/2+x,1/2-y,-z
1/2-x,1/2+y,-z
1/2-x,1/2-y,-z
1/2+x,1/2+y,-z
1/2-x,1/2+y,z
1/2+x,1/2-y,z
loop_
_atom_site_type_symbol
_atom_site_label
_atom_site_fract_x
_atom_site_fract_y
_atom_site_fract_z
Si Si1 0.816926 0.409375 0.225823
Si Si2 0.084441 0.253991 0.568409
Si Si3 0.672418 0.217894 0.326789
Si Si4 0.920967 0.184359 0.756854
Si Si5 0.171368 0.909377 0.837039
Si Si6 0.329705 0.278306 0.067972
Si Si7 0.921401 0.917468 0.570082
Si Si8 0.079194 0.677583 0.851542
O O1 0.815907 0.500000 0.245074
O O2 0.824512 0.358242 0.285150
O O3 0.745670 0.383898 0.192058
O O4 0.881007 0.395246 0.179578
O O5 0.101838 0.275453 0.500000
O O6 0.130328 0.308556 0.612900
O O7 0.113923 0.166011 0.585953
O O8 0.000000 0.262248 0.579462
O O9 0.750000 0.250000 0.342379
O O10 0.627938 0.288598 0.297335
O O11 0.888946 0.106557 0.787611
O O12 0.922498 0.252016 0.805353
O O13 0.000000 0.165687 0.733262
O O14 0.157598 0.858372 0.895806
O O15 0.170136 0.000000 0.855955
O O16 0.250000 0.250000 0.076373
O O17 0.380348 0.207613 0.089825
O O18 0.348318 0.296777 0.000000
O O19 0.928891 0.918391 0.500000
O O20 0.000000 0.918361 0.598079
O O21 0.882320 0.000000 0.590936
O O22 0.000000 0.650360 0.869129
#
# Coordination Sequence:
#
# PCOD8268766 Si02
#       8
#    16  16  16  16  16  16  16  16
#     4  10  20  35  55  78 105 139 179 225 278 327
#     4   9  18  32  50  74 104 138 177 218 260 314
#     4  11  20  33  54  77 104 138 173 220 268 317
#     4   9  18  32  52  77 102 135 174 212 258 313
#     4  10  19  33  54  78 108 143 175 215 268 320
#     4  10  19  32  53  79 107 144 186 223 262 317
#     4   7  10  20  40  64  91 125 162 196 232 279
#     4   9  18  32  53  77 103 138 180 225 267 309
#
# _framework density 17.741613999999998
#
# number of rings (size 3 to 8) (size 9 to 14) (size 15 to 20)
#    0.000    2.625    2.500    1.500    0.000    1.750 
#    0.000    1.250    0.000    2.250    0.000    5.250 
#    0.000    0.000    0.000    0.000    0.000    0.000 
#
# Total GULP energy -793012.707226 kJ/mol
# GULP energy per Si atom -12390.823550 kJ/mol
# Density = 1.770123 g / cm^3
# Si number density = 17.741614 Si / 1000 Ang^3
#
#
#
# Elastic Constant Matrix: (Units=GPa)
#
#
# Indices 1 2 3 4 5 6 
#
# 1 113.6728 18.7053 48.7950 0.0000 0.0000 0.0000
# 2 18.7053 57.4539 38.1638 0.0000 0.0000 0.0000
# 3 48.7950 38.1638 109.8925 0.0000 0.0000 0.0000
# 4 0.0000 0.0000 0.0000 17.7166 0.0000 0.0000
# 5 0.0000 0.0000 0.0000 0.0000 20.5778 0.0000
# 6 0.0000 0.0000 0.0000 0.0000 0.0000 16.5637
#
#
#
# Elastic Compliance Matrix: (Units=1/GPa)
#
#
# Indices 1 2 3 4 5 6 
#
# 1 0.010877 -0.000433 -0.004679 0.000000 0.000000 0.000000
# 2 -0.000433 0.022642 -0.007671 0.000000 0.000000 0.000000
# 3 -0.004679 -0.007671 0.013841 0.000000 0.000000 0.000000
# 4 0.000000 0.000000 0.000000 0.056444 0.000000 0.000000
# 5 0.000000 0.000000 0.000000 0.000000 0.048596 0.000000
# 6 0.000000 0.000000 0.000000 0.000000 0.000000 0.060373
#
#
# Mechanical properties :
#
#
# Convention : Reuss Voigt Hill
#
# Bulk Modulus (GPa) = 45.88437 54.70526 50.29481
# Shear Modulus (GPa) = 20.35797 22.66197 21.50997
#
# Velocity S-wave (km/s) = 3.39111 3.57786 3.48573
# Velocity P-wave (km/s) = 6.42274 6.92600 6.67911
#
# Compressibility (1/GPa) = 0.02179391
#
# Stress axis : x y z
#
# Youngs Moduli (GPa) = 91.93657 44.16661 72.24679
#
# Poissons Ratio (x) = 0.01912 0.33806
# Poissons Ratio (y) = 0.03981 0.55419
# Poissons Ratio (z) = 0.43020 0.33879
#
# Static dielectric constant tensor:
#      x y z
#    x 3.386530 0.000000 0.000000 
#    y 0.000000 3.266650 0.000000 
#    z 0.000000 0.000000 3.192590 
# 
# 
# High freq. dielectric constant tensor:
#      x y z
#    x 1.678150 0.000000 0.000000 
#    y 0.000000 1.664140 0.000000 
#    z 0.000000 0.000000 1.678400 
# 
# From -- ./inp_files/70662.got.cif
#   From: 2010.03.12/outbox.cif.g09.slc.cpg/sg65_36_cif.got.tgz:70662.got - 2010.04.10 20:52:16.
