data_PCOD8268319
_publ_section_title
;
Structure prediction by ZEFSAII (Michael W. Deem and Ramdas Pophale) SiO2 
 PCOD8268319
Probable space group: C M M M
;
_chemical_formula_sum "Si O2"
_cell_formula_units_Z 88
_cell_length_a 22.868254
_cell_length_b 22.680332
_cell_length_c 8.619782
_cell_angle_alpha 90.000000
_cell_angle_beta 90.000000
_cell_angle_gamma 90.000000
_cell_volume 4470.732624
_symmetry_space_group_name_H-M "C M M M"
_symmetry_group_IT_number 65
_symmetry_cell_setting 'orthorhombic'
loop_
_space_group_symop_operation_xyz
x,y,z
-x,-y,z
x,-y,-z
-x,y,-z
-x,-y,-z
x,y,-z
-x,y,z
x,-y,z
1/2+x,1/2+y,z
1/2-x,1/2-y,z
1/2+x,1/2-y,-z
1/2-x,1/2+y,-z
1/2-x,1/2-y,-z
1/2+x,1/2+y,-z
1/2-x,1/2+y,z
1/2+x,1/2-y,z
loop_
_atom_site_type_symbol
_atom_site_label
_atom_site_fract_x
_atom_site_fract_y
_atom_site_fract_z
Si Si1 0.565495 0.273768 0.820462
Si Si2 0.435560 0.064035 0.183348
Si Si3 0.144380 0.334291 0.184290
Si Si4 0.879335 0.880965 0.681979
Si Si5 0.067849 0.000000 0.816304
Si Si6 0.737326 0.315524 0.317379
O O1 0.500000 0.247935 0.795939
O O2 0.614413 0.227204 0.763584
O O3 0.570674 0.333346 0.720685
O O4 0.575542 0.289432 0.000000
O O5 0.500000 0.069966 0.255737
O O6 0.395831 0.114576 0.254043
O O7 0.408950 0.000000 0.224853
O O8 0.439684 0.072287 0.000000
O O9 0.204955 0.349982 0.267353
O O10 0.151905 0.336623 0.000000
O O11 0.875042 0.892643 0.500000
O O12 0.896187 0.942757 0.760467
O O13 0.818735 0.851692 0.748369
O O14 0.000000 0.000000 0.754628
O O15 0.067111 0.000000 0.000000
O O16 0.729701 0.310485 0.500000
O O17 0.750000 0.250000 0.245789
#
# Coordination Sequence:
#
# PCOD8268319 Si02
#       6
#    16  16  16  16   8  16
#     4  10  20  33  52  82 117 147 181 234 296 347
#     4   8  14  27  48  75 109 144 177 219 271 324
#     4  10  19  31  53  82 110 143 189 235 279 336
#     4  11  23  40  62  85 113 152 197 237 282 347
#     4  11  25  45  67  91 121 153 188 241 304 355
#     4  10  21  39  58  78 111 150 186 228 280 333
#
# _framework density 19.683574
#
# number of rings (size 3 to 8) (size 9 to 14) (size 15 to 20)
#    0.000    2.091    1.818    2.455    0.000    7.273 
#    1.636    0.000    0.000    1.636    0.000    1.273 
#    0.000    0.000    0.000    0.000    0.000    0.000 
#
# Total GULP energy -545299.364328 kJ/mol
# GULP energy per Si atom -12393.167371 kJ/mol
# Density = 1.963877 g / cm^3
# Si number density = 19.683574 Si / 1000 Ang^3
#
#
#
# Elastic Constant Matrix: (Units=GPa)
#
#
# Indices 1 2 3 4 5 6 
#
# 1 129.0930 62.8728 21.5237 0.0000 0.0000 0.0000
# 2 62.8728 142.1673 21.8537 0.0000 0.0000 0.0000
# 3 21.5237 21.8537 24.7303 0.0000 0.0000 0.0000
# 4 0.0000 0.0000 0.0000 17.3733 0.0000 0.0000
# 5 0.0000 0.0000 0.0000 0.0000 10.5458 0.0000
# 6 0.0000 0.0000 0.0000 0.0000 0.0000 32.0260
#
#
#
# Elastic Compliance Matrix: (Units=1/GPa)
#
#
# Indices 1 2 3 4 5 6 
#
# 1 0.010559 -0.003769 -0.005859 0.000000 0.000000 0.000000
# 2 -0.003769 0.009485 -0.005101 0.000000 0.000000 0.000000
# 3 -0.005859 -0.005101 0.050044 0.000000 0.000000 0.000000
# 4 0.000000 0.000000 0.000000 0.057560 0.000000 0.000000
# 5 0.000000 0.000000 0.000000 0.000000 0.094825 0.000000
# 6 0.000000 0.000000 0.000000 0.000000 0.000000 0.031225
#
#
# Mechanical properties :
#
#
# Convention : Reuss Voigt Hill
#
# Bulk Modulus (GPa) = 24.61331 56.49900 40.55616
# Shear Modulus (GPa) = 16.85211 24.63836 20.74523
#
# Velocity S-wave (km/s) = 2.92918 3.54181 3.24996
# Velocity P-wave (km/s) = 4.89610 6.74476 5.89337
#
# Compressibility (1/GPa) = 0.04062842
#
# Stress axis : x y z
#
# Youngs Moduli (GPa) = 94.70701 105.43028 19.98249
#
# Poissons Ratio (x) = 0.39736 0.11708
# Poissons Ratio (y) = 0.35695 0.10194
# Poissons Ratio (z) = 0.55491 0.53784
#
# Static dielectric constant tensor:
#      x y z
#    x 3.884560 0.000000 0.000000 
#    y 0.000000 3.733320 0.000000 
#    z 0.000000 0.000000 3.196900 
# 
# 
# High freq. dielectric constant tensor:
#      x y z
#    x 1.775990 0.000000 0.000000 
#    y 0.000000 1.769290 0.000000 
#    z 0.000000 0.000000 1.734250 
# 
# From -- ./inp_files/11768.got.cif
#   From: 2010.03.12/outbox.cif.g09.slc.cpg/sg65_6_cif.got.tgz:11768.got - 2010.04.10 20:52:16.
