data_PCOD8268678
_publ_section_title
;
Structure prediction by ZEFSAII (Michael W. Deem and Ramdas Pophale) SiO2 
 PCOD8268678
Probable space group: C M M M
;
_chemical_formula_sum "Si O2"
_cell_formula_units_Z 80
_cell_length_a 17.620034
_cell_length_b 10.329307
_cell_length_c 23.250882
_cell_angle_alpha 90.000000
_cell_angle_beta 90.000000
_cell_angle_gamma 90.000000
_cell_volume 4231.724244
_symmetry_space_group_name_H-M "C M M M"
_symmetry_group_IT_number 65
_symmetry_cell_setting 'orthorhombic'
loop_
_space_group_symop_operation_xyz
x,y,z
-x,-y,z
x,-y,-z
-x,y,-z
-x,-y,-z
x,y,-z
-x,y,z
x,-y,z
1/2+x,1/2+y,z
1/2-x,1/2-y,z
1/2+x,1/2-y,-z
1/2-x,1/2+y,-z
1/2-x,1/2-y,-z
1/2+x,1/2+y,-z
1/2-x,1/2+y,z
1/2+x,1/2-y,z
loop_
_atom_site_type_symbol
_atom_site_label
_atom_site_fract_x
_atom_site_fract_y
_atom_site_fract_z
Si Si1 0.337623 0.500000 0.436141
Si Si2 0.340144 0.747466 0.367323
Si Si3 0.409806 0.253768 0.869138
Si Si4 0.090606 0.500000 0.066211
Si Si5 0.342864 0.000000 0.434658
Si Si6 0.909360 0.000000 0.063957
Si Si7 0.589990 0.649514 0.746371
O O1 0.371501 0.500000 0.500000
O O2 0.368770 0.625894 0.404154
O O3 0.247292 0.500000 0.438101
O O4 0.250000 0.750000 0.361696
O O5 0.371367 0.874726 0.399598
O O6 0.375246 0.735121 0.304392
O O7 0.500000 0.252332 0.871831
O O8 0.377742 0.123477 0.898461
O O9 0.376951 0.373558 0.905063
O O10 0.382950 0.274784 0.803591
O O11 0.000000 0.500000 0.065367
O O12 0.120306 0.500000 0.000000
O O13 0.375727 0.000000 0.500000
O O14 0.000000 0.000000 0.065296
O O15 0.877183 0.000000 0.000000
O O16 0.500000 0.649008 0.741365
O O17 0.619474 0.500000 0.746025
#
# Coordination Sequence:
#
# PCOD8268678 Si02
#       7
#     8  16  16   8   8   8  16
#     4   9  16  29  51  75  99 129 164 203 248 294
#     4  10  19  32  52  77 102 129 164 208 248 290
#     4   9  16  26  40  61  90 126 160 193 239 289
#     4   9  16  25  38  60  93 127 158 197 244 292
#     4   9  18  31  49  75 101 125 160 207 256 298
#     4   9  14  21  36  58  85 119 158 195 234 280
#     4  10  19  33  52  72 100 136 171 204 239 291
#
# _framework density 18.904823
#
# number of rings (size 3 to 8) (size 9 to 14) (size 15 to 20)
#    0.000    2.600    2.000    1.200    0.000    5.600 
#    0.000    1.500    0.000    3.600    0.000    0.000 
#    0.000    4.800    0.000    0.000    0.000    0.000 
#
# Total GULP energy -495865.327114 kJ/mol
# GULP energy per Si atom -12396.633178 kJ/mol
# Density = 1.886179 g / cm^3
# Si number density = 18.904823 Si / 1000 Ang^3
#
#
#
# Elastic Constant Matrix: (Units=GPa)
#
#
# Indices 1 2 3 4 5 6 
#
# 1 6.6831 11.0004 16.1728 0.0000 0.0000 0.0000
# 2 11.0004 192.4296 111.2084 0.0000 0.0000 0.0000
# 3 16.1728 111.2084 212.1818 0.0000 0.0000 0.0000
# 4 0.0000 0.0000 0.0000 44.9127 0.0000 0.0000
# 5 0.0000 0.0000 0.0000 0.0000 -153.0121 0.0000
# 6 0.0000 0.0000 0.0000 0.0000 0.0000 6.8988
#
#
#
# Elastic Compliance Matrix: (Units=1/GPa)
#
#
# Indices 1 2 3 4 5 6 
#
# 1 0.185086 -0.003482 -0.012282 0.000000 0.000000 0.000000
# 2 -0.003482 0.007520 -0.003676 0.000000 0.000000 0.000000
# 3 -0.012282 -0.003676 0.007576 0.000000 0.000000 0.000000
# 4 0.000000 0.000000 0.000000 0.022265 0.000000 0.000000
# 5 0.000000 0.000000 0.000000 0.000000 -0.006535 0.000000
# 6 0.000000 0.000000 0.000000 0.000000 0.000000 0.144953
#
#
# Mechanical properties :
#
#
# Convention : Reuss Voigt Hill
#
# Bulk Modulus (GPa) = 6.19960 76.45084 41.32522
# Shear Modulus (GPa) = 11.02502 -2.04593 4.48955
#
# Velocity S-wave (km/s) = 2.41754 -1.04143 1.54272
# Velocity P-wave (km/s) = 3.32854 6.25152 5.00803
#
# Compressibility (1/GPa) = 0.16130079
#
# Stress axis : x y z
#
# Youngs Moduli (GPa) = 5.40288 132.97447 131.99912
#
# Poissons Ratio (x) = 0.46307 1.62126
# Poissons Ratio (y) = 0.01882 0.48524
# Poissons Ratio (z) = 0.06636 0.48882
#
# Static dielectric constant tensor:
#      x y z
#    x 2.702660 0.000000 0.000000 
#    y 0.000000 3.748060 0.000000 
#    z 0.000000 0.000000 3.700810 
# 
# 
# High freq. dielectric constant tensor:
#      x y z
#    x 1.655880 0.000000 0.000000 
#    y 0.000000 1.747820 0.000000 
#    z 0.000000 0.000000 1.755060 
# 
# From -- ./inp_files/70443.got.cif
#   From: 2010.03.12/outbox.cif.g09.slc.cpg/sg65_36_cif.got.tgz:70443.got - 2010.04.10 20:52:16.
