data_PCOD8268316
_publ_section_title
;
Structure prediction by ZEFSAII (Michael W. Deem and Ramdas Pophale) SiO2 
 PCOD8268316
Probable space group: C M M M
;
_chemical_formula_sum "Si O2"
_cell_formula_units_Z 88
_cell_length_a 24.117991
_cell_length_b 20.065880
_cell_length_c 9.402484
_cell_angle_alpha 90.000000
_cell_angle_beta 90.000000
_cell_angle_gamma 90.000000
_cell_volume 4550.320033
_symmetry_space_group_name_H-M "C M M M"
_symmetry_group_IT_number 65
_symmetry_cell_setting 'orthorhombic'
loop_
_space_group_symop_operation_xyz
x,y,z
-x,-y,z
x,-y,-z
-x,y,-z
-x,-y,-z
x,y,-z
-x,y,z
x,-y,z
1/2+x,1/2+y,z
1/2-x,1/2-y,z
1/2+x,1/2-y,-z
1/2-x,1/2+y,-z
1/2-x,1/2-y,-z
1/2+x,1/2+y,-z
1/2-x,1/2+y,z
1/2+x,1/2-y,z
loop_
_atom_site_type_symbol
_atom_site_label
_atom_site_fract_x
_atom_site_fract_y
_atom_site_fract_z
Si Si1 0.437513 0.390594 0.833390
Si Si2 0.862448 0.626032 0.830534
Si Si3 0.662632 0.427366 0.660637
Si Si4 0.257067 0.172596 0.668091
Si Si5 0.939981 0.258812 0.831317
Si Si6 0.936061 0.500000 0.168318
O O1 0.500000 0.414302 0.797308
O O2 0.392841 0.434603 0.753052
O O3 0.427802 0.315400 0.778311
O O4 0.426722 0.397032 0.000000
O O5 0.804186 0.631293 0.750843
O O6 0.893562 0.691784 0.774798
O O7 0.900388 0.563866 0.780939
O O8 0.852504 0.624103 0.000000
O O9 0.644473 0.412604 0.500000
O O10 0.692627 0.500000 0.672059
O O11 0.701972 0.367551 0.712969
O O12 0.268918 0.168182 0.500000
O O13 0.250000 0.250000 0.716376
O O14 0.000000 0.282590 0.774070
O O15 0.941348 0.260007 0.000000
O O16 0.000000 0.500000 0.229296
O O17 0.940992 0.500000 0.000000
#
# Coordination Sequence:
#
# PCOD8268316 Si02
#       6
#    16  16  16  16  16   8
#     4   9  18  33  54  80 106 132 167 213 263 308
#     4  10  19  31  53  81 107 140 183 224 266 318
#     4  10  22  38  54  73 101 138 175 208 253 315
#     4  10  22  39  57  77 104 140 181 226 276 324
#     4   8  14  27  49  76 105 136 170 210 258 311
#     4   9  18  32  51  81 119 151 182 225 276 333
#
# _framework density 19.339299
#
# number of rings (size 3 to 8) (size 9 to 14) (size 15 to 20)
#    0.000    2.636    0.000    2.727    1.273    4.364 
#    0.000    1.818    0.000    3.818    0.000    0.000 
#    0.000    0.000    0.000    0.000    0.000    0.000 
#
# Total GULP energy -545262.437957 kJ/mol
# GULP energy per Si atom -12392.328135 kJ/mol
# Density = 1.929528 g / cm^3
# Si number density = 19.339299 Si / 1000 Ang^3
#
#
#
# Elastic Constant Matrix: (Units=GPa)
#
#
# Indices 1 2 3 4 5 6 
#
# 1 135.3340 59.0172 45.9610 0.0000 0.0000 0.0000
# 2 59.0172 107.3902 25.5293 0.0000 0.0000 0.0000
# 3 45.9610 25.5293 36.2317 0.0000 0.0000 0.0000
# 4 0.0000 0.0000 0.0000 16.7625 0.0000 0.0000
# 5 0.0000 0.0000 0.0000 0.0000 19.6150 0.0000
# 6 0.0000 0.0000 0.0000 0.0000 0.0000 30.5917
#
#
#
# Elastic Compliance Matrix: (Units=1/GPa)
#
#
# Indices 1 2 3 4 5 6 
#
# 1 0.014472 -0.004311 -0.015321 0.000000 0.000000 0.000000
# 2 -0.004311 0.012470 -0.003317 0.000000 0.000000 0.000000
# 3 -0.015321 -0.003317 0.049373 0.000000 0.000000 0.000000
# 4 0.000000 0.000000 0.000000 0.059657 0.000000 0.000000
# 5 0.000000 0.000000 0.000000 0.000000 0.050981 0.000000
# 6 0.000000 0.000000 0.000000 0.000000 0.000000 0.032689
#
#
# Mechanical properties :
#
#
# Convention : Reuss Voigt Hill
#
# Bulk Modulus (GPa) = 32.87771 59.99679 46.43725
# Shear Modulus (GPa) = 18.13702 23.29041 20.71371
#
# Velocity S-wave (km/s) = 3.06573 3.47407 3.27627
# Velocity P-wave (km/s) = 5.43773 6.86898 6.19483
#
# Compressibility (1/GPa) = 0.03041574
#
# Stress axis : x y z
#
# Youngs Moduli (GPa) = 69.09717 80.19407 20.25409
#
# Poissons Ratio (x) = 0.34574 0.31031
# Poissons Ratio (y) = 0.29790 0.06719
# Poissons Ratio (z) = 1.05863 0.26604
#
# Static dielectric constant tensor:
#      x y z
#    x 3.644950 0.000000 0.000000 
#    y 0.000000 3.792540 0.000000 
#    z 0.000000 0.000000 3.090710 
# 
# 
# High freq. dielectric constant tensor:
#      x y z
#    x 1.757420 0.000000 0.000000 
#    y 0.000000 1.767540 0.000000 
#    z 0.000000 0.000000 1.709320 
# 
# From -- ./inp_files/11847.got.cif
#   From: 2010.03.12/outbox.cif.g09.slc.cpg/sg65_6_cif.got.tgz:11847.got - 2010.04.10 20:52:16.
