data_PCOD8268426
_publ_section_title
;
Structure prediction by ZEFSAII (Michael W. Deem and Ramdas Pophale) SiO2 
 PCOD8268426
Probable space group: C M M M
;
_chemical_formula_sum "Si O2"
_cell_formula_units_Z 104
_cell_length_a 10.259961
_cell_length_b 30.290416
_cell_length_c 18.644003
_cell_angle_alpha 90.000000
_cell_angle_beta 90.000000
_cell_angle_gamma 90.000000
_cell_volume 5794.155041
_symmetry_space_group_name_H-M "C M M M"
_symmetry_group_IT_number 65
_symmetry_cell_setting 'orthorhombic'
loop_
_space_group_symop_operation_xyz
x,y,z
-x,-y,z
x,-y,-z
-x,y,-z
-x,-y,-z
x,y,-z
-x,y,z
x,-y,z
1/2+x,1/2+y,z
1/2-x,1/2-y,z
1/2+x,1/2-y,-z
1/2-x,1/2+y,-z
1/2-x,1/2-y,-z
1/2+x,1/2+y,-z
1/2-x,1/2+y,z
1/2+x,1/2-y,z
loop_
_atom_site_type_symbol
_atom_site_label
_atom_site_fract_x
_atom_site_fract_y
_atom_site_fract_z
Si Si1 0.000000 0.948033 0.580080
Si Si2 0.762601 0.550729 0.345778
Si Si3 0.646237 0.131745 0.421804
Si Si4 0.845816 0.377011 0.079893
Si Si5 0.151569 0.288921 0.325901
Si Si6 0.849978 0.288296 0.159344
Si Si7 0.651110 0.049807 0.188119
O O1 0.123127 0.932720 0.626019
O O2 0.000000 0.926900 0.500000
O O3 0.000000 0.000000 0.572178
O O4 0.794842 0.500000 0.367004
O O5 0.860927 0.583442 0.385515
O O6 0.767155 0.556747 0.260501
O O7 0.717614 0.130559 0.500000
O O8 0.500000 0.146825 0.434797
O O9 0.706328 0.168670 0.369146
O O10 0.805531 0.330572 0.114005
O O11 0.791731 0.417243 0.128228
O O12 0.000000 0.381233 0.076205
O O13 0.785748 0.380637 0.000000
O O14 0.250000 0.250000 0.347551
O O15 0.164837 0.300684 0.242399
O O16 0.000000 0.276607 0.343168
O O17 0.750000 0.250000 0.136865
O O18 0.000000 0.274522 0.142017
O O19 0.500000 0.059835 0.205924
O O20 0.667960 0.000000 0.159138
#
# Coordination Sequence:
#
# PCOD8268426 Si02
#       7
#     8  16  16  16  16  16  16
#     4   9  18  32  48  66  93 129 165 205 250 290
#     4  10  19  32  50  71  97 130 165 203 247 296
#     4  10  20  32  48  71  98 128 160 198 247 300
#     4   9  17  29  47  72 102 134 163 194 240 296
#     4   9  18  34  53  71  96 128 165 209 254 297
#     4   9  17  30  50  73  96 127 163 202 247 297
#     4   9  17  29  48  74 100 127 163 205 245 289
#
# _framework density 17.949121999999999
#
# number of rings (size 3 to 8) (size 9 to 14) (size 15 to 20)
#    0.000    2.692    0.000    1.846    0.000    5.231 
#    1.385    2.308    5.077    0.000    0.000    0.000 
#    0.000    3.077    0.000    0.000    0.000    0.000 
#
# Total GULP energy -644508.906126 kJ/mol
# GULP energy per Si atom -12394.402041 kJ/mol
# Density = 1.790827 g / cm^3
# Si number density = 17.949122 Si / 1000 Ang^3
#
#
#
# Elastic Constant Matrix: (Units=GPa)
#
#
# Indices 1 2 3 4 5 6 
#
# 1 52.4667 39.8083 35.5070 0.0000 0.0000 0.0000
# 2 39.8083 128.0113 86.2727 0.0000 0.0000 0.0000
# 3 35.5070 86.2727 129.9777 0.0000 0.0000 0.0000
# 4 0.0000 0.0000 0.0000 24.9165 0.0000 0.0000
# 5 0.0000 0.0000 0.0000 0.0000 16.0397 0.0000
# 6 0.0000 0.0000 0.0000 0.0000 0.0000 22.0421
#
#
#
# Elastic Compliance Matrix: (Units=1/GPa)
#
#
# Indices 1 2 3 4 5 6 
#
# 1 0.025615 -0.005880 -0.003095 0.000000 0.000000 0.000000
# 2 -0.005880 0.015485 -0.008672 0.000000 0.000000 0.000000
# 3 -0.003095 -0.008672 0.014295 0.000000 0.000000 0.000000
# 4 0.000000 0.000000 0.000000 0.040134 0.000000 0.000000
# 5 0.000000 0.000000 0.000000 0.000000 0.062345 0.000000
# 6 0.000000 0.000000 0.000000 0.000000 0.000000 0.045368
#
#
# Mechanical properties :
#
#
# Convention : Reuss Voigt Hill
#
# Bulk Modulus (GPa) = 49.74598 70.40354 60.07476
# Shear Modulus (GPa) = 20.38861 22.52419 21.45640
#
# Velocity S-wave (km/s) = 3.37398 3.54629 3.46121
# Velocity P-wave (km/s) = 6.55389 7.48848 7.03672
#
# Compressibility (1/GPa) = 0.02010213
#
# Stress axis : x y z
#
# Youngs Moduli (GPa) = 39.03888 64.58053 69.95584
#
# Poissons Ratio (x) = 0.37975 0.21649
# Poissons Ratio (y) = 0.22956 0.60662
# Poissons Ratio (z) = 0.12081 0.56001
#
# Static dielectric constant tensor:
#      x y z
#    x 3.132260 0.000000 0.000000 
#    y 0.000000 3.288630 0.000000 
#    z 0.000000 0.000000 3.537480 
# 
# 
# High freq. dielectric constant tensor:
#      x y z
#    x 1.656610 0.000000 0.000000 
#    y 0.000000 1.694390 0.000000 
#    z 0.000000 0.000000 1.699730 
# 
# From -- ./inp_files/51932.got.cif
#   From: 2010.03.12/outbox.cif.g09.slc.cpg/sg65_26_cif.got.tgz:51932.got - 2010.04.10 20:52:16.
