data_PCOD8268515
_publ_section_title
;
Structure prediction by ZEFSAII (Michael W. Deem and Ramdas Pophale) SiO2 
 PCOD8268515
Probable space group: C M M M
;
_chemical_formula_sum "Si O2"
_cell_formula_units_Z 88
_cell_length_a 9.159936
_cell_length_b 19.260547
_cell_length_c 28.002984
_cell_angle_alpha 90.000000
_cell_angle_beta 90.000000
_cell_angle_gamma 90.000000
_cell_volume 4940.437033
_symmetry_space_group_name_H-M "C M M M"
_symmetry_group_IT_number 65
_symmetry_cell_setting 'orthorhombic'
loop_
_space_group_symop_operation_xyz
x,y,z
-x,-y,z
x,-y,-z
-x,y,-z
-x,-y,-z
x,y,-z
-x,y,z
x,-y,z
1/2+x,1/2+y,z
1/2-x,1/2-y,z
1/2+x,1/2-y,-z
1/2-x,1/2+y,-z
1/2-x,1/2-y,-z
1/2+x,1/2+y,-z
1/2-x,1/2+y,z
1/2+x,1/2-y,z
loop_
_atom_site_type_symbol
_atom_site_label
_atom_site_fract_x
_atom_site_fract_y
_atom_site_fract_z
Si Si1 0.170064 0.580506 0.677693
Si Si2 0.328765 0.323823 0.396501
Si Si3 0.666342 0.320265 0.500000
Si Si4 0.838463 0.417578 0.215902
Si Si5 0.667038 0.417808 0.124807
Si Si6 0.669844 0.180201 0.944307
O O1 0.210094 0.500000 0.671853
O O2 0.268705 0.622713 0.641593
O O3 0.208764 0.607117 0.731234
O O4 0.000000 0.593186 0.666866
O O5 0.500000 0.312507 0.387512
O O6 0.250000 0.250000 0.391044
O O7 0.298590 0.358335 0.449483
O O8 0.500000 0.297828 0.500000
O O9 0.750000 0.250000 0.500000
O O10 0.844665 0.500000 0.216395
O O11 0.724886 0.390791 0.176191
O O12 0.000000 0.388636 0.203399
O O13 0.500000 0.394352 0.119672
O O14 0.684711 0.500000 0.120327
O O15 0.762146 0.385024 0.082823
O O16 0.500000 0.187047 0.931935
O O17 0.750000 0.250000 0.927198
O O18 0.696532 0.166876 0.000000
#
# Coordination Sequence:
#
# PCOD8268515 Si02
#       6
#    16  16   8  16  16  16
#     4   9  18  33  52  74 101 132 165 202 246 295
#     4  10  19  32  51  73  98 128 164 206 249 295
#     4   8  16  30  47  68  93 125 163 201 245 294
#     4   8  15  30  51  72  97 131 167 203 245 293
#     4  10  20  33  52  79 107 133 165 207 249 290
#     4  10  21  37  56  76 101 135 171 206 248 299
#
# _framework density 17.812189
#
# number of rings (size 3 to 8) (size 9 to 14) (size 15 to 20)
#    0.000    2.727    0.000    2.727    0.000    4.364 
#    0.000    5.000    0.000    7.091    0.000    0.000 
#    0.000    0.000    0.000    0.000    0.000    0.000 
#
# Total GULP energy -545327.984571 kJ/mol
# GULP energy per Si atom -12393.817831 kJ/mol
# Density = 1.777165 g / cm^3
# Si number density = 17.812189 Si / 1000 Ang^3
#
#
#
# Elastic Constant Matrix: (Units=GPa)
#
#
# Indices 1 2 3 4 5 6 
#
# 1 117.1699 45.6127 76.1614 0.0000 0.0000 0.0000
# 2 45.6127 49.6767 47.2037 0.0000 0.0000 0.0000
# 3 76.1614 47.2037 122.4966 0.0000 0.0000 0.0000
# 4 0.0000 0.0000 0.0000 -104.8801 0.0000 0.0000
# 5 0.0000 0.0000 0.0000 0.0000 33.1362 0.0000
# 6 0.0000 0.0000 0.0000 0.0000 0.0000 30.8686
#
#
#
# Elastic Compliance Matrix: (Units=1/GPa)
#
#
# Indices 1 2 3 4 5 6 
#
# 1 0.016282 -0.008410 -0.006883 0.000000 0.000000 0.000000
# 2 -0.008410 0.036104 -0.008683 0.000000 0.000000 0.000000
# 3 -0.006883 -0.008683 0.015789 0.000000 0.000000 0.000000
# 4 0.000000 0.000000 0.000000 -0.009535 0.000000 0.000000
# 5 0.000000 0.000000 0.000000 0.000000 0.030178 0.000000
# 6 0.000000 0.000000 0.000000 0.000000 0.000000 0.032395
#
#
# Mechanical properties :
#
#
# Convention : Reuss Voigt Hill
#
# Bulk Modulus (GPa) = 49.45064 69.69989 59.57527
# Shear Modulus (GPa) = 28.42411 -0.15070 14.13670
#
# Velocity S-wave (km/s) = 3.99904 -0.29119 2.82024
# Velocity P-wave (km/s) = 7.01039 6.25319 6.64259
#
# Compressibility (1/GPa) = 0.02022219
#
# Stress axis : x y z
#
# Youngs Moduli (GPa) = 61.41600 27.69813 63.33635
#
# Poissons Ratio (x) = 0.23295 0.43591
# Poissons Ratio (y) = 0.51654 0.54997
# Poissons Ratio (z) = 0.42270 0.24051
#
# Static dielectric constant tensor:
#      x y z
#    x 3.442630 0.000000 0.000000 
#    y 0.000000 2.903340 0.000000 
#    z 0.000000 0.000000 3.740340 
# 
# 
# High freq. dielectric constant tensor:
#      x y z
#    x 1.699350 0.000000 0.000000 
#    y 0.000000 1.650800 0.000000 
#    z 0.000000 0.000000 1.705070 
# 
# From -- ./inp_files/67481.got.cif
#   From: 2010.03.12/outbox.cif.g09.slc.cpg/sg65_34_cif.got.tgz:67481.got - 2010.04.10 20:52:16.
