data_PCOD8268823
_publ_section_title
;
Structure prediction by ZEFSAII (Michael W. Deem and Ramdas Pophale) SiO2 
 PCOD8268823
Probable space group: C M M M
;
_chemical_formula_sum "Si O2"
_cell_formula_units_Z 128
_cell_length_a 18.094769
_cell_length_b 18.210627
_cell_length_c 21.952128
_cell_angle_alpha 90.000000
_cell_angle_beta 90.000000
_cell_angle_gamma 90.000000
_cell_volume 7233.601314
_symmetry_space_group_name_H-M "C M M M"
_symmetry_group_IT_number 65
_symmetry_cell_setting 'orthorhombic'
loop_
_space_group_symop_operation_xyz
x,y,z
-x,-y,z
x,-y,-z
-x,y,-z
-x,-y,-z
x,y,-z
-x,y,z
x,-y,z
1/2+x,1/2+y,z
1/2-x,1/2-y,z
1/2+x,1/2-y,-z
1/2-x,1/2+y,-z
1/2-x,1/2-y,-z
1/2+x,1/2+y,-z
1/2-x,1/2+y,z
1/2+x,1/2-y,z
loop_
_atom_site_type_symbol
_atom_site_label
_atom_site_fract_x
_atom_site_fract_y
_atom_site_fract_z
Si Si1 0.810979 0.808104 0.859128
Si Si2 0.082823 0.163166 0.751872
Si Si3 0.829742 0.214398 0.569305
Si Si4 0.688204 0.913670 0.131457
Si Si5 0.416474 0.200642 0.667746
Si Si6 0.316793 0.916064 0.725915
Si Si7 0.831841 0.915830 0.657403
Si Si8 0.085266 0.699122 0.071991
O O1 0.750000 0.750000 0.834025
O O2 0.858868 0.844458 0.805941
O O3 0.764779 0.874718 0.890880
O O4 0.866674 0.768852 0.906094
O O5 0.092075 0.243635 0.723669
O O6 0.097232 0.103113 0.699022
O O7 0.000000 0.150757 0.776778
O O8 0.857105 0.208904 0.500000
O O9 0.750000 0.250000 0.574232
O O10 0.885334 0.266183 0.605558
O O11 0.829125 0.132368 0.596464
O O12 0.679861 0.897245 0.202979
O O13 0.617903 0.876960 0.098451
O O14 0.690807 0.000000 0.115932
O O15 0.500000 0.179616 0.654382
O O16 0.376369 0.126919 0.686891
O O17 0.236725 0.895624 0.700486
O O18 0.336005 0.000000 0.714482
O O19 0.833938 0.000000 0.636644
O O20 0.000000 0.707277 0.093789
O O21 0.090138 0.695696 0.000000
#
# Coordination Sequence:
#
# PCOD8268823 Si02
#       8
#    16  16  16  16  16  16  16  16
#     4  10  19  32  55  80 109 143 180 225 270 319
#     4  10  20  31  51  81 108 139 176 215 265 319
#     4  10  20  35  56  78 101 137 183 224 265 314
#     4  10  21  35  55  83 113 143 179 224 279 331
#     4  10  20  33  51  77 106 138 177 221 269 317
#     4  10  19  33  53  79 110 144 175 213 269 327
#     4  10  20  34  54  78 109 142 173 214 264 316
#     4  10  22  39  57  78 107 146 189 230 272 318
#
# _framework density 17.695195999999999
#
# number of rings (size 3 to 8) (size 9 to 14) (size 15 to 20)
#    0.000    2.000    2.500    1.875    0.000    5.250 
#    0.000    1.875    0.000    1.500    0.000    5.250 
#    0.000    0.000    0.000    0.000    0.000    0.000 
#
# Total GULP energy -793567.959831 kJ/mol
# GULP energy per Si atom -12399.499372 kJ/mol
# Density = 1.765492 g / cm^3
# Si number density = 17.695196 Si / 1000 Ang^3
#
#
#
# Elastic Constant Matrix: (Units=GPa)
#
#
# Indices 1 2 3 4 5 6 
#
# 1 119.1876 58.0036 42.2413 0.0000 0.0000 0.0000
# 2 58.0036 95.3885 40.6632 0.0000 0.0000 0.0000
# 3 42.2413 40.6632 75.4963 0.0000 0.0000 0.0000
# 4 0.0000 0.0000 0.0000 20.3412 0.0000 0.0000
# 5 0.0000 0.0000 0.0000 0.0000 24.1981 0.0000
# 6 0.0000 0.0000 0.0000 0.0000 0.0000 16.3406
#
#
#
# Elastic Compliance Matrix: (Units=1/GPa)
#
#
# Indices 1 2 3 4 5 6 
#
# 1 0.012716 -0.006100 -0.003829 0.000000 0.000000 0.000000
# 2 -0.006100 0.016534 -0.005492 0.000000 0.000000 0.000000
# 3 -0.003829 -0.005492 0.018346 0.000000 0.000000 0.000000
# 4 0.000000 0.000000 0.000000 0.049161 0.000000 0.000000
# 5 0.000000 0.000000 0.000000 0.000000 0.041326 0.000000
# 6 0.000000 0.000000 0.000000 0.000000 0.000000 0.061197
#
#
# Mechanical properties :
#
#
# Convention : Reuss Voigt Hill
#
# Bulk Modulus (GPa) = 59.68994 63.54319 61.61656
# Shear Modulus (GPa) = 21.21271 22.12028 21.66649
#
# Velocity S-wave (km/s) = 3.46610 3.53947 3.50298
# Velocity P-wave (km/s) = 7.05861 7.25890 7.15946
#
# Compressibility (1/GPa) = 0.01675324
#
# Stress axis : x y z
#
# Youngs Moduli (GPa) = 78.64246 60.48153 54.50635
#
# Poissons Ratio (x) = 0.36893 0.20872
# Poissons Ratio (y) = 0.47970 0.29937
# Poissons Ratio (z) = 0.30114 0.33219
#
# Static dielectric constant tensor:
#      x y z
#    x 3.456720 0.000000 0.000000 
#    y 0.000000 3.255610 0.000000 
#    z 0.000000 0.000000 3.149450 
# 
# 
# High freq. dielectric constant tensor:
#      x y z
#    x 1.692300 0.000000 0.000000 
#    y 0.000000 1.681870 0.000000 
#    z 0.000000 0.000000 1.670670 
# 
# From -- ./inp_files/70673.got.cif
#   From: 2010.03.12/outbox.cif.g09.slc.cpg/sg65_36_cif.got.tgz:70673.got - 2010.04.10 20:52:16.
