data_PCOD8268643
_publ_section_title
;
Structure prediction by ZEFSAII (Michael W. Deem and Ramdas Pophale) SiO2 
 PCOD8268643
Probable space group: C M M M
;
_chemical_formula_sum "Si O2"
_cell_formula_units_Z 80
_cell_length_a 26.006418
_cell_length_b 8.799672
_cell_length_c 19.593930
_cell_angle_alpha 90.000000
_cell_angle_beta 90.000000
_cell_angle_gamma 90.000000
_cell_volume 4484.030680
_symmetry_space_group_name_H-M "C M M M"
_symmetry_group_IT_number 65
_symmetry_cell_setting 'orthorhombic'
loop_
_space_group_symop_operation_xyz
x,y,z
-x,-y,z
x,-y,-z
-x,y,-z
-x,-y,-z
x,y,-z
-x,y,z
x,-y,z
1/2+x,1/2+y,z
1/2-x,1/2-y,z
1/2+x,1/2-y,-z
1/2-x,1/2+y,-z
1/2-x,1/2-y,-z
1/2+x,1/2+y,-z
1/2-x,1/2+y,z
1/2+x,1/2-y,z
loop_
_atom_site_type_symbol
_atom_site_label
_atom_site_fract_x
_atom_site_fract_y
_atom_site_fract_z
Si Si1 0.802721 0.178513 0.078251
Si Si2 0.000000 0.826132 0.675344
Si Si3 0.889702 0.182116 0.319607
Si Si4 0.303042 0.679373 0.422891
Si Si5 0.386961 0.174847 0.828365
Si Si6 0.500000 0.171340 0.812680
O O1 0.750000 0.250000 0.107437
O O2 0.851755 0.235253 0.119420
O O3 0.798263 0.000000 0.086520
O O4 0.810555 0.228568 0.000000
O O5 0.945166 0.759722 0.649428
O O6 0.000000 0.802509 0.756479
O O7 0.000000 0.000000 0.655561
O O8 0.847697 0.239053 0.373442
O O9 0.878889 0.258953 0.247208
O O10 0.889386 0.000000 0.310154
O O11 0.315213 0.733725 0.500000
O O12 0.298204 0.500000 0.419263
O O13 0.250000 0.750000 0.396474
O O14 0.446581 0.191762 0.854393
O O15 0.369935 0.000000 0.827611
O O16 0.500000 0.000000 0.780229
#
# Coordination Sequence:
#
# PCOD8268643 Si02
#       6
#    16   8  16  16  16   8
#     4  10  21  37  55  74  98 129 163 199 242 290
#     4   8  14  26  45  67  91 122 155 191 239 286
#     4   9  17  30  48  70  96 124 158 199 240 284
#     4   9  18  32  48  66  91 124 159 195 237 285
#     4  10  19  32  52  76 101 129 163 201 240 284
#     4   8  16  30  47  70  99 130 161 194 235 282
#
# _framework density 17.841092
#
# number of rings (size 3 to 8) (size 9 to 14) (size 15 to 20)
#    0.000    2.800    0.000    1.200    0.000    3.600 
#    0.000    3.000    0.000    6.000    0.000    0.000 
#    0.000   11.200    0.000    0.000    0.000    0.000 
#
# Total GULP energy -495605.931159 kJ/mol
# GULP energy per Si atom -12390.148279 kJ/mol
# Density = 1.780048 g / cm^3
# Si number density = 17.841092 Si / 1000 Ang^3
#
#
#
# Elastic Constant Matrix: (Units=GPa)
#
#
# Indices 1 2 3 4 5 6 
#
# 1 179.6968 34.3316 77.6360 0.0000 0.0000 0.0000
# 2 34.3316 36.7619 24.8863 0.0000 0.0000 0.0000
# 3 77.6360 24.8863 73.0869 0.0000 0.0000 0.0000
# 4 0.0000 0.0000 0.0000 19.4872 0.0000 0.0000
# 5 0.0000 0.0000 0.0000 0.0000 5.2370 0.0000
# 6 0.0000 0.0000 0.0000 0.0000 0.0000 26.9164
#
#
#
# Elastic Compliance Matrix: (Units=1/GPa)
#
#
# Indices 1 2 3 4 5 6 
#
# 1 0.010524 -0.002938 -0.010178 0.000000 0.000000 0.000000
# 2 -0.002938 0.036171 -0.009196 0.000000 0.000000 0.000000
# 3 -0.010178 -0.009196 0.027625 0.000000 0.000000 0.000000
# 4 0.000000 0.000000 0.000000 0.051316 0.000000 0.000000
# 5 0.000000 0.000000 0.000000 0.000000 0.190949 0.000000
# 6 0.000000 0.000000 0.000000 0.000000 0.000000 0.037152
#
#
# Mechanical properties :
#
#
# Convention : Reuss Voigt Hill
#
# Bulk Modulus (GPa) = 33.67435 62.58373 48.12904
# Shear Modulus (GPa) = 12.24714 20.50757 16.37736
#
# Velocity S-wave (km/s) = 2.62288 3.39404 3.03307
# Velocity P-wave (km/s) = 5.29983 7.10732 6.26906
#
# Compressibility (1/GPa) = 0.02969619
#
# Stress axis : x y z
#
# Youngs Moduli (GPa) = 95.02434 27.64676 36.19850
#
# Poissons Ratio (x) = 0.08121 0.36844
# Poissons Ratio (y) = 0.27914 0.33287
# Poissons Ratio (z) = 0.96719 0.25423
#
# Static dielectric constant tensor:
#      x y z
#    x 3.758820 0.000000 0.000000 
#    y 0.000000 3.289970 0.000000 
#    z 0.000000 0.000000 3.072410 
# 
# 
# High freq. dielectric constant tensor:
#      x y z
#    x 1.713560 0.000000 0.000000 
#    y 0.000000 1.689280 0.000000 
#    z 0.000000 0.000000 1.653380 
# 
# From -- ./inp_files/57299.got.cif
#   From: 2010.03.12/outbox.cif.g09.slc.cpg/sg65_29_cif.got.tgz:57299.got - 2010.04.10 20:52:16.
