data_PCOD8268232
_publ_section_title
;
Structure prediction by ZEFSAII (Michael W. Deem and Ramdas Pophale) SiO2 
 PCOD8268232
Probable space group: C M M M
;
_chemical_formula_sum "Si O2"
_cell_formula_units_Z 128
_cell_length_a 17.286862
_cell_length_b 21.481825
_cell_length_c 19.656676
_cell_angle_alpha 90.000000
_cell_angle_beta 90.000000
_cell_angle_gamma 90.000000
_cell_volume 7299.572370
_symmetry_space_group_name_H-M "C M M M"
_symmetry_group_IT_number 65
_symmetry_cell_setting 'orthorhombic'
loop_
_space_group_symop_operation_xyz
x,y,z
-x,-y,z
x,-y,-z
-x,y,-z
-x,-y,-z
x,y,-z
-x,y,z
x,-y,z
1/2+x,1/2+y,z
1/2-x,1/2-y,z
1/2+x,1/2-y,-z
1/2-x,1/2+y,-z
1/2-x,1/2-y,-z
1/2+x,1/2+y,-z
1/2-x,1/2+y,z
1/2+x,1/2-y,z
loop_
_atom_site_type_symbol
_atom_site_label
_atom_site_fract_x
_atom_site_fract_y
_atom_site_fract_z
Si Si1 0.088990 0.675448 0.689872
Si Si2 0.794266 0.931477 0.360576
Si Si3 0.682116 0.299951 0.924461
Si Si4 0.587484 0.409928 0.250190
Si Si5 0.834891 0.568083 0.246570
Si Si6 0.914114 0.772834 0.205988
Si Si7 0.712099 0.430520 0.137576
Si Si8 0.215872 0.682903 0.578336
O O1 0.094294 0.612192 0.733479
O O2 0.127039 0.725943 0.741352
O O3 0.137848 0.671861 0.620878
O O4 0.000000 0.689503 0.670644
O O5 0.877802 0.927592 0.323895
O O6 0.730326 0.926629 0.303157
O O7 0.778639 0.873038 0.410805
O O8 0.789088 0.000000 0.397121
O O9 0.750000 0.250000 0.918746
O O10 0.622729 0.278138 0.867789
O O11 0.704480 0.372965 0.914599
O O12 0.645333 0.295782 0.000000
O O13 0.500000 0.436710 0.244363
O O14 0.586496 0.336316 0.246658
O O15 0.639269 0.435990 0.188683
O O16 0.871637 0.500000 0.242624
O O17 0.792370 0.584771 0.176103
O O18 0.000000 0.747779 0.192457
O O19 0.717385 0.500000 0.102846
O O20 0.191082 0.682728 0.500000
O O21 0.250000 0.750000 0.599213
#
# Coordination Sequence:
#
# PCOD8268232 Si02
#       8
#    16  16  16  16  16  16  16  16
#     4  10  19  31  51  76  97 120 156 202 246 287
#     4   9  17  29  47  70  94 123 158 193 232 282
#     4  10  20  32  47  68  94 126 164 203 240 280
#     4   9  16  27  46  72  98 122 156 205 250 282
#     4   8  15  28  45  67  95 124 153 189 237 289
#     4   9  18  31  47  69  96 125 157 195 241 291
#     4   9  17  29  46  68  95 128 162 197 242 292
#     4  10  21  36  52  70  95 128 162 195 238 294
#
# _framework density 17.535273
#
# number of rings (size 3 to 8) (size 9 to 14) (size 15 to 20)
#    0.000    2.750    0.000    2.625    0.000    4.750 
#    0.000    0.000    0.000    1.125    0.000    7.875 
#    0.000    0.000    0.000   23.250    0.000    0.625 
#
# Total GULP energy -792844.271731 kJ/mol
# GULP energy per Si atom -12388.191746 kJ/mol
# Density = 1.749536 g / cm^3
# Si number density = 17.535273 Si / 1000 Ang^3
#
#
#
# Elastic Constant Matrix: (Units=GPa)
#
#
# Indices 1 2 3 4 5 6 
#
# 1 56.1458 32.0235 28.8360 0.0000 0.0000 0.0000
# 2 32.0235 116.3016 39.6784 0.0000 0.0000 0.0000
# 3 28.8360 39.6784 76.1321 0.0000 0.0000 0.0000
# 4 0.0000 0.0000 0.0000 17.5871 0.0000 0.0000
# 5 0.0000 0.0000 0.0000 0.0000 17.3259 0.0000
# 6 0.0000 0.0000 0.0000 0.0000 0.0000 18.9470
#
#
#
# Elastic Compliance Matrix: (Units=1/GPa)
#
#
# Indices 1 2 3 4 5 6 
#
# 1 0.023695 -0.004211 -0.006780 0.000000 0.000000 0.000000
# 2 -0.004211 0.011206 -0.004245 0.000000 0.000000 0.000000
# 3 -0.006780 -0.004245 0.017916 0.000000 0.000000 0.000000
# 4 0.000000 0.000000 0.000000 0.056860 0.000000 0.000000
# 5 0.000000 0.000000 0.000000 0.000000 0.057717 0.000000
# 6 0.000000 0.000000 0.000000 0.000000 0.000000 0.052779
#
#
# Mechanical properties :
#
#
# Convention : Reuss Voigt Hill
#
# Bulk Modulus (GPa) = 44.75547 49.96170 47.35859
# Shear Modulus (GPa) = 19.37284 20.64145 20.00715
#
# Velocity S-wave (km/s) = 3.32745 3.43467 3.38148
# Velocity P-wave (km/s) = 6.35146 6.65456 6.50478
#
# Compressibility (1/GPa) = 0.02234364
#
# Stress axis : x y z
#
# Youngs Moduli (GPa) = 42.20332 89.23551 55.81710
#
# Poissons Ratio (x) = 0.37579 0.37843
# Poissons Ratio (y) = 0.17773 0.23697
# Poissons Ratio (z) = 0.28613 0.37884
#
# Static dielectric constant tensor:
#      x y z
#    x 3.171230 0.000000 0.000000 
#    y 0.000000 3.658050 0.000000 
#    z 0.000000 0.000000 3.072760 
# 
# 
# High freq. dielectric constant tensor:
#      x y z
#    x 1.656530 0.000000 0.000000 
#    y 0.000000 1.702130 0.000000 
#    z 0.000000 0.000000 1.649430 
# 
# From -- ./inp_files/64139.got.cif
#   From: 2010.03.12/outbox.cif.g09.slc.cpg/sg65_33_cif.got.tgz:64139.got - 2010.04.10 20:52:16.
