data_PCOD8268944
_publ_section_title
;
Structure prediction by ZEFSAII (Michael W. Deem and Ramdas Pophale) SiO2 
 PCOD8268944
Probable space group: C M M M
;
_chemical_formula_sum "Si O2"
_cell_formula_units_Z 88
_cell_length_a 9.179275
_cell_length_b 22.065190
_cell_length_c 24.725424
_cell_angle_alpha 90.000000
_cell_angle_beta 90.000000
_cell_angle_gamma 90.000000
_cell_volume 5007.947879
_symmetry_space_group_name_H-M "C M M M"
_symmetry_group_IT_number 65
_symmetry_cell_setting 'orthorhombic'
loop_
_space_group_symop_operation_xyz
x,y,z
-x,-y,z
x,-y,-z
-x,y,-z
-x,-y,-z
x,y,-z
-x,y,z
x,-y,z
1/2+x,1/2+y,z
1/2-x,1/2-y,z
1/2+x,1/2-y,-z
1/2-x,1/2+y,-z
1/2-x,1/2-y,-z
1/2+x,1/2+y,-z
1/2-x,1/2+y,z
1/2+x,1/2-y,z
loop_
_atom_site_type_symbol
_atom_site_label
_atom_site_fract_x
_atom_site_fract_y
_atom_site_fract_z
Si Si1 0.829644 0.810029 0.301906
Si Si2 0.829291 0.500000 0.559625
Si Si3 0.671640 0.429780 0.892233
Si Si4 0.338388 0.071034 0.000000
Si Si5 0.670523 0.188521 0.500000
Si Si6 0.669999 0.312214 0.822930
Si Si7 0.170472 0.622559 0.608891
O O1 0.750000 0.750000 0.322395
O O2 0.792551 0.823246 0.239652
O O3 0.765479 0.862727 0.338662
O O4 0.000000 0.802627 0.311810
O O5 0.753870 0.500000 0.500000
O O6 0.783493 0.445270 0.597109
O O7 0.000000 0.500000 0.548305
O O8 0.500000 0.428238 0.902167
O O9 0.715240 0.500000 0.874621
O O10 0.718730 0.376161 0.850608
O O11 0.750107 0.409287 0.947110
O O12 0.500000 0.101113 0.000000
O O13 0.356340 0.000000 0.000000
O O14 0.500000 0.197327 0.500000
O O15 0.750000 0.250000 0.500000
O O16 0.720372 0.156131 0.554615
O O17 0.500000 0.300503 0.832830
O O18 0.750000 0.250000 0.843593
O O19 0.000000 0.632237 0.621595
#
# Coordination Sequence:
#
# PCOD8268944 Si02
#       7
#    16   8  16   8   8  16  16
#     4  10  20  35  53  75 101 131 166 206 252 299
#     4   9  16  32  55  73  95 129 165 196 239 300
#     4   9  17  32  54  77 102 136 177 213 249 301
#     4   9  17  29  48  77 110 139 169 211 260 299
#     4  10  20  31  47  71  95 120 155 200 245 288
#     4   9  19  35  54  76 102 137 174 211 257 304
#     4  10  19  33  53  74  96 127 164 202 244 296
#
# _framework density 17.572067000000001
#
# number of rings (size 3 to 8) (size 9 to 14) (size 15 to 20)
#    0.000    2.545    0.909    1.364    0.000    4.727 
#    1.636    0.909    0.000    0.545    0.000    0.000 
#    0.000    0.000    0.000    0.000    0.000    0.000 
#
# Total GULP energy -545168.863339 kJ/mol
# GULP energy per Si atom -12390.201440 kJ/mol
# Density = 1.753207 g / cm^3
# Si number density = 17.572067 Si / 1000 Ang^3
#
#
#
# Elastic Constant Matrix: (Units=GPa)
#
#
# Indices 1 2 3 4 5 6 
#
# 1 50.2527 43.4011 45.1595 0.0000 0.0000 0.0000
# 2 43.4011 146.3519 70.3127 0.0000 0.0000 0.0000
# 3 45.1595 70.3127 103.6413 0.0000 0.0000 0.0000
# 4 0.0000 0.0000 0.0000 29.5833 0.0000 0.0000
# 5 0.0000 0.0000 0.0000 0.0000 25.8295 0.0000
# 6 0.0000 0.0000 0.0000 0.0000 0.0000 22.1093
#
#
#
# Elastic Compliance Matrix: (Units=1/GPa)
#
#
# Indices 1 2 3 4 5 6 
#
# 1 0.034573 -0.004473 -0.012030 0.000000 0.000000 0.000000
# 2 -0.004473 0.010716 -0.005321 0.000000 0.000000 0.000000
# 3 -0.012030 -0.005321 0.018500 0.000000 0.000000 0.000000
# 4 0.000000 0.000000 0.000000 0.033803 0.000000 0.000000
# 5 0.000000 0.000000 0.000000 0.000000 0.038715 0.000000
# 6 0.000000 0.000000 0.000000 0.000000 0.000000 0.045230
#
#
# Mechanical properties :
#
#
# Convention : Reuss Voigt Hill
#
# Bulk Modulus (GPa) = 49.64847 68.66583 59.15715
# Shear Modulus (GPa) = 21.56118 24.92928 23.24523
#
# Velocity S-wave (km/s) = 3.50668 3.77063 3.64105
# Velocity P-wave (km/s) = 6.68665 7.62354 7.17041
#
# Compressibility (1/GPa) = 0.02014161
#
# Stress axis : x y z
#
# Youngs Moduli (GPa) = 28.92403 93.32185 54.05404
#
# Poissons Ratio (x) = 0.41745 0.65026
# Poissons Ratio (y) = 0.12938 0.28760
# Poissons Ratio (z) = 0.34795 0.49653
#
# Static dielectric constant tensor:
#      x y z
#    x 3.215900 0.000000 0.000000 
#    y 0.000000 3.335570 0.000000 
#    z 0.000000 0.000000 3.286200 
# 
# 
# High freq. dielectric constant tensor:
#      x y z
#    x 1.668010 0.000000 0.000000 
#    y 0.000000 1.679490 0.000000 
#    z 0.000000 0.000000 1.677540 
# 
# From -- ./inp_files/59947.got.cif
#   From: 2010.03.12/outbox.cif.g09.slc.cpg/sg65_30_cif.got.tgz:59947.got - 2010.04.10 20:52:16.
