data_PCOD8268211
_publ_section_title
;
Structure prediction by ZEFSAII (Michael W. Deem and Ramdas Pophale) SiO2 
 PCOD8268211
Probable space group: C M M M
;
_chemical_formula_sum "Si O2"
_cell_formula_units_Z 88
_cell_length_a 20.863890
_cell_length_b 23.537723
_cell_length_c 9.450545
_cell_angle_alpha 90.000000
_cell_angle_beta 90.000000
_cell_angle_gamma 90.000000
_cell_volume 4641.053623
_symmetry_space_group_name_H-M "C M M M"
_symmetry_group_IT_number 65
_symmetry_cell_setting 'orthorhombic'
loop_
_space_group_symop_operation_xyz
x,y,z
-x,-y,z
x,-y,-z
-x,y,-z
-x,-y,-z
x,y,-z
-x,y,z
x,-y,z
1/2+x,1/2+y,z
1/2-x,1/2-y,z
1/2+x,1/2-y,-z
1/2-x,1/2+y,-z
1/2-x,1/2-y,-z
1/2+x,1/2+y,-z
1/2-x,1/2+y,z
1/2+x,1/2-y,z
loop_
_atom_site_type_symbol
_atom_site_label
_atom_site_fract_x
_atom_site_fract_y
_atom_site_fract_z
Si Si1 0.070047 0.825494 0.665256
Si Si2 0.822004 0.257627 0.666771
Si Si3 0.632842 0.883114 0.665943
Si Si4 0.500000 0.935934 0.333298
Si Si5 0.859906 0.064452 0.337386
Si Si6 0.741630 0.066193 0.843690
O O1 0.067698 0.811198 0.500000
O O2 0.127865 0.788198 0.732567
O O3 0.081273 0.892849 0.689655
O O4 0.000000 0.810622 0.731646
O O5 0.817055 0.248408 0.500000
O O6 0.750000 0.250000 0.731523
O O7 0.850880 0.318625 0.705968
O O8 0.643530 0.894796 0.500000
O O9 0.561272 0.899264 0.714765
O O10 0.677813 0.923694 0.755797
O O11 0.500000 0.942506 0.500000
O O12 0.500000 0.000000 0.267123
O O13 0.837011 0.067093 0.500000
O O14 0.802044 0.089423 0.243917
O O15 0.880468 0.000000 0.296862
O O16 0.750910 0.000000 0.861500
O O17 0.738754 0.094733 0.000000
#
# Coordination Sequence:
#
# PCOD8268211 Si02
#       6
#    16  16  16   8  16  16
#     4   9  17  28  46  74 107 135 163 207 256 299
#     4   9  17  28  45  71 102 133 167 206 251 302
#     4  10  19  31  51  73  99 133 169 210 256 306
#     4   9  18  30  45  71 101 127 162 208 254 301
#     4   9  17  30  50  75 101 131 167 205 249 299
#     4  10  20  33  50  73 100 130 167 211 257 303
#
# _framework density 18.961213000000001
#
# number of rings (size 3 to 8) (size 9 to 14) (size 15 to 20)
#    0.000    2.636    0.000    2.182    1.273    5.091 
#    0.000    2.273    0.000    7.091    0.000    2.545 
#    0.000    0.000    0.000    0.000    0.000    0.000 
#
# Total GULP energy -545315.928945 kJ/mol
# GULP energy per Si atom -12393.543840 kJ/mol
# Density = 1.891806 g / cm^3
# Si number density = 18.961213 Si / 1000 Ang^3
#
#
#
# Elastic Constant Matrix: (Units=GPa)
#
#
# Indices 1 2 3 4 5 6 
#
# 1 175.0552 68.9676 24.3841 0.0000 0.0000 0.0000
# 2 68.9676 86.1058 15.1340 0.0000 0.0000 0.0000
# 3 24.3841 15.1340 40.6856 0.0000 0.0000 0.0000
# 4 0.0000 0.0000 0.0000 8.8602 0.0000 0.0000
# 5 0.0000 0.0000 0.0000 0.0000 2.0154 0.0000
# 6 0.0000 0.0000 0.0000 0.0000 0.0000 32.6622
#
#
#
# Elastic Compliance Matrix: (Units=1/GPa)
#
#
# Indices 1 2 3 4 5 6 
#
# 1 0.008631 -0.006424 -0.002783 0.000000 0.000000 0.000000
# 2 -0.006424 0.017207 -0.002551 0.000000 0.000000 0.000000
# 3 -0.002783 -0.002551 0.027196 0.000000 0.000000 0.000000
# 4 0.000000 0.000000 0.000000 0.112864 0.000000 0.000000
# 5 0.000000 0.000000 0.000000 0.000000 0.496185 0.000000
# 6 0.000000 0.000000 0.000000 0.000000 0.000000 0.030616
#
#
# Mechanical properties :
#
#
# Convention : Reuss Voigt Hill
#
# Bulk Modulus (GPa) = 33.87735 57.64642 45.76189
# Shear Modulus (GPa) = 6.88654 21.59829 14.24242
#
# Velocity S-wave (km/s) = 1.90782 3.37868 2.74366
# Velocity P-wave (km/s) = 4.77059 6.75936 5.85011
#
# Compressibility (1/GPa) = 0.02951824
#
# Stress axis : x y z
#
# Youngs Moduli (GPa) = 115.86033 58.11493 36.77063
#
# Poissons Ratio (x) = 0.37333 0.10234
# Poissons Ratio (y) = 0.74429 0.09379
# Poissons Ratio (z) = 0.32248 0.14823
#
# Static dielectric constant tensor:
#      x y z
#    x 3.736020 0.000000 0.000000 
#    y 0.000000 3.511200 0.000000 
#    z 0.000000 0.000000 3.200860 
# 
# 
# High freq. dielectric constant tensor:
#      x y z
#    x 1.744960 0.000000 0.000000 
#    y 0.000000 1.741310 0.000000 
#    z 0.000000 0.000000 1.673190 
# 
# From -- ./inp_files/11719.got.cif
#   From: 2010.03.12/outbox.cif.g09.slc.cpg/sg65_6_cif.got.tgz:11719.got - 2010.04.10 20:52:16.
