data_PCOD8268350
_publ_section_title
;
Structure prediction by ZEFSAII (Michael W. Deem and Ramdas Pophale) SiO2 
 PCOD8268350
Probable space group: C M M M
;
_chemical_formula_sum "Si O2"
_cell_formula_units_Z 88
_cell_length_a 9.117913
_cell_length_b 31.653104
_cell_length_c 16.704837
_cell_angle_alpha 90.000000
_cell_angle_beta 90.000000
_cell_angle_gamma 90.000000
_cell_volume 4821.187157
_symmetry_space_group_name_H-M "C M M M"
_symmetry_group_IT_number 65
_symmetry_cell_setting 'orthorhombic'
loop_
_space_group_symop_operation_xyz
x,y,z
-x,-y,z
x,-y,-z
-x,y,-z
-x,-y,-z
x,y,-z
-x,y,z
x,-y,z
1/2+x,1/2+y,z
1/2-x,1/2-y,z
1/2+x,1/2-y,-z
1/2-x,1/2+y,-z
1/2-x,1/2-y,-z
1/2+x,1/2+y,-z
1/2-x,1/2+y,z
1/2+x,1/2-y,z
loop_
_atom_site_type_symbol
_atom_site_label
_atom_site_fract_x
_atom_site_fract_y
_atom_site_fract_z
Si Si1 0.328230 0.792711 0.907108
Si Si2 0.831141 0.630271 0.800108
Si Si3 0.327196 0.706321 0.500000
Si Si4 0.331892 0.150375 0.619706
Si Si5 0.665684 0.569414 0.586439
Si Si6 0.669586 0.453957 0.761618
O O1 0.500000 0.787056 0.890257
O O2 0.250000 0.750000 0.875275
O O3 0.268849 0.835015 0.862693
O O4 0.292281 0.799377 0.000000
O O5 0.807382 0.651475 0.714336
O O6 0.752483 0.584630 0.804894
O O7 0.000000 0.620685 0.818302
O O8 0.500000 0.710792 0.500000
O O9 0.250000 0.750000 0.500000
O O10 0.275394 0.684238 0.418731
O O11 0.500000 0.159695 0.596618
O O12 0.286705 0.105632 0.583765
O O13 0.679716 0.544907 0.500000
O O14 0.500000 0.588176 0.593220
O O15 0.697445 0.542029 0.665555
O O16 0.500000 0.446297 0.779897
O O17 0.719567 0.500000 0.796081
#
# Coordination Sequence:
#
# PCOD8268350 Si02
#       6
#    16  16   8  16  16  16
#     4   9  18  34  56  82 110 135 162 201 250 307
#     4   9  19  34  53  77 104 136 170 205 253 307
#     4  12  24  36  48  64  89 124 167 210 254 299
#     4  10  19  32  48  67  93 125 163 206 249 294
#     4   9  16  27  45  66  90 124 164 206 254 303
#     4   9  18  31  47  71 102 136 176 218 258 301
#
# _framework density 18.252766000000001
#
# number of rings (size 3 to 8) (size 9 to 14) (size 15 to 20)
#    0.000    2.545    0.909    1.364    0.000    2.909 
#    0.000    3.636    0.000    0.545    0.000    8.909 
#    0.000    0.000    0.000    0.000    0.000    0.000 
#
# Total GULP energy -545139.706668 kJ/mol
# GULP energy per Si atom -12389.538788 kJ/mol
# Density = 1.821122 g / cm^3
# Si number density = 18.252766 Si / 1000 Ang^3
#
#
#
# Elastic Constant Matrix: (Units=GPa)
#
#
# Indices 1 2 3 4 5 6 
#
# 1 88.5506 62.8864 26.4976 0.0000 0.0000 0.0000
# 2 62.8864 160.2105 53.5290 0.0000 0.0000 0.0000
# 3 26.4976 53.5290 63.4511 0.0000 0.0000 0.0000
# 4 0.0000 0.0000 0.0000 16.0333 0.0000 0.0000
# 5 0.0000 0.0000 0.0000 0.0000 17.8715 0.0000
# 6 0.0000 0.0000 0.0000 0.0000 0.0000 29.0130
#
#
#
# Elastic Compliance Matrix: (Units=1/GPa)
#
#
# Indices 1 2 3 4 5 6 
#
# 1 0.015821 -0.005574 -0.001905 0.000000 0.000000 0.000000
# 2 -0.005574 0.010655 -0.006661 0.000000 0.000000 0.000000
# 3 -0.001905 -0.006661 0.022175 0.000000 0.000000 0.000000
# 4 0.000000 0.000000 0.000000 0.062370 0.000000 0.000000
# 5 0.000000 0.000000 0.000000 0.000000 0.055955 0.000000
# 6 0.000000 0.000000 0.000000 0.000000 0.000000 0.034467
#
#
# Mechanical properties :
#
#
# Convention : Reuss Voigt Hill
#
# Bulk Modulus (GPa) = 49.08742 66.44869 57.76806
# Shear Modulus (GPa) = 21.14025 23.87017 22.50521
#
# Velocity S-wave (km/s) = 3.40692 3.62021 3.51518
# Velocity P-wave (km/s) = 6.51365 7.34564 6.94212
#
# Compressibility (1/GPa) = 0.02037182
#
# Stress axis : x y z
#
# Youngs Moduli (GPa) = 63.20569 93.84958 45.09487
#
# Poissons Ratio (x) = 0.52310 0.08590
# Poissons Ratio (y) = 0.35230 0.30040
# Poissons Ratio (z) = 0.12040 0.62518
#
# Static dielectric constant tensor:
#      x y z
#    x 3.346300 0.000000 0.000000 
#    y 0.000000 3.291140 0.000000 
#    z 0.000000 0.000000 3.212120 
# 
# 
# High freq. dielectric constant tensor:
#      x y z
#    x 1.703340 0.000000 0.000000 
#    y 0.000000 1.702500 0.000000 
#    z 0.000000 0.000000 1.687410 
# 
# From -- ./inp_files/50350.got.cif
#   From: 2010.03.12/outbox.cif.g09.slc.cpg/sg65_26_cif.got.tgz:50350.got - 2010.04.10 20:52:16.
