data_PCOD8268801
_publ_section_title
;
Structure prediction by ZEFSAII (Michael W. Deem and Ramdas Pophale) SiO2 
 PCOD8268801
Probable space group: C M M M
;
_chemical_formula_sum "Si O2"
_cell_formula_units_Z 104
_cell_length_a 23.460538
_cell_length_b 26.418882
_cell_length_c 8.932851
_cell_angle_alpha 90.000000
_cell_angle_beta 90.000000
_cell_angle_gamma 90.000000
_cell_volume 5536.591636
_symmetry_space_group_name_H-M "C M M M"
_symmetry_group_IT_number 65
_symmetry_cell_setting 'orthorhombic'
loop_
_space_group_symop_operation_xyz
x,y,z
-x,-y,z
x,-y,-z
-x,y,-z
-x,-y,-z
x,y,-z
-x,y,z
x,-y,z
1/2+x,1/2+y,z
1/2-x,1/2-y,z
1/2+x,1/2-y,-z
1/2-x,1/2+y,-z
1/2-x,1/2-y,-z
1/2+x,1/2+y,-z
1/2-x,1/2+y,z
1/2+x,1/2-y,z
loop_
_atom_site_type_symbol
_atom_site_label
_atom_site_fract_x
_atom_site_fract_y
_atom_site_fract_z
Si Si1 0.937669 0.559154 0.336702
Si Si2 0.434647 0.210766 0.176934
Si Si3 0.066769 0.000000 0.333214
Si Si4 0.125823 0.909030 0.177555
Si Si5 0.144718 0.378814 0.172209
Si Si6 0.934630 0.182616 0.675762
Si Si7 0.751038 0.557718 0.821869
O O1 0.912764 0.575853 0.500000
O O2 0.942959 0.500000 0.329720
O O3 0.899170 0.575863 0.198683
O O4 0.000000 0.583549 0.316436
O O5 0.500000 0.193043 0.211374
O O6 0.386655 0.171148 0.239740
O O7 0.420871 0.261976 0.263388
O O8 0.427358 0.219205 0.000000
O O9 0.083707 0.950503 0.242737
O O10 0.094201 0.000000 0.500000
O O11 0.000000 0.000000 0.349258
O O12 0.108606 0.854820 0.241955
O O13 0.189389 0.923161 0.229982
O O14 0.120433 0.908287 0.000000
O O15 0.204164 0.400070 0.242739
O O16 0.154870 0.368328 0.000000
O O17 0.922787 0.180877 0.500000
O O18 0.000000 0.167558 0.711900
O O19 0.761799 0.500000 0.760994
O O20 0.755838 0.556134 0.000000
#
# Coordination Sequence:
#
# PCOD8268801 Si02
#       7
#    16  16   8  16  16  16  16
#     4   9  18  31  45  66 101 139 173 217 274 332
#     4   9  18  33  53  80 110 138 176 225 274 326
#     4  11  23  37  55  83 117 145 174 219 270 323
#     4  11  21  36  58  82 110 146 183 220 266 322
#     4  10  19  32  54  79 103 136 181 231 273 312
#     4  10  21  37  57  81 109 141 176 219 275 331
#     4   9  18  34  54  78 109 144 182 224 268 317
#
# _framework density 18.784119
#
# number of rings (size 3 to 8) (size 9 to 14) (size 15 to 20)
#    0.000    2.231    0.769    3.000    0.000    5.846 
#    0.000    4.615    0.000    4.615    0.000    0.000 
#    0.000    0.000    0.000    0.000    0.000    0.000 
#
# Total GULP energy -644313.952049 kJ/mol
# GULP energy per Si atom -12390.652924 kJ/mol
# Density = 1.874137 g / cm^3
# Si number density = 18.784119 Si / 1000 Ang^3
#
#
#
# Elastic Constant Matrix: (Units=GPa)
#
#
# Indices 1 2 3 4 5 6 
#
# 1 108.6576 75.3488 30.4492 0.0000 0.0000 0.0000
# 2 75.3488 116.6543 40.6169 0.0000 0.0000 0.0000
# 3 30.4492 40.6169 43.4031 0.0000 0.0000 0.0000
# 4 0.0000 0.0000 0.0000 15.0345 0.0000 0.0000
# 5 0.0000 0.0000 0.0000 0.0000 15.3898 0.0000
# 6 0.0000 0.0000 0.0000 0.0000 0.0000 33.5780
#
#
#
# Elastic Compliance Matrix: (Units=1/GPa)
#
#
# Indices 1 2 3 4 5 6 
#
# 1 0.016840 -0.010033 -0.002425 0.000000 0.000000 0.000000
# 2 -0.010033 0.018693 -0.010454 0.000000 0.000000 0.000000
# 3 -0.002425 -0.010454 0.034524 0.000000 0.000000 0.000000
# 4 0.000000 0.000000 0.000000 0.066514 0.000000 0.000000
# 5 0.000000 0.000000 0.000000 0.000000 0.064978 0.000000
# 6 0.000000 0.000000 0.000000 0.000000 0.000000 0.029781
#
#
# Mechanical properties :
#
#
# Convention : Reuss Voigt Hill
#
# Bulk Modulus (GPa) = 41.26693 62.39389 51.83041
# Shear Modulus (GPa) = 17.52951 20.95378 19.24165
#
# Velocity S-wave (km/s) = 3.05816 3.34354 3.20403
# Velocity P-wave (km/s) = 5.87252 6.94220 6.42964
#
# Compressibility (1/GPa) = 0.02423248
#
# Stress axis : x y z
#
# Youngs Moduli (GPa) = 59.38176 53.49676 28.96495
#
# Poissons Ratio (x) = 0.53673 0.07025
# Poissons Ratio (y) = 0.59577 0.30281
# Poissons Ratio (z) = 0.14402 0.55927
#
# Static dielectric constant tensor:
#      x y z
#    x 3.640610 0.000000 0.000000 
#    y 0.000000 3.448480 0.000000 
#    z 0.000000 0.000000 3.366280 
# 
# 
# High freq. dielectric constant tensor:
#      x y z
#    x 1.725410 0.000000 0.000000 
#    y 0.000000 1.730770 0.000000 
#    z 0.000000 0.000000 1.713620 
# 
# From -- ./inp_files/14771.got.cif
#   From: 2010.03.12/outbox.cif.g09.slc.cpg/sg65_8_cif.got.tgz:14771.got - 2010.04.10 20:52:16.
