data_PCOD8268611
_publ_section_title
;
Structure prediction by ZEFSAII (Michael W. Deem and Ramdas Pophale) SiO2 
 PCOD8268611
Probable space group: C M M M
;
_chemical_formula_sum "Si O2"
_cell_formula_units_Z 88
_cell_length_a 14.817227
_cell_length_b 17.642230
_cell_length_c 17.361637
_cell_angle_alpha 90.000000
_cell_angle_beta 90.000000
_cell_angle_gamma 90.000000
_cell_volume 4538.486894
_symmetry_space_group_name_H-M "C M M M"
_symmetry_group_IT_number 65
_symmetry_cell_setting 'orthorhombic'
loop_
_space_group_symop_operation_xyz
x,y,z
-x,-y,z
x,-y,-z
-x,y,-z
-x,-y,-z
x,y,-z
-x,y,z
x,-y,z
1/2+x,1/2+y,z
1/2-x,1/2-y,z
1/2+x,1/2-y,-z
1/2-x,1/2+y,-z
1/2-x,1/2-y,-z
1/2+x,1/2+y,-z
1/2-x,1/2+y,z
1/2+x,1/2-y,z
loop_
_atom_site_type_symbol
_atom_site_label
_atom_site_fract_x
_atom_site_fract_y
_atom_site_fract_z
Si Si1 0.723355 0.667504 0.871697
Si Si2 0.732726 0.587835 0.412860
Si Si3 0.898620 0.411892 0.178518
Si Si4 0.902492 0.348267 0.342386
Si Si5 0.605853 0.589784 0.000000
Si Si6 0.835244 0.800771 0.298293
O O1 0.750000 0.750000 0.903465
O O2 0.819516 0.624881 0.871760
O O3 0.652701 0.624799 0.925189
O O4 0.671402 0.672591 0.789927
O O5 0.697667 0.597878 0.500000
O O6 0.742020 0.500000 0.390780
O O7 0.829372 0.630049 0.406668
O O8 0.660716 0.626243 0.354479
O O9 0.896567 0.500000 0.161514
O O10 0.874587 0.395806 0.267006
O O11 0.000000 0.380215 0.158730
O O12 0.914033 0.259097 0.317741
O O13 0.000000 0.374103 0.373755
O O14 0.619875 0.500000 0.000000
O O15 0.500000 0.610918 0.000000
O O16 0.750000 0.750000 0.320585
#
# Coordination Sequence:
#
# PCOD8268611 Si02
#       6
#    16  16  16  16   8  16
#     4  11  20  39  63  86 112 149 195 234 284 342
#     4  10  20  33  51  78 111 147 188 231 278 332
#     4  10  19  32  55  86 116 145 180 226 280 339
#     4  10  19  32  51  79 112 143 181 228 279 332
#     4  11  27  44  59  85 119 153 188 237 290 336
#     4   9  18  34  55  80 106 144 190 229 271 329
#
# _framework density 19.389721999999999
#
# number of rings (size 3 to 8) (size 9 to 14) (size 15 to 20)
#    0.000    1.909    5.455    1.364    0.000    6.909 
#    0.000    1.364    0.000    2.182    0.000    1.273 
#    0.000    0.000    0.000    0.000    0.000    0.000 
#
# Total GULP energy -545203.699333 kJ/mol
# GULP energy per Si atom -12390.993167 kJ/mol
# Density = 1.934559 g / cm^3
# Si number density = 19.389722 Si / 1000 Ang^3
#
#
#
# Elastic Constant Matrix: (Units=GPa)
#
#
# Indices 1 2 3 4 5 6 
#
# 1 69.1447 38.4756 23.8502 0.0000 0.0000 0.0000
# 2 38.4756 121.7611 54.4918 0.0000 0.0000 0.0000
# 3 23.8502 54.4918 77.3308 0.0000 0.0000 0.0000
# 4 0.0000 0.0000 0.0000 15.4046 0.0000 0.0000
# 5 0.0000 0.0000 0.0000 0.0000 80.2928 0.0000
# 6 0.0000 0.0000 0.0000 0.0000 0.0000 25.0605
#
#
#
# Elastic Compliance Matrix: (Units=1/GPa)
#
#
# Indices 1 2 3 4 5 6 
#
# 1 0.017807 -0.004629 -0.002230 0.000000 0.000000 0.000000
# 2 -0.004629 0.013199 -0.007873 0.000000 0.000000 0.000000
# 3 -0.002230 -0.007873 0.019167 0.000000 0.000000 0.000000
# 4 0.000000 0.000000 0.000000 0.064916 0.000000 0.000000
# 5 0.000000 0.000000 0.000000 0.000000 0.012454 0.000000
# 6 0.000000 0.000000 0.000000 0.000000 0.000000 0.039903
#
#
# Mechanical properties :
#
#
# Convention : Reuss Voigt Hill
#
# Bulk Modulus (GPa) = 48.28842 55.76353 52.02597
# Shear Modulus (GPa) = 24.53204 34.24618 29.38911
#
# Velocity S-wave (km/s) = 3.56084 4.20718 3.89743
# Velocity P-wave (km/s) = 6.47026 7.24032 6.86609
#
# Compressibility (1/GPa) = 0.02070890
#
# Stress axis : x y z
#
# Youngs Moduli (GPa) = 56.15618 75.76365 52.17241
#
# Poissons Ratio (x) = 0.35070 0.11637
# Poissons Ratio (y) = 0.25994 0.41076
# Poissons Ratio (z) = 0.12525 0.59650
#
# Static dielectric constant tensor:
#      x y z
#    x 3.698400 0.000000 0.000000 
#    y 0.000000 3.922440 0.000000 
#    z 0.000000 0.000000 3.289190 
# 
# 
# High freq. dielectric constant tensor:
#      x y z
#    x 1.741020 0.000000 0.000000 
#    y 0.000000 1.764530 0.000000 
#    z 0.000000 0.000000 1.734720 
# 
# From -- ./inp_files/53054.got.cif
#   From: 2010.03.12/outbox.cif.g09.slc.cpg/sg65_27_cif.got.tgz:53054.got - 2010.04.10 20:52:16.
