data_PCOD8268206
_publ_section_title
;
Structure prediction by ZEFSAII (Michael W. Deem and Ramdas Pophale) SiO2 
 PCOD8268206
Probable space group: C M M M
;
_chemical_formula_sum "Si O2"
_cell_formula_units_Z 80
_cell_length_a 17.478972
_cell_length_b 18.558107
_cell_length_c 13.007613
_cell_angle_alpha 90.000000
_cell_angle_beta 90.000000
_cell_angle_gamma 90.000000
_cell_volume 4219.365703
_symmetry_space_group_name_H-M "C M M M"
_symmetry_group_IT_number 65
_symmetry_cell_setting 'orthorhombic'
loop_
_space_group_symop_operation_xyz
x,y,z
-x,-y,z
x,-y,-z
-x,y,-z
-x,-y,-z
x,y,-z
-x,y,z
x,-y,z
1/2+x,1/2+y,z
1/2-x,1/2-y,z
1/2+x,1/2-y,-z
1/2-x,1/2+y,-z
1/2-x,1/2-y,-z
1/2+x,1/2+y,-z
1/2-x,1/2+y,z
1/2+x,1/2-y,z
loop_
_atom_site_type_symbol
_atom_site_label
_atom_site_fract_x
_atom_site_fract_y
_atom_site_fract_z
Si Si1 0.584619 0.178091 0.616072
Si Si2 0.500000 0.085817 0.111867
Si Si3 0.684007 0.306889 0.382925
Si Si4 0.182211 0.083145 0.198102
Si Si5 0.588091 0.585616 0.000000
Si Si6 0.351230 0.082029 0.773550
O O1 0.585149 0.150908 0.500000
O O2 0.500000 0.166144 0.664149
O O3 0.604899 0.262445 0.622409
O O4 0.649847 0.129848 0.670705
O O5 0.578380 0.113899 0.161691
O O6 0.500000 0.000000 0.108551
O O7 0.500000 0.120270 0.000000
O O8 0.698035 0.335795 0.500000
O O9 0.750000 0.250000 0.351335
O O10 0.672542 0.372136 0.303097
O O11 0.130950 0.113676 0.103554
O O12 0.271507 0.089127 0.164790
O O13 0.160468 0.000000 0.221829
O O14 0.592396 0.500000 0.000000
O O15 0.500000 0.612702 0.000000
O O16 0.366714 0.000000 0.741343
#
# Coordination Sequence:
#
# PCOD8268206 Si02
#       6
#    16   8  16  16   8  16
#     4  10  20  34  53  76 108 151 189 224 272 334
#     4   9  18  30  47  71 107 151 181 216 266 316
#     4  10  20  36  56  80 114 154 188 227 281 336
#     4  10  21  36  60  88 112 144 190 241 287 343
#     4   9  20  40  63  85 111 147 189 241 305 355
#     4  10  19  31  50  80 112 144 186 229 267 323
#
# _framework density 18.960196
#
# number of rings (size 3 to 8) (size 9 to 14) (size 15 to 20)
#    0.000    2.200    3.000    0.000    1.400    1.600 
#    0.000    3.500    2.200    0.000    0.000    5.600 
#    0.000    0.000    0.000    0.000    0.000    0.000 
#
# Total GULP energy -495674.172782 kJ/mol
# GULP energy per Si atom -12391.854320 kJ/mol
# Density = 1.891704 g / cm^3
# Si number density = 18.960196 Si / 1000 Ang^3
#
#
#
# Elastic Constant Matrix: (Units=GPa)
#
#
# Indices 1 2 3 4 5 6 
#
# 1 115.5165 28.3510 57.2807 0.0000 0.0000 0.0000
# 2 28.3510 58.3680 54.2622 0.0000 0.0000 0.0000
# 3 57.2807 54.2622 126.2737 0.0000 0.0000 0.0000
# 4 0.0000 0.0000 0.0000 15.7527 0.0000 0.0000
# 5 0.0000 0.0000 0.0000 0.0000 30.5074 0.0000
# 6 0.0000 0.0000 0.0000 0.0000 0.0000 20.8788
#
#
#
# Elastic Compliance Matrix: (Units=1/GPa)
#
#
# Indices 1 2 3 4 5 6 
#
# 1 0.011219 -0.001196 -0.004575 0.000000 0.000000 0.000000
# 2 -0.001196 0.028658 -0.011772 0.000000 0.000000 0.000000
# 3 -0.004575 -0.011772 0.015054 0.000000 0.000000 0.000000
# 4 0.000000 0.000000 0.000000 0.063481 0.000000 0.000000
# 5 0.000000 0.000000 0.000000 0.000000 0.032779 0.000000
# 6 0.000000 0.000000 0.000000 0.000000 0.000000 0.047895
#
#
# Mechanical properties :
#
#
# Convention : Reuss Voigt Hill
#
# Bulk Modulus (GPa) = 50.39492 64.43845 57.41669
# Shear Modulus (GPa) = 20.76522 24.11206 22.43864
#
# Velocity S-wave (km/s) = 3.31297 3.56999 3.44388
# Velocity P-wave (km/s) = 6.42428 7.14514 6.79428
#
# Compressibility (1/GPa) = 0.01984327
#
# Stress axis : x y z
#
# Youngs Moduli (GPa) = 89.13427 34.89464 66.42966
#
# Poissons Ratio (x) = 0.04173 0.30393
# Poissons Ratio (y) = 0.10660 0.78203
# Poissons Ratio (z) = 0.40781 0.41079
#
# Static dielectric constant tensor:
#      x y z
#    x 3.742250 0.000000 0.000000 
#    y 0.000000 3.161150 0.000000 
#    z 0.000000 0.000000 3.472420 
# 
# 
# High freq. dielectric constant tensor:
#      x y z
#    x 1.749730 0.000000 0.000000 
#    y 0.000000 1.703590 0.000000 
#    z 0.000000 0.000000 1.730290 
# 
# From -- ./inp_files/26713.got.cif
#   From: 2010.03.12/outbox.cif.g09.slc.cpg/sg65_14_cif.got.tgz:26713.got - 2010.04.10 20:52:16.
