data_PCOD8268421
_publ_section_title
;
Structure prediction by ZEFSAII (Michael W. Deem and Ramdas Pophale) SiO2 
 PCOD8268421
Probable space group: C M M M
;
_chemical_formula_sum "Si O2"
_cell_formula_units_Z 56
_cell_length_a 8.783133
_cell_length_b 14.641204
_cell_length_c 22.323000
_cell_angle_alpha 90.000000
_cell_angle_beta 90.000000
_cell_angle_gamma 90.000000
_cell_volume 2870.640517
_symmetry_space_group_name_H-M "C M M M"
_symmetry_group_IT_number 65
_symmetry_cell_setting 'orthorhombic'
loop_
_space_group_symop_operation_xyz
x,y,z
-x,-y,z
x,-y,-z
-x,y,-z
-x,-y,-z
x,y,-z
-x,y,z
x,-y,z
1/2+x,1/2+y,z
1/2-x,1/2-y,z
1/2+x,1/2-y,-z
1/2-x,1/2+y,-z
1/2-x,1/2-y,-z
1/2+x,1/2+y,-z
1/2-x,1/2+y,z
1/2+x,1/2-y,z
loop_
_atom_site_type_symbol
_atom_site_label
_atom_site_fract_x
_atom_site_fract_y
_atom_site_fract_z
Si Si1 0.319514 0.500000 0.774197
Si Si2 0.319988 0.350239 0.000000
Si Si3 0.178331 0.650799 0.564787
Si Si4 0.680277 0.650419 0.682831
Si Si5 0.318959 0.500000 0.907659
O O1 0.500000 0.500000 0.778472
O O2 0.264615 0.410214 0.738756
O O3 0.248100 0.500000 0.840853
O O4 0.250000 0.250000 0.000000
O O5 0.264996 0.408017 0.058126
O O6 0.500000 0.339189 0.000000
O O7 0.206018 0.601215 0.500000
O O8 0.250000 0.750000 0.560939
O O9 0.258605 0.601953 0.621388
O O10 0.000000 0.658292 0.578113
O O11 0.500000 0.656597 0.679064
O O12 0.750000 0.750000 0.691908
O O13 0.500000 0.500000 0.905962
#
# Coordination Sequence:
#
# PCOD8268421 Si02
#       5
#     8   8  16  16   8
#     4   9  19  34  51  71 100 136 171 202 236 290
#     4   9  17  31  56  82 104 133 167 203 242 284
#     4   9  16  27  45  68  93 123 159 202 252 301
#     4  10  19  32  50  71  95 127 165 206 250 295
#     4   8  16  33  52  73 103 139 171 196 235 294
#
# _framework density 19.507842
#
# number of rings (size 3 to 8) (size 9 to 14) (size 15 to 20)
#    0.000    2.857    0.000    4.286    0.000    2.857 
#    0.000    5.000    0.000    9.429    0.000    0.000 
#    0.000    0.000    0.000    0.000    0.000    0.000 
#
# Total GULP energy -346872.679519 kJ/mol
# GULP energy per Si atom -12388.309983 kJ/mol
# Density = 1.946344 g / cm^3
# Si number density = 19.507842 Si / 1000 Ang^3
#
#
#
# Elastic Constant Matrix: (Units=GPa)
#
#
# Indices 1 2 3 4 5 6 
#
# 1 70.6433 31.7898 44.2308 0.0000 0.0000 0.0000
# 2 31.7898 120.9283 83.1231 0.0000 0.0000 0.0000
# 3 44.2308 83.1231 221.6611 0.0000 0.0000 0.0000
# 4 0.0000 0.0000 0.0000 38.4582 0.0000 0.0000
# 5 0.0000 0.0000 0.0000 0.0000 19.3534 0.0000
# 6 0.0000 0.0000 0.0000 0.0000 0.0000 21.8288
#
#
#
# Elastic Compliance Matrix: (Units=1/GPa)
#
#
# Indices 1 2 3 4 5 6 
#
# 1 0.016880 -0.002859 -0.002296 0.000000 0.000000 0.000000
# 2 -0.002859 0.011625 -0.003789 0.000000 0.000000 0.000000
# 3 -0.002296 -0.003789 0.006390 0.000000 0.000000 0.000000
# 4 0.000000 0.000000 0.000000 0.026002 0.000000 0.000000
# 5 0.000000 0.000000 0.000000 0.000000 0.051671 0.000000
# 6 0.000000 0.000000 0.000000 0.000000 0.000000 0.045811
#
#
# Mechanical properties :
#
#
# Convention : Reuss Voigt Hill
#
# Bulk Modulus (GPa) = 58.79838 81.28002 70.03920
# Shear Modulus (GPa) = 27.48200 32.86734 30.17467
#
# Velocity S-wave (km/s) = 3.75743 4.10912 3.93720
# Velocity P-wave (km/s) = 7.00219 8.01679 7.52660
#
# Compressibility (1/GPa) = 0.01700727
#
# Stress axis : x y z
#
# Youngs Moduli (GPa) = 59.24220 86.01801 156.48359
#
# Poissons Ratio (x) = 0.24594 0.35930
# Poissons Ratio (y) = 0.16938 0.59292
# Poissons Ratio (z) = 0.13602 0.32593
#
# Static dielectric constant tensor:
#      x y z
#    x 3.311290 0.000000 0.000000 
#    y 0.000000 3.451990 0.000000 
#    z 0.000000 0.000000 4.560890 
# 
# 
# High freq. dielectric constant tensor:
#      x y z
#    x 1.736020 0.000000 0.000000 
#    y 0.000000 1.742680 0.000000 
#    z 0.000000 0.000000 1.773890 
# 
# From -- ./inp_files/66687.got.cif
#   From: 2010.03.12/outbox.cif.g09.slc.cpg/sg65_34_cif.got.tgz:66687.got - 2010.04.10 20:52:16.
