data_PCOD8268087
_publ_section_title
;
Structure prediction by ZEFSAII (Michael W. Deem and Ramdas Pophale) SiO2 
 PCOD8268087
Probable space group: C M M M
;
_chemical_formula_sum "Si O2"
_cell_formula_units_Z 104
_cell_length_a 8.899174
_cell_length_b 23.167047
_cell_length_c 28.521255
_cell_angle_alpha 90.000000
_cell_angle_beta 90.000000
_cell_angle_gamma 90.000000
_cell_volume 5880.158188
_symmetry_space_group_name_H-M "C M M M"
_symmetry_group_IT_number 65
_symmetry_cell_setting 'orthorhombic'
loop_
_space_group_symop_operation_xyz
x,y,z
-x,-y,z
x,-y,-z
-x,y,-z
-x,-y,-z
x,y,-z
-x,y,z
x,-y,z
1/2+x,1/2+y,z
1/2-x,1/2-y,z
1/2+x,1/2-y,-z
1/2-x,1/2+y,-z
1/2-x,1/2-y,-z
1/2+x,1/2+y,-z
1/2-x,1/2+y,z
1/2+x,1/2-y,z
loop_
_atom_site_type_symbol
_atom_site_label
_atom_site_fract_x
_atom_site_fract_y
_atom_site_fract_z
Si Si1 0.325336 0.188756 0.450548
Si Si2 0.326400 0.387098 0.731369
Si Si3 0.172629 0.190442 0.821932
Si Si4 0.321646 0.000000 0.767028
Si Si5 0.178079 0.313054 0.651343
Si Si6 0.677335 0.187013 0.000000
Si Si7 0.177948 0.376439 0.094011
Si Si8 0.321822 0.000000 0.873639
O O1 0.282360 0.155157 0.500000
O O2 0.500000 0.201062 0.450028
O O3 0.250000 0.250000 0.451927
O O4 0.284132 0.159493 0.400557
O O5 0.500000 0.399827 0.720736
O O6 0.306051 0.349668 0.777547
O O7 0.237740 0.445707 0.738751
O O8 0.253065 0.355779 0.687582
O O9 0.250000 0.250000 0.808880
O O10 0.251249 0.162621 0.866304
O O11 0.000000 0.201339 0.834501
O O12 0.258724 0.000000 0.820453
O O13 0.500000 0.000000 0.767126
O O14 0.250000 0.250000 0.657089
O O15 0.000000 0.308491 0.660603
O O16 0.750000 0.250000 0.000000
O O17 0.730547 0.149668 0.044548
O O18 0.500000 0.196100 0.000000
O O19 0.235536 0.442719 0.099127
O O20 0.000000 0.373973 0.099654
O O21 0.500000 0.000000 0.872053
#
# Coordination Sequence:
#
# PCOD8268087 Si02
#       8
#    16  16  16   8  16   8  16   8
#     4   8  14  25  42  66  98 136 176 217 261 311
#     4  11  23  37  53  76 106 139 175 219 268 317
#     4  11  23  36  53  77 104 138 175 213 256 309
#     4  11  21  37  60  81 102 135 176 220 264 316
#     4  10  19  31  49  75 108 144 181 221 267 319
#     4  10  22  37  57  81 111 142 173 214 259 312
#     4  10  20  37  58  82 108 138 173 213 260 309
#     4   9  18  34  59  84 105 132 170 215 258 303
#
# _framework density 17.686598
#
# number of rings (size 3 to 8) (size 9 to 14) (size 15 to 20)
#    0.000    2.000    1.538    2.538    0.000    5.846 
#    0.000    1.923    0.000    0.000    0.000    2.154 
#    0.000    4.308    0.000    0.000    0.000    0.000 
#
# Total GULP energy -644441.572574 kJ/mol
# GULP energy per Si atom -12393.107165 kJ/mol
# Density = 1.764634 g / cm^3
# Si number density = 17.686598 Si / 1000 Ang^3
#
#
#
# Elastic Constant Matrix: (Units=GPa)
#
#
# Indices 1 2 3 4 5 6 
#
# 1 62.8604 42.1708 51.1249 0.0000 0.0000 0.0000
# 2 42.1708 108.7732 56.1923 0.0000 0.0000 0.0000
# 3 51.1249 56.1923 155.2774 0.0000 0.0000 0.0000
# 4 0.0000 0.0000 0.0000 69.5599 0.0000 0.0000
# 5 0.0000 0.0000 0.0000 0.0000 40.2404 0.0000
# 6 0.0000 0.0000 0.0000 0.0000 0.0000 74.5690
#
#
#
# Elastic Compliance Matrix: (Units=1/GPa)
#
#
# Indices 1 2 3 4 5 6 
#
# 1 0.025194 -0.006743 -0.005855 0.000000 0.000000 0.000000
# 2 -0.006743 0.013112 -0.002525 0.000000 0.000000 0.000000
# 3 -0.005855 -0.002525 0.009282 0.000000 0.000000 0.000000
# 4 0.000000 0.000000 0.000000 0.014376 0.000000 0.000000
# 5 0.000000 0.000000 0.000000 0.000000 0.024851 0.000000
# 6 0.000000 0.000000 0.000000 0.000000 0.000000 0.013410
#
#
# Mechanical properties :
#
#
# Convention : Reuss Voigt Hill
#
# Bulk Modulus (GPa) = 57.66383 69.54297 63.60340
# Shear Modulus (GPa) = 36.69724 48.70207 42.69965
#
# Velocity S-wave (km/s) = 4.56001 5.25318 4.91882
# Velocity P-wave (km/s) = 7.77167 8.72923 8.26433
#
# Compressibility (1/GPa) = 0.01734189
#
# Stress axis : x y z
#
# Youngs Moduli (GPa) = 39.69269 76.26611 107.74090
#
# Poissons Ratio (x) = 0.51425 0.63081
# Poissons Ratio (y) = 0.26764 0.27204
# Poissons Ratio (z) = 0.23239 0.19257
#
# Static dielectric constant tensor:
#      x y z
#    x 3.313280 0.000000 0.000000 
#    y 0.000000 3.175930 0.000000 
#    z 0.000000 0.000000 4.147010 
# 
# 
# High freq. dielectric constant tensor:
#      x y z
#    x 1.685690 0.000000 0.000000 
#    y 0.000000 1.662940 0.000000 
#    z 0.000000 0.000000 1.701990 
# 
# From -- ./inp_files/76953.got.cif
#   From: 2010.03.12/outbox.cif.g09.slc.cpg/sg65_39_cif.got.tgz:76953.got - 2010.04.10 20:52:16.
