data_PCOD8268222
_publ_section_title
;
Structure prediction by ZEFSAII (Michael W. Deem and Ramdas Pophale) SiO2 
 PCOD8268222
Probable space group: C M M M
;
_chemical_formula_sum "Si O2"
_cell_formula_units_Z 80
_cell_length_a 9.142866
_cell_length_b 18.825506
_cell_length_c 25.664254
_cell_angle_alpha 90.000000
_cell_angle_beta 90.000000
_cell_angle_gamma 90.000000
_cell_volume 4417.307755
_symmetry_space_group_name_H-M "C M M M"
_symmetry_group_IT_number 65
_symmetry_cell_setting 'orthorhombic'
loop_
_space_group_symop_operation_xyz
x,y,z
-x,-y,z
x,-y,-z
-x,y,-z
-x,-y,-z
x,y,-z
-x,y,z
x,-y,z
1/2+x,1/2+y,z
1/2-x,1/2-y,z
1/2+x,1/2-y,-z
1/2-x,1/2+y,-z
1/2-x,1/2-y,-z
1/2+x,1/2+y,-z
1/2-x,1/2+y,z
1/2+x,1/2-y,z
loop_
_atom_site_type_symbol
_atom_site_label
_atom_site_fract_x
_atom_site_fract_y
_atom_site_fract_z
Si Si1 0.337471 0.915798 0.500000
Si Si2 0.173247 0.920539 0.096679
Si Si3 0.169042 0.583708 0.387521
Si Si4 0.174036 0.826155 0.000000
Si Si5 0.170834 0.178346 0.188327
Si Si6 0.671540 0.677938 0.692936
O O1 0.500000 0.884395 0.500000
O O2 0.266272 0.891611 0.444728
O O3 0.345792 0.000000 0.500000
O O4 0.223313 0.885977 0.151452
O O5 0.000000 0.926388 0.093814
O O6 0.240870 0.000000 0.092369
O O7 0.228786 0.870704 0.049934
O O8 0.180971 0.500000 0.381728
O O9 0.269975 0.615527 0.343030
O O10 0.000000 0.607779 0.381295
O O11 0.250000 0.750000 0.000000
O O12 0.000000 0.815100 0.000000
O O13 0.250000 0.250000 0.170463
O O14 0.210962 0.158044 0.247554
O O15 0.000000 0.192788 0.181649
O O16 0.500000 0.687500 0.684907
O O17 0.750000 0.750000 0.675846
#
# Coordination Sequence:
#
# PCOD8268222 Si02
#       6
#     8  16  16   8  16  16
#     4   7  12  26  48  71  94 123 157 191 234 289
#     4   9  17  30  49  73  98 124 158 198 237 278
#     4   9  17  31  52  75  98 125 158 197 241 290
#     4  10  19  31  51  75  97 126 162 198 234 278
#     4   9  18  32  50  69  92 125 160 196 237 283
#     4  10  20  33  49  70  97 129 164 201 242 288
#
# _framework density 18.110578
#
# number of rings (size 3 to 8) (size 9 to 14) (size 15 to 20)
#    0.000    2.900    0.000    2.700    0.000    3.200 
#    0.000    3.000    0.000    4.800    0.000    0.000 
#    0.000    0.000    0.000    0.000    0.000    0.000 
#
# Total GULP energy -495726.460879 kJ/mol
# GULP energy per Si atom -12393.161522 kJ/mol
# Density = 1.806936 g / cm^3
# Si number density = 18.110578 Si / 1000 Ang^3
#
#
#
# Elastic Constant Matrix: (Units=GPa)
#
#
# Indices 1 2 3 4 5 6 
#
# 1 42.3892 33.0175 35.0541 0.0000 0.0000 0.0000
# 2 33.0175 110.4338 72.9637 0.0000 0.0000 0.0000
# 3 35.0541 72.9637 131.2142 0.0000 0.0000 0.0000
# 4 0.0000 0.0000 0.0000 25.3557 0.0000 0.0000
# 5 0.0000 0.0000 0.0000 0.0000 20.0620 0.0000
# 6 0.0000 0.0000 0.0000 0.0000 0.0000 27.7249
#
#
#
# Elastic Compliance Matrix: (Units=1/GPa)
#
#
# Indices 1 2 3 4 5 6 
#
# 1 0.032888 -0.006367 -0.005246 0.000000 0.000000 0.000000
# 2 -0.006367 0.015547 -0.006944 0.000000 0.000000 0.000000
# 3 -0.005246 -0.006944 0.012884 0.000000 0.000000 0.000000
# 4 0.000000 0.000000 0.000000 0.039439 0.000000 0.000000
# 5 0.000000 0.000000 0.000000 0.000000 0.049846 0.000000
# 6 0.000000 0.000000 0.000000 0.000000 0.000000 0.036069
#
#
# Mechanical properties :
#
#
# Convention : Reuss Voigt Hill
#
# Bulk Modulus (GPa) = 41.31326 62.90087 52.10706
# Shear Modulus (GPa) = 21.56529 24.16197 22.86363
#
# Velocity S-wave (km/s) = 3.45448 3.65655 3.55695
# Velocity P-wave (km/s) = 6.22675 7.25493 6.76042
#
# Compressibility (1/GPa) = 0.02420531
#
# Stress axis : x y z
#
# Youngs Moduli (GPa) = 30.40595 64.32195 77.61667
#
# Poissons Ratio (x) = 0.40955 0.40714
# Poissons Ratio (y) = 0.19360 0.53897
# Poissons Ratio (z) = 0.15950 0.44665
#
# Static dielectric constant tensor:
#      x y z
#    x 3.043510 0.000000 0.000000 
#    y 0.000000 3.292160 0.000000 
#    z 0.000000 0.000000 3.708640 
# 
# 
# High freq. dielectric constant tensor:
#      x y z
#    x 1.664900 0.000000 0.000000 
#    y 0.000000 1.690230 0.000000 
#    z 0.000000 0.000000 1.721580 
# 
# From -- ./inp_files/72857.got.cif
#   From: 2010.03.12/outbox.cif.g09.slc.cpg/sg65_37_cif.got.tgz:72857.got - 2010.04.10 20:52:16.
