data_PCOD8268901
_publ_section_title
;
Structure prediction by ZEFSAII (Michael W. Deem and Ramdas Pophale) SiO2 
 PCOD8268901
Probable space group: C M M M
;
_chemical_formula_sum "Si O2"
_cell_formula_units_Z 104
_cell_length_a 19.519875
_cell_length_b 20.184445
_cell_length_c 15.642576
_cell_angle_alpha 90.000000
_cell_angle_beta 90.000000
_cell_angle_gamma 90.000000
_cell_volume 6163.141208
_symmetry_space_group_name_H-M "C M M M"
_symmetry_group_IT_number 65
_symmetry_cell_setting 'orthorhombic'
loop_
_space_group_symop_operation_xyz
x,y,z
-x,-y,z
x,-y,-z
-x,y,-z
-x,-y,-z
x,y,-z
-x,y,z
x,-y,z
1/2+x,1/2+y,z
1/2-x,1/2-y,z
1/2+x,1/2-y,-z
1/2-x,1/2+y,-z
1/2-x,1/2-y,-z
1/2+x,1/2+y,-z
1/2-x,1/2+y,z
1/2+x,1/2-y,z
loop_
_atom_site_type_symbol
_atom_site_label
_atom_site_fract_x
_atom_site_fract_y
_atom_site_fract_z
Si Si1 0.081402 0.822763 0.593679
Si Si2 0.078198 0.862563 0.774430
Si Si3 0.078957 0.678924 0.369587
Si Si4 0.581687 0.073809 0.500000
Si Si5 0.785637 0.314461 0.900643
Si Si6 0.423628 0.209329 0.818987
Si Si7 0.817656 0.075878 0.098781
O O1 0.101370 0.853294 0.500000
O O2 0.106611 0.866362 0.675525
O O3 0.112736 0.748331 0.599455
O O4 0.000000 0.817549 0.604072
O O5 0.084557 0.787416 0.806075
O O6 0.119248 0.909822 0.838262
O O7 0.000000 0.887058 0.778245
O O8 0.109746 0.614707 0.417579
O O9 0.088770 0.669945 0.268827
O O10 0.000000 0.682886 0.395401
O O11 0.500000 0.067198 0.500000
O O12 0.614177 0.000000 0.500000
O O13 0.750000 0.250000 0.856517
O O14 0.866499 0.318115 0.882815
O O15 0.746874 0.380530 0.869455
O O16 0.775419 0.308153 0.000000
O O17 0.500000 0.193900 0.854835
O O18 0.795525 0.000000 0.108080
O O19 0.838506 0.091842 0.000000
#
# Coordination Sequence:
#
# PCOD8268901 Si02
#       7
#    16  16  16   8  16  16  16
#     4   8  12  21  40  65  95 127 160 202 244 282
#     4   9  17  28  46  76 106 131 164 203 247 300
#     4   8  13  22  36  60  93 124 155 193 239 287
#     4   9  14  20  34  58  91 128 161 195 239 292
#     4  10  19  33  52  73  97 128 167 206 242 292
#     4   9  17  29  48  75 103 126 156 205 254 290
#     4  10  21  36  52  71  98 133 170 206 249 304
#
# _framework density 16.874511999999999
#
# number of rings (size 3 to 8) (size 9 to 14) (size 15 to 20)
#    0.000    3.000    2.308    1.846    0.000    0.923 
#    0.000    3.077    0.000    1.846    2.000    7.000 
#    0.000    0.000    0.000    0.000    0.000    0.000 
#
# Total GULP energy -644181.229819 kJ/mol
# GULP energy per Si atom -12388.100573 kJ/mol
# Density = 1.683610 g / cm^3
# Si number density = 16.874512 Si / 1000 Ang^3
#
#
#
# Elastic Constant Matrix: (Units=GPa)
#
#
# Indices 1 2 3 4 5 6 
#
# 1 72.1008 31.7630 26.8300 0.0000 0.0000 0.0000
# 2 31.7630 83.0794 39.4600 0.0000 0.0000 0.0000
# 3 26.8300 39.4600 50.1348 0.0000 0.0000 0.0000
# 4 0.0000 0.0000 0.0000 23.1439 0.0000 0.0000
# 5 0.0000 0.0000 0.0000 0.0000 5.9239 0.0000
# 6 0.0000 0.0000 0.0000 0.0000 0.0000 18.1485
#
#
#
# Elastic Compliance Matrix: (Units=1/GPa)
#
#
# Indices 1 2 3 4 5 6 
#
# 1 0.017997 -0.003683 -0.006733 0.000000 0.000000 0.000000
# 2 -0.003683 0.019977 -0.013752 0.000000 0.000000 0.000000
# 3 -0.006733 -0.013752 0.034373 0.000000 0.000000 0.000000
# 4 0.000000 0.000000 0.000000 0.043208 0.000000 0.000000
# 5 0.000000 0.000000 0.000000 0.000000 0.168807 0.000000
# 6 0.000000 0.000000 0.000000 0.000000 0.000000 0.055101
#
#
# Mechanical properties :
#
#
# Convention : Reuss Voigt Hill
#
# Bulk Modulus (GPa) = 41.64646 44.60233 43.12439
# Shear Modulus (GPa) = 12.63259 16.59407 14.61333
#
# Velocity S-wave (km/s) = 2.73906 3.13929 2.94598
# Velocity P-wave (km/s) = 5.89380 6.29519 6.09780
#
# Compressibility (1/GPa) = 0.02401165
#
# Stress axis : x y z
#
# Youngs Moduli (GPa) = 55.56396 50.05865 29.09246
#
# Poissons Ratio (x) = 0.18437 0.19587
# Poissons Ratio (y) = 0.20464 0.40008
# Poissons Ratio (z) = 0.37409 0.68841
#
# Static dielectric constant tensor:
#      x y z
#    x 2.807500 0.000000 0.000000 
#    y 0.000000 3.094760 0.000000 
#    z 0.000000 0.000000 3.296330 
# 
# 
# High freq. dielectric constant tensor:
#      x y z
#    x 1.604660 0.000000 0.000000 
#    y 0.000000 1.625280 0.000000 
#    z 0.000000 0.000000 1.653690 
# 
# From -- ./inp_files/44599.got.cif
#   From: 2010.03.12/outbox.cif.g09.slc.cpg/sg65_23_cif.got.tgz:44599.got - 2010.04.10 20:52:16.
