data_PCOD8268609
_publ_section_title
;
Structure prediction by ZEFSAII (Michael W. Deem and Ramdas Pophale) SiO2 
 PCOD8268609
Probable space group: C M M M
;
_chemical_formula_sum "Si O2"
_cell_formula_units_Z 112
_cell_length_a 13.930095
_cell_length_b 24.194744
_cell_length_c 15.213986
_cell_angle_alpha 90.000000
_cell_angle_beta 90.000000
_cell_angle_gamma 90.000000
_cell_volume 5127.647025
_symmetry_space_group_name_H-M "C M M M"
_symmetry_group_IT_number 65
_symmetry_cell_setting 'orthorhombic'
loop_
_space_group_symop_operation_xyz
x,y,z
-x,-y,z
x,-y,-z
-x,y,-z
-x,-y,-z
x,y,-z
-x,y,z
x,-y,z
1/2+x,1/2+y,z
1/2-x,1/2-y,z
1/2+x,1/2-y,-z
1/2-x,1/2+y,-z
1/2-x,1/2-y,-z
1/2+x,1/2+y,-z
1/2-x,1/2+y,z
1/2+x,1/2-y,z
loop_
_atom_site_type_symbol
_atom_site_label
_atom_site_fract_x
_atom_site_fract_y
_atom_site_fract_z
Si Si1 0.394985 0.257415 0.903708
Si Si2 0.196761 0.131256 0.098164
Si Si3 0.886496 0.224109 0.399777
Si Si4 0.105600 0.642705 0.165600
Si Si5 0.388379 0.379791 0.716364
Si Si6 0.890292 0.652605 0.635336
Si Si7 0.749075 0.560779 0.405141
O O1 0.500000 0.286682 0.888644
O O2 0.310529 0.302112 0.897407
O O3 0.383860 0.209077 0.833812
O O4 0.392690 0.229220 0.000000
O O5 0.308606 0.114245 0.110556
O O6 0.132108 0.111220 0.179446
O O7 0.163150 0.110518 0.000000
O O8 0.856122 0.207213 0.500000
O O9 0.852091 0.178807 0.326598
O O10 0.844794 0.285597 0.377771
O O11 0.000000 0.227819 0.392267
O O12 0.117280 0.628428 0.266659
O O13 0.000000 0.624411 0.129517
O O14 0.500000 0.388259 0.699214
O O15 0.330620 0.427571 0.668054
O O16 0.831018 0.607117 0.583206
O O17 0.000000 0.653433 0.601851
O O18 0.696958 0.559151 0.500000
O O19 0.793608 0.500000 0.383908
#
# Coordination Sequence:
#
# PCOD8268609 Si02
#       7
#    16  16  16  16  16  16  16
#     4   9  17  28  44  74 117 161 205 249 291 347
#     4  11  21  34  55  83 118 161 204 250 304 364
#     4   9  18  33  57  90 127 166 204 244 300 373
#     4  10  19  32  51  78 116 161 203 245 297 358
#     4  11  23  41  63  90 126 164 205 256 311 368
#     4  10  20  37  61  92 130 166 202 249 305 368
#     4  11  25  44  66  93 122 158 209 259 306 364
#
# _framework density 21.842378
#
# number of rings (size 3 to 8) (size 9 to 14) (size 15 to 20)
#    0.000    1.857    1.429    3.000    0.000    8.000 
#    0.000    2.857    0.000    0.429    0.000    1.000 
#    0.000    2.286    0.000    0.000    0.000    0.000 
#
# Total GULP energy -693778.284207 kJ/mol
# GULP energy per Si atom -12388.897932 kJ/mol
# Density = 2.179266 g / cm^3
# Si number density = 21.842378 Si / 1000 Ang^3
#
#
#
# Elastic Constant Matrix: (Units=GPa)
#
#
# Indices 1 2 3 4 5 6 
#
# 1 69.8718 20.7667 30.2462 0.0000 0.0000 0.0000
# 2 20.7667 80.7671 29.1660 0.0000 0.0000 0.0000
# 3 30.2462 29.1660 130.8947 0.0000 0.0000 0.0000
# 4 0.0000 0.0000 0.0000 16.9352 0.0000 0.0000
# 5 0.0000 0.0000 0.0000 0.0000 23.8930 0.0000
# 6 0.0000 0.0000 0.0000 0.0000 0.0000 17.0563
#
#
#
# Elastic Compliance Matrix: (Units=1/GPa)
#
#
# Indices 1 2 3 4 5 6 
#
# 1 0.016602 -0.003136 -0.003138 0.000000 0.000000 0.000000
# 2 -0.003136 0.014057 -0.002408 0.000000 0.000000 0.000000
# 3 -0.003138 -0.002408 0.008901 0.000000 0.000000 0.000000
# 4 0.000000 0.000000 0.000000 0.059049 0.000000 0.000000
# 5 0.000000 0.000000 0.000000 0.000000 0.041853 0.000000
# 6 0.000000 0.000000 0.000000 0.000000 0.000000 0.058629
#
#
# Mechanical properties :
#
#
# Convention : Reuss Voigt Hill
#
# Bulk Modulus (GPa) = 45.04813 49.09904 47.07358
# Shear Modulus (GPa) = 22.33613 25.00055 23.66834
#
# Velocity S-wave (km/s) = 3.20129 3.38685 3.29537
# Velocity P-wave (km/s) = 5.85946 6.14995 6.00646
#
# Compressibility (1/GPa) = 0.02219848
#
# Stress axis : x y z
#
# Youngs Moduli (GPa) = 60.23333 71.13928 112.34431
#
# Poissons Ratio (x) = 0.22307 0.35249
# Poissons Ratio (y) = 0.18887 0.27048
# Poissons Ratio (z) = 0.18899 0.17127
#
# Static dielectric constant tensor:
#      x y z
#    x 4.009130 0.000000 0.000000 
#    y 0.000000 3.438660 0.000000 
#    z 0.000000 0.000000 4.132420 
# 
# 
# High freq. dielectric constant tensor:
#      x y z
#    x 1.863260 0.000000 0.000000 
#    y 0.000000 1.788890 0.000000 
#    z 0.000000 0.000000 1.873920 
# 
# From -- ./inp_files/40811.got.cif
#   From: 2010.03.12/outbox.cif.g09.slc.cpg/sg65_21_cif.got.tgz:40811.got - 2010.04.10 20:52:16.
