data_PCOD8268765
_publ_section_title
;
Structure prediction by ZEFSAII (Michael W. Deem and Ramdas Pophale) SiO2 
 PCOD8268765
Probable space group: C M M M
;
_chemical_formula_sum "Si O2"
_cell_formula_units_Z 120
_cell_length_a 8.979473
_cell_length_b 27.379912
_cell_length_c 26.093347
_cell_angle_alpha 90.000000
_cell_angle_beta 90.000000
_cell_angle_gamma 90.000000
_cell_volume 6415.236724
_symmetry_space_group_name_H-M "C M M M"
_symmetry_group_IT_number 65
_symmetry_cell_setting 'orthorhombic'
loop_
_space_group_symop_operation_xyz
x,y,z
-x,-y,z
x,-y,-z
-x,y,-z
-x,-y,-z
x,y,-z
-x,y,z
x,-y,z
1/2+x,1/2+y,z
1/2-x,1/2-y,z
1/2+x,1/2-y,-z
1/2-x,1/2+y,-z
1/2-x,1/2-y,-z
1/2+x,1/2+y,-z
1/2-x,1/2+y,z
1/2+x,1/2-y,z
loop_
_atom_site_type_symbol
_atom_site_label
_atom_site_fract_x
_atom_site_fract_y
_atom_site_fract_z
Si Si1 0.164439 0.204616 0.281107
Si Si2 0.673578 0.699042 0.440264
Si Si3 0.163863 0.879228 0.200627
Si Si4 0.324282 0.140215 0.641261
Si Si5 0.824369 0.443512 0.719243
Si Si6 0.322766 0.802331 0.000000
Si Si7 0.835147 0.053974 0.059140
Si Si8 0.327556 0.861070 0.899833
O O1 0.250000 0.250000 0.255524
O O2 0.143402 0.163463 0.239994
O O3 0.271344 0.186542 0.326128
O O4 0.000000 0.219088 0.301969
O O5 0.701269 0.690370 0.500000
O O6 0.500000 0.702349 0.426596
O O7 0.750000 0.750000 0.422680
O O8 0.744365 0.650551 0.413134
O O9 0.252537 0.923644 0.227775
O O10 0.244460 0.851932 0.153386
O O11 0.000000 0.898787 0.183887
O O12 0.500000 0.140649 0.633378
O O13 0.275091 0.089404 0.669774
O O14 0.776018 0.500000 0.709977
O O15 0.000000 0.439088 0.726870
O O16 0.250000 0.750000 0.000000
O O17 0.267167 0.829486 0.948200
O O18 0.500000 0.798737 0.000000
O O19 0.705804 0.082636 0.087988
O O20 0.000000 0.077205 0.067356
O O21 0.833786 0.000000 0.082481
O O22 0.793998 0.052645 0.000000
O O23 0.500000 0.851357 0.891226
#
# Coordination Sequence:
#
# PCOD8268765 Si02
#       8
#    16  16  16  16  16   8  16  16
#     4  10  20  34  52  74 103 135 171 213 259 314
#     4  10  20  33  50  75 110 150 190 231 275 323
#     4  10  22  37  54  79 106 136 173 212 261 315
#     4  10  19  32  53  79 107 140 179 223 269 319
#     4   9  19  37  59  82 108 140 179 222 270 321
#     4  10  24  42  59  80 103 135 178 217 257 308
#     4   9  18  33  54  79 103 128 159 195 240 295
#     4  11  22  38  57  79 107 136 171 213 257 309
#
# _framework density 18.705466999999999
#
# number of rings (size 3 to 8) (size 9 to 14) (size 15 to 20)
#    0.000    2.133    0.667    2.800    0.000    5.600 
#    0.000    3.333    0.000    0.400    0.000    2.800 
#    0.000    0.000    0.000    0.000    0.000    0.000 
#
# Total GULP energy -743530.073216 kJ/mol
# GULP energy per Si atom -12392.167887 kJ/mol
# Density = 1.866289 g / cm^3
# Si number density = 18.705467 Si / 1000 Ang^3
#
#
#
# Elastic Constant Matrix: (Units=GPa)
#
#
# Indices 1 2 3 4 5 6 
#
# 1 84.5469 41.5275 43.4846 0.0000 0.0000 0.0000
# 2 41.5275 82.8276 33.7264 0.0000 0.0000 0.0000
# 3 43.4846 33.7264 97.3062 0.0000 0.0000 0.0000
# 4 0.0000 0.0000 0.0000 7.7564 0.0000 0.0000
# 5 0.0000 0.0000 0.0000 0.0000 40.2168 0.0000
# 6 0.0000 0.0000 0.0000 0.0000 0.0000 28.7318
#
#
#
# Elastic Compliance Matrix: (Units=1/GPa)
#
#
# Indices 1 2 3 4 5 6 
#
# 1 0.018091 -0.006728 -0.005753 0.000000 0.000000 0.000000
# 2 -0.006728 0.016559 -0.002733 0.000000 0.000000 0.000000
# 3 -0.005753 -0.002733 0.013795 0.000000 0.000000 0.000000
# 4 0.000000 0.000000 0.000000 0.128926 0.000000 0.000000
# 5 0.000000 0.000000 0.000000 0.000000 0.024865 0.000000
# 6 0.000000 0.000000 0.000000 0.000000 0.000000 0.034805
#
#
# Mechanical properties :
#
#
# Convention : Reuss Voigt Hill
#
# Bulk Modulus (GPa) = 55.49943 55.79530 55.64737
# Shear Modulus (GPa) = 18.28324 25.07047 21.67686
#
# Velocity S-wave (km/s) = 3.12978 3.66495 3.40788
# Velocity P-wave (km/s) = 6.54181 6.91392 6.73043
#
# Compressibility (1/GPa) = 0.01801820
#
# Stress axis : x y z
#
# Youngs Moduli (GPa) = 55.27566 60.38913 72.49095
#
# Poissons Ratio (x) = 0.40630 0.41702
# Poissons Ratio (y) = 0.37189 0.19811
# Poissons Ratio (z) = 0.31799 0.16503
#
# Static dielectric constant tensor:
#      x y z
#    x 3.678530 0.000000 0.000000 
#    y 0.000000 3.451750 0.000000 
#    z 0.000000 0.000000 3.641030 
# 
# 
# High freq. dielectric constant tensor:
#      x y z
#    x 1.734340 0.000000 0.000000 
#    y 0.000000 1.711520 0.000000 
#    z 0.000000 0.000000 1.722760 
# 
# From -- ./inp_files/73890.got.cif
#   From: 2010.03.12/outbox.cif.g09.slc.cpg/sg65_37_cif.got.tgz:73890.got - 2010.04.10 20:52:16.
