data_PCOD8268290
_publ_section_title
;
Structure prediction by ZEFSAII (Michael W. Deem and Ramdas Pophale) SiO2 
 PCOD8268290
Probable space group: C M M M
;
_chemical_formula_sum "Si O2"
_cell_formula_units_Z 88
_cell_length_a 18.167385
_cell_length_b 30.509331
_cell_length_c 8.792470
_cell_angle_alpha 90.000000
_cell_angle_beta 90.000000
_cell_angle_gamma 90.000000
_cell_volume 4873.444220
_symmetry_space_group_name_H-M "C M M M"
_symmetry_group_IT_number 65
_symmetry_cell_setting 'orthorhombic'
loop_
_space_group_symop_operation_xyz
x,y,z
-x,-y,z
x,-y,-z
-x,y,-z
-x,-y,-z
x,y,-z
-x,y,z
x,-y,z
1/2+x,1/2+y,z
1/2-x,1/2-y,z
1/2+x,1/2-y,-z
1/2-x,1/2+y,-z
1/2-x,1/2-y,-z
1/2+x,1/2+y,-z
1/2-x,1/2+y,z
1/2+x,1/2-y,z
loop_
_atom_site_type_symbol
_atom_site_label
_atom_site_fract_x
_atom_site_fract_y
_atom_site_fract_z
Si Si1 0.265365 0.700047 0.319765
Si Si2 0.649536 0.419453 0.327850
Si Si3 0.080104 0.000000 0.177099
Si Si4 0.917251 0.450851 0.819631
Si Si5 0.705245 0.117806 0.818759
Si Si6 0.579452 0.329897 0.326912
O O1 0.262871 0.690140 0.500000
O O2 0.250000 0.750000 0.279741
O O3 0.204333 0.668674 0.238605
O O4 0.347827 0.691600 0.251691
O O5 0.660561 0.435799 0.500000
O O6 0.625964 0.458215 0.221312
O O7 0.725657 0.402765 0.263242
O O8 0.587397 0.382233 0.319655
O O9 0.000000 0.000000 0.258045
O O10 0.069065 0.000000 0.000000
O O11 0.891967 0.500000 0.764374
O O12 0.864601 0.411267 0.762301
O O13 0.000000 0.441419 0.759220
O O14 0.917051 0.450817 0.000000
O O15 0.712558 0.116625 0.000000
O O16 0.576383 0.313534 0.500000
O O17 0.500000 0.317484 0.249153
#
# Coordination Sequence:
#
# PCOD8268290 Si02
#       6
#    16  16   8  16  16  16
#     4   9  18  33  51  71  99 132 166 209 261 316
#     4  10  20  33  49  70  98 134 171 207 249 300
#     4  11  23  35  47  69 102 135 170 213 251 282
#     4   8  15  29  49  73 101 135 173 209 249 306
#     4  10  19  31  52  78 101 129 167 214 259 304
#     4   8  14  27  48  69  88 118 164 206 238 287
#
# _framework density 18.057044000000001
#
# number of rings (size 3 to 8) (size 9 to 14) (size 15 to 20)
#    0.000    2.818    0.000    3.545    1.273    1.818 
#    0.000    0.909    0.000    8.182    0.000    5.091 
#    0.000    0.000    0.000    0.000    0.000    0.000 
#
# Total GULP energy -545089.925085 kJ/mol
# GULP energy per Si atom -12388.407388 kJ/mol
# Density = 1.801595 g / cm^3
# Si number density = 18.057044 Si / 1000 Ang^3
#
#
#
# Elastic Constant Matrix: (Units=GPa)
#
#
# Indices 1 2 3 4 5 6 
#
# 1 102.2198 54.0197 13.8129 0.0000 0.0000 0.0000
# 2 54.0197 112.2237 14.9441 0.0000 0.0000 0.0000
# 3 13.8129 14.9441 40.9008 0.0000 0.0000 0.0000
# 4 0.0000 0.0000 0.0000 34.0849 0.0000 0.0000
# 5 0.0000 0.0000 0.0000 0.0000 16.6585 0.0000
# 6 0.0000 0.0000 0.0000 0.0000 0.0000 16.2595
#
#
#
# Elastic Compliance Matrix: (Units=1/GPa)
#
#
# Indices 1 2 3 4 5 6 
#
# 1 0.013317 -0.006109 -0.002266 0.000000 0.000000 0.000000
# 2 -0.006109 0.012169 -0.002383 0.000000 0.000000 0.000000
# 3 -0.002266 -0.002383 0.026085 0.000000 0.000000 0.000000
# 4 0.000000 0.000000 0.000000 0.029339 0.000000 0.000000
# 5 0.000000 0.000000 0.000000 0.000000 0.060030 0.000000
# 6 0.000000 0.000000 0.000000 0.000000 0.000000 0.061503
#
#
# Mechanical properties :
#
#
# Convention : Reuss Voigt Hill
#
# Bulk Modulus (GPa) = 33.27066 46.76643 40.01855
# Shear Modulus (GPa) = 21.36980 24.90507 23.13743
#
# Velocity S-wave (km/s) = 3.44388 3.71785 3.58348
# Velocity P-wave (km/s) = 5.85483 6.66223 6.27154
#
# Compressibility (1/GPa) = 0.03005651
#
# Stress axis : x y z
#
# Youngs Moduli (GPa) = 75.09094 82.17904 38.33585
#
# Poissons Ratio (x) = 0.50200 0.08685
# Poissons Ratio (y) = 0.45870 0.09136
# Poissons Ratio (z) = 0.17012 0.19584
#
# Static dielectric constant tensor:
#      x y z
#    x 3.602490 0.000000 0.000000 
#    y 0.000000 2.617500 0.000000 
#    z 0.000000 0.000000 3.099760 
# 
# 
# High freq. dielectric constant tensor:
#      x y z
#    x 1.701530 0.000000 0.000000 
#    y 0.000000 1.694820 0.000000 
#    z 0.000000 0.000000 1.666720 
# 
# From -- ./inp_files/10027.got.cif
#   From: 2010.03.12/outbox.cif.g09.slc.cpg/sg65_6_cif.got.tgz:10027.got - 2010.04.10 20:52:16.
