data_PCOD8268088
_publ_section_title
;
Structure prediction by ZEFSAII (Michael W. Deem and Ramdas Pophale) SiO2 
 PCOD8268088
Probable space group: C M M M
;
_chemical_formula_sum "Si O2"
_cell_formula_units_Z 120
_cell_length_a 25.714096
_cell_length_b 8.941046
_cell_length_c 27.614947
_cell_angle_alpha 90.000000
_cell_angle_beta 90.000000
_cell_angle_gamma 90.000000
_cell_volume 6348.977738
_symmetry_space_group_name_H-M "C M M M"
_symmetry_group_IT_number 65
_symmetry_cell_setting 'orthorhombic'
loop_
_space_group_symop_operation_xyz
x,y,z
-x,-y,z
x,-y,-z
-x,y,-z
-x,-y,-z
x,y,-z
-x,y,z
x,-y,z
1/2+x,1/2+y,z
1/2-x,1/2-y,z
1/2+x,1/2-y,-z
1/2-x,1/2+y,-z
1/2-x,1/2-y,-z
1/2+x,1/2+y,-z
1/2-x,1/2+y,z
1/2+x,1/2-y,z
loop_
_atom_site_type_symbol
_atom_site_label
_atom_site_fract_x
_atom_site_fract_y
_atom_site_fract_z
Si Si1 0.693862 0.325270 0.342922
Si Si2 0.000000 0.677732 0.445262
Si Si3 0.633833 0.676403 0.138131
Si Si4 0.695494 0.827190 0.944640
Si Si5 0.805029 0.826122 0.766553
Si Si6 0.938904 0.666949 0.195510
Si Si7 0.404848 0.176084 0.620117
Si Si8 0.939623 0.834643 0.712180
O O1 0.700994 0.500000 0.353331
O O2 0.750000 0.250000 0.350966
O O3 0.671587 0.295260 0.287948
O O4 0.651473 0.258532 0.381023
O O5 0.053940 0.734583 0.420485
O O6 0.000000 0.500000 0.442498
O O7 0.000000 0.738103 0.500000
O O8 0.631764 0.500000 0.132779
O O9 0.654440 0.745297 0.088833
O O10 0.663748 0.733897 0.186617
O O11 0.576674 0.748121 0.145805
O O12 0.750000 0.750000 0.935050
O O13 0.700506 0.000000 0.930313
O O14 0.677398 0.807198 0.000000
O O15 0.750000 0.750000 0.768327
O O16 0.796156 0.000000 0.773762
O O17 0.915266 0.500000 0.197592
O O18 0.914559 0.766473 0.239189
O O19 0.000000 0.657702 0.199313
O O20 0.432374 0.215123 0.670168
O O21 0.395122 0.000000 0.615408
O O22 0.000000 0.857602 0.721348
O O23 0.914452 0.000000 0.701589
#
# Coordination Sequence:
#
# PCOD8268088 Si02
#       8
#    16   8  16  16  16  16  16  16
#     4  10  20  35  53  77 112 150 188 226 267 321
#     4   9  20  38  59  85 115 145 181 231 290 343
#     4  11  21  33  52  77 105 138 175 216 268 324
#     4  10  21  37  56  78 104 133 169 216 268 320
#     4   9  19  32  47  71 104 140 175 210 252 305
#     4  10  21  35  51  73 104 141 181 221 261 311
#     4  11  20  33  56  82 109 144 186 230 278 334
#     4  10  19  31  49  75 109 145 182 223 269 317
#
# _framework density 18.900682
#
# number of rings (size 3 to 8) (size 9 to 14) (size 15 to 20)
#    0.000    1.933    0.667    3.600    0.000    5.867 
#    0.000    0.000    0.000    4.000    0.000    2.800 
#    0.000    0.000    0.000    0.000    0.000    0.000 
#
# Total GULP energy -743649.759242 kJ/mol
# GULP energy per Si atom -12394.162654 kJ/mol
# Density = 1.885766 g / cm^3
# Si number density = 18.900682 Si / 1000 Ang^3
#
#
#
# Elastic Constant Matrix: (Units=GPa)
#
#
# Indices 1 2 3 4 5 6 
#
# 1 61.5159 40.6528 48.2947 0.0000 0.0000 0.0000
# 2 40.6528 101.2606 40.6514 0.0000 0.0000 0.0000
# 3 48.2947 40.6514 91.2234 0.0000 0.0000 0.0000
# 4 0.0000 0.0000 0.0000 3.6483 0.0000 0.0000
# 5 0.0000 0.0000 0.0000 0.0000 31.4212 0.0000
# 6 0.0000 0.0000 0.0000 0.0000 0.0000 32.3047
#
#
#
# Elastic Compliance Matrix: (Units=1/GPa)
#
#
# Indices 1 2 3 4 5 6 
#
# 1 0.031700 -0.007294 -0.013532 0.000000 0.000000 0.000000
# 2 -0.007294 0.013705 -0.002246 0.000000 0.000000 0.000000
# 3 -0.013532 -0.002246 0.019127 0.000000 0.000000 0.000000
# 4 0.000000 0.000000 0.000000 0.274102 0.000000 0.000000
# 5 0.000000 0.000000 0.000000 0.000000 0.031826 0.000000
# 6 0.000000 0.000000 0.000000 0.000000 0.000000 0.030955
#
#
# Mechanical properties :
#
#
# Convention : Reuss Voigt Hill
#
# Bulk Modulus (GPa) = 54.38189 57.02197 55.70193
# Shear Modulus (GPa) = 11.02079 21.76823 16.39451
#
# Velocity S-wave (km/s) = 2.41734 3.39738 2.94837
# Velocity P-wave (km/s) = 6.05197 6.75458 6.41290
#
# Compressibility (1/GPa) = 0.01838848
#
# Stress axis : x y z
#
# Youngs Moduli (GPa) = 31.54609 72.96356 52.28258
#
# Poissons Ratio (x) = 0.53220 0.70748
# Poissons Ratio (y) = 0.23010 0.11743
# Poissons Ratio (z) = 0.42687 0.16387
#
# Static dielectric constant tensor:
#      x y z
#    x 3.511810 0.000000 0.000000 
#    y 0.000000 3.556500 0.000000 
#    z 0.000000 0.000000 3.381010 
# 
# 
# High freq. dielectric constant tensor:
#      x y z
#    x 1.742280 0.000000 0.000000 
#    y 0.000000 1.744210 0.000000 
#    z 0.000000 0.000000 1.702930 
# 
# From -- ./inp_files/76148.got.cif
#   From: 2010.03.12/outbox.cif.g09.slc.cpg/sg65_39_cif.got.tgz:76148.got - 2010.04.10 20:52:16.
