data_PCOD8268624
_publ_section_title
;
Structure prediction by ZEFSAII (Michael W. Deem and Ramdas Pophale) SiO2 
 PCOD8268624
Probable space group: C M M M
;
_chemical_formula_sum "Si O2"
_cell_formula_units_Z 88
_cell_length_a 28.806861
_cell_length_b 18.413911
_cell_length_c 8.652194
_cell_angle_alpha 90.000000
_cell_angle_beta 90.000000
_cell_angle_gamma 90.000000
_cell_volume 4589.530131
_symmetry_space_group_name_H-M "C M M M"
_symmetry_group_IT_number 65
_symmetry_cell_setting 'orthorhombic'
loop_
_space_group_symop_operation_xyz
x,y,z
-x,-y,z
x,-y,-z
-x,y,-z
-x,-y,-z
x,y,-z
-x,y,z
x,-y,z
1/2+x,1/2+y,z
1/2-x,1/2-y,z
1/2+x,1/2-y,-z
1/2-x,1/2+y,-z
1/2-x,1/2-y,-z
1/2+x,1/2+y,-z
1/2-x,1/2+y,z
1/2+x,1/2-y,z
loop_
_atom_site_type_symbol
_atom_site_label
_atom_site_fract_x
_atom_site_fract_y
_atom_site_fract_z
Si Si1 0.781881 0.687184 0.681383
Si Si2 0.703978 0.418001 0.319021
Si Si3 0.552017 0.080041 0.683710
Si Si4 0.111800 0.861783 0.817857
Si Si5 0.053062 0.000000 0.183905
Si Si6 0.115351 0.291157 0.315693
O O1 0.787035 0.700313 0.500000
O O2 0.750000 0.750000 0.754667
O O3 0.755686 0.611577 0.717502
O O4 0.833348 0.691393 0.752237
O O5 0.692797 0.410410 0.500000
O O6 0.702733 0.500000 0.260629
O O7 0.665268 0.373394 0.227727
O O8 0.552565 0.083618 0.500000
O O9 0.500000 0.092383 0.745779
O O10 0.583887 0.143889 0.752000
O O11 0.569940 0.000000 0.736715
O O12 0.095476 0.785567 0.744925
O O13 0.079713 0.927966 0.754201
O O14 0.107037 0.856637 0.000000
O O15 0.000000 0.000000 0.245874
O O16 0.053696 0.000000 0.000000
O O17 0.114575 0.289505 0.500000
#
# Coordination Sequence:
#
# PCOD8268624 Si02
#       6
#    16  16  16  16   8  16
#     4   9  16  28  46  70  99 130 162 199 244 292
#     4  10  19  32  52  74  98 131 172 213 252 299
#     4   8  15  29  50  77 106 132 161 206 262 309
#     4  11  21  34  53  75 100 133 174 214 257 309
#     4   9  20  38  55  71  97 135 175 217 262 311
#     4  10  19  32  53  77 105 137 172 211 253 304
#
# _framework density 19.174075999999999
#
# number of rings (size 3 to 8) (size 9 to 14) (size 15 to 20)
#    0.000    2.455    2.727    1.091    0.000    1.455 
#    0.000    5.455    0.000    4.364    0.000    1.273 
#    0.000    0.000    0.000    0.000    0.000    0.000 
#
# Total GULP energy -545398.201427 kJ/mol
# GULP energy per Si atom -12395.413669 kJ/mol
# Density = 1.913044 g / cm^3
# Si number density = 19.174076 Si / 1000 Ang^3
#
#
#
# Elastic Constant Matrix: (Units=GPa)
#
#
# Indices 1 2 3 4 5 6 
#
# 1 127.8916 84.9575 13.2659 0.0000 0.0000 0.0000
# 2 84.9575 183.5044 19.2613 0.0000 0.0000 0.0000
# 3 13.2659 19.2613 19.9494 0.0000 0.0000 0.0000
# 4 0.0000 0.0000 0.0000 17.5078 0.0000 0.0000
# 5 0.0000 0.0000 0.0000 0.0000 9.5514 0.0000
# 6 0.0000 0.0000 0.0000 0.0000 0.0000 38.5571
#
#
#
# Elastic Compliance Matrix: (Units=1/GPa)
#
#
# Indices 1 2 3 4 5 6 
#
# 1 0.011428 -0.005000 -0.002772 0.000000 0.000000 0.000000
# 2 -0.005000 0.008252 -0.004642 0.000000 0.000000 0.000000
# 3 -0.002772 -0.004642 0.056452 0.000000 0.000000 0.000000
# 4 0.000000 0.000000 0.000000 0.057118 0.000000 0.000000
# 5 0.000000 0.000000 0.000000 0.000000 0.104697 0.000000
# 6 0.000000 0.000000 0.000000 0.000000 0.000000 0.025936
#
#
# Mechanical properties :
#
#
# Convention : Reuss Voigt Hill
#
# Bulk Modulus (GPa) = 19.49174 62.92384 41.20779
# Shear Modulus (GPa) = 16.34999 27.38063 21.86531
#
# Velocity S-wave (km/s) = 2.92329 3.78299 3.38058
# Velocity P-wave (km/s) = 4.64564 7.20901 6.06431
#
# Compressibility (1/GPa) = 0.05130379
#
# Stress axis : x y z
#
# Youngs Moduli (GPa) = 87.50385 121.18945 17.71415
#
# Poissons Ratio (x) = 0.60594 0.04910
# Poissons Ratio (y) = 0.43751 0.08223
# Poissons Ratio (z) = 0.24255 0.56257
#
# Static dielectric constant tensor:
#      x y z
#    x 3.717470 0.000000 0.000000 
#    y 0.000000 3.843130 0.000000 
#    z 0.000000 0.000000 2.948020 
# 
# 
# High freq. dielectric constant tensor:
#      x y z
#    x 1.744060 0.000000 0.000000 
#    y 0.000000 1.761620 0.000000 
#    z 0.000000 0.000000 1.688480 
# 
# From -- ./inp_files/18337.got.cif
#   From: 2010.03.12/outbox.cif.g09.slc.cpg/sg65_10_cif.got.tgz:18337.got - 2010.04.10 20:52:16.
