data_PCOD8268340
_publ_section_title
;
Structure prediction by ZEFSAII (Michael W. Deem and Ramdas Pophale) SiO2 
 PCOD8268340
Probable space group: C M M M
;
_chemical_formula_sum "Si O2"
_cell_formula_units_Z 88
_cell_length_a 20.212550
_cell_length_b 18.177065
_cell_length_c 13.983569
_cell_angle_alpha 90.000000
_cell_angle_beta 90.000000
_cell_angle_gamma 90.000000
_cell_volume 5137.630863
_symmetry_space_group_name_H-M "C M M M"
_symmetry_group_IT_number 65
_symmetry_cell_setting 'orthorhombic'
loop_
_space_group_symop_operation_xyz
x,y,z
-x,-y,z
x,-y,-z
-x,y,-z
-x,-y,-z
x,y,-z
-x,y,z
x,-y,z
1/2+x,1/2+y,z
1/2-x,1/2-y,z
1/2+x,1/2-y,-z
1/2-x,1/2+y,-z
1/2-x,1/2-y,-z
1/2+x,1/2+y,-z
1/2-x,1/2+y,z
1/2+x,1/2-y,z
loop_
_atom_site_type_symbol
_atom_site_label
_atom_site_fract_x
_atom_site_fract_y
_atom_site_fract_z
Si Si1 0.343195 0.862990 0.889107
Si Si2 0.925001 0.709795 0.610224
Si Si3 0.673880 0.269617 0.248274
Si Si4 0.728009 0.416140 0.778396
Si Si5 0.073882 0.500000 0.113863
Si Si6 0.172046 0.417191 0.607260
O O1 0.351643 0.785415 0.834655
O O2 0.271619 0.899779 0.872356
O O3 0.393398 0.924600 0.847688
O O4 0.354214 0.846063 0.000000
O O5 0.925550 0.732925 0.500000
O O6 0.876418 0.766321 0.663349
O O7 0.893909 0.629341 0.626309
O O8 0.000000 0.711106 0.651124
O O9 0.750000 0.250000 0.275662
O O10 0.669377 0.355780 0.217481
O O11 0.700904 0.500000 0.778915
O O12 0.771062 0.398513 0.683317
O O13 0.000000 0.500000 0.151924
O O14 0.079726 0.500000 0.000000
O O15 0.200221 0.402659 0.500000
O O16 0.147971 0.500000 0.620195
#
# Coordination Sequence:
#
# PCOD8268340 Si02
#       6
#    16  16  16  16   8  16
#     4  10  19  32  47  71 106 137 168 209 248 293
#     4  10  20  33  50  74 102 133 168 206 253 309
#     4  10  20  34  50  74  99 134 174 213 255 303
#     4  10  19  33  51  73  97 128 174 213 258 301
#     4   9  18  32  50  72 101 139 170 191 235 305
#     4   9  17  30  47  70 101 132 163 201 243 297
#
# _framework density 17.128516999999999
#
# number of rings (size 3 to 8) (size 9 to 14) (size 15 to 20)
#    0.000    2.273    4.545    0.000    0.000    5.455 
#    0.000    1.818    0.000    0.545    0.000    1.273 
#    0.000    0.000    0.000   12.909    0.000    0.000 
#
# Total GULP energy -545226.074697 kJ/mol
# GULP energy per Si atom -12391.501698 kJ/mol
# Density = 1.708953 g / cm^3
# Si number density = 17.128517 Si / 1000 Ang^3
#
#
#
# Elastic Constant Matrix: (Units=GPa)
#
#
# Indices 1 2 3 4 5 6 
#
# 1 69.1906 57.9086 26.7681 0.0000 0.0000 0.0000
# 2 57.9086 152.8228 36.5084 0.0000 0.0000 0.0000
# 3 26.7681 36.5084 53.2235 0.0000 0.0000 0.0000
# 4 0.0000 0.0000 0.0000 18.9707 0.0000 0.0000
# 5 0.0000 0.0000 0.0000 0.0000 22.4042 0.0000
# 6 0.0000 0.0000 0.0000 0.0000 0.0000 24.2127
#
#
#
# Elastic Compliance Matrix: (Units=1/GPa)
#
#
# Indices 1 2 3 4 5 6 
#
# 1 0.022995 -0.007117 -0.006683 0.000000 0.000000 0.000000
# 2 -0.007117 0.010029 -0.003300 0.000000 0.000000 0.000000
# 3 -0.006683 -0.003300 0.024413 0.000000 0.000000 0.000000
# 4 0.000000 0.000000 0.000000 0.052713 0.000000 0.000000
# 5 0.000000 0.000000 0.000000 0.000000 0.044635 0.000000
# 6 0.000000 0.000000 0.000000 0.000000 0.000000 0.041301
#
#
# Mechanical properties :
#
#
# Convention : Reuss Voigt Hill
#
# Bulk Modulus (GPa) = 43.03439 57.51189 50.27314
# Shear Modulus (GPa) = 21.00579 23.38765 22.19672
#
# Velocity S-wave (km/s) = 3.50575 3.69917 3.60376
# Velocity P-wave (km/s) = 6.44717 7.20380 6.83596
#
# Compressibility (1/GPa) = 0.02323723
#
# Stress axis : x y z
#
# Youngs Moduli (GPa) = 43.48837 99.71565 40.96110
#
# Poissons Ratio (x) = 0.70965 0.27375
# Poissons Ratio (y) = 0.30949 0.13516
# Poissons Ratio (z) = 0.29064 0.32904
#
# Static dielectric constant tensor:
#      x y z
#    x 2.967930 0.000000 0.000000 
#    y 0.000000 3.411430 0.000000 
#    z 0.000000 0.000000 3.229430 
# 
# 
# High freq. dielectric constant tensor:
#      x y z
#    x 1.616510 0.000000 0.000000 
#    y 0.000000 1.663010 0.000000 
#    z 0.000000 0.000000 1.663250 
# 
# From -- ./inp_files/42473.got.cif
#   From: 2010.03.12/outbox.cif.g09.slc.cpg/sg65_22_cif.got.tgz:42473.got - 2010.04.10 20:52:16.
