data_PCOD8268270
_publ_section_title
;
Structure prediction by ZEFSAII (Michael W. Deem and Ramdas Pophale) SiO2 
 PCOD8268270
Probable space group: C M M M
;
_chemical_formula_sum "Si O2"
_cell_formula_units_Z 56
_cell_length_a 15.332008
_cell_length_b 5.277598
_cell_length_c 31.697596
_cell_angle_alpha 90.000000
_cell_angle_beta 90.000000
_cell_angle_gamma 90.000000
_cell_volume 2564.848217
_symmetry_space_group_name_H-M "C M M M"
_symmetry_group_IT_number 65
_symmetry_cell_setting 'orthorhombic'
loop_
_space_group_symop_operation_xyz
x,y,z
-x,-y,z
x,-y,-z
-x,y,-z
-x,-y,-z
x,y,-z
-x,y,z
x,-y,z
1/2+x,1/2+y,z
1/2-x,1/2-y,z
1/2+x,1/2-y,-z
1/2-x,1/2+y,-z
1/2-x,1/2-y,-z
1/2+x,1/2+y,-z
1/2-x,1/2+y,z
1/2+x,1/2-y,z
loop_
_atom_site_type_symbol
_atom_site_label
_atom_site_fract_x
_atom_site_fract_y
_atom_site_fract_z
Si Si1 0.603465 0.500000 0.547246
Si Si2 0.898550 0.500000 0.131671
Si Si3 0.806551 0.500000 0.953077
Si Si4 0.652071 0.500000 0.726642
Si Si5 0.347316 0.000000 0.309284
Si Si6 0.395569 0.500000 0.178265
Si Si7 0.896259 0.500000 0.403705
O O1 0.500000 0.500000 0.544945
O O2 0.642520 0.500000 0.500000
O O3 0.635564 0.247957 0.571100
O O4 0.881859 0.500000 0.081696
O O5 0.860381 0.753381 0.153284
O O6 0.000000 0.500000 0.139150
O O7 0.750000 0.750000 0.946587
O O8 0.848780 0.500000 0.000000
O O9 0.603524 0.749989 0.708483
O O10 0.750034 0.500000 0.709101
O O11 0.651077 0.500000 0.776830
O O12 0.346270 0.000000 0.359559
O O13 0.500000 0.500000 0.183398
O O14 0.000000 0.500000 0.396284
#
# Coordination Sequence:
#
# PCOD8268270 Si02
#       7
#     8   8   8   8   8   8   8
#     4   9  17  30  49  77 111 140 173 220 267 319
#     4  10  21  39  60  88 118 151 193 240 296 346
#     4  10  21  39  59  88 124 158 198 240 286 340
#     4  10  21  38  53  75 104 141 182 226 279 328
#     4  10  21  36  52  76 107 141 182 231 266 330
#     4  10  21  38  59  82 114 145 185 241 291 344
#     4  10  19  31  51  79 107 140 179 217 268 320
#
# _framework density 21.833648
#
# number of rings (size 3 to 8) (size 9 to 14) (size 15 to 20)
#    0.000    2.143    0.000    3.000    0.000    3.143 
#   15.429    0.000    0.000    5.143    0.000   40.000 
#    0.000    0.000    0.000    0.000    0.000    0.857 
#
# Total GULP energy -347133.448972 kJ/mol
# GULP energy per Si atom -12397.623178 kJ/mol
# Density = 2.178395 g / cm^3
# Si number density = 21.833648 Si / 1000 Ang^3
#
#
#
# Elastic Constant Matrix: (Units=GPa)
#
#
# Indices 1 2 3 4 5 6 
#
# 1 22.6040 10.9344 26.4717 0.0000 0.0000 0.0000
# 2 10.9344 253.1886 102.4080 0.0000 0.0000 0.0000
# 3 26.4717 102.4080 228.3643 0.0000 0.0000 0.0000
# 4 0.0000 0.0000 0.0000 47.3248 0.0000 0.0000
# 5 0.0000 0.0000 0.0000 0.0000 42.8414 0.0000
# 6 0.0000 0.0000 0.0000 0.0000 0.0000 2.2523
#
#
#
# Elastic Compliance Matrix: (Units=1/GPa)
#
#
# Indices 1 2 3 4 5 6 
#
# 1 0.051200 0.000231 -0.006039 0.000000 0.000000 0.000000
# 2 0.000231 0.004826 -0.002191 0.000000 0.000000 0.000000
# 3 -0.006039 -0.002191 0.006061 0.000000 0.000000 0.000000
# 4 0.000000 0.000000 0.000000 0.021131 0.000000 0.000000
# 5 0.000000 0.000000 0.000000 0.000000 0.023342 0.000000
# 6 0.000000 0.000000 0.000000 0.000000 0.000000 0.443995
#
#
# Mechanical properties :
#
#
# Convention : Reuss Voigt Hill
#
# Bulk Modulus (GPa) = 21.69631 87.08722 54.39176
# Shear Modulus (GPa) = 8.59232 42.77322 25.68277
#
# Velocity S-wave (km/s) = 1.98593 4.43092 3.43343
# Velocity P-wave (km/s) = 3.90092 8.13331 6.37840
#
# Compressibility (1/GPa) = 0.04609080
#
# Stress axis : x y z
#
# Youngs Moduli (GPa) = 19.53116 207.21964 164.97633
#
# Poissons Ratio (x) = -0.04795 0.99626
# Poissons Ratio (y) = -0.00452 0.36145
# Poissons Ratio (z) = 0.11795 0.45400
#
# Static dielectric constant tensor:
#      x y z
#    x 5.090110 0.000000 0.000000 
#    y 0.000000 8.957890 0.000000 
#    z 0.000000 0.000000 4.005850 
# 
# 
# High freq. dielectric constant tensor:
#      x y z
#    x 1.811030 0.000000 0.000000 
#    y 0.000000 1.893650 0.000000 
#    z 0.000000 0.000000 1.870800 
# 
# From -- ./inp_files/77552.got.cif
#   From: 2010.03.12/outbox.cif.g09.slc.cpg/sg65_39_cif.got.tgz:77552.got - 2010.04.10 20:52:16.
