data_PCOD8268661
_publ_section_title
;
Structure prediction by ZEFSAII (Michael W. Deem and Ramdas Pophale) SiO2 
 PCOD8268661
Probable space group: C M M M
;
_chemical_formula_sum "Si O2"
_cell_formula_units_Z 104
_cell_length_a 27.071996
_cell_length_b 8.763409
_cell_length_c 23.156607
_cell_angle_alpha 90.000000
_cell_angle_beta 90.000000
_cell_angle_gamma 90.000000
_cell_volume 5493.742298
_symmetry_space_group_name_H-M "C M M M"
_symmetry_group_IT_number 65
_symmetry_cell_setting 'orthorhombic'
loop_
_space_group_symop_operation_xyz
x,y,z
-x,-y,z
x,-y,-z
-x,y,-z
-x,-y,-z
x,y,-z
-x,y,z
x,-y,z
1/2+x,1/2+y,z
1/2-x,1/2-y,z
1/2+x,1/2-y,-z
1/2-x,1/2+y,-z
1/2-x,1/2-y,-z
1/2+x,1/2+y,-z
1/2-x,1/2+y,z
1/2+x,1/2-y,z
loop_
_atom_site_type_symbol
_atom_site_label
_atom_site_fract_x
_atom_site_fract_y
_atom_site_fract_z
Si Si1 0.893174 0.680784 0.245220
Si Si2 0.600799 0.817819 0.374495
Si Si3 0.500000 0.181237 0.434677
Si Si4 0.801841 0.821771 0.567631
Si Si5 0.446245 0.181935 0.133868
Si Si6 0.300563 0.820010 0.175054
Si Si7 0.354452 0.818323 0.063739
O O1 0.894462 0.500000 0.248499
O O2 0.902740 0.745832 0.308981
O O3 0.933603 0.739151 0.198856
O O4 0.840318 0.737014 0.221574
O O5 0.550490 0.758053 0.404977
O O6 0.650435 0.752762 0.402778
O O7 0.604088 0.000000 0.377567
O O8 0.500000 0.242086 0.500000
O O9 0.500000 0.000000 0.432082
O O10 0.807166 0.789041 0.500000
O O11 0.750000 0.750000 0.590381
O O12 0.800796 0.000000 0.582080
O O13 0.500000 0.245074 0.116790
O O14 0.407460 0.242435 0.086474
O O15 0.444771 0.000000 0.134117
O O16 0.250000 0.750000 0.196156
O O17 0.313664 0.762784 0.109988
O O18 0.297329 0.000000 0.174922
O O19 0.355283 0.000000 0.060751
O O20 0.343569 0.749550 0.000000
#
# Coordination Sequence:
#
# PCOD8268661 Si02
#       7
#    16  16   8  16  16  16  16
#     4   8  16  28  42  64  92 121 155 193 235 277
#     4  10  19  32  52  76 103 135 169 206 245 294
#     4   9  18  30  47  75 105 131 162 202 244 285
#     4  10  21  37  56  77 101 130 164 204 251 300
#     4   8  13  21  36  58  87 121 153 187 229 280
#     4   9  17  30  45  62  88 121 154 191 235 283
#     4   8  14  24  37  57  86 117 150 190 234 278
#
# _framework density 18.930629
#
# number of rings (size 3 to 8) (size 9 to 14) (size 15 to 20)
#    0.000    3.154    0.000    2.769    1.077    2.769 
#    0.000    4.231    0.000    1.385    0.000    0.000 
#    0.000    6.000    0.000    5.538    0.000    6.154 
#
# Total GULP energy -644321.260260 kJ/mol
# GULP energy per Si atom -12390.793467 kJ/mol
# Density = 1.888754 g / cm^3
# Si number density = 18.930629 Si / 1000 Ang^3
#
#
#
# Elastic Constant Matrix: (Units=GPa)
#
#
# Indices 1 2 3 4 5 6 
#
# 1 120.4545 13.5867 37.6197 0.0000 0.0000 0.0000
# 2 13.5867 19.6120 11.8382 0.0000 0.0000 0.0000
# 3 37.6197 11.8382 120.7026 0.0000 0.0000 0.0000
# 4 0.0000 0.0000 0.0000 9.3072 0.0000 0.0000
# 5 0.0000 0.0000 0.0000 0.0000 16.9181 0.0000
# 6 0.0000 0.0000 0.0000 0.0000 0.0000 22.1180
#
#
#
# Elastic Compliance Matrix: (Units=1/GPa)
#
#
# Indices 1 2 3 4 5 6 
#
# 1 0.009669 -0.005187 -0.002505 0.000000 0.000000 0.000000
# 2 -0.005187 0.056980 -0.003972 0.000000 0.000000 0.000000
# 3 -0.002505 -0.003972 0.009455 0.000000 0.000000 0.000000
# 4 0.000000 0.000000 0.000000 0.107443 0.000000 0.000000
# 5 0.000000 0.000000 0.000000 0.000000 0.059108 0.000000
# 6 0.000000 0.000000 0.000000 0.000000 0.000000 0.045212
#
#
# Mechanical properties :
#
#
# Convention : Reuss Voigt Hill
#
# Bulk Modulus (GPa) = 18.94756 42.98423 30.96589
# Shear Modulus (GPa) = 15.20743 22.85031 19.02887
#
# Velocity S-wave (km/s) = 2.83737 3.47804 3.17391
# Velocity P-wave (km/s) = 4.55685 6.23574 5.46120
#
# Compressibility (1/GPa) = 0.05277725
#
# Stress axis : x y z
#
# Youngs Moduli (GPa) = 103.42078 17.55011 105.76297
#
# Poissons Ratio (x) = 0.09102 0.26493
# Poissons Ratio (y) = 0.53640 0.42008
# Poissons Ratio (z) = 0.25906 0.06971
#
# Static dielectric constant tensor:
#      x y z
#    x 0.630370 0.000000 0.000000 
#    y 0.000000 2.844660 0.000000 
#    z 0.000000 0.000000 3.827900 
# 
# 
# High freq. dielectric constant tensor:
#      x y z
#    x 1.746890 0.000000 0.000000 
#    y 0.000000 1.670540 0.000000 
#    z 0.000000 0.000000 1.741930 
# 
# From -- ./inp_files/71868.got.cif
#   From: 2010.03.12/outbox.cif.g09.slc.cpg/sg65_36_cif.got.tgz:71868.got - 2010.04.10 20:52:16.
