data_PCOD8268202
_publ_section_title
;
Structure prediction by ZEFSAII (Michael W. Deem and Ramdas Pophale) SiO2 
 PCOD8268202
Probable space group: C M M M
;
_chemical_formula_sum "Si O2"
_cell_formula_units_Z 88
_cell_length_a 27.983943
_cell_length_b 16.781500
_cell_length_c 9.683752
_cell_angle_alpha 90.000000
_cell_angle_beta 90.000000
_cell_angle_gamma 90.000000
_cell_volume 4547.611368
_symmetry_space_group_name_H-M "C M M M"
_symmetry_group_IT_number 65
_symmetry_cell_setting 'orthorhombic'
loop_
_space_group_symop_operation_xyz
x,y,z
-x,-y,z
x,-y,-z
-x,y,-z
-x,-y,-z
x,y,-z
-x,y,z
x,-y,z
1/2+x,1/2+y,z
1/2-x,1/2-y,z
1/2+x,1/2-y,-z
1/2-x,1/2+y,-z
1/2-x,1/2-y,-z
1/2+x,1/2+y,-z
1/2-x,1/2+y,z
1/2+x,1/2-y,z
loop_
_atom_site_type_symbol
_atom_site_label
_atom_site_fract_x
_atom_site_fract_y
_atom_site_fract_z
Si Si1 0.444140 0.323646 0.662864
Si Si2 0.195717 0.589606 0.344578
Si Si3 0.769940 0.835952 0.839248
Si Si4 0.597760 0.841158 0.338128
Si Si5 0.444091 0.000000 0.655907
Si Si6 0.869840 0.908438 0.841892
O O1 0.434326 0.332641 0.500000
O O2 0.500000 0.332836 0.696510
O O3 0.425088 0.239192 0.722964
O O4 0.414829 0.391371 0.743123
O O5 0.214034 0.604779 0.500000
O O6 0.174809 0.500000 0.330418
O O7 0.239980 0.598414 0.242676
O O8 0.154311 0.653346 0.307697
O O9 0.750000 0.750000 0.792211
O O10 0.825636 0.849958 0.803143
O O11 0.760739 0.850246 0.000000
O O12 0.586250 0.841208 0.500000
O O13 0.573460 0.919146 0.268689
O O14 0.500000 0.000000 0.654724
O O15 0.422899 0.000000 0.500000
O O16 0.853979 0.000000 0.820272
O O17 0.885453 0.893655 0.000000
#
# Coordination Sequence:
#
# PCOD8268202 Si02
#       6
#    16  16  16  16   8  16
#     4  10  21  36  56  83 111 139 177 229 282 325
#     4  10  19  31  50  78 111 145 179 216 260 314
#     4  10  21  37  57  81 108 139 178 223 272 326
#     4   9  16  29  47  74 112 146 178 218 265 318
#     4   9  14  22  42  70 103 145 185 217 254 307
#     4  10  22  40  59  79 106 142 183 224 268 325
#
# _framework density 19.350819000000001
#
# number of rings (size 3 to 8) (size 9 to 14) (size 15 to 20)
#    0.000    2.273    0.909    2.182    0.000    5.455 
#    0.000    1.818    0.000    0.000    0.000    0.000 
#    0.000    2.909    0.000    0.000    0.000    0.000 
#
# Total GULP energy -545506.959288 kJ/mol
# GULP energy per Si atom -12397.885438 kJ/mol
# Density = 1.930678 g / cm^3
# Si number density = 19.350819 Si / 1000 Ang^3
#
#
#
# Elastic Constant Matrix: (Units=GPa)
#
#
# Indices 1 2 3 4 5 6 
#
# 1 119.2867 50.1694 50.9598 0.0000 0.0000 0.0000
# 2 50.1694 85.9300 32.4556 0.0000 0.0000 0.0000
# 3 50.9598 32.4556 45.6393 0.0000 0.0000 0.0000
# 4 0.0000 0.0000 0.0000 21.6360 0.0000 0.0000
# 5 0.0000 0.0000 0.0000 0.0000 25.9899 0.0000
# 6 0.0000 0.0000 0.0000 0.0000 0.0000 36.2382
#
#
#
# Elastic Compliance Matrix: (Units=1/GPa)
#
#
# Indices 1 2 3 4 5 6 
#
# 1 0.016864 -0.003738 -0.016172 0.000000 0.000000 0.000000
# 2 -0.003738 0.016739 -0.007730 0.000000 0.000000 0.000000
# 3 -0.016172 -0.007730 0.045465 0.000000 0.000000 0.000000
# 4 0.000000 0.000000 0.000000 0.046219 0.000000 0.000000
# 5 0.000000 0.000000 0.000000 0.000000 0.038476 0.000000
# 6 0.000000 0.000000 0.000000 0.000000 0.000000 0.027595
#
#
# Mechanical properties :
#
#
# Convention : Reuss Voigt Hill
#
# Bulk Modulus (GPa) = 42.03678 57.55840 49.79759
# Shear Modulus (GPa) = 19.64103 24.59088 22.11596
#
# Velocity S-wave (km/s) = 3.18936 3.56869 3.38434
# Velocity P-wave (km/s) = 5.94419 6.84032 6.40794
#
# Compressibility (1/GPa) = 0.02378869
#
# Stress axis : x y z
#
# Youngs Moduli (GPa) = 59.29849 59.73924 21.99477
#
# Poissons Ratio (x) = 0.22329 0.35569
# Poissons Ratio (y) = 0.22164 0.17003
# Poissons Ratio (z) = 0.95896 0.46181
#
# Static dielectric constant tensor:
#      x y z
#    x 3.417850 0.000000 0.000000 
#    y 0.000000 3.652170 0.000000 
#    z 0.000000 0.000000 3.157540 
# 
# 
# High freq. dielectric constant tensor:
#      x y z
#    x 1.756920 0.000000 0.000000 
#    y 0.000000 1.761420 0.000000 
#    z 0.000000 0.000000 1.709990 
# 
# From -- ./inp_files/24820.got.cif
#   From: 2010.03.12/outbox.cif.g09.slc.cpg/sg65_13_cif.got.tgz:24820.got - 2010.04.10 20:52:16.
