data_PCOD8268377
_publ_section_title
;
Structure prediction by ZEFSAII (Michael W. Deem and Ramdas Pophale) SiO2 
 PCOD8268377
Probable space group: C M M M
;
_chemical_formula_sum "Si O2"
_cell_formula_units_Z 88
_cell_length_a 27.448418
_cell_length_b 19.216471
_cell_length_c 9.509771
_cell_angle_alpha 90.000000
_cell_angle_beta 90.000000
_cell_angle_gamma 90.000000
_cell_volume 5016.040249
_symmetry_space_group_name_H-M "C M M M"
_symmetry_group_IT_number 65
_symmetry_cell_setting 'orthorhombic'
loop_
_space_group_symop_operation_xyz
x,y,z
-x,-y,z
x,-y,-z
-x,y,-z
-x,-y,-z
x,y,-z
-x,y,z
x,-y,z
1/2+x,1/2+y,z
1/2-x,1/2-y,z
1/2+x,1/2-y,-z
1/2-x,1/2+y,-z
1/2-x,1/2-y,-z
1/2+x,1/2+y,-z
1/2-x,1/2+y,z
1/2+x,1/2-y,z
loop_
_atom_site_type_symbol
_atom_site_label
_atom_site_fract_x
_atom_site_fract_y
_atom_site_fract_z
Si Si1 0.943693 0.292408 0.165807
Si Si2 0.187023 0.080196 0.663476
Si Si3 0.500000 0.577142 0.666645
Si Si4 0.223311 0.417456 0.155891
Si Si5 0.883460 0.576820 0.833278
Si Si6 0.591684 0.665413 0.334030
O O1 0.924739 0.368579 0.212534
O O2 0.911285 0.237323 0.250184
O O3 0.000000 0.286552 0.210113
O O4 0.936642 0.280287 0.000000
O O5 0.198404 0.087097 0.500000
O O6 0.233974 0.110790 0.743928
O O7 0.141142 0.126578 0.707538
O O8 0.175802 0.000000 0.703377
O O9 0.500000 0.500000 0.733037
O O10 0.500000 0.571616 0.500000
O O11 0.452330 0.617136 0.719335
O O12 0.225986 0.500000 0.148250
O O13 0.170075 0.397160 0.218305
O O14 0.231051 0.385638 0.000000
O O15 0.896295 0.500000 0.771192
O O16 0.880520 0.570835 0.000000
O O17 0.588253 0.680298 0.500000
#
# Coordination Sequence:
#
# PCOD8268377 Si02
#       6
#    16  16   8  16  16  16
#     4  10  20  33  50  72  98 126 156 197 246 287
#     4   9  17  29  47  72  98 123 158 202 239 273
#     4   9  16  28  49  71  88 117 166 206 227 265
#     4   8  14  27  48  71  94 122 155 192 237 285
#     4   8  15  30  52  75  96 121 158 198 234 283
#     4  10  19  32  49  69  95 129 162 194 236 285
#
# _framework density 17.543718999999999
#
# number of rings (size 3 to 8) (size 9 to 14) (size 15 to 20)
#    0.000    3.000    0.909    1.636    0.000    3.273 
#    0.000    3.636    0.000    9.273    0.000    1.273 
#    0.000    0.000    0.000    0.000    0.000    0.000 
#
# Total GULP energy -545422.743812 kJ/mol
# GULP energy per Si atom -12395.971450 kJ/mol
# Density = 1.750379 g / cm^3
# Si number density = 17.543719 Si / 1000 Ang^3
#
#
#
# Elastic Constant Matrix: (Units=GPa)
#
#
# Indices 1 2 3 4 5 6 
#
# 1 94.1568 45.9045 32.4378 0.0000 0.0000 0.0000
# 2 45.9045 97.3645 29.4710 0.0000 0.0000 0.0000
# 3 32.4378 29.4710 34.1337 0.0000 0.0000 0.0000
# 4 0.0000 0.0000 0.0000 21.1313 0.0000 0.0000
# 5 0.0000 0.0000 0.0000 0.0000 22.7750 0.0000
# 6 0.0000 0.0000 0.0000 0.0000 0.0000 14.6066
#
#
#
# Elastic Compliance Matrix: (Units=1/GPa)
#
#
# Indices 1 2 3 4 5 6 
#
# 1 0.016985 -0.004227 -0.012491 0.000000 0.000000 0.000000
# 2 -0.004227 0.014956 -0.008897 0.000000 0.000000 0.000000
# 3 -0.012491 -0.008897 0.048849 0.000000 0.000000 0.000000
# 4 0.000000 0.000000 0.000000 0.047323 0.000000 0.000000
# 5 0.000000 0.000000 0.000000 0.000000 0.043908 0.000000
# 6 0.000000 0.000000 0.000000 0.000000 0.000000 0.068462
#
#
# Mechanical properties :
#
#
# Convention : Reuss Voigt Hill
#
# Bulk Modulus (GPa) = 33.82929 49.03130 41.43029
# Shear Modulus (GPa) = 16.58014 19.55870 18.06942
#
# Velocity S-wave (km/s) = 3.07754 3.34257 3.21279
# Velocity P-wave (km/s) = 5.65271 6.55025 6.11796
#
# Compressibility (1/GPa) = 0.02956018
#
# Stress axis : x y z
#
# Youngs Moduli (GPa) = 58.87657 66.86114 20.47141
#
# Poissons Ratio (x) = 0.28261 0.25572
# Poissons Ratio (y) = 0.24886 0.18212
# Poissons Ratio (z) = 0.73545 0.59483
#
# Static dielectric constant tensor:
#      x y z
#    x 3.499010 0.000000 0.000000 
#    y 0.000000 3.255550 0.000000 
#    z 0.000000 0.000000 3.012860 
# 
# 
# High freq. dielectric constant tensor:
#      x y z
#    x 1.688540 0.000000 0.000000 
#    y 0.000000 1.662390 0.000000 
#    z 0.000000 0.000000 1.642820 
# 
# From -- ./inp_files/18317.got.cif
#   From: 2010.03.12/outbox.cif.g09.slc.cpg/sg65_10_cif.got.tgz:18317.got - 2010.04.10 20:52:16.
