data_PCOD8268144
_publ_section_title
;
Structure prediction by ZEFSAII (Michael W. Deem and Ramdas Pophale) SiO2 
 PCOD8268144
Probable space group: C M M M
;
_chemical_formula_sum "Si O2"
_cell_formula_units_Z 72
_cell_length_a 18.083087
_cell_length_b 9.151040
_cell_length_c 23.614099
_cell_angle_alpha 90.000000
_cell_angle_beta 90.000000
_cell_angle_gamma 90.000000
_cell_volume 3907.638727
_symmetry_space_group_name_H-M "C M M M"
_symmetry_group_IT_number 65
_symmetry_cell_setting 'orthorhombic'
loop_
_space_group_symop_operation_xyz
x,y,z
-x,-y,z
x,-y,-z
-x,y,-z
-x,-y,-z
x,y,-z
-x,y,z
x,-y,z
1/2+x,1/2+y,z
1/2-x,1/2-y,z
1/2+x,1/2-y,-z
1/2-x,1/2+y,-z
1/2-x,1/2-y,-z
1/2+x,1/2+y,-z
1/2-x,1/2+y,z
1/2+x,1/2-y,z
loop_
_atom_site_type_symbol
_atom_site_label
_atom_site_fract_x
_atom_site_fract_y
_atom_site_fract_z
Si Si1 0.673604 0.331134 0.059739
Si Si2 0.672083 0.172151 0.391114
Si Si3 0.914127 0.668252 0.721636
Si Si4 0.917081 0.326250 0.500000
Si Si5 0.171099 0.172234 0.817181
O O1 0.693436 0.500000 0.060907
O O2 0.750000 0.250000 0.057413
O O3 0.635598 0.292403 0.120076
O O4 0.629294 0.294820 0.000000
O O5 0.750000 0.250000 0.390348
O O6 0.628417 0.215853 0.334737
O O7 0.625473 0.230515 0.444514
O O8 0.684926 0.000000 0.395297
O O9 0.898192 0.500000 0.736815
O O10 0.887862 0.768235 0.773046
O O11 0.000000 0.696334 0.710643
O O12 0.921065 0.500000 0.500000
O O13 0.000000 0.261198 0.500000
O O14 0.250000 0.250000 0.808667
O O15 0.182452 0.000000 0.807609
#
# Coordination Sequence:
#
# PCOD8268144 Si02
#       5
#    16  16  16   8  16
#     4   8  14  25  42  66  95 124 156 197 243 290
#     4  10  20  34  54  78 102 130 165 205 248 293
#     4  10  21  36  52  71  98 132 169 209 253 299
#     4   9  17  32  55  79 102 131 168 204 238 285
#     4  10  19  31  50  75 101 130 165 204 248 298
#
# _framework density 18.425447999999999
#
# number of rings (size 3 to 8) (size 9 to 14) (size 15 to 20)
#    0.000    2.556    0.000    2.333    0.000    6.667 
#    0.000    0.000    0.000    3.333    0.000    4.667 
#    0.000    0.000    0.000    0.000    0.000    0.000 
#
# Total GULP energy -446029.489219 kJ/mol
# GULP energy per Si atom -12389.708034 kJ/mol
# Density = 1.838351 g / cm^3
# Si number density = 18.425448 Si / 1000 Ang^3
#
#
#
# Elastic Constant Matrix: (Units=GPa)
#
#
# Indices 1 2 3 4 5 6 
#
# 1 113.4254 36.3491 77.5763 0.0000 0.0000 0.0000
# 2 36.3491 45.7214 53.1119 0.0000 0.0000 0.0000
# 3 77.5763 53.1119 198.5377 0.0000 0.0000 0.0000
# 4 0.0000 0.0000 0.0000 20.1733 0.0000 0.0000
# 5 0.0000 0.0000 0.0000 0.0000 6.5825 0.0000
# 6 0.0000 0.0000 0.0000 0.0000 0.0000 26.5493
#
#
#
# Elastic Compliance Matrix: (Units=1/GPa)
#
#
# Indices 1 2 3 4 5 6 
#
# 1 0.013264 -0.006564 -0.003427 0.000000 0.000000 0.000000
# 2 -0.006564 0.034981 -0.006793 0.000000 0.000000 0.000000
# 3 -0.003427 -0.006793 0.008193 0.000000 0.000000 0.000000
# 4 0.000000 0.000000 0.000000 0.049570 0.000000 0.000000
# 5 0.000000 0.000000 0.000000 0.000000 0.151918 0.000000
# 6 0.000000 0.000000 0.000000 0.000000 0.000000 0.037666
#
#
# Mechanical properties :
#
#
# Convention : Reuss Voigt Hill
#
# Bulk Modulus (GPa) = 43.72531 76.86213 60.29372
# Shear Modulus (GPa) = 14.84631 23.37084 19.10858
#
# Velocity S-wave (km/s) = 2.84165 3.56532 3.22386
# Velocity P-wave (km/s) = 5.87785 7.66515 6.83021
#
# Compressibility (1/GPa) = 0.02287005
#
# Stress axis : x y z
#
# Youngs Moduli (GPa) = 75.39465 28.58655 122.05565
#
# Poissons Ratio (x) = 0.18765 0.41823
# Poissons Ratio (y) = 0.49491 0.82915
# Poissons Ratio (z) = 0.25834 0.19419
#
# Static dielectric constant tensor:
#      x y z
#    x 3.078000 0.000000 0.000000 
#    y 0.000000 3.240920 0.000000 
#    z 0.000000 0.000000 4.149610 
# 
# 
# High freq. dielectric constant tensor:
#      x y z
#    x 1.682160 0.000000 0.000000 
#    y 0.000000 1.701320 0.000000 
#    z 0.000000 0.000000 1.748120 
# 
# From -- ./inp_files/66990.got.cif
#   From: 2010.03.12/outbox.cif.g09.slc.cpg/sg65_34_cif.got.tgz:66990.got - 2010.04.10 20:52:16.
