data_PCOD8268012
_publ_section_title
;
Structure prediction by ZEFSAII (Michael W. Deem and Ramdas Pophale) SiO2 
 PCOD8268012
Probable space group: C M M M
;
_chemical_formula_sum "Si O2"
_cell_formula_units_Z 112
_cell_length_a 27.895731
_cell_length_b 15.380230
_cell_length_c 14.379665
_cell_angle_alpha 90.000000
_cell_angle_beta 90.000000
_cell_angle_gamma 90.000000
_cell_volume 6169.491142
_symmetry_space_group_name_H-M "C M M M"
_symmetry_group_IT_number 65
_symmetry_cell_setting 'orthorhombic'
loop_
_space_group_symop_operation_xyz
x,y,z
-x,-y,z
x,-y,-z
-x,y,-z
-x,-y,-z
x,y,-z
-x,y,z
x,-y,z
1/2+x,1/2+y,z
1/2-x,1/2-y,z
1/2+x,1/2-y,-z
1/2-x,1/2+y,-z
1/2-x,1/2-y,-z
1/2+x,1/2+y,-z
1/2-x,1/2+y,z
1/2+x,1/2-y,z
loop_
_atom_site_type_symbol
_atom_site_label
_atom_site_fract_x
_atom_site_fract_y
_atom_site_fract_z
Si Si1 0.354859 0.754687 0.896578
Si Si2 0.944413 0.092401 0.703689
Si Si3 0.553494 0.343106 0.101346
Si Si4 0.285796 0.599262 0.892387
Si Si5 0.554848 0.764694 0.608768
Si Si6 0.309626 0.098901 0.215882
Si Si7 0.364192 0.900640 0.604691
O O1 0.411452 0.738972 0.890656
O O2 0.328083 0.665525 0.865700
O O3 0.346308 0.836747 0.832601
O O4 0.337831 0.778942 0.000000
O O5 0.936791 0.090393 0.815148
O O6 0.922125 0.178462 0.657113
O O7 0.000000 0.093932 0.677182
O O8 0.922321 0.000000 0.667284
O O9 0.500000 0.304695 0.109427
O O10 0.561179 0.389413 0.000000
O O11 0.303594 0.500000 0.877493
O O12 0.243607 0.621904 0.819330
O O13 0.268842 0.611844 0.000000
O O14 0.555090 0.746833 0.500000
O O15 0.500000 0.784228 0.642473
O O16 0.589694 0.844082 0.635435
O O17 0.318347 0.112748 0.326719
O O18 0.321816 0.000000 0.187045
O O19 0.347338 0.876053 0.500000
O O20 0.381865 0.000000 0.609106
#
# Coordination Sequence:
#
# PCOD8268012 Si02
#       7
#    16  16  16  16  16  16  16
#     4  10  19  31  50  73  98 129 160 195 241 286
#     4   9  17  28  42  62  90 124 159 193 230 274
#     4   9  18  31  46  66  94 130 169 202 231 269
#     4   9  18  32  50  74 101 125 155 198 243 286
#     4   9  17  29  46  68  93 120 152 196 246 289
#     4  10  19  31  49  72  97 126 159 196 241 289
#     4   9  18  32  49  69  92 120 157 197 237 285
#
# _framework density 18.153846000000001
#
# number of rings (size 3 to 8) (size 9 to 14) (size 15 to 20)
#    0.000    2.714    0.000    1.714    0.000    3.429 
#    0.000    5.714    0.000    3.000    0.000    2.000 
#    0.000    2.286    0.000    0.143    0.000    0.286 
#
# Total GULP energy -693809.444966 kJ/mol
# GULP energy per Si atom -12389.454374 kJ/mol
# Density = 1.811253 g / cm^3
# Si number density = 18.153846 Si / 1000 Ang^3
#
#
#
# Elastic Constant Matrix: (Units=GPa)
#
#
# Indices 1 2 3 4 5 6 
#
# 1 70.7019 35.6248 38.3130 0.0000 0.0000 0.0000
# 2 35.6248 93.3735 43.7793 0.0000 0.0000 0.0000
# 3 38.3130 43.7793 73.8829 0.0000 0.0000 0.0000
# 4 0.0000 0.0000 0.0000 16.0785 0.0000 0.0000
# 5 0.0000 0.0000 0.0000 0.0000 19.1771 0.0000
# 6 0.0000 0.0000 0.0000 0.0000 0.0000 14.5581
#
#
#
# Elastic Compliance Matrix: (Units=1/GPa)
#
#
# Indices 1 2 3 4 5 6 
#
# 1 0.020679 -0.003963 -0.008375 0.000000 0.000000 0.000000
# 2 -0.003963 0.015589 -0.007182 0.000000 0.000000 0.000000
# 3 -0.008375 -0.007182 0.022134 0.000000 0.000000 0.000000
# 4 0.000000 0.000000 0.000000 0.062195 0.000000 0.000000
# 5 0.000000 0.000000 0.000000 0.000000 0.052145 0.000000
# 6 0.000000 0.000000 0.000000 0.000000 0.000000 0.068690
#
#
# Mechanical properties :
#
#
# Convention : Reuss Voigt Hill
#
# Bulk Modulus (GPa) = 51.64944 52.59916 52.12430
# Shear Modulus (GPa) = 17.42598 17.97881 17.70240
#
# Velocity S-wave (km/s) = 3.10160 3.15041 3.12610
# Velocity P-wave (km/s) = 6.42956 6.50157 6.46567
#
# Compressibility (1/GPa) = 0.01936129
#
# Stress axis : x y z
#
# Youngs Moduli (GPa) = 48.35777 64.14704 45.17951
#
# Poissons Ratio (x) = 0.25421 0.37839
# Poissons Ratio (y) = 0.19164 0.32450
# Poissons Ratio (z) = 0.40501 0.46073
#
# Static dielectric constant tensor:
#      x y z
#    x 3.206510 0.000000 0.000000 
#    y 0.000000 3.416760 0.000000 
#    z 0.000000 0.000000 3.532510 
# 
# 
# High freq. dielectric constant tensor:
#      x y z
#    x 1.676630 0.000000 0.000000 
#    y 0.000000 1.700430 0.000000 
#    z 0.000000 0.000000 1.702050 
# 
# From -- ./inp_files/41162.got.cif
#   From: 2010.03.12/outbox.cif.g09.slc.cpg/sg65_21_cif.got.tgz:41162.got - 2010.04.10 20:52:16.
