data_PCOD8268282
_publ_section_title
;
Structure prediction by ZEFSAII (Michael W. Deem and Ramdas Pophale) SiO2 
 PCOD8268282
Probable space group: C M M M
;
_chemical_formula_sum "Si O2"
_cell_formula_units_Z 104
_cell_length_a 19.045611
_cell_length_b 24.007554
_cell_length_c 12.549815
_cell_angle_alpha 90.000000
_cell_angle_beta 90.000000
_cell_angle_gamma 90.000000
_cell_volume 5738.259019
_symmetry_space_group_name_H-M "C M M M"
_symmetry_group_IT_number 65
_symmetry_cell_setting 'orthorhombic'
loop_
_space_group_symop_operation_xyz
x,y,z
-x,-y,z
x,-y,-z
-x,y,-z
-x,-y,-z
x,y,-z
-x,y,z
x,-y,z
1/2+x,1/2+y,z
1/2-x,1/2-y,z
1/2+x,1/2-y,-z
1/2-x,1/2+y,-z
1/2-x,1/2-y,-z
1/2+x,1/2+y,-z
1/2-x,1/2+y,z
1/2+x,1/2-y,z
loop_
_atom_site_type_symbol
_atom_site_label
_atom_site_fract_x
_atom_site_fract_y
_atom_site_fract_z
Si Si1 0.916526 0.834438 0.000000
Si Si2 0.325241 0.355580 0.193376
Si Si3 0.204465 0.564724 0.124318
Si Si4 0.417230 0.207952 0.000000
Si Si5 0.879066 0.707811 0.622723
Si Si6 0.750000 0.750000 0.259112
Si Si7 0.420035 0.132630 0.807164
Si Si8 0.921312 0.168124 0.379022
O O1 0.884048 0.863742 0.103237
O O2 0.890829 0.770778 0.000000
O O3 0.000000 0.841830 0.000000
O O4 0.266538 0.402521 0.182962
O O5 0.291122 0.293922 0.184927
O O6 0.364760 0.363280 0.306028
O O7 0.219060 0.500000 0.140694
O O8 0.130322 0.579260 0.180744
O O9 0.201795 0.580966 0.000000
O O10 0.390588 0.177646 0.107153
O O11 0.500000 0.207438 0.000000
O O12 0.879659 0.689032 0.500000
O O13 0.799676 0.714384 0.663077
O O14 0.916907 0.659429 0.690025
O O15 0.920251 0.765497 0.640108
O O16 0.500000 0.114128 0.831654
O O17 0.900698 0.154005 0.500000
O O18 0.000000 0.147511 0.352338
#
# Coordination Sequence:
#
# PCOD8268282 Si02
#       8
#     8  16  16   8  16   8  16  16
#     4  11  22  32  52  85 120 151 175 213 283 353
#     4  11  21  35  55  82 115 148 182 231 279 334
#     4  11  24  42  60  79 108 147 192 239 287 336
#     4   9  18  31  49  78 114 142 171 218 273 330
#     4  10  19  31  51  83 123 156 185 222 270 333
#     4  10  19  31  54  84 116 153 191 226 268 328
#     4  11  21  36  57  81 110 145 190 237 279 325
#     4   9  18  33  55  84 118 155 189 220 264 329
#
# _framework density 18.123964000000001
#
# number of rings (size 3 to 8) (size 9 to 14) (size 15 to 20)
#    0.000    1.692    3.077    3.000    0.000    3.385 
#    0.000    0.769    0.000    4.154    0.000    2.154 
#    0.000    0.000    0.000    0.000    0.000    0.000 
#
# Total GULP energy -644882.778629 kJ/mol
# GULP energy per Si atom -12401.591897 kJ/mol
# Density = 1.808271 g / cm^3
# Si number density = 18.123964 Si / 1000 Ang^3
#
#
#
# Elastic Constant Matrix: (Units=GPa)
#
#
# Indices 1 2 3 4 5 6 
#
# 1 126.0856 42.6982 53.4162 0.0000 0.0000 0.0000
# 2 42.6982 65.3496 38.6534 0.0000 0.0000 0.0000
# 3 53.4162 38.6534 116.7044 0.0000 0.0000 0.0000
# 4 0.0000 0.0000 0.0000 18.6407 0.0000 0.0000
# 5 0.0000 0.0000 0.0000 0.0000 27.3458 0.0000
# 6 0.0000 0.0000 0.0000 0.0000 0.0000 18.0518
#
#
#
# Elastic Compliance Matrix: (Units=1/GPa)
#
#
# Indices 1 2 3 4 5 6 
#
# 1 0.011144 -0.005303 -0.003344 0.000000 0.000000 0.000000
# 2 -0.005303 0.021554 -0.004712 0.000000 0.000000 0.000000
# 3 -0.003344 -0.004712 0.011660 0.000000 0.000000 0.000000
# 4 0.000000 0.000000 0.000000 0.053646 0.000000 0.000000
# 5 0.000000 0.000000 0.000000 0.000000 0.036569 0.000000
# 6 0.000000 0.000000 0.000000 0.000000 0.000000 0.055396
#
#
# Mechanical properties :
#
#
# Convention : Reuss Voigt Hill
#
# Bulk Modulus (GPa) = 56.68948 64.18612 60.43780
# Shear Modulus (GPa) = 22.46523 24.36579 23.41551
#
# Velocity S-wave (km/s) = 3.52452 3.67058 3.59829
# Velocity P-wave (km/s) = 6.92168 7.31137 7.11919
#
# Compressibility (1/GPa) = 0.01763996
#
# Stress axis : x y z
#
# Youngs Moduli (GPa) = 89.73666 46.39479 85.76475
#
# Poissons Ratio (x) = 0.24604 0.28681
# Poissons Ratio (y) = 0.47588 0.40409
# Poissons Ratio (z) = 0.30009 0.21860
#
# Static dielectric constant tensor:
#      x y z
#    x 3.426140 0.000000 0.000000 
#    y 0.000000 2.909150 0.000000 
#    z 0.000000 0.000000 3.425380 
# 
# 
# High freq. dielectric constant tensor:
#      x y z
#    x 1.718170 0.000000 0.000000 
#    y 0.000000 1.646460 0.000000 
#    z 0.000000 0.000000 1.705710 
# 
# From -- ./inp_files/27553.got.cif
#   From: 2010.03.12/outbox.cif.g09.slc.cpg/sg65_14_cif.got.tgz:27553.got - 2010.04.10 20:52:16.
