data_PCOD8268846
_publ_section_title
;
Structure prediction by ZEFSAII (Michael W. Deem and Ramdas Pophale) SiO2 
 PCOD8268846
Probable space group: C M M M
;
_chemical_formula_sum "Si O2"
_cell_formula_units_Z 104
_cell_length_a 22.785908
_cell_length_b 29.424407
_cell_length_c 9.539731
_cell_angle_alpha 90.000000
_cell_angle_beta 90.000000
_cell_angle_gamma 90.000000
_cell_volume 6396.025512
_symmetry_space_group_name_H-M "C M M M"
_symmetry_group_IT_number 65
_symmetry_cell_setting 'orthorhombic'
loop_
_space_group_symop_operation_xyz
x,y,z
-x,-y,z
x,-y,-z
-x,y,-z
-x,-y,-z
x,y,-z
-x,y,z
x,-y,z
1/2+x,1/2+y,z
1/2-x,1/2-y,z
1/2+x,1/2-y,-z
1/2-x,1/2+y,-z
1/2-x,1/2-y,-z
1/2+x,1/2+y,-z
1/2-x,1/2+y,z
1/2+x,1/2-y,z
loop_
_atom_site_type_symbol
_atom_site_label
_atom_site_fract_x
_atom_site_fract_y
_atom_site_fract_z
Si Si1 0.565220 0.119810 0.333055
Si Si2 0.664716 0.947666 0.335915
Si Si3 0.432212 0.301522 0.839641
Si Si4 0.000000 0.053777 0.336972
Si Si5 0.276490 0.447701 0.160753
Si Si6 0.930183 0.719680 0.344389
Si Si7 0.897385 0.098842 0.836823
O O1 0.562038 0.119731 0.500000
O O2 0.500000 0.109088 0.272968
O O3 0.610203 0.081787 0.278280
O O4 0.587256 0.169902 0.284121
O O5 0.675104 0.939751 0.500000
O O6 0.722916 0.931221 0.256697
O O7 0.650353 0.000000 0.301870
O O8 0.500000 0.310360 0.801506
O O9 0.404630 0.259972 0.751618
O O10 0.397677 0.347557 0.804389
O O11 0.424918 0.287418 0.000000
O O12 0.942592 0.072979 0.261891
O O13 0.000000 0.068509 0.500000
O O14 0.000000 0.000000 0.321192
O O15 0.292172 0.500000 0.190915
O O16 0.332792 0.418215 0.201090
O O17 0.258188 0.440286 0.000000
O O18 0.904272 0.726617 0.500000
O O19 0.000000 0.722264 0.347967
O O20 0.913522 0.089425 0.000000
#
# Coordination Sequence:
#
# PCOD8268846 Si02
#       7
#    16  16  16   8  16  16  16
#     4   8  14  26  45  70  97 122 150 182 220 271
#     4   9  17  29  47  70  94 120 150 188 230 268
#     4   9  16  27  43  65  90 112 143 190 234 268
#     4  11  23  33  43  67  99 123 147 191 244 281
#     4   9  18  32  49  66  85 117 159 193 222 269
#     4   8  14  25  42  63  88 119 149 178 218 270
#     4  10  19  33  50  66  87 121 160 193 231 279
#
# _framework density 16.260096999999998
#
# number of rings (size 3 to 8) (size 9 to 14) (size 15 to 20)
#    0.000    3.000    0.769    1.615    0.000    2.769 
#    0.000    3.846    0.000    2.308    0.000    8.615 
#    0.000    0.000    0.000    0.000    0.000    0.000 
#
# Total GULP energy -644653.041840 kJ/mol
# GULP energy per Si atom -12397.173882 kJ/mol
# Density = 1.622309 g / cm^3
# Si number density = 16.260097 Si / 1000 Ang^3
#
#
#
# Elastic Constant Matrix: (Units=GPa)
#
#
# Indices 1 2 3 4 5 6 
#
# 1 103.7725 75.9836 49.4351 0.0000 0.0000 0.0000
# 2 75.9836 121.1863 53.7334 0.0000 0.0000 0.0000
# 3 49.4351 53.7334 62.3769 0.0000 0.0000 0.0000
# 4 0.0000 0.0000 0.0000 22.5318 0.0000 0.0000
# 5 0.0000 0.0000 0.0000 0.0000 21.6386 0.0000
# 6 0.0000 0.0000 0.0000 0.0000 0.0000 5.1812
#
#
#
# Elastic Compliance Matrix: (Units=1/GPa)
#
#
# Indices 1 2 3 4 5 6 
#
# 1 0.020120 -0.008972 -0.008217 0.000000 0.000000 0.000000
# 2 -0.008972 0.017352 -0.007837 0.000000 0.000000 0.000000
# 3 -0.008217 -0.007837 0.029295 0.000000 0.000000 0.000000
# 4 0.000000 0.000000 0.000000 0.044382 0.000000 0.000000
# 5 0.000000 0.000000 0.000000 0.000000 0.046214 0.000000
# 6 0.000000 0.000000 0.000000 0.000000 0.000000 0.193004
#
#
# Mechanical properties :
#
#
# Convention : Reuss Voigt Hill
#
# Bulk Modulus (GPa) = 59.82653 71.73776 65.78214
# Shear Modulus (GPa) = 12.31554 17.08256 14.69905
#
# Velocity S-wave (km/s) = 2.75509 3.24478 3.00991
# Velocity P-wave (km/s) = 6.85522 7.63236 7.25420
#
# Compressibility (1/GPa) = 0.01671499
#
# Stress axis : x y z
#
# Youngs Moduli (GPa) = 49.70104 57.62971 34.13556
#
# Poissons Ratio (x) = 0.51705 0.28049
# Poissons Ratio (y) = 0.44592 0.26753
# Poissons Ratio (z) = 0.40839 0.45166
#
# Static dielectric constant tensor:
#      x y z
#    x 2.973270 0.000000 0.000000 
#    y 0.000000 3.288230 0.000000 
#    z 0.000000 0.000000 3.035040 
# 
# 
# High freq. dielectric constant tensor:
#      x y z
#    x 1.596770 0.000000 0.000000 
#    y 0.000000 1.632260 0.000000 
#    z 0.000000 0.000000 1.610380 
# 
# From -- ./inp_files/15032.got.cif
#   From: 2010.03.12/outbox.cif.g09.slc.cpg/sg65_8_cif.got.tgz:15032.got - 2010.04.10 20:52:16.
