data_PCOD8268656
_publ_section_title
;
Structure prediction by ZEFSAII (Michael W. Deem and Ramdas Pophale) SiO2 
 PCOD8268656
Probable space group: C M M M
;
_chemical_formula_sum "Si O2"
_cell_formula_units_Z 88
_cell_length_a 18.030768
_cell_length_b 8.876251
_cell_length_c 28.998860
_cell_angle_alpha 90.000000
_cell_angle_beta 90.000000
_cell_angle_gamma 90.000000
_cell_volume 4641.140600
_symmetry_space_group_name_H-M "C M M M"
_symmetry_group_IT_number 65
_symmetry_cell_setting 'orthorhombic'
loop_
_space_group_symop_operation_xyz
x,y,z
-x,-y,z
x,-y,-z
-x,y,-z
-x,-y,-z
x,y,-z
-x,y,z
x,-y,z
1/2+x,1/2+y,z
1/2-x,1/2-y,z
1/2+x,1/2-y,-z
1/2-x,1/2+y,-z
1/2-x,1/2-y,-z
1/2+x,1/2+y,-z
1/2-x,1/2+y,z
1/2+x,1/2-y,z
loop_
_atom_site_type_symbol
_atom_site_label
_atom_site_fract_x
_atom_site_fract_y
_atom_site_fract_z
Si Si1 0.911555 0.327371 0.851760
Si Si2 0.582924 0.821309 0.951249
Si Si3 0.583337 0.320839 0.319955
Si Si4 0.583318 0.679095 0.500000
Si Si5 0.670069 0.677452 0.769394
Si Si6 0.830342 0.821034 0.410026
O O1 0.887915 0.500000 0.841853
O O2 0.880670 0.271583 0.902399
O O3 0.875867 0.218180 0.814654
O O4 0.000000 0.311877 0.850259
O O5 0.500000 0.755326 0.952922
O O6 0.578590 0.000000 0.949512
O O7 0.623214 0.770659 0.000000
O O8 0.500000 0.254721 0.319631
O O9 0.580302 0.500000 0.319621
O O10 0.626466 0.259773 0.275175
O O11 0.625226 0.262697 0.365417
O O12 0.580037 0.500000 0.500000
O O13 0.500000 0.745152 0.500000
O O14 0.625977 0.737848 0.454876
O O15 0.679391 0.500000 0.766564
O O16 0.750000 0.750000 0.771178
O O17 0.750000 0.750000 0.409668
O O18 0.822821 0.000000 0.410124
#
# Coordination Sequence:
#
# PCOD8268656 Si02
#       6
#    16  16  16   8  16  16
#     4   9  17  30  50  76 103 129 160 200 244 291
#     4   7  10  19  39  68  98 125 154 190 234 285
#     4   9  18  33  53  75  97 125 163 204 245 292
#     4   9  17  30  51  77 100 129 172 212 242 279
#     4  11  22  35  51  70  96 130 167 206 248 296
#     4  10  19  32  52  76 103 132 163 202 245 292
#
# _framework density 18.960857000000001
#
# number of rings (size 3 to 8) (size 9 to 14) (size 15 to 20)
#    0.000    2.818    0.000    4.091    0.000    3.273 
#    0.000    0.909    0.000    6.000    0.000    2.545 
#    0.000    0.000    0.000    0.000    0.000    0.000 
#
# Total GULP energy -545202.548056 kJ/mol
# GULP energy per Si atom -12390.967001 kJ/mol
# Density = 1.891770 g / cm^3
# Si number density = 18.960857 Si / 1000 Ang^3
#
#
#
# Elastic Constant Matrix: (Units=GPa)
#
#
# Indices 1 2 3 4 5 6 
#
# 1 100.1569 19.2411 68.1566 0.0000 0.0000 0.0000
# 2 19.2411 27.4626 25.2225 0.0000 0.0000 0.0000
# 3 68.1566 25.2225 208.3014 0.0000 0.0000 0.0000
# 4 0.0000 0.0000 0.0000 19.8093 0.0000 0.0000
# 5 0.0000 0.0000 0.0000 0.0000 6.7542 0.0000
# 6 0.0000 0.0000 0.0000 0.0000 0.0000 14.8594
#
#
#
# Elastic Compliance Matrix: (Units=1/GPa)
#
#
# Indices 1 2 3 4 5 6 
#
# 1 0.013716 -0.006175 -0.003740 0.000000 0.000000 0.000000
# 2 -0.006175 0.043749 -0.003277 0.000000 0.000000 0.000000
# 3 -0.003740 -0.003277 0.006421 0.000000 0.000000 0.000000
# 4 0.000000 0.000000 0.000000 0.050481 0.000000 0.000000
# 5 0.000000 0.000000 0.000000 0.000000 0.148057 0.000000
# 6 0.000000 0.000000 0.000000 0.000000 0.000000 0.067297
#
#
# Mechanical properties :
#
#
# Convention : Reuss Voigt Hill
#
# Bulk Modulus (GPa) = 26.66492 62.35127 44.50809
# Shear Modulus (GPa) = 13.56462 23.17128 18.36795
#
# Velocity S-wave (km/s) = 2.67760 3.49959 3.11582
# Velocity P-wave (km/s) = 4.86344 7.02033 6.03896
#
# Compressibility (1/GPa) = 0.03750246
#
# Stress axis : x y z
#
# Youngs Moduli (GPa) = 72.90916 22.85765 155.73085
#
# Poissons Ratio (x) = 0.14114 0.58246
# Poissons Ratio (y) = 0.45018 0.51035
# Poissons Ratio (z) = 0.27269 0.07491
#
# Static dielectric constant tensor:
#      x y z
#    x 3.332600 0.000000 0.000000 
#    y 0.000000 2.982460 0.000000 
#    z 0.000000 0.000000 4.231950 
# 
# 
# High freq. dielectric constant tensor:
#      x y z
#    x 1.719380 0.000000 0.000000 
#    y 0.000000 1.684420 0.000000 
#    z 0.000000 0.000000 1.769280 
# 
# From -- ./inp_files/77923.got.cif
#   From: 2010.03.12/outbox.cif.g09.slc.cpg/sg65_39_cif.got.tgz:77923.got - 2010.04.10 20:52:16.
