data_PCOD8268701
_publ_section_title
;
Structure prediction by ZEFSAII (Michael W. Deem and Ramdas Pophale) SiO2 
 PCOD8268701
Probable space group: C M M M
;
_chemical_formula_sum "Si O2"
_cell_formula_units_Z 52
_cell_length_a 21.402875
_cell_length_b 18.731931
_cell_length_c 7.337426
_cell_angle_alpha 90.000000
_cell_angle_beta 90.000000
_cell_angle_gamma 90.000000
_cell_volume 2941.700124
_symmetry_space_group_name_H-M "C M M M"
_symmetry_group_IT_number 65
_symmetry_cell_setting 'orthorhombic'
loop_
_space_group_symop_operation_xyz
x,y,z
-x,-y,z
x,-y,-z
-x,y,-z
-x,-y,-z
x,y,-z
-x,y,z
x,-y,z
1/2+x,1/2+y,z
1/2-x,1/2-y,z
1/2+x,1/2-y,-z
1/2-x,1/2+y,-z
1/2-x,1/2-y,-z
1/2+x,1/2+y,-z
1/2-x,1/2+y,z
1/2+x,1/2-y,z
loop_
_atom_site_type_symbol
_atom_site_label
_atom_site_fract_x
_atom_site_fract_y
_atom_site_fract_z
Si Si1 0.427727 0.751069 0.000000
Si Si2 0.259237 0.000000 0.000000
Si Si3 0.426491 0.000000 0.294373
Si Si4 0.653380 0.500000 0.286151
Si Si5 0.627359 0.901451 0.000000
Si Si6 0.428601 0.365696 0.708809
O O1 0.412561 0.704674 0.822150
O O2 0.500000 0.777252 0.000000
O O3 0.379404 0.816512 0.000000
O O4 0.218694 0.000000 0.817484
O O5 0.300982 0.071989 0.000000
O O6 0.500000 0.000000 0.306782
O O7 0.398208 0.000000 0.500000
O O8 0.404974 0.930140 0.184218
O O9 0.667317 0.500000 0.500000
O O10 0.614381 0.430740 0.226454
O O11 0.416125 0.346016 0.500000
O O12 0.500000 0.389556 0.741779
#
# Coordination Sequence:
#
# PCOD8268701 Si02
#       6
#     8   4   8   8   8  16
#     4  10  19  32  52  77 107 135 160 199 254 315
#     4  10  22  36  52  70  94 138 186 216 244 286
#     4   9  17  31  53  75  93 123 170 219 265 305
#     4  10  19  35  56  75 100 132 172 218 254 294
#     4  10  21  35  49  71 105 138 170 212 249 292
#     4   9  18  32  53  81 106 129 160 204 262 317
#
# _framework density 17.676853000000001
#
# number of rings (size 3 to 8) (size 9 to 14) (size 15 to 20)
#    0.000    2.615    0.000    3.231    0.000    5.538 
#    0.000    9.231    0.000    3.692    0.000    0.000 
#    0.000    0.000    0.000    0.000    0.000    0.000 
#
# Total GULP energy -322385.490744 kJ/mol
# GULP energy per Si atom -12399.441952 kJ/mol
# Density = 1.763662 g / cm^3
# Si number density = 17.676853 Si / 1000 Ang^3
#
#
#
# Elastic Constant Matrix: (Units=GPa)
#
#
# Indices 1 2 3 4 5 6 
#
# 1 105.8495 69.6994 49.1056 0.0000 0.0000 0.0000
# 2 69.6994 147.5172 55.6961 0.0000 0.0000 0.0000
# 3 49.1056 55.6961 119.7185 0.0000 0.0000 0.0000
# 4 0.0000 0.0000 0.0000 16.7742 0.0000 0.0000
# 5 0.0000 0.0000 0.0000 0.0000 20.4189 0.0000
# 6 0.0000 0.0000 0.0000 0.0000 0.0000 17.1001
#
#
#
# Elastic Compliance Matrix: (Units=1/GPa)
#
#
# Indices 1 2 3 4 5 6 
#
# 1 0.014781 -0.005695 -0.003413 0.000000 0.000000 0.000000
# 2 -0.005695 0.010418 -0.002511 0.000000 0.000000 0.000000
# 3 -0.003413 -0.002511 0.010921 0.000000 0.000000 0.000000
# 4 0.000000 0.000000 0.000000 0.059615 0.000000 0.000000
# 5 0.000000 0.000000 0.000000 0.000000 0.048974 0.000000
# 6 0.000000 0.000000 0.000000 0.000000 0.000000 0.058479
#
#
# Mechanical properties :
#
#
# Convention : Reuss Voigt Hill
#
# Bulk Modulus (GPa) = 77.62967 80.23193 78.93080
# Shear Modulus (GPa) = 21.67131 24.09758 22.88444
#
# Velocity S-wave (km/s) = 3.50519 3.69620 3.60196
# Velocity P-wave (km/s) = 7.77130 7.98138 7.87704
#
# Compressibility (1/GPa) = 0.01288167
#
# Stress axis : x y z
#
# Youngs Moduli (GPa) = 67.65480 95.99184 91.56714
#
# Poissons Ratio (x) = 0.54668 0.31255
# Poissons Ratio (y) = 0.38530 0.22988
# Poissons Ratio (z) = 0.23093 0.24099
#
# Static dielectric constant tensor:
#      x y z
#    x 3.132680 0.000000 0.000000 
#    y 0.000000 3.125640 0.000000 
#    z 0.000000 0.000000 3.546690 
# 
# 
# High freq. dielectric constant tensor:
#      x y z
#    x 1.667040 0.000000 0.000000 
#    y 0.000000 1.671920 0.000000 
#    z 0.000000 0.000000 1.700850 
# 
# From -- ./inp_files/8448.got.cif
#   From: 2010.03.12/outbox.cif.g09.slc.cpg/sg65_5_cif.got.tgz:8448.got - 2010.04.10 20:52:16.
