data_PCOD8268968
_publ_section_title
;
Structure prediction by ZEFSAII (Michael W. Deem and Ramdas Pophale) SiO2 
 PCOD8268968
Probable space group: C M M M
;
_chemical_formula_sum "Si O2"
_cell_formula_units_Z 120
_cell_length_a 8.584822
_cell_length_b 26.986902
_cell_length_c 28.354866
_cell_angle_alpha 90.000000
_cell_angle_beta 90.000000
_cell_angle_gamma 90.000000
_cell_volume 6569.191556
_symmetry_space_group_name_H-M "C M M M"
_symmetry_group_IT_number 65
_symmetry_cell_setting 'orthorhombic'
loop_
_space_group_symop_operation_xyz
x,y,z
-x,-y,z
x,-y,-z
-x,y,-z
-x,-y,-z
x,y,-z
-x,y,z
x,-y,z
1/2+x,1/2+y,z
1/2-x,1/2-y,z
1/2+x,1/2-y,-z
1/2-x,1/2+y,-z
1/2-x,1/2-y,-z
1/2+x,1/2+y,-z
1/2-x,1/2+y,z
1/2+x,1/2-y,z
loop_
_atom_site_type_symbol
_atom_site_label
_atom_site_fract_x
_atom_site_fract_y
_atom_site_fract_z
Si Si1 0.183526 0.053551 0.141703
Si Si2 0.683406 0.801943 0.715733
Si Si3 0.184577 0.196754 0.386446
Si Si4 0.315902 0.353134 0.197713
Si Si5 0.818831 0.886442 0.946673
Si Si6 0.182042 0.301138 0.890315
Si Si7 0.821005 0.500000 0.555555
Si Si8 0.184152 0.102782 0.446309
O O1 0.245518 0.093548 0.179267
O O2 0.225373 0.068487 0.088020
O O3 0.000000 0.050394 0.147244
O O4 0.260231 0.000000 0.152139
O O5 0.500000 0.798000 0.708695
O O6 0.750000 0.750000 0.734894
O O7 0.761236 0.815435 0.666218
O O8 0.726999 0.843776 0.753479
O O9 0.250000 0.250000 0.404073
O O10 0.246555 0.151276 0.418575
O O11 0.000000 0.200223 0.388290
O O12 0.500000 0.351626 0.206421
O O13 0.271774 0.313263 0.158150
O O14 0.715323 0.839758 0.931982
O O15 0.000000 0.871989 0.940695
O O16 0.779527 0.902415 0.000000
O O17 0.250000 0.250000 0.909508
O O18 0.000000 0.298202 0.879582
O O19 0.790832 0.500000 0.500000
O O20 0.746917 0.449026 0.576101
O O21 0.000000 0.500000 0.569702
O O22 0.243265 0.108408 0.500000
O O23 0.000000 0.100420 0.443528
#
# Coordination Sequence:
#
# PCOD8268968 Si02
#       8
#    16  16  16  16  16  16   8  16
#     4   8  15  29  51  77 100 124 157 199 244 286
#     4  11  21  34  53  76 103 134 169 206 251 300
#     4  10  20  34  52  76 107 142 179 216 262 315
#     4  10  19  33  53  76 101 126 160 203 246 294
#     4   9  18  32  49  71  99 129 162 199 239 286
#     4  11  21  33  49  70  97 127 161 199 243 292
#     4   9  17  29  49  77 103 131 173 223 271 313
#     4   9  18  33  53  76 105 142 182 223 267 317
#
# _framework density 18.267087
#
# number of rings (size 3 to 8) (size 9 to 14) (size 15 to 20)
#    0.000    2.333    0.000    5.400    0.000    2.933 
#    0.000    1.333    1.467   10.000    0.000    3.733 
#    0.000    0.000    0.000    0.000    0.000    0.000 
#
# Total GULP energy -743860.869602 kJ/mol
# GULP energy per Si atom -12397.681160 kJ/mol
# Density = 1.822551 g / cm^3
# Si number density = 18.267087 Si / 1000 Ang^3
#
#
#
# Elastic Constant Matrix: (Units=GPa)
#
#
# Indices 1 2 3 4 5 6 
#
# 1 54.4970 32.1750 16.2372 0.0000 0.0000 0.0000
# 2 32.1750 153.7272 65.7134 0.0000 0.0000 0.0000
# 3 16.2372 65.7134 87.1892 0.0000 0.0000 0.0000
# 4 0.0000 0.0000 0.0000 3.5767 0.0000 0.0000
# 5 0.0000 0.0000 0.0000 0.0000 23.2688 0.0000
# 6 0.0000 0.0000 0.0000 0.0000 0.0000 23.1845
#
#
#
# Elastic Compliance Matrix: (Units=1/GPa)
#
#
# Indices 1 2 3 4 5 6 
#
# 1 0.020983 -0.004015 -0.000882 0.000000 0.000000 0.000000
# 2 -0.004015 0.010365 -0.007064 0.000000 0.000000 0.000000
# 3 -0.000882 -0.007064 0.016958 0.000000 0.000000 0.000000
# 4 0.000000 0.000000 0.000000 0.279588 0.000000 0.000000
# 5 0.000000 0.000000 0.000000 0.000000 0.042976 0.000000
# 6 0.000000 0.000000 0.000000 0.000000 0.000000 0.043132
#
#
# Mechanical properties :
#
#
# Convention : Reuss Voigt Hill
#
# Bulk Modulus (GPa) = 41.01067 58.18495 49.59781
# Shear Modulus (GPa) = 11.20946 22.09184 16.65065
#
# Velocity S-wave (km/s) = 2.47987 3.48139 3.02240
# Velocity P-wave (km/s) = 5.54067 6.93409 6.27617
#
# Compressibility (1/GPa) = 0.02438390
#
# Stress axis : x y z
#
# Youngs Moduli (GPa) = 47.65841 96.47751 58.96975
#
# Poissons Ratio (x) = 0.38733 0.05199
# Poissons Ratio (y) = 0.19134 0.41659
# Poissons Ratio (z) = 0.04202 0.68155
#
# Static dielectric constant tensor:
#      x y z
#    x 3.244990 0.000000 0.000000 
#    y 0.000000 3.758260 0.000000 
#    z 0.000000 0.000000 3.274620 
# 
# 
# High freq. dielectric constant tensor:
#      x y z
#    x 1.701460 0.000000 0.000000 
#    y 0.000000 1.710380 0.000000 
#    z 0.000000 0.000000 1.689730 
# 
# From -- ./inp_files/73902.got.cif
#   From: 2010.03.12/outbox.cif.g09.slc.cpg/sg65_37_cif.got.tgz:73902.got - 2010.04.10 20:52:16.
