data_PCOD8268663
_publ_section_title
;
Structure prediction by ZEFSAII (Michael W. Deem and Ramdas Pophale) SiO2 
 PCOD8268663
Probable space group: C M M M
;
_chemical_formula_sum "Si O2"
_cell_formula_units_Z 88
_cell_length_a 18.828362
_cell_length_b 9.037086
_cell_length_c 27.938713
_cell_angle_alpha 90.000000
_cell_angle_beta 90.000000
_cell_angle_gamma 90.000000
_cell_volume 4753.870547
_symmetry_space_group_name_H-M "C M M M"
_symmetry_group_IT_number 65
_symmetry_cell_setting 'orthorhombic'
loop_
_space_group_symop_operation_xyz
x,y,z
-x,-y,z
x,-y,-z
-x,y,-z
-x,-y,-z
x,y,-z
-x,y,z
x,-y,z
1/2+x,1/2+y,z
1/2-x,1/2-y,z
1/2+x,1/2-y,-z
1/2-x,1/2+y,-z
1/2-x,1/2-y,-z
1/2+x,1/2+y,-z
1/2-x,1/2+y,z
1/2+x,1/2-y,z
loop_
_atom_site_type_symbol
_atom_site_label
_atom_site_fract_x
_atom_site_fract_y
_atom_site_fract_z
Si Si1 0.326259 0.324949 0.367296
Si Si2 0.582340 0.828964 0.288704
Si Si3 0.825425 0.172775 0.103254
Si Si4 0.176283 0.829120 0.000000
Si Si5 0.918315 0.669979 0.555528
Si Si6 0.582959 0.167012 0.179322
O O1 0.316683 0.500000 0.367135
O O2 0.250000 0.250000 0.366532
O O3 0.369923 0.276685 0.320765
O O4 0.367863 0.277442 0.414890
O O5 0.500000 0.791569 0.297843
O O6 0.603352 0.796767 0.233928
O O7 0.597004 0.000000 0.301691
O O8 0.750000 0.250000 0.109580
O O9 0.878134 0.221170 0.144536
O O10 0.812183 0.000000 0.108736
O O11 0.861564 0.211127 0.050796
O O12 0.250000 0.750000 0.000000
O O13 0.194298 0.000000 0.000000
O O14 0.902456 0.697778 0.500000
O O15 0.902265 0.500000 0.569245
O O16 0.000000 0.707212 0.567507
O O17 0.500000 0.188372 0.171688
O O18 0.605796 0.000000 0.166750
#
# Coordination Sequence:
#
# PCOD8268663 Si02
#       6
#    16  16  16   8  16  16
#     4  12  25  38  55  81 113 146 180 222 268 313
#     4   9  19  38  61  80 103 138 176 216 264 318
#     4  10  19  32  52  76 103 136 174 217 262 311
#     4   8  16  30  47  70  99 133 173 213 257 308
#     4   9  19  38  63  87 112 145 182 218 261 316
#     4   9  19  36  56  78 105 137 173 214 262 315
#
# _framework density 18.511232
#
# number of rings (size 3 to 8) (size 9 to 14) (size 15 to 20)
#    0.000    2.364    0.000    4.364    0.000    6.182 
#    0.000    3.182    0.000    2.727    0.000    0.000 
#    0.000    0.000    0.000    0.000    0.000    0.000 
#
# Total GULP energy -545420.537701 kJ/mol
# GULP energy per Si atom -12395.921311 kJ/mol
# Density = 1.846910 g / cm^3
# Si number density = 18.511232 Si / 1000 Ang^3
#
#
#
# Elastic Constant Matrix: (Units=GPa)
#
#
# Indices 1 2 3 4 5 6 
#
# 1 84.2799 59.8371 65.8577 0.0000 0.0000 0.0000
# 2 59.8371 113.9014 68.7449 0.0000 0.0000 0.0000
# 3 65.8577 68.7449 131.1972 0.0000 0.0000 0.0000
# 4 0.0000 0.0000 0.0000 32.3181 0.0000 0.0000
# 5 0.0000 0.0000 0.0000 0.0000 27.5085 0.0000
# 6 0.0000 0.0000 0.0000 0.0000 0.0000 34.0878
#
#
#
# Elastic Compliance Matrix: (Units=1/GPa)
#
#
# Indices 1 2 3 4 5 6 
#
# 1 0.023265 -0.007566 -0.007714 0.000000 0.000000 0.000000
# 2 -0.007566 0.015301 -0.004219 0.000000 0.000000 0.000000
# 3 -0.007714 -0.004219 0.013705 0.000000 0.000000 0.000000
# 4 0.000000 0.000000 0.000000 0.030942 0.000000 0.000000
# 5 0.000000 0.000000 0.000000 0.000000 0.036352 0.000000
# 6 0.000000 0.000000 0.000000 0.000000 0.000000 0.029336
#
#
# Mechanical properties :
#
#
# Convention : Reuss Voigt Hill
#
# Bulk Modulus (GPa) = 75.34621 79.80643 77.57632
# Shear Modulus (GPa) = 25.99773 27.77882 26.88827
#
# Velocity S-wave (km/s) = 3.75164 3.87802 3.81535
# Velocity P-wave (km/s) = 7.71736 7.95350 7.83632
#
# Compressibility (1/GPa) = 0.01327207
#
# Stress axis : x y z
#
# Youngs Moduli (GPa) = 42.98334 65.35519 72.96582
#
# Poissons Ratio (x) = 0.49450 0.56284
# Poissons Ratio (y) = 0.32523 0.30787
# Poissons Ratio (z) = 0.33156 0.27575
#
# Static dielectric constant tensor:
#      x y z
#    x 3.203250 0.000000 0.000000 
#    y 0.000000 3.290690 0.000000 
#    z 0.000000 0.000000 3.758970 
# 
# 
# High freq. dielectric constant tensor:
#      x y z
#    x 1.700470 0.000000 0.000000 
#    y 0.000000 1.716880 0.000000 
#    z 0.000000 0.000000 1.738980 
# 
# From -- ./inp_files/77840.got.cif
#   From: 2010.03.12/outbox.cif.g09.slc.cpg/sg65_39_cif.got.tgz:77840.got - 2010.04.10 20:52:16.
