data_PCOD8268892
_publ_section_title
;
Structure prediction by ZEFSAII (Michael W. Deem and Ramdas Pophale) SiO2 
 PCOD8268892
Probable space group: C M M M
;
_chemical_formula_sum "Si O2"
_cell_formula_units_Z 96
_cell_length_a 23.522035
_cell_length_b 15.555153
_cell_length_c 15.147354
_cell_angle_alpha 90.000000
_cell_angle_beta 90.000000
_cell_angle_gamma 90.000000
_cell_volume 5542.247986
_symmetry_space_group_name_H-M "C M M M"
_symmetry_group_IT_number 65
_symmetry_cell_setting 'orthorhombic'
loop_
_space_group_symop_operation_xyz
x,y,z
-x,-y,z
x,-y,-z
-x,y,-z
-x,-y,-z
x,y,-z
-x,y,z
x,-y,z
1/2+x,1/2+y,z
1/2-x,1/2-y,z
1/2+x,1/2-y,-z
1/2-x,1/2+y,-z
1/2-x,1/2-y,-z
1/2+x,1/2+y,-z
1/2-x,1/2+y,z
1/2+x,1/2-y,z
loop_
_atom_site_type_symbol
_atom_site_label
_atom_site_fract_x
_atom_site_fract_y
_atom_site_fract_z
Si Si1 0.933540 0.000000 0.301652
Si Si2 0.619998 0.900201 0.597103
Si Si3 0.255151 0.154077 0.604271
Si Si4 0.321127 0.500000 0.397030
Si Si5 0.432023 0.404053 0.000000
Si Si6 0.932888 0.162426 0.182099
Si Si7 0.067863 0.500000 0.102303
Si Si8 0.933564 0.652693 0.773070
O O1 0.889284 0.000000 0.382560
O O2 0.917766 0.084633 0.246786
O O3 0.000000 0.000000 0.332597
O O4 0.608258 0.857004 0.500000
O O5 0.683218 0.880858 0.630395
O O6 0.576253 0.868801 0.670703
O O7 0.611586 0.000000 0.585485
O O8 0.247111 0.159793 0.500000
O O9 0.250000 0.250000 0.645673
O O10 0.208331 0.086725 0.642948
O O11 0.308828 0.500000 0.500000
O O12 0.407666 0.356282 0.914416
O O13 0.407936 0.500000 0.000000
O O14 0.500000 0.405986 0.000000
O O15 0.906016 0.253179 0.211894
O O16 0.000000 0.170323 0.176425
O O17 0.091312 0.583214 0.156633
O O18 0.000000 0.500000 0.102235
O O19 0.089922 0.500000 0.000000
O O20 0.000000 0.656374 0.789522
#
# Coordination Sequence:
#
# PCOD8268892 Si02
#       8
#     8  16  16   8   8  16   8  16
#     4  10  20  34  47  70 107 136 162 201 242 297
#     4  10  19  33  52  71  98 131 166 212 255 290
#     4   9  18  33  52  72  93 120 161 214 257 287
#     4  10  20  34  52  72  97 131 170 207 249 299
#     4   9  14  26  48  69  91 126 166 205 250 289
#     4   9  18  30  46  68  99 132 164 203 243 292
#     4   9  18  31  45  64  97 134 166 205 250 297
#     4  10  20  32  46  71 104 136 168 202 247 307
#
# _framework density 17.321491999999999
#
# number of rings (size 3 to 8) (size 9 to 14) (size 15 to 20)
#    0.000    2.500    2.500    0.000    3.500    0.500 
#    0.000    0.833    0.000    3.000    0.000    0.000 
#   10.000    2.000    0.000    0.000    0.000    0.000 
#
# Total GULP energy -594749.617353 kJ/mol
# GULP energy per Si atom -12390.617028 kJ/mol
# Density = 1.728207 g / cm^3
# Si number density = 17.321492 Si / 1000 Ang^3
#
#
#
# Elastic Constant Matrix: (Units=GPa)
#
#
# Indices 1 2 3 4 5 6 
#
# 1 24.2467 22.7678 8.1363 0.0000 0.0000 0.0000
# 2 22.7678 149.6782 42.9394 0.0000 0.0000 0.0000
# 3 8.1363 42.9394 76.8030 0.0000 0.0000 0.0000
# 4 0.0000 0.0000 0.0000 22.4527 0.0000 0.0000
# 5 0.0000 0.0000 0.0000 0.0000 4.0549 0.0000
# 6 0.0000 0.0000 0.0000 0.0000 0.0000 14.7078
#
#
#
# Elastic Compliance Matrix: (Units=1/GPa)
#
#
# Indices 1 2 3 4 5 6 
#
# 1 0.048208 -0.006989 -0.001200 0.000000 0.000000 0.000000
# 2 -0.006989 0.008970 -0.004275 0.000000 0.000000 0.000000
# 3 -0.001200 -0.004275 0.015537 0.000000 0.000000 0.000000
# 4 0.000000 0.000000 0.000000 0.044538 0.000000 0.000000
# 5 0.000000 0.000000 0.000000 0.000000 0.246616 0.000000
# 6 0.000000 0.000000 0.000000 0.000000 0.000000 0.067991
#
#
# Mechanical properties :
#
#
# Convention : Reuss Voigt Hill
#
# Bulk Modulus (GPa) = 20.92532 44.26832 32.59682
# Shear Modulus (GPa) = 10.57715 20.03537 15.30626
#
# Velocity S-wave (km/s) = 2.47379 3.40468 2.97586
# Velocity P-wave (km/s) = 4.50181 6.40845 5.53780
#
# Compressibility (1/GPa) = 0.04778900
#
# Stress axis : x y z
#
# Youngs Moduli (GPa) = 20.74350 111.47717 64.36071
#
# Poissons Ratio (x) = 0.77909 0.07721
# Poissons Ratio (y) = 0.14497 0.27513
# Poissons Ratio (z) = 0.02489 0.47655
#
# Static dielectric constant tensor:
#      x y z
#    x 2.773280 0.000000 0.000000 
#    y 0.000000 3.731210 0.000000 
#    z 0.000000 0.000000 2.707750 
# 
# 
# High freq. dielectric constant tensor:
#      x y z
#    x 1.615900 0.000000 0.000000 
#    y 0.000000 1.689410 0.000000 
#    z 0.000000 0.000000 1.650100 
# 
# From -- ./inp_files/44197.got.cif
#   From: 2010.03.12/outbox.cif.g09.slc.cpg/sg65_23_cif.got.tgz:44197.got - 2010.04.10 20:52:16.
