data_PCOD8268842
_publ_section_title
;
Structure prediction by ZEFSAII (Michael W. Deem and Ramdas Pophale) SiO2 
 PCOD8268842
Probable space group: C M M M
;
_chemical_formula_sum "Si O2"
_cell_formula_units_Z 80
_cell_length_a 23.067543
_cell_length_b 9.636604
_cell_length_c 21.164136
_cell_angle_alpha 90.000000
_cell_angle_beta 90.000000
_cell_angle_gamma 90.000000
_cell_volume 4704.634567
_symmetry_space_group_name_H-M "C M M M"
_symmetry_group_IT_number 65
_symmetry_cell_setting 'orthorhombic'
loop_
_space_group_symop_operation_xyz
x,y,z
-x,-y,z
x,-y,-z
-x,y,-z
-x,-y,-z
x,y,-z
-x,y,z
x,-y,z
1/2+x,1/2+y,z
1/2-x,1/2-y,z
1/2+x,1/2-y,-z
1/2-x,1/2+y,-z
1/2-x,1/2-y,-z
1/2+x,1/2+y,-z
1/2-x,1/2+y,z
1/2+x,1/2-y,z
loop_
_atom_site_type_symbol
_atom_site_label
_atom_site_fract_x
_atom_site_fract_y
_atom_site_fract_z
Si Si1 0.932544 0.161311 0.237761
Si Si2 0.500000 0.653556 0.574039
Si Si3 0.930859 0.840018 0.000000
Si Si4 0.117738 0.235536 0.369146
Si Si5 0.671555 0.000000 0.426247
Si Si6 0.191112 0.000000 0.571993
Si Si7 0.431430 0.841300 0.117363
O O1 0.892424 0.208310 0.295439
O O2 0.913347 0.261366 0.180908
O O3 0.000000 0.183661 0.255468
O O4 0.921562 0.000000 0.219935
O O5 0.500000 0.500000 0.605733
O O6 0.500000 0.639500 0.500000
O O7 0.443096 0.733285 0.594922
O O8 0.907314 0.753366 0.939839
O O9 0.000000 0.845828 0.000000
O O10 0.907318 0.000000 0.000000
O O11 0.146406 0.379102 0.384325
O O12 0.165241 0.131276 0.394205
O O13 0.740308 0.000000 0.423482
O O14 0.651223 0.000000 0.500000
O O15 0.169930 0.000000 0.500000
O O16 0.500000 0.850142 0.111801
O O17 0.406351 0.000000 0.115967
#
# Coordination Sequence:
#
# PCOD8268842 Si02
#       7
#    16   8   8  16   8   8  16
#     4  10  19  33  49  71  99 136 176 213 259 320
#     4  11  20  33  55  79 101 132 173 216 267 325
#     4   9  15  25  41  65  93 135 184 221 244 283
#     4  12  22  37  57  79 105 136 173 222 272 328
#     4  11  26  41  55  79 105 133 173 226 284 331
#     4  11  22  41  63  77  97 135 181 224 272 333
#     4   9  17  27  43  65  98 136 175 214 256 304
#
# _framework density 17.004508000000001
#
# number of rings (size 3 to 8) (size 9 to 14) (size 15 to 20)
#    0.000    1.600    3.000    3.300    1.400    5.600 
#    0.000    1.000    0.000    0.000    0.000    0.000 
#    0.000    0.000    0.000    5.400    0.000    0.700 
#
# Total GULP energy -495826.582161 kJ/mol
# GULP energy per Si atom -12395.664554 kJ/mol
# Density = 1.696580 g / cm^3
# Si number density = 17.004508 Si / 1000 Ang^3
#
#
#
# Elastic Constant Matrix: (Units=GPa)
#
#
# Indices 1 2 3 4 5 6 
#
# 1 48.4818 32.3573 32.0386 0.0000 0.0000 0.0000
# 2 32.3573 168.8503 79.4015 0.0000 0.0000 0.0000
# 3 32.0386 79.4015 137.3633 0.0000 0.0000 0.0000
# 4 0.0000 0.0000 0.0000 98.0891 0.0000 0.0000
# 5 0.0000 0.0000 0.0000 0.0000 95.4074 0.0000
# 6 0.0000 0.0000 0.0000 0.0000 0.0000 10.5950
#
#
#
# Elastic Compliance Matrix: (Units=1/GPa)
#
#
# Indices 1 2 3 4 5 6 
#
# 1 0.025347 -0.002853 -0.004263 0.000000 0.000000 0.000000
# 2 -0.002853 0.008454 -0.004222 0.000000 0.000000 0.000000
# 3 -0.004263 -0.004222 0.010714 0.000000 0.000000 0.000000
# 4 0.000000 0.000000 0.000000 0.010195 0.000000 0.000000
# 5 0.000000 0.000000 0.000000 0.000000 0.010481 0.000000
# 6 0.000000 0.000000 0.000000 0.000000 0.000000 0.094384
#
#
# Mechanical properties :
#
#
# Convention : Reuss Voigt Hill
#
# Bulk Modulus (GPa) = 45.78425 71.36558 58.57491
# Shear Modulus (GPa) = 26.38084 54.87817 40.62951
#
# Velocity S-wave (km/s) = 3.94306 5.68707 4.89339
# Velocity P-wave (km/s) = 6.90750 9.22949 8.15159
#
# Compressibility (1/GPa) = 0.02184157
#
# Stress axis : x y z
#
# Youngs Moduli (GPa) = 39.45176 118.28369 93.33154
#
# Poissons Ratio (x) = 0.33743 0.39788
# Poissons Ratio (y) = 0.11254 0.39400
# Poissons Ratio (z) = 0.16818 0.49934
#
# Static dielectric constant tensor:
#      x y z
#    x 2.815340 0.000000 0.000000 
#    y 0.000000 3.406030 0.000000 
#    z 0.000000 0.000000 3.311210 
# 
# 
# High freq. dielectric constant tensor:
#      x y z
#    x 1.604180 0.000000 0.000000 
#    y 0.000000 1.675220 0.000000 
#    z 0.000000 0.000000 1.664170 
# 
# From -- ./inp_files/65115.got.cif
#   From: 2010.03.12/outbox.cif.g09.slc.cpg/sg65_33_cif.got.tgz:65115.got - 2010.04.10 20:52:16.
