data_PCOD8268452
_publ_section_title
;
Structure prediction by ZEFSAII (Michael W. Deem and Ramdas Pophale) SiO2 
 PCOD8268452
Probable space group: C M M M
;
_chemical_formula_sum "Si O2"
_cell_formula_units_Z 120
_cell_length_a 9.164217
_cell_length_b 27.864359
_cell_length_c 26.295633
_cell_angle_alpha 90.000000
_cell_angle_beta 90.000000
_cell_angle_gamma 90.000000
_cell_volume 6714.722218
_symmetry_space_group_name_H-M "C M M M"
_symmetry_group_IT_number 65
_symmetry_cell_setting 'orthorhombic'
loop_
_space_group_symop_operation_xyz
x,y,z
-x,-y,z
x,-y,-z
-x,y,-z
-x,-y,-z
x,y,-z
-x,y,z
x,-y,z
1/2+x,1/2+y,z
1/2-x,1/2-y,z
1/2+x,1/2-y,-z
1/2-x,1/2+y,-z
1/2-x,1/2-y,-z
1/2+x,1/2+y,-z
1/2-x,1/2+y,z
1/2+x,1/2-y,z
loop_
_atom_site_type_symbol
_atom_site_label
_atom_site_fract_x
_atom_site_fract_y
_atom_site_fract_z
Si Si1 0.328684 0.886121 0.701078
Si Si2 0.670493 0.701456 0.057523
Si Si3 0.171835 0.054918 0.500000
Si Si4 0.329990 0.945660 0.199572
Si Si5 0.833433 0.795083 0.557017
Si Si6 0.830884 0.863005 0.148846
Si Si7 0.669501 0.395788 0.601536
Si Si8 0.172529 0.198800 0.246833
O O1 0.500000 0.875105 0.695753
O O2 0.296372 0.924789 0.744785
O O3 0.265780 0.910578 0.649977
O O4 0.242460 0.836696 0.711500
O O5 0.500000 0.711625 0.063617
O O6 0.750000 0.750000 0.073916
O O7 0.719667 0.658594 0.094729
O O8 0.711851 0.686461 0.000000
O O9 0.234562 0.078055 0.448413
O O10 0.000000 0.064676 0.500000
O O11 0.216115 0.000000 0.500000
O O12 0.500000 0.944732 0.187692
O O13 0.253765 0.912679 0.157247
O O14 0.269071 0.000000 0.196586
O O15 0.776163 0.807381 0.500000
O O16 0.750000 0.750000 0.580950
O O17 0.809214 0.839297 0.594141
O O18 0.000000 0.780165 0.554148
O O19 0.794827 0.823303 0.191464
O O20 0.000000 0.876158 0.149284
O O21 0.500000 0.409590 0.610566
O O22 0.250000 0.250000 0.250665
O O23 0.000000 0.204125 0.257251
#
# Coordination Sequence:
#
# PCOD8268452 Si02
#       8
#    16  16   8  16  16  16  16  16
#     4  10  21  35  51  73 100 129 161 198 247 301
#     4   9  17  29  46  72 108 145 177 209 247 293
#     4   9  18  34  56  77  95 121 157 193 235 289
#     4   9  19  36  55  73  95 126 165 211 262 310
#     4   9  17  30  48  69  92 120 151 184 221 263
#     4   9  18  31  49  75 103 133 171 213 253 294
#     4  10  19  34  53  73  99 126 155 195 239 283
#     4  10  19  32  50  73 102 134 168 205 243 287
#
# _framework density 17.871178
#
# number of rings (size 3 to 8) (size 9 to 14) (size 15 to 20)
#    0.000    2.600    0.667    1.200    0.000    3.467 
#    0.000    1.667    0.000    0.800    0.000    2.800 
#    0.000    0.000    0.000    0.000    0.000    0.000 
#
# Total GULP energy -743984.184008 kJ/mol
# GULP energy per Si atom -12399.736400 kJ/mol
# Density = 1.783050 g / cm^3
# Si number density = 17.871178 Si / 1000 Ang^3
#
#
#
# Elastic Constant Matrix: (Units=GPa)
#
#
# Indices 1 2 3 4 5 6 
#
# 1 60.9437 51.4409 43.9085 0.0000 0.0000 0.0000
# 2 51.4409 126.5955 63.8518 0.0000 0.0000 0.0000
# 3 43.9085 63.8518 113.5364 0.0000 0.0000 0.0000
# 4 0.0000 0.0000 0.0000 15.7519 0.0000 0.0000
# 5 0.0000 0.0000 0.0000 0.0000 24.2877 0.0000
# 6 0.0000 0.0000 0.0000 0.0000 0.0000 25.9288
#
#
#
# Elastic Compliance Matrix: (Units=1/GPa)
#
#
# Indices 1 2 3 4 5 6 
#
# 1 0.027721 -0.008176 -0.006122 0.000000 0.000000 0.000000
# 2 -0.008176 0.013439 -0.004396 0.000000 0.000000 0.000000
# 3 -0.006122 -0.004396 0.013648 0.000000 0.000000 0.000000
# 4 0.000000 0.000000 0.000000 0.063484 0.000000 0.000000
# 5 0.000000 0.000000 0.000000 0.000000 0.041173 0.000000
# 6 0.000000 0.000000 0.000000 0.000000 0.000000 0.038567
#
#
# Mechanical properties :
#
#
# Convention : Reuss Voigt Hill
#
# Bulk Modulus (GPa) = 57.41027 68.83090 63.12059
# Shear Modulus (GPa) = 20.72739 22.65196 21.68968
#
# Velocity S-wave (km/s) = 3.40931 3.56408 3.48755
# Velocity P-wave (km/s) = 6.90595 7.45222 7.18428
#
# Compressibility (1/GPa) = 0.01741849
#
# Stress axis : x y z
#
# Youngs Moduli (GPa) = 36.07382 74.41269 73.27271
#
# Poissons Ratio (x) = 0.60841 0.44861
# Poissons Ratio (y) = 0.29494 0.32209
# Poissons Ratio (z) = 0.22086 0.32710
#
# Static dielectric constant tensor:
#      x y z
#    x 3.211290 0.000000 0.000000 
#    y 0.000000 3.273970 0.000000 
#    z 0.000000 0.000000 3.362250 
# 
# 
# High freq. dielectric constant tensor:
#      x y z
#    x 1.681920 0.000000 0.000000 
#    y 0.000000 1.683140 0.000000 
#    z 0.000000 0.000000 1.687400 
# 
# From -- ./inp_files/73958.got.cif
#   From: 2010.03.12/outbox.cif.g09.slc.cpg/sg65_37_cif.got.tgz:73958.got - 2010.04.10 20:52:16.
