data_PCOD8268878
_publ_section_title
;
Structure prediction by ZEFSAII (Michael W. Deem and Ramdas Pophale) SiO2 
 PCOD8268878
Probable space group: C M M M
;
_chemical_formula_sum "Si O2"
_cell_formula_units_Z 96
_cell_length_a 29.040357
_cell_length_b 13.705970
_cell_length_c 13.717583
_cell_angle_alpha 90.000000
_cell_angle_beta 90.000000
_cell_angle_gamma 90.000000
_cell_volume 5459.958283
_symmetry_space_group_name_H-M "C M M M"
_symmetry_group_IT_number 65
_symmetry_cell_setting 'orthorhombic'
loop_
_space_group_symop_operation_xyz
x,y,z
-x,-y,z
x,-y,-z
-x,y,-z
-x,-y,-z
x,y,-z
-x,y,z
x,-y,z
1/2+x,1/2+y,z
1/2-x,1/2-y,z
1/2+x,1/2-y,-z
1/2-x,1/2+y,-z
1/2-x,1/2-y,-z
1/2+x,1/2+y,-z
1/2-x,1/2+y,z
1/2+x,1/2-y,z
loop_
_atom_site_type_symbol
_atom_site_label
_atom_site_fract_x
_atom_site_fract_y
_atom_site_fract_z
Si Si1 0.725843 0.887977 0.800739
Si Si2 0.000000 0.891601 0.197782
Si Si3 0.399948 0.268603 0.609943
Si Si4 0.812919 0.795826 0.888268
Si Si5 0.100041 0.883671 0.200778
Si Si6 0.325204 0.889282 0.609022
Si Si7 0.500000 0.695602 0.393956
O O1 0.778617 0.858310 0.820096
O O2 0.691781 0.819010 0.863380
O O3 0.716015 0.871375 0.685711
O O4 0.717314 0.000000 0.831654
O O5 0.049027 0.844589 0.165431
O O6 0.000000 0.891712 0.315886
O O7 0.000000 0.000000 0.157305
O O8 0.388708 0.305971 0.500000
O O9 0.389030 0.353921 0.687523
O O10 0.369377 0.175254 0.636613
O O11 0.454001 0.238160 0.618108
O O12 0.864535 0.832262 0.871730
O O13 0.799165 0.813163 0.000000
O O14 0.103405 0.000000 0.192973
O O15 0.306652 0.865285 0.500000
O O16 0.342743 0.000000 0.615535
O O17 0.500000 0.644779 0.500000
#
# Coordination Sequence:
#
# PCOD8268878 Si02
#       7
#    16   8  16  16  16  16   8
#     4  10  20  36  56  77 104 135 168 204 249 302
#     4   8  16  29  47  69  97 133 167 204 249 309
#     4   9  16  29  47  71 102 134 170 208 248 299
#     4  11  23  37  54  78 102 128 169 218 264 298
#     4  10  19  33  51  74 104 135 169 208 257 306
#     4   9  17  31  52  75 102 137 170 200 241 297
#     4   8  14  23  41  67  97 132 166 205 248 291
#
# _framework density 17.582552
#
# number of rings (size 3 to 8) (size 9 to 14) (size 15 to 20)
#    0.000    2.500    1.667    1.500    0.000    2.833 
#    0.000    6.667    0.000    6.000    0.000    0.583 
#    0.000    1.333    0.000    0.000    0.000    0.000 
#
# Total GULP energy -594675.617128 kJ/mol
# GULP energy per Si atom -12389.075357 kJ/mol
# Density = 1.754253 g / cm^3
# Si number density = 17.582552 Si / 1000 Ang^3
#
#
#
# Elastic Constant Matrix: (Units=GPa)
#
#
# Indices 1 2 3 4 5 6 
#
# 1 115.1380 48.6557 46.7373 0.0000 0.0000 0.0000
# 2 48.6557 88.7140 33.1839 0.0000 0.0000 0.0000
# 3 46.7373 33.1839 74.8300 0.0000 0.0000 0.0000
# 4 0.0000 0.0000 0.0000 16.6192 0.0000 0.0000
# 5 0.0000 0.0000 0.0000 0.0000 18.7257 0.0000
# 6 0.0000 0.0000 0.0000 0.0000 0.0000 22.3088
#
#
#
# Elastic Compliance Matrix: (Units=1/GPa)
#
#
# Indices 1 2 3 4 5 6 
#
# 1 0.013262 -0.005005 -0.006063 0.000000 0.000000 0.000000
# 2 -0.005005 0.015403 -0.003704 0.000000 0.000000 0.000000
# 3 -0.006063 -0.003704 0.018793 0.000000 0.000000 0.000000
# 4 0.000000 0.000000 0.000000 0.060171 0.000000 0.000000
# 5 0.000000 0.000000 0.000000 0.000000 0.053403 0.000000
# 6 0.000000 0.000000 0.000000 0.000000 0.000000 0.044825
#
#
# Mechanical properties :
#
#
# Convention : Reuss Voigt Hill
#
# Bulk Modulus (GPa) = 55.82846 59.53733 57.68290
# Shear Modulus (GPa) = 20.71471 21.53773 21.12622
#
# Velocity S-wave (km/s) = 3.43613 3.50372 3.47009
# Velocity P-wave (km/s) = 6.89665 7.09248 6.99525
#
# Compressibility (1/GPa) = 0.01791201
#
# Stress axis : x y z
#
# Youngs Moduli (GPa) = 75.40507 64.92214 53.21038
#
# Poissons Ratio (x) = 0.32497 0.32263
# Poissons Ratio (y) = 0.37744 0.19711
# Poissons Ratio (z) = 0.45720 0.24049
#
# Static dielectric constant tensor:
#      x y z
#    x 3.443130 0.000000 0.000000 
#    y 0.000000 3.136340 0.000000 
#    z 0.000000 0.000000 3.277500 
# 
# 
# High freq. dielectric constant tensor:
#      x y z
#    x 1.683060 0.000000 0.000000 
#    y 0.000000 1.655140 0.000000 
#    z 0.000000 0.000000 1.676580 
# 
# From -- ./inp_files/46952.got.cif
#   From: 2010.03.12/outbox.cif.g09.slc.cpg/sg65_24_cif.got.tgz:46952.got - 2010.04.10 20:52:16.
