data_PCOD8268064
_publ_section_title
;
Structure prediction by ZEFSAII (Michael W. Deem and Ramdas Pophale) SiO2 
 PCOD8268064
Probable space group: C M M M
;
_chemical_formula_sum "Si O2"
_cell_formula_units_Z 104
_cell_length_a 32.748746
_cell_length_b 22.546142
_cell_length_c 7.824525
_cell_angle_alpha 90.000000
_cell_angle_beta 90.000000
_cell_angle_gamma 90.000000
_cell_volume 5777.299673
_symmetry_space_group_name_H-M "C M M M"
_symmetry_group_IT_number 65
_symmetry_cell_setting 'orthorhombic'
loop_
_space_group_symop_operation_xyz
x,y,z
-x,-y,z
x,-y,-z
-x,y,-z
-x,-y,-z
x,y,-z
-x,y,z
x,-y,z
1/2+x,1/2+y,z
1/2-x,1/2-y,z
1/2+x,1/2-y,-z
1/2-x,1/2+y,-z
1/2-x,1/2-y,-z
1/2+x,1/2+y,-z
1/2-x,1/2+y,z
1/2+x,1/2-y,z
loop_
_atom_site_type_symbol
_atom_site_label
_atom_site_fract_x
_atom_site_fract_y
_atom_site_fract_z
Si Si1 0.953546 0.717317 0.200872
Si Si2 0.401789 0.891514 0.304462
Si Si3 0.884430 0.931770 0.808844
Si Si4 0.262311 0.070349 0.500000
Si Si5 0.953516 0.151718 0.300277
Si Si6 0.181902 0.568664 0.191127
Si Si7 0.328735 0.429603 0.500000
Si Si8 0.045362 0.500000 0.296466
O O1 0.923273 0.671858 0.291655
O O2 0.938550 0.782341 0.254715
O O3 0.000000 0.706672 0.265375
O O4 0.950498 0.708858 0.000000
O O5 0.391380 0.906076 0.500000
O O6 0.359298 0.892718 0.202603
O O7 0.431765 0.941563 0.227929
O O8 0.926220 0.895296 0.799806
O O9 0.851957 0.907240 0.670563
O O10 0.895096 0.000000 0.768575
O O11 0.865940 0.925072 0.000000
O O12 0.285331 0.092390 0.671205
O O13 0.216778 0.097895 0.500000
O O14 0.259407 0.000000 0.500000
O O15 0.949172 0.139850 0.500000
O O16 0.000000 0.143257 0.237689
O O17 0.171037 0.500000 0.229555
O O18 0.200175 0.576120 0.000000
O O19 0.325972 0.500000 0.500000
O O20 0.043097 0.500000 0.500000
O O21 0.000000 0.500000 0.217720
#
# Coordination Sequence:
#
# PCOD8268064 Si02
#       8
#    16  16  16   8  16  16   8   8
#     4  10  21  35  49  70 102 138 181 229 268 307
#     4  11  19  31  50  69  99 137 178 224 270 318
#     4  10  20  34  55  83 115 147 176 210 255 305
#     4   9  18  32  52  74 104 138 169 210 267 322
#     4  10  20  35  55  78 106 143 185 222 257 300
#     4  10  19  31  49  74 102 134 174 219 270 323
#     4   9  18  34  53  79 111 141 173 211 255 316
#     4   9  18  28  43  67  95 134 179 221 268 321
#
# _framework density 18.00149
#
# number of rings (size 3 to 8) (size 9 to 14) (size 15 to 20)
#    0.000    2.077    2.308    1.846    0.000    3.385 
#    0.000    4.615    0.000    1.846    0.000    2.154 
#    0.000    3.692    0.000    0.000    0.000    0.000 
#
# Total GULP energy -644881.708511 kJ/mol
# GULP energy per Si atom -12401.571318 kJ/mol
# Density = 1.796052 g / cm^3
# Si number density = 18.001490 Si / 1000 Ang^3
#
#
#
# Elastic Constant Matrix: (Units=GPa)
#
#
# Indices 1 2 3 4 5 6 
#
# 1 121.6636 47.3474 48.3273 0.0000 0.0000 0.0000
# 2 47.3474 69.2071 23.3930 0.0000 0.0000 0.0000
# 3 48.3273 23.3930 104.0853 0.0000 0.0000 0.0000
# 4 0.0000 0.0000 0.0000 20.3326 0.0000 0.0000
# 5 0.0000 0.0000 0.0000 0.0000 18.3298 0.0000
# 6 0.0000 0.0000 0.0000 0.0000 0.0000 13.6654
#
#
#
# Elastic Compliance Matrix: (Units=1/GPa)
#
#
# Indices 1 2 3 4 5 6 
#
# 1 0.012754 -0.007277 -0.004286 0.000000 0.000000 0.000000
# 2 -0.007277 0.019789 -0.001069 0.000000 0.000000 0.000000
# 3 -0.004286 -0.001069 0.011838 0.000000 0.000000 0.000000
# 4 0.000000 0.000000 0.000000 0.049182 0.000000 0.000000
# 5 0.000000 0.000000 0.000000 0.000000 0.054556 0.000000
# 6 0.000000 0.000000 0.000000 0.000000 0.000000 0.073177
#
#
# Mechanical properties :
#
#
# Convention : Reuss Voigt Hill
#
# Bulk Modulus (GPa) = 52.30951 59.23238 55.77094
# Shear Modulus (GPa) = 19.76816 22.19145 20.97980
#
# Velocity S-wave (km/s) = 3.31741 3.51487 3.41757
# Velocity P-wave (km/s) = 6.61779 7.03193 6.82800
#
# Compressibility (1/GPa) = 0.01911698
#
# Stress axis : x y z
#
# Youngs Moduli (GPa) = 78.40820 50.53330 84.47467
#
# Poissons Ratio (x) = 0.36771 0.36208
# Poissons Ratio (y) = 0.57054 0.09030
# Poissons Ratio (z) = 0.33608 0.05402
#
# Static dielectric constant tensor:
#      x y z
#    x 3.320570 0.000000 0.000000 
#    y 0.000000 3.039240 0.000000 
#    z 0.000000 0.000000 3.394560 
# 
# 
# High freq. dielectric constant tensor:
#      x y z
#    x 1.682370 0.000000 0.000000 
#    y 0.000000 1.662010 0.000000 
#    z 0.000000 0.000000 1.710000 
# 
# From -- ./inp_files/18724.got.cif
#   From: 2010.03.12/outbox.cif.g09.slc.cpg/sg65_10_cif.got.tgz:18724.got - 2010.04.10 20:52:16.
