data_PCOD8268483
_publ_section_title
;
Structure prediction by ZEFSAII (Michael W. Deem and Ramdas Pophale) SiO2 
 PCOD8268483
Probable space group: C M M M
;
_chemical_formula_sum "Si O2"
_cell_formula_units_Z 88
_cell_length_a 8.803654
_cell_length_b 19.229387
_cell_length_c 28.219761
_cell_angle_alpha 90.000000
_cell_angle_beta 90.000000
_cell_angle_gamma 90.000000
_cell_volume 4777.291445
_symmetry_space_group_name_H-M "C M M M"
_symmetry_group_IT_number 65
_symmetry_cell_setting 'orthorhombic'
loop_
_space_group_symop_operation_xyz
x,y,z
-x,-y,z
x,-y,-z
-x,y,-z
-x,-y,-z
x,y,-z
-x,y,z
x,-y,z
1/2+x,1/2+y,z
1/2-x,1/2-y,z
1/2+x,1/2-y,-z
1/2-x,1/2+y,-z
1/2-x,1/2-y,-z
1/2+x,1/2+y,-z
1/2-x,1/2+y,z
1/2+x,1/2-y,z
loop_
_atom_site_type_symbol
_atom_site_label
_atom_site_fract_x
_atom_site_fract_y
_atom_site_fract_z
Si Si1 0.178588 0.421231 0.905037
Si Si2 0.180642 0.323911 0.819494
Si Si3 0.680274 0.422213 0.364699
Si Si4 0.179351 0.177276 0.446492
Si Si5 0.171793 0.917383 0.000000
Si Si6 0.180923 0.175586 0.720440
O O1 0.236048 0.500000 0.897185
O O2 0.231598 0.377673 0.859736
O O3 0.000000 0.418595 0.911599
O O4 0.249870 0.387926 0.952545
O O5 0.250000 0.250000 0.833615
O O6 0.251731 0.350489 0.770280
O O7 0.000000 0.318033 0.814414
O O8 0.500000 0.426202 0.365886
O O9 0.749739 0.500000 0.363422
O O10 0.739948 0.383215 0.411860
O O11 0.733838 0.380267 0.318453
O O12 0.229777 0.158329 0.500000
O O13 0.250000 0.250000 0.429996
O O14 0.000000 0.185183 0.442474
O O15 0.000000 0.891607 0.000000
O O16 0.188336 0.000000 0.000000
O O17 0.250000 0.250000 0.706339
O O18 0.000000 0.182306 0.723801
#
# Coordination Sequence:
#
# PCOD8268483 Si02
#       6
#    16  16  16  16   8  16
#     4   9  18  33  52  72  96 128 162 196 237 284
#     4  10  20  34  52  73  98 127 160 199 241 286
#     4   9  18  31  47  71 100 126 157 199 244 287
#     4   9  17  30  50  73  96 126 163 201 239 283
#     4   9  17  29  48  75 102 127 159 199 238 279
#     4  10  19  32  51  70  92 125 160 196 238 285
#
# _framework density 18.420477999999999
#
# number of rings (size 3 to 8) (size 9 to 14) (size 15 to 20)
#    0.000    2.636    0.000    3.000    0.000    3.636 
#    0.000    3.182    0.000    4.364    0.000    2.545 
#    0.000    0.000    0.000    0.000    0.000    0.000 
#
# Total GULP energy -545566.945613 kJ/mol
# GULP energy per Si atom -12399.248764 kJ/mol
# Density = 1.837855 g / cm^3
# Si number density = 18.420478 Si / 1000 Ang^3
#
#
#
# Elastic Constant Matrix: (Units=GPa)
#
#
# Indices 1 2 3 4 5 6 
#
# 1 46.6310 30.5097 41.6912 0.0000 0.0000 0.0000
# 2 30.5097 127.0813 106.7670 0.0000 0.0000 0.0000
# 3 41.6912 106.7670 176.0470 0.0000 0.0000 0.0000
# 4 0.0000 0.0000 0.0000 35.7493 0.0000 0.0000
# 5 0.0000 0.0000 0.0000 0.0000 23.6422 0.0000
# 6 0.0000 0.0000 0.0000 0.0000 0.0000 21.1041
#
#
#
# Elastic Compliance Matrix: (Units=1/GPa)
#
#
# Indices 1 2 3 4 5 6 
#
# 1 0.027533 -0.002308 -0.005121 0.000000 0.000000 0.000000
# 2 -0.002308 0.016237 -0.009301 0.000000 0.000000 0.000000
# 3 -0.005121 -0.009301 0.012533 0.000000 0.000000 0.000000
# 4 0.000000 0.000000 0.000000 0.027973 0.000000 0.000000
# 5 0.000000 0.000000 0.000000 0.000000 0.042297 0.000000
# 6 0.000000 0.000000 0.000000 0.000000 0.000000 0.047384
#
#
# Mechanical properties :
#
#
# Convention : Reuss Voigt Hill
#
# Bulk Modulus (GPa) = 43.77310 78.63276 61.20293
# Shear Modulus (GPa) = 23.25241 27.48522 25.36881
#
# Velocity S-wave (km/s) = 3.55676 3.86696 3.71510
# Velocity P-wave (km/s) = 6.37826 7.91948 7.19029
#
# Compressibility (1/GPa) = 0.02284508
#
# Stress axis : x y z
#
# Youngs Moduli (GPa) = 36.31969 61.58765 79.78623
#
# Poissons Ratio (x) = 0.14215 0.40855
# Poissons Ratio (y) = 0.08383 0.74206
# Poissons Ratio (z) = 0.18598 0.57280
#
# Static dielectric constant tensor:
#      x y z
#    x 3.215270 0.000000 0.000000 
#    y 0.000000 3.460300 0.000000 
#    z 0.000000 0.000000 3.651200 
# 
# 
# High freq. dielectric constant tensor:
#      x y z
#    x 1.699520 0.000000 0.000000 
#    y 0.000000 1.699270 0.000000 
#    z 0.000000 0.000000 1.730250 
# 
# From -- ./inp_files/76680.got.cif
#   From: 2010.03.12/outbox.cif.g09.slc.cpg/sg65_39_cif.got.tgz:76680.got - 2010.04.10 20:52:16.
