data_PCOD8268239
_publ_section_title
;
Structure prediction by ZEFSAII (Michael W. Deem and Ramdas Pophale) SiO2 
 PCOD8268239
Probable space group: C M M M
;
_chemical_formula_sum "Si O2"
_cell_formula_units_Z 104
_cell_length_a 18.286879
_cell_length_b 9.350326
_cell_length_c 33.631712
_cell_angle_alpha 90.000000
_cell_angle_beta 90.000000
_cell_angle_gamma 90.000000
_cell_volume 5750.628594
_symmetry_space_group_name_H-M "C M M M"
_symmetry_group_IT_number 65
_symmetry_cell_setting 'orthorhombic'
loop_
_space_group_symop_operation_xyz
x,y,z
-x,-y,z
x,-y,-z
-x,y,-z
-x,-y,-z
x,y,-z
-x,y,z
x,-y,z
1/2+x,1/2+y,z
1/2-x,1/2-y,z
1/2+x,1/2-y,-z
1/2-x,1/2+y,-z
1/2-x,1/2-y,-z
1/2+x,1/2+y,-z
1/2-x,1/2+y,z
1/2+x,1/2-y,z
loop_
_atom_site_type_symbol
_atom_site_label
_atom_site_fract_x
_atom_site_fract_y
_atom_site_fract_z
Si Si1 0.584272 0.165100 0.805706
Si Si2 0.826647 0.169963 0.500000
Si Si3 0.673947 0.330852 0.348064
Si Si4 0.583808 0.332993 0.729145
Si Si5 0.918362 0.330350 0.043996
Si Si6 0.917907 0.169401 0.576282
Si Si7 0.824881 0.669043 0.882735
O O1 0.500000 0.200699 0.813788
O O2 0.614102 0.253187 0.768087
O O3 0.626656 0.211682 0.845019
O O4 0.596739 0.000000 0.795741
O O5 0.750000 0.250000 0.500000
O O6 0.872461 0.221331 0.538172
O O7 0.813026 0.000000 0.500000
O O8 0.688033 0.500000 0.350159
O O9 0.750000 0.250000 0.350576
O O10 0.633007 0.285720 0.307841
O O11 0.623400 0.277739 0.384280
O O12 0.500000 0.289307 0.720093
O O13 0.590431 0.500000 0.737370
O O14 0.921589 0.500000 0.047202
O O15 0.864214 0.270676 0.077595
O O16 0.000000 0.269365 0.051242
O O17 0.890529 0.283907 0.000000
O O18 0.000000 0.234692 0.575202
O O19 0.923832 0.000000 0.576247
O O20 0.811519 0.500000 0.885207
O O21 0.750000 0.750000 0.877979
#
# Coordination Sequence:
#
# PCOD8268239 Si02
#       7
#    16   8  16  16  16  16  16
#     4   9  18  33  52  71  92 122 160 200 238 276
#     4  10  19  31  51  77 103 130 160 198 242 288
#     4  10  20  33  50  72  99 129 159 196 241 286
#     4   9  18  33  52  72  93 121 159 199 238 281
#     4   8  14  27  49  73  93 118 157 199 232 268
#     4   9  17  31  52  75  97 126 167 206 236 275
#     4  10  20  32  47  70  99 127 155 190 234 282
#
# _framework density 18.084980000000002
#
# number of rings (size 3 to 8) (size 9 to 14) (size 15 to 20)
#    0.000    2.769    0.000    2.077    0.000    6.769 
#    0.000    3.077    0.000    4.615    0.000    1.077 
#    0.000    0.000    0.000    0.000    0.000    0.000 
#
# Total GULP energy -644764.082094 kJ/mol
# GULP energy per Si atom -12399.309271 kJ/mol
# Density = 1.804382 g / cm^3
# Si number density = 18.084980 Si / 1000 Ang^3
#
#
#
# Elastic Constant Matrix: (Units=GPa)
#
#
# Indices 1 2 3 4 5 6 
#
# 1 139.4482 39.7122 98.3402 0.0000 0.0000 0.0000
# 2 39.7122 25.7681 43.7905 0.0000 0.0000 0.0000
# 3 98.3402 43.7905 189.1183 0.0000 0.0000 0.0000
# 4 0.0000 0.0000 0.0000 20.0131 0.0000 0.0000
# 5 0.0000 0.0000 0.0000 0.0000 15.9654 0.0000
# 6 0.0000 0.0000 0.0000 0.0000 0.0000 28.6560
#
#
#
# Elastic Compliance Matrix: (Units=1/GPa)
#
#
# Indices 1 2 3 4 5 6 
#
# 1 0.014297 -0.015498 -0.003846 0.000000 0.000000 0.000000
# 2 -0.015498 0.080786 -0.010647 0.000000 0.000000 0.000000
# 3 -0.003846 -0.010647 0.009753 0.000000 0.000000 0.000000
# 4 0.000000 0.000000 0.000000 0.049967 0.000000 0.000000
# 5 0.000000 0.000000 0.000000 0.000000 0.062635 0.000000
# 6 0.000000 0.000000 0.000000 0.000000 0.000000 0.034897
#
#
# Mechanical properties :
#
#
# Convention : Reuss Voigt Hill
#
# Bulk Modulus (GPa) = 22.29456 79.78004 51.03730
# Shear Modulus (GPa) = 15.27804 24.42636 19.85220
#
# Velocity S-wave (km/s) = 2.90968 3.67910 3.31678
# Velocity P-wave (km/s) = 4.86238 7.89034 6.55363
#
# Compressibility (1/GPa) = 0.04485399
#
# Stress axis : x y z
#
# Youngs Moduli (GPa) = 69.94717 12.37838 102.53480
#
# Poissons Ratio (x) = 0.19184 0.39431
# Poissons Ratio (y) = 1.08402 1.09173
# Poissons Ratio (z) = 0.26899 0.13180
#
# Static dielectric constant tensor:
#      x y z
#    x 3.389820 0.000000 0.000000 
#    y 0.000000 2.956210 0.000000 
#    z 0.000000 0.000000 3.682640 
# 
# 
# High freq. dielectric constant tensor:
#      x y z
#    x 1.703970 0.000000 0.000000 
#    y 0.000000 1.657570 0.000000 
#    z 0.000000 0.000000 1.720180 
# 
# From -- ./inp_files/77684.got.cif
#   From: 2010.03.12/outbox.cif.g09.slc.cpg/sg65_39_cif.got.tgz:77684.got - 2010.04.10 20:52:16.
