data_PCOD8268013
_publ_section_title
;
Structure prediction by ZEFSAII (Michael W. Deem and Ramdas Pophale) SiO2 
 PCOD8268013
Probable space group: C M M M
;
_chemical_formula_sum "Si O2"
_cell_formula_units_Z 80
_cell_length_a 18.162903
_cell_length_b 27.159787
_cell_length_c 9.437913
_cell_angle_alpha 90.000000
_cell_angle_beta 90.000000
_cell_angle_gamma 90.000000
_cell_volume 4655.727927
_symmetry_space_group_name_H-M "C M M M"
_symmetry_group_IT_number 65
_symmetry_cell_setting 'orthorhombic'
loop_
_space_group_symop_operation_xyz
x,y,z
-x,-y,z
x,-y,-z
-x,y,-z
-x,-y,-z
x,y,-z
-x,y,z
x,-y,z
1/2+x,1/2+y,z
1/2-x,1/2-y,z
1/2+x,1/2-y,-z
1/2-x,1/2+y,-z
1/2-x,1/2-y,-z
1/2+x,1/2+y,-z
1/2-x,1/2+y,z
1/2+x,1/2-y,z
loop_
_atom_site_type_symbol
_atom_site_label
_atom_site_fract_x
_atom_site_fract_y
_atom_site_fract_z
Si Si1 0.647938 0.555941 0.664291
Si Si2 0.796916 0.609828 0.335297
Si Si3 0.271847 0.695112 0.165018
Si Si4 0.582133 0.358397 0.163176
Si Si5 0.915493 0.443085 0.159730
O O1 0.627907 0.561377 0.500000
O O2 0.636317 0.500000 0.716432
O O3 0.732450 0.570463 0.692347
O O4 0.594035 0.591699 0.749306
O O5 0.807908 0.621010 0.500000
O O6 0.780118 0.660603 0.257028
O O7 0.871810 0.588717 0.272967
O O8 0.250000 0.750000 0.209127
O O9 0.357791 0.683656 0.201814
O O10 0.255806 0.685621 0.000000
O O11 0.500000 0.337840 0.195945
O O12 0.590175 0.373354 0.000000
O O13 0.906030 0.500000 0.198777
O O14 0.000000 0.427087 0.171279
O O15 0.886600 0.433217 0.000000
#
# Coordination Sequence:
#
# PCOD8268013 Si02
#       5
#    16  16  16  16  16
#     4   9  18  31  46  67  96 129 161 189 223 274
#     4  10  19  31  49  72  98 126 159 201 245 290
#     4   9  18  34  54  72  92 123 163 202 243 292
#     4   9  18  32  49  70  95 121 153 195 238 278
#     4   9  18  32  49  70  98 132 167 201 239 286
#
# _framework density 17.183135
#
# number of rings (size 3 to 8) (size 9 to 14) (size 15 to 20)
#    0.000    2.800    0.000    1.800    0.000    4.000 
#    0.000    4.000    0.000    3.600    0.000    0.000 
#    0.000    0.000    0.000    0.000    0.000    0.000 
#
# Total GULP energy -495985.639198 kJ/mol
# GULP energy per Si atom -12399.640980 kJ/mol
# Density = 1.714403 g / cm^3
# Si number density = 17.183135 Si / 1000 Ang^3
#
#
#
# Elastic Constant Matrix: (Units=GPa)
#
#
# Indices 1 2 3 4 5 6 
#
# 1 98.3790 61.7765 45.8810 0.0000 0.0000 0.0000
# 2 61.7765 121.1712 52.4257 0.0000 0.0000 0.0000
# 3 45.8810 52.4257 67.5790 0.0000 0.0000 0.0000
# 4 0.0000 0.0000 0.0000 24.1348 0.0000 0.0000
# 5 0.0000 0.0000 0.0000 0.0000 25.6212 0.0000
# 6 0.0000 0.0000 0.0000 0.0000 0.0000 19.9556
#
#
#
# Elastic Compliance Matrix: (Units=1/GPa)
#
#
# Indices 1 2 3 4 5 6 
#
# 1 0.017032 -0.005540 -0.007266 0.000000 0.000000 0.000000
# 2 -0.005540 0.014224 -0.007273 0.000000 0.000000 0.000000
# 3 -0.007266 -0.007273 0.025373 0.000000 0.000000 0.000000
# 4 0.000000 0.000000 0.000000 0.041434 0.000000 0.000000
# 5 0.000000 0.000000 0.000000 0.000000 0.039030 0.000000
# 6 0.000000 0.000000 0.000000 0.000000 0.000000 0.050111
#
#
# Mechanical properties :
#
#
# Convention : Reuss Voigt Hill
#
# Bulk Modulus (GPa) = 60.71341 67.47731 64.09536
# Shear Modulus (GPa) = 21.47279 22.41207 21.94243
#
# Velocity S-wave (km/s) = 3.53886 3.61544 3.57736
# Velocity P-wave (km/s) = 7.21858 7.53547 7.37873
#
# Compressibility (1/GPa) = 0.01647083
#
# Stress axis : x y z
#
# Youngs Moduli (GPa) = 58.71289 70.30343 39.41193
#
# Poissons Ratio (x) = 0.38947 0.28636
# Poissons Ratio (y) = 0.32526 0.28666
# Poissons Ratio (z) = 0.42660 0.51135
#
# Static dielectric constant tensor:
#      x y z
#    x 3.220150 0.000000 0.000000 
#    y 0.000000 3.102860 0.000000 
#    z 0.000000 0.000000 3.215300 
# 
# 
# High freq. dielectric constant tensor:
#      x y z
#    x 1.662130 0.000000 0.000000 
#    y 0.000000 1.647450 0.000000 
#    z 0.000000 0.000000 1.665200 
# 
# From -- ./inp_files/9620.got.cif
#   From: 2010.03.12/outbox.cif.g09.slc.cpg/sg65_5_cif.got.tgz:9620.got - 2010.04.10 20:52:16.
