data_PCOD8268880
_publ_section_title
;
Structure prediction by ZEFSAII (Michael W. Deem and Ramdas Pophale) SiO2 
 PCOD8268880
Probable space group: C M M M
;
_chemical_formula_sum "Si O2"
_cell_formula_units_Z 80
_cell_length_a 29.235809
_cell_length_b 7.709969
_cell_length_c 19.185768
_cell_angle_alpha 90.000000
_cell_angle_beta 90.000000
_cell_angle_gamma 90.000000
_cell_volume 4324.609882
_symmetry_space_group_name_H-M "C M M M"
_symmetry_group_IT_number 65
_symmetry_cell_setting 'orthorhombic'
loop_
_space_group_symop_operation_xyz
x,y,z
-x,-y,z
x,-y,-z
-x,y,-z
-x,-y,-z
x,y,-z
-x,y,z
x,-y,z
1/2+x,1/2+y,z
1/2-x,1/2-y,z
1/2+x,1/2-y,-z
1/2-x,1/2+y,-z
1/2-x,1/2-y,-z
1/2+x,1/2+y,-z
1/2-x,1/2+y,z
1/2+x,1/2-y,z
loop_
_atom_site_type_symbol
_atom_site_label
_atom_site_fract_x
_atom_site_fract_y
_atom_site_fract_z
Si Si1 0.700520 0.297519 0.674200
Si Si2 0.948775 0.000000 0.082792
Si Si3 0.949495 0.500000 0.417602
Si Si4 0.300309 0.296217 0.169516
Si Si5 0.117263 0.799611 0.581484
Si Si6 0.884379 0.694078 0.919994
O O1 0.695660 0.500000 0.680323
O O2 0.750000 0.250000 0.642728
O O3 0.694835 0.219289 0.751930
O O4 0.661663 0.228740 0.622242
O O5 0.921982 0.828892 0.109443
O O6 0.000000 0.000000 0.114839
O O7 0.952149 0.000000 0.000000
O O8 0.953458 0.500000 0.500000
O O9 0.924105 0.676288 0.393772
O O10 0.000000 0.500000 0.383626
O O11 0.309028 0.500000 0.166555
O O12 0.250000 0.250000 0.140640
O O13 0.337360 0.202691 0.121999
O O14 0.127733 0.777504 0.500000
O O15 0.105032 0.000000 0.599209
O O16 0.904691 0.500000 0.912922
O O17 0.873015 0.739478 0.000000
#
# Coordination Sequence:
#
# PCOD8268880 Si02
#       6
#    16   8   8  16  16  16
#     4   9  19  32  49  75 102 137 176 206 247 302
#     4   9  18  34  56  79 104 134 167 210 260 304
#     4   9  18  32  52  77 100 128 169 212 256 304
#     4  10  19  33  51  74 105 139 176 211 249 304
#     4   9  18  33  51  75 105 133 166 209 256 300
#     4  10  20  34  53  79 106 133 170 212 256 304
#
# _framework density 18.498778999999999
#
# number of rings (size 3 to 8) (size 9 to 14) (size 15 to 20)
#    0.000    2.600    1.000    0.600    1.400    2.400 
#    0.000    4.000    0.000    1.200    0.000    0.000 
#    0.000    0.000    0.000    0.000    0.000    0.000 
#
# Total GULP energy -495910.106539 kJ/mol
# GULP energy per Si atom -12397.752663 kJ/mol
# Density = 1.845667 g / cm^3
# Si number density = 18.498779 Si / 1000 Ang^3
#
#
#
# Elastic Constant Matrix: (Units=GPa)
#
#
# Indices 1 2 3 4 5 6 
#
# 1 172.9693 63.8494 51.5986 0.0000 0.0000 0.0000
# 2 63.8494 101.6735 27.0636 0.0000 0.0000 0.0000
# 3 51.5986 27.0636 46.2617 0.0000 0.0000 0.0000
# 4 0.0000 0.0000 0.0000 12.7959 0.0000 0.0000
# 5 0.0000 0.0000 0.0000 0.0000 10.9265 0.0000
# 6 0.0000 0.0000 0.0000 0.0000 0.0000 30.5961
#
#
#
# Elastic Compliance Matrix: (Units=1/GPa)
#
#
# Indices 1 2 3 4 5 6 
#
# 1 0.009783 -0.003837 -0.008667 0.000000 0.000000 0.000000
# 2 -0.003837 0.013154 -0.003416 0.000000 0.000000 0.000000
# 3 -0.008667 -0.003416 0.033282 0.000000 0.000000 0.000000
# 4 0.000000 0.000000 0.000000 0.078150 0.000000 0.000000
# 5 0.000000 0.000000 0.000000 0.000000 0.091521 0.000000
# 6 0.000000 0.000000 0.000000 0.000000 0.000000 0.032684
#
#
# Mechanical properties :
#
#
# Convention : Reuss Voigt Hill
#
# Bulk Modulus (GPa) = 41.01889 67.32531 54.17210
# Shear Modulus (GPa) = 16.74820 22.75656 19.75238
#
# Velocity S-wave (km/s) = 3.01220 3.51118 3.27122
# Velocity P-wave (km/s) = 5.85831 7.27401 6.60420
#
# Compressibility (1/GPa) = 0.02437901
#
# Stress axis : x y z
#
# Youngs Moduli (GPa) = 102.21657 76.02235 30.04650
#
# Poissons Ratio (x) = 0.29167 0.26042
# Poissons Ratio (y) = 0.39216 0.10264
# Poissons Ratio (z) = 0.88594 0.25970
#
# Static dielectric constant tensor:
#      x y z
#    x 3.433460 0.000000 0.000000 
#    y 0.000000 3.501540 0.000000 
#    z 0.000000 0.000000 3.337980 
# 
# 
# High freq. dielectric constant tensor:
#      x y z
#    x 1.712190 0.000000 0.000000 
#    y 0.000000 1.729460 0.000000 
#    z 0.000000 0.000000 1.685450 
# 
# From -- ./inp_files/57251.got.cif
#   From: 2010.03.12/outbox.cif.g09.slc.cpg/sg65_29_cif.got.tgz:57251.got - 2010.04.10 20:52:16.
