data_PCOD8268320
_publ_section_title
;
Structure prediction by ZEFSAII (Michael W. Deem and Ramdas Pophale) SiO2 
 PCOD8268320
Probable space group: C M M M
;
_chemical_formula_sum "Si O2"
_cell_formula_units_Z 120
_cell_length_a 14.685477
_cell_length_b 20.224041
_cell_length_c 20.803726
_cell_angle_alpha 90.000000
_cell_angle_beta 90.000000
_cell_angle_gamma 90.000000
_cell_volume 6178.700151
_symmetry_space_group_name_H-M "C M M M"
_symmetry_group_IT_number 65
_symmetry_cell_setting 'orthorhombic'
loop_
_space_group_symop_operation_xyz
x,y,z
-x,-y,z
x,-y,-z
-x,y,-z
-x,-y,-z
x,y,-z
-x,y,z
x,-y,z
1/2+x,1/2+y,z
1/2-x,1/2-y,z
1/2+x,1/2-y,-z
1/2-x,1/2+y,-z
1/2-x,1/2-y,-z
1/2+x,1/2+y,-z
1/2-x,1/2+y,z
1/2+x,1/2-y,z
loop_
_atom_site_type_symbol
_atom_site_label
_atom_site_fract_x
_atom_site_fract_y
_atom_site_fract_z
Si Si1 0.896714 0.209517 0.834090
Si Si2 0.105330 0.000000 0.424212
Si Si3 0.604410 0.272945 0.306680
Si Si4 0.865240 0.425616 0.829584
Si Si5 0.343418 0.428467 0.195691
Si Si6 0.099785 0.377698 0.690293
Si Si7 0.396101 0.184779 0.929578
Si Si8 0.199628 0.103903 0.339373
O O1 0.852450 0.225330 0.765085
O O2 0.891692 0.130092 0.844757
O O3 0.848733 0.254803 0.888984
O O4 0.000000 0.233444 0.831068
O O5 0.155824 0.935596 0.397588
O O6 0.115954 0.000000 0.500000
O O7 0.000000 0.000000 0.403252
O O8 0.500000 0.299955 0.308264
O O9 0.607717 0.198322 0.330996
O O10 0.671119 0.319152 0.349636
O O11 0.906777 0.500000 0.832401
O O12 0.758208 0.429899 0.828664
O O13 0.902166 0.387036 0.767122
O O14 0.892311 0.384950 0.892643
O O15 0.389553 0.500000 0.180756
O O16 0.346576 0.418224 0.272486
O O17 0.190774 0.411305 0.660779
O O18 0.000000 0.404391 0.664792
O O19 0.500000 0.204164 0.941062
O O20 0.348513 0.178669 0.000000
#
# Coordination Sequence:
#
# PCOD8268320 Si02
#       8
#    16   8  16  16  16  16  16  16
#     4   9  17  30  48  72 101 133 173 224 283 338
#     4  11  24  42  63  87 121 159 187 216 258 318
#     4   9  16  29  52  81 111 143 179 232 291 336
#     4  10  20  33  48  69 105 143 182 229 282 340
#     4   9  18  32  50  77 105 133 165 219 284 331
#     4  10  19  31  53  82 114 147 184 234 291 339
#     4  10  20  34  50  68  96 137 185 231 276 340
#     4  10  19  34  54  84 116 145 185 226 269 322
#
# _framework density 19.421561000000001
#
# number of rings (size 3 to 8) (size 9 to 14) (size 15 to 20)
#    0.000    2.333    2.000    1.200    0.933    2.667 
#    0.000    2.000    0.000    3.600    0.000    3.733 
#    0.000    0.000    0.000    0.000    0.000    0.000 
#
# Total GULP energy -743316.028013 kJ/mol
# GULP energy per Si atom -12388.600467 kJ/mol
# Density = 1.937736 g / cm^3
# Si number density = 19.421561 Si / 1000 Ang^3
#
#
#
# Elastic Constant Matrix: (Units=GPa)
#
#
# Indices 1 2 3 4 5 6 
#
# 1 85.1175 20.9257 37.8936 0.0000 0.0000 0.0000
# 2 20.9257 121.3123 36.3435 0.0000 0.0000 0.0000
# 3 37.8936 36.3435 69.0580 0.0000 0.0000 0.0000
# 4 0.0000 0.0000 0.0000 21.3974 0.0000 0.0000
# 5 0.0000 0.0000 0.0000 0.0000 15.2708 0.0000
# 6 0.0000 0.0000 0.0000 0.0000 0.0000 26.2852
#
#
#
# Elastic Compliance Matrix: (Units=1/GPa)
#
#
# Indices 1 2 3 4 5 6 
#
# 1 0.015548 -0.000150 -0.008453 0.000000 0.000000 0.000000
# 2 -0.000150 0.009788 -0.005069 0.000000 0.000000 0.000000
# 3 -0.008453 -0.005069 0.021787 0.000000 0.000000 0.000000
# 4 0.000000 0.000000 0.000000 0.046735 0.000000 0.000000
# 5 0.000000 0.000000 0.000000 0.000000 0.065484 0.000000
# 6 0.000000 0.000000 0.000000 0.000000 0.000000 0.038044
#
#
# Mechanical properties :
#
#
# Convention : Reuss Voigt Hill
#
# Bulk Modulus (GPa) = 50.55722 51.75706 51.15714
# Shear Modulus (GPa) = 21.61487 24.61234 23.11360
#
# Velocity S-wave (km/s) = 3.33968 3.56373 3.45353
# Velocity P-wave (km/s) = 6.39995 6.60611 6.50385
#
# Compressibility (1/GPa) = 0.01977957
#
# Stress axis : x y z
#
# Youngs Moduli (GPa) = 64.31492 102.17057 45.89981
#
# Poissons Ratio (x) = 0.01529 0.38799
# Poissons Ratio (y) = 0.00962 0.23266
# Poissons Ratio (z) = 0.54366 0.51789
#
# Static dielectric constant tensor:
#      x y z
#    x 3.621060 0.000000 0.000000 
#    y 0.000000 3.932900 0.000000 
#    z 0.000000 0.000000 3.140200 
# 
# 
# High freq. dielectric constant tensor:
#      x y z
#    x 1.758080 0.000000 0.000000 
#    y 0.000000 1.766710 0.000000 
#    z 0.000000 0.000000 1.688980 
# 
# From -- ./inp_files/63030.got.cif
#   From: 2010.03.12/outbox.cif.g09.slc.cpg/sg65_32_cif.got.tgz:63030.got - 2010.04.10 20:52:16.
