data_PCOD8268179
_publ_section_title
;
Structure prediction by ZEFSAII (Michael W. Deem and Ramdas Pophale) SiO2 
 PCOD8268179
Probable space group: C M M M
;
_chemical_formula_sum "Si O2"
_cell_formula_units_Z 88
_cell_length_a 16.634801
_cell_length_b 26.703393
_cell_length_c 10.935921
_cell_angle_alpha 90.000000
_cell_angle_beta 90.000000
_cell_angle_gamma 90.000000
_cell_volume 4857.797662
_symmetry_space_group_name_H-M "C M M M"
_symmetry_group_IT_number 65
_symmetry_cell_setting 'orthorhombic'
loop_
_space_group_symop_operation_xyz
x,y,z
-x,-y,z
x,-y,-z
-x,y,-z
-x,-y,-z
x,y,-z
-x,y,z
x,-y,z
1/2+x,1/2+y,z
1/2-x,1/2-y,z
1/2+x,1/2-y,-z
1/2-x,1/2+y,-z
1/2-x,1/2-y,-z
1/2+x,1/2+y,-z
1/2-x,1/2+y,z
1/2+x,1/2-y,z
loop_
_atom_site_type_symbol
_atom_site_label
_atom_site_fract_x
_atom_site_fract_y
_atom_site_fract_z
Si Si1 0.409103 0.222483 0.360085
Si Si2 0.404888 0.941115 0.500000
Si Si3 0.753755 0.946155 0.138742
Si Si4 0.178367 0.371631 0.308676
Si Si5 0.348719 0.670562 0.636124
Si Si6 0.590100 0.390105 0.862247
O O1 0.405703 0.203538 0.500000
O O2 0.500000 0.236995 0.322386
O O3 0.379411 0.175372 0.279300
O O4 0.350784 0.269773 0.341080
O O5 0.500000 0.932488 0.500000
O O6 0.366028 0.914640 0.616205
O O7 0.383529 0.000000 0.500000
O O8 0.702073 0.899495 0.184922
O O9 0.848688 0.935818 0.155835
O O10 0.736410 0.000000 0.203910
O O11 0.728946 0.951325 0.000000
O O12 0.258184 0.349734 0.372196
O O13 0.387289 0.659558 0.500000
O O14 0.397693 0.648424 0.750468
O O15 0.500000 0.411410 0.852774
O O16 0.603448 0.366218 0.000000
#
# Coordination Sequence:
#
# PCOD8268179 Si02
#       6
#    16   8  16  16  16  16
#     4  10  19  31  50  76 106 137 173 211 253 313
#     4  11  22  34  51  76 103 133 170 215 266 310
#     4   9  19  35  54  75  99 133 178 222 263 311
#     4  11  19  33  53  76 102 134 169 218 263 308
#     4  10  19  32  52  79 107 140 175 214 260 316
#     4   9  18  32  51  76 107 141 177 217 260 311
#
# _framework density 18.115205
#
# number of rings (size 3 to 8) (size 9 to 14) (size 15 to 20)
#    0.000    2.091    1.818    2.182    0.000    2.909 
#    0.000    2.727    0.000    7.636    0.000    8.909 
#    0.000    0.000    0.000    0.000    0.000    0.000 
#
# Total GULP energy -545122.195540 kJ/mol
# GULP energy per Si atom -12389.140808 kJ/mol
# Density = 1.807397 g / cm^3
# Si number density = 18.115205 Si / 1000 Ang^3
#
#
#
# Elastic Constant Matrix: (Units=GPa)
#
#
# Indices 1 2 3 4 5 6 
#
# 1 92.2660 51.0335 26.1428 0.0000 0.0000 0.0000
# 2 51.0335 138.9415 49.8808 0.0000 0.0000 0.0000
# 3 26.1428 49.8808 80.6841 0.0000 0.0000 0.0000
# 4 0.0000 0.0000 0.0000 24.5672 0.0000 0.0000
# 5 0.0000 0.0000 0.0000 0.0000 20.4280 0.0000
# 6 0.0000 0.0000 0.0000 0.0000 0.0000 28.3837
#
#
#
# Elastic Compliance Matrix: (Units=1/GPa)
#
#
# Indices 1 2 3 4 5 6 
#
# 1 0.013784 -0.004446 -0.001717 0.000000 0.000000 0.000000
# 2 -0.004446 0.010685 -0.005165 0.000000 0.000000 0.000000
# 3 -0.001717 -0.005165 0.016143 0.000000 0.000000 0.000000
# 4 0.000000 0.000000 0.000000 0.040705 0.000000 0.000000
# 5 0.000000 0.000000 0.000000 0.000000 0.048952 0.000000
# 6 0.000000 0.000000 0.000000 0.000000 0.000000 0.035232
#
#
# Mechanical properties :
#
#
# Convention : Reuss Voigt Hill
#
# Bulk Modulus (GPa) = 55.69447 62.88954 59.29200
# Shear Modulus (GPa) = 25.75417 26.99806 26.37611
#
# Velocity S-wave (km/s) = 3.77462 3.86470 3.81992
# Velocity P-wave (km/s) = 7.05750 7.39637 7.22892
#
# Compressibility (1/GPa) = 0.01795510
#
# Stress axis : x y z
#
# Youngs Moduli (GPa) = 72.54678 93.59233 61.94451
#
# Poissons Ratio (x) = 0.41615 0.10638
# Poissons Ratio (y) = 0.32257 0.31993
# Poissons Ratio (z) = 0.12459 0.48338
#
# Static dielectric constant tensor:
#      x y z
#    x 3.372130 0.000000 0.000000 
#    y 0.000000 3.403500 0.000000 
#    z 0.000000 0.000000 3.369350 
# 
# 
# High freq. dielectric constant tensor:
#      x y z
#    x 1.702220 0.000000 0.000000 
#    y 0.000000 1.703830 0.000000 
#    z 0.000000 0.000000 1.681720 
# 
# From -- ./inp_files/25103.got.cif
#   From: 2010.03.12/outbox.cif.g09.slc.cpg/sg65_13_cif.got.tgz:25103.got - 2010.04.10 20:52:16.
