data_PCOD8268217
_publ_section_title
;
Structure prediction by ZEFSAII (Michael W. Deem and Ramdas Pophale) SiO2 
 PCOD8268217
Probable space group: C M M M
;
_chemical_formula_sum "Si O2"
_cell_formula_units_Z 64
_cell_length_a 8.657269
_cell_length_b 15.462714
_cell_length_c 24.210878
_cell_angle_alpha 90.000000
_cell_angle_beta 90.000000
_cell_angle_gamma 90.000000
_cell_volume 3240.986147
_symmetry_space_group_name_H-M "C M M M"
_symmetry_group_IT_number 65
_symmetry_cell_setting 'orthorhombic'
loop_
_space_group_symop_operation_xyz
x,y,z
-x,-y,z
x,-y,-z
-x,y,-z
-x,-y,-z
x,y,-z
-x,y,z
x,-y,z
1/2+x,1/2+y,z
1/2-x,1/2-y,z
1/2+x,1/2-y,-z
1/2-x,1/2+y,-z
1/2-x,1/2-y,-z
1/2+x,1/2+y,-z
1/2-x,1/2+y,z
1/2+x,1/2-y,z
loop_
_atom_site_type_symbol
_atom_site_label
_atom_site_fract_x
_atom_site_fract_y
_atom_site_fract_z
Si Si1 0.683209 0.000000 0.705610
Si Si2 0.182825 0.500000 0.419608
Si Si3 0.184288 0.843311 0.000000
Si Si4 0.816753 0.161348 0.769607
Si Si5 0.317924 0.404915 0.883900
Si Si6 0.317076 0.150978 0.500000
O O1 0.747453 0.915520 0.734579
O O2 0.500000 0.000000 0.708719
O O3 0.743915 0.000000 0.642810
O O4 0.238369 0.409344 0.448134
O O5 0.000000 0.500000 0.423289
O O6 0.250000 0.750000 0.000000
O O7 0.253822 0.885577 0.944191
O O8 0.000000 0.846473 0.000000
O O9 0.750000 0.250000 0.744952
O O10 0.761483 0.156093 0.833949
O O11 0.000000 0.158055 0.764831
O O12 0.500000 0.397814 0.890048
O O13 0.265722 0.500000 0.865931
O O14 0.500000 0.163543 0.500000
O O15 0.250000 0.250000 0.500000
#
# Coordination Sequence:
#
# PCOD8268217 Si02
#       6
#     8   8   8  16  16   8
#     4  11  22  39  60  85 115 152 196 239 282 330
#     4   8  18  36  58  82 115 153 187 225 276 331
#     4  10  19  31  51  75 101 132 172 222 278 340
#     4  11  22  38  58  82 113 150 191 237 287 343
#     4   9  17  32  54  77 101 135 180 227 279 340
#     4   9  17  35  60  86 116 151 185 225 274 326
#
# _framework density 19.747077000000001
#
# number of rings (size 3 to 8) (size 9 to 14) (size 15 to 20)
#    0.000    2.250    1.250    3.000    0.000    2.500 
#    0.000    7.500    0.000    0.750    0.000    0.000 
#    0.000    0.000    0.000    0.000    0.000    0.000 
#
# Total GULP energy -396443.440839 kJ/mol
# GULP energy per Si atom -12388.857526 kJ/mol
# Density = 1.970213 g / cm^3
# Si number density = 19.747077 Si / 1000 Ang^3
#
#
#
# Elastic Constant Matrix: (Units=GPa)
#
#
# Indices 1 2 3 4 5 6 
#
# 1 42.7471 29.3532 42.6499 0.0000 0.0000 0.0000
# 2 29.3532 174.0461 83.0747 0.0000 0.0000 0.0000
# 3 42.6499 83.0747 163.2347 0.0000 0.0000 0.0000
# 4 0.0000 0.0000 0.0000 -51.2719 0.0000 0.0000
# 5 0.0000 0.0000 0.0000 0.0000 20.5845 0.0000
# 6 0.0000 0.0000 0.0000 0.0000 0.0000 35.2009
#
#
#
# Elastic Compliance Matrix: (Units=1/GPa)
#
#
# Indices 1 2 3 4 5 6 
#
# 1 0.032093 -0.001863 -0.007437 0.000000 0.000000 0.000000
# 2 -0.001863 0.007697 -0.003431 0.000000 0.000000 0.000000
# 3 -0.007437 -0.003431 0.009815 0.000000 0.000000 0.000000
# 4 0.000000 0.000000 0.000000 -0.019504 0.000000 0.000000
# 5 0.000000 0.000000 0.000000 0.000000 0.048580 0.000000
# 6 0.000000 0.000000 0.000000 0.000000 0.000000 0.028408
#
#
# Mechanical properties :
#
#
# Convention : Reuss Voigt Hill
#
# Bulk Modulus (GPa) = 41.41778 76.68706 59.05242
# Shear Modulus (GPa) = 35.56208 15.89938 25.73073
#
# Velocity S-wave (km/s) = 4.24828 2.84060 3.61365
# Velocity P-wave (km/s) = 6.71442 7.04823 6.88335
#
# Compressibility (1/GPa) = 0.02414422
#
# Stress axis : x y z
#
# Youngs Moduli (GPa) = 31.15973 129.91658 101.88146
#
# Poissons Ratio (x) = 0.24198 0.75772
# Poissons Ratio (y) = 0.05804 0.34952
# Poissons Ratio (z) = 0.23174 0.44570
#
# Static dielectric constant tensor:
#      x y z
#    x 3.152530 0.000000 0.000000 
#    y 0.000000 3.754660 0.000000 
#    z 0.000000 0.000000 3.825650 
# 
# 
# High freq. dielectric constant tensor:
#      x y z
#    x 1.731770 0.000000 0.000000 
#    y 0.000000 1.783520 0.000000 
#    z 0.000000 0.000000 1.778580 
# 
# From -- ./inp_files/66887.got.cif
#   From: 2010.03.12/outbox.cif.g09.slc.cpg/sg65_34_cif.got.tgz:66887.got - 2010.04.10 20:52:16.
