data_PCOD8268860
_publ_section_title
;
Structure prediction by ZEFSAII (Michael W. Deem and Ramdas Pophale) SiO2 
 PCOD8268860
Probable space group: C M M M
;
_chemical_formula_sum "Si O2"
_cell_formula_units_Z 112
_cell_length_a 26.731394
_cell_length_b 18.506021
_cell_length_c 12.989652
_cell_angle_alpha 90.000000
_cell_angle_beta 90.000000
_cell_angle_gamma 90.000000
_cell_volume 6425.873533
_symmetry_space_group_name_H-M "C M M M"
_symmetry_group_IT_number 65
_symmetry_cell_setting 'orthorhombic'
loop_
_space_group_symop_operation_xyz
x,y,z
-x,-y,z
x,-y,-z
-x,y,-z
-x,-y,-z
x,y,-z
-x,y,z
x,-y,z
1/2+x,1/2+y,z
1/2-x,1/2-y,z
1/2+x,1/2-y,-z
1/2-x,1/2+y,-z
1/2-x,1/2-y,-z
1/2+x,1/2+y,-z
1/2-x,1/2+y,z
1/2+x,1/2-y,z
loop_
_atom_site_type_symbol
_atom_site_label
_atom_site_fract_x
_atom_site_fract_y
_atom_site_fract_z
Si Si1 0.739486 0.916247 0.201629
Si Si2 0.847848 0.917833 0.881149
Si Si3 0.057701 0.704917 0.385096
Si Si4 0.725776 0.672371 0.384987
Si Si5 0.369386 0.704718 0.741841
Si Si6 0.557410 0.083752 0.227555
Si Si7 0.355051 0.160575 0.117958
O O1 0.789641 0.898609 0.137756
O O2 0.740701 0.878938 0.313331
O O3 0.692749 0.889765 0.135293
O O4 0.732779 0.000000 0.222163
O O5 0.882520 0.864023 0.814216
O O6 0.859133 0.000000 0.846965
O O7 0.860703 0.906246 0.000000
O O8 0.080908 0.702068 0.500000
O O9 0.081756 0.768665 0.317875
O O10 0.066715 0.626448 0.334208
O O11 0.000000 0.724651 0.390106
O O12 0.724033 0.639245 0.500000
O O13 0.750000 0.750000 0.387073
O O14 0.669913 0.678899 0.342821
O O15 0.347852 0.768624 0.812739
O O16 0.500000 0.093918 0.189896
O O17 0.594203 0.116305 0.141794
O O18 0.569717 0.000000 0.247776
O O19 0.357473 0.185187 0.000000
#
# Coordination Sequence:
#
# PCOD8268860 Si02
#       7
#    16  16  16  16  16  16  16
#     4  10  20  33  47  71 102 130 164 205 244 287
#     4   9  18  32  51  74 101 132 163 198 243 292
#     4   9  18  33  54  77  99 126 161 203 250 293
#     4  10  19  33  51  70  95 130 163 196 242 294
#     4  10  19  33  52  76 100 129 163 205 242 292
#     4   9  19  34  49  69  98 130 168 210 248 289
#     4  11  21  32  49  71  97 132 171 207 247 290
#
# _framework density 17.429537
#
# number of rings (size 3 to 8) (size 9 to 14) (size 15 to 20)
#    0.000    2.286    1.429    1.714    0.000    2.571 
#    0.000    4.286    0.000    4.714    0.000    2.000 
#    0.000    0.000    0.000    0.000    0.000    0.000 
#
# Total GULP energy -694410.360121 kJ/mol
# GULP energy per Si atom -12400.185002 kJ/mol
# Density = 1.738987 g / cm^3
# Si number density = 17.429537 Si / 1000 Ang^3
#
#
#
# Elastic Constant Matrix: (Units=GPa)
#
#
# Indices 1 2 3 4 5 6 
#
# 1 41.9531 20.8022 23.2593 0.0000 0.0000 0.0000
# 2 20.8022 84.2271 34.2771 0.0000 0.0000 0.0000
# 3 23.2593 34.2771 107.8004 0.0000 0.0000 0.0000
# 4 0.0000 0.0000 0.0000 24.6192 0.0000 0.0000
# 5 0.0000 0.0000 0.0000 0.0000 23.5415 0.0000
# 6 0.0000 0.0000 0.0000 0.0000 0.0000 24.0558
#
#
#
# Elastic Compliance Matrix: (Units=1/GPa)
#
#
# Indices 1 2 3 4 5 6 
#
# 1 0.028999 -0.005302 -0.004571 0.000000 0.000000 0.000000
# 2 -0.005302 0.014607 -0.003500 0.000000 0.000000 0.000000
# 3 -0.004571 -0.003500 0.011376 0.000000 0.000000 0.000000
# 4 0.000000 0.000000 0.000000 0.040619 0.000000 0.000000
# 5 0.000000 0.000000 0.000000 0.000000 0.042478 0.000000
# 6 0.000000 0.000000 0.000000 0.000000 0.000000 0.041570
#
#
# Mechanical properties :
#
#
# Convention : Reuss Voigt Hill
#
# Bulk Modulus (GPa) = 35.41746 43.40642 39.41194
# Shear Modulus (GPa) = 23.16881 24.81943 23.99412
#
# Velocity S-wave (km/s) = 3.64989 3.77767 3.71433
# Velocity P-wave (km/s) = 6.17469 6.63217 6.40751
#
# Compressibility (1/GPa) = 0.02823466
#
# Stress axis : x y z
#
# Youngs Moduli (GPa) = 34.48352 68.46186 87.90641
#
# Poissons Ratio (x) = 0.36298 0.40183
# Poissons Ratio (y) = 0.18283 0.30772
# Poissons Ratio (z) = 0.15763 0.23965
#
# Static dielectric constant tensor:
#      x y z
#    x 3.202730 0.000000 0.000000 
#    y 0.000000 3.294820 0.000000 
#    z 0.000000 0.000000 3.409300 
# 
# 
# High freq. dielectric constant tensor:
#      x y z
#    x 1.655400 0.000000 0.000000 
#    y 0.000000 1.673100 0.000000 
#    z 0.000000 0.000000 1.679400 
# 
# From -- ./inp_files/31096.got.cif
#   From: 2010.03.12/outbox.cif.g09.slc.cpg/sg65_16_cif.got.tgz:31096.got - 2010.04.10 20:52:16.
