data_PCOD8268608
_publ_section_title
;
Structure prediction by ZEFSAII (Michael W. Deem and Ramdas Pophale) SiO2 
 PCOD8268608
Probable space group: C M M M
;
_chemical_formula_sum "Si O2"
_cell_formula_units_Z 96
_cell_length_a 23.610184
_cell_length_b 8.621962
_cell_length_c 25.831385
_cell_angle_alpha 90.000000
_cell_angle_beta 90.000000
_cell_angle_gamma 90.000000
_cell_volume 5258.394541
_symmetry_space_group_name_H-M "C M M M"
_symmetry_group_IT_number 65
_symmetry_cell_setting 'orthorhombic'
loop_
_space_group_symop_operation_xyz
x,y,z
-x,-y,z
x,-y,-z
-x,y,-z
-x,-y,-z
x,y,-z
-x,y,z
x,-y,z
1/2+x,1/2+y,z
1/2-x,1/2-y,z
1/2+x,1/2-y,-z
1/2-x,1/2+y,-z
1/2-x,1/2-y,-z
1/2+x,1/2+y,-z
1/2-x,1/2+y,z
1/2+x,1/2-y,z
loop_
_atom_site_type_symbol
_atom_site_label
_atom_site_fract_x
_atom_site_fract_y
_atom_site_fract_z
Si Si1 0.811532 0.182687 0.146856
Si Si2 0.500000 0.682740 0.903152
Si Si3 0.382493 0.817254 0.239945
Si Si4 0.000000 0.816183 0.783432
Si Si5 0.688275 0.318315 0.554595
Si Si6 0.813067 0.815671 0.666953
Si Si7 0.384054 0.821847 0.059654
O O1 0.750000 0.250000 0.158052
O O2 0.854113 0.234881 0.191228
O O3 0.835097 0.236827 0.091659
O O4 0.807162 0.000000 0.147215
O O5 0.500000 0.500000 0.909366
O O6 0.500000 0.732484 0.843445
O O7 0.554838 0.748634 0.931191
O O8 0.446298 0.757825 0.244730
O O9 0.351865 0.771526 0.292520
O O10 0.380125 0.000000 0.231490
O O11 0.000000 0.000000 0.776135
O O12 0.656664 0.267347 0.500000
O O13 0.695661 0.500000 0.554681
O O14 0.750000 0.250000 0.553627
O O15 0.660305 0.272610 0.609852
O O16 0.750000 0.750000 0.672497
O O17 0.812725 0.000000 0.677369
O O18 0.386360 0.000000 0.076928
O O19 0.367275 0.803322 0.000000
#
# Coordination Sequence:
#
# PCOD8268608 Si02
#       7
#    16   8  16   8  16  16  16
#     4  12  25  42  62  84 111 146 184 224 271 325
#     4  11  22  38  63  90 115 143 179 225 272 323
#     4  12  24  39  59  83 111 144 182 226 274 328
#     4  11  23  40  62  87 110 139 177 224 275 326
#     4   8  14  25  43  69 103 144 186 226 269 315
#     4  10  19  32  51  78 114 151 188 230 272 323
#     4  11  24  41  62  88 116 146 181 222 269 323
#
# _framework density 18.256523000000001
#
# number of rings (size 3 to 8) (size 9 to 14) (size 15 to 20)
#    0.000    1.333    1.667    5.250    0.000    4.000 
#    0.000    0.000    0.000    0.000    0.000    0.583 
#    0.000    4.667    0.000    0.000    0.000    0.000 
#
# Total GULP energy -595004.881392 kJ/mol
# GULP energy per Si atom -12395.935029 kJ/mol
# Density = 1.821497 g / cm^3
# Si number density = 18.256523 Si / 1000 Ang^3
#
#
#
# Elastic Constant Matrix: (Units=GPa)
#
#
# Indices 1 2 3 4 5 6 
#
# 1 91.9341 26.9929 36.5119 0.0000 0.0000 0.0000
# 2 26.9929 99.7694 40.2252 0.0000 0.0000 0.0000
# 3 36.5119 40.2252 123.1006 0.0000 0.0000 0.0000
# 4 0.0000 0.0000 0.0000 22.8911 0.0000 0.0000
# 5 0.0000 0.0000 0.0000 0.0000 15.4024 0.0000
# 6 0.0000 0.0000 0.0000 0.0000 0.0000 25.7400
#
#
#
# Elastic Compliance Matrix: (Units=1/GPa)
#
#
# Indices 1 2 3 4 5 6 
#
# 1 0.012741 -0.002215 -0.003055 0.000000 0.000000 0.000000
# 2 -0.002215 0.011929 -0.003241 0.000000 0.000000 0.000000
# 3 -0.003055 -0.003241 0.010089 0.000000 0.000000 0.000000
# 4 0.000000 0.000000 0.000000 0.043685 0.000000 0.000000
# 5 0.000000 0.000000 0.000000 0.000000 0.064925 0.000000
# 6 0.000000 0.000000 0.000000 0.000000 0.000000 0.038850
#
#
# Mechanical properties :
#
#
# Convention : Reuss Voigt Hill
#
# Bulk Modulus (GPa) = 56.38248 58.02934 57.20591
# Shear Modulus (GPa) = 24.37195 26.87832 25.62513
#
# Velocity S-wave (km/s) = 3.65769 3.84116 3.75055
# Velocity P-wave (km/s) = 6.98490 7.17825 7.08223
#
# Compressibility (1/GPa) = 0.01773600
#
# Stress axis : x y z
#
# Youngs Moduli (GPa) = 78.48567 83.82798 99.12131
#
# Poissons Ratio (x) = 0.18571 0.30283
# Poissons Ratio (y) = 0.17388 0.32125
# Poissons Ratio (z) = 0.23979 0.27168
#
# Static dielectric constant tensor:
#      x y z
#    x 2.956420 0.000000 0.000000 
#    y 0.000000 3.389850 0.000000 
#    z 0.000000 0.000000 3.992500 
# 
# 
# High freq. dielectric constant tensor:
#      x y z
#    x 1.679340 0.000000 0.000000 
#    y 0.000000 1.726330 0.000000 
#    z 0.000000 0.000000 1.725650 
# 
# From -- ./inp_files/71490.got.cif
#   From: 2010.03.12/outbox.cif.g09.slc.cpg/sg65_36_cif.got.tgz:71490.got - 2010.04.10 20:52:16.
