data_PCOD8268271
_publ_section_title
;
Structure prediction by ZEFSAII (Michael W. Deem and Ramdas Pophale) SiO2 
 PCOD8268271
Probable space group: C M M M
;
_chemical_formula_sum "Si O2"
_cell_formula_units_Z 96
_cell_length_a 23.559155
_cell_length_b 24.837737
_cell_length_c 9.014398
_cell_angle_alpha 90.000000
_cell_angle_beta 90.000000
_cell_angle_gamma 90.000000
_cell_volume 5274.829940
_symmetry_space_group_name_H-M "C M M M"
_symmetry_group_IT_number 65
_symmetry_cell_setting 'orthorhombic'
loop_
_space_group_symop_operation_xyz
x,y,z
-x,-y,z
x,-y,-z
-x,y,-z
-x,-y,-z
x,y,-z
-x,y,z
x,-y,z
1/2+x,1/2+y,z
1/2-x,1/2-y,z
1/2+x,1/2-y,-z
1/2-x,1/2+y,-z
1/2-x,1/2-y,-z
1/2+x,1/2+y,-z
1/2-x,1/2+y,z
1/2+x,1/2-y,z
loop_
_atom_site_type_symbol
_atom_site_label
_atom_site_fract_x
_atom_site_fract_y
_atom_site_fract_z
Si Si1 0.666750 0.939053 0.172774
Si Si2 0.566131 0.755891 0.328585
Si Si3 0.269952 0.386883 0.333651
Si Si4 0.867770 0.838356 0.824827
Si Si5 0.881065 0.059043 0.333147
Si Si6 0.564281 0.864719 0.829965
O O1 0.711614 0.901810 0.255856
O O2 0.604370 0.915415 0.204023
O O3 0.667913 0.000000 0.233992
O O4 0.681981 0.937956 0.000000
O O5 0.582900 0.749610 0.500000
O O6 0.500000 0.744634 0.301689
O O7 0.601253 0.714413 0.231204
O O8 0.582191 0.815560 0.275248
O O9 0.256996 0.366207 0.500000
O O10 0.303727 0.339990 0.242991
O O11 0.312054 0.438616 0.337194
O O12 0.903092 0.891933 0.770693
O O13 0.864452 0.837876 0.000000
O O14 0.905162 0.067165 0.500000
O O15 0.899183 0.000000 0.271841
O O16 0.500000 0.883400 0.796500
O O17 0.570730 0.845536 0.000000
#
# Coordination Sequence:
#
# PCOD8268271 Si02
#       6
#    16  16  16  16  16  16
#     4  10  20  33  52  80 111 142 178 218 261 314
#     4  10  20  36  58  80 103 135 178 223 266 317
#     4   9  18  32  49  73 105 140 177 213 255 308
#     4  10  19  31  51  79 108 138 174 218 266 315
#     4   8  15  28  46  69 100 137 173 207 248 302
#     4   9  19  36  56  78 106 140 177 220 269 316
#
# _framework density 18.199638
#
# number of rings (size 3 to 8) (size 9 to 14) (size 15 to 20)
#    1.000    1.667    0.000    2.500    0.000    3.333 
#    0.000    2.500    0.000    5.500    0.000    7.000 
#    0.000    0.000    0.000    0.000    0.000    0.000 
#
# Total GULP energy -594796.433642 kJ/mol
# GULP energy per Si atom -12391.592368 kJ/mol
# Density = 1.815821 g / cm^3
# Si number density = 18.199638 Si / 1000 Ang^3
#
#
#
# Elastic Constant Matrix: (Units=GPa)
#
#
# Indices 1 2 3 4 5 6 
#
# 1 62.8532 41.4874 41.4192 0.0000 0.0000 0.0000
# 2 41.4874 60.9384 39.0481 0.0000 0.0000 0.0000
# 3 41.4192 39.0481 110.5551 0.0000 0.0000 0.0000
# 4 0.0000 0.0000 0.0000 24.5875 0.0000 0.0000
# 5 0.0000 0.0000 0.0000 0.0000 25.7317 0.0000
# 6 0.0000 0.0000 0.0000 0.0000 0.0000 28.1526
#
#
#
# Elastic Compliance Matrix: (Units=1/GPa)
#
#
# Indices 1 2 3 4 5 6 
#
# 1 0.031216 -0.017783 -0.005414 0.000000 0.000000 0.000000
# 2 -0.017783 0.031341 -0.004407 0.000000 0.000000 0.000000
# 3 -0.005414 -0.004407 0.012630 0.000000 0.000000 0.000000
# 4 0.000000 0.000000 0.000000 0.040671 0.000000 0.000000
# 5 0.000000 0.000000 0.000000 0.000000 0.038863 0.000000
# 6 0.000000 0.000000 0.000000 0.000000 0.000000 0.035521
#
#
# Mechanical properties :
#
#
# Convention : Reuss Voigt Hill
#
# Bulk Modulus (GPa) = 50.05352 53.13956 51.59654
# Shear Modulus (GPa) = 19.83272 23.18716 21.50994
#
# Velocity S-wave (km/s) = 3.30469 3.57325 3.44159
# Velocity P-wave (km/s) = 6.49026 6.80336 6.64865
#
# Compressibility (1/GPa) = 0.01997862
#
# Stress axis : x y z
#
# Youngs Moduli (GPa) = 32.03522 31.90732 79.17489
#
# Poissons Ratio (x) = 0.56740 0.42865
# Poissons Ratio (y) = 0.56967 0.34895
# Poissons Ratio (z) = 0.17344 0.14063
#
# Static dielectric constant tensor:
#      x y z
#    x 3.116670 0.000000 0.000000 
#    y 0.000000 3.206650 0.000000 
#    z 0.000000 0.000000 3.372020 
# 
# 
# High freq. dielectric constant tensor:
#      x y z
#    x 1.681790 0.000000 0.000000 
#    y 0.000000 1.693150 0.000000 
#    z 0.000000 0.000000 1.707720 
# 
# From -- ./inp_files/12266.got.cif
#   From: 2010.03.12/outbox.cif.g09.slc.cpg/sg65_7_cif.got.tgz:12266.got - 2010.04.10 20:52:16.
