data_PCOD8268543
_publ_section_title
;
Structure prediction by ZEFSAII (Michael W. Deem and Ramdas Pophale) SiO2 
 PCOD8268543
Probable space group: C M M M
;
_chemical_formula_sum "Si O2"
_cell_formula_units_Z 104
_cell_length_a 8.241989
_cell_length_b 19.988739
_cell_length_c 34.481048
_cell_angle_alpha 90.000000
_cell_angle_beta 90.000000
_cell_angle_gamma 90.000000
_cell_volume 5680.648076
_symmetry_space_group_name_H-M "C M M M"
_symmetry_group_IT_number 65
_symmetry_cell_setting 'orthorhombic'
loop_
_space_group_symop_operation_xyz
x,y,z
-x,-y,z
x,-y,-z
-x,y,-z
-x,-y,-z
x,y,-z
-x,y,z
x,-y,z
1/2+x,1/2+y,z
1/2-x,1/2-y,z
1/2+x,1/2-y,-z
1/2-x,1/2+y,-z
1/2-x,1/2-y,-z
1/2+x,1/2+y,-z
1/2-x,1/2+y,z
1/2+x,1/2-y,z
loop_
_atom_site_type_symbol
_atom_site_label
_atom_site_fract_x
_atom_site_fract_y
_atom_site_fract_z
Si Si1 0.686154 0.076449 0.377984
Si Si2 0.316158 0.420710 0.541974
Si Si3 0.681271 0.579315 0.088659
Si Si4 0.000000 0.420430 0.044361
Si Si5 0.187325 0.576019 0.170142
Si Si6 0.807735 0.822017 0.767912
Si Si7 0.313390 0.319364 0.681270
O O1 0.500000 0.081695 0.366829
O O2 0.711300 0.105393 0.421634
O O3 0.784146 0.119079 0.347129
O O4 0.748993 0.000000 0.375530
O O5 0.251837 0.393280 0.500000
O O6 0.500000 0.396535 0.548341
O O7 0.307017 0.500000 0.540614
O O8 0.500000 0.605361 0.075693
O O9 0.684989 0.500000 0.084654
O O10 0.832388 0.608507 0.063379
O O11 0.707571 0.600252 0.133374
O O12 0.000000 0.500000 0.048730
O O13 0.000000 0.397196 0.000000
O O14 0.231909 0.500000 0.181403
O O15 0.224421 0.620940 0.207031
O O16 0.000000 0.581656 0.158082
O O17 0.750000 0.750000 0.783585
O O18 0.739073 0.832161 0.724027
O O19 0.000000 0.828978 0.771003
O O20 0.500000 0.309458 0.687815
O O21 0.250000 0.250000 0.662771
#
# Coordination Sequence:
#
# PCOD8268543 Si02
#       7
#    16  16  16   8  16  16  16
#     4  10  20  32  49  75 104 132 165 206 246 290
#     4   8  14  26  45  69  97 128 161 198 243 291
#     4   9  16  27  43  64  94 132 171 211 257 308
#     4   9  16  26  40  62  96 134 172 212 255 309
#     4  10  19  32  51  74 102 137 172 210 260 310
#     4  10  21  36  53  74  99 130 167 212 259 304
#     4  10  21  37  55  72  96 131 169 206 252 306
#
# _framework density 18.307770000000001
#
# number of rings (size 3 to 8) (size 9 to 14) (size 15 to 20)
#    0.000    2.538    0.769    2.308    0.000    4.923 
#    0.000    6.154    0.000    0.462    0.000    0.000 
#    0.000    0.615    0.308    0.000    0.000    0.000 
#
# Total GULP energy -644467.791586 kJ/mol
# GULP energy per Si atom -12393.611377 kJ/mol
# Density = 1.826610 g / cm^3
# Si number density = 18.307770 Si / 1000 Ang^3
#
#
#
# Elastic Constant Matrix: (Units=GPa)
#
#
# Indices 1 2 3 4 5 6 
#
# 1 83.6399 20.9701 42.1470 0.0000 0.0000 0.0000
# 2 20.9701 56.6468 45.8229 0.0000 0.0000 0.0000
# 3 42.1470 45.8229 111.2263 0.0000 0.0000 0.0000
# 4 0.0000 0.0000 0.0000 -5.5629 0.0000 0.0000
# 5 0.0000 0.0000 0.0000 0.0000 28.6237 0.0000
# 6 0.0000 0.0000 0.0000 0.0000 0.0000 21.3293
#
#
#
# Elastic Compliance Matrix: (Units=1/GPa)
#
#
# Indices 1 2 3 4 5 6 
#
# 1 0.014853 -0.001418 -0.005044 0.000000 0.000000 0.000000
# 2 -0.001418 0.026612 -0.010426 0.000000 0.000000 0.000000
# 3 -0.005044 -0.010426 0.015197 0.000000 0.000000 0.000000
# 4 0.000000 0.000000 0.000000 -0.179763 0.000000 0.000000
# 5 0.000000 0.000000 0.000000 0.000000 0.034936 0.000000
# 6 0.000000 0.000000 0.000000 0.000000 0.000000 0.046884
#
#
# Mechanical properties :
#
#
# Convention : Reuss Voigt Hill
#
# Bulk Modulus (GPa) = 43.69515 52.15476 47.92496
# Shear Modulus (GPa) = 39693.79575 18.38290 19856.08932
#
# Velocity S-wave (km/s) = 147.40577 3.17220 104.25575
# Velocity P-wave (km/s) = 170.27977 6.47817 120.49309
#
# Compressibility (1/GPa) = 0.02288583
#
# Stress axis : x y z
#
# Youngs Moduli (GPa) = 67.32482 37.57654 65.80055
#
# Poissons Ratio (x) = 0.05329 0.33190
# Poissons Ratio (y) = 0.09549 0.68606
# Poissons Ratio (z) = 0.33959 0.39178
#
# Static dielectric constant tensor:
#      x y z
#    x 3.536940 0.000000 0.000000 
#    y 0.000000 2.917700 0.000000 
#    z 0.000000 0.000000 3.622310 
# 
# 
# High freq. dielectric constant tensor:
#      x y z
#    x 1.721190 0.000000 0.000000 
#    y 0.000000 1.653500 0.000000 
#    z 0.000000 0.000000 1.714020 
# 
# From -- ./inp_files/76944.got.cif
#   From: 2010.03.12/outbox.cif.g09.slc.cpg/sg65_39_cif.got.tgz:76944.got - 2010.04.10 20:52:16.
