data_PCOD8268749
_publ_section_title
;
Structure prediction by ZEFSAII (Michael W. Deem and Ramdas Pophale) SiO2 
 PCOD8268749
Probable space group: C M M M
;
_chemical_formula_sum "Si O2"
_cell_formula_units_Z 104
_cell_length_a 14.610811
_cell_length_b 18.886609
_cell_length_c 20.170383
_cell_angle_alpha 90.000000
_cell_angle_beta 90.000000
_cell_angle_gamma 90.000000
_cell_volume 5565.990454
_symmetry_space_group_name_H-M "C M M M"
_symmetry_group_IT_number 65
_symmetry_cell_setting 'orthorhombic'
loop_
_space_group_symop_operation_xyz
x,y,z
-x,-y,z
x,-y,-z
-x,y,-z
-x,-y,-z
x,y,-z
-x,y,z
x,-y,z
1/2+x,1/2+y,z
1/2-x,1/2-y,z
1/2+x,1/2-y,-z
1/2-x,1/2+y,-z
1/2-x,1/2-y,-z
1/2+x,1/2+y,-z
1/2-x,1/2+y,z
1/2+x,1/2-y,z
loop_
_atom_site_type_symbol
_atom_site_label
_atom_site_fract_x
_atom_site_fract_y
_atom_site_fract_z
Si Si1 0.104424 0.754741 0.773108
Si Si2 0.397390 0.203479 0.374603
Si Si3 0.761937 0.581126 0.345560
Si Si4 0.000000 0.923606 0.077550
Si Si5 0.805847 0.082819 0.927361
Si Si6 0.738797 0.137256 0.201990
Si Si7 0.106185 0.149876 0.425471
O O1 0.109916 0.743465 0.694995
O O2 0.165710 0.821576 0.791577
O O3 0.149206 0.685532 0.805544
O O4 0.000000 0.765227 0.797774
O O5 0.500000 0.176302 0.388628
O O6 0.333495 0.134675 0.380291
O O7 0.367607 0.266203 0.424548
O O8 0.784432 0.500000 0.365008
O O9 0.767923 0.586246 0.265719
O O10 0.662562 0.602405 0.373425
O O11 0.904828 0.882546 0.093945
O O12 0.000000 0.000000 0.115006
O O13 0.000000 0.937350 0.000000
O O14 0.735189 0.096555 0.868124
O O15 0.821633 0.000000 0.935039
O O16 0.772761 0.112451 0.000000
O O17 0.124478 0.122220 0.500000
O O18 0.000000 0.141111 0.405321
#
# Coordination Sequence:
#
# PCOD8268749 Si02
#       7
#    16  16  16   8  16  16  16
#     4   9  18  33  52  74 101 133 172 217 261 305
#     4   9  18  36  58  77 102 140 185 222 255 307
#     4  11  22  34  52  83 116 139 169 220 275 320
#     4   7  12  24  40  62  92 124 159 195 240 302
#     4   9  17  30  48  70 100 137 172 208 256 316
#     4  10  19  32  53  77 101 135 174 214 261 312
#     4  10  21  38  59  79 103 142 186 220 256 312
#
# _framework density 18.684904
#
# number of rings (size 3 to 8) (size 9 to 14) (size 15 to 20)
#    0.000    2.538    1.538    1.846    1.077    2.154 
#    0.000    2.308    0.000    2.769    0.000    4.308 
#    0.000    0.000    0.000    0.000    0.000    0.000 
#
# Total GULP energy -644197.520703 kJ/mol
# GULP energy per Si atom -12388.413860 kJ/mol
# Density = 1.864238 g / cm^3
# Si number density = 18.684904 Si / 1000 Ang^3
#
#
#
# Elastic Constant Matrix: (Units=GPa)
#
#
# Indices 1 2 3 4 5 6 
#
# 1 72.0301 20.2025 8.7097 0.0000 0.0000 0.0000
# 2 20.2025 68.7539 12.7433 0.0000 0.0000 0.0000
# 3 8.7097 12.7433 42.2379 0.0000 0.0000 0.0000
# 4 0.0000 0.0000 0.0000 18.3325 0.0000 0.0000
# 5 0.0000 0.0000 0.0000 0.0000 19.6612 0.0000
# 6 0.0000 0.0000 0.0000 0.0000 0.0000 15.5247
#
#
#
# Elastic Compliance Matrix: (Units=1/GPa)
#
#
# Indices 1 2 3 4 5 6 
#
# 1 0.015273 -0.004135 -0.001902 0.000000 0.000000 0.000000
# 2 -0.004135 0.016526 -0.004133 0.000000 0.000000 0.000000
# 3 -0.001902 -0.004133 0.025315 0.000000 0.000000 0.000000
# 4 0.000000 0.000000 0.000000 0.054548 0.000000 0.000000
# 5 0.000000 0.000000 0.000000 0.000000 0.050862 0.000000
# 6 0.000000 0.000000 0.000000 0.000000 0.000000 0.064413
#
#
# Mechanical properties :
#
#
# Convention : Reuss Voigt Hill
#
# Bulk Modulus (GPa) = 27.19396 29.59256 28.39326
# Shear Modulus (GPa) = 19.26528 20.12810 19.69669
#
# Velocity S-wave (km/s) = 3.21450 3.28569 3.25029
# Velocity P-wave (km/s) = 5.32568 5.50149 5.41430
#
# Compressibility (1/GPa) = 0.03677287
#
# Stress axis : x y z
#
# Youngs Moduli (GPa) = 65.47563 60.51149 39.50295
#
# Poissons Ratio (x) = 0.25023 0.07512
# Poissons Ratio (y) = 0.27076 0.16327
# Poissons Ratio (z) = 0.12452 0.25010
#
# Static dielectric constant tensor:
#      x y z
#    x 3.695660 0.000000 0.000000 
#    y 0.000000 3.144440 0.000000 
#    z 0.000000 0.000000 3.391390 
# 
# 
# High freq. dielectric constant tensor:
#      x y z
#    x 1.719700 0.000000 0.000000 
#    y 0.000000 1.697430 0.000000 
#    z 0.000000 0.000000 1.717750 
# 
# From -- ./inp_files/62844.got.cif
#   From: 2010.03.12/outbox.cif.g09.slc.cpg/sg65_32_cif.got.tgz:62844.got - 2010.04.10 20:52:16.
