data_PCOD8268917
_publ_section_title
;
Structure prediction by ZEFSAII (Michael W. Deem and Ramdas Pophale) SiO2 
 PCOD8268917
Probable space group: C M M M
;
_chemical_formula_sum "Si O2"
_cell_formula_units_Z 88
_cell_length_a 19.163735
_cell_length_b 9.000235
_cell_length_c 29.061770
_cell_angle_alpha 90.000000
_cell_angle_beta 90.000000
_cell_angle_gamma 90.000000
_cell_volume 5012.519409
_symmetry_space_group_name_H-M "C M M M"
_symmetry_group_IT_number 65
_symmetry_cell_setting 'orthorhombic'
loop_
_space_group_symop_operation_xyz
x,y,z
-x,-y,z
x,-y,-z
-x,y,-z
-x,-y,-z
x,y,-z
-x,y,z
x,-y,z
1/2+x,1/2+y,z
1/2-x,1/2-y,z
1/2+x,1/2-y,-z
1/2-x,1/2+y,-z
1/2-x,1/2-y,-z
1/2+x,1/2+y,-z
1/2-x,1/2+y,z
1/2+x,1/2-y,z
loop_
_atom_site_type_symbol
_atom_site_label
_atom_site_fract_x
_atom_site_fract_y
_atom_site_fract_z
Si Si1 0.814165 0.837797 0.390789
Si Si2 0.082262 0.829019 0.123737
Si Si3 0.678660 0.172842 0.946321
Si Si4 0.417633 0.829103 0.216591
Si Si5 0.678248 0.676750 0.711905
Si Si6 0.580524 0.500000 0.445727
O O1 0.750000 0.750000 0.414381
O O2 0.835612 0.772107 0.341092
O O3 0.881501 0.852277 0.424765
O O4 0.782370 0.000000 0.381092
O O5 0.115056 0.748912 0.079883
O O6 0.108678 0.747871 0.169808
O O7 0.000000 0.813510 0.118217
O O8 0.105890 0.000000 0.125866
O O9 0.750000 0.250000 0.930325
O O10 0.682804 0.000000 0.933825
O O11 0.665013 0.199045 0.000000
O O12 0.500000 0.814015 0.221756
O O13 0.385154 0.743452 0.259504
O O14 0.393560 0.000000 0.216070
O O15 0.680143 0.500000 0.718357
O O16 0.750000 0.750000 0.729651
O O17 0.500000 0.500000 0.430753
O O18 0.589331 0.500000 0.500000
#
# Coordination Sequence:
#
# PCOD8268917 Si02
#       6
#    16  16  16  16  16   8
#     4   8  17  32  51  77 104 140 180 224 268 321
#     4  10  21  37  56  78 106 138 175 218 261 312
#     4  10  21  37  57  80 106 136 171 214 264 317
#     4  10  21  36  53  76 105 138 175 216 262 315
#     4  10  19  33  52  76 104 137 173 219 261 311
#     4   9  18  32  52  80 111 143 183 229 275 327
#
# _framework density 17.556042000000001
#
# number of rings (size 3 to 8) (size 9 to 14) (size 15 to 20)
#    0.545    1.909    0.000    2.182    0.000    6.182 
#    0.000    5.455    0.000    0.545    0.000    1.273 
#    0.000    0.000    0.000    0.000    0.000    0.000 
#
# Total GULP energy -545458.527731 kJ/mol
# GULP energy per Si atom -12396.784721 kJ/mol
# Density = 1.751608 g / cm^3
# Si number density = 17.556042 Si / 1000 Ang^3
#
#
#
# Elastic Constant Matrix: (Units=GPa)
#
#
# Indices 1 2 3 4 5 6 
#
# 1 79.4855 47.8230 54.9229 0.0000 0.0000 0.0000
# 2 47.8230 110.8159 47.2408 0.0000 0.0000 0.0000
# 3 54.9229 47.2408 85.6479 0.0000 0.0000 0.0000
# 4 0.0000 0.0000 0.0000 25.6680 0.0000 0.0000
# 5 0.0000 0.0000 0.0000 0.0000 32.3953 0.0000
# 6 0.0000 0.0000 0.0000 0.0000 0.0000 35.5787
#
#
#
# Elastic Compliance Matrix: (Units=1/GPa)
#
#
# Indices 1 2 3 4 5 6 
#
# 1 0.024606 -0.005089 -0.012972 0.000000 0.000000 0.000000
# 2 -0.005089 0.012851 -0.003825 0.000000 0.000000 0.000000
# 3 -0.012972 -0.003825 0.022104 0.000000 0.000000 0.000000
# 4 0.000000 0.000000 0.000000 0.038959 0.000000 0.000000
# 5 0.000000 0.000000 0.000000 0.000000 0.030869 0.000000
# 6 0.000000 0.000000 0.000000 0.000000 0.000000 0.028107
#
#
# Mechanical properties :
#
#
# Convention : Reuss Voigt Hill
#
# Bulk Modulus (GPa) = 63.33455 63.99140 63.66298
# Shear Modulus (GPa) = 24.20962 27.12592 25.66777
#
# Velocity S-wave (km/s) = 3.71751 3.93505 3.82782
# Velocity P-wave (km/s) = 7.38786 7.56142 7.47514
#
# Compressibility (1/GPa) = 0.01578917
#
# Stress axis : x y z
#
# Youngs Moduli (GPa) = 40.64018 77.81778 45.24093
#
# Poissons Ratio (x) = 0.39600 0.58687
# Poissons Ratio (y) = 0.20681 0.17303
# Poissons Ratio (z) = 0.52719 0.29763
#
# Static dielectric constant tensor:
#      x y z
#    x 3.128810 0.000000 0.000000 
#    y 0.000000 3.349840 0.000000 
#    z 0.000000 0.000000 3.187230 
# 
# 
# High freq. dielectric constant tensor:
#      x y z
#    x 1.672210 0.000000 0.000000 
#    y 0.000000 1.681700 0.000000 
#    z 0.000000 0.000000 1.676650 
# 
# From -- ./inp_files/77963.got.cif
#   From: 2010.03.12/outbox.cif.g09.slc.cpg/sg65_39_cif.got.tgz:77963.got - 2010.04.10 20:52:16.
