data_PCOD8268902
_publ_section_title
;
Structure prediction by ZEFSAII (Michael W. Deem and Ramdas Pophale) SiO2 
 PCOD8268902
Probable space group: C M M M
;
_chemical_formula_sum "Si O2"
_cell_formula_units_Z 104
_cell_length_a 29.264277
_cell_length_b 22.394640
_cell_length_c 9.149275
_cell_angle_alpha 90.000000
_cell_angle_beta 90.000000
_cell_angle_gamma 90.000000
_cell_volume 5996.095839
_symmetry_space_group_name_H-M "C M M M"
_symmetry_group_IT_number 65
_symmetry_cell_setting 'orthorhombic'
loop_
_space_group_symop_operation_xyz
x,y,z
-x,-y,z
x,-y,-z
-x,y,-z
-x,-y,-z
x,y,-z
-x,y,z
x,-y,z
1/2+x,1/2+y,z
1/2-x,1/2-y,z
1/2+x,1/2-y,-z
1/2-x,1/2+y,-z
1/2-x,1/2-y,-z
1/2+x,1/2+y,-z
1/2-x,1/2+y,z
1/2+x,1/2-y,z
loop_
_atom_site_type_symbol
_atom_site_label
_atom_site_fract_x
_atom_site_fract_y
_atom_site_fract_z
Si Si1 0.621860 0.429534 0.168842
Si Si2 0.446533 0.652523 0.330612
Si Si3 0.552620 0.228501 0.168589
Si Si4 0.700595 0.931142 0.167848
Si Si5 0.601290 0.892541 0.169798
Si Si6 0.788757 0.071059 0.334994
Si Si7 0.447195 0.000000 0.671920
O O1 0.616998 0.500000 0.189462
O O2 0.578551 0.400394 0.246472
O O3 0.668156 0.405047 0.243363
O O4 0.623049 0.411091 0.000000
O O5 0.433273 0.650399 0.500000
O O6 0.500000 0.642409 0.304696
O O7 0.431128 0.716225 0.266615
O O8 0.500000 0.211998 0.199316
O O9 0.583159 0.172321 0.214686
O O10 0.560171 0.245843 0.000000
O O11 0.655277 0.893517 0.203154
O O12 0.741805 0.904780 0.264678
O O13 0.690059 0.000000 0.206035
O O14 0.715520 0.924747 0.000000
O O15 0.575498 0.941061 0.264640
O O16 0.591685 0.906755 0.000000
O O17 0.792616 0.095025 0.500000
O O18 0.788079 0.000000 0.329338
O O19 0.500000 0.000000 0.716008
O O20 0.439720 0.000000 0.500000
#
# Coordination Sequence:
#
# PCOD8268902 Si02
#       7
#    16  16  16  16  16  16   8
#     4  10  20  34  54  80 107 134 165 203 247 293
#     4  10  21  36  54  76 104 137 169 203 246 299
#     4   9  18  33  53  74  96 129 175 218 253 298
#     4   9  16  28  46  70 100 131 167 210 255 302
#     4  10  19  33  52  73  97 132 175 218 261 307
#     4   9  17  29  47  72 102 135 167 200 244 301
#     4  11  23  33  43  67 103 137 169 215 272 319
#
# _framework density 17.344621
#
# number of rings (size 3 to 8) (size 9 to 14) (size 15 to 20)
#    0.000    2.385    0.769    2.077    0.000    6.462 
#    0.000    3.077    0.000    0.923    0.000    6.462 
#    0.000    0.000    0.000    0.000    0.000    0.000 
#
# Total GULP energy -644937.715233 kJ/mol
# GULP energy per Si atom -12402.648370 kJ/mol
# Density = 1.730514 g / cm^3
# Si number density = 17.344621 Si / 1000 Ang^3
#
#
#
# Elastic Constant Matrix: (Units=GPa)
#
#
# Indices 1 2 3 4 5 6 
#
# 1 104.7274 50.7017 67.5273 0.0000 0.0000 0.0000
# 2 50.7017 59.1346 48.9607 0.0000 0.0000 0.0000
# 3 67.5273 48.9607 116.0243 0.0000 0.0000 0.0000
# 4 0.0000 0.0000 0.0000 20.8386 0.0000 0.0000
# 5 0.0000 0.0000 0.0000 0.0000 31.5561 0.0000
# 6 0.0000 0.0000 0.0000 0.0000 0.0000 -271.4393
#
#
#
# Elastic Compliance Matrix: (Units=1/GPa)
#
#
# Indices 1 2 3 4 5 6 
#
# 1 0.019008 -0.010971 -0.006433 0.000000 0.000000 0.000000
# 2 -0.010971 0.032324 -0.007255 0.000000 0.000000 0.000000
# 3 -0.006433 -0.007255 0.015425 0.000000 0.000000 0.000000
# 4 0.000000 0.000000 0.000000 0.047988 0.000000 0.000000
# 5 0.000000 0.000000 0.000000 0.000000 0.031690 0.000000
# 6 0.000000 0.000000 0.000000 0.000000 0.000000 -0.003684
#
#
# Mechanical properties :
#
#
# Convention : Reuss Voigt Hill
#
# Bulk Modulus (GPa) = 57.34596 68.25175 62.79885
# Shear Modulus (GPa) = 25.26766 -36.29582 -5.51408
#
# Velocity S-wave (km/s) = 3.82095 -4.57949 -1.78495
# Velocity P-wave (km/s) = 7.25263 3.38726 5.66013
#
# Compressibility (1/GPa) = 0.01743802
#
# Stress axis : x y z
#
# Youngs Moduli (GPa) = 52.60912 30.93686 64.83126
#
# Poissons Ratio (x) = 0.33941 0.41708
# Poissons Ratio (y) = 0.57717 0.47035
# Poissons Ratio (z) = 0.33845 0.22445
#
# Static dielectric constant tensor:
#      x y z
#    x 3.318930 0.000000 0.000000 
#    y 0.000000 2.937100 0.000000 
#    z 0.000000 0.000000 3.339010 
# 
# 
# High freq. dielectric constant tensor:
#      x y z
#    x 1.676320 0.000000 0.000000 
#    y 0.000000 1.637700 0.000000 
#    z 0.000000 0.000000 1.678220 
# 
# From -- ./inp_files/12797.got.cif
#   From: 2010.03.12/outbox.cif.g09.slc.cpg/sg65_7_cif.got.tgz:12797.got - 2010.04.10 20:52:16.
