data_PCOD8268634
_publ_section_title
;
Structure prediction by ZEFSAII (Michael W. Deem and Ramdas Pophale) SiO2 
 PCOD8268634
Probable space group: C M M M
;
_chemical_formula_sum "Si O2"
_cell_formula_units_Z 112
_cell_length_a 17.575537
_cell_length_b 18.361557
_cell_length_c 19.299620
_cell_angle_alpha 90.000000
_cell_angle_beta 90.000000
_cell_angle_gamma 90.000000
_cell_volume 6228.261900
_symmetry_space_group_name_H-M "C M M M"
_symmetry_group_IT_number 65
_symmetry_cell_setting 'orthorhombic'
loop_
_space_group_symop_operation_xyz
x,y,z
-x,-y,z
x,-y,-z
-x,y,-z
-x,-y,-z
x,y,-z
-x,y,z
x,-y,z
1/2+x,1/2+y,z
1/2-x,1/2-y,z
1/2+x,1/2-y,-z
1/2-x,1/2+y,-z
1/2-x,1/2-y,-z
1/2+x,1/2+y,-z
1/2-x,1/2+y,z
1/2+x,1/2-y,z
loop_
_atom_site_type_symbol
_atom_site_label
_atom_site_fract_x
_atom_site_fract_y
_atom_site_fract_z
Si Si1 0.337004 0.227929 0.292106
Si Si2 0.086495 0.216101 0.578137
Si Si3 0.317162 0.581724 0.422850
Si Si4 0.797134 0.082881 0.847722
Si Si5 0.717935 0.080297 0.292752
Si Si6 0.312222 0.187340 0.078070
Si Si7 0.089108 0.209336 0.837669
O O1 0.250000 0.250000 0.276778
O O2 0.359156 0.238461 0.371764
O O3 0.345358 0.141406 0.275971
O O4 0.391685 0.274472 0.242603
O O5 0.098701 0.245302 0.500000
O O6 0.108277 0.131306 0.583500
O O7 0.000000 0.225205 0.601933
O O8 0.280794 0.589533 0.500000
O O9 0.345286 0.500000 0.408577
O O10 0.255030 0.604113 0.365831
O O11 0.783167 0.080630 0.765513
O O12 0.721865 0.115338 0.885288
O O13 0.869613 0.134776 0.862789
O O14 0.812234 0.000000 0.874811
O O15 0.679948 0.000000 0.297433
O O16 0.250000 0.250000 0.079369
O O17 0.385096 0.219977 0.118112
O O18 0.336153 0.166783 0.000000
O O19 0.000000 0.197032 0.847552
#
# Coordination Sequence:
#
# PCOD8268634 Si02
#       7
#    16  16  16  16  16  16  16
#     4  12  19  34  55  75 101 139 186 227 270 314
#     4  10  21  33  47  73 105 138 176 221 276 332
#     4   9  17  29  46  71 103 138 172 208 259 320
#     4  10  19  34  56  82 112 144 180 222 268 320
#     4  10  19  32  52  75 102 131 172 227 268 309
#     4   9  18  35  57  80 106 142 186 222 255 305
#     4  11  21  34  54  83 115 147 180 217 271 330
#
# _framework density 17.982544999999998
#
# number of rings (size 3 to 8) (size 9 to 14) (size 15 to 20)
#    0.000    1.857    4.286    0.857    0.000    2.000 
#    0.000    1.429    0.000    7.286    0.000    6.000 
#    0.000    0.000    0.000    0.000    0.000    0.000 
#
# Total GULP energy -694169.082536 kJ/mol
# GULP energy per Si atom -12395.876474 kJ/mol
# Density = 1.794162 g / cm^3
# Si number density = 17.982545 Si / 1000 Ang^3
#
#
#
# Elastic Constant Matrix: (Units=GPa)
#
#
# Indices 1 2 3 4 5 6 
#
# 1 71.1499 46.6351 27.7205 0.0000 0.0000 0.0000
# 2 46.6351 121.9096 27.8159 0.0000 0.0000 0.0000
# 3 27.7205 27.8159 94.3327 0.0000 0.0000 0.0000
# 4 0.0000 0.0000 0.0000 21.0592 0.0000 0.0000
# 5 0.0000 0.0000 0.0000 0.0000 19.9917 0.0000
# 6 0.0000 0.0000 0.0000 0.0000 0.0000 17.1739
#
#
#
# Elastic Compliance Matrix: (Units=1/GPa)
#
#
# Indices 1 2 3 4 5 6 
#
# 1 0.020002 -0.006766 -0.003883 0.000000 0.000000 0.000000
# 2 -0.006766 0.011083 -0.001280 0.000000 0.000000 0.000000
# 3 -0.003883 -0.001280 0.012119 0.000000 0.000000 0.000000
# 4 0.000000 0.000000 0.000000 0.047485 0.000000 0.000000
# 5 0.000000 0.000000 0.000000 0.000000 0.050021 0.000000
# 6 0.000000 0.000000 0.000000 0.000000 0.000000 0.058228
#
#
# Mechanical properties :
#
#
# Convention : Reuss Voigt Hill
#
# Bulk Modulus (GPa) = 51.68609 54.63724 53.16166
# Shear Modulus (GPa) = 21.81084 23.99302 22.90193
#
# Velocity S-wave (km/s) = 3.48643 3.65669 3.57258
# Velocity P-wave (km/s) = 6.70908 6.94823 6.82970
#
# Compressibility (1/GPa) = 0.01934757
#
# Stress axis : x y z
#
# Youngs Moduli (GPa) = 49.99468 90.22876 82.51386
#
# Poissons Ratio (x) = 0.61046 0.32039
# Poissons Ratio (y) = 0.33825 0.10561
# Poissons Ratio (z) = 0.19412 0.11548
#
# Static dielectric constant tensor:
#      x y z
#    x 2.907230 0.000000 0.000000 
#    y 0.000000 3.549150 0.000000 
#    z 0.000000 0.000000 3.524570 
# 
# 
# High freq. dielectric constant tensor:
#      x y z
#    x 1.648300 0.000000 0.000000 
#    y 0.000000 1.698980 0.000000 
#    z 0.000000 0.000000 1.707390 
# 
# From -- ./inp_files/54832.got.cif
#   From: 2010.03.12/outbox.cif.g09.slc.cpg/sg65_28_cif.got.tgz:54832.got - 2010.04.10 20:52:16.
