data_PCOD8268706
_publ_section_title
;
Structure prediction by ZEFSAII (Michael W. Deem and Ramdas Pophale) SiO2 
 PCOD8268706
Probable space group: C M M M
;
_chemical_formula_sum "Si O2"
_cell_formula_units_Z 72
_cell_length_a 8.813736
_cell_length_b 15.401429
_cell_length_c 25.188200
_cell_angle_alpha 90.000000
_cell_angle_beta 90.000000
_cell_angle_gamma 90.000000
_cell_volume 3419.150276
_symmetry_space_group_name_H-M "C M M M"
_symmetry_group_IT_number 65
_symmetry_cell_setting 'orthorhombic'
loop_
_space_group_symop_operation_xyz
x,y,z
-x,-y,z
x,-y,-z
-x,y,-z
-x,-y,-z
x,y,-z
-x,y,z
x,-y,z
1/2+x,1/2+y,z
1/2-x,1/2-y,z
1/2+x,1/2-y,-z
1/2-x,1/2+y,-z
1/2-x,1/2-y,-z
1/2+x,1/2+y,-z
1/2-x,1/2+y,z
1/2+x,1/2-y,z
loop_
_atom_site_type_symbol
_atom_site_label
_atom_site_fract_x
_atom_site_fract_y
_atom_site_fract_z
Si Si1 0.173568 0.000000 0.437211
Si Si2 0.326907 0.397249 0.274955
Si Si3 0.829263 0.603772 0.169394
Si Si4 0.679048 0.160674 0.379678
Si Si5 0.819598 0.402546 0.056153
O O1 0.255444 0.084539 0.415467
O O2 0.184158 0.000000 0.500000
O O3 0.000000 0.000000 0.417075
O O4 0.500000 0.370119 0.285259
O O5 0.304035 0.500000 0.279621
O O6 0.278147 0.363185 0.216782
O O7 0.221249 0.351788 0.318130
O O8 0.827948 0.500000 0.166222
O O9 0.765500 0.640684 0.112187
O O10 0.000000 0.636686 0.180666
O O11 0.500000 0.163332 0.386057
O O12 0.750000 0.250000 0.401098
O O13 0.755225 0.500000 0.053637
O O14 0.000000 0.405501 0.059121
O O15 0.768679 0.355747 0.000000
#
# Coordination Sequence:
#
# PCOD8268706 Si02
#       5
#     8  16  16  16  16
#     4  11  25  47  73 101 135 171 208 251 298 351
#     4  10  19  32  52  77 112 152 195 246 302 362
#     4   8  13  21  36  60  90 128 180 234 289 354
#     4  12  25  42  67  96 129 167 210 257 306 361
#     4   7   9  14  26  47  78 118 166 224 285 343
#
# _framework density 21.057863999999999
#
# number of rings (size 3 to 8) (size 9 to 14) (size 15 to 20)
#    0.000    2.556    1.111    5.000    0.000    2.222 
#    0.000    0.000    0.000    0.667    0.000    4.667 
#    0.000    0.889    0.000    2.444    0.000    6.222 
#
# Total GULP energy -446015.525188 kJ/mol
# GULP energy per Si atom -12389.320144 kJ/mol
# Density = 2.100994 g / cm^3
# Si number density = 21.057864 Si / 1000 Ang^3
#
#
#
# Elastic Constant Matrix: (Units=GPa)
#
#
# Indices 1 2 3 4 5 6 
#
# 1 133.4399 48.8650 55.4913 0.0000 0.0000 0.0000
# 2 48.8650 80.3941 39.8985 0.0000 0.0000 0.0000
# 3 55.4913 39.8985 129.0352 0.0000 0.0000 0.0000
# 4 0.0000 0.0000 0.0000 -8.4388 0.0000 0.0000
# 5 0.0000 0.0000 0.0000 0.0000 25.5780 0.0000
# 6 0.0000 0.0000 0.0000 0.0000 0.0000 21.9600
#
#
#
# Elastic Compliance Matrix: (Units=1/GPa)
#
#
# Indices 1 2 3 4 5 6 
#
# 1 0.010548 -0.004914 -0.003017 0.000000 0.000000 0.000000
# 2 -0.004914 0.016983 -0.003138 0.000000 0.000000 0.000000
# 3 -0.003017 -0.003138 0.010017 0.000000 0.000000 0.000000
# 4 0.000000 0.000000 0.000000 -0.118500 0.000000 0.000000
# 5 0.000000 0.000000 0.000000 0.000000 0.039096 0.000000
# 6 0.000000 0.000000 0.000000 0.000000 0.000000 0.045537
#
#
# Mechanical properties :
#
#
# Convention : Reuss Voigt Hill
#
# Bulk Modulus (GPa) = 64.88915 70.15322 67.52119
# Shear Modulus (GPa) = 161.52090 21.06081 91.29086
#
# Velocity S-wave (km/s) = 8.76755 3.16593 6.59140
# Velocity P-wave (km/s) = 11.54880 6.83747 9.49015
#
# Compressibility (1/GPa) = 0.01541090
#
# Stress axis : x y z
#
# Youngs Moduli (GPa) = 94.80436 58.88261 99.82630
#
# Poissons Ratio (x) = 0.28936 0.30114
# Poissons Ratio (y) = 0.46588 0.31325
# Poissons Ratio (z) = 0.28599 0.18477
#
# Static dielectric constant tensor:
#      x y z
#    x 3.592260 0.000000 0.000000 
#    y 0.000000 3.408720 0.000000 
#    z 0.000000 0.000000 4.378340 
# 
# 
# High freq. dielectric constant tensor:
#      x y z
#    x 1.800560 0.000000 0.000000 
#    y 0.000000 1.782930 0.000000 
#    z 0.000000 0.000000 1.849720 
# 
# From -- ./inp_files/72563.got.cif
#   From: 2010.03.12/outbox.cif.g09.slc.cpg/sg65_37_cif.got.tgz:72563.got - 2010.04.10 20:52:16.
