data_PCOD8268681
_publ_section_title
;
Structure prediction by ZEFSAII (Michael W. Deem and Ramdas Pophale) SiO2 
 PCOD8268681
Probable space group: C M M M
;
_chemical_formula_sum "Si O2"
_cell_formula_units_Z 88
_cell_length_a 18.352188
_cell_length_b 9.254148
_cell_length_c 28.488811
_cell_angle_alpha 90.000000
_cell_angle_beta 90.000000
_cell_angle_gamma 90.000000
_cell_volume 4838.364849
_symmetry_space_group_name_H-M "C M M M"
_symmetry_group_IT_number 65
_symmetry_cell_setting 'orthorhombic'
loop_
_space_group_symop_operation_xyz
x,y,z
-x,-y,z
x,-y,-z
-x,y,-z
-x,-y,-z
x,y,-z
-x,y,z
x,-y,z
1/2+x,1/2+y,z
1/2-x,1/2-y,z
1/2+x,1/2-y,-z
1/2-x,1/2+y,-z
1/2-x,1/2-y,-z
1/2+x,1/2+y,-z
1/2-x,1/2+y,z
1/2+x,1/2-y,z
loop_
_atom_site_type_symbol
_atom_site_label
_atom_site_fract_x
_atom_site_fract_y
_atom_site_fract_z
Si Si1 0.584782 0.832398 0.408155
Si Si2 0.322742 0.336091 0.228949
Si Si3 0.914158 0.337273 0.947271
Si Si4 0.172508 0.829875 0.668885
Si Si5 0.174007 0.331298 0.500000
Si Si6 0.826244 0.831498 0.872451
O O1 0.500000 0.800351 0.416461
O O2 0.613172 0.734507 0.365922
O O3 0.627608 0.786142 0.454754
O O4 0.598070 0.000000 0.395960
O O5 0.297368 0.500000 0.229237
O O6 0.250000 0.250000 0.228135
O O7 0.362396 0.302838 0.278669
O O8 0.363905 0.303785 0.179416
O O9 0.891101 0.500000 0.933240
O O10 0.880720 0.223613 0.911675
O O11 0.000000 0.320229 0.944997
O O12 0.886580 0.303062 0.000000
O O13 0.250000 0.750000 0.662524
O O14 0.183925 0.000000 0.658754
O O15 0.191086 0.500000 0.500000
O O16 0.250000 0.250000 0.500000
O O17 0.750000 0.750000 0.876814
O O18 0.812046 0.000000 0.881021
#
# Coordination Sequence:
#
# PCOD8268681 Si02
#       6
#    16  16  16  16   8  16
#     4  10  21  37  55  76 105 139 173 210 254 301
#     4   8  16  30  48  72 101 132 165 204 250 296
#     4   9  19  36  54  71  96 131 168 207 253 303
#     4  10  19  33  54  78 104 135 172 211 251 298
#     4  10  21  37  57  79 103 134 171 212 256 302
#     4  10  19  32  52  77 103 131 166 208 252 299
#
# _framework density 18.187963
#
# number of rings (size 3 to 8) (size 9 to 14) (size 15 to 20)
#    0.000    2.545    0.000    2.455    0.000    6.182 
#    0.000    1.818    0.000    7.091    0.000    0.000 
#    0.000    0.000    0.000    0.000    0.000    0.000 
#
# Total GULP energy -545172.316735 kJ/mol
# GULP energy per Si atom -12390.279926 kJ/mol
# Density = 1.814657 g / cm^3
# Si number density = 18.187963 Si / 1000 Ang^3
#
#
#
# Elastic Constant Matrix: (Units=GPa)
#
#
# Indices 1 2 3 4 5 6 
#
# 1 77.6237 44.0166 61.9000 0.0000 0.0000 0.0000
# 2 44.0166 90.3709 76.0741 0.0000 0.0000 0.0000
# 3 61.9000 76.0741 167.0603 0.0000 0.0000 0.0000
# 4 0.0000 0.0000 0.0000 32.8828 0.0000 0.0000
# 5 0.0000 0.0000 0.0000 0.0000 -3.7389 0.0000
# 6 0.0000 0.0000 0.0000 0.0000 0.0000 31.0561
#
#
#
# Elastic Compliance Matrix: (Units=1/GPa)
#
#
# Indices 1 2 3 4 5 6 
#
# 1 0.019923 -0.005659 -0.004805 0.000000 0.000000 0.000000
# 2 -0.005659 0.019551 -0.006806 0.000000 0.000000 0.000000
# 3 -0.004805 -0.006806 0.010866 0.000000 0.000000 0.000000
# 4 0.000000 0.000000 0.000000 0.030411 0.000000 0.000000
# 5 0.000000 0.000000 0.000000 0.000000 -0.267458 0.000000
# 6 0.000000 0.000000 0.000000 0.000000 0.000000 0.032200
#
#
# Mechanical properties :
#
#
# Convention : Reuss Voigt Hill
#
# Bulk Modulus (GPa) = 63.29319 77.67069 70.48194
# Shear Modulus (GPa) = -43.59229 22.24429 -10.67400
#
# Velocity S-wave (km/s) = -4.90099 3.50097 -2.42517
# Velocity P-wave (km/s) = 1.68783 7.69022 5.56724
#
# Compressibility (1/GPa) = 0.01579949
#
# Stress axis : x y z
#
# Youngs Moduli (GPa) = 50.19205 51.14744 92.03315
#
# Poissons Ratio (x) = 0.28945 0.44224
# Poissons Ratio (y) = 0.28404 0.62640
# Poissons Ratio (z) = 0.24118 0.34812
#
# Static dielectric constant tensor:
#      x y z
#    x 2.952340 0.000000 0.000000 
#    y 0.000000 3.385150 0.000000 
#    z 0.000000 0.000000 4.130880 
# 
# 
# High freq. dielectric constant tensor:
#      x y z
#    x 1.669920 0.000000 0.000000 
#    y 0.000000 1.711450 0.000000 
#    z 0.000000 0.000000 1.730370 
# 
# From -- ./inp_files/70958.got.cif
#   From: 2010.03.12/outbox.cif.g09.slc.cpg/sg65_36_cif.got.tgz:70958.got - 2010.04.10 20:52:16.
