data_PCOD8268960
_publ_section_title
;
Structure prediction by ZEFSAII (Michael W. Deem and Ramdas Pophale) SiO2 
 PCOD8268960
Probable space group: C M M M
;
_chemical_formula_sum "Si O2"
_cell_formula_units_Z 72
_cell_length_a 14.345306
_cell_length_b 27.415432
_cell_length_c 9.604525
_cell_angle_alpha 90.000000
_cell_angle_beta 90.000000
_cell_angle_gamma 90.000000
_cell_volume 3777.294112
_symmetry_space_group_name_H-M "C M M M"
_symmetry_group_IT_number 65
_symmetry_cell_setting 'orthorhombic'
loop_
_space_group_symop_operation_xyz
x,y,z
-x,-y,z
x,-y,-z
-x,y,-z
-x,-y,-z
x,y,-z
-x,y,z
x,-y,z
1/2+x,1/2+y,z
1/2-x,1/2-y,z
1/2+x,1/2-y,-z
1/2-x,1/2+y,-z
1/2-x,1/2-y,-z
1/2+x,1/2+y,-z
1/2-x,1/2+y,z
1/2+x,1/2-y,z
loop_
_atom_site_type_symbol
_atom_site_label
_atom_site_fract_x
_atom_site_fract_y
_atom_site_fract_z
Si Si1 0.601538 0.321284 0.155184
Si Si2 0.271090 0.408844 0.834581
Si Si3 0.107243 0.625701 0.337826
Si Si4 0.643367 0.764438 0.343871
Si Si5 0.894253 0.000000 0.835087
O O1 0.500000 0.347174 0.152526
O O2 0.676560 0.359515 0.212840
O O3 0.589888 0.273340 0.247527
O O4 0.631017 0.305077 0.000000
O O5 0.172393 0.410060 0.753826
O O6 0.336185 0.453116 0.783929
O O7 0.253413 0.411104 0.000000
O O8 0.133582 0.619778 0.500000
O O9 0.124921 0.681180 0.288134
O O10 0.000000 0.611088 0.310771
O O11 0.603462 0.760215 0.500000
O O12 0.750000 0.750000 0.337670
O O13 0.000000 0.000000 0.772727
O O14 0.901770 0.000000 0.000000
#
# Coordination Sequence:
#
# PCOD8268960 Si02
#       5
#    16  16  16  16   8
#     4  10  20  32  49  77 110 140 172 215 266 317
#     4  10  20  35  57  82 107 136 176 222 267 318
#     4  10  21  37  55  76 107 147 185 220 263 315
#     4  10  19  33  53  75 103 142 185 222 258 307
#     4   9  18  36  62  87 110 138 171 213 270 329
#
# _framework density 19.061264000000001
#
# number of rings (size 3 to 8) (size 9 to 14) (size 15 to 20)
#    0.000    2.111    2.222    1.333    0.000    5.778 
#    0.000    1.111    0.000    6.000    0.000    0.000 
#    0.000    0.000    0.000    0.000    0.000    0.000 
#
# Total GULP energy -446318.170445 kJ/mol
# GULP energy per Si atom -12397.726957 kJ/mol
# Density = 1.901788 g / cm^3
# Si number density = 19.061264 Si / 1000 Ang^3
#
#
#
# Elastic Constant Matrix: (Units=GPa)
#
#
# Indices 1 2 3 4 5 6 
#
# 1 137.4805 53.1563 44.0192 0.0000 0.0000 0.0000
# 2 53.1563 91.2961 40.2853 0.0000 0.0000 0.0000
# 3 44.0192 40.2853 54.4883 0.0000 0.0000 0.0000
# 4 0.0000 0.0000 0.0000 19.2803 0.0000 0.0000
# 5 0.0000 0.0000 0.0000 0.0000 15.6827 0.0000
# 6 0.0000 0.0000 0.0000 0.0000 0.0000 30.0741
#
#
#
# Elastic Compliance Matrix: (Units=1/GPa)
#
#
# Indices 1 2 3 4 5 6 
#
# 1 0.010525 -0.003527 -0.005895 0.000000 0.000000 0.000000
# 2 -0.003527 0.017439 -0.010044 0.000000 0.000000 0.000000
# 3 -0.005895 -0.010044 0.030541 0.000000 0.000000 0.000000
# 4 0.000000 0.000000 0.000000 0.051867 0.000000 0.000000
# 5 0.000000 0.000000 0.000000 0.000000 0.063764 0.000000
# 6 0.000000 0.000000 0.000000 0.000000 0.000000 0.033251
#
#
# Mechanical properties :
#
#
# Convention : Reuss Voigt Hill
#
# Bulk Modulus (GPa) = 51.09150 62.02072 56.55611
# Shear Modulus (GPa) = 19.77507 22.72769 21.25138
#
# Velocity S-wave (km/s) = 3.22444 3.45679 3.34263
# Velocity P-wave (km/s) = 6.38159 6.96712 6.68077
#
# Compressibility (1/GPa) = 0.01957273
#
# Stress axis : x y z
#
# Youngs Moduli (GPa) = 95.01257 57.34333 32.74261
#
# Poissons Ratio (x) = 0.20223 0.19303
# Poissons Ratio (y) = 0.33508 0.32887
# Poissons Ratio (z) = 0.56013 0.57596
#
# Static dielectric constant tensor:
#      x y z
#    x 3.575980 0.000000 0.000000 
#    y 0.000000 3.327670 0.000000 
#    z 0.000000 0.000000 3.316400 
# 
# 
# High freq. dielectric constant tensor:
#      x y z
#    x 1.757360 0.000000 0.000000 
#    y 0.000000 1.720340 0.000000 
#    z 0.000000 0.000000 1.718630 
# 
# From -- ./inp_files/7211.got.cif
#   From: 2010.03.12/outbox.cif.g09.slc.cpg/sg65_4_cif.got.tgz:7211.got - 2010.04.10 20:52:16.
