data_PCOD8268568
_publ_section_title
;
Structure prediction by ZEFSAII (Michael W. Deem and Ramdas Pophale) SiO2 
 PCOD8268568
Probable space group: C M M M
;
_chemical_formula_sum "Si O2"
_cell_formula_units_Z 120
_cell_length_a 9.257632
_cell_length_b 26.133975
_cell_length_c 27.654579
_cell_angle_alpha 90.000000
_cell_angle_beta 90.000000
_cell_angle_gamma 90.000000
_cell_volume 6690.713535
_symmetry_space_group_name_H-M "C M M M"
_symmetry_group_IT_number 65
_symmetry_cell_setting 'orthorhombic'
loop_
_space_group_symop_operation_xyz
x,y,z
-x,-y,z
x,-y,-z
-x,y,-z
-x,-y,-z
x,y,-z
-x,y,z
x,-y,z
1/2+x,1/2+y,z
1/2-x,1/2-y,z
1/2+x,1/2-y,-z
1/2-x,1/2+y,-z
1/2-x,1/2-y,-z
1/2+x,1/2+y,-z
1/2-x,1/2+y,z
1/2+x,1/2-y,z
loop_
_atom_site_type_symbol
_atom_site_label
_atom_site_fract_x
_atom_site_fract_y
_atom_site_fract_z
Si Si1 0.668777 0.301150 0.056013
Si Si2 0.330063 0.401462 0.109195
Si Si3 0.827518 0.000000 0.054756
Si Si4 0.666204 0.440251 0.212941
Si Si5 0.331300 0.094309 0.306113
Si Si6 0.167350 0.642945 0.554197
Si Si7 0.165187 0.299220 0.352331
Si Si8 0.664820 0.557939 0.396815
O O1 0.500000 0.292391 0.065252
O O2 0.750000 0.250000 0.072736
O O3 0.731081 0.348089 0.088101
O O4 0.700215 0.313780 0.000000
O O5 0.500000 0.401967 0.100417
O O6 0.262837 0.449512 0.080378
O O7 0.293190 0.407393 0.165684
O O8 0.000000 0.000000 0.058667
O O9 0.773634 0.000000 0.000000
O O10 0.500000 0.431075 0.228197
O O11 0.692504 0.500000 0.202128
O O12 0.771661 0.420283 0.254112
O O13 0.500000 0.080688 0.309080
O O14 0.304669 0.154400 0.315630
O O15 0.248029 0.061523 0.346096
O O16 0.193630 0.663930 0.500000
O O17 0.215594 0.685377 0.593285
O O18 0.260406 0.591950 0.561963
O O19 0.000000 0.628599 0.563113
O O20 0.250000 0.250000 0.333776
O O21 0.000000 0.283180 0.352721
O O22 0.500000 0.576053 0.389160
O O23 0.670908 0.500000 0.415405
#
# Coordination Sequence:
#
# PCOD8268568 Si02
#       8
#    16  16   8  16  16  16  16  16
#     4   9  17  30  49  72  98 132 174 215 254 298
#     4   9  16  28  45  71 104 133 164 208 258 305
#     4   9  14  22  42  72 103 133 165 205 254 305
#     4  10  19  32  51  75 104 134 164 203 254 307
#     4  10  21  36  53  74  99 129 167 208 249 301
#     4   9  19  35  52  73 104 138 169 201 243 299
#     4   9  19  35  54  75  98 125 161 207 252 295
#     4  10  20  33  50  74 102 131 168 212 253 294
#
# _framework density 17.935307000000002
#
# number of rings (size 3 to 8) (size 9 to 14) (size 15 to 20)
#    0.000    2.600    0.667    2.400    0.000    8.000 
#    0.000    2.667    0.000    3.200    0.000    0.000 
#    0.000    3.200    0.000    0.000    0.000    0.000 
#
# Total GULP energy -743968.152244 kJ/mol
# GULP energy per Si atom -12399.469204 kJ/mol
# Density = 1.789449 g / cm^3
# Si number density = 17.935307 Si / 1000 Ang^3
#
#
#
# Elastic Constant Matrix: (Units=GPa)
#
#
# Indices 1 2 3 4 5 6 
#
# 1 58.9666 32.8434 21.8558 0.0000 0.0000 0.0000
# 2 32.8434 103.5227 31.2959 0.0000 0.0000 0.0000
# 3 21.8558 31.2959 75.6666 0.0000 0.0000 0.0000
# 4 0.0000 0.0000 0.0000 19.1479 0.0000 0.0000
# 5 0.0000 0.0000 0.0000 0.0000 19.5881 0.0000
# 6 0.0000 0.0000 0.0000 0.0000 0.0000 28.7368
#
#
#
# Elastic Compliance Matrix: (Units=1/GPa)
#
#
# Indices 1 2 3 4 5 6 
#
# 1 0.021553 -0.005664 -0.003883 0.000000 0.000000 0.000000
# 2 -0.005664 0.012529 -0.003546 0.000000 0.000000 0.000000
# 3 -0.003883 -0.003546 0.015804 0.000000 0.000000 0.000000
# 4 0.000000 0.000000 0.000000 0.052225 0.000000 0.000000
# 5 0.000000 0.000000 0.000000 0.000000 0.051051 0.000000
# 6 0.000000 0.000000 0.000000 0.000000 0.000000 0.034799
#
#
# Mechanical properties :
#
#
# Convention : Reuss Voigt Hill
#
# Bulk Modulus (GPa) = 42.19392 45.57178 43.88285
# Shear Modulus (GPa) = 22.51795 23.63862 23.07828
#
# Velocity S-wave (km/s) = 3.54716 3.63436 3.59102
# Velocity P-wave (km/s) = 6.35241 6.56320 6.45866
#
# Compressibility (1/GPa) = 0.02370010
#
# Stress axis : x y z
#
# Youngs Moduli (GPa) = 46.39814 79.81742 63.27534
#
# Poissons Ratio (x) = 0.45208 0.24568
# Poissons Ratio (y) = 0.26280 0.22437
# Poissons Ratio (z) = 0.18015 0.28302
#
# Static dielectric constant tensor:
#      x y z
#    x 3.143790 0.000000 0.000000 
#    y 0.000000 3.335340 0.000000 
#    z 0.000000 0.000000 3.270380 
# 
# 
# High freq. dielectric constant tensor:
#      x y z
#    x 1.673200 0.000000 0.000000 
#    y 0.000000 1.693710 0.000000 
#    z 0.000000 0.000000 1.689230 
# 
# From -- ./inp_files/73950.got.cif
#   From: 2010.03.12/outbox.cif.g09.slc.cpg/sg65_37_cif.got.tgz:73950.got - 2010.04.10 20:52:16.
