data_PCOD8268772
_publ_section_title
;
Structure prediction by ZEFSAII (Michael W. Deem and Ramdas Pophale) SiO2 
 PCOD8268772
Probable space group: C M M M
;
_chemical_formula_sum "Si O2"
_cell_formula_units_Z 48
_cell_length_a 17.848597
_cell_length_b 8.947209
_cell_length_c 17.174238
_cell_angle_alpha 90.000000
_cell_angle_beta 90.000000
_cell_angle_gamma 90.000000
_cell_volume 2742.642131
_symmetry_space_group_name_H-M "C M M M"
_symmetry_group_IT_number 65
_symmetry_cell_setting 'orthorhombic'
loop_
_space_group_symop_operation_xyz
x,y,z
-x,-y,z
x,-y,-z
-x,y,-z
-x,-y,-z
x,y,-z
-x,y,z
x,-y,z
1/2+x,1/2+y,z
1/2-x,1/2-y,z
1/2+x,1/2-y,-z
1/2-x,1/2+y,-z
1/2-x,1/2-y,-z
1/2+x,1/2+y,-z
1/2-x,1/2+y,z
1/2+x,1/2-y,z
loop_
_atom_site_type_symbol
_atom_site_label
_atom_site_fract_x
_atom_site_fract_y
_atom_site_fract_z
Si Si1 0.325051 0.833885 0.208452
Si Si2 0.913487 0.824183 0.655844
Si Si3 0.588413 0.000000 0.910421
Si Si4 0.910922 0.331144 0.500000
O O1 0.250000 0.750000 0.182812
O O2 0.367315 0.737438 0.272267
O O3 0.377416 0.852129 0.131605
O O4 0.306594 0.000000 0.242182
O O5 0.880898 0.752337 0.576753
O O6 0.000000 0.779564 0.668012
O O7 0.902831 0.000000 0.649824
O O8 0.500000 0.000000 0.899916
O O9 0.612627 0.000000 0.000000
O O10 0.880474 0.500000 0.500000
O O11 0.000000 0.326096 0.500000
#
# Coordination Sequence:
#
# PCOD8268772 Si02
#       4
#    16  16   8   8
#     4  10  21  35  56  81 114 148 188 231 284 339
#     4  10  19  32  53  79 112 151 195 241 284 333
#     4   9  20  38  62  87 112 146 189 233 280 342
#     4   9  17  29  48  77 110 149 197 242 282 330
#
# _framework density 17.501370999999999
#
# number of rings (size 3 to 8) (size 9 to 14) (size 15 to 20)
#    1.000    1.333    0.000    3.500    0.000    4.000 
#    0.000    0.833    0.000    0.000    0.000    7.000 
#    0.000    0.000    0.000    0.000    0.000    0.000 
#
# Total GULP energy -297502.777843 kJ/mol
# GULP energy per Si atom -12395.949077 kJ/mol
# Density = 1.746154 g / cm^3
# Si number density = 17.501371 Si / 1000 Ang^3
#
#
#
# Elastic Constant Matrix: (Units=GPa)
#
#
# Indices 1 2 3 4 5 6 
#
# 1 85.6375 41.7249 64.6715 0.0000 0.0000 0.0000
# 2 41.7249 87.8418 45.8938 0.0000 0.0000 0.0000
# 3 64.6715 45.8938 156.0749 0.0000 0.0000 0.0000
# 4 0.0000 0.0000 0.0000 12.1651 0.0000 0.0000
# 5 0.0000 0.0000 0.0000 0.0000 2.3887 0.0000
# 6 0.0000 0.0000 0.0000 0.0000 0.0000 32.4051
#
#
#
# Elastic Compliance Matrix: (Units=1/GPa)
#
#
# Indices 1 2 3 4 5 6 
#
# 1 0.019266 -0.005885 -0.006253 0.000000 0.000000 0.000000
# 2 -0.005885 0.015248 -0.002045 0.000000 0.000000 0.000000
# 3 -0.006253 -0.002045 0.009600 0.000000 0.000000 0.000000
# 4 0.000000 0.000000 0.000000 0.082202 0.000000 0.000000
# 5 0.000000 0.000000 0.000000 0.000000 0.418638 0.000000
# 6 0.000000 0.000000 0.000000 0.000000 0.000000 0.030859
#
#
# Mechanical properties :
#
#
# Convention : Reuss Voigt Hill
#
# Bulk Modulus (GPa) = 63.49930 70.45940 66.97935
# Shear Modulus (GPa) = 8.20442 21.20939 14.70690
#
# Velocity S-wave (km/s) = 2.16750 3.48497 2.90199
# Velocity P-wave (km/s) = 6.52881 7.51932 7.04150
#
# Compressibility (1/GPa) = 0.01574820
#
# Stress axis : x y z
#
# Youngs Moduli (GPa) = 51.90417 65.58288 104.17181
#
# Poissons Ratio (x) = 0.38593 0.65137
# Poissons Ratio (y) = 0.30544 0.21306
# Poissons Ratio (z) = 0.32455 0.13413
#
# Static dielectric constant tensor:
#      x y z
#    x 3.094130 0.000000 0.000000 
#    y 0.000000 3.267940 0.000000 
#    z 0.000000 0.000000 3.212320 
# 
# 
# High freq. dielectric constant tensor:
#      x y z
#    x 1.662540 0.000000 0.000000 
#    y 0.000000 1.678580 0.000000 
#    z 0.000000 0.000000 1.673930 
# 
# From -- ./inp_files/43410.got.cif
#   From: 2010.03.12/outbox.cif.g09.slc.cpg/sg65_22_cif.got.tgz:43410.got - 2010.04.10 20:52:16.
