data_PCOD8268768
_publ_section_title
;
Structure prediction by ZEFSAII (Michael W. Deem and Ramdas Pophale) SiO2 
 PCOD8268768
Probable space group: C M M M
;
_chemical_formula_sum "Si O2"
_cell_formula_units_Z 88
_cell_length_a 8.854219
_cell_length_b 17.904982
_cell_length_c 28.561926
_cell_angle_alpha 90.000000
_cell_angle_beta 90.000000
_cell_angle_gamma 90.000000
_cell_volume 4528.054422
_symmetry_space_group_name_H-M "C M M M"
_symmetry_group_IT_number 65
_symmetry_cell_setting 'orthorhombic'
loop_
_space_group_symop_operation_xyz
x,y,z
-x,-y,z
x,-y,-z
-x,y,-z
-x,-y,-z
x,y,-z
-x,y,z
x,-y,z
1/2+x,1/2+y,z
1/2-x,1/2-y,z
1/2+x,1/2-y,-z
1/2-x,1/2+y,-z
1/2-x,1/2-y,-z
1/2+x,1/2+y,-z
1/2-x,1/2+y,z
1/2+x,1/2-y,z
loop_
_atom_site_type_symbol
_atom_site_label
_atom_site_fract_x
_atom_site_fract_y
_atom_site_fract_z
Si Si1 0.323213 0.829034 0.178601
Si Si2 0.823866 0.329652 0.450641
Si Si3 0.823558 0.830153 0.000000
Si Si4 0.826378 0.586654 0.083956
Si Si5 0.177274 0.913730 0.264346
Si Si6 0.320958 0.831904 0.348812
O O1 0.500000 0.818986 0.187829
O O2 0.250000 0.750000 0.166978
O O3 0.289255 0.882552 0.135111
O O4 0.248594 0.863780 0.224119
O O5 0.780290 0.373111 0.500000
O O6 0.750000 0.250000 0.452533
O O7 0.779684 0.366389 0.400656
O O8 0.000000 0.315576 0.449777
O O9 0.750000 0.750000 0.000000
O O10 0.778518 0.874429 0.953766
O O11 0.000000 0.818380 0.000000
O O12 0.786934 0.500000 0.084172
O O13 0.000000 0.601427 0.070281
O O14 0.249924 0.890626 0.313370
O O15 0.000000 0.898679 0.266143
O O16 0.215042 0.000000 0.254621
O O17 0.500000 0.825912 0.340709
O O18 0.250000 0.750000 0.341450
#
# Coordination Sequence:
#
# PCOD8268768 Si02
#       6
#    16  16   8  16  16  16
#     4  11  23  40  63  89 116 147 185 228 276 331
#     4   8  14  25  43  70 102 134 170 214 264 316
#     4  12  25  40  61  89 121 159 201 242 283 328
#     4  10  22  41  64  90 121 155 190 232 282 333
#     4  11  24  40  57  78 107 143 183 229 278 328
#     4  10  19  32  53  79 108 141 178 222 270 324
#
# _framework density 19.434394999999999
#
# number of rings (size 3 to 8) (size 9 to 14) (size 15 to 20)
#    0.000    1.818    0.000    4.364    0.000    7.273 
#    0.000    0.000    0.000    0.545    0.000    3.818 
#    0.000    0.000    0.000    0.000    0.000    0.000 
#
# Total GULP energy -545361.423983 kJ/mol
# GULP energy per Si atom -12394.577818 kJ/mol
# Density = 1.939016 g / cm^3
# Si number density = 19.434395 Si / 1000 Ang^3
#
#
#
# Elastic Constant Matrix: (Units=GPa)
#
#
# Indices 1 2 3 4 5 6 
#
# 1 100.6804 49.7228 58.0971 0.0000 0.0000 0.0000
# 2 49.7228 95.8118 46.0294 0.0000 0.0000 0.0000
# 3 58.0971 46.0294 138.0597 0.0000 0.0000 0.0000
# 4 0.0000 0.0000 0.0000 41.9970 0.0000 0.0000
# 5 0.0000 0.0000 0.0000 0.0000 54.6151 0.0000
# 6 0.0000 0.0000 0.0000 0.0000 0.0000 27.6893
#
#
#
# Elastic Compliance Matrix: (Units=1/GPa)
#
#
# Indices 1 2 3 4 5 6 
#
# 1 0.015436 -0.005823 -0.004554 0.000000 0.000000 0.000000
# 2 -0.005823 0.014624 -0.002425 0.000000 0.000000 0.000000
# 3 -0.004554 -0.002425 0.009968 0.000000 0.000000 0.000000
# 4 0.000000 0.000000 0.000000 0.023811 0.000000 0.000000
# 5 0.000000 0.000000 0.000000 0.000000 0.018310 0.000000
# 6 0.000000 0.000000 0.000000 0.000000 0.000000 0.036115
#
#
# Mechanical properties :
#
#
# Convention : Reuss Voigt Hill
#
# Bulk Modulus (GPa) = 69.33115 71.36116 70.34616
# Shear Modulus (GPa) = 33.62968 36.90712 35.26840
#
# Velocity S-wave (km/s) = 4.16435 4.36255 4.26460
# Velocity P-wave (km/s) = 7.67296 7.88508 7.77974
#
# Compressibility (1/GPa) = 0.01442353
#
# Stress axis : x y z
#
# Youngs Moduli (GPa) = 64.78270 68.37990 100.31681
#
# Poissons Ratio (x) = 0.39817 0.45688
# Poissons Ratio (y) = 0.37722 0.24331
# Poissons Ratio (z) = 0.29505 0.16585
#
# Static dielectric constant tensor:
#      x y z
#    x 3.636850 0.000000 0.000000 
#    y 0.000000 3.468630 0.000000 
#    z 0.000000 0.000000 4.165550 
# 
# 
# High freq. dielectric constant tensor:
#      x y z
#    x 1.765120 0.000000 0.000000 
#    y 0.000000 1.734440 0.000000 
#    z 0.000000 0.000000 1.787550 
# 
# From -- ./inp_files/76698.got.cif
#   From: 2010.03.12/outbox.cif.g09.slc.cpg/sg65_39_cif.got.tgz:76698.got - 2010.04.10 20:52:16.
