data_PCOD8268533
_publ_section_title
;
Structure prediction by ZEFSAII (Michael W. Deem and Ramdas Pophale) SiO2 
 PCOD8268533
Probable space group: C M M M
;
_chemical_formula_sum "Si O2"
_cell_formula_units_Z 88
_cell_length_a 19.588864
_cell_length_b 8.740104
_cell_length_c 27.861473
_cell_angle_alpha 90.000000
_cell_angle_beta 90.000000
_cell_angle_gamma 90.000000
_cell_volume 4770.126812
_symmetry_space_group_name_H-M "C M M M"
_symmetry_group_IT_number 65
_symmetry_cell_setting 'orthorhombic'
loop_
_space_group_symop_operation_xyz
x,y,z
-x,-y,z
x,-y,-z
-x,y,-z
-x,-y,-z
x,y,-z
-x,y,z
x,-y,z
1/2+x,1/2+y,z
1/2-x,1/2-y,z
1/2+x,1/2-y,-z
1/2-x,1/2+y,-z
1/2-x,1/2-y,-z
1/2+x,1/2+y,-z
1/2-x,1/2+y,z
1/2+x,1/2-y,z
loop_
_atom_site_type_symbol
_atom_site_label
_atom_site_fract_x
_atom_site_fract_y
_atom_site_fract_z
Si Si1 0.922815 0.681100 0.000000
Si Si2 0.924576 0.181803 0.267168
Si Si3 0.177249 0.182657 0.185781
Si Si4 0.176582 0.317630 0.084247
Si Si5 0.080252 0.174658 0.626203
Si Si6 0.819721 0.320895 0.553983
O O1 0.881019 0.736135 0.046674
O O2 0.927651 0.500000 0.000000
O O3 0.000000 0.750430 0.000000
O O4 0.873941 0.243501 0.226529
O O5 0.900263 0.233292 0.320231
O O6 0.000000 0.248003 0.256295
O O7 0.927642 0.000000 0.266352
O O8 0.250000 0.250000 0.200068
O O9 0.152742 0.250442 0.135127
O O10 0.180509 0.000000 0.182542
O O11 0.183289 0.500000 0.087001
O O12 0.250000 0.250000 0.068867
O O13 0.117260 0.278254 0.587389
O O14 0.000000 0.191264 0.618005
O O15 0.103688 0.000000 0.619194
O O16 0.833721 0.259325 0.500000
O O17 0.810652 0.500000 0.553860
O O18 0.750000 0.250000 0.574737
#
# Coordination Sequence:
#
# PCOD8268533 Si02
#       6
#     8  16  16  16  16  16
#     4   9  19  34  51  73 100 129 160 198 246 293
#     4   8  16  32  52  73  99 132 166 201 244 291
#     4  10  19  32  51  74 101 130 163 203 244 289
#     4  10  19  33  53  73  97 129 164 201 241 289
#     4   9  18  34  55  77 102 134 171 207 247 300
#     4  10  21  36  53  74 102 134 168 209 256 303
#
# _framework density 18.448146999999999
#
# number of rings (size 3 to 8) (size 9 to 14) (size 15 to 20)
#    0.000    2.636    0.000    4.091    0.000    3.273 
#    0.000    6.818    0.000    7.636    0.000    0.000 
#    0.000    0.000    0.000    0.000    0.000    0.000 
#
# Total GULP energy -545524.770883 kJ/mol
# GULP energy per Si atom -12398.290247 kJ/mol
# Density = 1.840616 g / cm^3
# Si number density = 18.448147 Si / 1000 Ang^3
#
#
#
# Elastic Constant Matrix: (Units=GPa)
#
#
# Indices 1 2 3 4 5 6 
#
# 1 111.3320 31.2498 92.7441 0.0000 0.0000 0.0000
# 2 31.2498 60.1820 35.0173 0.0000 0.0000 0.0000
# 3 92.7441 35.0173 141.5094 0.0000 0.0000 0.0000
# 4 0.0000 0.0000 0.0000 20.6039 0.0000 0.0000
# 5 0.0000 0.0000 0.0000 0.0000 37.2649 0.0000
# 6 0.0000 0.0000 0.0000 0.0000 0.0000 25.5314
#
#
#
# Elastic Compliance Matrix: (Units=1/GPa)
#
#
# Indices 1 2 3 4 5 6 
#
# 1 0.020321 -0.003274 -0.012508 0.000000 0.000000 0.000000
# 2 -0.003274 0.019939 -0.002788 0.000000 0.000000 0.000000
# 3 -0.012508 -0.002788 0.015954 0.000000 0.000000 0.000000
# 4 0.000000 0.000000 0.000000 0.048535 0.000000 0.000000
# 5 0.000000 0.000000 0.000000 0.000000 0.026835 0.000000
# 6 0.000000 0.000000 0.000000 0.000000 0.000000 0.039167
#
#
# Mechanical properties :
#
#
# Convention : Reuss Voigt Hill
#
# Bulk Modulus (GPa) = 52.42875 70.11621 61.27248
# Shear Modulus (GPa) = 23.33744 26.94752 25.14248
#
# Velocity S-wave (km/s) = 3.56058 3.82608 3.69572
# Velocity P-wave (km/s) = 6.73683 7.59001 7.17611
#
# Compressibility (1/GPa) = 0.01907350
#
# Stress axis : x y z
#
# Youngs Moduli (GPa) = 49.21111 50.15399 62.67945
#
# Poissons Ratio (x) = 0.16419 0.78398
# Poissons Ratio (y) = 0.16111 0.17477
# Poissons Ratio (z) = 0.61553 0.13984
#
# Static dielectric constant tensor:
#      x y z
#    x 3.516660 0.000000 0.000000 
#    y 0.000000 3.170980 0.000000 
#    z 0.000000 0.000000 3.618110 
# 
# 
# High freq. dielectric constant tensor:
#      x y z
#    x 1.714670 0.000000 0.000000 
#    y 0.000000 1.697080 0.000000 
#    z 0.000000 0.000000 1.724950 
# 
# From -- ./inp_files/71025.got.cif
#   From: 2010.03.12/outbox.cif.g09.slc.cpg/sg65_36_cif.got.tgz:71025.got - 2010.04.10 20:52:16.
