data_PCOD8268650
_publ_section_title
;
Structure prediction by ZEFSAII (Michael W. Deem and Ramdas Pophale) SiO2 
 PCOD8268650
Probable space group: C M M M
;
_chemical_formula_sum "Si O2"
_cell_formula_units_Z 104
_cell_length_a 19.747442
_cell_length_b 9.205085
_cell_length_c 32.067254
_cell_angle_alpha 90.000000
_cell_angle_beta 90.000000
_cell_angle_gamma 90.000000
_cell_volume 5829.085451
_symmetry_space_group_name_H-M "C M M M"
_symmetry_group_IT_number 65
_symmetry_cell_setting 'orthorhombic'
loop_
_space_group_symop_operation_xyz
x,y,z
-x,-y,z
x,-y,-z
-x,y,-z
-x,-y,-z
x,y,-z
-x,y,z
x,-y,z
1/2+x,1/2+y,z
1/2-x,1/2-y,z
1/2+x,1/2-y,-z
1/2-x,1/2+y,-z
1/2-x,1/2-y,-z
1/2+x,1/2+y,-z
1/2-x,1/2+y,z
1/2+x,1/2-y,z
loop_
_atom_site_type_symbol
_atom_site_label
_atom_site_fract_x
_atom_site_fract_y
_atom_site_fract_z
Si Si1 0.178091 0.670413 0.409501
Si Si2 0.818036 0.665216 0.500000
Si Si3 0.078718 0.834356 0.047857
Si Si4 0.577974 0.333276 0.650071
Si Si5 0.817279 0.330811 0.199227
Si Si6 0.578539 0.664974 0.746356
Si Si7 0.817388 0.669336 0.102814
O O1 0.189740 0.500000 0.401549
O O2 0.250000 0.750000 0.404273
O O3 0.144812 0.699645 0.455895
O O4 0.124798 0.728360 0.376497
O O5 0.795504 0.500000 0.500000
O O6 0.750000 0.750000 0.500000
O O7 0.119050 0.724453 0.076805
O O8 0.000000 0.802318 0.054824
O O9 0.095768 0.000000 0.060302
O O10 0.098822 0.806353 0.000000
O O11 0.500000 0.292602 0.641641
O O12 0.591495 0.500000 0.637547
O O13 0.596315 0.307874 0.698210
O O14 0.806649 0.500000 0.207234
O O15 0.750000 0.250000 0.214866
O O16 0.880714 0.276630 0.225496
O O17 0.831762 0.295638 0.151031
O O18 0.500000 0.694833 0.754630
O O19 0.597136 0.500000 0.758794
O O20 0.807097 0.500000 0.094689
O O21 0.750000 0.750000 0.087217
#
# Coordination Sequence:
#
# PCOD8268650 Si02
#       7
#    16   8  16  16  16  16  16
#     4  10  19  32  52  76 101 131 168 208 251 299
#     4   8  16  30  47  70  99 129 163 205 249 294
#     4   9  19  36  56  78 105 137 173 212 253 299
#     4   9  19  36  54  73 101 134 168 208 251 297
#     4  10  21  36  54  77 105 135 169 211 254 299
#     4   9  19  36  56  76 100 133 170 207 251 302
#     4  10  21  36  54  77 105 137 172 210 254 302
#
# _framework density 17.841564000000002
#
# number of rings (size 3 to 8) (size 9 to 14) (size 15 to 20)
#    0.000    2.615    0.000    2.769    0.000    5.846 
#    0.000    5.769    0.000    2.308    0.000    0.000 
#    0.000    0.000    0.000    0.000    0.000    0.000 
#
# Total GULP energy -644685.581964 kJ/mol
# GULP energy per Si atom -12397.799653 kJ/mol
# Density = 1.780096 g / cm^3
# Si number density = 17.841564 Si / 1000 Ang^3
#
#
#
# Elastic Constant Matrix: (Units=GPa)
#
#
# Indices 1 2 3 4 5 6 
#
# 1 86.2734 58.9530 60.9273 0.0000 0.0000 0.0000
# 2 58.9530 101.0541 59.5915 0.0000 0.0000 0.0000
# 3 60.9273 59.5915 85.4381 0.0000 0.0000 0.0000
# 4 0.0000 0.0000 0.0000 31.5402 0.0000 0.0000
# 5 0.0000 0.0000 0.0000 0.0000 40.4126 0.0000
# 6 0.0000 0.0000 0.0000 0.0000 0.0000 37.9981
#
#
#
# Elastic Compliance Matrix: (Units=1/GPa)
#
#
# Indices 1 2 3 4 5 6 
#
# 1 0.026129 -0.007228 -0.013591 0.000000 0.000000 0.000000
# 2 -0.007228 0.018809 -0.007964 0.000000 0.000000 0.000000
# 3 -0.013591 -0.007964 0.026952 0.000000 0.000000 0.000000
# 4 0.000000 0.000000 0.000000 0.031706 0.000000 0.000000
# 5 0.000000 0.000000 0.000000 0.000000 0.024745 0.000000
# 6 0.000000 0.000000 0.000000 0.000000 0.000000 0.026317
#
#
# Mechanical properties :
#
#
# Convention : Reuss Voigt Hill
#
# Bulk Modulus (GPa) = 69.82486 70.18990 70.00738
# Shear Modulus (GPa) = 23.04168 28.20976 25.62572
#
# Velocity S-wave (km/s) = 3.59759 3.98065 3.79396
# Velocity P-wave (km/s) = 7.51518 7.78161 7.64956
#
# Compressibility (1/GPa) = 0.01432155
#
# Stress axis : x y z
#
# Youngs Moduli (GPa) = 38.27238 53.16565 37.10367
#
# Poissons Ratio (x) = 0.38429 0.50428
# Poissons Ratio (y) = 0.27664 0.29551
# Poissons Ratio (z) = 0.52016 0.42344
#
# Static dielectric constant tensor:
#      x y z
#    x 3.114220 0.000000 0.000000 
#    y 0.000000 3.305600 0.000000 
#    z 0.000000 0.000000 3.508000 
# 
# 
# High freq. dielectric constant tensor:
#      x y z
#    x 1.679590 0.000000 0.000000 
#    y 0.000000 1.697920 0.000000 
#    z 0.000000 0.000000 1.695780 
# 
# From -- ./inp_files/73348.got.cif
#   From: 2010.03.12/outbox.cif.g09.slc.cpg/sg65_37_cif.got.tgz:73348.got - 2010.04.10 20:52:16.
