data_PCOD8268588
_publ_section_title
;
Structure prediction by ZEFSAII (Michael W. Deem and Ramdas Pophale) SiO2 
 PCOD8268588
Probable space group: C M M M
;
_chemical_formula_sum "Si O2"
_cell_formula_units_Z 96
_cell_length_a 19.120981
_cell_length_b 24.414325
_cell_length_c 10.755420
_cell_angle_alpha 90.000000
_cell_angle_beta 90.000000
_cell_angle_gamma 90.000000
_cell_volume 5020.908024
_symmetry_space_group_name_H-M "C M M M"
_symmetry_group_IT_number 65
_symmetry_cell_setting 'orthorhombic'
loop_
_space_group_symop_operation_xyz
x,y,z
-x,-y,z
x,-y,-z
-x,y,-z
-x,-y,-z
x,y,-z
-x,y,z
x,-y,z
1/2+x,1/2+y,z
1/2-x,1/2-y,z
1/2+x,1/2-y,-z
1/2-x,1/2+y,-z
1/2-x,1/2-y,-z
1/2+x,1/2+y,-z
1/2-x,1/2+y,z
1/2+x,1/2-y,z
loop_
_atom_site_type_symbol
_atom_site_label
_atom_site_fract_x
_atom_site_fract_y
_atom_site_fract_z
Si Si1 0.832964 0.645088 0.642610
Si Si2 0.080384 0.765102 0.000000
Si Si3 0.823547 0.835612 0.359785
Si Si4 0.838753 0.061222 0.214926
Si Si5 0.918305 0.114054 0.000000
Si Si6 0.818092 0.562272 0.140318
Si Si7 0.081672 0.258267 0.734274
O O1 0.833775 0.621315 0.500000
O O2 0.758550 0.674319 0.670347
O O3 0.849774 0.598836 0.746685
O O4 0.891895 0.691759 0.650737
O O5 0.096667 0.728067 0.120702
O O6 0.118048 0.825175 0.000000
O O7 0.000000 0.781266 0.000000
O O8 0.840714 0.821408 0.500000
O O9 0.839701 0.899309 0.334305
O O10 0.874648 0.797198 0.282452
O O11 0.765345 0.065058 0.143593
O O12 0.853649 0.000000 0.262982
O O13 0.897959 0.079957 0.120914
O O14 0.000000 0.119510 0.000000
O O15 0.843971 0.500000 0.162907
O O16 0.841212 0.581413 0.000000
O O17 0.000000 0.247781 0.704887
#
# Coordination Sequence:
#
# PCOD8268588 Si02
#       7
#    16   8  16  16   8  16  16
#     4  10  22  37  56  85 115 145 183 225 271 327
#     4   9  20  35  52  76 105 140 181 226 273 323
#     4  10  21  37  54  76 110 146 181 227 275 319
#     4  10  19  32  51  76 105 139 182 227 270 320
#     4  11  19  32  50  72 105 142 181 226 278 325
#     4   9  18  34  57  83 111 142 179 225 272 322
#     4  11  22  38  58  80 109 144 183 226 276 331
#
# _framework density 19.120047
#
# number of rings (size 3 to 8) (size 9 to 14) (size 15 to 20)
#    0.000    2.000    2.500    1.250    1.167    4.000 
#    0.000    4.167    0.000    0.500    0.000    4.667 
#    0.000    0.000    0.000    0.000    0.000    0.000 
#
# Total GULP energy -594879.184339 kJ/mol
# GULP energy per Si atom -12393.316340 kJ/mol
# Density = 1.907653 g / cm^3
# Si number density = 19.120047 Si / 1000 Ang^3
#
#
#
# Elastic Constant Matrix: (Units=GPa)
#
#
# Indices 1 2 3 4 5 6 
#
# 1 55.2460 29.4466 31.9703 0.0000 0.0000 0.0000
# 2 29.4466 90.7040 43.6238 0.0000 0.0000 0.0000
# 3 31.9703 43.6238 107.2222 0.0000 0.0000 0.0000
# 4 0.0000 0.0000 0.0000 29.8614 0.0000 0.0000
# 5 0.0000 0.0000 0.0000 0.0000 21.0373 0.0000
# 6 0.0000 0.0000 0.0000 0.0000 0.0000 15.0451
#
#
#
# Elastic Compliance Matrix: (Units=1/GPa)
#
#
# Indices 1 2 3 4 5 6 
#
# 1 0.023804 -0.005364 -0.004915 0.000000 0.000000 0.000000
# 2 -0.005364 0.014916 -0.004469 0.000000 0.000000 0.000000
# 3 -0.004915 -0.004469 0.012610 0.000000 0.000000 0.000000
# 4 0.000000 0.000000 0.000000 0.033488 0.000000 0.000000
# 5 0.000000 0.000000 0.000000 0.000000 0.047535 0.000000
# 6 0.000000 0.000000 0.000000 0.000000 0.000000 0.066467
#
#
# Mechanical properties :
#
#
# Convention : Reuss Voigt Hill
#
# Bulk Modulus (GPa) = 45.80128 51.47262 48.63695
# Shear Modulus (GPa) = 21.22288 23.06419 22.14354
#
# Velocity S-wave (km/s) = 3.33525 3.47693 3.40683
# Velocity P-wave (km/s) = 6.23205 6.56490 6.40064
#
# Compressibility (1/GPa) = 0.02183345
#
# Stress axis : x y z
#
# Youngs Moduli (GPa) = 42.00905 67.04364 79.30011
#
# Poissons Ratio (x) = 0.35962 0.38979
# Poissons Ratio (y) = 0.22533 0.35440
# Poissons Ratio (z) = 0.20649 0.29963
#
# Static dielectric constant tensor:
#      x y z
#    x 3.196580 0.000000 0.000000 
#    y 0.000000 3.456690 0.000000 
#    z 0.000000 0.000000 4.287420 
# 
# 
# High freq. dielectric constant tensor:
#      x y z
#    x 1.712010 0.000000 0.000000 
#    y 0.000000 1.736910 0.000000 
#    z 0.000000 0.000000 1.751520 
# 
# From -- ./inp_files/29072.got.cif
#   From: 2010.03.12/outbox.cif.g09.slc.cpg/sg65_15_cif.got.tgz:29072.got - 2010.04.10 20:52:16.
