data_PCOD8268314
_publ_section_title
;
Structure prediction by ZEFSAII (Michael W. Deem and Ramdas Pophale) SiO2 
 PCOD8268314
Probable space group: C M M M
;
_chemical_formula_sum "Si O2"
_cell_formula_units_Z 104
_cell_length_a 19.243122
_cell_length_b 18.717323
_cell_length_c 16.405846
_cell_angle_alpha 90.000000
_cell_angle_beta 90.000000
_cell_angle_gamma 90.000000
_cell_volume 5909.053183
_symmetry_space_group_name_H-M "C M M M"
_symmetry_group_IT_number 65
_symmetry_cell_setting 'orthorhombic'
loop_
_space_group_symop_operation_xyz
x,y,z
-x,-y,z
x,-y,-z
-x,y,-z
-x,-y,-z
x,y,-z
-x,y,z
x,-y,z
1/2+x,1/2+y,z
1/2-x,1/2-y,z
1/2+x,1/2-y,-z
1/2-x,1/2+y,-z
1/2-x,1/2-y,-z
1/2+x,1/2+y,-z
1/2-x,1/2+y,z
1/2+x,1/2-y,z
loop_
_atom_site_type_symbol
_atom_site_label
_atom_site_fract_x
_atom_site_fract_y
_atom_site_fract_z
Si Si1 0.802406 0.810849 0.405996
Si Si2 0.580517 0.699863 0.273927
Si Si3 0.252924 0.170104 0.906544
Si Si4 0.220779 0.579415 0.315298
Si Si5 0.878333 0.650698 0.200312
Si Si6 0.655854 0.418980 0.186314
Si Si7 0.000000 0.415539 0.095386
O O1 0.823534 0.804464 0.500000
O O2 0.750000 0.750000 0.376114
O O3 0.873391 0.803883 0.355376
O O4 0.757766 0.882550 0.391804
O O5 0.500000 0.705050 0.299402
O O6 0.600837 0.767294 0.217473
O O7 0.592243 0.626285 0.223943
O O8 0.250000 0.250000 0.870198
O O9 0.316188 0.135076 0.860777
O O10 0.182382 0.124129 0.893469
O O11 0.271881 0.172406 0.000000
O O12 0.201774 0.500000 0.343294
O O13 0.148048 0.615729 0.285813
O O14 0.278508 0.580511 0.245381
O O15 0.937323 0.610041 0.151547
O O16 0.631258 0.500000 0.165814
O O17 0.000000 0.500000 0.090234
O O18 0.000000 0.386126 0.000000
#
# Coordination Sequence:
#
# PCOD8268314 Si02
#       7
#    16  16  16  16  16  16   8
#     4  10  20  35  57  84 113 143 179 229 282 331
#     4  11  21  35  57  82 109 150 189 226 274 331
#     4  10  19  31  53  80 105 135 177 231 285 328
#     4   9  18  32  55  81 105 139 178 222 274 330
#     4  11  19  34  54  79 107 144 187 230 275 335
#     4   9  19  34  53  78 106 138 181 229 274 327
#     4  11  24  38  52  76 114 152 188 235 288 338
#
# _framework density 17.600111999999999
#
# number of rings (size 3 to 8) (size 9 to 14) (size 15 to 20)
#    0.000    1.923    3.846    0.923    0.000    1.846 
#    0.000    0.000    0.000    0.000    0.000    5.385 
#    0.000    4.923    0.000    0.000    0.000    0.000 
#
# Total GULP energy -644233.656802 kJ/mol
# GULP energy per Si atom -12389.108785 kJ/mol
# Density = 1.756005 g / cm^3
# Si number density = 17.600112 Si / 1000 Ang^3
#
#
#
# Elastic Constant Matrix: (Units=GPa)
#
#
# Indices 1 2 3 4 5 6 
#
# 1 105.8791 36.7298 45.5754 0.0000 0.0000 0.0000
# 2 36.7298 124.6635 26.1138 0.0000 0.0000 0.0000
# 3 45.5754 26.1138 58.5047 0.0000 0.0000 0.0000
# 4 0.0000 0.0000 0.0000 19.6334 0.0000 0.0000
# 5 0.0000 0.0000 0.0000 0.0000 17.6634 0.0000
# 6 0.0000 0.0000 0.0000 0.0000 0.0000 22.3797
#
#
#
# Elastic Compliance Matrix: (Units=1/GPa)
#
#
# Indices 1 2 3 4 5 6 
#
# 1 0.014706 -0.002133 -0.010504 0.000000 0.000000 0.000000
# 2 -0.002133 0.009158 -0.002427 0.000000 0.000000 0.000000
# 3 -0.010504 -0.002427 0.026359 0.000000 0.000000 0.000000
# 4 0.000000 0.000000 0.000000 0.050934 0.000000 0.000000
# 5 0.000000 0.000000 0.000000 0.000000 0.056614 0.000000
# 6 0.000000 0.000000 0.000000 0.000000 0.000000 0.044683
#
#
# Mechanical properties :
#
#
# Convention : Reuss Voigt Hill
#
# Bulk Modulus (GPa) = 49.76056 56.20949 52.98502
# Shear Modulus (GPa) = 20.89607 23.97718 22.43663
#
# Velocity S-wave (km/s) = 3.44942 3.69498 3.57431
# Velocity P-wave (km/s) = 6.64822 7.08591 6.87055
#
# Compressibility (1/GPa) = 0.02009624
#
# Stress axis : x y z
#
# Youngs Moduli (GPa) = 67.99933 109.19180 37.93833
#
# Poissons Ratio (x) = 0.23285 0.39851
# Poissons Ratio (y) = 0.14501 0.09206
# Poissons Ratio (z) = 0.71428 0.26496
#
# Static dielectric constant tensor:
#      x y z
#    x 3.074780 0.000000 0.000000 
#    y 0.000000 3.621080 0.000000 
#    z 0.000000 0.000000 3.110710 
# 
# 
# High freq. dielectric constant tensor:
#      x y z
#    x 1.667580 0.000000 0.000000 
#    y 0.000000 1.690830 0.000000 
#    z 0.000000 0.000000 1.662850 
# 
# From -- ./inp_files/54628.got.cif
#   From: 2010.03.12/outbox.cif.g09.slc.cpg/sg65_28_cif.got.tgz:54628.got - 2010.04.10 20:52:16.
