data_PCOD8268344
_publ_section_title
;
Structure prediction by ZEFSAII (Michael W. Deem and Ramdas Pophale) SiO2 
 PCOD8268344
Probable space group: C M M M
;
_chemical_formula_sum "Si O2"
_cell_formula_units_Z 80
_cell_length_a 8.108535
_cell_length_b 28.455481
_cell_length_c 22.035667
_cell_angle_alpha 90.000000
_cell_angle_beta 90.000000
_cell_angle_gamma 90.000000
_cell_volume 5084.339328
_symmetry_space_group_name_H-M "C M M M"
_symmetry_group_IT_number 65
_symmetry_cell_setting 'orthorhombic'
loop_
_space_group_symop_operation_xyz
x,y,z
-x,-y,z
x,-y,-z
-x,y,-z
-x,-y,-z
x,y,-z
-x,y,z
x,-y,z
1/2+x,1/2+y,z
1/2-x,1/2-y,z
1/2+x,1/2-y,-z
1/2-x,1/2+y,-z
1/2-x,1/2-y,-z
1/2+x,1/2+y,-z
1/2-x,1/2+y,z
1/2+x,1/2-y,z
loop_
_atom_site_type_symbol
_atom_site_label
_atom_site_fract_x
_atom_site_fract_y
_atom_site_fract_z
Si Si1 0.306035 0.199411 0.930558
Si Si2 0.812537 0.894974 0.119318
Si Si3 0.810226 0.555460 0.000000
Si Si4 0.311949 0.052775 0.232083
Si Si5 0.000000 0.443960 0.568991
Si Si6 0.817197 0.055835 0.358768
O O1 0.500000 0.193590 0.925433
O O2 0.250000 0.250000 0.905485
O O3 0.219862 0.160125 0.889829
O O4 0.246100 0.193396 0.000000
O O5 0.703033 0.913424 0.174520
O O6 0.000000 0.903281 0.137687
O O7 0.774453 0.923703 0.058937
O O8 0.788390 0.500000 0.000000
O O9 0.000000 0.571064 0.000000
O O10 0.500000 0.052315 0.254190
O O11 0.205879 0.071691 0.288831
O O12 0.256361 0.000000 0.213329
O O13 0.167842 0.423690 0.600104
O O14 0.000000 0.500000 0.572773
O O15 0.000000 0.426181 0.500000
O O16 0.000000 0.073192 0.380632
O O17 0.808504 0.000000 0.362089
#
# Coordination Sequence:
#
# PCOD8268344 Si02
#       6
#    16  16   8  16   8  16
#     4  10  20  35  54  70  88 111 139 180 230 279
#     4  12  23  33  48  69  90 113 148 189 231 283
#     4  11  23  37  48  61  86 117 147 187 239 281
#     4  10  19  32  48  64  87 121 157 194 233 276
#     4   9  16  26  40  60  86 115 151 193 231 266
#     4   9  16  27  42  60  84 115 152 192 230 270
#
# _framework density 15.734591
#
# number of rings (size 3 to 8) (size 9 to 14) (size 15 to 20)
#    0.000    1.800    2.000    3.900    0.000    5.600 
#    0.000    2.000    0.000    0.000    0.000    0.000 
#    0.000    0.000    0.000    0.000    0.000    1.000 
#
# Total GULP energy -495989.964695 kJ/mol
# GULP energy per Si atom -12399.749117 kJ/mol
# Density = 1.569878 g / cm^3
# Si number density = 15.734591 Si / 1000 Ang^3
#
#
#
# Elastic Constant Matrix: (Units=GPa)
#
#
# Indices 1 2 3 4 5 6 
#
# 1 95.6036 16.8003 38.6040 0.0000 0.0000 0.0000
# 2 16.8003 56.9358 23.9941 0.0000 0.0000 0.0000
# 3 38.6040 23.9941 90.2895 0.0000 0.0000 0.0000
# 4 0.0000 0.0000 0.0000 2.0173 0.0000 0.0000
# 5 0.0000 0.0000 0.0000 0.0000 22.6418 0.0000
# 6 0.0000 0.0000 0.0000 0.0000 0.0000 18.6118
#
#
#
# Elastic Compliance Matrix: (Units=1/GPa)
#
#
# Indices 1 2 3 4 5 6 
#
# 1 0.012779 -0.001653 -0.005024 0.000000 0.000000 0.000000
# 2 -0.001653 0.019993 -0.004606 0.000000 0.000000 0.000000
# 3 -0.005024 -0.004606 0.014448 0.000000 0.000000 0.000000
# 4 0.000000 0.000000 0.000000 0.495719 0.000000 0.000000
# 5 0.000000 0.000000 0.000000 0.000000 0.044166 0.000000
# 6 0.000000 0.000000 0.000000 0.000000 0.000000 0.053729
#
#
# Mechanical properties :
#
#
# Convention : Reuss Voigt Hill
#
# Bulk Modulus (GPa) = 40.56497 44.62507 42.59502
# Shear Modulus (GPa) = 7.44469 19.54954 13.49712
#
# Velocity S-wave (km/s) = 2.17754 3.52867 2.93200
# Velocity P-wave (km/s) = 5.67089 6.71005 6.21223
#
# Compressibility (1/GPa) = 0.02465181
#
# Stress axis : x y z
#
# Youngs Moduli (GPa) = 78.25182 50.01846 69.21473
#
# Poissons Ratio (x) = 0.08270 0.34777
# Poissons Ratio (y) = 0.12938 0.31881
# Poissons Ratio (z) = 0.39318 0.23039
#
# Static dielectric constant tensor:
#      x y z
#    x 3.265600 0.000000 0.000000 
#    y 0.000000 2.714670 0.000000 
#    z 0.000000 0.000000 2.862220 
# 
# 
# High freq. dielectric constant tensor:
#      x y z
#    x 1.627840 0.000000 0.000000 
#    y 0.000000 1.553340 0.000000 
#    z 0.000000 0.000000 1.585450 
# 
# From -- ./inp_files/60545.got.cif
#   From: 2010.03.12/outbox.cif.g09.slc.cpg/sg65_31_cif.got.tgz:60545.got - 2010.04.10 20:52:16.
