data_PCOD8268649
_publ_section_title
;
Structure prediction by ZEFSAII (Michael W. Deem and Ramdas Pophale) SiO2 
 PCOD8268649
Probable space group: C M M M
;
_chemical_formula_sum "Si O2"
_cell_formula_units_Z 72
_cell_length_a 19.669695
_cell_length_b 9.216384
_cell_length_c 22.423811
_cell_angle_alpha 90.000000
_cell_angle_beta 90.000000
_cell_angle_gamma 90.000000
_cell_volume 4065.066096
_symmetry_space_group_name_H-M "C M M M"
_symmetry_group_IT_number 65
_symmetry_cell_setting 'orthorhombic'
loop_
_space_group_symop_operation_xyz
x,y,z
-x,-y,z
x,-y,-z
-x,y,-z
-x,-y,-z
x,y,-z
-x,y,z
x,-y,z
1/2+x,1/2+y,z
1/2-x,1/2-y,z
1/2+x,1/2-y,-z
1/2-x,1/2+y,-z
1/2-x,1/2-y,-z
1/2+x,1/2+y,-z
1/2-x,1/2+y,z
1/2+x,1/2-y,z
loop_
_atom_site_type_symbol
_atom_site_label
_atom_site_fract_x
_atom_site_fract_y
_atom_site_fract_z
Si Si1 0.322087 0.829837 0.129398
Si Si2 0.921014 0.835387 0.647386
Si Si3 0.181786 0.664942 0.000000
Si Si4 0.578398 0.333584 0.215139
Si Si5 0.817546 0.330956 0.431130
O O1 0.250000 0.750000 0.136714
O O2 0.375424 0.771898 0.176710
O O3 0.310290 0.000000 0.140826
O O4 0.355596 0.800927 0.063066
O O5 0.902495 0.808202 0.716129
O O6 0.880969 0.723161 0.606777
O O7 0.000000 0.806489 0.636249
O O8 0.902117 0.000000 0.629437
O O9 0.250000 0.750000 0.000000
O O10 0.204607 0.500000 0.000000
O O11 0.500000 0.293564 0.203711
O O12 0.592145 0.500000 0.197101
O O13 0.832519 0.295712 0.500000
O O14 0.806770 0.500000 0.419815
O O15 0.750000 0.250000 0.409002
#
# Coordination Sequence:
#
# PCOD8268649 Si02
#       5
#    16  16   8  16  16
#     4  10  19  32  52  76 101 131 168 208 251 299
#     4   9  19  36  56  76 100 133 170 207 249 297
#     4   8  16  30  47  70  99 129 163 205 249 294
#     4   9  19  36  54  73 101 134 168 208 251 295
#     4  10  21  36  54  77 105 135 167 206 250 295
#
# _framework density 17.711888999999999
#
# number of rings (size 3 to 8) (size 9 to 14) (size 15 to 20)
#    0.000    2.667    0.000    2.667    0.000    5.333 
#    0.000    5.000    0.000    3.333    0.000    0.000 
#    0.000    0.000    0.000    0.000    0.000    0.000 
#
# Total GULP energy -446227.619433 kJ/mol
# GULP energy per Si atom -12395.211651 kJ/mol
# Density = 1.767158 g / cm^3
# Si number density = 17.711889 Si / 1000 Ang^3
#
#
#
# Elastic Constant Matrix: (Units=GPa)
#
#
# Indices 1 2 3 4 5 6 
#
# 1 80.1895 56.3151 61.8036 0.0000 0.0000 0.0000
# 2 56.3151 99.6638 61.5854 0.0000 0.0000 0.0000
# 3 61.8036 61.5854 94.3221 0.0000 0.0000 0.0000
# 4 0.0000 0.0000 0.0000 30.1930 0.0000 0.0000
# 5 0.0000 0.0000 0.0000 0.0000 58.7941 0.0000
# 6 0.0000 0.0000 0.0000 0.0000 0.0000 36.4156
#
#
#
# Elastic Compliance Matrix: (Units=1/GPa)
#
#
# Indices 1 2 3 4 5 6 
#
# 1 0.028242 -0.007582 -0.013555 0.000000 0.000000 0.000000
# 2 -0.007582 0.018856 -0.007343 0.000000 0.000000 0.000000
# 3 -0.013555 -0.007343 0.024278 0.000000 0.000000 0.000000
# 4 0.000000 0.000000 0.000000 0.033120 0.000000 0.000000
# 5 0.000000 0.000000 0.000000 0.000000 0.017009 0.000000
# 6 0.000000 0.000000 0.000000 0.000000 0.000000 0.027461
#
#
# Mechanical properties :
#
#
# Convention : Reuss Voigt Hill
#
# Bulk Modulus (GPa) = 69.36925 70.39817 69.88371
# Shear Modulus (GPa) = 23.72689 31.37861 27.55275
#
# Velocity S-wave (km/s) = 3.66403 4.21362 3.94840
# Velocity P-wave (km/s) = 7.55980 7.96902 7.76711
#
# Compressibility (1/GPa) = 0.01441561
#
# Stress axis : x y z
#
# Youngs Moduli (GPa) = 35.40788 53.03430 41.18943
#
# Poissons Ratio (x) = 0.40213 0.55831
# Poissons Ratio (y) = 0.26848 0.30246
# Poissons Ratio (z) = 0.47994 0.38944
#
# Static dielectric constant tensor:
#      x y z
#    x 3.034070 0.000000 0.000000 
#    y 0.000000 3.292490 0.000000 
#    z 0.000000 0.000000 3.612870 
# 
# 
# High freq. dielectric constant tensor:
#      x y z
#    x 1.667410 0.000000 0.000000 
#    y 0.000000 1.693390 0.000000 
#    z 0.000000 0.000000 1.694430 
# 
# From -- ./inp_files/56461.got.cif
#   From: 2010.03.12/outbox.cif.g09.slc.cpg/sg65_29_cif.got.tgz:56461.got - 2010.04.10 20:52:16.
