data_PCOD8268514
_publ_section_title
;
Structure prediction by ZEFSAII (Michael W. Deem and Ramdas Pophale) SiO2 
 PCOD8268514
Probable space group: C M M M
;
_chemical_formula_sum "Si O2"
_cell_formula_units_Z 72
_cell_length_a 29.288347
_cell_length_b 15.685009
_cell_length_c 8.807043
_cell_angle_alpha 90.000000
_cell_angle_beta 90.000000
_cell_angle_gamma 90.000000
_cell_volume 4045.849749
_symmetry_space_group_name_H-M "C M M M"
_symmetry_group_IT_number 65
_symmetry_cell_setting 'orthorhombic'
loop_
_space_group_symop_operation_xyz
x,y,z
-x,-y,z
x,-y,-z
-x,y,-z
-x,-y,-z
x,y,-z
-x,y,z
x,-y,z
1/2+x,1/2+y,z
1/2-x,1/2-y,z
1/2+x,1/2-y,-z
1/2-x,1/2+y,-z
1/2-x,1/2-y,-z
1/2+x,1/2+y,-z
1/2-x,1/2+y,z
1/2+x,1/2-y,z
loop_
_atom_site_type_symbol
_atom_site_label
_atom_site_fract_x
_atom_site_fract_y
_atom_site_fract_z
Si Si1 0.287205 0.682317 0.318479
Si Si2 0.052321 0.672255 0.678430
Si Si3 0.624442 0.500000 0.171151
Si Si4 0.783925 0.000000 0.326424
Si Si5 0.445786 0.000000 0.827724
Si Si6 0.885913 0.187625 0.825435
O O1 0.294792 0.682997 0.500000
O O2 0.250000 0.750000 0.265090
O O3 0.266585 0.590563 0.259859
O O4 0.335041 0.701250 0.238300
O O5 0.056860 0.664002 0.500000
O O6 0.073414 0.585440 0.748478
O O7 0.079434 0.754477 0.733201
O O8 0.000000 0.684093 0.730112
O O9 0.661770 0.500000 0.302945
O O10 0.596684 0.588762 0.191345
O O11 0.646203 0.500000 0.000000
O O12 0.770704 0.000000 0.500000
O O13 0.500000 0.000000 0.812681
O O14 0.428848 0.000000 0.000000
O O15 0.886330 0.216258 0.000000
#
# Coordination Sequence:
#
# PCOD8268514 Si02
#       6
#    16  16   8   8   8  16
#     4   9  17  30  48  69  94 124 159 199 243 293
#     4  10  20  34  52  74 100 130 164 201 242 291
#     4   8  16  30  47  68  93 125 163 200 242 291
#     4   8  14  26  45  66  87 118 158 194 232 283
#     4   9  17  31  52  75  98 127 163 200 240 289
#     4  10  19  32  51  73  98 128 164 206 249 294
#
# _framework density 17.796014
#
# number of rings (size 3 to 8) (size 9 to 14) (size 15 to 20)
#    0.000    2.778    0.000    1.667    0.000    4.000 
#    0.000    1.667    0.000    6.000    0.000    0.000 
#    0.000    0.000    0.000    0.000    0.000    0.000 
#
# Total GULP energy -445977.681353 kJ/mol
# GULP energy per Si atom -12388.268926 kJ/mol
# Density = 1.775551 g / cm^3
# Si number density = 17.796014 Si / 1000 Ang^3
#
#
#
# Elastic Constant Matrix: (Units=GPa)
#
#
# Indices 1 2 3 4 5 6 
#
# 1 58.4818 61.1144 23.6705 0.0000 0.0000 0.0000
# 2 61.1144 173.9849 36.1189 0.0000 0.0000 0.0000
# 3 23.6705 36.1189 46.8626 0.0000 0.0000 0.0000
# 4 0.0000 0.0000 0.0000 27.3602 0.0000 0.0000
# 5 0.0000 0.0000 0.0000 0.0000 19.9995 0.0000
# 6 0.0000 0.0000 0.0000 0.0000 0.0000 30.8335
#
#
#
# Elastic Compliance Matrix: (Units=1/GPa)
#
#
# Indices 1 2 3 4 5 6 
#
# 1 0.029455 -0.008640 -0.008218 0.000000 0.000000 0.000000
# 2 -0.008640 0.009377 -0.002863 0.000000 0.000000 0.000000
# 3 -0.008218 -0.002863 0.027697 0.000000 0.000000 0.000000
# 4 0.000000 0.000000 0.000000 0.036549 0.000000 0.000000
# 5 0.000000 0.000000 0.000000 0.000000 0.050001 0.000000
# 6 0.000000 0.000000 0.000000 0.000000 0.000000 0.032432
#
#
# Mechanical properties :
#
#
# Convention : Reuss Voigt Hill
#
# Bulk Modulus (GPa) = 36.92034 57.90409 47.41222
# Shear Modulus (GPa) = 21.36902 26.20035 23.78468
#
# Velocity S-wave (km/s) = 3.46898 3.84117 3.65981
# Velocity P-wave (km/s) = 6.06931 7.23056 6.67524
#
# Compressibility (1/GPa) = 0.02708534
#
# Stress axis : x y z
#
# Youngs Moduli (GPa) = 33.95006 106.64410 36.10531
#
# Poissons Ratio (x) = 0.92144 0.29673
# Poissons Ratio (y) = 0.29334 0.10337
# Poissons Ratio (z) = 0.27902 0.30532
#
# Static dielectric constant tensor:
#      x y z
#    x 2.857310 0.000000 0.000000 
#    y 0.000000 3.821690 0.000000 
#    z 0.000000 0.000000 3.329970 
# 
# 
# High freq. dielectric constant tensor:
#      x y z
#    x 1.634270 0.000000 0.000000 
#    y 0.000000 1.716160 0.000000 
#    z 0.000000 0.000000 1.693170 
# 
# From -- ./inp_files/7390.got.cif
#   From: 2010.03.12/outbox.cif.g09.slc.cpg/sg65_4_cif.got.tgz:7390.got - 2010.04.10 20:52:16.
