data_PCOD8268904
_publ_section_title
;
Structure prediction by ZEFSAII (Michael W. Deem and Ramdas Pophale) SiO2 
 PCOD8268904
Probable space group: C M M M
;
_chemical_formula_sum "Si O2"
_cell_formula_units_Z 104
_cell_length_a 32.455081
_cell_length_b 18.781782
_cell_length_c 9.315925
_cell_angle_alpha 90.000000
_cell_angle_beta 90.000000
_cell_angle_gamma 90.000000
_cell_volume 5678.654893
_symmetry_space_group_name_H-M "C M M M"
_symmetry_group_IT_number 65
_symmetry_cell_setting 'orthorhombic'
loop_
_space_group_symop_operation_xyz
x,y,z
-x,-y,z
x,-y,-z
-x,y,-z
-x,-y,-z
x,y,-z
-x,y,z
x,-y,z
1/2+x,1/2+y,z
1/2-x,1/2-y,z
1/2+x,1/2-y,-z
1/2-x,1/2+y,-z
1/2-x,1/2-y,-z
1/2+x,1/2+y,-z
1/2-x,1/2+y,z
1/2+x,1/2-y,z
loop_
_atom_site_type_symbol
_atom_site_label
_atom_site_fract_x
_atom_site_fract_y
_atom_site_fract_z
Si Si1 0.182011 0.415255 0.660988
Si Si2 0.242145 0.915678 0.841035
Si Si3 0.500000 0.419622 0.670765
Si Si4 0.047605 0.685316 0.664129
Si Si5 0.102127 0.583373 0.166428
Si Si6 0.649853 0.418855 0.830440
Si Si7 0.080167 0.839229 0.667224
O O1 0.178458 0.384508 0.500000
O O2 0.183638 0.500000 0.658302
O O3 0.223657 0.384198 0.732872
O O4 0.142880 0.389304 0.752162
O O5 0.196340 0.896717 0.786331
O O6 0.246647 0.000000 0.850816
O O7 0.249798 0.883574 0.000000
O O8 0.500000 0.500000 0.727939
O O9 0.500000 0.415094 0.500000
O O10 0.540672 0.380980 0.730080
O O11 0.053377 0.660250 0.500000
O O12 0.062619 0.622992 0.768711
O O13 0.074056 0.755785 0.694563
O O14 0.000000 0.702049 0.696402
O O15 0.094898 0.500000 0.189998
O O16 0.107131 0.602399 0.000000
O O17 0.640543 0.500000 0.781603
O O18 0.620328 0.364199 0.750921
O O19 0.643992 0.411859 0.000000
O O20 0.086116 0.856401 0.500000
#
# Coordination Sequence:
#
# PCOD8268904 Si02
#       7
#    16  16   8  16  16  16  16
#     4   9  16  27  47  76 106 133 165 207 253 301
#     4   8  14  26  44  67 100 140 174 206 250 302
#     4   9  16  28  49  75 100 129 168 214 259 299
#     4  10  21  38  57  76 102 135 172 214 262 315
#     4  10  21  36  55  80 107 134 167 207 253 310
#     4   9  18  31  47  72 107 143 178 217 260 304
#     4  10  19  33  52  74 100 134 176 218 260 309
#
# _framework density 18.314197
#
# number of rings (size 3 to 8) (size 9 to 14) (size 15 to 20)
#    0.000    2.692    0.769    2.308    0.000    5.538 
#    0.000    3.462    0.000    2.308    0.000    6.462 
#    0.000    0.000    0.000    0.000    0.000    0.000 
#
# Total GULP energy -644776.890281 kJ/mol
# GULP energy per Si atom -12399.555582 kJ/mol
# Density = 1.827251 g / cm^3
# Si number density = 18.314197 Si / 1000 Ang^3
#
#
#
# Elastic Constant Matrix: (Units=GPa)
#
#
# Indices 1 2 3 4 5 6 
#
# 1 109.4550 40.8258 64.3716 0.0000 0.0000 0.0000
# 2 40.8258 50.3582 41.0721 0.0000 0.0000 0.0000
# 3 64.3716 41.0721 101.2206 0.0000 0.0000 0.0000
# 4 0.0000 0.0000 0.0000 21.0128 0.0000 0.0000
# 5 0.0000 0.0000 0.0000 0.0000 31.7188 0.0000
# 6 0.0000 0.0000 0.0000 0.0000 0.0000 12.9495
#
#
#
# Elastic Compliance Matrix: (Units=1/GPa)
#
#
# Indices 1 2 3 4 5 6 
#
# 1 0.016103 -0.007029 -0.007389 0.000000 0.000000 0.000000
# 2 -0.007029 0.032748 -0.008818 0.000000 0.000000 0.000000
# 3 -0.007389 -0.008818 0.018157 0.000000 0.000000 0.000000
# 4 0.000000 0.000000 0.000000 0.047590 0.000000 0.000000
# 5 0.000000 0.000000 0.000000 0.000000 0.031527 0.000000
# 6 0.000000 0.000000 0.000000 0.000000 0.000000 0.077223
#
#
# Mechanical properties :
#
#
# Convention : Reuss Voigt Hill
#
# Bulk Modulus (GPa) = 48.69426 61.50809 55.10118
# Shear Modulus (GPa) = 18.07237 20.78716 19.42977
#
# Velocity S-wave (km/s) = 3.14474 3.37268 3.26070
# Velocity P-wave (km/s) = 6.31125 6.98745 6.65794
#
# Compressibility (1/GPa) = 0.02053630
#
# Stress axis : x y z
#
# Youngs Moduli (GPa) = 62.09882 30.53617 55.07641
#
# Poissons Ratio (x) = 0.21463 0.40696
# Poissons Ratio (y) = 0.43647 0.48567
# Poissons Ratio (z) = 0.45885 0.26927
#
# Static dielectric constant tensor:
#      x y z
#    x 3.507830 0.000000 0.000000 
#    y 0.000000 3.005980 0.000000 
#    z 0.000000 0.000000 3.370770 
# 
# 
# High freq. dielectric constant tensor:
#      x y z
#    x 1.721010 0.000000 0.000000 
#    y 0.000000 1.672620 0.000000 
#    z 0.000000 0.000000 1.701470 
# 
# From -- ./inp_files/18660.got.cif
#   From: 2010.03.12/outbox.cif.g09.slc.cpg/sg65_10_cif.got.tgz:18660.got - 2010.04.10 20:52:16.
