data_PCOD8268993
_publ_section_title
;
Structure prediction by ZEFSAII (Michael W. Deem and Ramdas Pophale) SiO2 
 PCOD8268993
Probable space group: C M M M
;
_chemical_formula_sum "Si O2"
_cell_formula_units_Z 80
_cell_length_a 8.964029
_cell_length_b 18.468945
_cell_length_c 26.190874
_cell_angle_alpha 90.000000
_cell_angle_beta 90.000000
_cell_angle_gamma 90.000000
_cell_volume 4336.060489
_symmetry_space_group_name_H-M "C M M M"
_symmetry_group_IT_number 65
_symmetry_cell_setting 'orthorhombic'
loop_
_space_group_symop_operation_xyz
x,y,z
-x,-y,z
x,-y,-z
-x,y,-z
-x,-y,-z
x,y,-z
-x,y,z
x,-y,z
1/2+x,1/2+y,z
1/2-x,1/2-y,z
1/2+x,1/2-y,-z
1/2-x,1/2+y,-z
1/2-x,1/2-y,-z
1/2+x,1/2+y,-z
1/2-x,1/2+y,z
1/2+x,1/2-y,z
loop_
_atom_site_type_symbol
_atom_site_label
_atom_site_fract_x
_atom_site_fract_y
_atom_site_fract_z
Si Si1 0.672609 0.414680 0.000000
Si Si2 0.829914 0.085872 0.601389
Si Si3 0.824140 0.328448 0.689595
Si Si4 0.170741 0.324859 0.800276
Si Si5 0.668561 0.086215 0.500000
Si Si6 0.175919 0.328756 0.088936
O O1 0.750992 0.383931 0.949963
O O2 0.694147 0.500000 0.000000
O O3 0.500000 0.392059 0.000000
O O4 0.743620 0.116015 0.649833
O O5 0.753193 0.115817 0.549934
O O6 0.000000 0.112872 0.601885
O O7 0.820005 0.000000 0.603658
O O8 0.750000 0.250000 0.683370
O O9 0.788609 0.363296 0.746234
O O10 0.000000 0.320887 0.679920
O O11 0.250000 0.250000 0.802123
O O12 0.206420 0.364282 0.854316
O O13 0.000000 0.304161 0.798739
O O14 0.500000 0.116158 0.500000
O O15 0.669758 0.000000 0.500000
O O16 0.250000 0.250000 0.082958
O O17 0.000000 0.321211 0.077890
#
# Coordination Sequence:
#
# PCOD8268993 Si02
#       6
#     8  16  16  16   8  16
#     4  11  24  39  52  71 103 139 172 209 256 305
#     4  10  20  34  52  75 103 135 172 212 253 300
#     4  10  19  33  53  77 106 137 169 206 252 303
#     4   8  16  30  50  76 102 130 165 206 249 295
#     4   9  17  31  52  75  98 129 170 213 257 303
#     4  10  19  34  57  81 103 130 169 212 252 298
#
# _framework density 18.449926999999999
#
# number of rings (size 3 to 8) (size 9 to 14) (size 15 to 20)
#    0.000    2.400    0.000    2.700    0.000    4.800 
#    0.000    1.500    0.000    6.000    0.000    0.000 
#    0.000    0.000    0.000    0.000    0.000    0.000 
#
# Total GULP energy -495582.838706 kJ/mol
# GULP energy per Si atom -12389.570968 kJ/mol
# Density = 1.840793 g / cm^3
# Si number density = 18.449927 Si / 1000 Ang^3
#
#
#
# Elastic Constant Matrix: (Units=GPa)
#
#
# Indices 1 2 3 4 5 6 
#
# 1 128.5025 33.5617 84.9895 0.0000 0.0000 0.0000
# 2 33.5617 33.8647 40.0399 0.0000 0.0000 0.0000
# 3 84.9895 40.0399 191.3910 0.0000 0.0000 0.0000
# 4 0.0000 0.0000 0.0000 -90.8702 0.0000 0.0000
# 5 0.0000 0.0000 0.0000 0.0000 28.8000 0.0000
# 6 0.0000 0.0000 0.0000 0.0000 0.0000 26.9829
#
#
#
# Elastic Compliance Matrix: (Units=1/GPa)
#
#
# Indices 1 2 3 4 5 6 
#
# 1 0.012347 -0.007645 -0.003884 0.000000 0.000000 0.000000
# 2 -0.007645 0.043967 -0.005803 0.000000 0.000000 0.000000
# 3 -0.003884 -0.005803 0.008164 0.000000 0.000000 0.000000
# 4 0.000000 0.000000 0.000000 -0.011005 0.000000 0.000000
# 5 0.000000 0.000000 0.000000 0.000000 0.034722 0.000000
# 6 0.000000 0.000000 0.000000 0.000000 0.000000 0.037061
#
#
# Mechanical properties :
#
#
# Convention : Reuss Voigt Hill
#
# Bulk Modulus (GPa) = 33.54087 74.54892 54.04490
# Shear Modulus (GPa) = 29.43638 5.99369 17.71503
#
# Velocity S-wave (km/s) = 3.99867 1.80435 3.10202
# Velocity P-wave (km/s) = 6.28793 6.69587 6.49510
#
# Compressibility (1/GPa) = 0.02981437
#
# Stress axis : x y z
#
# Youngs Moduli (GPa) = 80.99050 22.74412 122.49615
#
# Poissons Ratio (x) = 0.17388 0.47572
# Poissons Ratio (y) = 0.61917 0.71089
# Poissons Ratio (z) = 0.31453 0.13199
#
# Static dielectric constant tensor:
#      x y z
#    x 3.593000 0.000000 0.000000 
#    y 0.000000 2.874950 0.000000 
#    z 0.000000 0.000000 4.343770 
# 
# 
# High freq. dielectric constant tensor:
#      x y z
#    x 1.735130 0.000000 0.000000 
#    y 0.000000 1.662760 0.000000 
#    z 0.000000 0.000000 1.746650 
# 
# From -- ./inp_files/72881.got.cif
#   From: 2010.03.12/outbox.cif.g09.slc.cpg/sg65_37_cif.got.tgz:72881.got - 2010.04.10 20:52:16.
