data_PCOD8268865
_publ_section_title
;
Structure prediction by ZEFSAII (Michael W. Deem and Ramdas Pophale) SiO2 
 PCOD8268865
Probable space group: C M M M
;
_chemical_formula_sum "Si O2"
_cell_formula_units_Z 104
_cell_length_a 16.712150
_cell_length_b 28.214630
_cell_length_c 12.954254
_cell_angle_alpha 90.000000
_cell_angle_beta 90.000000
_cell_angle_gamma 90.000000
_cell_volume 6108.282194
_symmetry_space_group_name_H-M "C M M M"
_symmetry_group_IT_number 65
_symmetry_cell_setting 'orthorhombic'
loop_
_space_group_symop_operation_xyz
x,y,z
-x,-y,z
x,-y,-z
-x,y,-z
-x,-y,-z
x,y,-z
-x,y,z
x,-y,z
1/2+x,1/2+y,z
1/2-x,1/2-y,z
1/2+x,1/2-y,-z
1/2-x,1/2+y,-z
1/2-x,1/2-y,-z
1/2+x,1/2+y,-z
1/2-x,1/2+y,z
1/2+x,1/2-y,z
loop_
_atom_site_type_symbol
_atom_site_label
_atom_site_fract_x
_atom_site_fract_y
_atom_site_fract_z
Si Si1 0.591263 0.444679 0.881950
Si Si2 0.347452 0.888146 0.381191
Si Si3 0.405650 0.793653 0.704027
Si Si4 0.500000 0.053525 0.622650
Si Si5 0.907616 0.192257 0.620874
Si Si6 0.198526 0.875893 0.247364
Si Si7 0.210404 0.698958 0.117044
O O1 0.500000 0.429195 0.859669
O O2 0.602042 0.500000 0.860548
O O3 0.649980 0.417615 0.805914
O O4 0.613311 0.432549 0.000000
O O5 0.328002 0.900302 0.500000
O O6 0.370203 0.832795 0.373373
O O7 0.420662 0.919750 0.337559
O O8 0.271139 0.899738 0.310413
O O9 0.500000 0.798252 0.708613
O O10 0.377409 0.743067 0.661081
O O11 0.371634 0.801493 0.818634
O O12 0.500000 0.054440 0.500000
O O13 0.500000 0.000000 0.665851
O O14 0.892679 0.189693 0.500000
O O15 0.857643 0.150859 0.672285
O O16 0.000000 0.184932 0.649828
O O17 0.228047 0.839698 0.160174
O O18 0.250000 0.750000 0.124494
O O19 0.188528 0.685725 0.000000
#
# Coordination Sequence:
#
# PCOD8268865 Si02
#       7
#    16  16  16   8  16  16  16
#     4   9  19  37  60  83 105 131 170 220 267 309
#     4  10  20  32  51  76 103 140 179 219 263 309
#     4  10  19  33  51  71  99 137 185 217 253 306
#     4   9  18  34  52  72  99 131 173 225 271 304
#     4  10  20  32  48  73 106 142 173 211 251 298
#     4  11  20  33  53  79 106 138 173 212 256 318
#     4  10  20  34  48  70 106 140 170 211 258 307
#
# _framework density 17.026064000000002
#
# number of rings (size 3 to 8) (size 9 to 14) (size 15 to 20)
#    0.000    2.077    2.308    2.308    0.000    1.538 
#    0.000    2.308    0.000    1.385    0.000    5.385 
#    0.000    4.923    0.000    0.000    0.000    0.000 
#
# Total GULP energy -644910.061513 kJ/mol
# GULP energy per Si atom -12402.116568 kJ/mol
# Density = 1.698731 g / cm^3
# Si number density = 17.026064 Si / 1000 Ang^3
#
#
#
# Elastic Constant Matrix: (Units=GPa)
#
#
# Indices 1 2 3 4 5 6 
#
# 1 106.5330 56.0884 57.0727 0.0000 0.0000 0.0000
# 2 56.0884 81.8722 43.8351 0.0000 0.0000 0.0000
# 3 57.0727 43.8351 84.2692 0.0000 0.0000 0.0000
# 4 0.0000 0.0000 0.0000 23.2416 0.0000 0.0000
# 5 0.0000 0.0000 0.0000 0.0000 17.6585 0.0000
# 6 0.0000 0.0000 0.0000 0.0000 0.0000 26.8113
#
#
#
# Elastic Compliance Matrix: (Units=1/GPa)
#
#
# Indices 1 2 3 4 5 6 
#
# 1 0.017832 -0.007969 -0.007931 0.000000 0.000000 0.000000
# 2 -0.007969 0.020491 -0.005261 0.000000 0.000000 0.000000
# 3 -0.007931 -0.005261 0.019975 0.000000 0.000000 0.000000
# 4 0.000000 0.000000 0.000000 0.043026 0.000000 0.000000
# 5 0.000000 0.000000 0.000000 0.000000 0.056630 0.000000
# 6 0.000000 0.000000 0.000000 0.000000 0.000000 0.037298
#
#
# Mechanical properties :
#
#
# Convention : Reuss Voigt Hill
#
# Bulk Modulus (GPa) = 62.60423 65.18518 63.89470
# Shear Modulus (GPa) = 20.58460 21.25416 20.91938
#
# Velocity S-wave (km/s) = 3.48085 3.53701 3.50904
# Velocity P-wave (km/s) = 7.28042 7.41951 7.35030
#
# Compressibility (1/GPa) = 0.01597336
#
# Stress axis : x y z
#
# Youngs Moduli (GPa) = 56.08047 48.80227 50.06236
#
# Poissons Ratio (x) = 0.38893 0.39705
# Poissons Ratio (y) = 0.44693 0.26340
# Poissons Ratio (z) = 0.44478 0.25677
#
# Static dielectric constant tensor:
#      x y z
#    x 3.256330 0.000000 0.000000 
#    y 0.000000 3.142440 0.000000 
#    z 0.000000 0.000000 3.132480 
# 
# 
# High freq. dielectric constant tensor:
#      x y z
#    x 1.663790 0.000000 0.000000 
#    y 0.000000 1.650900 0.000000 
#    z 0.000000 0.000000 1.651120 
# 
# From -- ./inp_files/25566.got.cif
#   From: 2010.03.12/outbox.cif.g09.slc.cpg/sg65_13_cif.got.tgz:25566.got - 2010.04.10 20:52:16.
