data_PCOD8268775
_publ_section_title
;
Structure prediction by ZEFSAII (Michael W. Deem and Ramdas Pophale) SiO2 
 PCOD8268775
Probable space group: C M M M
;
_chemical_formula_sum "Si O2"
_cell_formula_units_Z 80
_cell_length_a 7.782325
_cell_length_b 19.019067
_cell_length_c 28.622077
_cell_angle_alpha 90.000000
_cell_angle_beta 90.000000
_cell_angle_gamma 90.000000
_cell_volume 4236.426906
_symmetry_space_group_name_H-M "C M M M"
_symmetry_group_IT_number 65
_symmetry_cell_setting 'orthorhombic'
loop_
_space_group_symop_operation_xyz
x,y,z
-x,-y,z
x,-y,-z
-x,y,-z
-x,-y,-z
x,y,-z
-x,y,z
x,-y,z
1/2+x,1/2+y,z
1/2-x,1/2-y,z
1/2+x,1/2-y,-z
1/2-x,1/2+y,-z
1/2-x,1/2-y,-z
1/2+x,1/2+y,-z
1/2-x,1/2+y,z
1/2+x,1/2-y,z
loop_
_atom_site_type_symbol
_atom_site_label
_atom_site_fract_x
_atom_site_fract_y
_atom_site_fract_z
Si Si1 0.188464 0.916506 0.267127
Si Si2 0.798942 0.828110 0.447498
Si Si3 0.804480 0.422518 0.364511
Si Si4 0.000000 0.584135 0.900664
Si Si5 0.197427 0.827962 0.944751
Si Si6 0.500000 0.916464 0.793691
O O1 0.207879 0.887212 0.320200
O O2 0.330698 0.885235 0.231925
O O3 0.000000 0.895191 0.248150
O O4 0.211101 0.000000 0.269903
O O5 0.731846 0.843831 0.500000
O O6 0.750000 0.750000 0.432619
O O7 0.706712 0.879025 0.411748
O O8 0.000000 0.840051 0.444176
O O9 0.728765 0.500000 0.375091
O O10 0.000000 0.428061 0.348507
O O11 0.825966 0.614688 0.923132
O O12 0.000000 0.500000 0.907038
O O13 0.000000 0.608230 0.846931
O O14 0.250000 0.750000 0.927660
O O15 0.000000 0.843801 0.929599
O O16 0.217376 0.833108 0.000000
O O17 0.500000 0.000000 0.791242
#
# Coordination Sequence:
#
# PCOD8268775 Si02
#       6
#    16  16  16   8  16   8
#     4   9  16  29  51  76 104 140 182 224 270 331
#     4  10  21  36  52  72 100 136 175 212 263 332
#     4  10  19  32  53  80 106 133 173 224 270 316
#     4  11  23  36  57  92 129 157 196 257 308 345
#     4  10  20  37  62  88 116 161 212 245 289 362
#     4   9  18  33  50  77 115 151 183 224 285 343
#
# _framework density 18.883838000000001
#
# number of rings (size 3 to 8) (size 9 to 14) (size 15 to 20)
#    0.000    2.200    2.000    1.500    0.000    4.800 
#    0.000    5.000    0.000    1.200    0.000    0.000 
#    0.000    0.000    0.000    0.000    0.000    0.000 
#
# Total GULP energy -495869.823536 kJ/mol
# GULP energy per Si atom -12396.745588 kJ/mol
# Density = 1.884086 g / cm^3
# Si number density = 18.883838 Si / 1000 Ang^3
#
#
#
# Elastic Constant Matrix: (Units=GPa)
#
#
# Indices 1 2 3 4 5 6 
#
# 1 141.6373 37.0102 56.7860 0.0000 0.0000 0.0000
# 2 37.0102 67.9624 43.6754 0.0000 0.0000 0.0000
# 3 56.7860 43.6754 98.8193 0.0000 0.0000 0.0000
# 4 0.0000 0.0000 0.0000 -1.9900 0.0000 0.0000
# 5 0.0000 0.0000 0.0000 0.0000 24.8739 0.0000
# 6 0.0000 0.0000 0.0000 0.0000 0.0000 23.6855
#
#
#
# Elastic Compliance Matrix: (Units=1/GPa)
#
#
# Indices 1 2 3 4 5 6 
#
# 1 0.009426 -0.002308 -0.004397 0.000000 0.000000 0.000000
# 2 -0.002308 0.021116 -0.008007 0.000000 0.000000 0.000000
# 3 -0.004397 -0.008007 0.016185 0.000000 0.000000 0.000000
# 4 0.000000 0.000000 0.000000 -0.502516 0.000000 0.000000
# 5 0.000000 0.000000 0.000000 0.000000 0.040203 0.000000
# 6 0.000000 0.000000 0.000000 0.000000 0.000000 0.042220
#
#
# Mechanical properties :
#
#
# Convention : Reuss Voigt Hill
#
# Bulk Modulus (GPa) = 57.78719 64.81803 61.30261
# Shear Modulus (GPa) = -14.78520 20.71035 2.96258
#
# Velocity S-wave (km/s) = -2.80117 3.31527 1.25389
# Velocity P-wave (km/s) = 4.49508 7.00385 5.88471
#
# Compressibility (1/GPa) = 0.01730487
#
# Stress axis : x y z
#
# Youngs Moduli (GPa) = 106.08924 47.35721 61.78646
#
# Poissons Ratio (x) = 0.10928 0.27166
# Poissons Ratio (y) = 0.24481 0.49471
# Poissons Ratio (z) = 0.46644 0.37917
#
# Static dielectric constant tensor:
#      x y z
#    x 3.656450 0.000000 0.000000 
#    y 0.000000 3.102690 0.000000 
#    z 0.000000 0.000000 3.488310 
# 
# 
# High freq. dielectric constant tensor:
#      x y z
#    x 1.752820 0.000000 0.000000 
#    y 0.000000 1.690940 0.000000 
#    z 0.000000 0.000000 1.732450 
# 
# From -- ./inp_files/72954.got.cif
#   From: 2010.03.12/outbox.cif.g09.slc.cpg/sg65_37_cif.got.tgz:72954.got - 2010.04.10 20:52:16.
