data_PCOD8268924
_publ_section_title
;
Structure prediction by ZEFSAII (Michael W. Deem and Ramdas Pophale) SiO2 
 PCOD8268924
Probable space group: C M M M
;
_chemical_formula_sum "Si O2"
_cell_formula_units_Z 112
_cell_length_a 13.221558
_cell_length_b 28.364189
_cell_length_c 15.086516
_cell_angle_alpha 90.000000
_cell_angle_beta 90.000000
_cell_angle_gamma 90.000000
_cell_volume 5657.726674
_symmetry_space_group_name_H-M "C M M M"
_symmetry_group_IT_number 65
_symmetry_cell_setting 'orthorhombic'
loop_
_space_group_symop_operation_xyz
x,y,z
-x,-y,z
x,-y,-z
-x,y,-z
-x,-y,-z
x,y,-z
-x,y,z
x,-y,z
1/2+x,1/2+y,z
1/2-x,1/2-y,z
1/2+x,1/2-y,-z
1/2-x,1/2+y,-z
1/2-x,1/2-y,-z
1/2+x,1/2+y,-z
1/2-x,1/2+y,z
1/2+x,1/2-y,z
loop_
_atom_site_type_symbol
_atom_site_label
_atom_site_fract_x
_atom_site_fract_y
_atom_site_fract_z
Si Si1 0.888166 0.094170 0.398634
Si Si2 0.187769 0.676052 0.096842
Si Si3 0.316045 0.053045 0.601613
Si Si4 0.614694 0.309634 0.667696
Si Si5 0.618437 0.135559 0.727214
Si Si6 0.388523 0.720997 0.132621
Si Si7 0.620387 0.215195 0.597444
O O1 0.897297 0.110012 0.500000
O O2 0.806289 0.052755 0.387125
O O3 0.837855 0.138406 0.344965
O O4 0.000000 0.078229 0.363497
O O5 0.170088 0.637427 0.174846
O O6 0.305732 0.689317 0.083733
O O7 0.126570 0.723330 0.119819
O O8 0.152541 0.656299 0.000000
O O9 0.344770 0.068227 0.500000
O O10 0.366755 0.086599 0.674820
O O11 0.354325 0.000000 0.619530
O O12 0.500000 0.317721 0.635915
O O13 0.622080 0.290236 0.765274
O O14 0.665788 0.268419 0.607974
O O15 0.500000 0.142981 0.741624
O O16 0.666166 0.178706 0.669295
O O17 0.500000 0.707595 0.096781
O O18 0.645350 0.195647 0.500000
O O19 0.500000 0.218334 0.613233
#
# Coordination Sequence:
#
# PCOD8268924 Si02
#       7
#    16  16  16  16  16  16  16
#     4   9  17  30  50  77 111 152 191 224 264 319
#     4  11  23  36  54  80 109 145 190 235 276 325
#     4  10  22  39  58  83 112 140 180 234 286 338
#     4   9  15  26  46  74 110 149 184 218 257 311
#     4  11  22  38  57  78 107 143 185 232 283 338
#     4  10  19  33  52  77 113 153 190 228 270 318
#     4   9  16  27  46  73 106 145 183 218 260 315
#
# _framework density 19.795936999999999
#
# number of rings (size 3 to 8) (size 9 to 14) (size 15 to 20)
#    0.000    2.143    1.429    3.000    0.000    5.143 
#    0.000    2.143    0.000    3.857    0.000    1.000 
#    0.000    0.000    0.000    8.000    0.000    0.143 
#
# Total GULP energy -693990.609053 kJ/mol
# GULP energy per Si atom -12392.689447 kJ/mol
# Density = 1.975088 g / cm^3
# Si number density = 19.795937 Si / 1000 Ang^3
#
#
#
# Elastic Constant Matrix: (Units=GPa)
#
#
# Indices 1 2 3 4 5 6 
#
# 1 48.2333 6.6951 13.0181 0.0000 0.0000 0.0000
# 2 6.6951 81.3915 45.6259 0.0000 0.0000 0.0000
# 3 13.0181 45.6259 124.6177 0.0000 0.0000 0.0000
# 4 0.0000 0.0000 0.0000 -9.1376 0.0000 0.0000
# 5 0.0000 0.0000 0.0000 0.0000 12.0972 0.0000
# 6 0.0000 0.0000 0.0000 0.0000 0.0000 23.8773
#
#
#
# Elastic Compliance Matrix: (Units=1/GPa)
#
#
# Indices 1 2 3 4 5 6 
#
# 1 0.021360 -0.000637 -0.001998 0.000000 0.000000 0.000000
# 2 -0.000637 0.015478 -0.005600 0.000000 0.000000 0.000000
# 3 -0.001998 -0.005600 0.010284 0.000000 0.000000 0.000000
# 4 0.000000 0.000000 0.000000 -0.109438 0.000000 0.000000
# 5 0.000000 0.000000 0.000000 0.000000 0.082664 0.000000
# 6 0.000000 0.000000 0.000000 0.000000 0.000000 0.041881
#
#
# Mechanical properties :
#
#
# Convention : Reuss Voigt Hill
#
# Bulk Modulus (GPa) = 32.62530 42.76900 37.69715
# Shear Modulus (GPa) = 56.23269 17.96095 37.09682
#
# Velocity S-wave (km/s) = 5.33553 3.01542 4.33362
# Velocity P-wave (km/s) = 7.38063 5.81167 6.64264
#
# Compressibility (1/GPa) = 0.03065106
#
# Stress axis : x y z
#
# Youngs Moduli (GPa) = 46.81586 64.60728 97.24079
#
# Poissons Ratio (x) = 0.04115 0.19431
# Poissons Ratio (y) = 0.02982 0.54459
# Poissons Ratio (z) = 0.09355 0.36183
#
# Static dielectric constant tensor:
#      x y z
#    x 3.898590 0.000000 0.000000 
#    y 0.000000 3.231480 0.000000 
#    z 0.000000 0.000000 3.557430 
# 
# 
# High freq. dielectric constant tensor:
#      x y z
#    x 1.795220 0.000000 0.000000 
#    y 0.000000 1.721860 0.000000 
#    z 0.000000 0.000000 1.758090 
# 
# From -- ./inp_files/41391.got.cif
#   From: 2010.03.12/outbox.cif.g09.slc.cpg/sg65_21_cif.got.tgz:41391.got - 2010.04.10 20:52:16.
