data_PCOD8268451
_publ_section_title
;
Structure prediction by ZEFSAII (Michael W. Deem and Ramdas Pophale) SiO2 
 PCOD8268451
Probable space group: C M M M
;
_chemical_formula_sum "Si O2"
_cell_formula_units_Z 96
_cell_length_a 14.123351
_cell_length_b 27.572333
_cell_length_c 15.514549
_cell_angle_alpha 90.000000
_cell_angle_beta 90.000000
_cell_angle_gamma 90.000000
_cell_volume 6041.578502
_symmetry_space_group_name_H-M "C M M M"
_symmetry_group_IT_number 65
_symmetry_cell_setting 'orthorhombic'
loop_
_space_group_symop_operation_xyz
x,y,z
-x,-y,z
x,-y,-z
-x,y,-z
-x,-y,-z
x,y,-z
-x,y,z
x,-y,z
1/2+x,1/2+y,z
1/2-x,1/2-y,z
1/2+x,1/2-y,-z
1/2-x,1/2+y,-z
1/2-x,1/2-y,-z
1/2+x,1/2+y,-z
1/2-x,1/2+y,z
1/2+x,1/2-y,z
loop_
_atom_site_type_symbol
_atom_site_label
_atom_site_fract_x
_atom_site_fract_y
_atom_site_fract_z
Si Si1 0.699758 0.556752 0.175908
Si Si2 0.732016 0.303705 0.598991
Si Si3 0.606647 0.557483 0.000000
Si Si4 0.112235 0.886169 0.333804
Si Si5 0.612616 0.445296 0.500000
Si Si6 0.605011 0.944200 0.248315
Si Si7 0.107468 0.377879 0.404885
O O1 0.675523 0.500000 0.190591
O O2 0.647018 0.587842 0.247805
O O3 0.813664 0.565575 0.177182
O O4 0.662486 0.575799 0.084150
O O5 0.696023 0.301402 0.500000
O O6 0.750000 0.250000 0.636280
O O7 0.654602 0.332022 0.656861
O O8 0.832389 0.329746 0.607510
O O9 0.603257 0.500000 0.000000
O O10 0.500000 0.578702 0.000000
O O11 0.149678 0.917254 0.415499
O O12 0.000000 0.882240 0.331496
O O13 0.653093 0.500000 0.500000
O O14 0.500000 0.446441 0.500000
O O15 0.500000 0.927440 0.215271
O O16 0.637165 0.917649 0.335258
O O17 0.601454 0.000000 0.273511
O O18 0.123714 0.400617 0.500000
O O19 0.000000 0.361344 0.391691
#
# Coordination Sequence:
#
# PCOD8268451 Si02
#       7
#    16  16   8  16   8  16  16
#     4  10  19  32  50  73 101 134 165 198 242 293
#     4  10  20  33  47  65  92 127 167 207 246 286
#     4   9  18  32  49  71 100 133 168 200 233 287
#     4  11  20  31  47  70  99 129 165 203 244 294
#     4   9  18  30  43  64  97 133 162 189 230 288
#     4   9  17  29  46  69  97 126 158 199 241 283
#     4   9  17  30  46  64  89 123 163 200 236 282
#
# _framework density 15.889887
#
# number of rings (size 3 to 8) (size 9 to 14) (size 15 to 20)
#    0.000    2.333    2.500    1.000    0.000    2.667 
#    0.000    3.750    0.000    2.500    0.000    0.583 
#    0.000    0.000    0.000    0.000    0.000    0.000 
#
# Total GULP energy -595067.007095 kJ/mol
# GULP energy per Si atom -12397.229314 kJ/mol
# Density = 1.585372 g / cm^3
# Si number density = 15.889887 Si / 1000 Ang^3
#
#
#
# Elastic Constant Matrix: (Units=GPa)
#
#
# Indices 1 2 3 4 5 6 
#
# 1 95.6502 39.2014 58.8481 0.0000 0.0000 0.0000
# 2 39.2014 78.1535 44.9400 0.0000 0.0000 0.0000
# 3 58.8481 44.9400 113.4089 0.0000 0.0000 0.0000
# 4 0.0000 0.0000 0.0000 8.2828 0.0000 0.0000
# 5 0.0000 0.0000 0.0000 0.0000 25.4020 0.0000
# 6 0.0000 0.0000 0.0000 0.0000 0.0000 19.2430
#
#
#
# Elastic Compliance Matrix: (Units=1/GPa)
#
#
# Indices 1 2 3 4 5 6 
#
# 1 0.016411 -0.004319 -0.006804 0.000000 0.000000 0.000000
# 2 -0.004319 0.017708 -0.004776 0.000000 0.000000 0.000000
# 3 -0.006804 -0.004776 0.014241 0.000000 0.000000 0.000000
# 4 0.000000 0.000000 0.000000 0.120733 0.000000 0.000000
# 5 0.000000 0.000000 0.000000 0.000000 0.039367 0.000000
# 6 0.000000 0.000000 0.000000 0.000000 0.000000 0.051967
#
#
# Mechanical properties :
#
#
# Convention : Reuss Voigt Hill
#
# Bulk Modulus (GPa) = 60.38078 63.68794 62.03436
# Shear Modulus (GPa) = 16.79284 20.20043 18.49663
#
# Velocity S-wave (km/s) = 3.25441 3.56936 3.41552
# Velocity P-wave (km/s) = 7.22521 7.56009 7.39454
#
# Compressibility (1/GPa) = 0.01656156
#
# Stress axis : x y z
#
# Youngs Moduli (GPa) = 60.93394 56.47162 70.22033
#
# Poissons Ratio (x) = 0.24391 0.47780
# Poissons Ratio (y) = 0.26318 0.33536
# Poissons Ratio (z) = 0.41461 0.26970
#
# Static dielectric constant tensor:
#      x y z
#    x 3.260040 0.000000 0.000000 
#    y 0.000000 2.855300 0.000000 
#    z 0.000000 0.000000 2.912970 
# 
# 
# High freq. dielectric constant tensor:
#      x y z
#    x 1.629190 0.000000 0.000000 
#    y 0.000000 1.582340 0.000000 
#    z 0.000000 0.000000 1.583080 
# 
# From -- ./inp_files/40665.got.cif
#   From: 2010.03.12/outbox.cif.g09.slc.cpg/sg65_21_cif.got.tgz:40665.got - 2010.04.10 20:52:16.
