data_PCOD8268545
_publ_section_title
;
Structure prediction by ZEFSAII (Michael W. Deem and Ramdas Pophale) SiO2 
 PCOD8268545
Probable space group: C M M M
;
_chemical_formula_sum "Si O2"
_cell_formula_units_Z 104
_cell_length_a 29.654719
_cell_length_b 9.072207
_cell_length_c 20.227117
_cell_angle_alpha 90.000000
_cell_angle_beta 90.000000
_cell_angle_gamma 90.000000
_cell_volume 5441.777124
_symmetry_space_group_name_H-M "C M M M"
_symmetry_group_IT_number 65
_symmetry_cell_setting 'orthorhombic'
loop_
_space_group_symop_operation_xyz
x,y,z
-x,-y,z
x,-y,-z
-x,y,-z
-x,-y,-z
x,y,-z
-x,y,z
x,-y,z
1/2+x,1/2+y,z
1/2-x,1/2-y,z
1/2+x,1/2-y,-z
1/2-x,1/2+y,-z
1/2-x,1/2-y,-z
1/2+x,1/2+y,-z
1/2-x,1/2+y,z
1/2+x,1/2-y,z
loop_
_atom_site_type_symbol
_atom_site_label
_atom_site_fract_x
_atom_site_fract_y
_atom_site_fract_z
Si Si1 0.644188 0.326058 0.126930
Si Si2 0.798764 0.174095 0.000000
Si Si3 0.295217 0.828890 0.617814
Si Si4 0.549464 0.325789 0.829070
Si Si5 0.450096 0.674947 0.680997
Si Si6 0.380965 0.669709 0.426198
Si Si7 0.704530 0.828445 0.771507
O O1 0.649384 0.500000 0.138261
O O2 0.590749 0.282168 0.121796
O O3 0.662813 0.241616 0.190279
O O4 0.671628 0.274550 0.062560
O O5 0.750000 0.250000 0.000000
O O6 0.790888 0.000000 0.000000
O O7 0.250000 0.750000 0.593943
O O8 0.335473 0.762589 0.575575
O O9 0.304204 0.797702 0.694870
O O10 0.290364 0.000000 0.602376
O O11 0.500000 0.263207 0.852381
O O12 0.545240 0.500000 0.825918
O O13 0.561172 0.268120 0.755077
O O14 0.500000 0.729514 0.661347
O O15 0.447792 0.500000 0.678355
O O16 0.415510 0.739738 0.627030
O O17 0.401600 0.683085 0.500000
O O18 0.369971 0.500000 0.409023
O O19 0.750000 0.750000 0.796408
O O20 0.708932 0.000000 0.788185
#
# Coordination Sequence:
#
# PCOD8268545 Si02
#       7
#    16   8  16  16  16  16  16
#     4  10  19  32  51  74 103 137 170 205 245 291
#     4  10  22  36  49  71 103 139 176 208 243 292
#     4  10  21  36  53  72  96 126 162 207 256 305
#     4   8  14  26  47  74 100 128 164 205 249 294
#     4   8  14  26  46  73 102 129 160 201 247 293
#     4  10  20  32  48  72 100 131 168 206 244 291
#     4  10  20  33  51  76 100 124 161 207 255 304
#
# _framework density 19.111404
#
# number of rings (size 3 to 8) (size 9 to 14) (size 15 to 20)
#    0.000    2.615    0.000    3.231    0.000    5.846 
#    0.000    1.923    0.000    3.231    0.000    5.385 
#    0.000    1.846    0.000    0.000    0.000    0.000 
#
# Total GULP energy -644581.396106 kJ/mol
# GULP energy per Si atom -12395.796079 kJ/mol
# Density = 1.906791 g / cm^3
# Si number density = 19.111404 Si / 1000 Ang^3
#
#
#
# Elastic Constant Matrix: (Units=GPa)
#
#
# Indices 1 2 3 4 5 6 
#
# 1 155.9287 27.9638 60.4880 0.0000 0.0000 0.0000
# 2 27.9638 43.6733 19.9966 0.0000 0.0000 0.0000
# 3 60.4880 19.9966 68.9515 0.0000 0.0000 0.0000
# 4 0.0000 0.0000 0.0000 18.8843 0.0000 0.0000
# 5 0.0000 0.0000 0.0000 0.0000 28.2879 0.0000
# 6 0.0000 0.0000 0.0000 0.0000 0.0000 20.1365
#
#
#
# Elastic Compliance Matrix: (Units=1/GPa)
#
#
# Indices 1 2 3 4 5 6 
#
# 1 0.010000 -0.002752 -0.007975 0.000000 0.000000 0.000000
# 2 -0.002752 0.027160 -0.005463 0.000000 0.000000 0.000000
# 3 -0.007975 -0.005463 0.023083 0.000000 0.000000 0.000000
# 4 0.000000 0.000000 0.000000 0.052954 0.000000 0.000000
# 5 0.000000 0.000000 0.000000 0.000000 0.035351 0.000000
# 6 0.000000 0.000000 0.000000 0.000000 0.000000 0.049661
#
#
# Mechanical properties :
#
#
# Convention : Reuss Voigt Hill
#
# Bulk Modulus (GPa) = 35.88702 53.93891 44.91297
# Shear Modulus (GPa) = 20.84403 24.13540 22.48972
#
# Velocity S-wave (km/s) = 3.30610 3.55756 3.43413
# Velocity P-wave (km/s) = 5.77860 6.72009 6.26705
#
# Compressibility (1/GPa) = 0.02786523
#
# Stress axis : x y z
#
# Youngs Moduli (GPa) = 99.99764 36.81827 43.32175
#
# Poissons Ratio (x) = 0.10131 0.34548
# Poissons Ratio (y) = 0.27517 0.23666
# Poissons Ratio (z) = 0.79745 0.20113
#
# Static dielectric constant tensor:
#      x y z
#    x 3.825730 0.000000 0.000000 
#    y 0.000000 3.114080 0.000000 
#    z 0.000000 0.000000 3.465730 
# 
# 
# High freq. dielectric constant tensor:
#      x y z
#    x 1.755550 0.000000 0.000000 
#    y 0.000000 1.702770 0.000000 
#    z 0.000000 0.000000 1.732330 
# 
# From -- ./inp_files/65914.got.cif
#   From: 2010.03.12/outbox.cif.g09.slc.cpg/sg65_33_cif.got.tgz:65914.got - 2010.04.10 20:52:16.
