data_PCOD8268666
_publ_section_title
;
Structure prediction by ZEFSAII (Michael W. Deem and Ramdas Pophale) SiO2 
 PCOD8268666
Probable space group: C M M M
;
_chemical_formula_sum "Si O2"
_cell_formula_units_Z 72
_cell_length_a 8.951118
_cell_length_b 18.196978
_cell_length_c 23.059925
_cell_angle_alpha 90.000000
_cell_angle_beta 90.000000
_cell_angle_gamma 90.000000
_cell_volume 3756.076620
_symmetry_space_group_name_H-M "C M M M"
_symmetry_group_IT_number 65
_symmetry_cell_setting 'orthorhombic'
loop_
_space_group_symop_operation_xyz
x,y,z
-x,-y,z
x,-y,-z
-x,y,-z
-x,-y,-z
x,y,-z
-x,y,z
x,-y,z
1/2+x,1/2+y,z
1/2-x,1/2-y,z
1/2+x,1/2-y,-z
1/2-x,1/2+y,-z
1/2-x,1/2-y,-z
1/2+x,1/2+y,-z
1/2-x,1/2+y,z
1/2+x,1/2-y,z
loop_
_atom_site_type_symbol
_atom_site_label
_atom_site_fract_x
_atom_site_fract_y
_atom_site_fract_z
Si Si1 0.672082 0.084382 0.433179
Si Si2 0.676275 0.671762 0.334891
Si Si3 0.177406 0.917484 0.000000
Si Si4 0.822570 0.082304 0.223782
Si Si5 0.822430 0.829229 0.887870
O O1 0.701643 0.103849 0.500000
O O2 0.500000 0.098951 0.417130
O O3 0.776989 0.136509 0.395700
O O4 0.714398 0.000000 0.420869
O O5 0.500000 0.681697 0.333875
O O6 0.750000 0.750000 0.326230
O O7 0.733518 0.620038 0.282822
O O8 0.234571 0.874980 0.943236
O O9 0.000000 0.921415 0.000000
O O10 0.243749 0.000000 0.000000
O O11 0.763840 0.128608 0.169095
O O12 0.000000 0.078775 0.222279
O O13 0.755822 0.000000 0.220943
O O14 0.750000 0.750000 0.889809
O O15 0.000000 0.820751 0.887738
#
# Coordination Sequence:
#
# PCOD8268666 Si02
#       5
#    16  16   8  16  16
#     4   9  19  37  59  81 106 136 170 211 260 311
#     4  11  22  35  53  77 106 139 175 215 259 309
#     4   9  17  30  51  77 100 131 178 218 248 293
#     4   9  18  33  53  76 101 132 172 216 259 304
#     4  10  19  32  52  76 104 135 168 211 258 305
#
# _framework density 19.168938000000001
#
# number of rings (size 3 to 8) (size 9 to 14) (size 15 to 20)
#    0.000    2.333    0.000    3.667    0.000    4.889 
#    0.000    2.222    0.000    6.000    0.000    0.000 
#    0.000    0.000    0.000    0.000    0.000    0.000 
#
# Total GULP energy -446482.004445 kJ/mol
# GULP energy per Si atom -12402.277901 kJ/mol
# Density = 1.912531 g / cm^3
# Si number density = 19.168938 Si / 1000 Ang^3
#
#
#
# Elastic Constant Matrix: (Units=GPa)
#
#
# Indices 1 2 3 4 5 6 
#
# 1 42.0213 40.7880 35.1546 0.0000 0.0000 0.0000
# 2 40.7880 185.3263 89.5592 0.0000 0.0000 0.0000
# 3 35.1546 89.5592 143.4232 0.0000 0.0000 0.0000
# 4 0.0000 0.0000 0.0000 36.3873 0.0000 0.0000
# 5 0.0000 0.0000 0.0000 0.0000 15.5453 0.0000
# 6 0.0000 0.0000 0.0000 0.0000 0.0000 9.5909
#
#
#
# Elastic Compliance Matrix: (Units=1/GPa)
#
#
# Indices 1 2 3 4 5 6 
#
# 1 0.032613 -0.004747 -0.005029 0.000000 0.000000 0.000000
# 2 -0.004747 0.008419 -0.004093 0.000000 0.000000 0.000000
# 3 -0.005029 -0.004093 0.010761 0.000000 0.000000 0.000000
# 4 0.000000 0.000000 0.000000 0.027482 0.000000 0.000000
# 5 0.000000 0.000000 0.000000 0.000000 0.064328 0.000000
# 6 0.000000 0.000000 0.000000 0.000000 0.000000 0.104266
#
#
# Mechanical properties :
#
#
# Convention : Reuss Voigt Hill
#
# Bulk Modulus (GPa) = 41.57518 77.97494 59.77506
# Shear Modulus (GPa) = 17.62880 25.98929 21.80905
#
# Velocity S-wave (km/s) = 3.03587 3.68612 3.37668
# Velocity P-wave (km/s) = 5.83306 7.67350 6.81569
#
# Compressibility (1/GPa) = 0.02405281
#
# Stress axis : x y z
#
# Youngs Moduli (GPa) = 30.66265 118.78062 92.92568
#
# Poissons Ratio (x) = 0.56388 0.46736
# Poissons Ratio (y) = 0.14556 0.38039
# Poissons Ratio (z) = 0.15422 0.48623
#
# Static dielectric constant tensor:
#      x y z
#    x 3.101880 0.000000 0.000000 
#    y 0.000000 3.634950 0.000000 
#    z 0.000000 0.000000 3.722120 
# 
# 
# High freq. dielectric constant tensor:
#      x y z
#    x 1.706480 0.000000 0.000000 
#    y 0.000000 1.760030 0.000000 
#    z 0.000000 0.000000 1.762690 
# 
# From -- ./inp_files/59279.got.cif
#   From: 2010.03.12/outbox.cif.g09.slc.cpg/sg65_30_cif.got.tgz:59279.got - 2010.04.10 20:52:16.
