data_PCOD8268876
_publ_section_title
;
Structure prediction by ZEFSAII (Michael W. Deem and Ramdas Pophale) SiO2 
 PCOD8268876
Probable space group: C M M M
;
_chemical_formula_sum "Si O2"
_cell_formula_units_Z 120
_cell_length_a 28.474427
_cell_length_b 8.696548
_cell_length_c 28.155973
_cell_angle_alpha 90.000000
_cell_angle_beta 90.000000
_cell_angle_gamma 90.000000
_cell_volume 6972.241665
_symmetry_space_group_name_H-M "C M M M"
_symmetry_group_IT_number 65
_symmetry_cell_setting 'orthorhombic'
loop_
_space_group_symop_operation_xyz
x,y,z
-x,-y,z
x,-y,-z
-x,y,-z
-x,-y,-z
x,y,-z
-x,y,z
x,-y,z
1/2+x,1/2+y,z
1/2-x,1/2-y,z
1/2+x,1/2-y,-z
1/2-x,1/2+y,-z
1/2-x,1/2-y,-z
1/2+x,1/2+y,-z
1/2-x,1/2+y,z
1/2+x,1/2-y,z
loop_
_atom_site_type_symbol
_atom_site_label
_atom_site_fract_x
_atom_site_fract_y
_atom_site_fract_z
Si Si1 0.799924 0.177222 0.500000
Si Si2 0.644010 0.820520 0.310782
Si Si3 0.552882 0.322103 0.280758
Si Si4 0.447066 0.677685 0.170004
Si Si5 0.802101 0.182037 0.396999
Si Si6 0.698638 0.681247 0.776757
Si Si7 0.799580 0.179775 0.054989
Si Si8 0.856338 0.320346 0.864266
O O1 0.750000 0.250000 0.500000
O O2 0.824450 0.219888 0.449635
O O3 0.789368 0.000000 0.500000
O O4 0.588518 0.783714 0.310283
O O5 0.663799 0.765996 0.360840
O O6 0.668640 0.729528 0.268519
O O7 0.652979 0.000000 0.303795
O O8 0.500000 0.281645 0.297007
O O9 0.563982 0.500000 0.290948
O O10 0.559060 0.285975 0.225342
O O11 0.500000 0.717073 0.153621
O O12 0.435534 0.500000 0.159958
O O13 0.411471 0.783172 0.140559
O O14 0.750000 0.250000 0.391568
O O15 0.800445 0.000000 0.386799
O O16 0.702844 0.500000 0.777751
O O17 0.750000 0.750000 0.772574
O O18 0.673686 0.734495 0.824552
O O19 0.750000 0.250000 0.070994
O O20 0.840521 0.262574 0.084149
O O21 0.798961 0.000000 0.066317
O O22 0.809614 0.214017 0.000000
O O23 0.847661 0.500000 0.859012
#
# Coordination Sequence:
#
# PCOD8268876 Si02
#       8
#     8  16  16  16  16  16  16  16
#     4   8  16  30  50  72  95 128 173 218 258 301
#     4  12  23  34  49  75 106 138 173 209 256 309
#     4   9  18  34  55  76 100 134 173 214 258 303
#     4   9  18  34  56  79 104 136 174 214 257 305
#     4  10  19  33  51  73 102 137 175 216 259 305
#     4  12  24  38  52  70 102 140 177 213 252 302
#     4  10  21  38  59  81 106 138 176 217 259 304
#     4  12  23  35  54  81 109 138 172 211 258 309
#
# _framework density 17.211109
#
# number of rings (size 3 to 8) (size 9 to 14) (size 15 to 20)
#    0.000    1.600    1.333    6.000    0.000    1.867 
#    0.000    1.333    0.000    0.400    0.000    3.267 
#    0.000    3.733    0.000    0.000    0.000    0.000 
#
# Total GULP energy -743983.437525 kJ/mol
# GULP energy per Si atom -12399.723959 kJ/mol
# Density = 1.717194 g / cm^3
# Si number density = 17.211109 Si / 1000 Ang^3
#
#
#
# Elastic Constant Matrix: (Units=GPa)
#
#
# Indices 1 2 3 4 5 6 
#
# 1 105.2722 44.9512 46.6713 0.0000 0.0000 0.0000
# 2 44.9512 113.7407 43.7105 0.0000 0.0000 0.0000
# 3 46.6713 43.7105 89.6177 0.0000 0.0000 0.0000
# 4 0.0000 0.0000 0.0000 23.1742 0.0000 0.0000
# 5 0.0000 0.0000 0.0000 0.0000 16.1266 0.0000
# 6 0.0000 0.0000 0.0000 0.0000 0.0000 31.6939
#
#
#
# Elastic Compliance Matrix: (Units=1/GPa)
#
#
# Indices 1 2 3 4 5 6 
#
# 1 0.013221 -0.003174 -0.005337 0.000000 0.000000 0.000000
# 2 -0.003174 0.011582 -0.003996 0.000000 0.000000 0.000000
# 3 -0.005337 -0.003996 0.015887 0.000000 0.000000 0.000000
# 4 0.000000 0.000000 0.000000 0.043151 0.000000 0.000000
# 5 0.000000 0.000000 0.000000 0.000000 0.062009 0.000000
# 6 0.000000 0.000000 0.000000 0.000000 0.000000 0.031552
#
#
# Mechanical properties :
#
#
# Convention : Reuss Voigt Hill
#
# Bulk Modulus (GPa) = 63.79369 64.36630 64.07999
# Shear Modulus (GPa) = 24.08001 25.75212 24.91606
#
# Velocity S-wave (km/s) = 3.74451 3.87234 3.80896
# Velocity P-wave (km/s) = 7.47268 7.58107 7.52707
#
# Compressibility (1/GPa) = 0.01567553
#
# Stress axis : x y z
#
# Youngs Moduli (GPa) = 75.64006 86.34106 62.94446
#
# Poissons Ratio (x) = 0.27403 0.33593
# Poissons Ratio (y) = 0.24007 0.25154
# Poissons Ratio (z) = 0.40369 0.34503
#
# Static dielectric constant tensor:
#      x y z
#    x 3.276390 0.000000 0.000000 
#    y 0.000000 3.296200 0.000000 
#    z 0.000000 0.000000 3.334790 
# 
# 
# High freq. dielectric constant tensor:
#      x y z
#    x 1.655190 0.000000 0.000000 
#    y 0.000000 1.677170 0.000000 
#    z 0.000000 0.000000 1.653370 
# 
# From -- ./inp_files/76185.got.cif
#   From: 2010.03.12/outbox.cif.g09.slc.cpg/sg65_39_cif.got.tgz:76185.got - 2010.04.10 20:52:16.
