data_PCOD8268308
_publ_section_title
;
Structure prediction by ZEFSAII (Michael W. Deem and Ramdas Pophale) SiO2 
 PCOD8268308
Probable space group: C M M M
;
_chemical_formula_sum "Si O2"
_cell_formula_units_Z 104
_cell_length_a 11.005453
_cell_length_b 29.991847
_cell_length_c 17.329285
_cell_angle_alpha 90.000000
_cell_angle_beta 90.000000
_cell_angle_gamma 90.000000
_cell_volume 5719.944035
_symmetry_space_group_name_H-M "C M M M"
_symmetry_group_IT_number 65
_symmetry_cell_setting 'orthorhombic'
loop_
_space_group_symop_operation_xyz
x,y,z
-x,-y,z
x,-y,-z
-x,y,-z
-x,-y,-z
x,y,-z
-x,y,z
x,-y,z
1/2+x,1/2+y,z
1/2-x,1/2-y,z
1/2+x,1/2-y,-z
1/2-x,1/2+y,-z
1/2-x,1/2-y,-z
1/2+x,1/2+y,-z
1/2-x,1/2+y,z
1/2+x,1/2-y,z
loop_
_atom_site_type_symbol
_atom_site_label
_atom_site_fract_x
_atom_site_fract_y
_atom_site_fract_z
Si Si1 0.000000 0.553131 0.409457
Si Si2 0.752464 0.578854 0.344752
Si Si3 0.868027 0.076600 0.500000
Si Si4 0.860552 0.950575 0.806070
Si Si5 0.633096 0.683046 0.500000
Si Si6 0.642532 0.674182 0.662496
Si Si7 0.142197 0.126594 0.914503
Si Si8 0.641734 0.283334 0.176634
O O1 0.106323 0.576048 0.361410
O O2 0.000000 0.500000 0.401608
O O3 0.000000 0.567240 0.500000
O O4 0.694233 0.558915 0.422609
O O5 0.715159 0.548478 0.272850
O O6 0.714853 0.628981 0.321942
O O7 0.869234 0.129737 0.500000
O O8 0.000000 0.055486 0.500000
O O9 0.803712 0.915013 0.866296
O O10 0.000000 0.937564 0.786853
O O11 0.852465 0.000000 0.842905
O O12 0.500000 0.704582 0.500000
O O13 0.694064 0.696883 0.582205
O O14 0.500000 0.661738 0.651715
O O15 0.659934 0.708043 0.732534
O O16 0.169510 0.172349 0.870903
O O17 0.000000 0.119105 0.922968
O O18 0.201785 0.127950 0.000000
O O19 0.500000 0.267130 0.161573
O O20 0.750000 0.250000 0.150570
#
# Coordination Sequence:
#
# PCOD8268308 Si02
#       8
#     8  16   8  16   8  16  16  16
#     4  11  24  38  46  64 107 157 195 231 274 326
#     4  11  18  33  51  71 100 143 190 225 271 319
#     4   9  16  25  47  75  98 127 175 230 272 314
#     4  10  19  31  52  83 112 136 175 230 278 328
#     4   7  12  22  42  72  95 125 167 208 261 317
#     4   9  16  30  54  79 104 135 175 231 281 323
#     4   9  18  34  56  81 112 148 177 213 277 344
#     4  10  20  36  57  83 115 147 184 227 279 337
#
# _framework density 18.181996000000002
#
# number of rings (size 3 to 8) (size 9 to 14) (size 15 to 20)
#    0.000    2.385    2.308    2.769    0.000    0.615 
#    1.385    1.923    0.000    1.846    0.000    0.000 
#    0.000    1.846    0.000    0.000    0.000    0.000 
#
# Total GULP energy -644220.628622 kJ/mol
# GULP energy per Si atom -12388.858243 kJ/mol
# Density = 1.814061 g / cm^3
# Si number density = 18.181996 Si / 1000 Ang^3
#
#
#
# Elastic Constant Matrix: (Units=GPa)
#
#
# Indices 1 2 3 4 5 6 
#
# 1 91.6677 37.0384 29.4850 0.0000 0.0000 0.0000
# 2 37.0384 77.0451 40.7673 0.0000 0.0000 0.0000
# 3 29.4850 40.7673 136.6837 0.0000 0.0000 0.0000
# 4 0.0000 0.0000 0.0000 9.8407 0.0000 0.0000
# 5 0.0000 0.0000 0.0000 0.0000 5.0909 0.0000
# 6 0.0000 0.0000 0.0000 0.0000 0.0000 20.3653
#
#
#
# Elastic Compliance Matrix: (Units=1/GPa)
#
#
# Indices 1 2 3 4 5 6 
#
# 1 0.013696 -0.005962 -0.001176 0.000000 0.000000 0.000000
# 2 -0.005962 0.018007 -0.004085 0.000000 0.000000 0.000000
# 3 -0.001176 -0.004085 0.008788 0.000000 0.000000 0.000000
# 4 0.000000 0.000000 0.000000 0.101619 0.000000 0.000000
# 5 0.000000 0.000000 0.000000 0.000000 0.196429 0.000000
# 6 0.000000 0.000000 0.000000 0.000000 0.000000 0.049103
#
#
# Mechanical properties :
#
#
# Convention : Reuss Voigt Hill
#
# Bulk Modulus (GPa) = 55.41515 57.77533 56.59524
# Shear Modulus (GPa) = 12.01625 20.26643 16.14134
#
# Velocity S-wave (km/s) = 2.57356 3.34225 2.98277
# Velocity P-wave (km/s) = 6.27496 6.83661 6.56180
#
# Compressibility (1/GPa) = 0.01804561
#
# Stress axis : x y z
#
# Youngs Moduli (GPa) = 73.01283 55.53451 113.78889
#
# Poissons Ratio (x) = 0.33109 0.13385
# Poissons Ratio (y) = 0.43529 0.46479
# Poissons Ratio (z) = 0.08589 0.22684
#
# Static dielectric constant tensor:
#      x y z
#    x 3.041930 0.000000 0.000000 
#    y 0.000000 3.050490 0.000000 
#    z 0.000000 0.000000 3.691880 
# 
# 
# High freq. dielectric constant tensor:
#      x y z
#    x 1.664450 0.000000 0.000000 
#    y 0.000000 1.684010 0.000000 
#    z 0.000000 0.000000 1.715290 
# 
# From -- ./inp_files/51998.got.cif
#   From: 2010.03.12/outbox.cif.g09.slc.cpg/sg65_26_cif.got.tgz:51998.got - 2010.04.10 20:52:16.
