data_PCOD8268338
_publ_section_title
;
Structure prediction by ZEFSAII (Michael W. Deem and Ramdas Pophale) SiO2 
 PCOD8268338
Probable space group: C M M M
;
_chemical_formula_sum "Si O2"
_cell_formula_units_Z 120
_cell_length_a 9.083635
_cell_length_b 28.080227
_cell_length_c 28.341184
_cell_angle_alpha 90.000000
_cell_angle_beta 90.000000
_cell_angle_gamma 90.000000
_cell_volume 7229.000903
_symmetry_space_group_name_H-M "C M M M"
_symmetry_group_IT_number 65
_symmetry_cell_setting 'orthorhombic'
loop_
_space_group_symop_operation_xyz
x,y,z
-x,-y,z
x,-y,-z
-x,y,-z
-x,-y,-z
x,y,-z
-x,y,z
x,-y,z
1/2+x,1/2+y,z
1/2-x,1/2-y,z
1/2+x,1/2-y,-z
1/2-x,1/2+y,-z
1/2-x,1/2-y,-z
1/2+x,1/2+y,-z
1/2-x,1/2+y,z
1/2+x,1/2-y,z
loop_
_atom_site_type_symbol
_atom_site_label
_atom_site_fract_x
_atom_site_fract_y
_atom_site_fract_z
Si Si1 0.670505 0.443610 0.500000
Si Si2 0.833738 0.443436 0.948531
Si Si3 0.825628 0.103748 0.762763
Si Si4 0.326454 0.554370 0.857039
Si Si5 0.328639 0.297439 0.722632
Si Si6 0.174770 0.608566 0.415134
Si Si7 0.831773 0.445438 0.679543
Si Si8 0.173919 0.201455 0.386939
O O1 0.684424 0.500000 0.500000
O O2 0.500000 0.427469 0.500000
O O3 0.753319 0.424254 0.454407
O O4 0.825848 0.500000 0.948178
O O5 0.736304 0.423344 0.905604
O O6 0.000000 0.425865 0.940788
O O7 0.776449 0.425186 0.000000
O O8 0.768608 0.086691 0.813883
O O9 0.770109 0.157482 0.752671
O O10 0.767014 0.067419 0.724006
O O11 0.000000 0.101494 0.759719
O O12 0.500000 0.556196 0.860758
O O13 0.272272 0.500000 0.849132
O O14 0.500000 0.289331 0.730214
O O15 0.250000 0.250000 0.741458
O O16 0.291111 0.307225 0.668096
O O17 0.214967 0.585822 0.364999
O O18 0.249918 0.660242 0.417448
O O19 0.000000 0.612536 0.423293
O O20 0.804902 0.500000 0.665805
O O21 0.000000 0.435655 0.693476
O O22 0.250000 0.250000 0.403946
O O23 0.000000 0.203148 0.396950
#
# Coordination Sequence:
#
# PCOD8268338 Si02
#       8
#     8  16  16  16  16  16  16  16
#     4  11  25  43  62  83 106 135 171 209 249 295
#     4   8  14  25  40  57  80 115 159 202 241 281
#     4  10  19  32  47  68  97 130 163 197 240 288
#     4   9  17  27  40  61  91 126 161 197 237 281
#     4   9  18  31  49  71  97 127 162 200 240 285
#     4  11  22  38  59  81 106 135 167 206 251 296
#     4  10  21  34  49  72 100 130 165 201 236 281
#     4  10  19  34  56  82 108 134 167 204 247 296
#
# _framework density 16.599805
#
# number of rings (size 3 to 8) (size 9 to 14) (size 15 to 20)
#    0.000    2.333    1.333    2.200    0.000    4.267 
#    0.000    3.000    0.000    0.000    0.000    0.000 
#    0.000    0.533    0.000    1.200    0.000    2.133 
#
# Total GULP energy -743964.346413 kJ/mol
# GULP energy per Si atom -12399.405774 kJ/mol
# Density = 1.656202 g / cm^3
# Si number density = 16.599805 Si / 1000 Ang^3
#
#
#
# Elastic Constant Matrix: (Units=GPa)
#
#
# Indices 1 2 3 4 5 6 
#
# 1 57.5219 36.4273 42.0294 0.0000 0.0000 0.0000
# 2 36.4273 87.5087 38.6546 0.0000 0.0000 0.0000
# 3 42.0294 38.6546 97.6949 0.0000 0.0000 0.0000
# 4 0.0000 0.0000 0.0000 8.9028 0.0000 0.0000
# 5 0.0000 0.0000 0.0000 0.0000 24.8382 0.0000
# 6 0.0000 0.0000 0.0000 0.0000 0.0000 25.6310
#
#
#
# Elastic Compliance Matrix: (Units=1/GPa)
#
#
# Indices 1 2 3 4 5 6 
#
# 1 0.029401 -0.008060 -0.009459 0.000000 0.000000 0.000000
# 2 -0.008060 0.016057 -0.002886 0.000000 0.000000 0.000000
# 3 -0.009459 -0.002886 0.015447 0.000000 0.000000 0.000000
# 4 0.000000 0.000000 0.000000 0.112324 0.000000 0.000000
# 5 0.000000 0.000000 0.000000 0.000000 0.040261 0.000000
# 6 0.000000 0.000000 0.000000 0.000000 0.000000 0.039015
#
#
# Mechanical properties :
#
#
# Convention : Reuss Voigt Hill
#
# Bulk Modulus (GPa) = 49.76448 52.99424 51.37936
# Shear Modulus (GPa) = 16.66588 20.24869 18.45729
#
# Velocity S-wave (km/s) = 3.17200 3.49637 3.33813
# Velocity P-wave (km/s) = 6.59238 6.94935 6.77322
#
# Compressibility (1/GPa) = 0.02009466
#
# Stress axis : x y z
#
# Youngs Moduli (GPa) = 34.01282 62.27662 64.73642
#
# Poissons Ratio (x) = 0.50197 0.61236
# Poissons Ratio (y) = 0.27415 0.18681
# Poissons Ratio (z) = 0.32174 0.17972
#
# Static dielectric constant tensor:
#      x y z
#    x 3.143870 0.000000 0.000000 
#    y 0.000000 3.096290 0.000000 
#    z 0.000000 0.000000 3.316750 
# 
# 
# High freq. dielectric constant tensor:
#      x y z
#    x 1.642120 0.000000 0.000000 
#    y 0.000000 1.622550 0.000000 
#    z 0.000000 0.000000 1.629350 
# 
# From -- ./inp_files/73992.got.cif
#   From: 2010.03.12/outbox.cif.g09.slc.cpg/sg65_37_cif.got.tgz:73992.got - 2010.04.10 20:52:16.
