data_PCOD8268213
_publ_section_title
;
Structure prediction by ZEFSAII (Michael W. Deem and Ramdas Pophale) SiO2 
 PCOD8268213
Probable space group: C M M M
;
_chemical_formula_sum "Si O2"
_cell_formula_units_Z 128
_cell_length_a 24.226523
_cell_length_b 17.389646
_cell_length_c 17.970271
_cell_angle_alpha 90.000000
_cell_angle_beta 90.000000
_cell_angle_gamma 90.000000
_cell_volume 7570.707308
_symmetry_space_group_name_H-M "C M M M"
_symmetry_group_IT_number 65
_symmetry_cell_setting 'orthorhombic'
loop_
_space_group_symop_operation_xyz
x,y,z
-x,-y,z
x,-y,-z
-x,y,-z
-x,-y,-z
x,y,-z
-x,y,z
x,-y,z
1/2+x,1/2+y,z
1/2-x,1/2-y,z
1/2+x,1/2-y,-z
1/2-x,1/2+y,-z
1/2-x,1/2-y,-z
1/2+x,1/2+y,-z
1/2-x,1/2+y,z
1/2+x,1/2-y,z
loop_
_atom_site_type_symbol
_atom_site_label
_atom_site_fract_x
_atom_site_fract_y
_atom_site_fract_z
Si Si1 0.151361 0.590662 0.415510
Si Si2 0.226328 0.590338 0.715389
Si Si3 0.404368 0.782217 0.918203
Si Si4 0.936408 0.653698 0.687822
Si Si5 0.560851 0.303150 0.221303
Si Si6 0.870992 0.412282 0.815612
Si Si7 0.293673 0.689572 0.918128
Si Si8 0.834355 0.909573 0.790601
O O1 0.163870 0.614679 0.500000
O O2 0.139360 0.500000 0.408273
O O3 0.204775 0.615226 0.366227
O O4 0.098012 0.637268 0.387026
O O5 0.220817 0.500000 0.724255
O O6 0.185560 0.623444 0.779870
O O7 0.290417 0.614190 0.725913
O O8 0.443167 0.739742 0.858478
O O9 0.387566 0.866516 0.889481
O O10 0.350705 0.731962 0.926941
O O11 0.432986 0.789610 0.000000
O O12 0.925471 0.741074 0.714935
O O13 0.918083 0.594885 0.752508
O O14 0.000000 0.639582 0.669039
O O15 0.500000 0.339941 0.234862
O O16 0.607527 0.368387 0.224236
O O17 0.864570 0.500000 0.840322
O O18 0.250000 0.750000 0.883143
O O19 0.303830 0.615499 0.866560
O O20 0.272981 0.661736 0.000000
O O21 0.846101 0.000000 0.793657
#
# Coordination Sequence:
#
# PCOD8268213 Si02
#       8
#    16  16  16  16  16  16  16  16
#     4   9  17  29  47  73 104 133 158 188 226 269
#     4   8  15  28  44  65  94 123 148 178 225 279
#     4   9  17  28  42  61  85 117 157 194 232 282
#     4   9  17  30  46  64  92 130 166 195 228 275
#     4   9  19  34  49  65  87 119 156 196 247 297
#     4   9  16  26  41  62  91 126 162 199 233 266
#     4   9  17  29  44  64  93 125 154 187 231 282
#     4  10  19  31  51  74  92 117 156 201 244 283
#
# _framework density 16.907271000000001
#
# number of rings (size 3 to 8) (size 9 to 14) (size 15 to 20)
#    0.000    3.000    0.000    1.875    0.000    3.250 
#    0.000    0.625    0.000    6.000    0.000    7.000 
#    0.000    0.000    0.000    7.625    0.000    0.000 
#
# Total GULP energy -793048.237772 kJ/mol
# GULP energy per Si atom -12391.378715 kJ/mol
# Density = 1.686879 g / cm^3
# Si number density = 16.907271 Si / 1000 Ang^3
#
#
#
# Elastic Constant Matrix: (Units=GPa)
#
#
# Indices 1 2 3 4 5 6 
#
# 1 109.9685 44.6407 46.4303 0.0000 0.0000 0.0000
# 2 44.6407 69.2718 38.7045 0.0000 0.0000 0.0000
# 3 46.4303 38.7045 95.8952 0.0000 0.0000 0.0000
# 4 0.0000 0.0000 0.0000 18.9251 0.0000 0.0000
# 5 0.0000 0.0000 0.0000 0.0000 15.0466 0.0000
# 6 0.0000 0.0000 0.0000 0.0000 0.0000 21.3761
#
#
#
# Elastic Compliance Matrix: (Units=1/GPa)
#
#
# Indices 1 2 3 4 5 6 
#
# 1 0.013336 -0.006438 -0.003858 0.000000 0.000000 0.000000
# 2 -0.006438 0.021748 -0.005660 0.000000 0.000000 0.000000
# 3 -0.003858 -0.005660 0.014581 0.000000 0.000000 0.000000
# 4 0.000000 0.000000 0.000000 0.052840 0.000000 0.000000
# 5 0.000000 0.000000 0.000000 0.000000 0.066460 0.000000
# 6 0.000000 0.000000 0.000000 0.000000 0.000000 0.046781
#
#
# Mechanical properties :
#
#
# Convention : Reuss Voigt Hill
#
# Bulk Modulus (GPa) = 56.33705 59.40962 57.87333
# Shear Modulus (GPa) = 19.71789 20.76022 20.23906
#
# Velocity S-wave (km/s) = 3.41873 3.50792 3.46361
# Velocity P-wave (km/s) = 6.99837 7.18486 7.09222
#
# Compressibility (1/GPa) = 0.01775031
#
# Stress axis : x y z
#
# Youngs Moduli (GPa) = 74.98379 45.98224 68.58333
#
# Poissons Ratio (x) = 0.29605 0.26463
# Poissons Ratio (y) = 0.48277 0.38820
# Poissons Ratio (z) = 0.28932 0.26027
#
# Static dielectric constant tensor:
#      x y z
#    x 3.258260 0.000000 0.000000 
#    y 0.000000 2.941670 0.000000 
#    z 0.000000 0.000000 3.467310 
# 
# 
# High freq. dielectric constant tensor:
#      x y z
#    x 1.652670 0.000000 0.000000 
#    y 0.000000 1.627670 0.000000 
#    z 0.000000 0.000000 1.634290 
# 
# From -- ./inp_files/55088.got.cif
#   From: 2010.03.12/outbox.cif.g09.slc.cpg/sg65_28_cif.got.tgz:55088.got - 2010.04.10 20:52:16.
