data_PCOD8268026
_publ_section_title
;
Structure prediction by ZEFSAII (Michael W. Deem and Ramdas Pophale) SiO2 
 PCOD8268026
Probable space group: C M M M
;
_chemical_formula_sum "Si O2"
_cell_formula_units_Z 88
_cell_length_a 8.879461
_cell_length_b 18.600372
_cell_length_c 28.327842
_cell_angle_alpha 90.000000
_cell_angle_beta 90.000000
_cell_angle_gamma 90.000000
_cell_volume 4678.662581
_symmetry_space_group_name_H-M "C M M M"
_symmetry_group_IT_number 65
_symmetry_cell_setting 'orthorhombic'
loop_
_space_group_symop_operation_xyz
x,y,z
-x,-y,z
x,-y,-z
-x,y,-z
-x,-y,-z
x,y,-z
-x,y,z
x,-y,z
1/2+x,1/2+y,z
1/2-x,1/2-y,z
1/2+x,1/2-y,-z
1/2-x,1/2+y,-z
1/2-x,1/2-y,-z
1/2+x,1/2+y,-z
1/2-x,1/2+y,z
1/2+x,1/2-y,z
loop_
_atom_site_type_symbol
_atom_site_label
_atom_site_fract_x
_atom_site_fract_y
_atom_site_fract_z
Si Si1 0.179001 0.327567 0.910912
Si Si2 0.678448 0.079624 0.824389
Si Si3 0.677501 0.327068 0.361356
Si Si4 0.178944 0.080453 0.447709
Si Si5 0.321267 0.919174 0.000000
Si Si6 0.327683 0.084525 0.718597
O O1 0.250000 0.250000 0.916784
O O2 0.240033 0.363626 0.862560
O O3 0.000000 0.319982 0.910867
O O4 0.235791 0.377242 0.953802
O O5 0.500000 0.074249 0.828155
O O6 0.723051 0.104985 0.771780
O O7 0.745410 0.000000 0.834726
O O8 0.500000 0.318396 0.364568
O O9 0.750000 0.250000 0.356368
O O10 0.743752 0.365493 0.408376
O O11 0.716877 0.374224 0.316029
O O12 0.231352 0.105867 0.500000
O O13 0.000000 0.079008 0.445097
O O14 0.240551 0.000000 0.437702
O O15 0.500000 0.923248 0.000000
O O16 0.254134 0.000000 0.000000
O O17 0.500000 0.108306 0.709455
O O18 0.309653 0.000000 0.710283
#
# Coordination Sequence:
#
# PCOD8268026 Si02
#       6
#    16  16  16  16   8  16
#     4  10  19  31  49  73 101 129 159 198 243 291
#     4   8  15  30  52  74  95 125 165 203 239 284
#     4  11  22  34  50  74 104 136 169 205 247 294
#     4   8  15  30  52  75  97 124 161 203 246 294
#     4   9  17  30  51  75  94 121 166 210 240 277
#     4   9  18  34  55  76  99 129 166 208 252 297
#
# _framework density 18.808795
#
# number of rings (size 3 to 8) (size 9 to 14) (size 15 to 20)
#    0.000    2.818    0.000    3.545    0.000    4.364 
#    0.000    2.727    0.000    5.455    0.000    6.364 
#    0.000    0.000    0.000    0.000    0.000    0.000 
#
# Total GULP energy -545477.328449 kJ/mol
# GULP energy per Si atom -12397.212010 kJ/mol
# Density = 1.876599 g / cm^3
# Si number density = 18.808795 Si / 1000 Ang^3
#
#
#
# Elastic Constant Matrix: (Units=GPa)
#
#
# Indices 1 2 3 4 5 6 
#
# 1 28.9914 25.0456 27.1241 0.0000 0.0000 0.0000
# 2 25.0456 121.5470 86.5213 0.0000 0.0000 0.0000
# 3 27.1241 86.5213 163.7867 0.0000 0.0000 0.0000
# 4 0.0000 0.0000 0.0000 18.2783 0.0000 0.0000
# 5 0.0000 0.0000 0.0000 0.0000 19.0828 0.0000
# 6 0.0000 0.0000 0.0000 0.0000 0.0000 15.6297
#
#
#
# Elastic Compliance Matrix: (Units=1/GPa)
#
#
# Indices 1 2 3 4 5 6 
#
# 1 0.043507 -0.006148 -0.003957 0.000000 0.000000 0.000000
# 2 -0.006148 0.014054 -0.006406 0.000000 0.000000 0.000000
# 3 -0.003957 -0.006406 0.010145 0.000000 0.000000 0.000000
# 4 0.000000 0.000000 0.000000 0.054710 0.000000 0.000000
# 5 0.000000 0.000000 0.000000 0.000000 0.052403 0.000000
# 6 0.000000 0.000000 0.000000 0.000000 0.000000 0.063981
#
#
# Mechanical properties :
#
#
# Convention : Reuss Voigt Hill
#
# Bulk Modulus (GPa) = 28.83247 65.74524 47.28886
# Shear Modulus (GPa) = 17.64399 22.30710 19.97555
#
# Velocity S-wave (km/s) = 3.06612 3.44756 3.26242
# Velocity P-wave (km/s) = 5.28179 7.13288 6.27596
#
# Compressibility (1/GPa) = 0.03468312
#
# Stress axis : x y z
#
# Youngs Moduli (GPa) = 22.98502 71.15343 98.57174
#
# Poissons Ratio (x) = 0.43744 0.39008
# Poissons Ratio (y) = 0.14131 0.63146
# Poissons Ratio (z) = 0.09096 0.45581
#
# Static dielectric constant tensor:
#      x y z
#    x 2.945780 0.000000 0.000000 
#    y 0.000000 3.545070 0.000000 
#    z 0.000000 0.000000 3.847780 
# 
# 
# High freq. dielectric constant tensor:
#      x y z
#    x 1.678870 0.000000 0.000000 
#    y 0.000000 1.732880 0.000000 
#    z 0.000000 0.000000 1.749160 
# 
# From -- ./inp_files/76681.got.cif
#   From: 2010.03.12/outbox.cif.g09.slc.cpg/sg65_39_cif.got.tgz:76681.got - 2010.04.10 20:52:16.
