data_PCOD8268002
_publ_section_title
;
Structure prediction by ZEFSAII (Michael W. Deem and Ramdas Pophale) SiO2 
 PCOD8268002
Probable space group: C M M M
;
_chemical_formula_sum "Si O2"
_cell_formula_units_Z 96
_cell_length_a 27.684562
_cell_length_b 8.671881
_cell_length_c 23.853333
_cell_angle_alpha 90.000000
_cell_angle_beta 90.000000
_cell_angle_gamma 90.000000
_cell_volume 5726.642046
_symmetry_space_group_name_H-M "C M M M"
_symmetry_group_IT_number 65
_symmetry_cell_setting 'orthorhombic'
loop_
_space_group_symop_operation_xyz
x,y,z
-x,-y,z
x,-y,-z
-x,y,-z
-x,-y,-z
x,y,-z
-x,y,z
x,-y,z
1/2+x,1/2+y,z
1/2-x,1/2-y,z
1/2+x,1/2-y,-z
1/2-x,1/2+y,-z
1/2-x,1/2-y,-z
1/2+x,1/2+y,-z
1/2-x,1/2+y,z
1/2+x,1/2-y,z
loop_
_atom_site_type_symbol
_atom_site_label
_atom_site_fract_x
_atom_site_fract_y
_atom_site_fract_z
Si Si1 0.447149 0.318467 0.775058
Si Si2 0.888052 0.817714 0.332269
Si Si3 0.198550 0.317792 0.269129
Si Si4 0.198741 0.680998 0.064060
Si Si5 0.646143 0.317019 0.164074
Si Si6 0.445981 0.683108 0.437799
O O1 0.500000 0.242070 0.785451
O O2 0.452208 0.500000 0.779797
O O3 0.428608 0.273885 0.713372
O O4 0.408232 0.260772 0.820985
O O5 0.838596 0.730813 0.317909
O O6 0.907841 0.755602 0.391931
O O7 0.877720 0.000000 0.332124
O O8 0.201413 0.500000 0.264639
O O9 0.250000 0.250000 0.286541
O O10 0.183539 0.251002 0.208817
O O11 0.200583 0.500000 0.073775
O O12 0.250000 0.750000 0.082158
O O13 0.157356 0.755539 0.102184
O O14 0.186504 0.723973 0.000000
O O15 0.650552 0.500000 0.166462
O O16 0.429088 0.735560 0.500000
O O17 0.500000 0.747172 0.425682
O O18 0.447860 0.500000 0.433931
#
# Coordination Sequence:
#
# PCOD8268002 Si02
#       6
#    16  16  16  16  16  16
#     4   8  14  25  43  67  92 119 151 186 222 260
#     4   9  16  27  45  69  95 122 153 189 228 269
#     4  11  21  33  48  66  91 120 152 189 230 277
#     4  10  20  33  49  69  94 123 154 188 227 271
#     4  10  19  31  49  72  96 121 151 187 227 270
#     4   8  13  22  41  71 101 126 154 189 227 268
#
# _framework density 16.763750999999999
#
# number of rings (size 3 to 8) (size 9 to 14) (size 15 to 20)
#    0.000    2.667    0.000    5.000    0.000    3.000 
#    0.000    0.000    0.000   18.500    0.000    4.667 
#    0.000    0.000    0.000    0.000    0.000    0.000 
#
# Total GULP energy -595042.036197 kJ/mol
# GULP energy per Si atom -12396.709087 kJ/mol
# Density = 1.672560 g / cm^3
# Si number density = 16.763751 Si / 1000 Ang^3
#
#
#
# Elastic Constant Matrix: (Units=GPa)
#
#
# Indices 1 2 3 4 5 6 
#
# 1 132.0895 34.2306 73.0921 0.0000 0.0000 0.0000
# 2 34.2306 62.5490 33.3776 0.0000 0.0000 0.0000
# 3 73.0921 33.3776 123.4619 0.0000 0.0000 0.0000
# 4 0.0000 0.0000 0.0000 18.8180 0.0000 0.0000
# 5 0.0000 0.0000 0.0000 0.0000 28.9200 0.0000
# 6 0.0000 0.0000 0.0000 0.0000 0.0000 18.5328
#
#
#
# Elastic Compliance Matrix: (Units=1/GPa)
#
#
# Indices 1 2 3 4 5 6 
#
# 1 0.011778 -0.003184 -0.006112 0.000000 0.000000 0.000000
# 2 -0.003184 0.019543 -0.003398 0.000000 0.000000 0.000000
# 3 -0.006112 -0.003398 0.012637 0.000000 0.000000 0.000000
# 4 0.000000 0.000000 0.000000 0.053141 0.000000 0.000000
# 5 0.000000 0.000000 0.000000 0.000000 0.034578 0.000000
# 6 0.000000 0.000000 0.000000 0.000000 0.000000 0.053958
#
#
# Mechanical properties :
#
#
# Convention : Reuss Voigt Hill
#
# Bulk Modulus (GPa) = 53.85271 66.61123 60.23197
# Shear Modulus (GPa) = 23.01880 25.08085 24.04983
#
# Velocity S-wave (km/s) = 3.70960 3.87219 3.79176
# Velocity P-wave (km/s) = 7.10932 7.73391 7.42818
#
# Compressibility (1/GPa) = 0.01856917
#
# Stress axis : x y z
#
# Youngs Moduli (GPa) = 84.90547 51.16793 79.13390
#
# Poissons Ratio (x) = 0.16292 0.48366
# Poissons Ratio (y) = 0.27035 0.26894
# Poissons Ratio (z) = 0.51893 0.17389
#
# Static dielectric constant tensor:
#      x y z
#    x 3.336210 0.000000 0.000000 
#    y 0.000000 2.905470 0.000000 
#    z 0.000000 0.000000 3.244820 
# 
# 
# High freq. dielectric constant tensor:
#      x y z
#    x 1.640800 0.000000 0.000000 
#    y 0.000000 1.624700 0.000000 
#    z 0.000000 0.000000 1.638300 
# 
# From -- ./inp_files/68066.got.cif
#   From: 2010.03.12/outbox.cif.g09.slc.cpg/sg65_35_cif.got.tgz:68066.got - 2010.04.10 20:52:16.
