data_PCOD8268257
_publ_section_title
;
Structure prediction by ZEFSAII (Michael W. Deem and Ramdas Pophale) SiO2 
 PCOD8268257
Probable space group: C M M M
;
_chemical_formula_sum "Si O2"
_cell_formula_units_Z 80
_cell_length_a 9.117665
_cell_length_b 18.361053
_cell_length_c 25.767711
_cell_angle_alpha 90.000000
_cell_angle_beta 90.000000
_cell_angle_gamma 90.000000
_cell_volume 4313.770703
_symmetry_space_group_name_H-M "C M M M"
_symmetry_group_IT_number 65
_symmetry_cell_setting 'orthorhombic'
loop_
_space_group_symop_operation_xyz
x,y,z
-x,-y,z
x,-y,-z
-x,y,-z
-x,-y,-z
x,y,-z
-x,y,z
x,-y,z
1/2+x,1/2+y,z
1/2-x,1/2-y,z
1/2+x,1/2-y,-z
1/2-x,1/2+y,-z
1/2-x,1/2-y,-z
1/2+x,1/2+y,-z
1/2-x,1/2+y,z
1/2+x,1/2-y,z
loop_
_atom_site_type_symbol
_atom_site_label
_atom_site_fract_x
_atom_site_fract_y
_atom_site_fract_z
Si Si1 0.672748 0.327786 0.832512
Si Si2 0.671809 0.174030 0.644226
Si Si3 0.330230 0.325579 0.945258
Si Si4 0.668404 0.416667 0.439851
Si Si5 0.168910 0.584458 0.745917
O O1 0.500000 0.316430 0.824195
O O2 0.750000 0.250000 0.824582
O O3 0.709371 0.362789 0.889938
O O4 0.730770 0.385485 0.791640
O O5 0.500000 0.187711 0.638696
O O6 0.750000 0.250000 0.653965
O O7 0.727698 0.136719 0.591877
O O8 0.711502 0.122759 0.692369
O O9 0.500000 0.306850 0.944234
O O10 0.250000 0.250000 0.947370
O O11 0.292928 0.369051 0.000000
O O12 0.691507 0.398206 0.500000
O O13 0.500000 0.403493 0.423814
O O14 0.713134 0.500000 0.428571
O O15 0.203652 0.500000 0.738704
O O16 0.000000 0.598637 0.760383
#
# Coordination Sequence:
#
# PCOD8268257 Si02
#       5
#    16  16  16  16  16
#     4  10  19  31  51  78 105 135 172 212 257 309
#     4  11  23  38  57  81 108 139 176 217 262 310
#     4   8  14  25  42  67  99 131 164 205 251 299
#     4   9  19  37  60  85 113 144 177 214 257 304
#     4  10  22  39  56  75 102 135 172 217 266 313
#
# _framework density 18.545261
#
# number of rings (size 3 to 8) (size 9 to 14) (size 15 to 20)
#    0.000    2.400    0.000    3.000    0.000    6.400 
#    0.000    1.000    0.000    0.600    0.000    4.200 
#    0.000    0.000    0.000    0.000    0.000    0.000 
#
# Total GULP energy -495682.465828 kJ/mol
# GULP energy per Si atom -12392.061646 kJ/mol
# Density = 1.850305 g / cm^3
# Si number density = 18.545261 Si / 1000 Ang^3
#
#
#
# Elastic Constant Matrix: (Units=GPa)
#
#
# Indices 1 2 3 4 5 6 
#
# 1 80.9557 52.7279 64.8497 0.0000 0.0000 0.0000
# 2 52.7279 103.0473 66.0205 0.0000 0.0000 0.0000
# 3 64.8497 66.0205 135.4581 0.0000 0.0000 0.0000
# 4 0.0000 0.0000 0.0000 -6.5656 0.0000 0.0000
# 5 0.0000 0.0000 0.0000 0.0000 10.6753 0.0000
# 6 0.0000 0.0000 0.0000 0.0000 0.0000 23.0450
#
#
#
# Elastic Compliance Matrix: (Units=1/GPa)
#
#
# Indices 1 2 3 4 5 6 
#
# 1 0.022928 -0.006833 -0.007646 0.000000 0.000000 0.000000
# 2 -0.006833 0.016147 -0.004598 0.000000 0.000000 0.000000
# 3 -0.007646 -0.004598 0.013284 0.000000 0.000000 0.000000
# 4 0.000000 0.000000 0.000000 -0.152309 0.000000 0.000000
# 5 0.000000 0.000000 0.000000 0.000000 0.093674 0.000000
# 6 0.000000 0.000000 0.000000 0.000000 0.000000 0.043393
#
#
# Mechanical properties :
#
#
# Convention : Reuss Voigt Hill
#
# Bulk Modulus (GPa) = 70.40586 76.29524 73.35055
# Shear Modulus (GPa) = 62.49442 14.48848 38.49145
#
# Velocity S-wave (km/s) = 5.81132 2.79812 4.56075
# Velocity P-wave (km/s) = 9.11457 7.18809 8.20804
#
# Compressibility (1/GPa) = 0.01420336
#
# Stress axis : x y z
#
# Youngs Moduli (GPa) = 43.61477 61.93162 75.27751
#
# Poissons Ratio (x) = 0.42319 0.57559
# Poissons Ratio (y) = 0.29803 0.34616
# Poissons Ratio (z) = 0.33349 0.28479
#
# Static dielectric constant tensor:
#      x y z
#    x 3.429940 0.000000 0.000000 
#    y 0.000000 3.115090 0.000000 
#    z 0.000000 0.000000 3.960750 
# 
# 
# High freq. dielectric constant tensor:
#      x y z
#    x 1.724460 0.000000 0.000000 
#    y 0.000000 1.687660 0.000000 
#    z 0.000000 0.000000 1.745810 
# 
# From -- ./inp_files/72710.got.cif
#   From: 2010.03.12/outbox.cif.g09.slc.cpg/sg65_37_cif.got.tgz:72710.got - 2010.04.10 20:52:16.
