data_PCOD8268157
_publ_section_title
;
Structure prediction by ZEFSAII (Michael W. Deem and Ramdas Pophale) SiO2 
 PCOD8268157
Probable space group: C M M M
;
_chemical_formula_sum "Si O2"
_cell_formula_units_Z 88
_cell_length_a 8.905374
_cell_length_b 17.928112
_cell_length_c 28.408488
_cell_angle_alpha 90.000000
_cell_angle_beta 90.000000
_cell_angle_gamma 90.000000
_cell_volume 4535.600971
_symmetry_space_group_name_H-M "C M M M"
_symmetry_group_IT_number 65
_symmetry_cell_setting 'orthorhombic'
loop_
_space_group_symop_operation_xyz
x,y,z
-x,-y,z
x,-y,-z
-x,y,-z
-x,-y,-z
x,y,-z
-x,y,z
x,-y,z
1/2+x,1/2+y,z
1/2-x,1/2-y,z
1/2+x,1/2-y,-z
1/2-x,1/2+y,-z
1/2-x,1/2-y,-z
1/2+x,1/2+y,-z
1/2-x,1/2+y,z
1/2+x,1/2-y,z
loop_
_atom_site_type_symbol
_atom_site_label
_atom_site_fract_x
_atom_site_fract_y
_atom_site_fract_z
Si Si1 0.176237 0.169891 0.500000
Si Si2 0.175101 0.085518 0.236991
Si Si3 0.824701 0.671131 0.321087
Si Si4 0.176151 0.169538 0.142345
Si Si5 0.173169 0.413128 0.415630
Si Si6 0.176029 0.669398 0.948972
O O1 0.250000 0.250000 0.500000
O O2 0.222622 0.125509 0.453715
O O3 0.000000 0.180836 0.500000
O O4 0.265999 0.134455 0.273684
O O5 0.213753 0.115120 0.185238
O O6 0.000000 0.094033 0.248274
O O7 0.227362 0.000000 0.240350
O O8 0.750000 0.750000 0.330881
O O9 0.785407 0.617382 0.364365
O O10 0.000000 0.684318 0.315481
O O11 0.250000 0.250000 0.151632
O O12 0.245021 0.129014 0.095495
O O13 0.000000 0.180858 0.135587
O O14 0.209433 0.500000 0.415843
O O15 0.000000 0.397122 0.428350
O O16 0.250000 0.750000 0.951117
O O17 0.000000 0.676881 0.939037
O O18 0.203786 0.629338 0.000000
#
# Coordination Sequence:
#
# PCOD8268157 Si02
#       6
#     8  16  16  16  16  16
#     4  12  25  40  61  89 119 155 199 240 281 330
#     4  10  22  39  57  79 109 144 182 227 277 327
#     4  11  23  39  61  88 115 147 187 228 275 330
#     4  10  19  31  50  75 103 136 174 217 266 321
#     4  10  22  41  63  88 120 154 188 231 282 333
#     4   9  16  26  43  69 100 132 168 213 264 316
#
# _framework density 19.402059000000001
#
# number of rings (size 3 to 8) (size 9 to 14) (size 15 to 20)
#    0.000    1.818    0.000    5.455    0.000    9.455 
#    0.000    0.000    0.000    0.545    0.000    3.818 
#    0.000    0.000    0.000    0.000    0.000    0.000 
#
# Total GULP energy -545569.211064 kJ/mol
# GULP energy per Si atom -12399.300251 kJ/mol
# Density = 1.935790 g / cm^3
# Si number density = 19.402059 Si / 1000 Ang^3
#
#
#
# Elastic Constant Matrix: (Units=GPa)
#
#
# Indices 1 2 3 4 5 6 
#
# 1 115.9403 50.2814 73.8702 0.0000 0.0000 0.0000
# 2 50.2814 100.3893 45.1134 0.0000 0.0000 0.0000
# 3 73.8702 45.1134 136.9290 0.0000 0.0000 0.0000
# 4 0.0000 0.0000 0.0000 21.2197 0.0000 0.0000
# 5 0.0000 0.0000 0.0000 0.0000 42.6458 0.0000
# 6 0.0000 0.0000 0.0000 0.0000 0.0000 22.6524
#
#
#
# Elastic Compliance Matrix: (Units=1/GPa)
#
#
# Indices 1 2 3 4 5 6 
#
# 1 0.014659 -0.004447 -0.006443 0.000000 0.000000 0.000000
# 2 -0.004447 0.013041 -0.001898 0.000000 0.000000 0.000000
# 3 -0.006443 -0.001898 0.011404 0.000000 0.000000 0.000000
# 4 0.000000 0.000000 0.000000 0.047126 0.000000 0.000000
# 5 0.000000 0.000000 0.000000 0.000000 0.023449 0.000000
# 6 0.000000 0.000000 0.000000 0.000000 0.000000 0.044145
#
#
# Mechanical properties :
#
#
# Convention : Reuss Voigt Hill
#
# Bulk Modulus (GPa) = 73.91412 76.86543 75.38978
# Shear Modulus (GPa) = 27.18736 29.56982 28.37859
#
# Velocity S-wave (km/s) = 3.74740 3.90815 3.82862
# Velocity P-wave (km/s) = 7.54339 7.75036 7.64757
#
# Compressibility (1/GPa) = 0.01352922
#
# Stress axis : x y z
#
# Youngs Moduli (GPa) = 68.21908 76.68006 87.68714
#
# Poissons Ratio (x) = 0.34097 0.56497
# Poissons Ratio (y) = 0.30334 0.16641
# Poissons Ratio (z) = 0.43954 0.14552
#
# Static dielectric constant tensor:
#      x y z
#    x 3.540430 0.000000 0.000000 
#    y 0.000000 3.478520 0.000000 
#    z 0.000000 0.000000 4.107770 
# 
# 
# High freq. dielectric constant tensor:
#      x y z
#    x 1.763210 0.000000 0.000000 
#    y 0.000000 1.734350 0.000000 
#    z 0.000000 0.000000 1.781080 
# 
# From -- ./inp_files/76610.got.cif
#   From: 2010.03.12/outbox.cif.g09.slc.cpg/sg65_39_cif.got.tgz:76610.got - 2010.04.10 20:52:16.
