data_PCOD8268864
_publ_section_title
;
Structure prediction by ZEFSAII (Michael W. Deem and Ramdas Pophale) SiO2 
 PCOD8268864
Probable space group: C M M M
;
_chemical_formula_sum "Si O2"
_cell_formula_units_Z 88
_cell_length_a 20.154881
_cell_length_b 8.129662
_cell_length_c 29.352232
_cell_angle_alpha 90.000000
_cell_angle_beta 90.000000
_cell_angle_gamma 90.000000
_cell_volume 4809.432783
_symmetry_space_group_name_H-M "C M M M"
_symmetry_group_IT_number 65
_symmetry_cell_setting 'orthorhombic'
loop_
_space_group_symop_operation_xyz
x,y,z
-x,-y,z
x,-y,-z
-x,y,-z
-x,-y,-z
x,y,-z
-x,y,z
x,-y,z
1/2+x,1/2+y,z
1/2-x,1/2-y,z
1/2+x,1/2-y,-z
1/2-x,1/2+y,-z
1/2-x,1/2-y,-z
1/2+x,1/2+y,-z
1/2-x,1/2+y,z
1/2+x,1/2-y,z
loop_
_atom_site_type_symbol
_atom_site_label
_atom_site_fract_x
_atom_site_fract_y
_atom_site_fract_z
Si Si1 0.926745 0.693520 0.709087
Si Si2 0.924317 0.308682 0.052201
Si Si3 0.079060 0.000000 0.551772
Si Si4 0.679211 0.687433 0.877764
Si Si5 0.676644 0.189540 0.779953
Si Si6 0.421109 0.184268 0.393136
O O1 0.933124 0.500000 0.716832
O O2 0.876541 0.774773 0.745967
O O3 0.899195 0.728174 0.658346
O O4 0.000000 0.773073 0.715667
O O5 0.909595 0.500000 0.059812
O O6 0.875626 0.203815 0.083332
O O7 0.000000 0.267271 0.065506
O O8 0.911203 0.259357 0.000000
O O9 0.106789 0.168433 0.574970
O O10 0.104225 0.000000 0.500000
O O11 0.000000 0.000000 0.554794
O O12 0.687751 0.500000 0.863472
O O13 0.750000 0.750000 0.896502
O O14 0.656474 0.782034 0.832426
O O15 0.750000 0.250000 0.769266
O O16 0.675021 0.000000 0.768984
O O17 0.500000 0.178737 0.395625
O O18 0.394586 0.000000 0.407264
#
# Coordination Sequence:
#
# PCOD8268864 Si02
#       6
#    16  16   8  16  16  16
#     4   8  15  29  49  69  90 125 167 200 239 293
#     4   9  19  37  59  80 102 130 164 203 249 299
#     4   9  16  24  36  60  92 126 162 196 242 300
#     4  11  22  36  53  74 102 134 169 205 249 300
#     4  10  19  33  51  71  99 131 162 205 253 297
#     4   8  14  26  41  59  87 122 160 201 244 291
#
# _framework density 18.297374999999999
#
# number of rings (size 3 to 8) (size 9 to 14) (size 15 to 20)
#    0.000    2.818    0.000    4.909    0.000    2.182 
#    3.273    4.545    0.000    0.000    0.000    0.000 
#    0.000    0.727    0.364    0.000    0.000    0.000 
#
# Total GULP energy -545351.889562 kJ/mol
# GULP energy per Si atom -12394.361126 kJ/mol
# Density = 1.825573 g / cm^3
# Si number density = 18.297375 Si / 1000 Ang^3
#
#
#
# Elastic Constant Matrix: (Units=GPa)
#
#
# Indices 1 2 3 4 5 6 
#
# 1 71.9970 26.4248 63.2095 0.0000 0.0000 0.0000
# 2 26.4248 74.3447 38.4990 0.0000 0.0000 0.0000
# 3 63.2095 38.4990 116.7863 0.0000 0.0000 0.0000
# 4 0.0000 0.0000 0.0000 26.6076 0.0000 0.0000
# 5 0.0000 0.0000 0.0000 0.0000 8.4599 0.0000
# 6 0.0000 0.0000 0.0000 0.0000 0.0000 18.1887
#
#
#
# Elastic Compliance Matrix: (Units=1/GPa)
#
#
# Indices 1 2 3 4 5 6 
#
# 1 0.026825 -0.002431 -0.013717 0.000000 0.000000 0.000000
# 2 -0.002431 0.016440 -0.004104 0.000000 0.000000 0.000000
# 3 -0.013717 -0.004104 0.017340 0.000000 0.000000 0.000000
# 4 0.000000 0.000000 0.000000 0.037583 0.000000 0.000000
# 5 0.000000 0.000000 0.000000 0.000000 0.118205 0.000000
# 6 0.000000 0.000000 0.000000 0.000000 0.000000 0.054979
#
#
# Mechanical properties :
#
#
# Convention : Reuss Voigt Hill
#
# Bulk Modulus (GPa) = 49.75000 57.71049 53.73025
# Shear Modulus (GPa) = 15.69481 19.65087 17.67284
#
# Velocity S-wave (km/s) = 2.93194 3.28071 3.11121
# Velocity P-wave (km/s) = 6.22177 6.77934 6.50653
#
# Compressibility (1/GPa) = 0.02010050
#
# Stress axis : x y z
#
# Youngs Moduli (GPa) = 37.27902 60.82708 57.67088
#
# Poissons Ratio (x) = 0.14788 0.79108
# Poissons Ratio (y) = 0.09063 0.23666
# Poissons Ratio (z) = 0.51136 0.24962
#
# Static dielectric constant tensor:
#      x y z
#    x 3.208910 0.000000 0.000000 
#    y 0.000000 3.408920 0.000000 
#    z 0.000000 0.000000 3.422150 
# 
# 
# High freq. dielectric constant tensor:
#      x y z
#    x 1.673270 0.000000 0.000000 
#    y 0.000000 1.706320 0.000000 
#    z 0.000000 0.000000 1.706930 
# 
# From -- ./inp_files/75328.got.cif
#   From: 2010.03.12/outbox.cif.g09.slc.cpg/sg65_38_cif.got.tgz:75328.got - 2010.04.10 20:52:16.
