data_PCOD8268085
_publ_section_title
;
Structure prediction by ZEFSAII (Michael W. Deem and Ramdas Pophale) SiO2 
 PCOD8268085
Probable space group: C M M M
;
_chemical_formula_sum "Si O2"
_cell_formula_units_Z 72
_cell_length_a 19.061558
_cell_length_b 8.795250
_cell_length_c 23.351931
_cell_angle_alpha 90.000000
_cell_angle_beta 90.000000
_cell_angle_gamma 90.000000
_cell_volume 3914.978507
_symmetry_space_group_name_H-M "C M M M"
_symmetry_group_IT_number 65
_symmetry_cell_setting 'orthorhombic'
loop_
_space_group_symop_operation_xyz
x,y,z
-x,-y,z
x,-y,-z
-x,y,-z
-x,-y,-z
x,y,-z
-x,y,z
x,-y,z
1/2+x,1/2+y,z
1/2-x,1/2-y,z
1/2+x,1/2-y,-z
1/2-x,1/2+y,-z
1/2-x,1/2-y,-z
1/2+x,1/2+y,-z
1/2-x,1/2+y,z
1/2+x,1/2-y,z
loop_
_atom_site_type_symbol
_atom_site_label
_atom_site_fract_x
_atom_site_fract_y
_atom_site_fract_z
Si Si1 0.826285 0.821879 0.562007
Si Si2 0.673664 0.681039 0.000000
Si Si3 0.326463 0.821643 0.674459
Si Si4 0.582267 0.674482 0.230649
Si Si5 0.922380 0.819814 0.102123
O O1 0.864015 0.792201 0.500000
O O2 0.750000 0.750000 0.559032
O O3 0.864177 0.743564 0.616423
O O4 0.820220 0.000000 0.573981
O O5 0.750000 0.750000 0.000000
O O6 0.632938 0.743087 0.943977
O O7 0.678513 0.500000 0.000000
O O8 0.250000 0.750000 0.683740
O O9 0.375442 0.783929 0.727747
O O10 0.317991 0.000000 0.668599
O O11 0.500000 0.695153 0.241739
O O12 0.604558 0.500000 0.241278
O O13 0.601525 0.725987 0.166052
O O14 0.000000 0.752924 0.088928
O O15 0.927035 0.000000 0.097898
#
# Coordination Sequence:
#
# PCOD8268085 Si02
#       5
#    16   8  16  16  16
#     4   9  16  27  45  69  97 128 163 203 247 295
#     4  10  19  31  49  75 105 130 158 198 244 292
#     4  11  21  32  49  73 102 133 167 207 250 296
#     4   9  18  34  54  74  98 129 166 207 252 301
#     4   8  15  30  53  75  93 123 167 206 238 283
#
# _framework density 18.390906000000001
#
# number of rings (size 3 to 8) (size 9 to 14) (size 15 to 20)
#    0.000    2.667    0.000    5.667    0.000    4.000 
#    0.000    3.333    0.000    3.333    0.000    4.667 
#    0.000    0.000    0.000    0.000    0.000    0.000 
#
# Total GULP energy -446132.759435 kJ/mol
# GULP energy per Si atom -12392.576651 kJ/mol
# Density = 1.834905 g / cm^3
# Si number density = 18.390906 Si / 1000 Ang^3
#
#
#
# Elastic Constant Matrix: (Units=GPa)
#
#
# Indices 1 2 3 4 5 6 
#
# 1 71.0753 31.6227 72.1897 0.0000 0.0000 0.0000
# 2 31.6227 91.3148 55.3766 0.0000 0.0000 0.0000
# 3 72.1897 55.3766 178.0846 0.0000 0.0000 0.0000
# 4 0.0000 0.0000 0.0000 22.7941 0.0000 0.0000
# 5 0.0000 0.0000 0.0000 0.0000 9.6552 0.0000
# 6 0.0000 0.0000 0.0000 0.0000 0.0000 23.6905
#
#
#
# Elastic Compliance Matrix: (Units=1/GPa)
#
#
# Indices 1 2 3 4 5 6 
#
# 1 0.024585 -0.003044 -0.009019 0.000000 0.000000 0.000000
# 2 -0.003044 0.013873 -0.003080 0.000000 0.000000 0.000000
# 3 -0.009019 -0.003080 0.010229 0.000000 0.000000 0.000000
# 4 0.000000 0.000000 0.000000 0.043871 0.000000 0.000000
# 5 0.000000 0.000000 0.000000 0.000000 0.103571 0.000000
# 6 0.000000 0.000000 0.000000 0.000000 0.000000 0.042211
#
#
# Mechanical properties :
#
#
# Convention : Reuss Voigt Hill
#
# Bulk Modulus (GPa) = 54.34710 73.20586 63.77648
# Shear Modulus (GPa) = 18.19773 23.31368 20.75570
#
# Velocity S-wave (km/s) = 3.14904 3.56430 3.36309
# Velocity P-wave (km/s) = 6.54501 7.53863 7.05932
#
# Compressibility (1/GPa) = 0.01840024
#
# Stress axis : x y z
#
# Youngs Moduli (GPa) = 40.67581 72.08188 97.76005
#
# Poissons Ratio (x) = 0.21943 0.88172
# Poissons Ratio (y) = 0.12382 0.30109
# Poissons Ratio (z) = 0.36686 0.22201
#
# Static dielectric constant tensor:
#      x y z
#    x 3.109570 0.000000 0.000000 
#    y 0.000000 3.175030 0.000000 
#    z 0.000000 0.000000 4.176170 
# 
# 
# High freq. dielectric constant tensor:
#      x y z
#    x 1.674370 0.000000 0.000000 
#    y 0.000000 1.694110 0.000000 
#    z 0.000000 0.000000 1.739220 
# 
# From -- ./inp_files/70309.got.cif
#   From: 2010.03.12/outbox.cif.g09.slc.cpg/sg65_36_cif.got.tgz:70309.got - 2010.04.10 20:52:16.
