data_PCOD8268752
_publ_section_title
;
Structure prediction by ZEFSAII (Michael W. Deem and Ramdas Pophale) SiO2 
 PCOD8268752
Probable space group: C M M M
;
_chemical_formula_sum "Si O2"
_cell_formula_units_Z 88
_cell_length_a 16.700392
_cell_length_b 26.691274
_cell_length_c 11.399325
_cell_angle_alpha 90.000000
_cell_angle_beta 90.000000
_cell_angle_gamma 90.000000
_cell_volume 5081.303138
_symmetry_space_group_name_H-M "C M M M"
_symmetry_group_IT_number 65
_symmetry_cell_setting 'orthorhombic'
loop_
_space_group_symop_operation_xyz
x,y,z
-x,-y,z
x,-y,-z
-x,y,-z
-x,-y,-z
x,y,-z
-x,y,z
x,-y,z
1/2+x,1/2+y,z
1/2-x,1/2-y,z
1/2+x,1/2-y,-z
1/2-x,1/2+y,-z
1/2-x,1/2-y,-z
1/2+x,1/2+y,-z
1/2-x,1/2+y,z
1/2+x,1/2-y,z
loop_
_atom_site_type_symbol
_atom_site_label
_atom_site_fract_x
_atom_site_fract_y
_atom_site_fract_z
Si Si1 0.666314 0.944069 0.756679
Si Si2 0.674517 0.219157 0.286576
Si Si3 0.590443 0.298407 0.133471
Si Si4 0.240279 0.859971 0.865868
Si Si5 0.000000 0.559407 0.133947
Si Si6 0.587896 0.833209 0.500000
Si Si7 0.877108 0.445075 0.500000
O O1 0.740375 0.912173 0.803516
O O2 0.579628 0.921428 0.797646
O O3 0.676298 0.944018 0.616529
O O4 0.675095 0.000000 0.807872
O O5 0.750000 0.250000 0.339624
O O6 0.609245 0.255494 0.228134
O O7 0.705096 0.184302 0.182692
O O8 0.635717 0.184880 0.386192
O O9 0.500000 0.316621 0.153524
O O10 0.647095 0.346594 0.154231
O O11 0.603087 0.278248 0.000000
O O12 0.263065 0.866252 0.000000
O O13 0.000000 0.500000 0.136608
O O14 0.000000 0.579683 0.000000
O O15 0.500000 0.808381 0.500000
O O16 0.572858 0.893469 0.500000
O O17 0.924525 0.500000 0.500000
#
# Coordination Sequence:
#
# PCOD8268752 Si02
#       7
#    16  16  16  16   8   8   8
#     4  10  20  34  51  71  99 134 172 211 251 298
#     4  10  20  35  52  72 100 134 169 209 250 296
#     4   9  18  34  55  77 103 133 164 204 255 310
#     4  10  19  32  53  78 102 130 168 208 252 307
#     4   9  18  31  47  69  99 132 165 205 253 299
#     4  12  23  34  50  73 102 133 171 212 252 293
#     4  10  22  36  50  69  96 134 174 206 244 297
#
# _framework density 17.318390999999998
#
# number of rings (size 3 to 8) (size 9 to 14) (size 15 to 20)
#    0.000    2.091    1.818    1.909    1.273    3.455 
#    1.636    0.000    0.000    0.545    0.000    2.545 
#    0.000    2.182    0.000    0.000    0.000    0.000 
#
# Total GULP energy -545323.369930 kJ/mol
# GULP energy per Si atom -12393.712953 kJ/mol
# Density = 1.727897 g / cm^3
# Si number density = 17.318391 Si / 1000 Ang^3
#
#
#
# Elastic Constant Matrix: (Units=GPa)
#
#
# Indices 1 2 3 4 5 6 
#
# 1 112.2135 53.0247 49.4214 0.0000 0.0000 0.0000
# 2 53.0247 92.9338 40.4425 0.0000 0.0000 0.0000
# 3 49.4214 40.4425 108.8086 0.0000 0.0000 0.0000
# 4 0.0000 0.0000 0.0000 27.6736 0.0000 0.0000
# 5 0.0000 0.0000 0.0000 0.0000 11.5690 0.0000
# 6 0.0000 0.0000 0.0000 0.0000 0.0000 18.2877
#
#
#
# Elastic Compliance Matrix: (Units=1/GPa)
#
#
# Indices 1 2 3 4 5 6 
#
# 1 0.013450 -0.005983 -0.003885 0.000000 0.000000 0.000000
# 2 -0.005983 0.015498 -0.003043 0.000000 0.000000 0.000000
# 3 -0.003885 -0.003043 0.012086 0.000000 0.000000 0.000000
# 4 0.000000 0.000000 0.000000 0.036136 0.000000 0.000000
# 5 0.000000 0.000000 0.000000 0.000000 0.086438 0.000000
# 6 0.000000 0.000000 0.000000 0.000000 0.000000 0.054682
#
#
# Mechanical properties :
#
#
# Convention : Reuss Voigt Hill
#
# Bulk Modulus (GPa) = 65.73846 66.63701 66.18773
# Shear Modulus (GPa) = 20.06559 22.91054 21.48807
#
# Velocity S-wave (km/s) = 3.40756 3.64112 3.52627
# Velocity P-wave (km/s) = 7.31595 7.49921 7.40814
#
# Compressibility (1/GPa) = 0.01521180
#
# Stress axis : x y z
#
# Youngs Moduli (GPa) = 74.34918 64.52271 82.73985
#
# Poissons Ratio (x) = 0.38606 0.32146
# Poissons Ratio (y) = 0.44486 0.25176
# Poissons Ratio (z) = 0.28886 0.19633
#
# Static dielectric constant tensor:
#      x y z
#    x 3.163140 0.000000 0.000000 
#    y 0.000000 3.273840 0.000000 
#    z 0.000000 0.000000 3.313300 
# 
# 
# High freq. dielectric constant tensor:
#      x y z
#    x 1.646730 0.000000 0.000000 
#    y 0.000000 1.658250 0.000000 
#    z 0.000000 0.000000 1.680170 
# 
# From -- ./inp_files/25231.got.cif
#   From: 2010.03.12/outbox.cif.g09.slc.cpg/sg65_13_cif.got.tgz:25231.got - 2010.04.10 20:52:16.
