data_PCOD8268393
_publ_section_title
;
Structure prediction by ZEFSAII (Michael W. Deem and Ramdas Pophale) SiO2 
 PCOD8268393
Probable space group: C M M M
;
_chemical_formula_sum "Si O2"
_cell_formula_units_Z 88
_cell_length_a 9.344318
_cell_length_b 19.399474
_cell_length_c 29.167079
_cell_angle_alpha 90.000000
_cell_angle_beta 90.000000
_cell_angle_gamma 90.000000
_cell_volume 5287.257990
_symmetry_space_group_name_H-M "C M M M"
_symmetry_group_IT_number 65
_symmetry_cell_setting 'orthorhombic'
loop_
_space_group_symop_operation_xyz
x,y,z
-x,-y,z
x,-y,-z
-x,y,-z
-x,-y,-z
x,y,-z
-x,y,z
x,-y,z
1/2+x,1/2+y,z
1/2-x,1/2-y,z
1/2+x,1/2-y,-z
1/2-x,1/2+y,-z
1/2-x,1/2-y,-z
1/2+x,1/2+y,-z
1/2-x,1/2+y,z
1/2+x,1/2-y,z
loop_
_atom_site_type_symbol
_atom_site_label
_atom_site_fract_x
_atom_site_fract_y
_atom_site_fract_z
Si Si1 0.500000 0.920338 0.945771
Si Si2 0.663081 0.418521 0.270894
Si Si3 0.656156 0.810993 0.105200
Si Si4 0.330233 0.818250 0.208491
Si Si5 0.833589 0.819510 0.551700
Si Si6 0.830854 0.924262 0.626599
O O1 0.358260 0.880312 0.926295
O O2 0.500000 0.000000 0.929331
O O3 0.500000 0.915648 0.000000
O O4 0.500000 0.395820 0.260029
O O5 0.678712 0.500000 0.265253
O O6 0.773148 0.383241 0.236444
O O7 0.706066 0.396300 0.322621
O O8 0.500000 0.777044 0.111356
O O9 0.750000 0.750000 0.082110
O O10 0.714069 0.831440 0.155425
O O11 0.500000 0.811393 0.215585
O O12 0.250000 0.750000 0.226667
O O13 0.808924 0.846960 0.500000
O O14 0.750000 0.750000 0.560630
O O15 0.768825 0.874604 0.587346
O O16 0.000000 0.805238 0.561038
O O17 0.000000 0.930166 0.621472
O O18 0.762692 0.000000 0.619384
#
# Coordination Sequence:
#
# PCOD8268393 Si02
#       6
#     8  16  16  16  16  16
#     4   9  18  32  52  78 105 133 167 207 251 299
#     4   9  18  32  48  68  95 128 161 195 239 290
#     4   8  17  32  50  74  99 131 167 206 245 293
#     4  10  19  32  49  71  97 128 160 203 240 281
#     4   9  17  29  46  67  89 114 145 183 229 279
#     4   8  15  29  47  66  90 117 150 192 231 271
#
# _framework density 16.643788000000001
#
# number of rings (size 3 to 8) (size 9 to 14) (size 15 to 20)
#    0.545    2.636    0.000    1.636    0.000    3.273 
#    0.000    4.545    0.000    2.182    0.000    3.818 
#    0.000    0.000    0.000    0.000    0.000    0.000 
#
# Total GULP energy -545223.457898 kJ/mol
# GULP energy per Si atom -12391.442225 kJ/mol
# Density = 1.660591 g / cm^3
# Si number density = 16.643788 Si / 1000 Ang^3
#
#
#
# Elastic Constant Matrix: (Units=GPa)
#
#
# Indices 1 2 3 4 5 6 
#
# 1 52.8301 40.1212 32.1227 0.0000 0.0000 0.0000
# 2 40.1212 101.9647 64.0783 0.0000 0.0000 0.0000
# 3 32.1227 64.0783 90.0008 0.0000 0.0000 0.0000
# 4 0.0000 0.0000 0.0000 31.6583 0.0000 0.0000
# 5 0.0000 0.0000 0.0000 0.0000 17.5391 0.0000
# 6 0.0000 0.0000 0.0000 0.0000 0.0000 28.9212
#
#
#
# Elastic Compliance Matrix: (Units=1/GPa)
#
#
# Indices 1 2 3 4 5 6 
#
# 1 0.027714 -0.008485 -0.003850 0.000000 0.000000 0.000000
# 2 -0.008485 0.020347 -0.011458 0.000000 0.000000 0.000000
# 3 -0.003850 -0.011458 0.020643 0.000000 0.000000 0.000000
# 4 0.000000 0.000000 0.000000 0.031587 0.000000 0.000000
# 5 0.000000 0.000000 0.000000 0.000000 0.057016 0.000000
# 6 0.000000 0.000000 0.000000 0.000000 0.000000 0.034577
#
#
# Mechanical properties :
#
#
# Convention : Reuss Voigt Hill
#
# Bulk Modulus (GPa) = 47.35568 57.49332 52.42450
# Shear Modulus (GPa) = 20.28333 22.85526 21.56929
#
# Velocity S-wave (km/s) = 3.49474 3.70969 3.60382
# Velocity P-wave (km/s) = 6.69317 7.27788 6.99164
#
# Compressibility (1/GPa) = 0.02111679
#
# Stress axis : x y z
#
# Youngs Moduli (GPa) = 36.08329 49.14834 48.44298
#
# Poissons Ratio (x) = 0.41703 0.18651
# Poissons Ratio (y) = 0.30617 0.55505
# Poissons Ratio (z) = 0.13893 0.56313
#
# Static dielectric constant tensor:
#      x y z
#    x 2.888820 0.000000 0.000000 
#    y 0.000000 3.200690 0.000000 
#    z 0.000000 0.000000 3.172620 
# 
# 
# High freq. dielectric constant tensor:
#      x y z
#    x 1.613240 0.000000 0.000000 
#    y 0.000000 1.636170 0.000000 
#    z 0.000000 0.000000 1.641860 
# 
# From -- ./inp_files/76796.got.cif
#   From: 2010.03.12/outbox.cif.g09.slc.cpg/sg65_39_cif.got.tgz:76796.got - 2010.04.10 20:52:16.
