data_PCOD8268007
_publ_section_title
;
Structure prediction by ZEFSAII (Michael W. Deem and Ramdas Pophale) SiO2 
 PCOD8268007
Probable space group: C M M M
;
_chemical_formula_sum "Si O2"
_cell_formula_units_Z 72
_cell_length_a 8.974441
_cell_length_b 28.686648
_cell_length_c 18.091823
_cell_angle_alpha 90.000000
_cell_angle_beta 90.000000
_cell_angle_gamma 90.000000
_cell_volume 4657.678861
_symmetry_space_group_name_H-M "C M M M"
_symmetry_group_IT_number 65
_symmetry_cell_setting 'orthorhombic'
loop_
_space_group_symop_operation_xyz
x,y,z
-x,-y,z
x,-y,-z
-x,y,-z
-x,-y,-z
x,y,-z
-x,y,z
x,-y,z
1/2+x,1/2+y,z
1/2-x,1/2-y,z
1/2+x,1/2-y,-z
1/2-x,1/2+y,-z
1/2-x,1/2-y,-z
1/2+x,1/2+y,-z
1/2-x,1/2+y,z
1/2+x,1/2-y,z
loop_
_atom_site_type_symbol
_atom_site_label
_atom_site_fract_x
_atom_site_fract_y
_atom_site_fract_z
Si Si1 0.825049 0.367604 0.416334
Si Si2 0.674384 0.054132 0.852489
Si Si3 0.830891 0.893475 0.279152
Si Si4 0.668956 0.295879 0.670408
Si Si5 0.331964 0.444606 0.000000
O O1 0.790368 0.383109 0.500000
O O2 0.745256 0.403938 0.359493
O O3 0.757054 0.315756 0.401670
O O4 0.000000 0.366717 0.400305
O O5 0.500000 0.062667 0.859277
O O6 0.736769 0.082270 0.783793
O O7 0.712902 0.000000 0.840709
O O8 0.749289 0.073943 0.926991
O O9 0.828042 0.837030 0.267353
O O10 0.000000 0.912574 0.278822
O O11 0.500000 0.283656 0.648140
O O12 0.750000 0.250000 0.701716
O O13 0.327678 0.500000 0.000000
O O14 0.500000 0.425399 0.000000
#
# Coordination Sequence:
#
# PCOD8268007 Si02
#       5
#    16  16  16  16   8
#     4   9  17  29  45  64  89 120 153 192 235 275
#     4  10  19  31  49  72  97 123 151 184 224 271
#     4   9  19  31  45  66  91 122 156 188 228 274
#     4   9  18  29  44  65  90 120 154 191 231 274
#     4   9  17  29  47  71  98 123 146 179 223 269
#
# _framework density 15.458342999999999
#
# number of rings (size 3 to 8) (size 9 to 14) (size 15 to 20)
#    1.333    1.444    0.000    2.333    0.000    4.889 
#    0.000    0.000    0.000    0.667    0.000    5.444 
#    0.000    0.000    0.000    0.000    0.000    0.000 
#
# Total GULP energy -445997.769159 kJ/mol
# GULP energy per Si atom -12388.826921 kJ/mol
# Density = 1.542316 g / cm^3
# Si number density = 15.458343 Si / 1000 Ang^3
#
#
#
# Elastic Constant Matrix: (Units=GPa)
#
#
# Indices 1 2 3 4 5 6 
#
# 1 101.3760 30.6092 58.8005 0.0000 0.0000 0.0000
# 2 30.6092 31.9388 46.0637 0.0000 0.0000 0.0000
# 3 58.8005 46.0637 114.2934 0.0000 0.0000 0.0000
# 4 0.0000 0.0000 0.0000 824.3088 0.0000 0.0000
# 5 0.0000 0.0000 0.0000 0.0000 29.4268 0.0000
# 6 0.0000 0.0000 0.0000 0.0000 0.0000 23.7816
#
#
#
# Elastic Compliance Matrix: (Units=1/GPa)
#
#
# Indices 1 2 3 4 5 6 
#
# 1 0.014803 -0.007649 -0.004533 0.000000 0.000000 0.000000
# 2 -0.007649 0.078726 -0.027794 0.000000 0.000000 0.000000
# 3 -0.004533 -0.027794 0.022283 0.000000 0.000000 0.000000
# 4 0.000000 0.000000 0.000000 0.001213 0.000000 0.000000
# 5 0.000000 0.000000 0.000000 0.000000 0.033983 0.000000
# 6 0.000000 0.000000 0.000000 0.000000 0.000000 0.042049
#
#
# Mechanical properties :
#
#
# Convention : Reuss Voigt Hill
#
# Bulk Modulus (GPa) = 27.88575 57.61722 42.75148
# Shear Modulus (GPa) = 17.54619 182.97910 100.26264
#
# Velocity S-wave (km/s) = 3.37272 10.89156 8.06230
# Velocity P-wave (km/s) = 5.76589 13.98291 10.69502
#
# Compressibility (1/GPa) = 0.03586062
#
# Stress axis : x y z
#
# Youngs Moduli (GPa) = 67.55379 12.70227 44.87724
#
# Poissons Ratio (x) = 0.09717 0.20342
# Poissons Ratio (y) = 0.51675 1.24730
# Poissons Ratio (z) = 0.30621 0.35304
#
# Static dielectric constant tensor:
#      x y z
#    x 3.122230 0.000000 0.000000 
#    y 0.000000 2.630180 0.000000 
#    z 0.000000 0.000000 2.821300 
# 
# 
# High freq. dielectric constant tensor:
#      x y z
#    x 1.618730 0.000000 0.000000 
#    y 0.000000 1.551240 0.000000 
#    z 0.000000 0.000000 1.575920 
# 
# From -- ./inp_files/60008.got.cif
#   From: 2010.03.12/outbox.cif.g09.slc.cpg/sg65_31_cif.got.tgz:60008.got - 2010.04.10 20:52:16.
