data_PCOD8268561
_publ_section_title
;
Structure prediction by ZEFSAII (Michael W. Deem and Ramdas Pophale) SiO2 
 PCOD8268561
Probable space group: C M M M
;
_chemical_formula_sum "Si O2"
_cell_formula_units_Z 120
_cell_length_a 9.209204
_cell_length_b 27.548032
_cell_length_c 26.147837
_cell_angle_alpha 90.000000
_cell_angle_beta 90.000000
_cell_angle_gamma 90.000000
_cell_volume 6633.587182
_symmetry_space_group_name_H-M "C M M M"
_symmetry_group_IT_number 65
_symmetry_cell_setting 'orthorhombic'
loop_
_space_group_symop_operation_xyz
x,y,z
-x,-y,z
x,-y,-z
-x,y,-z
-x,-y,-z
x,y,-z
-x,y,z
x,-y,z
1/2+x,1/2+y,z
1/2-x,1/2-y,z
1/2+x,1/2-y,-z
1/2-x,1/2+y,-z
1/2-x,1/2-y,-z
1/2+x,1/2+y,-z
1/2-x,1/2+y,z
1/2+x,1/2-y,z
loop_
_atom_site_type_symbol
_atom_site_label
_atom_site_fract_x
_atom_site_fract_y
_atom_site_fract_z
Si Si1 0.831393 0.359232 0.899891
Si Si2 0.829355 0.300887 0.201538
Si Si3 0.671784 0.801585 0.000000
Si Si4 0.169314 0.055469 0.148401
Si Si5 0.668727 0.610146 0.442363
Si Si6 0.661309 0.794766 0.560588
Si Si7 0.829875 0.886412 0.249923
Si Si8 0.328801 0.447070 0.655148
O O1 0.795996 0.322086 0.854379
O O2 0.748680 0.410294 0.892899
O O3 0.000000 0.372212 0.902358
O O4 0.778181 0.332737 0.951141
O O5 0.750000 0.250000 0.207260
O O6 0.762406 0.337588 0.242966
O O7 0.000000 0.294395 0.211443
O O8 0.750000 0.750000 0.000000
O O9 0.500000 0.792019 0.000000
O O10 0.202104 0.074727 0.205330
O O11 0.000000 0.057804 0.136067
O O12 0.226252 0.000000 0.144044
O O13 0.710386 0.593500 0.500000
O O14 0.500000 0.624188 0.439462
O O15 0.757915 0.656425 0.424022
O O16 0.710005 0.567980 0.402841
O O17 0.653566 0.789195 0.500000
O O18 0.500000 0.795177 0.584177
O O19 0.750000 0.750000 0.584671
O O20 0.770602 0.909468 0.302712
O O21 0.000000 0.873018 0.251862
O O22 0.500000 0.450459 0.662438
O O23 0.258542 0.500000 0.664185
#
# Coordination Sequence:
#
# PCOD8268561 Si02
#       8
#    16  16   8  16  16  16  16  16
#     4   9  19  33  49  72 101 132 166 203 241 286
#     4  10  19  32  51  75 102 130 161 197 240 288
#     4  10  20  34  51  72  99 131 168 205 243 288
#     4   9  17  30  50  74  97 124 162 206 248 289
#     4   9  17  29  46  70  99 127 156 191 230 276
#     4   9  16  27  45  67  90 117 150 187 226 268
#     4   9  17  31  51  73  97 125 159 199 241 286
#     4   9  17  30  50  74  97 123 157 196 237 281
#
# _framework density 18.089760999999999
#
# number of rings (size 3 to 8) (size 9 to 14) (size 15 to 20)
#    0.000    2.800    0.000    1.600    0.000    4.800 
#    0.000    3.000    0.000    4.400    0.000    1.867 
#    0.000    0.000    0.000    0.000    0.000    0.000 
#
# Total GULP energy -743912.837237 kJ/mol
# GULP energy per Si atom -12398.547287 kJ/mol
# Density = 1.804859 g / cm^3
# Si number density = 18.089761 Si / 1000 Ang^3
#
#
#
# Elastic Constant Matrix: (Units=GPa)
#
#
# Indices 1 2 3 4 5 6 
#
# 1 64.5601 62.8723 34.6883 0.0000 0.0000 0.0000
# 2 62.8723 167.2235 69.6501 0.0000 0.0000 0.0000
# 3 34.6883 69.6501 103.9435 0.0000 0.0000 0.0000
# 4 0.0000 0.0000 0.0000 20.5961 0.0000 0.0000
# 5 0.0000 0.0000 0.0000 0.0000 16.2065 0.0000
# 6 0.0000 0.0000 0.0000 0.0000 0.0000 28.9340
#
#
#
# Elastic Compliance Matrix: (Units=1/GPa)
#
#
# Indices 1 2 3 4 5 6 
#
# 1 0.025027 -0.008227 -0.002839 0.000000 0.000000 0.000000
# 2 -0.008227 0.011000 -0.004625 0.000000 0.000000 0.000000
# 3 -0.002839 -0.004625 0.013667 0.000000 0.000000 0.000000
# 4 0.000000 0.000000 0.000000 0.048553 0.000000 0.000000
# 5 0.000000 0.000000 0.000000 0.000000 0.061704 0.000000
# 6 0.000000 0.000000 0.000000 0.000000 0.000000 0.034561
#
#
# Mechanical properties :
#
#
# Convention : Reuss Voigt Hill
#
# Bulk Modulus (GPa) = 54.61175 74.46095 64.53635
# Shear Modulus (GPa) = 21.55193 24.38176 22.96684
#
# Velocity S-wave (km/s) = 3.45539 3.67525 3.56702
# Velocity P-wave (km/s) = 6.79518 7.69813 7.26071
#
# Compressibility (1/GPa) = 0.01831108
#
# Stress axis : x y z
#
# Youngs Moduli (GPa) = 39.95707 90.91311 73.16743
#
# Poissons Ratio (x) = 0.74793 0.20775
# Poissons Ratio (y) = 0.32872 0.33840
# Poissons Ratio (z) = 0.11345 0.42047
#
# Static dielectric constant tensor:
#      x y z
#    x 3.256890 0.000000 0.000000 
#    y 0.000000 3.418750 0.000000 
#    z 0.000000 0.000000 3.282770 
# 
# 
# High freq. dielectric constant tensor:
#      x y z
#    x 1.684650 0.000000 0.000000 
#    y 0.000000 1.705780 0.000000 
#    z 0.000000 0.000000 1.684700 
# 
# From -- ./inp_files/73946.got.cif
#   From: 2010.03.12/outbox.cif.g09.slc.cpg/sg65_37_cif.got.tgz:73946.got - 2010.04.10 20:52:16.
