data_PCOD8268362
_publ_section_title
;
Structure prediction by ZEFSAII (Michael W. Deem and Ramdas Pophale) SiO2 
 PCOD8268362
Probable space group: C M M M
;
_chemical_formula_sum "Si O2"
_cell_formula_units_Z 128
_cell_length_a 18.947817
_cell_length_b 19.447419
_cell_length_c 20.306998
_cell_angle_alpha 90.000000
_cell_angle_beta 90.000000
_cell_angle_gamma 90.000000
_cell_volume 7482.847234
_symmetry_space_group_name_H-M "C M M M"
_symmetry_group_IT_number 65
_symmetry_cell_setting 'orthorhombic'
loop_
_space_group_symop_operation_xyz
x,y,z
-x,-y,z
x,-y,-z
-x,y,-z
-x,-y,-z
x,y,-z
-x,y,z
x,-y,z
1/2+x,1/2+y,z
1/2-x,1/2-y,z
1/2+x,1/2-y,-z
1/2-x,1/2+y,-z
1/2-x,1/2-y,-z
1/2+x,1/2+y,-z
1/2-x,1/2+y,z
1/2+x,1/2-y,z
loop_
_atom_site_type_symbol
_atom_site_label
_atom_site_fract_x
_atom_site_fract_y
_atom_site_fract_z
Si Si1 0.640193 0.578219 0.071647
Si Si2 0.420206 0.846446 0.925944
Si Si3 0.288750 0.077399 0.123032
Si Si4 0.579350 0.377861 0.203208
Si Si5 0.280838 0.826659 0.244828
Si Si6 0.078537 0.918403 0.426600
Si Si7 0.422411 0.779185 0.208676
Si Si8 0.819869 0.078331 0.687251
O O1 0.616239 0.500000 0.083092
O O2 0.725283 0.583006 0.071262
O O3 0.602220 0.622525 0.127287
O O4 0.614728 0.604623 0.000000
O O5 0.500000 0.876833 0.920692
O O6 0.363157 0.905951 0.911860
O O7 0.409281 0.787801 0.870233
O O8 0.408028 0.816460 0.000000
O O9 0.265198 0.130118 0.179565
O O10 0.294380 0.000000 0.152190
O O11 0.500000 0.406390 0.210856
O O12 0.584693 0.299950 0.227855
O O13 0.631343 0.423223 0.247641
O O14 0.250000 0.750000 0.237912
O O15 0.365736 0.821461 0.252222
O O16 0.246358 0.869532 0.304965
O O17 0.100422 0.893832 0.500000
O O18 0.135343 0.891388 0.374019
O O19 0.000000 0.890159 0.409315
O O20 0.076487 0.000000 0.423462
O O21 0.500000 0.807251 0.227593
O O22 0.793660 0.000000 0.674768
#
# Coordination Sequence:
#
# PCOD8268362 Si02
#       8
#    16  16  16  16  16  16  16  16
#     4  10  20  32  43  59  88 124 158 195 244 298
#     4   9  18  31  47  67  89 114 153 208 267 320
#     4  10  19  32  49  67  90 120 158 207 258 309
#     4  11  21  33  49  69  94 127 166 206 245 293
#     4  11  19  33  52  72  98 132 166 205 250 298
#     4   8  15  29  49  77 115 149 170 194 236 292
#     4   9  19  34  49  67  93 127 166 207 253 302
#     4  11  20  31  52  81 106 131 165 207 246 285
#
# _framework density 17.105788
#
# number of rings (size 3 to 8) (size 9 to 14) (size 15 to 20)
#    0.000    2.125    2.500    1.875    0.000    3.250 
#    0.000    2.500    0.000    5.625    0.000    0.000 
#    0.000    0.500    0.000    3.125    0.000    0.000 
#
# Total GULP energy -793133.745884 kJ/mol
# GULP energy per Si atom -12392.714779 kJ/mol
# Density = 1.706685 g / cm^3
# Si number density = 17.105788 Si / 1000 Ang^3
#
#
#
# Elastic Constant Matrix: (Units=GPa)
#
#
# Indices 1 2 3 4 5 6 
#
# 1 100.2372 31.3159 40.6903 0.0000 0.0000 0.0000
# 2 31.3159 64.7070 19.4354 0.0000 0.0000 0.0000
# 3 40.6903 19.4354 80.7158 0.0000 0.0000 0.0000
# 4 0.0000 0.0000 0.0000 9.4202 0.0000 0.0000
# 5 0.0000 0.0000 0.0000 0.0000 26.4405 0.0000
# 6 0.0000 0.0000 0.0000 0.0000 0.0000 20.2451
#
#
#
# Elastic Compliance Matrix: (Units=1/GPa)
#
#
# Indices 1 2 3 4 5 6 
#
# 1 0.013887 -0.004978 -0.005802 0.000000 0.000000 0.000000
# 2 -0.004978 0.018444 -0.001931 0.000000 0.000000 0.000000
# 3 -0.005802 -0.001931 0.015779 0.000000 0.000000 0.000000
# 4 0.000000 0.000000 0.000000 0.106155 0.000000 0.000000
# 5 0.000000 0.000000 0.000000 0.000000 0.037821 0.000000
# 6 0.000000 0.000000 0.000000 0.000000 0.000000 0.049395
#
#
# Mechanical properties :
#
#
# Convention : Reuss Voigt Hill
#
# Bulk Modulus (GPa) = 44.07892 47.61592 45.84742
# Shear Modulus (GPa) = 18.21728 21.50240 19.85984
#
# Velocity S-wave (km/s) = 3.26694 3.54930 3.41104
# Velocity P-wave (km/s) = 6.32889 6.68530 6.50954
#
# Compressibility (1/GPa) = 0.02268658
#
# Stress axis : x y z
#
# Youngs Moduli (GPa) = 72.01082 54.21931 63.37502
#
# Poissons Ratio (x) = 0.26991 0.36770
# Poissons Ratio (y) = 0.35847 0.12241
# Poissons Ratio (z) = 0.41780 0.10472
#
# Static dielectric constant tensor:
#      x y z
#    x 3.485680 0.000000 0.000000 
#    y 0.000000 3.004010 0.000000 
#    z 0.000000 0.000000 3.095820 
# 
# 
# High freq. dielectric constant tensor:
#      x y z
#    x 1.668800 0.000000 0.000000 
#    y 0.000000 1.635910 0.000000 
#    z 0.000000 0.000000 1.625990 
# 
# From -- ./inp_files/64103.got.cif
#   From: 2010.03.12/outbox.cif.g09.slc.cpg/sg65_33_cif.got.tgz:64103.got - 2010.04.10 20:52:16.
