data_PCOD8268079
_publ_section_title
;
Structure prediction by ZEFSAII (Michael W. Deem and Ramdas Pophale) SiO2 
 PCOD8268079
Probable space group: C M M M
;
_chemical_formula_sum "Si O2"
_cell_formula_units_Z 104
_cell_length_a 8.062069
_cell_length_b 28.556958
_cell_length_c 24.272382
_cell_angle_alpha 90.000000
_cell_angle_beta 90.000000
_cell_angle_gamma 90.000000
_cell_volume 5588.185988
_symmetry_space_group_name_H-M "C M M M"
_symmetry_group_IT_number 65
_symmetry_cell_setting 'orthorhombic'
loop_
_space_group_symop_operation_xyz
x,y,z
-x,-y,z
x,-y,-z
-x,y,-z
-x,-y,-z
x,y,-z
-x,y,z
x,-y,z
1/2+x,1/2+y,z
1/2-x,1/2-y,z
1/2+x,1/2-y,-z
1/2-x,1/2+y,-z
1/2-x,1/2-y,-z
1/2+x,1/2+y,-z
1/2-x,1/2+y,z
1/2+x,1/2-y,z
loop_
_atom_site_type_symbol
_atom_site_label
_atom_site_fract_x
_atom_site_fract_y
_atom_site_fract_z
Si Si1 0.695582 0.948115 0.561122
Si Si2 0.195041 0.893622 0.664547
Si Si3 0.189606 0.397777 0.877453
Si Si4 0.805220 0.946138 0.771532
Si Si5 0.689619 0.699956 0.287578
Si Si6 0.308619 0.201018 0.165762
Si Si7 0.500000 0.446217 0.934904
O O1 0.760037 0.934166 0.500000
O O2 0.500000 0.949874 0.561036
O O3 0.753899 0.909429 0.604048
O O4 0.764565 0.000000 0.576638
O O5 0.253492 0.930748 0.710762
O O6 0.275984 0.842909 0.679112
O O7 0.000000 0.890275 0.667355
O O8 0.200572 0.416886 0.815546
O O9 0.224865 0.341820 0.876140
O O10 0.330057 0.421787 0.914937
O O11 0.000000 0.407146 0.899242
O O12 0.000000 0.936697 0.781808
O O13 0.760063 0.000000 0.779051
O O14 0.500000 0.697314 0.302107
O O15 0.750000 0.750000 0.309157
O O16 0.711100 0.693139 0.222394
O O17 0.500000 0.204493 0.181749
O O18 0.250000 0.250000 0.137806
O O19 0.500000 0.500000 0.913544
O O20 0.500000 0.444006 0.000000
#
# Coordination Sequence:
#
# PCOD8268079 Si02
#       7
#    16  16  16  16  16  16   8
#     4   9  19  35  52  71  99 137 180 227 278 332
#     4  10  20  32  50  76 106 141 180 224 278 333
#     4  11  23  38  61  92 121 155 198 244 295 352
#     4  10  19  32  51  77 115 154 182 221 285 347
#     4  10  19  31  49  74 110 146 178 220 273 336
#     4  10  20  32  54  87 117 152 192 232 287 351
#     4  11  26  46  68  90 118 164 207 245 296 340
#
# _framework density 18.610690999999999
#
# number of rings (size 3 to 8) (size 9 to 14) (size 15 to 20)
#    0.000    1.923    2.308    3.231    2.154    4.615 
#    0.000    1.538    0.000    0.923    0.000    0.000 
#    0.000    0.000    0.000    0.000    0.000    0.000 
#
# Total GULP energy -644554.494263 kJ/mol
# GULP energy per Si atom -12395.278736 kJ/mol
# Density = 1.856833 g / cm^3
# Si number density = 18.610691 Si / 1000 Ang^3
#
#
#
# Elastic Constant Matrix: (Units=GPa)
#
#
# Indices 1 2 3 4 5 6 
#
# 1 61.9179 50.5676 25.9289 0.0000 0.0000 0.0000
# 2 50.5676 146.4727 47.8106 0.0000 0.0000 0.0000
# 3 25.9289 47.8106 73.8032 0.0000 0.0000 0.0000
# 4 0.0000 0.0000 0.0000 21.9146 0.0000 0.0000
# 5 0.0000 0.0000 0.0000 0.0000 19.2271 0.0000
# 6 0.0000 0.0000 0.0000 0.0000 0.0000 26.2578
#
#
#
# Elastic Compliance Matrix: (Units=1/GPa)
#
#
# Indices 1 2 3 4 5 6 
#
# 1 0.023291 -0.006810 -0.003771 0.000000 0.000000 0.000000
# 2 -0.006810 0.010649 -0.004506 0.000000 0.000000 0.000000
# 3 -0.003771 -0.004506 0.017794 0.000000 0.000000 0.000000
# 4 0.000000 0.000000 0.000000 0.045632 0.000000 0.000000
# 5 0.000000 0.000000 0.000000 0.000000 0.052010 0.000000
# 6 0.000000 0.000000 0.000000 0.000000 0.000000 0.038084
#
#
# Mechanical properties :
#
#
# Convention : Reuss Voigt Hill
#
# Bulk Modulus (GPa) = 46.38359 58.97869 52.68114
# Shear Modulus (GPa) = 22.23995 24.00568 23.12281
#
# Velocity S-wave (km/s) = 3.46064 3.59540 3.52866
# Velocity P-wave (km/s) = 6.39885 6.99967 6.70599
#
# Compressibility (1/GPa) = 0.02155935
#
# Stress axis : x y z
#
# Youngs Moduli (GPa) = 42.93448 93.90446 56.20009
#
# Poissons Ratio (x) = 0.63949 0.21194
# Poissons Ratio (y) = 0.29238 0.25324
# Poissons Ratio (z) = 0.16191 0.42314
#
# Static dielectric constant tensor:
#      x y z
#    x 3.369450 0.000000 0.000000 
#    y 0.000000 3.057880 0.000000 
#    z 0.000000 0.000000 4.621500 
# 
# 
# High freq. dielectric constant tensor:
#      x y z
#    x 1.722390 0.000000 0.000000 
#    y 0.000000 1.736520 0.000000 
#    z 0.000000 0.000000 1.685760 
# 
# From -- ./inp_files/68486.got.cif
#   From: 2010.03.12/outbox.cif.g09.slc.cpg/sg65_35_cif.got.tgz:68486.got - 2010.04.10 20:52:16.
