data_PCOD8268472
_publ_section_title
;
Structure prediction by ZEFSAII (Michael W. Deem and Ramdas Pophale) SiO2 
 PCOD8268472
Probable space group: C M M M
;
_chemical_formula_sum "Si O2"
_cell_formula_units_Z 104
_cell_length_a 8.763124
_cell_length_b 28.593003
_cell_length_c 23.390654
_cell_angle_alpha 90.000000
_cell_angle_beta 90.000000
_cell_angle_gamma 90.000000
_cell_volume 5860.856550
_symmetry_space_group_name_H-M "C M M M"
_symmetry_group_IT_number 65
_symmetry_cell_setting 'orthorhombic'
loop_
_space_group_symop_operation_xyz
x,y,z
-x,-y,z
x,-y,-z
-x,y,-z
-x,-y,-z
x,y,-z
-x,y,z
x,-y,z
1/2+x,1/2+y,z
1/2-x,1/2-y,z
1/2+x,1/2-y,-z
1/2-x,1/2+y,-z
1/2-x,1/2-y,-z
1/2+x,1/2+y,-z
1/2-x,1/2+y,z
1/2+x,1/2-y,z
loop_
_atom_site_type_symbol
_atom_site_label
_atom_site_fract_x
_atom_site_fract_y
_atom_site_fract_z
Si Si1 0.679916 0.699055 0.164582
Si Si2 0.174677 0.357366 0.935566
Si Si3 0.679973 0.301379 0.623833
Si Si4 0.823276 0.200359 0.500000
Si Si5 0.177104 0.052805 0.102071
Si Si6 0.823112 0.647401 0.272200
Si Si7 0.826582 0.551682 0.779054
O O1 0.500000 0.702963 0.171051
O O2 0.750000 0.750000 0.161296
O O3 0.718719 0.672012 0.106392
O O4 0.745354 0.672256 0.218837
O O5 0.223572 0.411696 0.935341
O O6 0.000000 0.352822 0.915100
O O7 0.193890 0.338152 0.000000
O O8 0.500000 0.297204 0.633342
O O9 0.750000 0.250000 0.632312
O O10 0.721089 0.323634 0.560736
O O11 0.748572 0.337082 0.668893
O O12 0.750000 0.250000 0.500000
O O13 0.000000 0.209953 0.500000
O O14 0.212444 0.060413 0.168784
O O15 0.000000 0.063389 0.091867
O O16 0.218830 0.000000 0.083270
O O17 0.797354 0.591406 0.268355
O O18 0.000000 0.661095 0.272143
O O19 0.798408 0.500000 0.752103
O O20 0.000000 0.555744 0.802393
#
# Coordination Sequence:
#
# PCOD8268472 Si02
#       7
#    16  16  16   8  16  16  16
#     4  12  25  41  60  79 104 136 173 217 265 313
#     4  11  24  41  59  79 104 136 175 216 262 319
#     4  10  19  32  50  75 108 144 183 220 262 307
#     4   8  16  30  48  70 101 142 181 221 260 305
#     4  10  20  34  55  82 109 136 169 212 262 315
#     4  11  21  34  54  81 111 139 174 215 261 313
#     4   9  18  33  54  77 104 138 172 210 259 315
#
# _framework density 17.744845999999999
#
# number of rings (size 3 to 8) (size 9 to 14) (size 15 to 20)
#    0.000    1.692    1.538    3.692    0.000    4.000 
#    0.000    1.538    0.000    0.000    0.000    0.538 
#    0.000    4.308    0.000    0.000    0.000    0.000 
#
# Total GULP energy -644632.863926 kJ/mol
# GULP energy per Si atom -12396.785845 kJ/mol
# Density = 1.770446 g / cm^3
# Si number density = 17.744846 Si / 1000 Ang^3
#
#
#
# Elastic Constant Matrix: (Units=GPa)
#
#
# Indices 1 2 3 4 5 6 
#
# 1 87.6555 32.5128 45.7721 0.0000 0.0000 0.0000
# 2 32.5128 94.6717 51.6935 0.0000 0.0000 0.0000
# 3 45.7721 51.6935 121.2459 0.0000 0.0000 0.0000
# 4 0.0000 0.0000 0.0000 21.1026 0.0000 0.0000
# 5 0.0000 0.0000 0.0000 0.0000 26.1594 0.0000
# 6 0.0000 0.0000 0.0000 0.0000 0.0000 15.0912
#
#
#
# Elastic Compliance Matrix: (Units=1/GPa)
#
#
# Indices 1 2 3 4 5 6 
#
# 1 0.014695 -0.002630 -0.004426 0.000000 0.000000 0.000000
# 2 -0.002630 0.014239 -0.005078 0.000000 0.000000 0.000000
# 3 -0.004426 -0.005078 0.012084 0.000000 0.000000 0.000000
# 4 0.000000 0.000000 0.000000 0.047388 0.000000 0.000000
# 5 0.000000 0.000000 0.000000 0.000000 0.038227 0.000000
# 6 0.000000 0.000000 0.000000 0.000000 0.000000 0.066264
#
#
# Mechanical properties :
#
#
# Convention : Reuss Voigt Hill
#
# Bulk Modulus (GPa) = 59.70395 62.61445 61.15920
# Shear Modulus (GPa) = 22.44696 24.04361 23.24529
#
# Velocity S-wave (km/s) = 3.56052 3.68498 3.62328
# Velocity P-wave (km/s) = 7.11491 7.31218 7.21422
#
# Compressibility (1/GPa) = 0.01674931
#
# Stress axis : x y z
#
# Youngs Moduli (GPa) = 68.04991 70.23146 82.75595
#
# Poissons Ratio (x) = 0.18469 0.36631
# Poissons Ratio (y) = 0.17895 0.42023
# Poissons Ratio (z) = 0.30122 0.35663
#
# Static dielectric constant tensor:
#      x y z
#    x 3.443150 0.000000 0.000000 
#    y 0.000000 3.398360 0.000000 
#    z 0.000000 0.000000 3.717730 
# 
# 
# High freq. dielectric constant tensor:
#      x y z
#    x 1.702440 0.000000 0.000000 
#    y 0.000000 1.676410 0.000000 
#    z 0.000000 0.000000 1.674250 
# 
# From -- ./inp_files/60404.got.cif
#   From: 2010.03.12/outbox.cif.g09.slc.cpg/sg65_31_cif.got.tgz:60404.got - 2010.04.10 20:52:16.
