data_PCOD8268887
_publ_section_title
;
Structure prediction by ZEFSAII (Michael W. Deem and Ramdas Pophale) SiO2 
 PCOD8268887
Probable space group: C M M M
;
_chemical_formula_sum "Si O2"
_cell_formula_units_Z 88
_cell_length_a 16.106386
_cell_length_b 20.288258
_cell_length_c 15.350089
_cell_angle_alpha 90.000000
_cell_angle_beta 90.000000
_cell_angle_gamma 90.000000
_cell_volume 5015.956482
_symmetry_space_group_name_H-M "C M M M"
_symmetry_group_IT_number 65
_symmetry_cell_setting 'orthorhombic'
loop_
_space_group_symop_operation_xyz
x,y,z
-x,-y,z
x,-y,-z
-x,y,-z
-x,-y,-z
x,y,-z
-x,y,z
x,-y,z
1/2+x,1/2+y,z
1/2-x,1/2-y,z
1/2+x,1/2-y,-z
1/2-x,1/2+y,-z
1/2-x,1/2-y,-z
1/2+x,1/2+y,-z
1/2-x,1/2+y,z
1/2+x,1/2-y,z
loop_
_atom_site_type_symbol
_atom_site_label
_atom_site_fract_x
_atom_site_fract_y
_atom_site_fract_z
Si Si1 0.667829 0.126033 0.325744
Si Si2 0.000000 0.205213 0.897310
Si Si3 0.092865 0.157700 0.500000
Si Si4 0.653646 0.244243 0.207067
Si Si5 0.351795 0.627806 0.314775
Si Si6 0.166899 0.290665 0.500000
Si Si7 0.500000 0.574163 0.791678
Si Si8 0.095043 0.500000 0.597282
O O1 0.634406 0.172231 0.247335
O O2 0.759420 0.101662 0.297415
O O3 0.664971 0.165471 0.415082
O O4 0.613470 0.061927 0.341002
O O5 0.084605 0.241910 0.866782
O O6 0.000000 0.128824 0.867438
O O7 0.000000 0.206469 0.000000
O O8 0.137398 0.126019 0.582339
O O9 0.092653 0.237528 0.500000
O O10 0.000000 0.132532 0.500000
O O11 0.750000 0.250000 0.172492
O O12 0.639557 0.296709 0.283919
O O13 0.418116 0.581663 0.267217
O O14 0.250000 0.250000 0.500000
O O15 0.500000 0.500000 0.831289
O O16 0.139460 0.500000 0.500000
O O17 0.000000 0.500000 0.575543
#
# Coordination Sequence:
#
# PCOD8268887 Si02
#       8
#    16   8   8  16  16   8   8   8
#     4  11  20  35  54  73 108 151 190 231 270 312
#     4  10  22  39  63  92 111 129 168 219 286 352
#     4  12  20  28  46  79 109 145 187 235 270 302
#     4   9  19  35  59  85 110 139 178 229 278 327
#     4  10  19  33  51  79 108 145 193 227 262 307
#     4  12  18  29  51  75 102 145 190 230 276 307
#     4  10  22  38  54  78 118 145 172 211 261 330
#     4  11  26  38  44  71 111 153 200 234 266 310
#
# _framework density 17.544011000000001
#
# number of rings (size 3 to 8) (size 9 to 14) (size 15 to 20)
#    0.000    1.545    5.455    0.545    2.545    1.273 
#    0.000    0.909    0.000    0.000    0.000    1.273 
#    0.000    0.000    0.000    0.000    0.000    0.000 
#
# Total GULP energy -545355.570381 kJ/mol
# GULP energy per Si atom -12394.444781 kJ/mol
# Density = 1.750408 g / cm^3
# Si number density = 17.544011 Si / 1000 Ang^3
#
#
#
# Elastic Constant Matrix: (Units=GPa)
#
#
# Indices 1 2 3 4 5 6 
#
# 1 94.4911 42.7243 46.1524 0.0000 0.0000 0.0000
# 2 42.7243 109.6578 40.2771 0.0000 0.0000 0.0000
# 3 46.1524 40.2771 109.0884 0.0000 0.0000 0.0000
# 4 0.0000 0.0000 0.0000 13.5338 0.0000 0.0000
# 5 0.0000 0.0000 0.0000 0.0000 18.8877 0.0000
# 6 0.0000 0.0000 0.0000 0.0000 0.0000 23.3296
#
#
#
# Elastic Compliance Matrix: (Units=1/GPa)
#
#
# Indices 1 2 3 4 5 6 
#
# 1 0.014705 -0.003984 -0.004750 0.000000 0.000000 0.000000
# 2 -0.003984 0.011630 -0.002608 0.000000 0.000000 0.000000
# 3 -0.004750 -0.002608 0.012139 0.000000 0.000000 0.000000
# 4 0.000000 0.000000 0.000000 0.073889 0.000000 0.000000
# 5 0.000000 0.000000 0.000000 0.000000 0.052945 0.000000
# 6 0.000000 0.000000 0.000000 0.000000 0.000000 0.042864
#
#
# Mechanical properties :
#
#
# Convention : Reuss Voigt Hill
#
# Bulk Modulus (GPa) = 63.33717 63.50498 63.42108
# Shear Modulus (GPa) = 21.17574 23.42246 22.29910
#
# Velocity S-wave (km/s) = 3.47797 3.65782 3.56903
# Velocity P-wave (km/s) = 7.23247 7.35634 7.29467
#
# Compressibility (1/GPa) = 0.01578852
#
# Stress axis : x y z
#
# Youngs Moduli (GPa) = 68.00572 85.98717 82.37614
#
# Poissons Ratio (x) = 0.34261 0.39129
# Poissons Ratio (y) = 0.27097 0.21485
# Poissons Ratio (z) = 0.32303 0.22426
#
# Static dielectric constant tensor:
#      x y z
#    x 3.501880 0.000000 0.000000 
#    y 0.000000 2.735280 0.000000 
#    z 0.000000 0.000000 2.916070 
# 
# 
# High freq. dielectric constant tensor:
#      x y z
#    x 1.689460 0.000000 0.000000 
#    y 0.000000 1.667070 0.000000 
#    z 0.000000 0.000000 1.640970 
# 
# From -- ./inp_files/42608.got.cif
#   From: 2010.03.12/outbox.cif.g09.slc.cpg/sg65_22_cif.got.tgz:42608.got - 2010.04.10 20:52:16.
