data_PCOD8268594
_publ_section_title
;
Structure prediction by ZEFSAII (Michael W. Deem and Ramdas Pophale) SiO2 
 PCOD8268594
Probable space group: C M M M
;
_chemical_formula_sum "Si O2"
_cell_formula_units_Z 120
_cell_length_a 9.317382
_cell_length_b 26.061093
_cell_length_c 27.528770
_cell_angle_alpha 90.000000
_cell_angle_beta 90.000000
_cell_angle_gamma 90.000000
_cell_volume 6684.567832
_symmetry_space_group_name_H-M "C M M M"
_symmetry_group_IT_number 65
_symmetry_cell_setting 'orthorhombic'
loop_
_space_group_symop_operation_xyz
x,y,z
-x,-y,z
x,-y,-z
-x,y,-z
-x,-y,-z
x,y,-z
-x,y,z
x,-y,z
1/2+x,1/2+y,z
1/2-x,1/2-y,z
1/2+x,1/2-y,-z
1/2-x,1/2+y,-z
1/2-x,1/2-y,-z
1/2+x,1/2+y,-z
1/2-x,1/2+y,z
1/2+x,1/2-y,z
loop_
_atom_site_type_symbol
_atom_site_label
_atom_site_fract_x
_atom_site_fract_y
_atom_site_fract_z
Si Si1 0.663438 0.056046 0.897019
Si Si2 0.668960 0.559550 0.296135
Si Si3 0.667266 0.159292 0.055106
Si Si4 0.670366 0.000000 0.554054
Si Si5 0.166032 0.094742 0.190568
Si Si6 0.832266 0.798325 0.143834
Si Si7 0.670041 0.901791 0.386270
Si Si8 0.667505 0.199407 0.555935
O O1 0.500000 0.062980 0.880570
O O2 0.703940 0.099193 0.936400
O O3 0.754664 0.059647 0.848172
O O4 0.690143 0.000000 0.920714
O O5 0.500000 0.567303 0.303463
O O6 0.712457 0.500000 0.301598
O O7 0.720422 0.580398 0.244016
O O8 0.752459 0.594449 0.334658
O O9 0.500000 0.170689 0.065638
O O10 0.765621 0.192735 0.090458
O O11 0.707936 0.173184 0.000000
O O12 0.725294 0.050828 0.581149
O O13 0.500000 0.000000 0.551438
O O14 0.735954 0.000000 0.500000
O O15 0.196968 0.154471 0.179849
O O16 0.000000 0.081433 0.185278
O O17 0.750000 0.750000 0.167418
O O18 0.000000 0.786697 0.137837
O O19 0.500000 0.904286 0.378569
O O20 0.716831 0.849006 0.412044
O O21 0.705581 0.187106 0.500000
O O22 0.500000 0.210096 0.562362
O O23 0.750000 0.250000 0.574257
#
# Coordination Sequence:
#
# PCOD8268594 Si02
#       8
#    16  16  16   8  16  16  16  16
#     4   9  17  29  47  73 101 128 162 204 245 286
#     4  10  20  34  52  74 104 138 167 199 247 304
#     4   9  18  32  49  71 101 134 165 197 239 294
#     4   9  16  28  49  75 103 135 169 209 254 299
#     4   9  19  35  53  72  94 128 168 203 244 298
#     4  10  20  35  55  75  96 123 161 208 253 297
#     4  10  19  32  51  77 105 134 172 213 253 302
#     4   9  18  33  53  76 101 133 174 215 254 298
#
# _framework density 17.951795000000001
#
# number of rings (size 3 to 8) (size 9 to 14) (size 15 to 20)
#    0.000    2.600    0.667    1.200    0.000    4.800 
#    0.000    2.000    0.000    4.800    0.000    3.733 
#    0.000    0.000    0.000    0.000    0.000    0.000 
#
# Total GULP energy -744002.667123 kJ/mol
# GULP energy per Si atom -12400.044452 kJ/mol
# Density = 1.791094 g / cm^3
# Si number density = 17.951795 Si / 1000 Ang^3
#
#
#
# Elastic Constant Matrix: (Units=GPa)
#
#
# Indices 1 2 3 4 5 6 
#
# 1 44.8629 33.6867 26.1813 0.0000 0.0000 0.0000
# 2 33.6867 108.8526 31.0027 0.0000 0.0000 0.0000
# 3 26.1813 31.0027 85.0525 0.0000 0.0000 0.0000
# 4 0.0000 0.0000 0.0000 19.5640 0.0000 0.0000
# 5 0.0000 0.0000 0.0000 0.0000 26.2414 0.0000
# 6 0.0000 0.0000 0.0000 0.0000 0.0000 27.5860
#
#
#
# Elastic Compliance Matrix: (Units=1/GPa)
#
#
# Indices 1 2 3 4 5 6 
#
# 1 0.032438 -0.008028 -0.007059 0.000000 0.000000 0.000000
# 2 -0.008028 0.012238 -0.001990 0.000000 0.000000 0.000000
# 3 -0.007059 -0.001990 0.014656 0.000000 0.000000 0.000000
# 4 0.000000 0.000000 0.000000 0.051114 0.000000 0.000000
# 5 0.000000 0.000000 0.000000 0.000000 0.038108 0.000000
# 6 0.000000 0.000000 0.000000 0.000000 0.000000 0.036250
#
#
# Mechanical properties :
#
#
# Convention : Reuss Voigt Hill
#
# Bulk Modulus (GPa) = 39.71702 46.72327 43.22014
# Shear Modulus (GPa) = 21.99261 24.53810 23.26535
#
# Velocity S-wave (km/s) = 3.50393 3.70116 3.60389
# Velocity P-wave (km/s) = 6.20825 6.65945 6.43780
#
# Compressibility (1/GPa) = 0.02517812
#
# Stress axis : x y z
#
# Youngs Moduli (GPa) = 30.82832 81.71366 68.23343
#
# Poissons Ratio (x) = 0.65600 0.48165
# Poissons Ratio (y) = 0.24749 0.13576
# Poissons Ratio (z) = 0.21761 0.16258
#
# Static dielectric constant tensor:
#      x y z
#    x 3.195080 0.000000 0.000000 
#    y 0.000000 3.482040 0.000000 
#    z 0.000000 0.000000 3.239910 
# 
# 
# High freq. dielectric constant tensor:
#      x y z
#    x 1.683500 0.000000 0.000000 
#    y 0.000000 1.703980 0.000000 
#    z 0.000000 0.000000 1.682890 
# 
# From -- ./inp_files/73969.got.cif
#   From: 2010.03.12/outbox.cif.g09.slc.cpg/sg65_37_cif.got.tgz:73969.got - 2010.04.10 20:52:16.
