data_PCOD8268997
_publ_section_title
;
Structure prediction by ZEFSAII (Michael W. Deem and Ramdas Pophale) SiO2 
 PCOD8268997
Probable space group: C M M M
;
_chemical_formula_sum "Si O2"
_cell_formula_units_Z 64
_cell_length_a 18.121658
_cell_length_b 7.755400
_cell_length_c 22.395309
_cell_angle_alpha 90.000000
_cell_angle_beta 90.000000
_cell_angle_gamma 90.000000
_cell_volume 3147.452548
_symmetry_space_group_name_H-M "C M M M"
_symmetry_group_IT_number 65
_symmetry_cell_setting 'orthorhombic'
loop_
_space_group_symop_operation_xyz
x,y,z
-x,-y,z
x,-y,-z
-x,y,-z
-x,-y,-z
x,y,-z
-x,y,z
x,-y,z
1/2+x,1/2+y,z
1/2-x,1/2-y,z
1/2+x,1/2-y,-z
1/2-x,1/2+y,-z
1/2-x,1/2-y,-z
1/2+x,1/2+y,-z
1/2-x,1/2+y,z
1/2+x,1/2-y,z
loop_
_atom_site_type_symbol
_atom_site_label
_atom_site_fract_x
_atom_site_fract_y
_atom_site_fract_z
Si Si1 0.415327 0.306958 0.149567
Si Si2 0.165502 0.702446 0.734132
Si Si3 0.583296 0.205307 0.383725
Si Si4 0.412470 0.000000 0.066474
Si Si5 0.834901 0.702902 0.500000
O O1 0.500000 0.262732 0.166057
O O2 0.408589 0.500000 0.122742
O O3 0.366976 0.298830 0.208871
O O4 0.384970 0.171350 0.100848
O O5 0.153791 0.500000 0.742874
O O6 0.250000 0.750000 0.726209
O O7 0.123299 0.772369 0.675828
O O8 0.500000 0.276350 0.384581
O O9 0.626263 0.281155 0.441130
O O10 0.584128 0.000000 0.385112
O O11 0.500000 0.000000 0.061832
O O12 0.377844 0.000000 0.000000
O O13 0.845439 0.500000 0.500000
O O14 0.750000 0.750000 0.500000
#
# Coordination Sequence:
#
# PCOD8268997 Si02
#       5
#    16  16  16   8   8
#     4  10  20  35  57  86 117 151 192 237 287 342
#     4  11  21  34  53  79 110 148 189 239 291 349
#     4   9  18  32  53  78 105 142 190 238 287 342
#     4   9  18  34  58  88 120 153 190 234 283 337
#     4  10  19  33  53  77 107 144 186 234 282 346
#
# _framework density 20.333905000000001
#
# number of rings (size 3 to 8) (size 9 to 14) (size 15 to 20)
#    0.000    2.125    1.250    2.625    0.000    3.000 
#    0.000    3.750    0.000    5.250    0.000    0.000 
#    0.000    0.000    0.000    0.000    0.000    0.000 
#
# Total GULP energy -396854.291081 kJ/mol
# GULP energy per Si atom -12401.696596 kJ/mol
# Density = 2.028762 g / cm^3
# Si number density = 20.333905 Si / 1000 Ang^3
#
#
#
# Elastic Constant Matrix: (Units=GPa)
#
#
# Indices 1 2 3 4 5 6 
#
# 1 135.9117 18.4099 72.9929 0.0000 0.0000 0.0000
# 2 18.4099 84.9749 46.3651 0.0000 0.0000 0.0000
# 3 72.9929 46.3651 185.8246 0.0000 0.0000 0.0000
# 4 0.0000 0.0000 0.0000 5.8044 0.0000 0.0000
# 5 0.0000 0.0000 0.0000 0.0000 12.7210 0.0000
# 6 0.0000 0.0000 0.0000 0.0000 0.0000 24.5462
#
#
#
# Elastic Compliance Matrix: (Units=1/GPa)
#
#
# Indices 1 2 3 4 5 6 
#
# 1 0.009325 -0.000025 -0.003657 0.000000 0.000000 0.000000
# 2 -0.000025 0.013623 -0.003389 0.000000 0.000000 0.000000
# 3 -0.003657 -0.003389 0.007663 0.000000 0.000000 0.000000
# 4 0.000000 0.000000 0.000000 0.172284 0.000000 0.000000
# 5 0.000000 0.000000 0.000000 0.000000 0.078610 0.000000
# 6 0.000000 0.000000 0.000000 0.000000 0.000000 0.040739
#
#
# Mechanical properties :
#
#
# Convention : Reuss Voigt Hill
#
# Bulk Modulus (GPa) = 60.71860 75.80521 68.26191
# Shear Modulus (GPa) = 14.62514 26.54386 20.58450
#
# Velocity S-wave (km/s) = 2.68479 3.61695 3.18516
# Velocity P-wave (km/s) = 6.28780 7.40299 6.86807
#
# Compressibility (1/GPa) = 0.01646942
#
# Stress axis : x y z
#
# Youngs Moduli (GPa) = 107.23916 73.40594 130.49040
#
# Poissons Ratio (x) = 0.00184 0.47716
# Poissons Ratio (y) = 0.00269 0.44226
# Poissons Ratio (z) = 0.39213 0.24879
#
# Static dielectric constant tensor:
#      x y z
#    x 3.572310 0.000000 0.000000 
#    y 0.000000 3.588380 0.000000 
#    z 0.000000 0.000000 3.865550 
# 
# 
# High freq. dielectric constant tensor:
#      x y z
#    x 1.782820 0.000000 0.000000 
#    y 0.000000 1.785600 0.000000 
#    z 0.000000 0.000000 1.796130 
# 
# From -- ./inp_files/63251.got.cif
#   From: 2010.03.12/outbox.cif.g09.slc.cpg/sg65_32_cif.got.tgz:63251.got - 2010.04.10 20:52:16.
