data_PCOD8268566
_publ_section_title
;
Structure prediction by ZEFSAII (Michael W. Deem and Ramdas Pophale) SiO2 
 PCOD8268566
Probable space group: C M M M
;
_chemical_formula_sum "Si O2"
_cell_formula_units_Z 88
_cell_length_a 19.344733
_cell_length_b 8.623064
_cell_length_c 28.065830
_cell_angle_alpha 90.000000
_cell_angle_beta 90.000000
_cell_angle_gamma 90.000000
_cell_volume 4681.685540
_symmetry_space_group_name_H-M "C M M M"
_symmetry_group_IT_number 65
_symmetry_cell_setting 'orthorhombic'
loop_
_space_group_symop_operation_xyz
x,y,z
-x,-y,z
x,-y,-z
-x,y,-z
-x,-y,-z
x,y,-z
-x,y,z
x,-y,z
1/2+x,1/2+y,z
1/2-x,1/2-y,z
1/2+x,1/2-y,-z
1/2-x,1/2+y,-z
1/2-x,1/2-y,-z
1/2+x,1/2+y,-z
1/2-x,1/2+y,z
1/2+x,1/2-y,z
loop_
_atom_site_type_symbol
_atom_site_label
_atom_site_fract_x
_atom_site_fract_y
_atom_site_fract_z
Si Si1 0.825144 0.815779 0.864673
Si Si2 0.922738 0.815718 0.947391
Si Si3 0.919681 0.178354 0.687682
Si Si4 0.824185 0.318536 0.234801
Si Si5 0.579235 0.818879 0.587166
Si Si6 0.673206 0.183379 0.500000
O O1 0.750000 0.750000 0.874822
O O2 0.873682 0.747593 0.906360
O O3 0.853029 0.758009 0.813680
O O4 0.823440 0.000000 0.864699
O O5 0.000000 0.752514 0.938420
O O6 0.922948 0.000000 0.944837
O O7 0.896961 0.762352 0.000000
O O8 0.877556 0.286401 0.723225
O O9 0.900435 0.223240 0.633913
O O10 0.000000 0.209622 0.697345
O O11 0.899766 0.000000 0.696262
O O12 0.815841 0.500000 0.226480
O O13 0.750000 0.250000 0.248985
O O14 0.500000 0.785819 0.571651
O O15 0.630662 0.759392 0.546070
O O16 0.589568 0.000000 0.597854
O O17 0.750000 0.250000 0.500000
O O18 0.677824 0.000000 0.500000
#
# Coordination Sequence:
#
# PCOD8268566 Si02
#       6
#    16  16  16  16  16   8
#     4  10  19  32  51  75 103 135 171 212 258 309
#     4   8  15  29  49  73 100 131 169 211 254 302
#     4  10  21  37  57  82 110 139 175 218 263 314
#     4  11  22  37  56  77 105 140 177 218 265 316
#     4   9  18  35  57  78 103 139 181 219 257 304
#     4  10  21  35  53  79 109 140 174 216 262 310
#
# _framework density 18.79665
#
# number of rings (size 3 to 8) (size 9 to 14) (size 15 to 20)
#    0.000    2.364    0.000    4.636    0.000    4.727 
#    0.000    3.636    0.000    6.000    0.000    5.091 
#    0.000    0.000    0.000    0.000    0.000    0.000 
#
# Total GULP energy -545616.701165 kJ/mol
# GULP energy per Si atom -12400.379572 kJ/mol
# Density = 1.875387 g / cm^3
# Si number density = 18.796650 Si / 1000 Ang^3
#
#
#
# Elastic Constant Matrix: (Units=GPa)
#
#
# Indices 1 2 3 4 5 6 
#
# 1 98.3742 26.8784 86.3512 0.0000 0.0000 0.0000
# 2 26.8784 64.4702 31.6396 0.0000 0.0000 0.0000
# 3 86.3512 31.6396 141.7375 0.0000 0.0000 0.0000
# 4 0.0000 0.0000 0.0000 22.7947 0.0000 0.0000
# 5 0.0000 0.0000 0.0000 0.0000 37.9352 0.0000
# 6 0.0000 0.0000 0.0000 0.0000 0.0000 26.4827
#
#
#
# Elastic Compliance Matrix: (Units=1/GPa)
#
#
# Indices 1 2 3 4 5 6 
#
# 1 0.022342 -0.002959 -0.012951 0.000000 0.000000 0.000000
# 2 -0.002959 0.017811 -0.002173 0.000000 0.000000 0.000000
# 3 -0.012951 -0.002173 0.015431 0.000000 0.000000 0.000000
# 4 0.000000 0.000000 0.000000 0.043870 0.000000 0.000000
# 5 0.000000 0.000000 0.000000 0.000000 0.026361 0.000000
# 6 0.000000 0.000000 0.000000 0.000000 0.000000 0.037760
#
#
# Mechanical properties :
#
#
# Convention : Reuss Voigt Hill
#
# Bulk Modulus (GPa) = 51.49984 66.03558 58.76771
# Shear Modulus (GPa) = 24.24677 28.09001 26.16839
#
# Velocity S-wave (km/s) = 3.59549 3.86996 3.73525
# Velocity P-wave (km/s) = 6.68540 7.42810 7.06651
#
# Compressibility (1/GPa) = 0.01941753
#
# Stress axis : x y z
#
# Youngs Moduli (GPa) = 44.75932 56.14447 64.80651
#
# Poissons Ratio (x) = 0.16612 0.83930
# Poissons Ratio (y) = 0.13243 0.14085
# Poissons Ratio (z) = 0.57967 0.12202
#
# Static dielectric constant tensor:
#      x y z
#    x 3.524920 0.000000 0.000000 
#    y 0.000000 3.281960 0.000000 
#    z 0.000000 0.000000 3.680290 
# 
# 
# High freq. dielectric constant tensor:
#      x y z
#    x 1.726260 0.000000 0.000000 
#    y 0.000000 1.717780 0.000000 
#    z 0.000000 0.000000 1.741820 
# 
# From -- ./inp_files/75347.got.cif
#   From: 2010.03.12/outbox.cif.g09.slc.cpg/sg65_38_cif.got.tgz:75347.got - 2010.04.10 20:52:16.
