data_PCOD8268573
_publ_section_title
;
Structure prediction by ZEFSAII (Michael W. Deem and Ramdas Pophale) SiO2 
 PCOD8268573
Probable space group: C M M M
;
_chemical_formula_sum "Si O2"
_cell_formula_units_Z 88
_cell_length_a 7.750051
_cell_length_b 26.496061
_cell_length_c 22.343193
_cell_angle_alpha 90.000000
_cell_angle_beta 90.000000
_cell_angle_gamma 90.000000
_cell_volume 4588.081378
_symmetry_space_group_name_H-M "C M M M"
_symmetry_group_IT_number 65
_symmetry_cell_setting 'orthorhombic'
loop_
_space_group_symop_operation_xyz
x,y,z
-x,-y,z
x,-y,-z
-x,y,-z
-x,-y,-z
x,y,-z
-x,y,z
x,-y,z
1/2+x,1/2+y,z
1/2-x,1/2-y,z
1/2+x,1/2-y,-z
1/2-x,1/2+y,-z
1/2-x,1/2-y,-z
1/2+x,1/2+y,-z
1/2-x,1/2+y,z
1/2+x,1/2-y,z
loop_
_atom_site_type_symbol
_atom_site_label
_atom_site_fract_x
_atom_site_fract_y
_atom_site_fract_z
Si Si1 0.792984 0.608613 0.067366
Si Si2 0.500000 0.059240 0.569684
Si Si3 0.688530 0.000000 0.070953
Si Si4 0.702702 0.194953 0.846496
Si Si5 0.201005 0.807482 0.500000
Si Si6 0.697885 0.625665 0.391992
Si Si7 0.702850 0.194508 0.288300
O O1 0.719170 0.553230 0.088642
O O2 0.716663 0.651692 0.111001
O O3 0.000000 0.606888 0.068963
O O4 0.730002 0.620901 0.000000
O O5 0.500000 0.075225 0.500000
O O6 0.673163 0.078428 0.603138
O O7 0.500000 0.000000 0.577139
O O8 0.500000 0.000000 0.101401
O O9 0.667225 0.000000 0.000000
O O10 0.500000 0.188489 0.845196
O O11 0.750000 0.250000 0.872547
O O12 0.776338 0.189097 0.779255
O O13 0.250000 0.750000 0.500000
O O14 0.271324 0.834283 0.559595
O O15 0.000000 0.813481 0.500000
O O16 0.500000 0.608304 0.404376
O O17 0.704603 0.651766 0.327268
O O18 0.500000 0.185817 0.291488
O O19 0.750000 0.250000 0.313207
#
# Coordination Sequence:
#
# PCOD8268573 Si02
#       7
#    16   8   8  16   8  16  16
#     4   8  13  23  41  65  94 128 167 217 273 322
#     4  11  24  42  66  88 114 154 193 235 281 325
#     4   7  10  18  36  62  89 117 155 204 259 314
#     4   9  18  30  45  68 102 136 174 214 259 322
#     4  10  22  32  50  83 115 144 174 218 275 330
#     4  11  22  38  58  85 116 147 187 232 279 328
#     4  10  19  32  51  75 108 145 184 224 278 343
#
# _framework density 19.180132
#
# number of rings (size 3 to 8) (size 9 to 14) (size 15 to 20)
#    0.000    2.545    1.818    2.182    1.273    2.909 
#    0.000    0.909    2.000    0.000    0.000    0.636 
#    0.000    2.182    0.000    0.000    0.000    0.000 
#
# Total GULP energy -545302.012991 kJ/mol
# GULP energy per Si atom -12393.227568 kJ/mol
# Density = 1.913648 g / cm^3
# Si number density = 19.180132 Si / 1000 Ang^3
#
#
#
# Elastic Constant Matrix: (Units=GPa)
#
#
# Indices 1 2 3 4 5 6 
#
# 1 61.9557 27.2505 14.8561 0.0000 0.0000 0.0000
# 2 27.2505 153.5411 71.0281 0.0000 0.0000 0.0000
# 3 14.8561 71.0281 90.8160 0.0000 0.0000 0.0000
# 4 0.0000 0.0000 0.0000 26.5117 0.0000 0.0000
# 5 0.0000 0.0000 0.0000 0.0000 -0.9392 0.0000
# 6 0.0000 0.0000 0.0000 0.0000 0.0000 23.1942
#
#
#
# Elastic Compliance Matrix: (Units=1/GPa)
#
#
# Indices 1 2 3 4 5 6 
#
# 1 0.017534 -0.002797 -0.000681 0.000000 0.000000 0.000000
# 2 -0.002797 0.010651 -0.007873 0.000000 0.000000 0.000000
# 3 -0.000681 -0.007873 0.017280 0.000000 0.000000 0.000000
# 4 0.000000 0.000000 0.000000 0.037719 0.000000 0.000000
# 5 0.000000 0.000000 0.000000 0.000000 -1.064719 0.000000
# 6 0.000000 0.000000 0.000000 0.000000 0.000000 0.043114
#
#
# Mechanical properties :
#
#
# Convention : Reuss Voigt Hill
#
# Bulk Modulus (GPa) = 43.92881 59.17581 51.55231
# Shear Modulus (GPa) = -5.50582 22.63188 8.56303
#
# Velocity S-wave (km/s) = -1.69612 3.43879 2.11524
# Velocity P-wave (km/s) = 4.37233 6.83276 5.73602
#
# Compressibility (1/GPa) = 0.02276410
#
# Stress axis : x y z
#
# Youngs Moduli (GPa) = 57.03188 93.88460 57.86982
#
# Poissons Ratio (x) = 0.26260 0.03939
# Poissons Ratio (y) = 0.15952 0.45561
# Poissons Ratio (z) = 0.03882 0.73915
#
# Static dielectric constant tensor:
#      x y z
#    x 3.531000 0.000000 0.000000 
#    y 0.000000 3.659960 0.000000 
#    z 0.000000 0.000000 3.630230 
# 
# 
# High freq. dielectric constant tensor:
#      x y z
#    x 1.728600 0.000000 0.000000 
#    y 0.000000 1.741070 0.000000 
#    z 0.000000 0.000000 1.727820 
# 
# From -- ./inp_files/67672.got.cif
#   From: 2010.03.12/outbox.cif.g09.slc.cpg/sg65_34_cif.got.tgz:67672.got - 2010.04.10 20:52:16.
