data_PCOD8268837
_publ_section_title
;
Structure prediction by ZEFSAII (Michael W. Deem and Ramdas Pophale) SiO2 
 PCOD8268837
Probable space group: C M M M
;
_chemical_formula_sum "Si O2"
_cell_formula_units_Z 72
_cell_length_a 28.066910
_cell_length_b 9.585943
_cell_length_c 18.022075
_cell_angle_alpha 90.000000
_cell_angle_beta 90.000000
_cell_angle_gamma 90.000000
_cell_volume 4848.799620
_symmetry_space_group_name_H-M "C M M M"
_symmetry_group_IT_number 65
_symmetry_cell_setting 'orthorhombic'
loop_
_space_group_symop_operation_xyz
x,y,z
-x,-y,z
x,-y,-z
-x,y,-z
-x,-y,-z
x,y,-z
-x,y,z
x,-y,z
1/2+x,1/2+y,z
1/2-x,1/2-y,z
1/2+x,1/2-y,-z
1/2-x,1/2+y,-z
1/2-x,1/2-y,-z
1/2+x,1/2+y,-z
1/2-x,1/2+y,z
1/2+x,1/2-y,z
loop_
_atom_site_type_symbol
_atom_site_label
_atom_site_fract_x
_atom_site_fract_y
_atom_site_fract_z
Si Si1 0.943380 0.157074 0.918344
Si Si2 0.054971 0.338892 0.215934
Si Si3 0.102320 0.337584 0.630134
Si Si4 0.056413 0.162105 0.500000
Si Si5 0.206721 0.340511 0.414617
O O1 0.922852 0.255783 0.853824
O O2 0.000000 0.165109 0.917809
O O3 0.926164 0.000000 0.902298
O O4 0.924967 0.205153 0.000000
O O5 0.060906 0.500000 0.196526
O O6 0.083960 0.297118 0.288816
O O7 0.000000 0.299590 0.230161
O O8 0.091559 0.500000 0.610422
O O9 0.076187 0.238296 0.572396
O O10 0.158726 0.308752 0.630406
O O11 0.000000 0.175462 0.500000
O O12 0.072388 0.000000 0.500000
O O13 0.196679 0.300505 0.500000
O O14 0.222251 0.500000 0.406743
O O15 0.250000 0.250000 0.381516
#
# Coordination Sequence:
#
# PCOD8268837 Si02
#       5
#    16  16  16   8  16
#     4   8  14  25  40  57  80 112 144 171 204 246
#     4   9  17  27  41  62  85 111 143 177 208 240
#     4  10  19  33  48  62  83 114 148 177 213 261
#     4  11  23  33  42  61  86 113 148 185 214 243
#     4   9  17  30  47  65  82 104 137 177 220 262
#
# _framework density 14.849036
#
# number of rings (size 3 to 8) (size 9 to 14) (size 15 to 20)
#    0.000    2.778    1.111    1.667    0.000    4.000 
#    0.000    4.444    0.000    0.000    0.000    0.000 
#    0.000    0.889    0.000    2.000    0.000    3.556 
#
# Total GULP energy -446313.691001 kJ/mol
# GULP energy per Si atom -12397.602528 kJ/mol
# Density = 1.481524 g / cm^3
# Si number density = 14.849036 Si / 1000 Ang^3
#
#
#
# Elastic Constant Matrix: (Units=GPa)
#
#
# Indices 1 2 3 4 5 6 
#
# 1 67.3418 44.7495 50.9017 0.0000 0.0000 0.0000
# 2 44.7495 83.7086 72.9200 0.0000 0.0000 0.0000
# 3 50.9017 72.9200 131.6105 0.0000 0.0000 0.0000
# 4 0.0000 0.0000 0.0000 23.8358 0.0000 0.0000
# 5 0.0000 0.0000 0.0000 0.0000 -1.2152 0.0000
# 6 0.0000 0.0000 0.0000 0.0000 0.0000 20.9153
#
#
#
# Elastic Compliance Matrix: (Units=1/GPa)
#
#
# Indices 1 2 3 4 5 6 
#
# 1 0.024194 -0.009244 -0.004235 0.000000 0.000000 0.000000
# 2 -0.009244 0.026623 -0.011176 0.000000 0.000000 0.000000
# 3 -0.004235 -0.011176 0.015428 0.000000 0.000000 0.000000
# 4 0.000000 0.000000 0.000000 0.041954 0.000000 0.000000
# 5 0.000000 0.000000 0.000000 0.000000 -0.822906 0.000000
# 6 0.000000 0.000000 0.000000 0.000000 0.000000 0.047812
#
#
# Mechanical properties :
#
#
# Convention : Reuss Voigt Hill
#
# Bulk Modulus (GPa) = 59.04927 68.86702 63.95815
# Shear Modulus (GPa) = -8.17075 16.31316 4.07121
#
# Velocity S-wave (km/s) = -2.34829 3.31811 1.65761
# Velocity P-wave (km/s) = 5.70088 7.82040 6.84320
#
# Compressibility (1/GPa) = 0.01693501
#
# Stress axis : x y z
#
# Youngs Moduli (GPa) = 41.33273 37.56114 64.81636
#
# Poissons Ratio (x) = 0.34722 0.27452
# Poissons Ratio (y) = 0.38209 0.72436
# Poissons Ratio (z) = 0.17506 0.41977
#
# Static dielectric constant tensor:
#      x y z
#    x 2.676250 0.000000 0.000000 
#    y 0.000000 2.987510 0.000000 
#    z 0.000000 0.000000 3.035890 
# 
# 
# High freq. dielectric constant tensor:
#      x y z
#    x 1.533790 0.000000 0.000000 
#    y 0.000000 1.573290 0.000000 
#    z 0.000000 0.000000 1.560170 
# 
# From -- ./inp_files/49701.got.cif
#   From: 2010.03.12/outbox.cif.g09.slc.cpg/sg65_25_cif.got.tgz:49701.got - 2010.04.10 20:52:16.
