data_PCOD8268376
_publ_section_title
;
Structure prediction by ZEFSAII (Michael W. Deem and Ramdas Pophale) SiO2 
 PCOD8268376
Probable space group: C M M M
;
_chemical_formula_sum "Si O2"
_cell_formula_units_Z 88
_cell_length_a 8.666734
_cell_length_b 19.664198
_cell_length_c 28.448889
_cell_angle_alpha 90.000000
_cell_angle_beta 90.000000
_cell_angle_gamma 90.000000
_cell_volume 4848.384081
_symmetry_space_group_name_H-M "C M M M"
_symmetry_group_IT_number 65
_symmetry_cell_setting 'orthorhombic'
loop_
_space_group_symop_operation_xyz
x,y,z
-x,-y,z
x,-y,-z
-x,y,-z
-x,-y,-z
x,y,-z
-x,y,z
x,-y,z
1/2+x,1/2+y,z
1/2-x,1/2-y,z
1/2+x,1/2-y,-z
1/2-x,1/2+y,-z
1/2-x,1/2-y,-z
1/2+x,1/2+y,-z
1/2-x,1/2+y,z
1/2+x,1/2-y,z
loop_
_atom_site_type_symbol
_atom_site_label
_atom_site_fract_x
_atom_site_fract_y
_atom_site_fract_z
Si Si1 0.181254 0.177651 0.219847
Si Si2 0.831173 0.419290 0.500000
Si Si3 0.684660 0.923842 0.600781
Si Si4 0.322635 0.079739 0.854179
Si Si5 0.173257 0.080637 0.051329
Si Si6 0.183482 0.322812 0.319395
O O1 0.250000 0.250000 0.203593
O O2 0.215884 0.120328 0.181642
O O3 0.255227 0.153452 0.268825
O O4 0.000000 0.186242 0.226534
O O5 0.849820 0.500000 0.500000
O O6 0.748164 0.398986 0.450514
O O7 0.000000 0.384920 0.500000
O O8 0.500000 0.922754 0.598188
O O9 0.746474 0.875131 0.641678
O O10 0.742746 0.000000 0.612292
O O11 0.500000 0.095588 0.843286
O O12 0.285139 0.105705 0.907047
O O13 0.285060 0.000000 0.848651
O O14 0.000000 0.107298 0.061212
O O15 0.172890 0.000000 0.050082
O O16 0.230410 0.107690 0.000000
O O17 0.250000 0.250000 0.333279
O O18 0.000000 0.320198 0.317886
#
# Coordination Sequence:
#
# PCOD8268376 Si02
#       6
#    16   8  16  16  16  16
#     4  11  22  37  55  72  95 129 168 206 250 303
#     4   7  10  20  39  64  93 121 152 191 234 278
#     4   8  14  25  44  69  94 122 157 197 237 277
#     4  10  20  33  51  77 106 133 165 206 247 289
#     4   8  14  26  45  70 101 135 168 202 242 287
#     4  10  19  32  49  69  95 125 158 196 241 292
#
# _framework density 18.150376000000001
#
# number of rings (size 3 to 8) (size 9 to 14) (size 15 to 20)
#    0.000    2.818    0.000    5.455    0.000    2.182 
#    0.000    4.091    0.000    2.182    0.000    1.909 
#    0.000    8.727    0.000    0.000    0.000    0.000 
#
# Total GULP energy -545248.400353 kJ/mol
# GULP energy per Si atom -12392.009099 kJ/mol
# Density = 1.810906 g / cm^3
# Si number density = 18.150376 Si / 1000 Ang^3
#
#
#
# Elastic Constant Matrix: (Units=GPa)
#
#
# Indices 1 2 3 4 5 6 
#
# 1 67.0352 22.9756 34.1379 0.0000 0.0000 0.0000
# 2 22.9756 62.4981 68.8743 0.0000 0.0000 0.0000
# 3 34.1379 68.8743 153.9011 0.0000 0.0000 0.0000
# 4 0.0000 0.0000 0.0000 4.7330 0.0000 0.0000
# 5 0.0000 0.0000 0.0000 0.0000 17.3304 0.0000
# 6 0.0000 0.0000 0.0000 0.0000 0.0000 20.5928
#
#
#
# Elastic Compliance Matrix: (Units=1/GPa)
#
#
# Indices 1 2 3 4 5 6 
#
# 1 0.017364 -0.004220 -0.001963 0.000000 0.000000 0.000000
# 2 -0.004220 0.032596 -0.013651 0.000000 0.000000 0.000000
# 3 -0.001963 -0.013651 0.013042 0.000000 0.000000 0.000000
# 4 0.000000 0.000000 0.000000 0.211283 0.000000 0.000000
# 5 0.000000 0.000000 0.000000 0.000000 0.057702 0.000000
# 6 0.000000 0.000000 0.000000 0.000000 0.000000 0.048561
#
#
# Mechanical properties :
#
#
# Convention : Reuss Voigt Hill
#
# Bulk Modulus (GPa) = 42.85724 59.48998 51.17361
# Shear Modulus (GPa) = 11.68240 19.02767 15.35503
#
# Velocity S-wave (km/s) = 2.53977 3.24131 2.91175
# Velocity P-wave (km/s) = 5.68015 6.84511 6.28966
#
# Compressibility (1/GPa) = 0.02333328
#
# Stress axis : x y z
#
# Youngs Moduli (GPa) = 57.59191 30.67869 76.67286
#
# Poissons Ratio (x) = 0.12946 0.15051
# Poissons Ratio (y) = 0.24303 1.04669
# Poissons Ratio (z) = 0.11305 0.41881
#
# Static dielectric constant tensor:
#      x y z
#    x 3.137360 0.000000 0.000000 
#    y 0.000000 3.082970 0.000000 
#    z 0.000000 0.000000 3.872460 
# 
# 
# High freq. dielectric constant tensor:
#      x y z
#    x 1.681770 0.000000 0.000000 
#    y 0.000000 1.666000 0.000000 
#    z 0.000000 0.000000 1.723850 
# 
# From -- ./inp_files/76795.got.cif
#   From: 2010.03.12/outbox.cif.g09.slc.cpg/sg65_39_cif.got.tgz:76795.got - 2010.04.10 20:52:16.
