data_PCOD8268431
_publ_section_title
;
Structure prediction by ZEFSAII (Michael W. Deem and Ramdas Pophale) SiO2 
 PCOD8268431
Probable space group: C M M M
;
_chemical_formula_sum "Si O2"
_cell_formula_units_Z 72
_cell_length_a 8.781809
_cell_length_b 26.968892
_cell_length_c 16.211023
_cell_angle_alpha 90.000000
_cell_angle_beta 90.000000
_cell_angle_gamma 90.000000
_cell_volume 3839.348307
_symmetry_space_group_name_H-M "C M M M"
_symmetry_group_IT_number 65
_symmetry_cell_setting 'orthorhombic'
loop_
_space_group_symop_operation_xyz
x,y,z
-x,-y,z
x,-y,-z
-x,y,-z
-x,-y,-z
x,y,-z
-x,y,z
x,-y,z
1/2+x,1/2+y,z
1/2-x,1/2-y,z
1/2+x,1/2-y,-z
1/2-x,1/2+y,-z
1/2-x,1/2-y,-z
1/2+x,1/2+y,-z
1/2-x,1/2+y,z
1/2+x,1/2-y,z
loop_
_atom_site_type_symbol
_atom_site_label
_atom_site_fract_x
_atom_site_fract_y
_atom_site_fract_z
Si Si1 0.680471 0.348389 0.338198
Si Si2 0.822430 0.945006 0.244609
Si Si3 0.320883 0.200012 0.183818
Si Si4 0.321796 0.101034 0.091701
Si Si5 0.319628 0.195320 0.500000
O O1 0.500000 0.344103 0.351058
O O2 0.732477 0.403885 0.310535
O O3 0.734738 0.309575 0.269716
O O4 0.765740 0.336116 0.422000
O O5 0.748426 0.937983 0.155077
O O6 0.000000 0.938684 0.230714
O O7 0.780422 0.000000 0.277779
O O8 0.500000 0.205140 0.200366
O O9 0.250000 0.250000 0.145778
O O10 0.283225 0.156953 0.118994
O O11 0.500000 0.091885 0.091422
O O12 0.254301 0.092540 0.000000
O O13 0.500000 0.200512 0.500000
O O14 0.250000 0.250000 0.500000
#
# Coordination Sequence:
#
# PCOD8268431 Si02
#       5
#    16  16  16  16   8
#     4  10  20  36  56  78 105 136 172 211 253 303
#     4   9  19  36  57  79 103 134 172 214 259 305
#     4  10  19  32  50  72 101 137 175 214 258 308
#     4   9  19  34  50  72 103 137 174 216 260 308
#     4  12  24  38  57  82 111 139 170 207 249 298
#
# _framework density 18.753183
#
# number of rings (size 3 to 8) (size 9 to 14) (size 15 to 20)
#    0.000    2.222    0.000    3.000    0.000    3.556 
#    0.000    2.778    0.000    3.333    0.000    0.000 
#    0.000    0.000    0.000    0.000    0.000    0.000 
#
# Total GULP energy -446413.946315 kJ/mol
# GULP energy per Si atom -12400.387398 kJ/mol
# Density = 1.871050 g / cm^3
# Si number density = 18.753183 Si / 1000 Ang^3
#
#
#
# Elastic Constant Matrix: (Units=GPa)
#
#
# Indices 1 2 3 4 5 6 
#
# 1 71.8237 35.7225 38.7753 0.0000 0.0000 0.0000
# 2 35.7225 112.2084 44.0317 0.0000 0.0000 0.0000
# 3 38.7753 44.0317 123.9779 0.0000 0.0000 0.0000
# 4 0.0000 0.0000 0.0000 18.4350 0.0000 0.0000
# 5 0.0000 0.0000 0.0000 0.0000 27.3945 0.0000
# 6 0.0000 0.0000 0.0000 0.0000 0.0000 27.2124
#
#
#
# Elastic Compliance Matrix: (Units=1/GPa)
#
#
# Indices 1 2 3 4 5 6 
#
# 1 0.018279 -0.004155 -0.004241 0.000000 0.000000 0.000000
# 2 -0.004155 0.011300 -0.002714 0.000000 0.000000 0.000000
# 3 -0.004241 -0.002714 0.010356 0.000000 0.000000 0.000000
# 4 0.000000 0.000000 0.000000 0.054245 0.000000 0.000000
# 5 0.000000 0.000000 0.000000 0.000000 0.036504 0.000000
# 6 0.000000 0.000000 0.000000 0.000000 0.000000 0.036748
#
#
# Mechanical properties :
#
#
# Convention : Reuss Voigt Hill
#
# Bulk Modulus (GPa) = 56.44873 60.56322 58.50597
# Shear Modulus (GPa) = 25.56805 27.24041 26.40423
#
# Velocity S-wave (km/s) = 3.69643 3.81540 3.75639
# Velocity P-wave (km/s) = 6.95588 7.19547 7.07669
#
# Compressibility (1/GPa) = 0.01771519
#
# Stress axis : x y z
#
# Youngs Moduli (GPa) = 54.70666 88.49843 96.56019
#
# Poissons Ratio (x) = 0.36771 0.40954
# Poissons Ratio (y) = 0.22731 0.26203
# Poissons Ratio (z) = 0.23203 0.24015
#
# Static dielectric constant tensor:
#      x y z
#    x 3.457770 0.000000 0.000000 
#    y 0.000000 3.651090 0.000000 
#    z 0.000000 0.000000 3.626750 
# 
# 
# High freq. dielectric constant tensor:
#      x y z
#    x 1.731770 0.000000 0.000000 
#    y 0.000000 1.734060 0.000000 
#    z 0.000000 0.000000 1.718530 
# 
# From -- ./inp_files/36510.got.cif
#   From: 2010.03.12/outbox.cif.g09.slc.cpg/sg65_19_cif.got.tgz:36510.got - 2010.04.10 20:52:16.
