data_PCOD8268796
_publ_section_title
;
Structure prediction by ZEFSAII (Michael W. Deem and Ramdas Pophale) SiO2 
 PCOD8268796
Probable space group: C M M M
;
_chemical_formula_sum "Si O2"
_cell_formula_units_Z 116
_cell_length_a 17.008913
_cell_length_b 17.008919
_cell_length_c 22.693206
_cell_angle_alpha 90.000000
_cell_angle_beta 90.000000
_cell_angle_gamma 90.000000
_cell_volume 6565.217647
_symmetry_space_group_name_H-M "C M M M"
_symmetry_group_IT_number 65
_symmetry_cell_setting 'orthorhombic'
loop_
_space_group_symop_operation_xyz
x,y,z
-x,-y,z
x,-y,-z
-x,y,-z
-x,-y,-z
x,y,-z
-x,y,z
x,-y,z
1/2+x,1/2+y,z
1/2-x,1/2-y,z
1/2+x,1/2-y,-z
1/2-x,1/2+y,-z
1/2-x,1/2-y,-z
1/2+x,1/2+y,-z
1/2-x,1/2+y,z
1/2+x,1/2-y,z
loop_
_atom_site_type_symbol
_atom_site_label
_atom_site_fract_x
_atom_site_fract_y
_atom_site_fract_z
Si Si1 0.590140 0.090140 0.568615
Si Si2 0.500000 0.500000 0.117541
Si Si3 0.685766 0.185766 0.660675
Si Si4 0.090877 0.781894 0.751599
Si Si5 0.284193 0.910756 0.879080
Si Si6 0.218106 0.909123 0.751599
Si Si7 0.089244 0.284193 0.879080
Si Si8 0.880207 0.119793 0.067242
O O1 0.604973 0.104975 0.500000
O O2 0.500000 0.109135 0.585081
O O3 0.647865 0.147865 0.603102
O O4 0.609136 0.000000 0.585079
O O5 0.433290 0.566710 0.109029
O O6 0.750000 0.250000 0.640756
O O7 0.617459 0.226045 0.698621
O O8 0.726045 0.117459 0.698621
O O9 0.135073 0.864927 0.749385
O O10 0.110467 0.739095 0.812355
O O11 0.000000 0.802762 0.744683
O O12 0.260905 0.889533 0.812355
O O13 0.354918 0.854918 0.899481
O O14 0.211180 0.897345 0.921885
O O15 0.314321 0.000000 0.883230
O O16 0.197238 0.000000 0.744683
O O17 0.102655 0.211180 0.921885
O O18 0.000000 0.314321 0.883230
O O19 0.900944 0.099056 0.000000
#
# Coordination Sequence:
#
# PCOD8268796 Si02
#       8
#    16   4  16  16  16  16  16  16
#     4   9  18  33  53  79 111 144 181 227 269 311
#     4  12  25  44  64  96 120 132 188 240 285 350
#     4  10  19  32  54  76 107 148 179 221 272 319
#     4  10  20  34  51  76 106 142 180 224 273 326
#     4  11  23  39  58  80 111 147 185 231 280 336
#     4  10  20  34  51  76 106 142 180 224 273 326
#     4  11  23  39  58  80 111 147 185 231 280 336
#     4  12  24  40  63  87 114 142 176 235 294 347
#
# _framework density 17.668873000000001
#
# number of rings (size 3 to 8) (size 9 to 14) (size 15 to 20)
#    0.000    1.517    4.138    2.276    0.000    1.931 
#    0.000    0.000    0.000    0.000    0.000    1.931 
#    0.000    0.000    0.000   25.655    0.000    0.000 
#
# Total GULP energy -718569.279577 kJ/mol
# GULP energy per Si atom -12389.125510 kJ/mol
# Density = 1.762866 g / cm^3
# Si number density = 17.668873 Si / 1000 Ang^3
#
#
#
# Elastic Constant Matrix: (Units=GPa)
#
#
# Indices 1 2 3 4 5 6 
#
# 1 97.8135 59.1320 20.7586 0.0000 0.0000 0.0000
# 2 59.1320 97.8145 20.7589 0.0000 0.0000 0.0000
# 3 20.7586 20.7589 52.0325 0.0000 0.0000 0.0000
# 4 0.0000 0.0000 0.0000 17.7504 0.0000 0.0000
# 5 0.0000 0.0000 0.0000 0.0000 17.7503 0.0000
# 6 0.0000 0.0000 0.0000 0.0000 0.0000 35.9660
#
#
#
# Elastic Compliance Matrix: (Units=1/GPa)
#
#
# Indices 1 2 3 4 5 6 
#
# 1 0.016488 -0.009364 -0.002842 0.000000 0.000000 0.000000
# 2 -0.009364 0.016488 -0.002842 0.000000 0.000000 0.000000
# 3 -0.002842 -0.002842 0.021486 0.000000 0.000000 0.000000
# 4 0.000000 0.000000 0.000000 0.056337 0.000000 0.000000
# 5 0.000000 0.000000 0.000000 0.000000 0.056337 0.000000
# 6 0.000000 0.000000 0.000000 0.000000 0.000000 0.027804
#
#
# Mechanical properties :
#
#
# Convention : Reuss Voigt Hill
#
# Bulk Modulus (GPa) = 41.04172 49.88440 45.46306
# Shear Modulus (GPa) = 21.44476 24.09410 22.76943
#
# Velocity S-wave (km/s) = 3.48760 3.69676 3.59371
# Velocity P-wave (km/s) = 6.28463 6.82024 6.55790
#
# Compressibility (1/GPa) = 0.02436545
#
# Stress axis : x y z
#
# Youngs Moduli (GPa) = 60.65140 60.65188 46.54112
#
# Poissons Ratio (x) = 0.56796 0.13226
# Poissons Ratio (y) = 0.56795 0.13227
# Poissons Ratio (z) = 0.17236 0.17237
#
# Static dielectric constant tensor:
#      x y z
#    x 3.615840 0.000000 0.000000 
#    y 0.000000 3.615840 0.000000 
#    z 0.000000 0.000000 3.040780 
# 
# 
# High freq. dielectric constant tensor:
#      x y z
#    x 1.695570 0.000000 0.000000 
#    y 0.000000 1.695570 0.000000 
#    z 0.000000 0.000000 1.655560 
# 
# From -- ./inp_files/70617.got.cif
#   From: 2010.03.12/outbox.cif.g09.slc.cpg/sg65_36_cif.got.tgz:70617.got - 2010.04.10 20:52:16.
