data_PCOD8268168
_publ_section_title
;
Structure prediction by ZEFSAII (Michael W. Deem and Ramdas Pophale) SiO2 
 PCOD8268168
Probable space group: C M M M
;
_chemical_formula_sum "Si O2"
_cell_formula_units_Z 88
_cell_length_a 8.600163
_cell_length_b 27.454622
_cell_length_c 21.177059
_cell_angle_alpha 90.000000
_cell_angle_beta 90.000000
_cell_angle_gamma 90.000000
_cell_volume 5000.204859
_symmetry_space_group_name_H-M "C M M M"
_symmetry_group_IT_number 65
_symmetry_cell_setting 'orthorhombic'
loop_
_space_group_symop_operation_xyz
x,y,z
-x,-y,z
x,-y,-z
-x,y,-z
-x,-y,-z
x,y,-z
-x,y,z
x,-y,z
1/2+x,1/2+y,z
1/2-x,1/2-y,z
1/2+x,1/2-y,-z
1/2-x,1/2+y,-z
1/2-x,1/2-y,-z
1/2+x,1/2+y,-z
1/2-x,1/2+y,z
1/2+x,1/2-y,z
loop_
_atom_site_type_symbol
_atom_site_label
_atom_site_fract_x
_atom_site_fract_y
_atom_site_fract_z
Si Si1 0.683557 0.052897 0.747670
Si Si2 0.681970 0.697544 0.071808
Si Si3 0.316008 0.444172 0.500000
Si Si4 0.183861 0.351624 0.811726
Si Si5 0.815921 0.606404 0.622833
Si Si6 0.684264 0.697523 0.690793
O O1 0.500000 0.048693 0.750746
O O2 0.740150 0.093101 0.798004
O O3 0.734055 0.069265 0.677924
O O4 0.759018 0.000000 0.762716
O O5 0.500000 0.698691 0.084905
O O6 0.750000 0.750000 0.087785
O O7 0.763656 0.658883 0.117190
O O8 0.720303 0.682365 0.000000
O O9 0.252831 0.500000 0.500000
O O10 0.500000 0.444235 0.500000
O O11 0.255524 0.414695 0.559681
O O12 0.261919 0.315198 0.761860
O O13 0.000000 0.346070 0.803955
O O14 0.748455 0.659493 0.639250
O O15 0.000000 0.611046 0.616212
O O16 0.500000 0.698139 0.688374
O O17 0.750000 0.750000 0.671808
#
# Coordination Sequence:
#
# PCOD8268168 Si02
#       6
#    16  16   8  16  16  16
#     4   8  15  29  50  75 100 126 161 206 250 291
#     4  10  20  33  49  70  98 131 166 205 251 302
#     4  11  23  37  54  79 110 141 173 211 257 305
#     4  10  19  31  50  76 103 132 168 208 250 298
#     4  10  20  35  55  79 104 134 173 213 257 305
#     4  11  21  35  54  76 105 137 170 209 253 302
#
# _framework density 17.599278000000002
#
# number of rings (size 3 to 8) (size 9 to 14) (size 15 to 20)
#    0.000    2.091    0.000    5.727    0.000    2.545 
#    0.000    0.455    0.000   11.455    0.000    3.818 
#    0.000    0.000    0.000    0.000    0.000    0.000 
#
# Total GULP energy -545576.752113 kJ/mol
# GULP energy per Si atom -12399.471639 kJ/mol
# Density = 1.755922 g / cm^3
# Si number density = 17.599278 Si / 1000 Ang^3
#
#
#
# Elastic Constant Matrix: (Units=GPa)
#
#
# Indices 1 2 3 4 5 6 
#
# 1 86.9750 47.6976 40.5505 0.0000 0.0000 0.0000
# 2 47.6976 155.1365 76.9288 0.0000 0.0000 0.0000
# 3 40.5505 76.9288 125.0318 0.0000 0.0000 0.0000
# 4 0.0000 0.0000 0.0000 23.9053 0.0000 0.0000
# 5 0.0000 0.0000 0.0000 0.0000 30.2053 0.0000
# 6 0.0000 0.0000 0.0000 0.0000 0.0000 20.8282
#
#
#
# Elastic Compliance Matrix: (Units=1/GPa)
#
#
# Indices 1 2 3 4 5 6 
#
# 1 0.014488 -0.003057 -0.002818 0.000000 0.000000 0.000000
# 2 -0.003057 0.009921 -0.005113 0.000000 0.000000 0.000000
# 3 -0.002818 -0.005113 0.012058 0.000000 0.000000 0.000000
# 4 0.000000 0.000000 0.000000 0.041832 0.000000 0.000000
# 5 0.000000 0.000000 0.000000 0.000000 0.033107 0.000000
# 6 0.000000 0.000000 0.000000 0.000000 0.000000 0.048012
#
#
# Mechanical properties :
#
#
# Convention : Reuss Voigt Hill
#
# Bulk Modulus (GPa) = 69.00679 77.49968 73.25323
# Shear Modulus (GPa) = 26.84960 28.45219 27.65090
#
# Velocity S-wave (km/s) = 3.91014 4.02514 3.96806
# Velocity P-wave (km/s) = 7.72533 8.10763 7.91879
#
# Compressibility (1/GPa) = 0.01449133
#
# Stress axis : x y z
#
# Youngs Moduli (GPa) = 69.02355 100.79470 82.93548
#
# Poissons Ratio (x) = 0.30814 0.23369
# Poissons Ratio (y) = 0.21101 0.42403
# Poissons Ratio (z) = 0.19449 0.51534
#
# Static dielectric constant tensor:
#      x y z
#    x 3.257920 0.000000 0.000000 
#    y 0.000000 3.595820 0.000000 
#    z 0.000000 0.000000 3.206800 
# 
# 
# High freq. dielectric constant tensor:
#      x y z
#    x 1.683570 0.000000 0.000000 
#    y 0.000000 1.683620 0.000000 
#    z 0.000000 0.000000 1.670800 
# 
# From -- ./inp_files/60681.got.cif
#   From: 2010.03.12/outbox.cif.g09.slc.cpg/sg65_31_cif.got.tgz:60681.got - 2010.04.10 20:52:16.
