data_PCOD8268197
_publ_section_title
;
Structure prediction by ZEFSAII (Michael W. Deem and Ramdas Pophale) SiO2 
 PCOD8268197
Probable space group: C M M M
;
_chemical_formula_sum "Si O2"
_cell_formula_units_Z 72
_cell_length_a 29.954009
_cell_length_b 14.833650
_cell_length_c 7.653218
_cell_angle_alpha 90.000000
_cell_angle_beta 90.000000
_cell_angle_gamma 90.000000
_cell_volume 3400.533580
_symmetry_space_group_name_H-M "C M M M"
_symmetry_group_IT_number 65
_symmetry_cell_setting 'orthorhombic'
loop_
_space_group_symop_operation_xyz
x,y,z
-x,-y,z
x,-y,-z
-x,y,-z
-x,-y,-z
x,y,-z
-x,y,z
x,-y,z
1/2+x,1/2+y,z
1/2-x,1/2-y,z
1/2+x,1/2-y,-z
1/2-x,1/2+y,-z
1/2-x,1/2-y,-z
1/2+x,1/2+y,-z
1/2-x,1/2+y,z
1/2+x,1/2-y,z
loop_
_atom_site_type_symbol
_atom_site_label
_atom_site_fract_x
_atom_site_fract_y
_atom_site_fract_z
Si Si1 0.732297 0.655824 0.798667
Si Si2 0.947277 0.394778 0.000000
Si Si3 0.863505 0.098229 0.699096
Si Si4 0.400823 0.782678 0.301944
Si Si5 0.172826 0.402637 0.798993
O O1 0.750000 0.750000 0.720969
O O2 0.689237 0.618124 0.701859
O O3 0.774037 0.589494 0.771961
O O4 0.718289 0.667684 0.000000
O O5 0.930999 0.343027 0.174320
O O6 0.931353 0.500000 0.000000
O O7 0.000000 0.390175 0.000000
O O8 0.877856 0.090585 0.500000
O O9 0.893404 0.180854 0.775895
O O10 0.873101 0.000000 0.790374
O O11 0.420814 0.781150 0.500000
O O12 0.351339 0.826552 0.315408
O O13 0.152943 0.500000 0.747835
O O14 0.161346 0.379301 0.000000
#
# Coordination Sequence:
#
# PCOD8268197 Si02
#       5
#    16   8  16  16  16
#     4  10  19  31  50  77 115 164 216 266 309 350
#     4  11  26  48  73 100 129 155 185 237 305 385
#     4  10  22  38  56  83 122 168 218 268 310 352
#     4  11  23  40  65  94 126 162 204 253 307 367
#     4  10  19  32  51  78 118 163 206 255 305 352
#
# _framework density 21.173148000000001
#
# number of rings (size 3 to 8) (size 9 to 14) (size 15 to 20)
#    0.000    1.667    3.333    1.333    1.556    4.889 
#    0.000    1.111    0.000    1.333    0.000    3.111 
#    0.000    0.000    0.000    0.000    0.000    0.000 
#
# Total GULP energy -445973.320689 kJ/mol
# GULP energy per Si atom -12388.147797 kJ/mol
# Density = 2.112496 g / cm^3
# Si number density = 21.173148 Si / 1000 Ang^3
#
#
#
# Elastic Constant Matrix: (Units=GPa)
#
#
# Indices 1 2 3 4 5 6 
#
# 1 56.8572 54.1810 20.8882 0.0000 0.0000 0.0000
# 2 54.1810 189.0077 41.0483 0.0000 0.0000 0.0000
# 3 20.8882 41.0483 68.4060 0.0000 0.0000 0.0000
# 4 0.0000 0.0000 0.0000 22.0444 0.0000 0.0000
# 5 0.0000 0.0000 0.0000 0.0000 17.1927 0.0000
# 6 0.0000 0.0000 0.0000 0.0000 0.0000 23.1057
#
#
#
# Elastic Compliance Matrix: (Units=1/GPa)
#
#
# Indices 1 2 3 4 5 6 
#
# 1 0.025046 -0.006346 -0.003840 0.000000 0.000000 0.000000
# 2 -0.006346 0.007691 -0.002678 0.000000 0.000000 0.000000
# 3 -0.003840 -0.002678 0.017398 0.000000 0.000000 0.000000
# 4 0.000000 0.000000 0.000000 0.045363 0.000000 0.000000
# 5 0.000000 0.000000 0.000000 0.000000 0.058164 0.000000
# 6 0.000000 0.000000 0.000000 0.000000 0.000000 0.043279
#
#
# Mechanical properties :
#
#
# Convention : Reuss Voigt Hill
#
# Bulk Modulus (GPa) = 40.96968 60.72288 50.84628
# Shear Modulus (GPa) = 21.66337 25.67877 23.67107
#
# Velocity S-wave (km/s) = 3.20215 3.48630 3.34724
# Velocity P-wave (km/s) = 5.75009 6.70427 6.24543
#
# Compressibility (1/GPa) = 0.02440829
#
# Stress axis : x y z
#
# Youngs Moduli (GPa) = 39.92717 130.01608 57.47796
#
# Poissons Ratio (x) = 0.82503 0.22072
# Poissons Ratio (y) = 0.25336 0.15391
# Poissons Ratio (z) = 0.15332 0.34814
#
# Static dielectric constant tensor:
#      x y z
#    x 3.451910 0.000000 0.000000 
#    y 0.000000 4.521120 0.000000 
#    z 0.000000 0.000000 3.596870 
# 
# 
# High freq. dielectric constant tensor:
#      x y z
#    x 1.779070 0.000000 0.000000 
#    y 0.000000 1.854710 0.000000 
#    z 0.000000 0.000000 1.810800 
# 
# From -- ./inp_files/18034.got.cif
#   From: 2010.03.12/outbox.cif.g09.slc.cpg/sg65_10_cif.got.tgz:18034.got - 2010.04.10 20:52:16.
