data_PCOD8268246
_publ_section_title
;
Structure prediction by ZEFSAII (Michael W. Deem and Ramdas Pophale) SiO2 
 PCOD8268246
Probable space group: C M M M
;
_chemical_formula_sum "Si O2"
_cell_formula_units_Z 88
_cell_length_a 19.184657
_cell_length_b 13.378380
_cell_length_c 18.213720
_cell_angle_alpha 90.000000
_cell_angle_beta 90.000000
_cell_angle_gamma 90.000000
_cell_volume 4674.726664
_symmetry_space_group_name_H-M "C M M M"
_symmetry_group_IT_number 65
_symmetry_cell_setting 'orthorhombic'
loop_
_space_group_symop_operation_xyz
x,y,z
-x,-y,z
x,-y,-z
-x,y,-z
-x,-y,-z
x,y,-z
-x,y,z
x,-y,z
1/2+x,1/2+y,z
1/2-x,1/2-y,z
1/2+x,1/2-y,-z
1/2-x,1/2+y,-z
1/2-x,1/2-y,-z
1/2+x,1/2+y,-z
1/2-x,1/2+y,z
1/2+x,1/2-y,z
loop_
_atom_site_type_symbol
_atom_site_label
_atom_site_fract_x
_atom_site_fract_y
_atom_site_fract_z
Si Si1 0.790711 0.883556 0.719802
Si Si2 0.144051 0.204369 0.584231
Si Si3 0.000000 0.109808 0.413039
Si Si4 0.079669 0.616561 0.083051
Si Si5 0.420750 0.114532 0.355242
Si Si6 0.146433 0.695476 0.778064
O O1 0.796037 0.845039 0.634790
O O2 0.843651 0.814775 0.767276
O O3 0.713784 0.865700 0.750380
O O4 0.811074 0.000000 0.726279
O O5 0.162008 0.178450 0.500000
O O6 0.069941 0.163281 0.613560
O O7 0.134825 0.323670 0.595196
O O8 0.000000 0.105937 0.500000
O O9 0.000000 0.000000 0.378289
O O10 0.086982 0.500000 0.100551
O O11 0.130572 0.677391 0.136658
O O12 0.000000 0.650876 0.094208
O O13 0.103670 0.639526 0.000000
O O14 0.500000 0.127879 0.383662
O O15 0.417007 0.153313 0.271039
O O16 0.397362 0.000000 0.360692
#
# Coordination Sequence:
#
# PCOD8268246 Si02
#       6
#    16  16   8  16  16  16
#     4  10  21  36  53  75 104 140 183 221 258 312
#     4  10  20  34  51  72  97 130 176 228 274 316
#     4   9  16  28  47  67  87 117 159 214 272 310
#     4   9  17  31  57  91 117 138 170 212 256 301
#     4  10  19  31  51  77 104 136 171 213 271 331
#     4  10  20  35  55  77 108 143 173 212 258 310
#
# _framework density 18.824629000000002
#
# number of rings (size 3 to 8) (size 9 to 14) (size 15 to 20)
#    0.000    2.273    0.909    3.273    0.000    2.909 
#    0.000   10.000    0.000    8.182    0.000    1.273 
#    0.000    0.000    0.000    0.000    0.000    0.000 
#
# Total GULP energy -545399.942708 kJ/mol
# GULP energy per Si atom -12395.453243 kJ/mol
# Density = 1.878178 g / cm^3
# Si number density = 18.824629 Si / 1000 Ang^3
#
#
#
# Elastic Constant Matrix: (Units=GPa)
#
#
# Indices 1 2 3 4 5 6 
#
# 1 67.4603 35.2514 45.1175 0.0000 0.0000 0.0000
# 2 35.2514 144.8865 45.3717 0.0000 0.0000 0.0000
# 3 45.1175 45.3717 132.0884 0.0000 0.0000 0.0000
# 4 0.0000 0.0000 0.0000 22.7740 0.0000 0.0000
# 5 0.0000 0.0000 0.0000 0.0000 31.2985 0.0000
# 6 0.0000 0.0000 0.0000 0.0000 0.0000 22.1398
#
#
#
# Elastic Compliance Matrix: (Units=1/GPa)
#
#
# Indices 1 2 3 4 5 6 
#
# 1 0.020395 -0.003116 -0.005896 0.000000 0.000000 0.000000
# 2 -0.003116 0.008210 -0.001756 0.000000 0.000000 0.000000
# 3 -0.005896 -0.001756 0.010188 0.000000 0.000000 0.000000
# 4 0.000000 0.000000 0.000000 0.043910 0.000000 0.000000
# 5 0.000000 0.000000 0.000000 0.000000 0.031950 0.000000
# 6 0.000000 0.000000 0.000000 0.000000 0.000000 0.045168
#
#
# Mechanical properties :
#
#
# Convention : Reuss Voigt Hill
#
# Bulk Modulus (GPa) = 57.94661 66.21295 62.07978
# Shear Modulus (GPa) = 26.72252 29.82208 28.27230
#
# Velocity S-wave (km/s) = 3.77178 3.98453 3.87961
# Velocity P-wave (km/s) = 7.05816 7.51123 7.28821
#
# Compressibility (1/GPa) = 0.01725727
#
# Stress axis : x y z
#
# Youngs Moduli (GPa) = 49.03166 121.80462 98.15742
#
# Poissons Ratio (x) = 0.37952 0.57874
# Poissons Ratio (y) = 0.15277 0.17234
# Poissons Ratio (z) = 0.28909 0.21386
#
# Static dielectric constant tensor:
#      x y z
#    x 3.379560 0.000000 0.000000 
#    y 0.000000 3.538430 0.000000 
#    z 0.000000 0.000000 3.277240 
# 
# 
# High freq. dielectric constant tensor:
#      x y z
#    x 1.725140 0.000000 0.000000 
#    y 0.000000 1.730740 0.000000 
#    z 0.000000 0.000000 1.706850 
# 
# From -- ./inp_files/55782.got.cif
#   From: 2010.03.12/outbox.cif.g09.slc.cpg/sg65_28_cif.got.tgz:55782.got - 2010.04.10 20:52:16.
