data_PCOD8268784
_publ_section_title
;
Structure prediction by ZEFSAII (Michael W. Deem and Ramdas Pophale) SiO2 
 PCOD8268784
Probable space group: C M M M
;
_chemical_formula_sum "Si O2"
_cell_formula_units_Z 80
_cell_length_a 18.191486
_cell_length_b 8.816740
_cell_length_c 25.908801
_cell_angle_alpha 90.000000
_cell_angle_beta 90.000000
_cell_angle_gamma 90.000000
_cell_volume 4155.502288
_symmetry_space_group_name_H-M "C M M M"
_symmetry_group_IT_number 65
_symmetry_cell_setting 'orthorhombic'
loop_
_space_group_symop_operation_xyz
x,y,z
-x,-y,z
x,-y,-z
-x,y,-z
-x,-y,-z
x,y,-z
-x,y,z
x,-y,z
1/2+x,1/2+y,z
1/2-x,1/2-y,z
1/2+x,1/2-y,-z
1/2-x,1/2+y,-z
1/2-x,1/2-y,-z
1/2+x,1/2+y,-z
1/2-x,1/2+y,z
1/2+x,1/2-y,z
loop_
_atom_site_type_symbol
_atom_site_label
_atom_site_fract_x
_atom_site_fract_y
_atom_site_fract_z
Si Si1 0.671220 0.822825 0.054433
Si Si2 0.830601 0.679711 0.833505
Si Si3 0.170872 0.321573 0.648070
Si Si4 0.915828 0.825154 0.440389
Si Si5 0.413173 0.326768 0.740731
O O1 0.750000 0.750000 0.052655
O O2 0.634891 0.778084 0.109505
O O3 0.684145 0.000000 0.055219
O O4 0.628848 0.777826 0.000000
O O5 0.825171 0.500000 0.824862
O O6 0.750000 0.750000 0.826070
O O7 0.886033 0.750754 0.793099
O O8 0.178634 0.500000 0.652289
O O9 0.250000 0.250000 0.656568
O O10 0.138534 0.278781 0.592345
O O11 0.116627 0.262638 0.691784
O O12 0.896042 0.799525 0.500000
O O13 0.000000 0.778079 0.429643
O O14 0.903991 0.000000 0.424753
O O15 0.500000 0.315881 0.739323
O O16 0.385892 0.500000 0.738344
#
# Coordination Sequence:
#
# PCOD8268784 Si02
#       5
#    16  16  16  16  16
#     4   8  14  25  43  70 103 137 172 212 260 312
#     4  10  19  32  53  80 110 141 177 222 268 319
#     4  12  25  40  60  85 114 146 183 228 274 322
#     4   9  19  38  63  89 119 154 188 223 267 319
#     4  11  24  41  59  78 105 141 180 224 275 330
#
# _framework density 19.251583
#
# number of rings (size 3 to 8) (size 9 to 14) (size 15 to 20)
#    0.000    2.000    0.000    4.800    0.000    6.000 
#    0.000    1.000    0.000    0.600    0.000    4.200 
#    0.000    0.000    0.000    0.000    0.000    0.000 
#
# Total GULP energy -495699.907692 kJ/mol
# GULP energy per Si atom -12392.497692 kJ/mol
# Density = 1.920777 g / cm^3
# Si number density = 19.251583 Si / 1000 Ang^3
#
#
#
# Elastic Constant Matrix: (Units=GPa)
#
#
# Indices 1 2 3 4 5 6 
#
# 1 59.3691 39.6148 39.5728 0.0000 0.0000 0.0000
# 2 39.6148 116.7673 55.7946 0.0000 0.0000 0.0000
# 3 39.5728 55.7946 137.8453 0.0000 0.0000 0.0000
# 4 0.0000 0.0000 0.0000 30.1450 0.0000 0.0000
# 5 0.0000 0.0000 0.0000 0.0000 7.7196 0.0000
# 6 0.0000 0.0000 0.0000 0.0000 0.0000 26.5836
#
#
#
# Elastic Compliance Matrix: (Units=1/GPa)
#
#
# Indices 1 2 3 4 5 6 
#
# 1 0.023755 -0.005952 -0.004411 0.000000 0.000000 0.000000
# 2 -0.005952 0.012109 -0.003193 0.000000 0.000000 0.000000
# 3 -0.004411 -0.003193 0.009813 0.000000 0.000000 0.000000
# 4 0.000000 0.000000 0.000000 0.033173 0.000000 0.000000
# 5 0.000000 0.000000 0.000000 0.000000 0.129540 0.000000
# 6 0.000000 0.000000 0.000000 0.000000 0.000000 0.037617
#
#
# Mechanical properties :
#
#
# Convention : Reuss Voigt Hill
#
# Bulk Modulus (GPa) = 53.85896 64.88290 59.37093
# Shear Modulus (GPa) = 17.90152 24.82292 21.36222
#
# Velocity S-wave (km/s) = 3.05269 3.59471 3.33473
# Velocity P-wave (km/s) = 6.36100 7.14178 6.76267
#
# Compressibility (1/GPa) = 0.01856701
#
# Stress axis : x y z
#
# Youngs Moduli (GPa) = 42.09635 82.58518 101.90631
#
# Poissons Ratio (x) = 0.49152 0.44947
# Poissons Ratio (y) = 0.25054 0.32534
# Poissons Ratio (z) = 0.18567 0.26366
#
# Static dielectric constant tensor:
#      x y z
#    x 3.207800 0.000000 0.000000 
#    y 0.000000 3.623290 0.000000 
#    z 0.000000 0.000000 4.197710 
# 
# 
# High freq. dielectric constant tensor:
#      x y z
#    x 1.715800 0.000000 0.000000 
#    y 0.000000 1.755800 0.000000 
#    z 0.000000 0.000000 1.780880 
# 
# From -- ./inp_files/72763.got.cif
#   From: 2010.03.12/outbox.cif.g09.slc.cpg/sg65_37_cif.got.tgz:72763.got - 2010.04.10 20:52:16.
