data_PCOD8268840
_publ_section_title
;
Structure prediction by ZEFSAII (Michael W. Deem and Ramdas Pophale) SiO2 
 PCOD8268840
Probable space group: C M M M
;
_chemical_formula_sum "Si O2"
_cell_formula_units_Z 80
_cell_length_a 28.439271
_cell_length_b 9.251203
_cell_length_c 20.580723
_cell_angle_alpha 90.000000
_cell_angle_beta 90.000000
_cell_angle_gamma 90.000000
_cell_volume 5414.736135
_symmetry_space_group_name_H-M "C M M M"
_symmetry_group_IT_number 65
_symmetry_cell_setting 'orthorhombic'
loop_
_space_group_symop_operation_xyz
x,y,z
-x,-y,z
x,-y,-z
-x,y,-z
-x,-y,-z
x,y,-z
-x,y,z
x,-y,z
1/2+x,1/2+y,z
1/2-x,1/2-y,z
1/2+x,1/2-y,-z
1/2-x,1/2+y,-z
1/2-x,1/2-y,-z
1/2+x,1/2+y,-z
1/2-x,1/2+y,z
1/2+x,1/2-y,z
loop_
_atom_site_type_symbol
_atom_site_label
_atom_site_fract_x
_atom_site_fract_y
_atom_site_fract_z
Si Si1 0.445691 0.167166 0.750389
Si Si2 0.444041 0.663354 0.375535
Si Si3 0.396560 0.831293 0.116601
Si Si4 0.556107 0.836151 0.500000
Si Si5 0.794919 0.332722 0.925591
Si Si6 0.055318 0.832604 0.000000
O O1 0.500000 0.201495 0.765810
O O2 0.426522 0.261700 0.690589
O O3 0.415388 0.210960 0.812734
O O4 0.439090 0.000000 0.731769
O O5 0.500000 0.663914 0.377610
O O6 0.424529 0.500000 0.378667
O O7 0.424311 0.753224 0.436693
O O8 0.341312 0.792868 0.115154
O O9 0.424310 0.739732 0.064115
O O10 0.404822 0.000000 0.100805
O O11 0.500000 0.836634 0.500000
O O12 0.575367 0.000000 0.500000
O O13 0.782968 0.500000 0.920765
O O14 0.750000 0.250000 0.896099
O O15 0.804141 0.285507 0.000000
O O16 0.000000 0.809345 0.000000
O O17 0.069414 0.000000 0.000000
#
# Coordination Sequence:
#
# PCOD8268840 Si02
#       6
#    16  16  16   8  16   8
#     4   9  17  28  42  59  79 107 142 175 206 242
#     4   9  16  25  37  54  78 107 137 170 208 246
#     4  10  19  33  49  63  80 108 144 177 210 254
#     4   9  15  23  37  55  75 101 138 179 208 235
#     4   9  17  30  47  66  84 102 130 170 216 263
#     4  11  23  33  42  61  86 109 138 177 216 251
#
# _framework density 14.774497
#
# number of rings (size 3 to 8) (size 9 to 14) (size 15 to 20)
#    0.000    2.600    1.000    1.800    0.000    6.800 
#    0.000    2.000    0.000    0.000    0.000    0.000 
#    0.000    0.000    0.000    0.900    0.000   10.900 
#
# Total GULP energy -496010.159740 kJ/mol
# GULP energy per Si atom -12400.253994 kJ/mol
# Density = 1.474087 g / cm^3
# Si number density = 14.774497 Si / 1000 Ang^3
#
#
#
# Elastic Constant Matrix: (Units=GPa)
#
#
# Indices 1 2 3 4 5 6 
#
# 1 63.7217 40.5724 50.9963 0.0000 0.0000 0.0000
# 2 40.5724 98.3289 73.3789 0.0000 0.0000 0.0000
# 3 50.9963 73.3789 129.0150 0.0000 0.0000 0.0000
# 4 0.0000 0.0000 0.0000 19.1425 0.0000 0.0000
# 5 0.0000 0.0000 0.0000 0.0000 -2.3049 0.0000
# 6 0.0000 0.0000 0.0000 0.0000 0.0000 18.2988
#
#
#
# Elastic Compliance Matrix: (Units=1/GPa)
#
#
# Indices 1 2 3 4 5 6 
#
# 1 0.024272 -0.004961 -0.006772 0.000000 0.000000 0.000000
# 2 -0.004961 0.018684 -0.008666 0.000000 0.000000 0.000000
# 3 -0.006772 -0.008666 0.015357 0.000000 0.000000 0.000000
# 4 0.000000 0.000000 0.000000 0.052240 0.000000 0.000000
# 5 0.000000 0.000000 0.000000 0.000000 -0.433866 0.000000
# 6 0.000000 0.000000 0.000000 0.000000 0.000000 0.054648
#
#
# Mechanical properties :
#
#
# Convention : Reuss Voigt Hill
#
# Bulk Modulus (GPa) = 57.09668 68.99563 63.04615
# Shear Modulus (GPa) = -22.51961 15.43515 -3.54223
#
# Velocity S-wave (km/s) = -3.90836 3.23571 -1.55008
# Velocity P-wave (km/s) = 4.28512 7.79489 6.28978
#
# Compressibility (1/GPa) = 0.01751415
#
# Stress axis : x y z
#
# Youngs Moduli (GPa) = 41.19985 53.52216 65.11821
#
# Poissons Ratio (x) = 0.26553 0.44100
# Poissons Ratio (y) = 0.20440 0.56429
# Poissons Ratio (z) = 0.27902 0.46381
#
# Static dielectric constant tensor:
#      x y z
#    x 2.601340 0.000000 0.000000 
#    y 0.000000 2.986450 0.000000 
#    z 0.000000 0.000000 2.915980 
# 
# 
# High freq. dielectric constant tensor:
#      x y z
#    x 1.518220 0.000000 0.000000 
#    y 0.000000 1.575370 0.000000 
#    z 0.000000 0.000000 1.560290 
# 
# From -- ./inp_files/60539.got.cif
#   From: 2010.03.12/outbox.cif.g09.slc.cpg/sg65_31_cif.got.tgz:60539.got - 2010.04.10 20:52:16.
