data_PCOD8268870
_publ_section_title
;
Structure prediction by ZEFSAII (Michael W. Deem and Ramdas Pophale) SiO2 
 PCOD8268870
Probable space group: C M M M
;
_chemical_formula_sum "Si O2"
_cell_formula_units_Z 88
_cell_length_a 28.583417
_cell_length_b 17.806264
_cell_length_c 9.605125
_cell_angle_alpha 90.000000
_cell_angle_beta 90.000000
_cell_angle_gamma 90.000000
_cell_volume 4888.661583
_symmetry_space_group_name_H-M "C M M M"
_symmetry_group_IT_number 65
_symmetry_cell_setting 'orthorhombic'
loop_
_space_group_symop_operation_xyz
x,y,z
-x,-y,z
x,-y,-z
-x,y,-z
-x,-y,-z
x,y,-z
-x,y,z
x,-y,z
1/2+x,1/2+y,z
1/2-x,1/2-y,z
1/2+x,1/2-y,-z
1/2-x,1/2+y,-z
1/2-x,1/2-y,-z
1/2+x,1/2+y,-z
1/2-x,1/2+y,z
1/2+x,1/2-y,z
loop_
_atom_site_type_symbol
_atom_site_label
_atom_site_fract_x
_atom_site_fract_y
_atom_site_fract_z
Si Si1 0.553953 0.726370 0.163842
Si Si2 0.704416 0.913439 0.340127
Si Si3 0.211440 0.910864 0.845535
Si Si4 0.052453 0.500000 0.334613
Si Si5 0.104367 0.352237 0.336910
Si Si6 0.108902 0.917276 0.835156
O O1 0.500000 0.737125 0.205498
O O2 0.586112 0.782574 0.249378
O O3 0.569340 0.642275 0.208203
O O4 0.561836 0.739745 0.000000
O O5 0.719154 0.907654 0.500000
O O6 0.747410 0.879393 0.252291
O O7 0.659303 0.862640 0.308701
O O8 0.692896 0.000000 0.301685
O O9 0.160285 0.889520 0.783206
O O10 0.214687 0.000000 0.851543
O O11 0.218535 0.876762 0.000000
O O12 0.053814 0.500000 0.500000
O O13 0.078095 0.425911 0.279508
O O14 0.000000 0.500000 0.275617
O O15 0.093959 0.339045 0.500000
O O16 0.096139 0.000000 0.773378
O O17 0.112442 0.924418 0.000000
#
# Coordination Sequence:
#
# PCOD8268870 Si02
#       6
#    16  16  16   8  16  16
#     4  10  21  35  51  74 102 128 159 206 258 296
#     4   9  16  28  47  72 100 128 163 205 242 279
#     4   8  14  26  47  73  97 124 160 198 240 290
#     4   9  16  28  49  71  89 121 173 213 232 273
#     4  10  19  33  51  72  98 132 170 204 242 290
#     4   8  15  31  54  76  98 127 164 202 240 295
#
# _framework density 18.000837000000001
#
# number of rings (size 3 to 8) (size 9 to 14) (size 15 to 20)
#    0.000    3.000    0.909    1.636    0.000    2.182 
#    0.000    4.091    0.000    8.727    0.000    1.273 
#    0.000    0.000    0.000    0.000    0.000    0.000 
#
# Total GULP energy -545395.808833 kJ/mol
# GULP energy per Si atom -12395.359292 kJ/mol
# Density = 1.795987 g / cm^3
# Si number density = 18.000837 Si / 1000 Ang^3
#
#
#
# Elastic Constant Matrix: (Units=GPa)
#
#
# Indices 1 2 3 4 5 6 
#
# 1 79.7622 32.7500 33.2305 0.0000 0.0000 0.0000
# 2 32.7500 83.6925 27.7188 0.0000 0.0000 0.0000
# 3 33.2305 27.7188 43.6185 0.0000 0.0000 0.0000
# 4 0.0000 0.0000 0.0000 20.4667 0.0000 0.0000
# 5 0.0000 0.0000 0.0000 0.0000 19.6191 0.0000
# 6 0.0000 0.0000 0.0000 0.0000 0.0000 26.0682
#
#
#
# Elastic Compliance Matrix: (Units=1/GPa)
#
#
# Indices 1 2 3 4 5 6 
#
# 1 0.019085 -0.003360 -0.012405 0.000000 0.000000 0.000000
# 2 -0.003360 0.015725 -0.007433 0.000000 0.000000 0.000000
# 3 -0.012405 -0.007433 0.037100 0.000000 0.000000 0.000000
# 4 0.000000 0.000000 0.000000 0.048860 0.000000 0.000000
# 5 0.000000 0.000000 0.000000 0.000000 0.050971 0.000000
# 6 0.000000 0.000000 0.000000 0.000000 0.000000 0.038361
#
#
# Mechanical properties :
#
#
# Convention : Reuss Voigt Hill
#
# Bulk Modulus (GPa) = 39.19321 43.83019 41.51170
# Shear Modulus (GPa) = 18.86777 20.78906 19.82841
#
# Velocity S-wave (km/s) = 3.24104 3.40206 3.32253
# Velocity P-wave (km/s) = 5.98549 6.31141 6.15061
#
# Compressibility (1/GPa) = 0.02551462
#
# Stress axis : x y z
#
# Youngs Moduli (GPa) = 52.39779 63.59238 26.95401
#
# Poissons Ratio (x) = 0.21365 0.33435
# Poissons Ratio (y) = 0.17604 0.20036
# Poissons Ratio (z) = 0.64997 0.47271
#
# Static dielectric constant tensor:
#      x y z
#    x 3.567020 0.000000 0.000000 
#    y 0.000000 3.262070 0.000000 
#    z 0.000000 0.000000 3.100310 
# 
# 
# High freq. dielectric constant tensor:
#      x y z
#    x 1.709120 0.000000 0.000000 
#    y 0.000000 1.677250 0.000000 
#    z 0.000000 0.000000 1.660670 
# 
# From -- ./inp_files/18276.got.cif
#   From: 2010.03.12/outbox.cif.g09.slc.cpg/sg65_10_cif.got.tgz:18276.got - 2010.04.10 20:52:16.
