data_PCOD8268732
_publ_section_title
;
Structure prediction by ZEFSAII (Michael W. Deem and Ramdas Pophale) SiO2 
 PCOD8268732
Probable space group: C M M M
;
_chemical_formula_sum "Si O2"
_cell_formula_units_Z 120
_cell_length_a 19.888693
_cell_length_b 28.232939
_cell_length_c 12.290915
_cell_angle_alpha 90.000000
_cell_angle_beta 90.000000
_cell_angle_gamma 90.000000
_cell_volume 6901.548577
_symmetry_space_group_name_H-M "C M M M"
_symmetry_group_IT_number 65
_symmetry_cell_setting 'orthorhombic'
loop_
_space_group_symop_operation_xyz
x,y,z
-x,-y,z
x,-y,-z
-x,y,-z
-x,-y,-z
x,y,-z
-x,y,z
x,-y,z
1/2+x,1/2+y,z
1/2-x,1/2-y,z
1/2+x,1/2-y,-z
1/2-x,1/2+y,-z
1/2-x,1/2-y,-z
1/2+x,1/2+y,-z
1/2-x,1/2+y,z
1/2+x,1/2-y,z
loop_
_atom_site_type_symbol
_atom_site_label
_atom_site_fract_x
_atom_site_fract_y
_atom_site_fract_z
Si Si1 0.920217 0.216007 0.284692
Si Si2 0.075710 0.056250 0.000000
Si Si3 0.815265 0.357776 0.744362
Si Si4 0.428644 0.815582 0.623197
Si Si5 0.849832 0.947189 0.791449
Si Si6 0.799455 0.552033 0.874656
Si Si7 0.323966 0.235725 0.872283
Si Si8 0.327708 0.633809 0.630243
O O1 0.906656 0.261170 0.360914
O O2 0.880855 0.228274 0.172946
O O3 0.885776 0.171724 0.344725
O O4 0.000000 0.206192 0.265049
O O5 0.105800 0.076793 0.887412
O O6 0.000000 0.072736 0.000000
O O7 0.087008 0.000000 0.000000
O O8 0.871341 0.352739 0.652897
O O9 0.831406 0.408294 0.798195
O O10 0.832338 0.318102 0.833796
O O11 0.742037 0.351961 0.689457
O O12 0.443032 0.824743 0.500000
O O13 0.500000 0.824486 0.686351
O O14 0.778074 0.950417 0.846440
O O15 0.851938 0.915970 0.681899
O O16 0.875334 0.000000 0.759334
O O17 0.831963 0.500000 0.852661
O O18 0.808664 0.566574 0.000000
O O19 0.250000 0.250000 0.832049
O O20 0.331450 0.238231 0.000000
O O21 0.317730 0.628446 0.500000
#
# Coordination Sequence:
#
# PCOD8268732 Si02
#       8
#    16   8  16  16  16  16  16  16
#     4  10  21  37  52  74 105 141 179 213 260 315
#     4   9  16  30  52  72  92 121 165 223 273 318
#     4  10  19  32  52  80 105 135 173 216 260 312
#     4   9  18  33  54  75  98 132 171 212 256 308
#     4   9  18  33  51  73 101 134 175 222 271 316
#     4   9  16  29  51  76 103 133 166 208 257 309
#     4  10  19  34  54  77 106 137 170 214 267 316
#     4  11  22  34  51  76 107 143 181 223 265 308
#
# _framework density 17.387402999999999
#
# number of rings (size 3 to 8) (size 9 to 14) (size 15 to 20)
#    0.000    2.333    2.000    1.200    0.000    1.867 
#    1.200    2.000    0.000    2.800    0.000    4.667 
#    0.000    0.000    0.000    0.000    0.000    0.000 
#
# Total GULP energy -743441.119678 kJ/mol
# GULP energy per Si atom -12390.685328 kJ/mol
# Density = 1.734783 g / cm^3
# Si number density = 17.387403 Si / 1000 Ang^3
#
#
#
# Elastic Constant Matrix: (Units=GPa)
#
#
# Indices 1 2 3 4 5 6 
#
# 1 81.2686 42.0535 39.0371 0.0000 0.0000 0.0000
# 2 42.0535 88.9053 46.5197 0.0000 0.0000 0.0000
# 3 39.0371 46.5197 91.0649 0.0000 0.0000 0.0000
# 4 0.0000 0.0000 0.0000 20.0974 0.0000 0.0000
# 5 0.0000 0.0000 0.0000 0.0000 18.5238 0.0000
# 6 0.0000 0.0000 0.0000 0.0000 0.0000 49.6846
#
#
#
# Elastic Compliance Matrix: (Units=1/GPa)
#
#
# Indices 1 2 3 4 5 6 
#
# 1 0.017535 -0.005952 -0.004476 0.000000 0.000000 0.000000
# 2 -0.005952 0.017372 -0.006323 0.000000 0.000000 0.000000
# 3 -0.004476 -0.006323 0.016130 0.000000 0.000000 0.000000
# 4 0.000000 0.000000 0.000000 0.049758 0.000000 0.000000
# 5 0.000000 0.000000 0.000000 0.000000 0.053984 0.000000
# 6 0.000000 0.000000 0.000000 0.000000 0.000000 0.020127
#
#
# Mechanical properties :
#
#
# Convention : Reuss Voigt Hill
#
# Bulk Modulus (GPa) = 57.03008 57.38437 57.20722
# Shear Modulus (GPa) = 23.33695 26.56974 24.95334
#
# Velocity S-wave (km/s) = 3.66755 3.91334 3.79243
# Velocity P-wave (km/s) = 7.12779 7.31396 7.22147
#
# Compressibility (1/GPa) = 0.01753461
#
# Stress axis : x y z
#
# Youngs Moduli (GPa) = 57.02872 57.56494 61.99677
#
# Poissons Ratio (x) = 0.34264 0.27751
# Poissons Ratio (y) = 0.33944 0.39198
# Poissons Ratio (z) = 0.25527 0.36396
#
# Static dielectric constant tensor:
#      x y z
#    x 2.335000 0.000000 0.000000 
#    y 0.000000 3.435850 0.000000 
#    z 0.000000 0.000000 3.229360 
# 
# 
# High freq. dielectric constant tensor:
#      x y z
#    x 1.663360 0.000000 0.000000 
#    y 0.000000 1.663470 0.000000 
#    z 0.000000 0.000000 1.668050 
# 
# From -- ./inp_files/29434.got.cif
#   From: 2010.03.12/outbox.cif.g09.slc.cpg/sg65_15_cif.got.tgz:29434.got - 2010.04.10 20:52:16.
