data_PCOD8268288
_publ_section_title
;
Structure prediction by ZEFSAII (Michael W. Deem and Ramdas Pophale) SiO2 
 PCOD8268288
Probable space group: C M M M
;
_chemical_formula_sum "Si O2"
_cell_formula_units_Z 72
_cell_length_a 9.679818
_cell_length_b 22.785368
_cell_length_c 18.012080
_cell_angle_alpha 90.000000
_cell_angle_beta 90.000000
_cell_angle_gamma 90.000000
_cell_volume 3972.712219
_symmetry_space_group_name_H-M "C M M M"
_symmetry_group_IT_number 65
_symmetry_cell_setting 'orthorhombic'
loop_
_space_group_symop_operation_xyz
x,y,z
-x,-y,z
x,-y,-z
-x,y,-z
-x,-y,-z
x,y,-z
-x,y,z
x,-y,z
1/2+x,1/2+y,z
1/2-x,1/2-y,z
1/2+x,1/2-y,-z
1/2-x,1/2+y,-z
1/2-x,1/2-y,-z
1/2+x,1/2+y,-z
1/2-x,1/2+y,z
1/2+x,1/2-y,z
loop_
_atom_site_type_symbol
_atom_site_label
_atom_site_fract_x
_atom_site_fract_y
_atom_site_fract_z
Si Si1 0.153997 0.350804 0.794918
Si Si2 0.659874 0.933282 0.662621
Si Si3 0.153150 0.155693 0.416915
Si Si4 0.840039 0.808389 0.916535
Si Si5 0.750000 0.750000 0.306989
O O1 0.185268 0.407225 0.744483
O O2 0.269885 0.353643 0.859412
O O3 0.158432 0.291494 0.745732
O O4 0.000000 0.354610 0.829558
O O5 0.500000 0.928974 0.640689
O O6 0.741735 0.896219 0.601877
O O7 0.712724 0.000000 0.662305
O O8 0.186952 0.178349 0.500000
O O9 0.156235 0.209982 0.359974
O O10 0.000000 0.128807 0.412814
O O11 0.750000 0.750000 0.910232
O O12 0.000000 0.796191 0.894608
O O13 0.831913 0.833965 0.000000
#
# Coordination Sequence:
#
# PCOD8268288 Si02
#       5
#    16  16  16  16   8
#     4  10  19  31  52  77 101 132 169 211 254 299
#     4   9  20  38  56  75 100 132 173 217 261 307
#     4  10  21  35  52  76 105 136 171 213 259 308
#     4  10  20  32  48  73 107 141 169 200 243 296
#     4  10  19  32  51  74 104 136 168 204 253 312
#
# _framework density 18.123638
#
# number of rings (size 3 to 8) (size 9 to 14) (size 15 to 20)
#    0.000    2.222    1.111    1.667    0.000    7.111 
#    0.000    2.222    0.000    0.667    0.000    4.667 
#    0.000    0.000    0.000    0.000    0.000    0.000 
#
# Total GULP energy -446295.133485 kJ/mol
# GULP energy per Si atom -12397.087041 kJ/mol
# Density = 1.808239 g / cm^3
# Si number density = 18.123638 Si / 1000 Ang^3
#
#
#
# Elastic Constant Matrix: (Units=GPa)
#
#
# Indices 1 2 3 4 5 6 
#
# 1 111.0339 24.9684 56.5118 0.0000 0.0000 0.0000
# 2 24.9684 81.5516 27.9442 0.0000 0.0000 0.0000
# 3 56.5118 27.9442 105.6598 0.0000 0.0000 0.0000
# 4 0.0000 0.0000 0.0000 13.2746 0.0000 0.0000
# 5 0.0000 0.0000 0.0000 0.0000 32.1645 0.0000
# 6 0.0000 0.0000 0.0000 0.0000 0.0000 20.5180
#
#
#
# Elastic Compliance Matrix: (Units=1/GPa)
#
#
# Indices 1 2 3 4 5 6 
#
# 1 0.012586 -0.001701 -0.006282 0.000000 0.000000 0.000000
# 2 -0.001701 0.013714 -0.002717 0.000000 0.000000 0.000000
# 3 -0.006282 -0.002717 0.013543 0.000000 0.000000 0.000000
# 4 0.000000 0.000000 0.000000 0.075332 0.000000 0.000000
# 5 0.000000 0.000000 0.000000 0.000000 0.031090 0.000000
# 6 0.000000 0.000000 0.000000 0.000000 0.000000 0.048738
#
#
# Mechanical properties :
#
#
# Convention : Reuss Voigt Hill
#
# Bulk Modulus (GPa) = 54.22137 57.45490 55.83814
# Shear Modulus (GPa) = 22.46693 25.77950 24.12321
#
# Velocity S-wave (km/s) = 3.52468 3.77560 3.65229
# Velocity P-wave (km/s) = 6.82253 7.12582 6.97582
#
# Compressibility (1/GPa) = 0.01844291
#
# Stress axis : x y z
#
# Youngs Moduli (GPa) = 79.45431 72.91801 73.84058
#
# Poissons Ratio (x) = 0.12403 0.46384
# Poissons Ratio (y) = 0.13515 0.20064
# Poissons Ratio (z) = 0.49910 0.19814
#
# Static dielectric constant tensor:
#      x y z
#    x 3.389780 0.000000 0.000000 
#    y 0.000000 3.164870 0.000000 
#    z 0.000000 0.000000 3.516290 
# 
# 
# High freq. dielectric constant tensor:
#      x y z
#    x 1.710010 0.000000 0.000000 
#    y 0.000000 1.668640 0.000000 
#    z 0.000000 0.000000 1.706870 
# 
# From -- ./inp_files/59488.got.cif
#   From: 2010.03.12/outbox.cif.g09.slc.cpg/sg65_30_cif.got.tgz:59488.got - 2010.04.10 20:52:16.
