data_PCOD8268284
_publ_section_title
;
Structure prediction by ZEFSAII (Michael W. Deem and Ramdas Pophale) SiO2 
 PCOD8268284
Probable space group: C M M M
;
_chemical_formula_sum "Si O2"
_cell_formula_units_Z 112
_cell_length_a 18.096166
_cell_length_b 19.352014
_cell_length_c 18.372535
_cell_angle_alpha 90.000000
_cell_angle_beta 90.000000
_cell_angle_gamma 90.000000
_cell_volume 6434.011375
_symmetry_space_group_name_H-M "C M M M"
_symmetry_group_IT_number 65
_symmetry_cell_setting 'orthorhombic'
loop_
_space_group_symop_operation_xyz
x,y,z
-x,-y,z
x,-y,-z
-x,y,-z
-x,-y,-z
x,y,-z
-x,y,z
x,-y,z
1/2+x,1/2+y,z
1/2-x,1/2-y,z
1/2+x,1/2-y,-z
1/2-x,1/2+y,-z
1/2-x,1/2-y,-z
1/2+x,1/2+y,-z
1/2-x,1/2+y,z
1/2+x,1/2-y,z
loop_
_atom_site_type_symbol
_atom_site_label
_atom_site_fract_x
_atom_site_fract_y
_atom_site_fract_z
Si Si1 0.708748 0.920481 0.308083
Si Si2 0.145418 0.078148 0.217651
Si Si3 0.853377 0.308281 0.917964
Si Si4 0.713792 0.324255 0.417489
Si Si5 0.584921 0.164702 0.233004
Si Si6 0.313872 0.346958 0.919448
Si Si7 0.416452 0.306323 0.309733
O O1 0.773063 0.910471 0.249464
O O2 0.730858 0.878769 0.380421
O O3 0.633104 0.893058 0.273222
O O4 0.697422 0.000000 0.329932
O O5 0.149203 0.097219 0.133017
O O6 0.087136 0.127366 0.257364
O O7 0.117658 0.000000 0.227048
O O8 0.905616 0.338565 0.854717
O O9 0.772118 0.336887 0.902186
O O10 0.855275 0.225791 0.911842
O O11 0.879519 0.330113 0.000000
O O12 0.700932 0.348717 0.500000
O O13 0.750000 0.250000 0.413665
O O14 0.634350 0.319808 0.379350
O O15 0.500000 0.149077 0.251345
O O16 0.609933 0.239389 0.264043
O O17 0.324289 0.376993 0.000000
O O18 0.500000 0.296981 0.337611
#
# Coordination Sequence:
#
# PCOD8268284 Si02
#       7
#    16  16  16  16  16  16  16
#     4  10  21  36  55  81 109 138 177 225 269 318
#     4  10  19  31  52  75 101 141 180 221 272 322
#     4   9  17  29  48  74 103 136 179 235 286 322
#     4  10  20  36  61  88 111 141 176 213 259 316
#     4  11  20  32  54  78 105 148 188 223 271 325
#     4   9  16  27  47  72  99 134 177 228 281 326
#     4  10  21  35  54  82 111 141 177 220 267 318
#
# _framework density 17.407492000000001
#
# number of rings (size 3 to 8) (size 9 to 14) (size 15 to 20)
#    0.000    2.143    4.286    0.857    0.000    1.714 
#    0.000    0.000    0.000    1.286    0.000    7.000 
#    0.000    0.000    0.000    0.000    0.000    0.000 
#
# Total GULP energy -694371.015625 kJ/mol
# GULP energy per Si atom -12399.482422 kJ/mol
# Density = 1.736787 g / cm^3
# Si number density = 17.407492 Si / 1000 Ang^3
#
#
#
# Elastic Constant Matrix: (Units=GPa)
#
#
# Indices 1 2 3 4 5 6 
#
# 1 64.9174 23.9096 34.8276 0.0000 0.0000 0.0000
# 2 23.9096 86.8167 44.1012 0.0000 0.0000 0.0000
# 3 34.8276 44.1012 128.0666 0.0000 0.0000 0.0000
# 4 0.0000 0.0000 0.0000 -8.9540 0.0000 0.0000
# 5 0.0000 0.0000 0.0000 0.0000 20.4404 0.0000
# 6 0.0000 0.0000 0.0000 0.0000 0.0000 18.3621
#
#
#
# Elastic Compliance Matrix: (Units=1/GPa)
#
#
# Indices 1 2 3 4 5 6 
#
# 1 0.018704 -0.003112 -0.004015 0.000000 0.000000 0.000000
# 2 -0.003112 0.014478 -0.004140 0.000000 0.000000 0.000000
# 3 -0.004015 -0.004140 0.010326 0.000000 0.000000 0.000000
# 4 0.000000 0.000000 0.000000 -0.111682 0.000000 0.000000
# 5 0.000000 0.000000 0.000000 0.000000 0.048923 0.000000
# 6 0.000000 0.000000 0.000000 0.000000 0.000000 0.054460
#
#
# Mechanical properties :
#
#
# Convention : Reuss Voigt Hill
#
# Bulk Modulus (GPa) = 47.67384 53.94193 50.80788
# Shear Modulus (GPa) = 77.23977 17.76720 47.50348
#
# Velocity S-wave (km/s) = 6.66843 3.19825 5.22956
# Velocity P-wave (km/s) = 9.31327 6.68531 8.10649
#
# Compressibility (1/GPa) = 0.02097586
#
# Stress axis : x y z
#
# Youngs Moduli (GPa) = 53.46364 69.06889 96.84447
#
# Poissons Ratio (x) = 0.21492 0.38884
# Poissons Ratio (y) = 0.16636 0.40089
# Poissons Ratio (z) = 0.21466 0.28591
#
# Static dielectric constant tensor:
#      x y z
#    x 2.976930 0.000000 0.000000 
#    y 0.000000 3.129840 0.000000 
#    z 0.000000 0.000000 3.298220 
# 
# 
# High freq. dielectric constant tensor:
#      x y z
#    x 1.655070 0.000000 0.000000 
#    y 0.000000 1.660500 0.000000 
#    z 0.000000 0.000000 1.674040 
# 
# From -- ./inp_files/54817.got.cif
#   From: 2010.03.12/outbox.cif.g09.slc.cpg/sg65_28_cif.got.tgz:54817.got - 2010.04.10 20:52:16.
