data_PCOD8268306
_publ_section_title
;
Structure prediction by ZEFSAII (Michael W. Deem and Ramdas Pophale) SiO2 
 PCOD8268306
Probable space group: C M M M
;
_chemical_formula_sum "Si O2"
_cell_formula_units_Z 96
_cell_length_a 22.642793
_cell_length_b 24.493537
_cell_length_c 8.843613
_cell_angle_alpha 90.000000
_cell_angle_beta 90.000000
_cell_angle_gamma 90.000000
_cell_volume 4904.686236
_symmetry_space_group_name_H-M "C M M M"
_symmetry_group_IT_number 65
_symmetry_cell_setting 'orthorhombic'
loop_
_space_group_symop_operation_xyz
x,y,z
-x,-y,z
x,-y,-z
-x,y,-z
-x,-y,-z
x,y,-z
-x,y,z
x,-y,z
1/2+x,1/2+y,z
1/2-x,1/2-y,z
1/2+x,1/2-y,-z
1/2-x,1/2+y,-z
1/2-x,1/2-y,-z
1/2+x,1/2+y,-z
1/2-x,1/2+y,z
1/2+x,1/2-y,z
loop_
_atom_site_type_symbol
_atom_site_label
_atom_site_fract_x
_atom_site_fract_y
_atom_site_fract_z
Si Si1 0.068680 0.683864 0.821409
Si Si2 0.232888 0.809851 0.322698
Si Si3 0.612129 0.300698 0.176974
Si Si4 0.155112 0.000000 0.819852
Si Si5 0.710000 0.000000 0.180218
Si Si6 0.163819 0.390755 0.679343
Si Si7 0.436231 0.412702 0.178541
O O1 0.091202 0.742460 0.755894
O O2 0.102774 0.635206 0.737546
O O3 0.000000 0.677681 0.781978
O O4 0.079687 0.679660 0.000000
O O5 0.222506 0.812160 0.500000
O O6 0.250000 0.750000 0.267092
O O7 0.172749 0.824391 0.241049
O O8 0.283089 0.851407 0.269679
O O9 0.566469 0.348507 0.219597
O O10 0.618658 0.293393 0.000000
O O11 0.118828 0.052465 0.755862
O O12 0.222284 0.000000 0.756755
O O13 0.158767 0.000000 0.000000
O O14 0.674371 0.948323 0.241705
O O15 0.708687 0.000000 0.000000
O O16 0.160705 0.398182 0.500000
O O17 0.500000 0.433877 0.239619
O O18 0.434115 0.420663 0.000000
#
# Coordination Sequence:
#
# PCOD8268306 Si02
#       7
#    16  16  16   8   8  16  16
#     4  10  21  37  57  83 115 149 186 234 292 346
#     4  10  20  35  54  80 115 152 189 232 281 331
#     4  10  19  31  52  82 114 149 191 235 283 336
#     4   9  17  29  48  76 109 146 187 228 274 327
#     4  11  23  40  62  87 116 144 183 237 290 341
#     4  11  23  40  61  85 115 150 191 232 281 341
#     4   9  16  27  45  73 111 151 188 227 270 320
#
# _framework density 19.573118000000001
#
# number of rings (size 3 to 8) (size 9 to 14) (size 15 to 20)
#    0.000    2.000    1.667    2.500    0.000    6.333 
#    0.000    0.417    0.000    4.000    0.000    0.000 
#    0.000    6.667    0.000    0.000    0.000    0.000 
#
# Total GULP energy -595054.885040 kJ/mol
# GULP energy per Si atom -12396.976772 kJ/mol
# Density = 1.952857 g / cm^3
# Si number density = 19.573118 Si / 1000 Ang^3
#
#
#
# Elastic Constant Matrix: (Units=GPa)
#
#
# Indices 1 2 3 4 5 6 
#
# 1 135.3520 64.1906 33.1763 0.0000 0.0000 0.0000
# 2 64.1906 160.3107 34.9701 0.0000 0.0000 0.0000
# 3 33.1763 34.9701 34.2503 0.0000 0.0000 0.0000
# 4 0.0000 0.0000 0.0000 13.1349 0.0000 0.0000
# 5 0.0000 0.0000 0.0000 0.0000 12.6808 0.0000
# 6 0.0000 0.0000 0.0000 0.0000 0.0000 34.6876
#
#
#
# Elastic Compliance Matrix: (Units=1/GPa)
#
#
# Indices 1 2 3 4 5 6 
#
# 1 0.010434 -0.002539 -0.007515 0.000000 0.000000 0.000000
# 2 -0.002539 0.008643 -0.006366 0.000000 0.000000 0.000000
# 3 -0.007515 -0.006366 0.042975 0.000000 0.000000 0.000000
# 4 0.000000 0.000000 0.000000 0.076133 0.000000 0.000000
# 5 0.000000 0.000000 0.000000 0.000000 0.078859 0.000000
# 6 0.000000 0.000000 0.000000 0.000000 0.000000 0.028829
#
#
# Mechanical properties :
#
#
# Convention : Reuss Voigt Hill
#
# Bulk Modulus (GPa) = 34.22992 66.06522 50.14757
# Shear Modulus (GPa) = 17.33406 25.27242 21.30324
#
# Velocity S-wave (km/s) = 2.97914 3.59720 3.30266
# Velocity P-wave (km/s) = 5.41848 7.14699 6.34190
#
# Compressibility (1/GPa) = 0.02921421
#
# Stress axis : x y z
#
# Youngs Moduli (GPa) = 95.83974 115.70090 23.26917
#
# Poissons Ratio (x) = 0.29373 0.17487
# Poissons Ratio (y) = 0.24330 0.14812
# Poissons Ratio (z) = 0.72022 0.73650
#
# Static dielectric constant tensor:
#      x y z
#    x 3.639990 0.000000 0.000000 
#    y 0.000000 3.306650 0.000000 
#    z 0.000000 0.000000 3.175450 
# 
# 
# High freq. dielectric constant tensor:
#      x y z
#    x 1.769250 0.000000 0.000000 
#    y 0.000000 1.770960 0.000000 
#    z 0.000000 0.000000 1.724450 
# 
# From -- ./inp_files/14359.got.cif
#   From: 2010.03.12/outbox.cif.g09.slc.cpg/sg65_8_cif.got.tgz:14359.got - 2010.04.10 20:52:16.
