data_PCOD8268099
_publ_section_title
;
Structure prediction by ZEFSAII (Michael W. Deem and Ramdas Pophale) SiO2 
 PCOD8268099
Probable space group: C M M M
;
_chemical_formula_sum "Si O2"
_cell_formula_units_Z 72
_cell_length_a 27.407509
_cell_length_b 9.521597
_cell_length_c 15.286449
_cell_angle_alpha 90.000000
_cell_angle_beta 90.000000
_cell_angle_gamma 90.000000
_cell_volume 3989.201496
_symmetry_space_group_name_H-M "C M M M"
_symmetry_group_IT_number 65
_symmetry_cell_setting 'orthorhombic'
loop_
_space_group_symop_operation_xyz
x,y,z
-x,-y,z
x,-y,-z
-x,y,-z
-x,-y,-z
x,y,-z
-x,y,z
x,-y,z
1/2+x,1/2+y,z
1/2-x,1/2-y,z
1/2+x,1/2-y,-z
1/2-x,1/2+y,-z
1/2-x,1/2-y,-z
1/2+x,1/2+y,-z
1/2-x,1/2+y,z
1/2+x,1/2-y,z
loop_
_atom_site_type_symbol
_atom_site_label
_atom_site_fract_x
_atom_site_fract_y
_atom_site_fract_z
Si Si1 0.336675 0.841422 0.342185
Si Si2 0.500000 0.166859 0.100480
Si Si3 0.250000 0.750000 0.770708
Si Si4 0.100177 0.664124 0.180856
Si Si5 0.822713 0.151939 0.096011
Si Si6 0.697935 0.670611 0.500000
O O1 0.286291 0.842362 0.288128
O O2 0.383009 0.800788 0.280589
O O3 0.333244 0.722420 0.416665
O O4 0.343170 0.000000 0.380290
O O5 0.546432 0.221244 0.156572
O O6 0.500000 0.000000 0.096535
O O7 0.500000 0.225055 0.000000
O O8 0.219986 0.853879 0.832627
O O9 0.103157 0.500000 0.164847
O O10 0.137482 0.730096 0.112841
O O11 0.848721 0.000000 0.100110
O O12 0.800141 0.179105 0.000000
O O13 0.703982 0.500000 0.500000
O O14 0.750000 0.750000 0.500000
#
# Coordination Sequence:
#
# PCOD8268099 Si02
#       6
#    16   8   8  16  16   8
#     4  10  20  34  52  76 105 134 173 217 262 311
#     4   9  16  30  55  84 111 140 178 221 265 311
#     4  10  19  31  50  68  98 136 178 207 257 308
#     4   9  19  34  54  78 104 137 176 220 265 314
#     4  10  20  32  46  69 102 139 178 218 259 307
#     4  12  24  36  56  79 106 137 173 214 261 317
#
# _framework density 18.048725999999998
#
# number of rings (size 3 to 8) (size 9 to 14) (size 15 to 20)
#    0.000    2.111    1.111    2.667    0.000    5.778 
#    0.000    0.556    0.000    2.667    0.000    4.667 
#    0.000    0.000    0.000    0.000    0.000    0.000 
#
# Total GULP energy -446108.781151 kJ/mol
# GULP energy per Si atom -12391.910588 kJ/mol
# Density = 1.800765 g / cm^3
# Si number density = 18.048726 Si / 1000 Ang^3
#
#
#
# Elastic Constant Matrix: (Units=GPa)
#
#
# Indices 1 2 3 4 5 6 
#
# 1 111.5438 26.3733 57.6892 0.0000 0.0000 0.0000
# 2 26.3733 79.1094 50.4031 0.0000 0.0000 0.0000
# 3 57.6892 50.4031 122.0799 0.0000 0.0000 0.0000
# 4 0.0000 0.0000 0.0000 18.4578 0.0000 0.0000
# 5 0.0000 0.0000 0.0000 0.0000 17.9014 0.0000
# 6 0.0000 0.0000 0.0000 0.0000 0.0000 15.4637
#
#
#
# Elastic Compliance Matrix: (Units=1/GPa)
#
#
# Indices 1 2 3 4 5 6 
#
# 1 0.011881 -0.000521 -0.005399 0.000000 0.000000 0.000000
# 2 -0.000521 0.017176 -0.006845 0.000000 0.000000 0.000000
# 3 -0.005399 -0.006845 0.013569 0.000000 0.000000 0.000000
# 4 0.000000 0.000000 0.000000 0.054178 0.000000 0.000000
# 5 0.000000 0.000000 0.000000 0.000000 0.055861 0.000000
# 6 0.000000 0.000000 0.000000 0.000000 0.000000 0.064668
#
#
# Mechanical properties :
#
#
# Convention : Reuss Voigt Hill
#
# Bulk Modulus (GPa) = 58.49713 64.62939 61.56326
# Shear Modulus (GPa) = 20.11582 22.24909 21.18245
#
# Velocity S-wave (km/s) = 3.34208 3.51482 3.42954
# Velocity P-wave (km/s) = 6.88285 7.23588 7.06158
#
# Compressibility (1/GPa) = 0.01709486
#
# Stress axis : x y z
#
# Youngs Moduli (GPa) = 84.17058 58.22203 73.69755
#
# Poissons Ratio (x) = 0.03032 0.39791
# Poissons Ratio (y) = 0.04383 0.50448
# Poissons Ratio (z) = 0.45446 0.39854
#
# Static dielectric constant tensor:
#      x y z
#    x 3.423520 0.000000 0.000000 
#    y 0.000000 3.196490 0.000000 
#    z 0.000000 0.000000 3.518840 
# 
# 
# High freq. dielectric constant tensor:
#      x y z
#    x 1.672400 0.000000 0.000000 
#    y 0.000000 1.689390 0.000000 
#    z 0.000000 0.000000 1.703170 
# 
# From -- ./inp_files/46567.got.cif
#   From: 2010.03.12/outbox.cif.g09.slc.cpg/sg65_24_cif.got.tgz:46567.got - 2010.04.10 20:52:16.
