data_PCOD8268640
_publ_section_title
;
Structure prediction by ZEFSAII (Michael W. Deem and Ramdas Pophale) SiO2 
 PCOD8268640
Probable space group: C M M M
;
_chemical_formula_sum "Si O2"
_cell_formula_units_Z 72
_cell_length_a 15.576952
_cell_length_b 27.644952
_cell_length_c 9.014613
_cell_angle_alpha 90.000000
_cell_angle_beta 90.000000
_cell_angle_gamma 90.000000
_cell_volume 3881.909523
_symmetry_space_group_name_H-M "C M M M"
_symmetry_group_IT_number 65
_symmetry_cell_setting 'orthorhombic'
loop_
_space_group_symop_operation_xyz
x,y,z
-x,-y,z
x,-y,-z
-x,y,-z
-x,-y,-z
x,y,-z
-x,y,z
x,-y,z
1/2+x,1/2+y,z
1/2-x,1/2-y,z
1/2+x,1/2-y,-z
1/2-x,1/2+y,-z
1/2-x,1/2-y,-z
1/2+x,1/2+y,-z
1/2-x,1/2+y,z
1/2+x,1/2-y,z
loop_
_atom_site_type_symbol
_atom_site_label
_atom_site_fract_x
_atom_site_fract_y
_atom_site_fract_z
Si Si1 0.500000 0.893553 0.168042
Si Si2 0.828280 0.607431 0.325599
Si Si3 0.500000 0.442452 0.332077
Si Si4 0.829523 0.057433 0.169497
Si Si5 0.330778 0.219590 0.326794
Si Si6 0.000000 0.721457 0.833695
O O1 0.584361 0.912714 0.252238
O O2 0.500000 0.836070 0.171517
O O3 0.500000 0.913409 0.000000
O O4 0.833568 0.598141 0.500000
O O5 0.750155 0.578068 0.258641
O O6 0.814816 0.663713 0.287744
O O7 0.500000 0.500000 0.333512
O O8 0.500000 0.422117 0.500000
O O9 0.583735 0.423046 0.246340
O O10 0.825456 0.000000 0.177138
O O11 0.827557 0.075660 0.000000
O O12 0.345334 0.227273 0.500000
O O13 0.250000 0.250000 0.267975
O O14 0.414995 0.240802 0.247232
O O15 0.000000 0.741574 0.000000
#
# Coordination Sequence:
#
# PCOD8268640 Si02
#       6
#     8  16   8  16  16   8
#     4   9  17  31  50  71  98 131 164 199 244 297
#     4  10  19  32  52  76 100 128 165 206 244 287
#     4   9  17  31  52  75  98 127 165 205 242 287
#     4  10  20  34  52  74 101 132 164 200 245 295
#     4   9  18  33  52  73  98 130 165 200 241 290
#     4   9  17  29  48  73  98 127 163 202 242 287
#
# _framework density 18.547573
#
# number of rings (size 3 to 8) (size 9 to 14) (size 15 to 20)
#    0.000    2.556    0.000    2.333    0.000    6.667 
#    0.000    1.667    0.000    6.000    0.000    0.000 
#    0.000    0.000    0.000    0.000    0.000    0.000 
#
# Total GULP energy -446447.271027 kJ/mol
# GULP energy per Si atom -12401.313084 kJ/mol
# Density = 1.850536 g / cm^3
# Si number density = 18.547573 Si / 1000 Ang^3
#
#
#
# Elastic Constant Matrix: (Units=GPa)
#
#
# Indices 1 2 3 4 5 6 
#
# 1 186.7312 27.3265 78.1930 0.0000 0.0000 0.0000
# 2 27.3265 16.9999 22.1219 0.0000 0.0000 0.0000
# 3 78.1930 22.1219 122.1284 0.0000 0.0000 0.0000
# 4 0.0000 0.0000 0.0000 19.6565 0.0000 0.0000
# 5 0.0000 0.0000 0.0000 0.0000 34.3984 0.0000
# 6 0.0000 0.0000 0.0000 0.0000 0.0000 29.6027
#
#
#
# Elastic Compliance Matrix: (Units=1/GPa)
#
#
# Indices 1 2 3 4 5 6 
#
# 1 0.008108 -0.008214 -0.003703 0.000000 0.000000 0.000000
# 2 -0.008214 0.085288 -0.010189 0.000000 0.000000 0.000000
# 3 -0.003703 -0.010189 0.012405 0.000000 0.000000 0.000000
# 4 0.000000 0.000000 0.000000 0.050874 0.000000 0.000000
# 5 0.000000 0.000000 0.000000 0.000000 0.029071 0.000000
# 6 0.000000 0.000000 0.000000 0.000000 0.000000 0.033781
#
#
# Mechanical properties :
#
#
# Convention : Reuss Voigt Hill
#
# Bulk Modulus (GPa) = 16.23737 64.57137 40.40437
# Shear Modulus (GPa) = 17.58897 29.94606 23.76752
#
# Velocity S-wave (km/s) = 3.08282 4.02251 3.58360
# Velocity P-wave (km/s) = 4.63089 7.51423 6.24134
#
# Compressibility (1/GPa) = 0.06158633
#
# Stress axis : x y z
#
# Youngs Moduli (GPa) = 123.33274 11.72504 80.61346
#
# Poissons Ratio (x) = 0.09631 0.29854
# Poissons Ratio (y) = 1.01309 0.82141
# Poissons Ratio (z) = 0.45674 0.11947
#
# Static dielectric constant tensor:
#      x y z
#    x 3.661150 0.000000 0.000000 
#    y 0.000000 3.000940 0.000000 
#    z 0.000000 0.000000 3.599510 
# 
# 
# High freq. dielectric constant tensor:
#      x y z
#    x 1.738760 0.000000 0.000000 
#    y 0.000000 1.671390 0.000000 
#    z 0.000000 0.000000 1.734050 
# 
# From -- ./inp_files/7393.got.cif
#   From: 2010.03.12/outbox.cif.g09.slc.cpg/sg65_4_cif.got.tgz:7393.got - 2010.04.10 20:52:16.
