data_PCOD8268082
_publ_section_title
;
Structure prediction by ZEFSAII (Michael W. Deem and Ramdas Pophale) SiO2 
 PCOD8268082
Probable space group: C M M M
;
_chemical_formula_sum "Si O2"
_cell_formula_units_Z 72
_cell_length_a 13.832080
_cell_length_b 21.121083
_cell_length_c 14.362399
_cell_angle_alpha 90.000000
_cell_angle_beta 90.000000
_cell_angle_gamma 90.000000
_cell_volume 4195.953464
_symmetry_space_group_name_H-M "C M M M"
_symmetry_group_IT_number 65
_symmetry_cell_setting 'orthorhombic'
loop_
_space_group_symop_operation_xyz
x,y,z
-x,-y,z
x,-y,-z
-x,y,-z
-x,-y,-z
x,y,-z
-x,y,z
x,-y,z
1/2+x,1/2+y,z
1/2-x,1/2-y,z
1/2+x,1/2-y,-z
1/2-x,1/2+y,-z
1/2-x,1/2-y,-z
1/2+x,1/2+y,-z
1/2-x,1/2+y,z
1/2+x,1/2-y,z
loop_
_atom_site_type_symbol
_atom_site_label
_atom_site_fract_x
_atom_site_fract_y
_atom_site_fract_z
Si Si1 0.112630 0.144376 0.500000
Si Si2 0.771798 0.375399 0.357717
Si Si3 0.389882 0.000000 0.389863
Si Si4 0.105488 0.675010 0.000000
Si Si5 0.111607 0.295063 0.500000
Si Si6 0.749872 0.824685 0.154505
Si Si7 0.394385 0.325552 0.000000
O O1 0.168569 0.116786 0.590100
O O2 0.120525 0.220000 0.500000
O O3 0.000000 0.122708 0.500000
O O4 0.832448 0.439317 0.354597
O O5 0.836286 0.321652 0.407917
O O6 0.748450 0.358402 0.252651
O O7 0.500000 0.000000 0.350954
O O8 0.391930 0.000000 0.500000
O O9 0.157390 0.652949 0.905337
O O10 0.103109 0.750272 0.000000
O O11 0.000000 0.644197 0.000000
O O12 0.000000 0.317140 0.500000
O O13 0.750000 0.750000 0.171017
O O14 0.842073 0.847448 0.094594
O O15 0.500000 0.356277 0.000000
#
# Coordination Sequence:
#
# PCOD8268082 Si02
#       7
#     8  16   8   8   8  16   8
#     4  10  21  33  48  75 105 130 160 204 262 314
#     4  11  20  34  52  72 101 137 172 214 249 290
#     4  11  22  38  56  73  94 131 181 216 245 291
#     4   8  15  27  44  71 104 132 160 197 248 306
#     4  10  19  31  49  75 104 132 163 204 258 312
#     4   9  17  29  48  75 103 132 165 201 250 304
#     4   8  15  29  48  71 101 132 161 199 245 302
#
# _framework density 17.159390999999999
#
# number of rings (size 3 to 8) (size 9 to 14) (size 15 to 20)
#    0.000    2.333    2.222    4.667    0.000    2.667 
#    0.000    5.556    0.000    2.667    0.000    4.667 
#    0.000    0.000    0.000    0.000    0.000    0.000 
#
# Total GULP energy -446236.932766 kJ/mol
# GULP energy per Si atom -12395.470355 kJ/mol
# Density = 1.712034 g / cm^3
# Si number density = 17.159391 Si / 1000 Ang^3
#
#
#
# Elastic Constant Matrix: (Units=GPa)
#
#
# Indices 1 2 3 4 5 6 
#
# 1 177.4414 38.0055 79.6242 0.0000 0.0000 0.0000
# 2 38.0055 54.6244 33.3299 0.0000 0.0000 0.0000
# 3 79.6242 33.3299 167.9043 0.0000 0.0000 0.0000
# 4 0.0000 0.0000 0.0000 -5.2058 0.0000 0.0000
# 5 0.0000 0.0000 0.0000 0.0000 -206.2692 0.0000
# 6 0.0000 0.0000 0.0000 0.0000 0.0000 22.3183
#
#
#
# Elastic Compliance Matrix: (Units=1/GPa)
#
#
# Indices 1 2 3 4 5 6 
#
# 1 0.007727 -0.003573 -0.002955 0.000000 0.000000 0.000000
# 2 -0.003573 0.022482 -0.002768 0.000000 0.000000 0.000000
# 3 -0.002955 -0.002768 0.007907 0.000000 0.000000 0.000000
# 4 0.000000 0.000000 0.000000 -0.192095 0.000000 0.000000
# 5 0.000000 0.000000 0.000000 0.000000 -0.004848 0.000000
# 6 0.000000 0.000000 0.000000 0.000000 0.000000 0.044806
#
#
# Mechanical properties :
#
#
# Convention : Reuss Voigt Hill
#
# Bulk Modulus (GPa) = 51.22247 77.98772 64.60510
# Shear Modulus (GPa) = -56.22985 -21.23063 -38.73024
#
# Velocity S-wave (km/s) = -5.73064 -3.52129 -4.75604
# Velocity P-wave (km/s) = 3.72441 5.38656 2.75171
#
# Compressibility (1/GPa) = 0.01952268
#
# Stress axis : x y z
#
# Youngs Moduli (GPa) = 129.41618 44.48005 126.47557
#
# Poissons Ratio (x) = 0.15893 0.37374
# Poissons Ratio (y) = 0.46241 0.35013
# Poissons Ratio (z) = 0.38243 0.12314
#
# Static dielectric constant tensor:
#      x y z
#    x 3.816860 0.000000 0.000000 
#    y 0.000000 2.822070 0.000000 
#    z 0.000000 0.000000 3.174280 
# 
# 
# High freq. dielectric constant tensor:
#      x y z
#    x 1.676750 0.000000 0.000000 
#    y 0.000000 1.619570 0.000000 
#    z 0.000000 0.000000 1.661070 
# 
# From -- ./inp_files/39912.got.cif
#   From: 2010.03.12/outbox.cif.g09.slc.cpg/sg65_20_cif.got.tgz:39912.got - 2010.04.10 20:52:16.
