data_PCOD8268785
_publ_section_title
;
Structure prediction by ZEFSAII (Michael W. Deem and Ramdas Pophale) SiO2 
 PCOD8268785
Probable space group: C M M M
;
_chemical_formula_sum "Si O2"
_cell_formula_units_Z 88
_cell_length_a 8.758542
_cell_length_b 17.795554
_cell_length_c 28.657865
_cell_angle_alpha 90.000000
_cell_angle_beta 90.000000
_cell_angle_gamma 90.000000
_cell_volume 4466.703882
_symmetry_space_group_name_H-M "C M M M"
_symmetry_group_IT_number 65
_symmetry_cell_setting 'orthorhombic'
loop_
_space_group_symop_operation_xyz
x,y,z
-x,-y,z
x,-y,-z
-x,y,-z
-x,-y,-z
x,y,-z
-x,y,z
x,-y,z
1/2+x,1/2+y,z
1/2-x,1/2-y,z
1/2+x,1/2-y,-z
1/2-x,1/2+y,-z
1/2-x,1/2-y,-z
1/2+x,1/2+y,-z
1/2-x,1/2+y,z
1/2+x,1/2-y,z
loop_
_atom_site_type_symbol
_atom_site_label
_atom_site_fract_x
_atom_site_fract_y
_atom_site_fract_z
Si Si1 0.178583 0.830906 0.450812
Si Si2 0.320613 0.913360 0.263863
Si Si3 0.824833 0.587981 0.093180
Si Si4 0.818881 0.832953 0.650646
Si Si5 0.819420 0.331408 0.000000
Si Si6 0.679622 0.669636 0.177293
O O1 0.224837 0.874065 0.500000
O O2 0.250000 0.750000 0.452602
O O3 0.224580 0.867362 0.400962
O O4 0.000000 0.819012 0.450055
O O5 0.500000 0.898997 0.262908
O O6 0.254915 0.891527 0.314006
O O7 0.243765 0.860793 0.225690
O O8 0.281065 0.000000 0.253440
O O9 0.809048 0.500000 0.086267
O O10 0.720780 0.612754 0.136073
O O11 0.000000 0.610984 0.103478
O O12 0.762101 0.625743 0.046033
O O13 0.750000 0.750000 0.657954
O O14 0.000000 0.828462 0.658571
O O15 0.750000 0.250000 0.000000
O O16 0.000000 0.326896 0.000000
O O17 0.500000 0.677672 0.181765
O O18 0.750000 0.750000 0.165252
#
# Coordination Sequence:
#
# PCOD8268785 Si02
#       6
#    16  16  16  16   8  16
#     4   8  14  25  43  70 103 137 173 215 264 316
#     4  11  24  41  59  79 107 143 182 226 277 331
#     4  10  21  39  62  88 120 156 193 233 280 332
#     4  10  19  32  53  80 110 142 179 224 271 323
#     4  10  21  37  59  87 119 158 199 238 280 326
#     4  12  25  41  62  87 115 146 184 229 277 331
#
# _framework density 19.701328
#
# number of rings (size 3 to 8) (size 9 to 14) (size 15 to 20)
#    0.000    1.818    0.000    4.636    0.000    8.000 
#    0.000    0.000    0.000    2.182    0.000    3.818 
#    0.000    0.000    0.000    0.000    0.000    0.000 
#
# Total GULP energy -545357.991262 kJ/mol
# GULP energy per Si atom -12394.499801 kJ/mol
# Density = 1.965649 g / cm^3
# Si number density = 19.701328 Si / 1000 Ang^3
#
#
#
# Elastic Constant Matrix: (Units=GPa)
#
#
# Indices 1 2 3 4 5 6 
#
# 1 79.1648 29.8821 38.3800 0.0000 0.0000 0.0000
# 2 29.8821 70.4526 32.8756 0.0000 0.0000 0.0000
# 3 38.3800 32.8756 151.5348 0.0000 0.0000 0.0000
# 4 0.0000 0.0000 0.0000 14.9273 0.0000 0.0000
# 5 0.0000 0.0000 0.0000 0.0000 19.7947 0.0000
# 6 0.0000 0.0000 0.0000 0.0000 0.0000 29.1844
#
#
#
# Elastic Compliance Matrix: (Units=1/GPa)
#
#
# Indices 1 2 3 4 5 6 
#
# 1 0.016101 -0.005481 -0.002889 0.000000 0.000000 0.000000
# 2 -0.005481 0.017659 -0.002443 0.000000 0.000000 0.000000
# 3 -0.002889 -0.002443 0.007861 0.000000 0.000000 0.000000
# 4 0.000000 0.000000 0.000000 0.066991 0.000000 0.000000
# 5 0.000000 0.000000 0.000000 0.000000 0.050519 0.000000
# 6 0.000000 0.000000 0.000000 0.000000 0.000000 0.034265
#
#
# Mechanical properties :
#
#
# Convention : Reuss Voigt Hill
#
# Bulk Modulus (GPa) = 50.01264 55.93639 52.97452
# Shear Modulus (GPa) = 22.55435 26.11558 24.33496
#
# Velocity S-wave (km/s) = 3.38718 3.64479 3.51835
# Velocity P-wave (km/s) = 6.38262 6.79460 6.59183
#
# Compressibility (1/GPa) = 0.01999494
#
# Stress axis : x y z
#
# Youngs Moduli (GPa) = 62.10617 56.62935 127.21345
#
# Poissons Ratio (x) = 0.31040 0.36751
# Poissons Ratio (y) = 0.34042 0.31076
# Poissons Ratio (z) = 0.17942 0.13833
#
# Static dielectric constant tensor:
#      x y z
#    x 3.652050 0.000000 0.000000 
#    y 0.000000 3.351580 0.000000 
#    z 0.000000 0.000000 4.268580 
# 
# 
# High freq. dielectric constant tensor:
#      x y z
#    x 1.769480 0.000000 0.000000 
#    y 0.000000 1.743390 0.000000 
#    z 0.000000 0.000000 1.799770 
# 
# From -- ./inp_files/73055.got.cif
#   From: 2010.03.12/outbox.cif.g09.slc.cpg/sg65_37_cif.got.tgz:73055.got - 2010.04.10 20:52:16.
