data_PCOD8268023
_publ_section_title
;
Structure prediction by ZEFSAII (Michael W. Deem and Ramdas Pophale) SiO2 
 PCOD8268023
Probable space group: C M M M
;
_chemical_formula_sum "Si O2"
_cell_formula_units_Z 96
_cell_length_a 25.034561
_cell_length_b 23.542848
_cell_length_c 9.548386
_cell_angle_alpha 90.000000
_cell_angle_beta 90.000000
_cell_angle_gamma 90.000000
_cell_volume 5627.674188
_symmetry_space_group_name_H-M "C M M M"
_symmetry_group_IT_number 65
_symmetry_cell_setting 'orthorhombic'
loop_
_space_group_symop_operation_xyz
x,y,z
-x,-y,z
x,-y,-z
-x,y,-z
-x,-y,-z
x,y,-z
-x,y,z
x,-y,z
1/2+x,1/2+y,z
1/2-x,1/2-y,z
1/2+x,1/2-y,-z
1/2-x,1/2+y,-z
1/2-x,1/2-y,-z
1/2+x,1/2+y,-z
1/2-x,1/2+y,z
1/2+x,1/2-y,z
loop_
_atom_site_type_symbol
_atom_site_label
_atom_site_fract_x
_atom_site_fract_y
_atom_site_fract_z
Si Si1 0.355185 0.882670 0.838541
Si Si2 0.159482 0.877468 0.663182
Si Si3 0.437870 0.181102 0.659824
Si Si4 0.803498 0.000000 0.660062
Si Si5 0.250856 0.315125 0.161948
Si Si6 0.058756 0.808498 0.666385
Si Si7 0.696345 0.000000 0.164569
O O1 0.406341 0.864716 0.750331
O O2 0.307627 0.839073 0.808663
O O3 0.337460 0.945254 0.790474
O O4 0.371973 0.882499 0.000000
O O5 0.166727 0.862722 0.500000
O O6 0.159877 0.944995 0.689910
O O7 0.207571 0.849060 0.745274
O O8 0.103200 0.852825 0.720498
O O9 0.418547 0.175904 0.500000
O O10 0.500000 0.166481 0.673085
O O11 0.426597 0.244833 0.717258
O O12 0.782996 0.000000 0.500000
O O13 0.752699 0.000000 0.759074
O O14 0.250000 0.250000 0.208579
O O15 0.267285 0.322401 0.000000
O O16 0.055946 0.807935 0.500000
O O17 0.000000 0.826112 0.724973
O O18 0.709294 0.000000 0.000000
#
# Coordination Sequence:
#
# PCOD8268023 Si02
#       7
#    16  16  16   8  16  16   8
#     4  10  20  33  50  72  97 127 165 203 242 294
#     4  10  19  31  49  73 100 131 168 206 246 292
#     4   9  18  33  53  75  98 127 163 201 246 299
#     4  10  20  32  47  73 103 130 168 212 246 285
#     4  10  20  32  48  73 102 128 159 204 253 300
#     4   8  15  30  51  73  99 132 166 200 243 297
#     4  10  20  36  53  68  93 136 176 197 238 303
#
# _framework density 17.058557
#
# number of rings (size 3 to 8) (size 9 to 14) (size 15 to 20)
#    0.000    2.500    1.667    2.000    0.000    2.000 
#    0.000    0.833    0.000    6.500    0.000    0.000 
#    0.000    2.000    0.000    0.000    0.000    0.000 
#
# Total GULP energy -595192.186856 kJ/mol
# GULP energy per Si atom -12399.837226 kJ/mol
# Density = 1.701973 g / cm^3
# Si number density = 17.058557 Si / 1000 Ang^3
#
#
#
# Elastic Constant Matrix: (Units=GPa)
#
#
# Indices 1 2 3 4 5 6 
#
# 1 67.8609 40.9826 28.5969 0.0000 0.0000 0.0000
# 2 40.9826 119.9207 29.1434 0.0000 0.0000 0.0000
# 3 28.5969 29.1434 37.7246 0.0000 0.0000 0.0000
# 4 0.0000 0.0000 0.0000 4.4056 0.0000 0.0000
# 5 0.0000 0.0000 0.0000 0.0000 13.6993 0.0000
# 6 0.0000 0.0000 0.0000 0.0000 0.0000 55.7690
#
#
#
# Elastic Compliance Matrix: (Units=1/GPa)
#
#
# Indices 1 2 3 4 5 6 
#
# 1 0.023519 -0.004561 -0.014305 0.000000 0.000000 0.000000
# 2 -0.004561 0.011151 -0.005157 0.000000 0.000000 0.000000
# 3 -0.014305 -0.005157 0.041335 0.000000 0.000000 0.000000
# 4 0.000000 0.000000 0.000000 0.226984 0.000000 0.000000
# 5 0.000000 0.000000 0.000000 0.000000 0.072997 0.000000
# 6 0.000000 0.000000 0.000000 0.000000 0.000000 0.017931
#
#
# Mechanical properties :
#
#
# Convention : Reuss Voigt Hill
#
# Bulk Modulus (GPa) = 35.76585 46.99467 41.38026
# Shear Modulus (GPa) = 11.07957 23.22699 17.15328
#
# Velocity S-wave (km/s) = 2.55130 3.69399 3.17449
# Velocity P-wave (km/s) = 5.44893 6.76779 6.14385
#
# Compressibility (1/GPa) = 0.02795963
#
# Stress axis : x y z
#
# Youngs Moduli (GPa) = 42.51962 89.67959 24.19249
#
# Poissons Ratio (x) = 0.40904 0.34606
# Poissons Ratio (y) = 0.19394 0.12476
# Poissons Ratio (z) = 0.60822 0.46246
#
# Static dielectric constant tensor:
#      x y z
#    x 3.262870 0.000000 0.000000 
#    y 0.000000 3.626110 0.000000 
#    z 0.000000 0.000000 3.018730 
# 
# 
# High freq. dielectric constant tensor:
#      x y z
#    x 1.654770 0.000000 0.000000 
#    y 0.000000 1.665080 0.000000 
#    z 0.000000 0.000000 1.639050 
# 
# From -- ./inp_files/14398.got.cif
#   From: 2010.03.12/outbox.cif.g09.slc.cpg/sg65_8_cif.got.tgz:14398.got - 2010.04.10 20:52:16.
