data_PCOD8268497
_publ_section_title
;
Structure prediction by ZEFSAII (Michael W. Deem and Ramdas Pophale) SiO2 
 PCOD8268497
Probable space group: C M M M
;
_chemical_formula_sum "Si O2"
_cell_formula_units_Z 72
_cell_length_a 8.609426
_cell_length_b 19.096854
_cell_length_c 23.042184
_cell_angle_alpha 90.000000
_cell_angle_beta 90.000000
_cell_angle_gamma 90.000000
_cell_volume 3788.433477
_symmetry_space_group_name_H-M "C M M M"
_symmetry_group_IT_number 65
_symmetry_cell_setting 'orthorhombic'
loop_
_space_group_symop_operation_xyz
x,y,z
-x,-y,z
x,-y,-z
-x,y,-z
-x,-y,-z
x,y,-z
-x,y,z
x,-y,z
1/2+x,1/2+y,z
1/2-x,1/2-y,z
1/2+x,1/2-y,-z
1/2-x,1/2+y,-z
1/2-x,1/2-y,-z
1/2+x,1/2+y,-z
1/2-x,1/2+y,z
1/2+x,1/2-y,z
loop_
_atom_site_type_symbol
_atom_site_label
_atom_site_fract_x
_atom_site_fract_y
_atom_site_fract_z
Si Si1 0.184385 0.674343 0.271952
Si Si2 0.683858 0.824254 0.934842
Si Si3 0.315531 0.674216 0.395058
Si Si4 0.815258 0.578282 0.833037
Si Si5 0.684456 0.421456 0.500000
O O1 0.250000 0.750000 0.255011
O O2 0.250576 0.648435 0.333395
O O3 0.242330 0.619540 0.223757
O O4 0.000000 0.679048 0.275473
O O5 0.500000 0.819409 0.932065
O O6 0.750000 0.750000 0.914436
O O7 0.746916 0.883376 0.891020
O O8 0.740630 0.842942 0.000000
O O9 0.500000 0.679029 0.392209
O O10 0.250000 0.750000 0.411930
O O11 0.256728 0.618998 0.442871
O O12 0.745628 0.500000 0.831630
O O13 0.000000 0.575820 0.833986
O O14 0.753948 0.500000 0.500000
O O15 0.500000 0.424103 0.500000
#
# Coordination Sequence:
#
# PCOD8268497 Si02
#       5
#    16  16  16  16   8
#     4  10  19  32  51  72  96 126 160 198 238 281
#     4   9  17  30  50  73  95 123 160 200 239 281
#     4  10  19  33  54  75  97 125 159 199 237 279
#     4   9  18  31  47  70  99 128 158 196 241 284
#     4   9  19  34  51  73 100 129 158 192 238 285
#
# _framework density 19.005216000000001
#
# number of rings (size 3 to 8) (size 9 to 14) (size 15 to 20)
#    0.000    2.556    0.000    3.667    0.000    1.333 
#    0.000    5.000    0.000   10.000    0.000    3.111 
#    0.000    0.000    0.000    0.000    0.000    0.000 
#
# Total GULP energy -446385.269229 kJ/mol
# GULP energy per Si atom -12399.590812 kJ/mol
# Density = 1.896196 g / cm^3
# Si number density = 19.005216 Si / 1000 Ang^3
#
#
#
# Elastic Constant Matrix: (Units=GPa)
#
#
# Indices 1 2 3 4 5 6 
#
# 1 44.0456 23.1159 26.8958 0.0000 0.0000 0.0000
# 2 23.1159 174.4811 125.7657 0.0000 0.0000 0.0000
# 3 26.8958 125.7657 175.8326 0.0000 0.0000 0.0000
# 4 0.0000 0.0000 0.0000 24.5022 0.0000 0.0000
# 5 0.0000 0.0000 0.0000 0.0000 17.7813 0.0000
# 6 0.0000 0.0000 0.0000 0.0000 0.0000 20.5813
#
#
#
# Elastic Compliance Matrix: (Units=1/GPa)
#
#
# Indices 1 2 3 4 5 6 
#
# 1 0.025155 -0.001154 -0.003022 0.000000 0.000000 0.000000
# 2 -0.001154 0.011884 -0.008323 0.000000 0.000000 0.000000
# 3 -0.003022 -0.008323 0.012103 0.000000 0.000000 0.000000
# 4 0.000000 0.000000 0.000000 0.040813 0.000000 0.000000
# 5 0.000000 0.000000 0.000000 0.000000 0.056239 0.000000
# 6 0.000000 0.000000 0.000000 0.000000 0.000000 0.048588
#
#
# Mechanical properties :
#
#
# Convention : Reuss Voigt Hill
#
# Bulk Modulus (GPa) = 41.42165 82.87935 62.15050
# Shear Modulus (GPa) = 21.94642 27.14508 24.54575
#
# Velocity S-wave (km/s) = 3.40186 3.78338 3.59768
# Velocity P-wave (km/s) = 6.10511 7.92393 7.07323
#
# Compressibility (1/GPa) = 0.02414197
#
# Stress axis : x y z
#
# Youngs Moduli (GPa) = 39.75355 84.14943 82.62528
#
# Poissons Ratio (x) = 0.09713 0.24971
# Poissons Ratio (y) = 0.04588 0.68772
# Poissons Ratio (z) = 0.12014 0.70040
#
# Static dielectric constant tensor:
#      x y z
#    x 3.184380 0.000000 0.000000 
#    y 0.000000 3.797650 0.000000 
#    z 0.000000 0.000000 3.819880 
# 
# 
# High freq. dielectric constant tensor:
#      x y z
#    x 1.711180 0.000000 0.000000 
#    y 0.000000 1.735520 0.000000 
#    z 0.000000 0.000000 1.755000 
# 
# From -- ./inp_files/67012.got.cif
#   From: 2010.03.12/outbox.cif.g09.slc.cpg/sg65_34_cif.got.tgz:67012.got - 2010.04.10 20:52:16.
