data_PCOD8268485
_publ_section_title
;
Structure prediction by ZEFSAII (Michael W. Deem and Ramdas Pophale) SiO2 
 PCOD8268485
Probable space group: C M M M
;
_chemical_formula_sum "Si O2"
_cell_formula_units_Z 104
_cell_length_a 18.449554
_cell_length_b 8.846465
_cell_length_c 34.003994
_cell_angle_alpha 90.000000
_cell_angle_beta 90.000000
_cell_angle_gamma 90.000000
_cell_volume 5549.905221
_symmetry_space_group_name_H-M "C M M M"
_symmetry_group_IT_number 65
_symmetry_cell_setting 'orthorhombic'
loop_
_space_group_symop_operation_xyz
x,y,z
-x,-y,z
x,-y,-z
-x,y,-z
-x,-y,-z
x,y,-z
-x,y,z
x,-y,z
1/2+x,1/2+y,z
1/2-x,1/2-y,z
1/2+x,1/2-y,-z
1/2-x,1/2+y,-z
1/2-x,1/2-y,-z
1/2+x,1/2+y,-z
1/2-x,1/2+y,z
1/2+x,1/2-y,z
loop_
_atom_site_type_symbol
_atom_site_label
_atom_site_fract_x
_atom_site_fract_y
_atom_site_fract_z
Si Si1 0.329075 0.820261 0.424554
Si Si2 0.918718 0.320879 0.349932
Si Si3 0.171979 0.180425 0.805575
Si Si4 0.418212 0.179483 0.500000
Si Si5 0.586025 0.827888 0.042669
Si Si6 0.581536 0.321986 0.879947
Si Si7 0.328239 0.819996 0.725258
O O1 0.250000 0.750000 0.426390
O O2 0.370429 0.759380 0.385898
O O3 0.375419 0.762794 0.461726
O O4 0.321465 0.000000 0.424263
O O5 0.922716 0.500000 0.352615
O O6 0.882410 0.270101 0.309180
O O7 0.000000 0.252944 0.352299
O O8 0.250000 0.250000 0.812997
O O9 0.123687 0.236994 0.841860
O O10 0.139380 0.249784 0.765414
O O11 0.175879 0.000000 0.802232
O O12 0.500000 0.245952 0.500000
O O13 0.422297 0.000000 0.500000
O O14 0.500000 0.812088 0.042984
O O15 0.618775 0.735965 0.079557
O O16 0.610348 0.000000 0.047829
O O17 0.614494 0.767127 0.000000
O O18 0.500000 0.258937 0.876373
O O19 0.582664 0.500000 0.881430
O O20 0.250000 0.750000 0.715994
O O21 0.320980 0.000000 0.729059
#
# Coordination Sequence:
#
# PCOD8268485 Si02
#       7
#    16  16  16   8  16  16  16
#     4  10  19  32  52  75 101 132 166 206 246 290
#     4   9  18  32  50  73  99 127 161 201 242 283
#     4  10  20  34  51  70  95 126 159 195 235 283
#     4   9  17  30  51  77 100 129 172 212 246 289
#     4   8  14  25  42  66  95 124 154 190 232 277
#     4   9  18  31  47  69  95 122 153 191 236 282
#     4  10  19  32  51  71  92 121 157 195 235 283
#
# _framework density 18.739059000000001
#
# number of rings (size 3 to 8) (size 9 to 14) (size 15 to 20)
#    0.000    2.692    0.000    3.462    0.000    4.000 
#    0.000    2.308    0.000    6.000    0.000    0.000 
#    0.000    0.000    0.000    0.000    0.000    0.000 
#
# Total GULP energy -644590.421119 kJ/mol
# GULP energy per Si atom -12395.969637 kJ/mol
# Density = 1.869641 g / cm^3
# Si number density = 18.739059 Si / 1000 Ang^3
#
#
#
# Elastic Constant Matrix: (Units=GPa)
#
#
# Indices 1 2 3 4 5 6 
#
# 1 112.9784 24.4894 93.8804 0.0000 0.0000 0.0000
# 2 24.4894 39.5920 40.2567 0.0000 0.0000 0.0000
# 3 93.8804 40.2567 213.4781 0.0000 0.0000 0.0000
# 4 0.0000 0.0000 0.0000 23.0264 0.0000 0.0000
# 5 0.0000 0.0000 0.0000 0.0000 26.1807 0.0000
# 6 0.0000 0.0000 0.0000 0.0000 0.0000 20.8863
#
#
#
# Elastic Compliance Matrix: (Units=1/GPa)
#
#
# Indices 1 2 3 4 5 6 
#
# 1 0.014234 -0.003018 -0.005690 0.000000 0.000000 0.000000
# 2 -0.003018 0.031890 -0.004686 0.000000 0.000000 0.000000
# 3 -0.005690 -0.004686 0.008070 0.000000 0.000000 0.000000
# 4 0.000000 0.000000 0.000000 0.043428 0.000000 0.000000
# 5 0.000000 0.000000 0.000000 0.000000 0.038196 0.000000
# 6 0.000000 0.000000 0.000000 0.000000 0.000000 0.047878
#
#
# Mechanical properties :
#
#
# Convention : Reuss Voigt Hill
#
# Bulk Modulus (GPa) = 36.49103 75.92235 56.20669
# Shear Modulus (GPa) = 22.76643 27.84681 25.30662
#
# Velocity S-wave (km/s) = 3.48935 3.85909 3.67887
# Velocity P-wave (km/s) = 5.97910 7.77562 6.93577
#
# Compressibility (1/GPa) = 0.02740400
#
# Stress axis : x y z
#
# Youngs Moduli (GPa) = 70.25400 31.35826 123.90815
#
# Poissons Ratio (x) = 0.09465 0.70509
# Poissons Ratio (y) = 0.21205 0.58066
# Poissons Ratio (z) = 0.39978 0.14695
#
# Static dielectric constant tensor:
#      x y z
#    x 3.365930 0.000000 0.000000 
#    y 0.000000 3.180680 0.000000 
#    z 0.000000 0.000000 4.041870 
# 
# 
# High freq. dielectric constant tensor:
#      x y z
#    x 1.707890 0.000000 0.000000 
#    y 0.000000 1.700390 0.000000 
#    z 0.000000 0.000000 1.752400 
# 
# From -- ./inp_files/78226.got.cif
#   From: 2010.03.12/outbox.cif.g09.slc.cpg/sg65_40_cif.got.tgz:78226.got - 2010.04.10 20:52:16.
