data_PCOD8268493
_publ_section_title
;
Structure prediction by ZEFSAII (Michael W. Deem and Ramdas Pophale) SiO2 
 PCOD8268493
Probable space group: C M M M
;
_chemical_formula_sum "Si O2"
_cell_formula_units_Z 88
_cell_length_a 18.927104
_cell_length_b 9.457087
_cell_length_c 28.503315
_cell_angle_alpha 90.000000
_cell_angle_beta 90.000000
_cell_angle_gamma 90.000000
_cell_volume 5101.958541
_symmetry_space_group_name_H-M "C M M M"
_symmetry_group_IT_number 65
_symmetry_cell_setting 'orthorhombic'
loop_
_space_group_symop_operation_xyz
x,y,z
-x,-y,z
x,-y,-z
-x,y,-z
-x,-y,-z
x,y,-z
-x,y,z
x,-y,z
1/2+x,1/2+y,z
1/2-x,1/2-y,z
1/2+x,1/2-y,-z
1/2-x,1/2+y,-z
1/2-x,1/2-y,-z
1/2+x,1/2+y,-z
1/2-x,1/2+y,z
1/2+x,1/2-y,z
loop_
_atom_site_type_symbol
_atom_site_label
_atom_site_fract_x
_atom_site_fract_y
_atom_site_fract_z
Si Si1 0.082907 0.337309 0.672096
Si Si2 0.676560 0.666029 0.601881
Si Si3 0.415543 0.341268 0.862443
Si Si4 0.318259 0.341194 0.500000
Si Si5 0.916030 0.656711 0.222694
Si Si6 0.915995 0.658689 0.051894
O O1 0.101845 0.500000 0.660057
O O2 0.121350 0.229204 0.638069
O O3 0.108215 0.300414 0.724983
O O4 0.000000 0.311867 0.666617
O O5 0.689140 0.500000 0.612726
O O6 0.750000 0.750000 0.606213
O O7 0.641513 0.686936 0.549463
O O8 0.500000 0.339006 0.862597
O O9 0.386152 0.500000 0.862857
O O10 0.385730 0.265659 0.815651
O O11 0.385096 0.262841 0.908549
O O12 0.290069 0.500000 0.500000
O O13 0.250000 0.250000 0.500000
O O14 0.887769 0.500000 0.210293
O O15 0.000000 0.655055 0.221067
O O16 0.888592 0.500000 0.061901
O O17 0.000000 0.659761 0.054081
O O18 0.891053 0.708772 0.000000
#
# Coordination Sequence:
#
# PCOD8268493 Si02
#       6
#    16  16  16   8  16  16
#     4   9  18  32  48  67  92 120 151 188 228 268
#     4  10  19  32  51  72  94 120 151 186 223 266
#     4   9  15  20  28  44  64  86 117 160 205 247
#     4   8  16  30  47  68  91 117 149 183 219 260
#     4   8  14  25  39  52  70 100 134 167 205 251
#     4   8  13  20  28  37  52  79 116 156 198 245
#
# _framework density 17.248277000000002
#
# number of rings (size 3 to 8) (size 9 to 14) (size 15 to 20)
#    0.000    3.273    0.000    2.727    0.000    4.364 
#    0.000    4.091    0.000    2.727    0.000    0.000 
#    0.000    0.000    0.000    0.000    0.000    0.909 
#
# Total GULP energy -545113.303814 kJ/mol
# GULP energy per Si atom -12388.938723 kJ/mol
# Density = 1.720902 g / cm^3
# Si number density = 17.248277 Si / 1000 Ang^3
#
#
#
# Elastic Constant Matrix: (Units=GPa)
#
#
# Indices 1 2 3 4 5 6 
#
# 1 18.4076 24.3065 26.3949 0.0000 0.0000 0.0000
# 2 24.3065 137.0221 103.8853 0.0000 0.0000 0.0000
# 3 26.3949 103.8853 171.1587 0.0000 0.0000 0.0000
# 4 0.0000 0.0000 0.0000 33.4898 0.0000 0.0000
# 5 0.0000 0.0000 0.0000 0.0000 -4.3197 0.0000
# 6 0.0000 0.0000 0.0000 0.0000 0.0000 17.1268
#
#
#
# Elastic Compliance Matrix: (Units=1/GPa)
#
#
# Indices 1 2 3 4 5 6 
#
# 1 0.074577 -0.008354 -0.006430 0.000000 0.000000 0.000000
# 2 -0.008354 0.014455 -0.007485 0.000000 0.000000 0.000000
# 3 -0.006430 -0.007485 0.011377 0.000000 0.000000 0.000000
# 4 0.000000 0.000000 0.000000 0.029860 0.000000 0.000000
# 5 0.000000 0.000000 0.000000 0.000000 -0.231497 0.000000
# 6 0.000000 0.000000 0.000000 0.000000 0.000000 0.058388
#
#
# Mechanical properties :
#
#
# Convention : Reuss Voigt Hill
#
# Bulk Modulus (GPa) = 17.89862 70.64021 44.26941
# Shear Modulus (GPa) = 246.02433 20.72617 133.37525
#
# Velocity S-wave (km/s) = 11.95603 3.47022 8.80310
# Velocity P-wave (km/s) = 14.17728 7.55648 11.35992
#
# Compressibility (1/GPa) = 0.05587024
#
# Stress axis : x y z
#
# Youngs Moduli (GPa) = 13.40898 69.17970 87.89411
#
# Poissons Ratio (x) = 0.57794 0.56517
# Poissons Ratio (y) = 0.11202 0.65791
# Poissons Ratio (z) = 0.08622 0.51783
#
# Static dielectric constant tensor:
#      x y z
#    x 2.357770 0.000000 0.000000 
#    y 0.000000 3.403370 0.000000 
#    z 0.000000 0.000000 3.787190 
# 
# 
# High freq. dielectric constant tensor:
#      x y z
#    x 1.578710 0.000000 0.000000 
#    y 0.000000 1.674460 0.000000 
#    z 0.000000 0.000000 1.688770 
# 
# From -- ./inp_files/75386.got.cif
#   From: 2010.03.12/outbox.cif.g09.slc.cpg/sg65_38_cif.got.tgz:75386.got - 2010.04.10 20:52:16.
