data_PCOD8268696
_publ_section_title
;
Structure prediction by ZEFSAII (Michael W. Deem and Ramdas Pophale) SiO2 
 PCOD8268696
Probable space group: C M M M
;
_chemical_formula_sum "Si O2"
_cell_formula_units_Z 80
_cell_length_a 27.072314
_cell_length_b 8.931601
_cell_length_c 18.366434
_cell_angle_alpha 90.000000
_cell_angle_beta 90.000000
_cell_angle_gamma 90.000000
_cell_volume 4440.987336
_symmetry_space_group_name_H-M "C M M M"
_symmetry_group_IT_number 65
_symmetry_cell_setting 'orthorhombic'
loop_
_space_group_symop_operation_xyz
x,y,z
-x,-y,z
x,-y,-z
-x,y,-z
-x,-y,-z
x,y,-z
-x,y,z
x,-y,z
1/2+x,1/2+y,z
1/2-x,1/2-y,z
1/2+x,1/2-y,-z
1/2-x,1/2+y,-z
1/2-x,1/2-y,-z
1/2+x,1/2+y,-z
1/2-x,1/2+y,z
1/2+x,1/2-y,z
loop_
_atom_site_type_symbol
_atom_site_label
_atom_site_fract_x
_atom_site_fract_y
_atom_site_fract_z
Si Si1 0.055743 0.171944 0.220984
Si Si2 0.394784 0.176985 0.351959
Si Si3 0.801609 0.174287 0.287981
Si Si4 0.303173 0.824705 0.000000
Si Si5 0.555300 0.822339 0.500000
Si Si6 0.350091 0.328686 0.865178
O O1 0.066391 0.276431 0.289819
O O2 0.093013 0.208755 0.154847
O O3 0.000000 0.199634 0.193436
O O4 0.064422 0.000000 0.245450
O O5 0.342175 0.254617 0.340828
O O6 0.415866 0.234030 0.428803
O O7 0.387665 0.000000 0.349664
O O8 0.750000 0.250000 0.305959
O O9 0.815769 0.203845 0.204263
O O10 0.798039 0.000000 0.305181
O O11 0.250000 0.750000 0.000000
O O12 0.334017 0.780279 0.070845
O O13 0.294732 0.000000 0.000000
O O14 0.500000 0.754529 0.500000
O O15 0.552117 0.000000 0.500000
O O16 0.344338 0.500000 0.891151
#
# Coordination Sequence:
#
# PCOD8268696 Si02
#       6
#    16  16  16   8   8  16
#     4   9  18  34  55  78 104 135 172 213 255 300
#     4  10  19  32  52  77 105 137 173 212 255 304
#     4  10  20  35  55  78 103 133 171 213 256 304
#     4  12  24  36  53  76 103 133 166 207 253 302
#     4   9  18  32  50  75 106 137 170 209 254 303
#     4   9  19  35  54  76 103 133 167 207 250 300
#
# _framework density 18.014012000000001
#
# number of rings (size 3 to 8) (size 9 to 14) (size 15 to 20)
#    0.000    2.300    0.000    4.500    0.000    6.800 
#    0.000    3.000    0.000    6.600    0.000    0.000 
#    0.000    0.000    0.000    0.000    0.000    0.000 
#
# Total GULP energy -496090.135358 kJ/mol
# GULP energy per Si atom -12402.253384 kJ/mol
# Density = 1.797301 g / cm^3
# Si number density = 18.014012 Si / 1000 Ang^3
#
#
#
# Elastic Constant Matrix: (Units=GPa)
#
#
# Indices 1 2 3 4 5 6 
#
# 1 167.6449 61.2674 72.3282 0.0000 0.0000 0.0000
# 2 61.2674 99.8359 58.8567 0.0000 0.0000 0.0000
# 3 72.3282 58.8567 116.4327 0.0000 0.0000 0.0000
# 4 0.0000 0.0000 0.0000 25.1537 0.0000 0.0000
# 5 0.0000 0.0000 0.0000 0.0000 20.4652 0.0000
# 6 0.0000 0.0000 0.0000 0.0000 0.0000 29.4242
#
#
#
# Elastic Compliance Matrix: (Units=1/GPa)
#
#
# Indices 1 2 3 4 5 6 
#
# 1 0.008772 -0.003092 -0.003886 0.000000 0.000000 0.000000
# 2 -0.003092 0.015359 -0.005843 0.000000 0.000000 0.000000
# 3 -0.003886 -0.005843 0.013956 0.000000 0.000000 0.000000
# 4 0.000000 0.000000 0.000000 0.039756 0.000000 0.000000
# 5 0.000000 0.000000 0.000000 0.000000 0.048863 0.000000
# 6 0.000000 0.000000 0.000000 0.000000 0.000000 0.033986
#
#
# Mechanical properties :
#
#
# Convention : Reuss Voigt Hill
#
# Bulk Modulus (GPa) = 80.35662 85.42421 82.89041
# Shear Modulus (GPa) = 26.24937 27.77272 27.01105
#
# Velocity S-wave (km/s) = 3.82142 3.93075 3.87647
# Velocity P-wave (km/s) = 8.01097 8.25378 8.13329
#
# Compressibility (1/GPa) = 0.01244452
#
# Stress axis : x y z
#
# Youngs Moduli (GPa) = 114.00548 65.11005 71.65294
#
# Poissons Ratio (x) = 0.20132 0.27843
# Poissons Ratio (y) = 0.35251 0.41867
# Poissons Ratio (z) = 0.44301 0.38044
#
# Static dielectric constant tensor:
#      x y z
#    x 3.488360 0.000000 0.000000 
#    y 0.000000 3.283980 0.000000 
#    z 0.000000 0.000000 3.225050 
# 
# 
# High freq. dielectric constant tensor:
#      x y z
#    x 1.710380 0.000000 0.000000 
#    y 0.000000 1.695530 0.000000 
#    z 0.000000 0.000000 1.681810 
# 
# From -- ./inp_files/57272.got.cif
#   From: 2010.03.12/outbox.cif.g09.slc.cpg/sg65_29_cif.got.tgz:57272.got - 2010.04.10 20:52:16.
