data_PCOD8268458
_publ_section_title
;
Structure prediction by ZEFSAII (Michael W. Deem and Ramdas Pophale) SiO2 
 PCOD8268458
Probable space group: C M M M
;
_chemical_formula_sum "Si O2"
_cell_formula_units_Z 96
_cell_length_a 14.223967
_cell_length_b 17.611312
_cell_length_c 18.774368
_cell_angle_alpha 90.000000
_cell_angle_beta 90.000000
_cell_angle_gamma 90.000000
_cell_volume 4703.030264
_symmetry_space_group_name_H-M "C M M M"
_symmetry_group_IT_number 65
_symmetry_cell_setting 'orthorhombic'
loop_
_space_group_symop_operation_xyz
x,y,z
-x,-y,z
x,-y,-z
-x,y,-z
-x,-y,-z
x,y,-z
-x,y,z
x,-y,z
1/2+x,1/2+y,z
1/2-x,1/2-y,z
1/2+x,1/2-y,-z
1/2-x,1/2+y,-z
1/2-x,1/2-y,-z
1/2+x,1/2+y,-z
1/2-x,1/2+y,z
1/2+x,1/2-y,z
loop_
_atom_site_type_symbol
_atom_site_label
_atom_site_fract_x
_atom_site_fract_y
_atom_site_fract_z
Si Si1 0.889683 0.847298 0.800206
Si Si2 0.642743 0.272542 0.579019
Si Si3 0.896807 0.674784 0.183807
Si Si4 0.191738 0.914764 0.340045
Si Si5 0.758399 0.839943 0.921184
Si Si6 0.600654 0.127385 0.660942
O O1 0.864994 0.758674 0.790994
O O2 0.827572 0.892060 0.741958
O O3 0.852252 0.868148 0.879595
O O4 0.000000 0.867078 0.793142
O O5 0.597504 0.270892 0.500000
O O6 0.750000 0.250000 0.574645
O O7 0.632206 0.357426 0.610685
O O8 0.592171 0.213123 0.630758
O O9 0.831143 0.634546 0.125491
O O10 0.896460 0.624328 0.254026
O O11 0.000000 0.679966 0.148998
O O12 0.302828 0.913026 0.363014
O O13 0.155418 0.000000 0.353561
O O14 0.750000 0.750000 0.929232
O O15 0.758040 0.877343 0.000000
O O16 0.500000 0.088044 0.637683
#
# Coordination Sequence:
#
# PCOD8268458 Si02
#       6
#    16  16  16  16  16  16
#     4  10  19  32  50  73 105 143 185 227 272 329
#     4   9  19  35  56  82 111 145 185 226 270 326
#     4   9  16  28  51  78 105 140 177 226 280 328
#     4  11  22  35  55  82 115 152 189 232 281 333
#     4   9  17  28  47  77 109 140 175 226 289 338
#     4  10  19  34  58  83 109 143 187 234 280 331
#
# _framework density 20.412371
#
# number of rings (size 3 to 8) (size 9 to 14) (size 15 to 20)
#    0.000    2.333    3.333    0.000    0.000    2.000 
#    0.000    3.333    0.000    0.500    0.000    8.167 
#    0.000    2.667    0.000    0.000    0.000    0.000 
#
# Total GULP energy -594628.776943 kJ/mol
# GULP energy per Si atom -12388.099520 kJ/mol
# Density = 2.036591 g / cm^3
# Si number density = 20.412371 Si / 1000 Ang^3
#
#
#
# Elastic Constant Matrix: (Units=GPa)
#
#
# Indices 1 2 3 4 5 6 
#
# 1 99.5591 3.8818 20.2196 0.0000 0.0000 0.0000
# 2 3.8818 60.0654 13.5334 0.0000 0.0000 0.0000
# 3 20.2196 13.5334 117.4781 0.0000 0.0000 0.0000
# 4 0.0000 0.0000 0.0000 7.4123 0.0000 0.0000
# 5 0.0000 0.0000 0.0000 0.0000 -18.3086 0.0000
# 6 0.0000 0.0000 0.0000 0.0000 0.0000 7.7527
#
#
#
# Elastic Compliance Matrix: (Units=1/GPa)
#
#
# Indices 1 2 3 4 5 6 
#
# 1 0.010413 -0.000276 -0.001760 0.000000 0.000000 0.000000
# 2 -0.000276 0.017099 -0.001922 0.000000 0.000000 0.000000
# 3 -0.001760 -0.001922 0.009037 0.000000 0.000000 0.000000
# 4 0.000000 0.000000 0.000000 0.134910 0.000000 0.000000
# 5 0.000000 0.000000 0.000000 0.000000 -0.054619 0.000000
# 6 0.000000 0.000000 0.000000 0.000000 0.000000 0.128988
#
#
# Mechanical properties :
#
#
# Convention : Reuss Voigt Hill
#
# Bulk Modulus (GPa) = 34.92736 39.15249 37.03992
# Shear Modulus (GPa) = 18.99054 15.33580 17.16317
#
# Velocity S-wave (km/s) = 3.05346 2.74396 2.90284
# Velocity P-wave (km/s) = 5.43871 5.40939 5.42407
#
# Compressibility (1/GPa) = 0.02863085
#
# Stress axis : x y z
#
# Youngs Moduli (GPa) = 96.03785 58.48131 110.66055
#
# Poissons Ratio (x) = 0.01616 0.19480
# Poissons Ratio (y) = 0.02654 0.21272
# Poissons Ratio (z) = 0.16906 0.11242
#
# Static dielectric constant tensor:
#      x y z
#    x 3.922620 0.000000 0.000000 
#    y 0.000000 3.183210 0.000000 
#    z 0.000000 0.000000 3.894380 
# 
# 
# High freq. dielectric constant tensor:
#      x y z
#    x 1.807480 0.000000 0.000000 
#    y 0.000000 1.739350 0.000000 
#    z 0.000000 0.000000 1.788850 
# 
# From -- ./inp_files/62606.got.cif
#   From: 2010.03.12/outbox.cif.g09.slc.cpg/sg65_32_cif.got.tgz:62606.got - 2010.04.10 20:52:16.
