data_PCOD8268824
_publ_section_title
;
Structure prediction by ZEFSAII (Michael W. Deem and Ramdas Pophale) SiO2 
 PCOD8268824
Probable space group: C M M M
;
_chemical_formula_sum "Si O2"
_cell_formula_units_Z 104
_cell_length_a 19.858066
_cell_length_b 18.101919
_cell_length_c 16.768521
_cell_angle_alpha 90.000000
_cell_angle_beta 90.000000
_cell_angle_gamma 90.000000
_cell_volume 6027.765190
_symmetry_space_group_name_H-M "C M M M"
_symmetry_group_IT_number 65
_symmetry_cell_setting 'orthorhombic'
loop_
_space_group_symop_operation_xyz
x,y,z
-x,-y,z
x,-y,-z
-x,y,-z
-x,-y,-z
x,y,-z
-x,y,z
x,-y,z
1/2+x,1/2+y,z
1/2-x,1/2-y,z
1/2+x,1/2-y,-z
1/2-x,1/2+y,-z
1/2-x,1/2-y,-z
1/2+x,1/2+y,-z
1/2-x,1/2+y,z
1/2+x,1/2-y,z
loop_
_atom_site_type_symbol
_atom_site_label
_atom_site_fract_x
_atom_site_fract_y
_atom_site_fract_z
Si Si1 0.376125 0.645246 0.179250
Si Si2 0.419384 0.783474 0.724117
Si Si3 0.000000 0.085647 0.912714
Si Si4 0.698923 0.417259 0.324080
Si Si5 0.823169 0.224004 0.591629
Si Si6 0.745860 0.165574 0.092544
Si Si7 0.167457 0.413639 0.226035
O O1 0.393295 0.729089 0.205972
O O2 0.438488 0.607841 0.140307
O O3 0.354635 0.596869 0.254628
O O4 0.320160 0.636912 0.110938
O O5 0.500000 0.779322 0.713947
O O6 0.383400 0.760853 0.641470
O O7 0.397876 0.867227 0.746078
O O8 0.000000 0.000000 0.927727
O O9 0.000000 0.125188 0.000000
O O10 0.692159 0.500000 0.356265
O O11 0.679466 0.364437 0.397416
O O12 0.773939 0.402026 0.291122
O O13 0.835673 0.244872 0.500000
O O14 0.750000 0.250000 0.622551
O O15 0.750000 0.250000 0.121450
O O16 0.690988 0.118386 0.140855
O O17 0.727438 0.157519 0.000000
O O18 0.148133 0.500000 0.217283
#
# Coordination Sequence:
#
# PCOD8268824 Si02
#       7
#    16  16   8  16  16  16  16
#     4  10  19  33  52  78 104 140 186 227 267 323
#     4  11  21  36  58  81 108 147 187 225 267 325
#     4  11  22  34  48  72 110 146 178 221 276 334
#     4   9  18  32  55  81 107 139 174 221 271 323
#     4  10  20  35  58  84 110 139 175 224 273 323
#     4  10  19  32  55  81 107 139 179 233 284 322
#     4  10  20  35  55  81 111 141 184 231 272 321
#
# _framework density 17.253492999999999
#
# number of rings (size 3 to 8) (size 9 to 14) (size 15 to 20)
#    0.000    1.923    3.846    0.923    0.000    1.846 
#    0.000    0.000    0.000    0.462    0.000    4.308 
#    0.000    0.000    0.000    0.000    0.000    0.000 
#
# Total GULP energy -644595.079551 kJ/mol
# GULP energy per Si atom -12396.059222 kJ/mol
# Density = 1.721422 g / cm^3
# Si number density = 17.253493 Si / 1000 Ang^3
#
#
#
# Elastic Constant Matrix: (Units=GPa)
#
#
# Indices 1 2 3 4 5 6 
#
# 1 100.5886 32.3416 36.8747 0.0000 0.0000 0.0000
# 2 32.3416 109.1298 37.3446 0.0000 0.0000 0.0000
# 3 36.8747 37.3446 54.4243 0.0000 0.0000 0.0000
# 4 0.0000 0.0000 0.0000 16.2946 0.0000 0.0000
# 5 0.0000 0.0000 0.0000 0.0000 12.6568 0.0000
# 6 0.0000 0.0000 0.0000 0.0000 0.0000 21.6867
#
#
#
# Elastic Compliance Matrix: (Units=1/GPa)
#
#
# Indices 1 2 3 4 5 6 
#
# 1 0.013331 -0.001124 -0.008261 0.000000 0.000000 0.000000
# 2 -0.001124 0.012070 -0.007521 0.000000 0.000000 0.000000
# 3 -0.008261 -0.007521 0.029132 0.000000 0.000000 0.000000
# 4 0.000000 0.000000 0.000000 0.061370 0.000000 0.000000
# 5 0.000000 0.000000 0.000000 0.000000 0.079009 0.000000
# 6 0.000000 0.000000 0.000000 0.000000 0.000000 0.046111
#
#
# Mechanical properties :
#
#
# Convention : Reuss Voigt Hill
#
# Bulk Modulus (GPa) = 48.25875 53.02938 50.64407
# Shear Modulus (GPa) = 17.74665 20.63306 19.18986
#
# Velocity S-wave (km/s) = 3.21063 3.46190 3.33863
# Velocity P-wave (km/s) = 6.46339 6.83972 6.65422
#
# Compressibility (1/GPa) = 0.02072163
#
# Stress axis : x y z
#
# Youngs Moduli (GPa) = 75.01103 82.84946 34.32625
#
# Poissons Ratio (x) = 0.09310 0.28359
# Poissons Ratio (y) = 0.08430 0.25816
# Poissons Ratio (z) = 0.61970 0.62309
#
# Static dielectric constant tensor:
#      x y z
#    x 3.027850 0.000000 0.000000 
#    y 0.000000 3.301610 0.000000 
#    z 0.000000 0.000000 3.066100 
# 
# 
# High freq. dielectric constant tensor:
#      x y z
#    x 1.655590 0.000000 0.000000 
#    y 0.000000 1.670340 0.000000 
#    z 0.000000 0.000000 1.657140 
# 
# From -- ./inp_files/54585.got.cif
#   From: 2010.03.12/outbox.cif.g09.slc.cpg/sg65_28_cif.got.tgz:54585.got - 2010.04.10 20:52:16.
