data_PCOD8268228
_publ_section_title
;
Structure prediction by ZEFSAII (Michael W. Deem and Ramdas Pophale) SiO2 
 PCOD8268228
Probable space group: C M M M
;
_chemical_formula_sum "Si O2"
_cell_formula_units_Z 88
_cell_length_a 10.006649
_cell_length_b 18.232044
_cell_length_c 26.040460
_cell_angle_alpha 90.000000
_cell_angle_beta 90.000000
_cell_angle_gamma 90.000000
_cell_volume 4750.864876
_symmetry_space_group_name_H-M "C M M M"
_symmetry_group_IT_number 65
_symmetry_cell_setting 'orthorhombic'
loop_
_space_group_symop_operation_xyz
x,y,z
-x,-y,z
x,-y,-z
-x,y,-z
-x,-y,-z
x,y,-z
-x,y,z
x,-y,z
1/2+x,1/2+y,z
1/2-x,1/2-y,z
1/2+x,1/2-y,-z
1/2-x,1/2+y,-z
1/2-x,1/2-y,-z
1/2+x,1/2+y,-z
1/2-x,1/2+y,z
1/2+x,1/2-y,z
loop_
_atom_site_type_symbol
_atom_site_label
_atom_site_fract_x
_atom_site_fract_y
_atom_site_fract_z
Si Si1 0.841689 0.581585 0.942995
Si Si2 0.234893 0.335992 0.443664
Si Si3 0.500000 0.581156 0.560091
Si Si4 0.157318 0.581028 0.752537
Si Si5 0.840973 0.320787 0.849076
Si Si6 0.851219 0.682636 0.661853
O O1 0.785237 0.500000 0.930571
O O2 0.792093 0.640233 0.901459
O O3 0.000000 0.577560 0.940734
O O4 0.794101 0.606215 0.000000
O O5 0.188350 0.367942 0.500000
O O6 0.250000 0.250000 0.451282
O O7 0.371943 0.371970 0.423893
O O8 0.135583 0.351286 0.396019
O O9 0.500000 0.500000 0.586152
O O10 0.500000 0.570366 0.500000
O O11 0.223630 0.500000 0.754310
O O12 0.198737 0.625655 0.802862
O O13 0.206552 0.622715 0.701364
O O14 0.000000 0.571966 0.750625
O O15 0.750000 0.250000 0.842109
O O16 0.000000 0.301953 0.849252
O O17 0.750000 0.750000 0.661965
O O18 0.000000 0.707825 0.679023
#
# Coordination Sequence:
#
# PCOD8268228 Si02
#       6
#    16  16   8  16  16  16
#     4   8  14  26  46  73 102 132 172 216 248 283
#     4   9  19  32  52  78 106 137 174 211 254 311
#     4   9  18  34  54  78 107 139 173 213 259 309
#     4   9  18  34  54  74  96 128 172 215 255 304
#     4  10  19  31  51  76 101 133 167 207 256 305
#     4  10  21  34  53  76 104 136 168 212 259 306
#
# _framework density 18.522943999999999
#
# number of rings (size 3 to 8) (size 9 to 14) (size 15 to 20)
#    0.000    2.818    0.000    1.636    5.091    3.636 
#    0.000    0.000    0.000    3.273    0.000    6.364 
#    0.000    0.000    0.000    0.000    0.000    0.000 
#
# Total GULP energy -545103.140073 kJ/mol
# GULP energy per Si atom -12388.707729 kJ/mol
# Density = 1.848078 g / cm^3
# Si number density = 18.522944 Si / 1000 Ang^3
#
#
#
# Elastic Constant Matrix: (Units=GPa)
#
#
# Indices 1 2 3 4 5 6 
#
# 1 53.3943 44.1556 20.7075 0.0000 0.0000 0.0000
# 2 44.1556 126.9091 66.5823 0.0000 0.0000 0.0000
# 3 20.7075 66.5823 156.8133 0.0000 0.0000 0.0000
# 4 0.0000 0.0000 0.0000 25.1709 0.0000 0.0000
# 5 0.0000 0.0000 0.0000 0.0000 16.0354 0.0000
# 6 0.0000 0.0000 0.0000 0.0000 0.0000 24.3933
#
#
#
# Elastic Compliance Matrix: (Units=1/GPa)
#
#
# Indices 1 2 3 4 5 6 
#
# 1 0.026329 -0.009439 0.000531 0.000000 0.000000 0.000000
# 2 -0.009439 0.013522 -0.004495 0.000000 0.000000 0.000000
# 3 0.000531 -0.004495 0.008215 0.000000 0.000000 0.000000
# 4 0.000000 0.000000 0.000000 0.039728 0.000000 0.000000
# 5 0.000000 0.000000 0.000000 0.000000 0.062362 0.000000
# 6 0.000000 0.000000 0.000000 0.000000 0.000000 0.040995
#
#
# Mechanical properties :
#
#
# Convention : Reuss Voigt Hill
#
# Bulk Modulus (GPa) = 47.03664 66.66748 56.85206
# Shear Modulus (GPa) = 22.21788 26.83136 24.52462
#
# Velocity S-wave (km/s) = 3.46711 3.81011 3.64265
# Velocity P-wave (km/s) = 6.44023 7.44485 6.96069
#
# Compressibility (1/GPa) = 0.02126002
#
# Stress axis : x y z
#
# Youngs Moduli (GPa) = 37.98158 73.95310 121.72233
#
# Poissons Ratio (x) = 0.69805 -0.06465
# Poissons Ratio (y) = 0.35851 0.54714
# Poissons Ratio (z) = -0.02017 0.33242
#
# Static dielectric constant tensor:
#      x y z
#    x 2.340840 0.000000 0.000000 
#    y 0.000000 3.550710 0.000000 
#    z 0.000000 0.000000 3.964280 
# 
# 
# High freq. dielectric constant tensor:
#      x y z
#    x 1.669090 0.000000 0.000000 
#    y 0.000000 1.712260 0.000000 
#    z 0.000000 0.000000 1.734280 
# 
# From -- ./inp_files/67453.got.cif
#   From: 2010.03.12/outbox.cif.g09.slc.cpg/sg65_34_cif.got.tgz:67453.got - 2010.04.10 20:52:16.
