data_PCOD8268992
_publ_section_title
;
Structure prediction by ZEFSAII (Michael W. Deem and Ramdas Pophale) SiO2 
 PCOD8268992
Probable space group: C M M M
;
_chemical_formula_sum "Si O2"
_cell_formula_units_Z 80
_cell_length_a 7.936975
_cell_length_b 19.889541
_cell_length_c 27.000830
_cell_angle_alpha 90.000000
_cell_angle_beta 90.000000
_cell_angle_gamma 90.000000
_cell_volume 4262.426347
_symmetry_space_group_name_H-M "C M M M"
_symmetry_group_IT_number 65
_symmetry_cell_setting 'orthorhombic'
loop_
_space_group_symop_operation_xyz
x,y,z
-x,-y,z
x,-y,-z
-x,y,-z
-x,-y,-z
x,y,-z
-x,y,z
x,-y,z
1/2+x,1/2+y,z
1/2-x,1/2-y,z
1/2+x,1/2-y,-z
1/2-x,1/2+y,-z
1/2-x,1/2-y,-z
1/2+x,1/2+y,-z
1/2-x,1/2+y,z
1/2+x,1/2-y,z
loop_
_atom_site_type_symbol
_atom_site_label
_atom_site_fract_x
_atom_site_fract_y
_atom_site_fract_z
Si Si1 0.698588 0.677038 0.815915
Si Si2 0.303858 0.574687 0.104579
Si Si3 0.809819 0.577833 0.378025
Si Si4 0.192450 0.579036 0.000000
Si Si5 0.699015 0.675967 0.295873
Si Si6 0.000000 0.920371 0.555179
O O1 0.500000 0.671001 0.815718
O O2 0.750000 0.750000 0.835895
O O3 0.778378 0.621754 0.853055
O O4 0.766475 0.665913 0.760191
O O5 0.500000 0.568778 0.114500
O O6 0.220950 0.500000 0.107816
O O7 0.274468 0.607879 0.050361
O O8 0.775656 0.500000 0.364923
O O9 0.793162 0.620221 0.328044
O O10 0.670467 0.604129 0.417278
O O11 0.000000 0.587027 0.399500
O O12 0.224630 0.500000 0.000000
O O13 0.000000 0.599959 0.000000
O O14 0.500000 0.665623 0.300234
O O15 0.750000 0.750000 0.314965
O O16 0.000000 0.889021 0.500000
O O17 0.000000 0.000000 0.551732
#
# Coordination Sequence:
#
# PCOD8268992 Si02
#       6
#    16  16  16   8  16   8
#     4   9  19  33  50  72 100 131 166 206 251 305
#     4   9  17  31  50  71  94 125 164 204 249 301
#     4  10  20  34  54  83 113 142 182 226 266 314
#     4   9  17  29  46  69  94 121 157 201 252 305
#     4  10  19  33  53  77 105 142 180 216 264 320
#     4   9  18  34  56  82 112 146 181 220 270 318
#
# _framework density 18.768653
#
# number of rings (size 3 to 8) (size 9 to 14) (size 15 to 20)
#    0.000    2.600    1.000    0.900    0.000    4.000 
#    0.000    4.500    0.000    3.000    0.000    0.000 
#    0.000    0.000    0.000    0.000    0.000    0.000 
#
# Total GULP energy -495844.726878 kJ/mol
# GULP energy per Si atom -12396.118172 kJ/mol
# Density = 1.872594 g / cm^3
# Si number density = 18.768653 Si / 1000 Ang^3
#
#
#
# Elastic Constant Matrix: (Units=GPa)
#
#
# Indices 1 2 3 4 5 6 
#
# 1 74.3537 22.8518 39.0903 0.0000 0.0000 0.0000
# 2 22.8518 78.7403 72.1539 0.0000 0.0000 0.0000
# 3 39.0903 72.1539 133.4721 0.0000 0.0000 0.0000
# 4 0.0000 0.0000 0.0000 13.1026 0.0000 0.0000
# 5 0.0000 0.0000 0.0000 0.0000 17.2063 0.0000
# 6 0.0000 0.0000 0.0000 0.0000 0.0000 22.2489
#
#
#
# Elastic Compliance Matrix: (Units=1/GPa)
#
#
# Indices 1 2 3 4 5 6 
#
# 1 0.015916 -0.000689 -0.004289 0.000000 0.000000 0.000000
# 2 -0.000689 0.025197 -0.013419 0.000000 0.000000 0.000000
# 3 -0.004289 -0.013419 0.016003 0.000000 0.000000 0.000000
# 4 0.000000 0.000000 0.000000 0.076321 0.000000 0.000000
# 5 0.000000 0.000000 0.000000 0.000000 0.058118 0.000000
# 6 0.000000 0.000000 0.000000 0.000000 0.000000 0.044946
#
#
# Mechanical properties :
#
#
# Convention : Reuss Voigt Hill
#
# Bulk Modulus (GPa) = 49.21042 61.63982 55.42512
# Shear Modulus (GPa) = 17.85277 20.67623 19.26450
#
# Velocity S-wave (km/s) = 3.08750 3.32269 3.20725
# Velocity P-wave (km/s) = 6.24393 6.90171 6.58104
#
# Compressibility (1/GPa) = 0.02032090
#
# Stress axis : x y z
#
# Youngs Moduli (GPa) = 62.83080 39.68744 62.48926
#
# Poissons Ratio (x) = 0.02734 0.26801
# Poissons Ratio (y) = 0.04328 0.83857
# Poissons Ratio (z) = 0.26947 0.53258
#
# Static dielectric constant tensor:
#      x y z
#    x 3.399840 0.000000 0.000000 
#    y 0.000000 3.416820 0.000000 
#    z 0.000000 0.000000 3.684680 
# 
# 
# High freq. dielectric constant tensor:
#      x y z
#    x 1.729400 0.000000 0.000000 
#    y 0.000000 1.701890 0.000000 
#    z 0.000000 0.000000 1.725600 
# 
# From -- ./inp_files/67372.got.cif
#   From: 2010.03.12/outbox.cif.g09.slc.cpg/sg65_34_cif.got.tgz:67372.got - 2010.04.10 20:52:16.
