data_PCOD8268926
_publ_section_title
;
Structure prediction by ZEFSAII (Michael W. Deem and Ramdas Pophale) SiO2 
 PCOD8268926
Probable space group: C M M M
;
_chemical_formula_sum "Si O2"
_cell_formula_units_Z 72
_cell_length_a 18.982202
_cell_length_b 19.257662
_cell_length_c 10.379522
_cell_angle_alpha 90.000000
_cell_angle_beta 90.000000
_cell_angle_gamma 90.000000
_cell_volume 3794.263643
_symmetry_space_group_name_H-M "C M M M"
_symmetry_group_IT_number 65
_symmetry_cell_setting 'orthorhombic'
loop_
_space_group_symop_operation_xyz
x,y,z
-x,-y,z
x,-y,-z
-x,y,-z
-x,-y,-z
x,y,-z
-x,y,z
x,-y,z
1/2+x,1/2+y,z
1/2-x,1/2-y,z
1/2+x,1/2-y,-z
1/2-x,1/2+y,-z
1/2-x,1/2-y,-z
1/2+x,1/2+y,-z
1/2-x,1/2+y,z
1/2+x,1/2-y,z
loop_
_atom_site_type_symbol
_atom_site_label
_atom_site_fract_x
_atom_site_fract_y
_atom_site_fract_z
Si Si1 0.672078 0.081432 0.734184
Si Si2 0.582564 0.663543 0.852474
Si Si3 0.423386 0.183543 0.146786
Si Si4 0.922643 0.417812 0.500000
Si Si5 0.327857 0.417882 0.647272
O O1 0.640102 0.127307 0.849191
O O2 0.619841 0.107266 0.622877
O O3 0.750143 0.103282 0.695438
O O4 0.666362 0.000000 0.766816
O O5 0.500000 0.647912 0.849805
O O6 0.598812 0.741009 0.797369
O O7 0.617965 0.611966 0.750268
O O8 0.610941 0.651412 0.000000
O O9 0.500000 0.157950 0.204351
O O10 0.437444 0.200622 0.000000
O O11 0.926758 0.500000 0.500000
O O12 0.000000 0.383975 0.500000
O O13 0.339712 0.390617 0.500000
O O14 0.335605 0.500000 0.647466
#
# Coordination Sequence:
#
# PCOD8268926 Si02
#       5
#    16  16  16   8  16
#     4  10  19  33  52  78 111 145 182 221 265 323
#     4   9  20  40  61  80 107 144 187 232 278 335
#     4   9  19  36  55  77 109 146 183 228 277 321
#     4   9  16  28  48  71  99 139 180 217 257 301
#     4  10  21  38  58  81 114 147 176 225 286 334
#
# _framework density 18.976013999999999
#
# number of rings (size 3 to 8) (size 9 to 14) (size 15 to 20)
#    0.000    2.556    1.111    2.000    0.000    4.889 
#    2.000    8.889    0.000    0.000    0.000    0.000 
#    0.000    0.000    0.000    0.000    0.000    0.000 
#
# Total GULP energy -445988.106278 kJ/mol
# GULP energy per Si atom -12388.558508 kJ/mol
# Density = 1.893282 g / cm^3
# Si number density = 18.976014 Si / 1000 Ang^3
#
#
#
# Elastic Constant Matrix: (Units=GPa)
#
#
# Indices 1 2 3 4 5 6 
#
# 1 98.0114 39.8413 45.2834 0.0000 0.0000 0.0000
# 2 39.8413 46.4091 32.3929 0.0000 0.0000 0.0000
# 3 45.2834 32.3929 76.7133 0.0000 0.0000 0.0000
# 4 0.0000 0.0000 0.0000 18.7602 0.0000 0.0000
# 5 0.0000 0.0000 0.0000 0.0000 57.6550 0.0000
# 6 0.0000 0.0000 0.0000 0.0000 0.0000 31.1492
#
#
#
# Elastic Compliance Matrix: (Units=1/GPa)
#
#
# Indices 1 2 3 4 5 6 
#
# 1 0.017193 -0.010884 -0.005553 0.000000 0.000000 0.000000
# 2 -0.010884 0.037442 -0.009386 0.000000 0.000000 0.000000
# 3 -0.005553 -0.009386 0.020277 0.000000 0.000000 0.000000
# 4 0.000000 0.000000 0.000000 0.053304 0.000000 0.000000
# 5 0.000000 0.000000 0.000000 0.000000 0.017345 0.000000
# 6 0.000000 0.000000 0.000000 0.000000 0.000000 0.032104
#
#
# Mechanical properties :
#
#
# Convention : Reuss Voigt Hill
#
# Bulk Modulus (GPa) = 42.98004 50.68544 46.83274
# Shear Modulus (GPa) = 21.09135 28.42061 24.75598
#
# Velocity S-wave (km/s) = 3.33749 3.87423 3.61583
# Velocity P-wave (km/s) = 6.12786 6.83967 6.49353
#
# Compressibility (1/GPa) = 0.02326662
#
# Stress axis : x y z
#
# Youngs Moduli (GPa) = 58.16433 26.70802 49.31775
#
# Poissons Ratio (x) = 0.29068 0.27386
# Poissons Ratio (y) = 0.63304 0.46288
# Poissons Ratio (z) = 0.32299 0.25067
#
# Static dielectric constant tensor:
#      x y z
#    x 3.526840 0.000000 0.000000 
#    y 0.000000 3.229660 0.000000 
#    z 0.000000 0.000000 3.516280 
# 
# 
# High freq. dielectric constant tensor:
#      x y z
#    x 1.740440 0.000000 0.000000 
#    y 0.000000 1.722010 0.000000 
#    z 0.000000 0.000000 1.733630 
# 
# From -- ./inp_files/26325.got.cif
#   From: 2010.03.12/outbox.cif.g09.slc.cpg/sg65_14_cif.got.tgz:26325.got - 2010.04.10 20:52:16.
