data_PCOD8268441
_publ_section_title
;
Structure prediction by ZEFSAII (Michael W. Deem and Ramdas Pophale) SiO2 
 PCOD8268441
Probable space group: C M M M
;
_chemical_formula_sum "Si O2"
_cell_formula_units_Z 104
_cell_length_a 8.889953
_cell_length_b 25.626489
_cell_length_c 26.386393
_cell_angle_alpha 90.000000
_cell_angle_beta 90.000000
_cell_angle_gamma 90.000000
_cell_volume 6011.302742
_symmetry_space_group_name_H-M "C M M M"
_symmetry_group_IT_number 65
_symmetry_cell_setting 'orthorhombic'
loop_
_space_group_symop_operation_xyz
x,y,z
-x,-y,z
x,-y,-z
-x,y,-z
-x,-y,-z
x,y,-z
-x,y,z
x,-y,z
1/2+x,1/2+y,z
1/2-x,1/2-y,z
1/2+x,1/2-y,-z
1/2-x,1/2+y,-z
1/2-x,1/2-y,-z
1/2+x,1/2+y,-z
1/2-x,1/2+y,z
1/2+x,1/2-y,z
loop_
_atom_site_type_symbol
_atom_site_label
_atom_site_fract_x
_atom_site_fract_y
_atom_site_fract_z
Si Si1 0.678953 0.803997 0.269653
Si Si2 0.325414 0.596183 0.441654
Si Si3 0.821866 0.403496 0.207824
Si Si4 0.177762 0.500000 0.613202
Si Si5 0.829826 0.938007 0.000000
Si Si6 0.322809 0.696381 0.376661
Si Si7 0.820402 0.500000 0.727556
Si Si8 0.175702 0.439383 0.899319
O O1 0.500000 0.799049 0.274492
O O2 0.750000 0.750000 0.250282
O O3 0.727943 0.847630 0.229256
O O4 0.746512 0.819841 0.323839
O O5 0.277641 0.599182 0.500000
O O6 0.500000 0.582324 0.435403
O O7 0.231097 0.551488 0.415063
O O8 0.286990 0.651857 0.417225
O O9 0.756372 0.448992 0.243817
O O10 0.761643 0.409494 0.150355
O O11 0.000000 0.409580 0.207092
O O12 0.242370 0.500000 0.670336
O O13 0.000000 0.500000 0.613740
O O14 0.753559 0.915455 0.949228
O O15 0.000000 0.919212 0.000000
O O16 0.811736 0.000000 0.000000
O O17 0.500000 0.704483 0.368236
O O18 0.250000 0.750000 0.397102
O O19 0.000000 0.500000 0.727270
O O20 0.215132 0.500000 0.891990
O O21 0.000000 0.430801 0.906564
#
# Coordination Sequence:
#
# PCOD8268441 Si02
#       8
#    16  16  16   8   8  16   8  16
#     4  10  19  32  50  72  99 130 162 196 239 288
#     4  10  22  39  55  71  97 132 164 197 244 298
#     4   9  16  27  46  71  97 124 156 198 240 278
#     4  11  22  34  53  78 101 129 166 204 239 282
#     4   9  17  27  39  59  94 133 160 187 232 282
#     4  10  20  35  55  76  98 125 160 201 248 299
#     4   9  16  28  46  72 101 122 147 192 245 284
#     4   9  15  26  45  67  90 120 162 200 231 273
#
# _framework density 17.300743000000001
#
# number of rings (size 3 to 8) (size 9 to 14) (size 15 to 20)
#    0.000    2.385    0.769    3.462    0.000    4.923 
#    0.000    1.538    0.000    1.846    0.000    0.538 
#    0.000    0.000    0.000    0.000    0.000    0.000 
#
# Total GULP energy -644777.015227 kJ/mol
# GULP energy per Si atom -12399.557985 kJ/mol
# Density = 1.726137 g / cm^3
# Si number density = 17.300743 Si / 1000 Ang^3
#
#
#
# Elastic Constant Matrix: (Units=GPa)
#
#
# Indices 1 2 3 4 5 6 
#
# 1 58.2428 42.3914 48.1295 0.0000 0.0000 0.0000
# 2 42.3914 107.6440 87.1447 0.0000 0.0000 0.0000
# 3 48.1295 87.1447 174.0155 0.0000 0.0000 0.0000
# 4 0.0000 0.0000 0.0000 98.4217 0.0000 0.0000
# 5 0.0000 0.0000 0.0000 0.0000 18.5691 0.0000
# 6 0.0000 0.0000 0.0000 0.0000 0.0000 22.9153
#
#
#
# Elastic Compliance Matrix: (Units=1/GPa)
#
#
# Indices 1 2 3 4 5 6 
#
# 1 0.025186 -0.007197 -0.003362 0.000000 0.000000 0.000000
# 2 -0.007197 0.017681 -0.006864 0.000000 0.000000 0.000000
# 3 -0.003362 -0.006864 0.010114 0.000000 0.000000 0.000000
# 4 0.000000 0.000000 0.000000 0.010160 0.000000 0.000000
# 5 0.000000 0.000000 0.000000 0.000000 0.053853 0.000000
# 6 0.000000 0.000000 0.000000 0.000000 0.000000 0.043639
#
#
# Mechanical properties :
#
#
# Convention : Reuss Voigt Hill
#
# Bulk Modulus (GPa) = 55.14096 77.24818 66.19457
# Shear Modulus (GPa) = 24.81115 38.79700 31.80408
#
# Velocity S-wave (km/s) = 3.79107 4.74065 4.29220
# Velocity P-wave (km/s) = 7.14872 8.64362 7.93147
#
# Compressibility (1/GPa) = 0.01813534
#
# Stress axis : x y z
#
# Youngs Moduli (GPa) = 39.70511 56.55881 98.87547
#
# Poissons Ratio (x) = 0.40704 0.33240
# Poissons Ratio (y) = 0.28575 0.67866
# Poissons Ratio (z) = 0.13348 0.38821
#
# Static dielectric constant tensor:
#      x y z
#    x 3.073780 0.000000 0.000000 
#    y 0.000000 2.542290 0.000000 
#    z 0.000000 0.000000 3.439260 
# 
# 
# High freq. dielectric constant tensor:
#      x y z
#    x 1.653420 0.000000 0.000000 
#    y 0.000000 1.652400 0.000000 
#    z 0.000000 0.000000 1.675150 
# 
# From -- ./inp_files/73834.got.cif
#   From: 2010.03.12/outbox.cif.g09.slc.cpg/sg65_37_cif.got.tgz:73834.got - 2010.04.10 20:52:16.
