data_PCOD8268367
_publ_section_title
;
Structure prediction by ZEFSAII (Michael W. Deem and Ramdas Pophale) SiO2 
 PCOD8268367
Probable space group: C M M M
;
_chemical_formula_sum "Si O2"
_cell_formula_units_Z 72
_cell_length_a 8.666984
_cell_length_b 33.753574
_cell_length_c 15.570771
_cell_angle_alpha 90.000000
_cell_angle_beta 90.000000
_cell_angle_gamma 90.000000
_cell_volume 4555.099598
_symmetry_space_group_name_H-M "C M M M"
_symmetry_group_IT_number 65
_symmetry_cell_setting 'orthorhombic'
loop_
_space_group_symop_operation_xyz
x,y,z
-x,-y,z
x,-y,-z
-x,y,-z
-x,-y,-z
x,y,-z
-x,y,z
x,-y,z
1/2+x,1/2+y,z
1/2-x,1/2-y,z
1/2+x,1/2-y,-z
1/2-x,1/2+y,-z
1/2-x,1/2-y,-z
1/2+x,1/2+y,-z
1/2-x,1/2+y,z
1/2+x,1/2-y,z
loop_
_atom_site_type_symbol
_atom_site_label
_atom_site_fract_x
_atom_site_fract_y
_atom_site_fract_z
Si Si1 0.821986 0.292207 0.000000
Si Si2 0.179615 0.418657 0.600826
Si Si3 0.680970 0.339890 0.657851
Si Si4 0.681460 0.206712 0.500000
Si Si5 0.173752 0.000000 0.398021
Si Si6 0.317182 0.794118 0.813571
O O1 0.750000 0.250000 0.000000
O O2 0.778333 0.312667 0.091127
O O3 0.000000 0.283775 0.000000
O O4 0.213592 0.413511 0.500000
O O5 0.274968 0.385958 0.652782
O O6 0.236187 0.461267 0.634858
O O7 0.000000 0.413896 0.621140
O O8 0.500000 0.334322 0.645340
O O9 0.768007 0.316200 0.584276
O O10 0.733067 0.323620 0.749388
O O11 0.500000 0.210102 0.500000
O O12 0.750000 0.250000 0.500000
O O13 0.171861 0.000000 0.500000
O O14 0.000000 0.000000 0.361332
O O15 0.500000 0.792895 0.795375
O O16 0.250000 0.750000 0.802585
#
# Coordination Sequence:
#
# PCOD8268367 Si02
#       6
#     8  16  16   8   8  16
#     4   8  16  30  50  70  90 117 150 193 240 286
#     4  10  19  32  49  68  92 123 159 196 235 277
#     4  12  23  34  48  68  94 125 160 198 237 279
#     4  12  24  38  50  63  86 123 164 202 236 274
#     4   9  17  29  47  69  93 120 153 192 234 280
#     4  10  19  33  50  70  94 122 158 197 240 285
#
# _framework density 15.80646
#
# number of rings (size 3 to 8) (size 9 to 14) (size 15 to 20)
#    0.000    1.667    1.111    5.333    0.000    3.111 
#    0.000    0.000    0.000    0.000    0.000    0.000 
#    0.000    0.889    0.000    9.556    0.000    4.222 
#
# Total GULP energy -446275.504532 kJ/mol
# GULP energy per Si atom -12396.541793 kJ/mol
# Density = 1.577048 g / cm^3
# Si number density = 15.806460 Si / 1000 Ang^3
#
#
#
# Elastic Constant Matrix: (Units=GPa)
#
#
# Indices 1 2 3 4 5 6 
#
# 1 108.5679 40.8590 40.2223 0.0000 0.0000 0.0000
# 2 40.8590 106.9242 44.3618 0.0000 0.0000 0.0000
# 3 40.2223 44.3618 94.8285 0.0000 0.0000 0.0000
# 4 0.0000 0.0000 0.0000 111.4340 0.0000 0.0000
# 5 0.0000 0.0000 0.0000 0.0000 10.2876 0.0000
# 6 0.0000 0.0000 0.0000 0.0000 0.0000 30.5370
#
#
#
# Elastic Compliance Matrix: (Units=1/GPa)
#
#
# Indices 1 2 3 4 5 6 
#
# 1 0.011646 -0.002979 -0.003546 0.000000 0.000000 0.000000
# 2 -0.002979 0.012367 -0.004522 0.000000 0.000000 0.000000
# 3 -0.003546 -0.004522 0.014165 0.000000 0.000000 0.000000
# 4 0.000000 0.000000 0.000000 0.008974 0.000000 0.000000
# 5 0.000000 0.000000 0.000000 0.000000 0.097205 0.000000
# 6 0.000000 0.000000 0.000000 0.000000 0.000000 0.032747
#
#
# Mechanical properties :
#
#
# Convention : Reuss Voigt Hill
#
# Bulk Modulus (GPa) = 62.17464 62.35633 62.26549
# Shear Modulus (GPa) = 24.44299 42.77688 33.60994
#
# Velocity S-wave (km/s) = 3.93669 5.20785 4.61623
# Velocity P-wave (km/s) = 7.75137 8.70045 8.23958
#
# Compressibility (1/GPa) = 0.01608373
#
# Stress axis : x y z
#
# Youngs Moduli (GPa) = 85.86876 80.86156 70.59771
#
# Poissons Ratio (x) = 0.24088 0.25034
# Poissons Ratio (y) = 0.25580 0.31923
# Poissons Ratio (z) = 0.30449 0.36564
#
# Static dielectric constant tensor:
#      x y z
#    x 3.163080 0.000000 0.000000 
#    y 0.000000 3.013990 0.000000 
#    z 0.000000 0.000000 3.165100 
# 
# 
# High freq. dielectric constant tensor:
#      x y z
#    x 1.630170 0.000000 0.000000 
#    y 0.000000 1.592430 0.000000 
#    z 0.000000 0.000000 1.583150 
# 
# From -- ./inp_files/37078.got.cif
#   From: 2010.03.12/outbox.cif.g09.slc.cpg/sg65_19_cif.got.tgz:37078.got - 2010.04.10 20:52:16.
