data_PCOD8268715
_publ_section_title
;
Structure prediction by ZEFSAII (Michael W. Deem and Ramdas Pophale) SiO2 
 PCOD8268715
Probable space group: C M M M
;
_chemical_formula_sum "Si O2"
_cell_formula_units_Z 64
_cell_length_a 9.008781
_cell_length_b 15.793644
_cell_length_c 21.947006
_cell_angle_alpha 90.000000
_cell_angle_beta 90.000000
_cell_angle_gamma 90.000000
_cell_volume 3122.652495
_symmetry_space_group_name_H-M "C M M M"
_symmetry_group_IT_number 65
_symmetry_cell_setting 'orthorhombic'
loop_
_space_group_symop_operation_xyz
x,y,z
-x,-y,z
x,-y,-z
-x,y,-z
-x,-y,-z
x,y,-z
-x,y,z
x,-y,z
1/2+x,1/2+y,z
1/2-x,1/2-y,z
1/2+x,1/2-y,-z
1/2-x,1/2+y,-z
1/2-x,1/2-y,-z
1/2+x,1/2+y,-z
1/2-x,1/2+y,z
1/2+x,1/2-y,z
loop_
_atom_site_type_symbol
_atom_site_label
_atom_site_fract_x
_atom_site_fract_y
_atom_site_fract_z
Si Si1 0.334352 0.905008 0.756861
Si Si2 0.823775 0.662796 0.370935
Si Si3 0.169817 0.000000 0.427906
Si Si4 0.326509 0.340220 0.131041
Si Si5 0.828197 0.161522 0.000000
O O1 0.500000 0.882514 0.779146
O O2 0.287814 0.844666 0.701205
O O3 0.227023 0.899611 0.814704
O O4 0.326304 0.000000 0.730912
O O5 0.750000 0.750000 0.394507
O O6 0.752921 0.584224 0.406026
O O7 0.000000 0.663983 0.383083
O O8 0.172489 0.000000 0.500000
O O9 0.000000 0.000000 0.403468
O O10 0.500000 0.326473 0.138339
O O11 0.250000 0.250000 0.137557
O O12 0.288218 0.384193 0.064579
O O13 0.750000 0.250000 0.000000
O O14 0.000000 0.182342 0.000000
#
# Coordination Sequence:
#
# PCOD8268715 Si02
#       5
#    16  16   8  16   8
#     4  10  21  38  57  82 116 152 195 249 303 357
#     4  11  23  42  67  96 129 169 211 257 310 366
#     4  11  25  45  69  99 133 168 209 256 303 359
#     4  10  19  32  52  78 106 144 190 241 299 360
#     4   8  16  30  47  70 103 139 185 239 293 355
#
# _framework density 20.495396
#
# number of rings (size 3 to 8) (size 9 to 14) (size 15 to 20)
#    0.000    1.875    1.250    2.625    0.000    7.000 
#    0.000    0.625    0.000    3.750    0.000    0.000 
#    0.000    0.000    0.000    0.000    0.000    0.000 
#
# Total GULP energy -396565.320697 kJ/mol
# GULP energy per Si atom -12392.666272 kJ/mol
# Density = 2.044875 g / cm^3
# Si number density = 20.495396 Si / 1000 Ang^3
#
#
#
# Elastic Constant Matrix: (Units=GPa)
#
#
# Indices 1 2 3 4 5 6 
#
# 1 109.0898 48.6630 56.5173 0.0000 0.0000 0.0000
# 2 48.6630 112.7642 40.5438 0.0000 0.0000 0.0000
# 3 56.5173 40.5438 96.2694 0.0000 0.0000 0.0000
# 4 0.0000 0.0000 0.0000 15.0950 0.0000 0.0000
# 5 0.0000 0.0000 0.0000 0.0000 33.1507 0.0000
# 6 0.0000 0.0000 0.0000 0.0000 0.0000 32.8334
#
#
#
# Elastic Compliance Matrix: (Units=1/GPa)
#
#
# Indices 1 2 3 4 5 6 
#
# 1 0.014399 -0.003741 -0.006878 0.000000 0.000000 0.000000
# 2 -0.003741 0.011422 -0.002614 0.000000 0.000000 0.000000
# 3 -0.006878 -0.002614 0.015526 0.000000 0.000000 0.000000
# 4 0.000000 0.000000 0.000000 0.066247 0.000000 0.000000
# 5 0.000000 0.000000 0.000000 0.000000 0.030165 0.000000
# 6 0.000000 0.000000 0.000000 0.000000 0.000000 0.030457
#
#
# Mechanical properties :
#
#
# Convention : Reuss Voigt Hill
#
# Bulk Modulus (GPa) = 67.19721 67.73019 67.46370
# Shear Modulus (GPa) = 25.04472 27.70910 26.37691
#
# Velocity S-wave (km/s) = 3.49946 3.68090 3.59132
# Velocity P-wave (km/s) = 7.01327 7.15427 7.08412
#
# Compressibility (1/GPa) = 0.01488157
#
# Stress axis : x y z
#
# Youngs Moduli (GPa) = 69.45091 87.54715 64.40718
#
# Poissons Ratio (x) = 0.32750 0.44297
# Poissons Ratio (y) = 0.25981 0.16838
# Poissons Ratio (z) = 0.47766 0.22888
#
# Static dielectric constant tensor:
#      x y z
#    x 3.730440 0.000000 0.000000 
#    y 0.000000 3.466390 0.000000 
#    z 0.000000 0.000000 4.030340 
# 
# 
# High freq. dielectric constant tensor:
#      x y z
#    x 1.808550 0.000000 0.000000 
#    y 0.000000 1.782920 0.000000 
#    z 0.000000 0.000000 1.813290 
# 
# From -- ./inp_files/58815.got.cif
#   From: 2010.03.12/outbox.cif.g09.slc.cpg/sg65_30_cif.got.tgz:58815.got - 2010.04.10 20:52:16.
