data_PCOD8268773
_publ_section_title
;
Structure prediction by ZEFSAII (Michael W. Deem and Ramdas Pophale) SiO2 
 PCOD8268773
Probable space group: C M M M
;
_chemical_formula_sum "Si O2"
_cell_formula_units_Z 96
_cell_length_a 23.418636
_cell_length_b 25.288882
_cell_length_c 9.035274
_cell_angle_alpha 90.000000
_cell_angle_beta 90.000000
_cell_angle_gamma 90.000000
_cell_volume 5350.970462
_symmetry_space_group_name_H-M "C M M M"
_symmetry_group_IT_number 65
_symmetry_cell_setting 'orthorhombic'
loop_
_space_group_symop_operation_xyz
x,y,z
-x,-y,z
x,-y,-z
-x,y,-z
-x,-y,-z
x,y,-z
-x,y,z
x,-y,z
1/2+x,1/2+y,z
1/2-x,1/2-y,z
1/2+x,1/2-y,-z
1/2-x,1/2+y,-z
1/2-x,1/2-y,-z
1/2+x,1/2+y,-z
1/2-x,1/2+y,z
1/2+x,1/2-y,z
loop_
_atom_site_type_symbol
_atom_site_label
_atom_site_fract_x
_atom_site_fract_y
_atom_site_fract_z
Si Si1 0.000000 0.699111 0.824410
Si Si2 0.885151 0.152723 0.675011
Si Si3 0.000000 0.180551 0.176226
Si Si4 0.816224 0.742651 0.670848
Si Si5 0.882081 0.347704 0.175092
Si Si6 0.694393 0.441534 0.675915
Si Si7 0.177399 0.561044 0.329866
O O1 0.000000 0.759160 0.765047
O O2 0.944300 0.669031 0.763671
O O3 0.000000 0.700354 0.000000
O O4 0.895938 0.149379 0.500000
O O5 0.850137 0.204953 0.718331
O O6 0.849537 0.102301 0.734494
O O7 0.944767 0.151112 0.760270
O O8 0.000000 0.177079 0.000000
O O9 0.827384 0.728928 0.500000
O O10 0.750000 0.750000 0.703188
O O11 0.835669 0.693975 0.769758
O O12 0.867525 0.405615 0.235101
O O13 0.881499 0.348763 0.000000
O O14 0.696173 0.441190 0.500000
O O15 0.675557 0.500000 0.732139
O O16 0.758512 0.428719 0.731446
O O17 0.173177 0.578955 0.500000
O O18 0.160613 0.500000 0.311733
#
# Coordination Sequence:
#
# PCOD8268773 Si02
#       7
#     8  16   8  16  16  16  16
#     4   9  20  37  52  69 100 144 181 213 258 311
#     4  10  19  32  53  80 104 130 176 221 255 305
#     4  11  21  37  54  69 102 146 181 213 261 312
#     4  10  20  33  51  77 108 136 165 212 270 322
#     4  11  21  35  54  76 104 138 179 220 260 310
#     4   8  15  31  56  81 106 137 170 210 262 315
#     4   9  18  35  58  82 109 140 172 210 262 317
#
# _framework density 17.940671999999999
#
# number of rings (size 3 to 8) (size 9 to 14) (size 15 to 20)
#    0.000    2.333    1.667    2.750    0.000    3.333 
#    0.000    5.000    0.000    6.500    0.000    0.000 
#    0.000    0.000    0.000    0.000    0.000    0.000 
#
# Total GULP energy -595248.550604 kJ/mol
# GULP energy per Si atom -12401.011471 kJ/mol
# Density = 1.789984 g / cm^3
# Si number density = 17.940672 Si / 1000 Ang^3
#
#
#
# Elastic Constant Matrix: (Units=GPa)
#
#
# Indices 1 2 3 4 5 6 
#
# 1 101.9596 50.0104 28.7064 0.0000 0.0000 0.0000
# 2 50.0104 104.1114 28.2796 0.0000 0.0000 0.0000
# 3 28.7064 28.2796 43.7129 0.0000 0.0000 0.0000
# 4 0.0000 0.0000 0.0000 20.9515 0.0000 0.0000
# 5 0.0000 0.0000 0.0000 0.0000 17.7162 0.0000
# 6 0.0000 0.0000 0.0000 0.0000 0.0000 32.2159
#
#
#
# Elastic Compliance Matrix: (Units=1/GPa)
#
#
# Indices 1 2 3 4 5 6 
#
# 1 0.013968 -0.005117 -0.005862 0.000000 0.000000 0.000000
# 2 -0.005117 0.013528 -0.005391 0.000000 0.000000 0.000000
# 3 -0.005862 -0.005391 0.030214 0.000000 0.000000 0.000000
# 4 0.000000 0.000000 0.000000 0.047729 0.000000 0.000000
# 5 0.000000 0.000000 0.000000 0.000000 0.056445 0.000000
# 6 0.000000 0.000000 0.000000 0.000000 0.000000 0.031041
#
#
# Mechanical properties :
#
#
# Convention : Reuss Voigt Hill
#
# Bulk Modulus (GPa) = 40.05049 51.53075 45.79062
# Shear Modulus (GPa) = 21.36847 23.69589 22.53218
#
# Velocity S-wave (km/s) = 3.45492 3.63821 3.54775
# Velocity P-wave (km/s) = 6.18770 6.81425 6.50852
#
# Compressibility (1/GPa) = 0.02496848
#
# Stress axis : x y z
#
# Youngs Moduli (GPa) = 71.59019 73.92307 33.09722
#
# Poissons Ratio (x) = 0.37829 0.19403
# Poissons Ratio (y) = 0.36635 0.17842
# Poissons Ratio (z) = 0.41969 0.39851
#
# Static dielectric constant tensor:
#      x y z
#    x 3.417280 0.000000 0.000000 
#    y 0.000000 3.469800 0.000000 
#    z 0.000000 0.000000 3.029290 
# 
# 
# High freq. dielectric constant tensor:
#      x y z
#    x 1.697260 0.000000 0.000000 
#    y 0.000000 1.698880 0.000000 
#    z 0.000000 0.000000 1.666540 
# 
# From -- ./inp_files/14365.got.cif
#   From: 2010.03.12/outbox.cif.g09.slc.cpg/sg65_8_cif.got.tgz:14365.got - 2010.04.10 20:52:16.
