data_PCOD8268886
_publ_section_title
;
Structure prediction by ZEFSAII (Michael W. Deem and Ramdas Pophale) SiO2 
 PCOD8268886
Probable space group: C M M M
;
_chemical_formula_sum "Si O2"
_cell_formula_units_Z 120
_cell_length_a 23.033090
_cell_length_b 14.024805
_cell_length_c 20.193103
_cell_angle_alpha 90.000000
_cell_angle_beta 90.000000
_cell_angle_gamma 90.000000
_cell_volume 6523.070866
_symmetry_space_group_name_H-M "C M M M"
_symmetry_group_IT_number 65
_symmetry_cell_setting 'orthorhombic'
loop_
_space_group_symop_operation_xyz
x,y,z
-x,-y,z
x,-y,-z
-x,y,-z
-x,-y,-z
x,y,-z
-x,y,z
x,-y,z
1/2+x,1/2+y,z
1/2-x,1/2-y,z
1/2+x,1/2-y,-z
1/2-x,1/2+y,-z
1/2-x,1/2-y,-z
1/2+x,1/2+y,-z
1/2-x,1/2+y,z
1/2+x,1/2-y,z
loop_
_atom_site_type_symbol
_atom_site_label
_atom_site_fract_x
_atom_site_fract_y
_atom_site_fract_z
Si Si1 0.564258 0.292953 0.304980
Si Si2 0.822213 0.886942 0.663462
Si Si3 0.219661 0.386438 0.574183
Si Si4 0.378751 0.105953 0.326252
Si Si5 0.159069 0.606301 0.821325
Si Si6 0.287672 0.612490 0.192014
Si Si7 0.899764 0.206808 0.843917
Si Si8 0.000000 0.890393 0.078258
O O1 0.500000 0.327381 0.325874
O O2 0.612562 0.348109 0.347917
O O3 0.568241 0.179567 0.319502
O O4 0.572951 0.315544 0.227564
O O5 0.779690 0.847136 0.606029
O O6 0.797713 0.848496 0.733506
O O7 0.824580 0.000000 0.662155
O O8 0.213739 0.345568 0.500000
O O9 0.221939 0.500000 0.574404
O O10 0.164543 0.354351 0.617479
O O11 0.343367 0.103052 0.258038
O O12 0.402766 0.000000 0.343314
O O13 0.147188 0.500000 0.850308
O O14 0.224621 0.642734 0.836401
O O15 0.111982 0.679221 0.852227
O O16 0.292760 0.500000 0.191698
O O17 0.338018 0.654975 0.145722
O O18 0.943291 0.167249 0.898680
O O19 0.000000 0.000000 0.105107
O O20 0.000000 0.890867 0.000000
#
# Coordination Sequence:
#
# PCOD8268886 Si02
#       8
#    16  16  16  16  16  16  16   8
#     4  10  20  32  47  72  98 128 166 209 254 300
#     4   9  17  29  45  69 100 131 163 208 263 311
#     4   9  16  29  50  73  98 130 170 213 261 320
#     4   9  17  30  47  69 100 131 165 212 264 311
#     4   9  16  28  50  78 110 139 165 210 269 319
#     4   9  15  26  48  77 108 136 163 210 270 319
#     4  10  19  33  51  79 106 134 175 211 250 300
#     4  11  24  42  61  79 107 143 175 210 244 284
#
# _framework density 18.396243999999999
#
# number of rings (size 3 to 8) (size 9 to 14) (size 15 to 20)
#    0.000    2.600    2.000    0.800    0.000    1.600 
#    0.000    1.667    0.000    4.000    0.000    5.600 
#    0.000    0.000    0.000    0.000    0.000    0.000 
#
# Total GULP energy -743745.063687 kJ/mol
# GULP energy per Si atom -12395.751061 kJ/mol
# Density = 1.835437 g / cm^3
# Si number density = 18.396244 Si / 1000 Ang^3
#
#
#
# Elastic Constant Matrix: (Units=GPa)
#
#
# Indices 1 2 3 4 5 6 
#
# 1 99.3849 40.5294 30.8788 0.0000 0.0000 0.0000
# 2 40.5294 44.7864 23.3680 0.0000 0.0000 0.0000
# 3 30.8788 23.3680 52.9220 0.0000 0.0000 0.0000
# 4 0.0000 0.0000 0.0000 14.9401 0.0000 0.0000
# 5 0.0000 0.0000 0.0000 0.0000 22.5985 0.0000
# 6 0.0000 0.0000 0.0000 0.0000 0.0000 25.3751
#
#
#
# Elastic Compliance Matrix: (Units=1/GPa)
#
#
# Indices 1 2 3 4 5 6 
#
# 1 0.016561 -0.012922 -0.003957 0.000000 0.000000 0.000000
# 2 -0.012922 0.039095 -0.009723 0.000000 0.000000 0.000000
# 3 -0.003957 -0.009723 0.025498 0.000000 0.000000 0.000000
# 4 0.000000 0.000000 0.000000 0.066934 0.000000 0.000000
# 5 0.000000 0.000000 0.000000 0.000000 0.044251 0.000000
# 6 0.000000 0.000000 0.000000 0.000000 0.000000 0.039409
#
#
# Mechanical properties :
#
#
# Convention : Reuss Voigt Hill
#
# Bulk Modulus (GPa) = 35.77866 42.96065 39.36966
# Shear Modulus (GPa) = 16.99128 19.40389 18.19758
#
# Velocity S-wave (km/s) = 3.04242 3.25125 3.14857
# Velocity P-wave (km/s) = 5.64206 6.12355 5.88773
#
# Compressibility (1/GPa) = 0.02794962
#
# Stress axis : x y z
#
# Youngs Moduli (GPa) = 60.38249 25.57855 39.21903
#
# Poissons Ratio (x) = 0.33053 0.15519
# Poissons Ratio (y) = 0.78028 0.38132
# Poissons Ratio (z) = 0.23894 0.24870
#
# Static dielectric constant tensor:
#      x y z
#    x 3.324550 0.000000 0.000000 
#    y 0.000000 3.559320 0.000000 
#    z 0.000000 0.000000 2.984820 
# 
# 
# High freq. dielectric constant tensor:
#      x y z
#    x 1.706670 0.000000 0.000000 
#    y 0.000000 1.727320 0.000000 
#    z 0.000000 0.000000 1.652560 
# 
# From -- ./inp_files/64751.got.cif
#   From: 2010.03.12/outbox.cif.g09.slc.cpg/sg65_33_cif.got.tgz:64751.got - 2010.04.10 20:52:16.
