data_PCOD8268839
_publ_section_title
;
Structure prediction by ZEFSAII (Michael W. Deem and Ramdas Pophale) SiO2 
 PCOD8268839
Probable space group: C M M M
;
_chemical_formula_sum "Si O2"
_cell_formula_units_Z 88
_cell_length_a 9.439598
_cell_length_b 28.269537
_cell_length_c 23.148254
_cell_angle_alpha 90.000000
_cell_angle_beta 90.000000
_cell_angle_gamma 90.000000
_cell_volume 6177.182528
_symmetry_space_group_name_H-M "C M M M"
_symmetry_group_IT_number 65
_symmetry_cell_setting 'orthorhombic'
loop_
_space_group_symop_operation_xyz
x,y,z
-x,-y,z
x,-y,-z
-x,y,-z
-x,-y,-z
x,y,-z
-x,y,z
x,-y,z
1/2+x,1/2+y,z
1/2-x,1/2-y,z
1/2+x,1/2-y,-z
1/2-x,1/2+y,-z
1/2-x,1/2-y,-z
1/2+x,1/2+y,-z
1/2-x,1/2+y,z
1/2+x,1/2-y,z
loop_
_atom_site_type_symbol
_atom_site_label
_atom_site_fract_x
_atom_site_fract_y
_atom_site_fract_z
Si Si1 0.341000 0.056256 0.936012
Si Si2 0.159515 0.943620 0.169498
Si Si3 0.164787 0.397068 0.397963
Si Si4 0.335753 0.555875 0.500000
Si Si5 0.336799 0.945376 0.278604
Si Si6 0.837156 0.293982 0.566372
O O1 0.500000 0.074731 0.923652
O O2 0.235414 0.077206 0.887756
O O3 0.340520 0.000000 0.932976
O O4 0.291208 0.072756 0.000000
O O5 0.242335 0.925870 0.226097
O O6 0.000000 0.923886 0.171419
O O7 0.161234 0.000000 0.167617
O O8 0.261618 0.424106 0.443246
O O9 0.203526 0.415486 0.334722
O O10 0.198618 0.341285 0.398269
O O11 0.000000 0.406443 0.413592
O O12 0.318141 0.500000 0.500000
O O13 0.500000 0.571053 0.500000
O O14 0.500000 0.938616 0.261001
O O15 0.303456 0.000000 0.292141
O O16 0.794355 0.303573 0.500000
O O17 0.750000 0.250000 0.592365
O O18 0.000000 0.280049 0.571965
#
# Coordination Sequence:
#
# PCOD8268839 Si02
#       6
#    16  16  16   8  16  16
#     4   8  13  21  33  48  66  90 123 163 200 230
#     4   9  16  24  34  49  71  98 126 159 197 234
#     4  10  19  33  49  63  78 102 136 167 196 237
#     4  11  23  33  42  61  86 107 128 161 204 243
#     4   9  17  28  42  57  73  99 134 167 196 228
#     4   9  17  30  47  66  84 100 122 156 198 244
#
# _framework density 14.245977
#
# number of rings (size 3 to 8) (size 9 to 14) (size 15 to 20)
#    0.000    2.818    0.909    1.909    0.000    5.455 
#    0.000    3.636    0.000    0.000    0.000    0.000 
#    0.000    0.000    0.000    0.000    0.000    0.909 
#
# Total GULP energy -545512.514401 kJ/mol
# GULP energy per Si atom -12398.011691 kJ/mol
# Density = 1.421355 g / cm^3
# Si number density = 14.245977 Si / 1000 Ang^3
#
#
#
# Elastic Constant Matrix: (Units=GPa)
#
#
# Indices 1 2 3 4 5 6 
#
# 1 97.3713 36.9880 75.3475 0.0000 0.0000 0.0000
# 2 36.9880 52.7900 42.1419 0.0000 0.0000 0.0000
# 3 75.3475 42.1419 125.7231 0.0000 0.0000 0.0000
# 4 0.0000 0.0000 0.0000 -0.9152 0.0000 0.0000
# 5 0.0000 0.0000 0.0000 0.0000 15.7699 0.0000
# 6 0.0000 0.0000 0.0000 0.0000 0.0000 16.2745
#
#
#
# Elastic Compliance Matrix: (Units=1/GPa)
#
#
# Indices 1 2 3 4 5 6 
#
# 1 0.020553 -0.006236 -0.010227 0.000000 0.000000 0.000000
# 2 -0.006236 0.027756 -0.005566 0.000000 0.000000 0.000000
# 3 -0.010227 -0.005566 0.015949 0.000000 0.000000 0.000000
# 4 0.000000 0.000000 0.000000 -1.092635 0.000000 0.000000
# 5 0.000000 0.000000 0.000000 0.000000 0.063412 0.000000
# 6 0.000000 0.000000 0.000000 0.000000 0.000000 0.061446
#
#
# Mechanical properties :
#
#
# Convention : Reuss Voigt Hill
#
# Bulk Modulus (GPa) = 49.50868 64.98213 57.24541
# Shear Modulus (GPa) = -5.86354 14.31964 4.22805
#
# Velocity S-wave (km/s) = -2.03098 3.17388 1.72463
# Velocity P-wave (km/s) = 5.41557 7.69056 6.65106
#
# Compressibility (1/GPa) = 0.02019848
#
# Stress axis : x y z
#
# Youngs Moduli (GPa) = 48.65480 36.02825 62.69953
#
# Poissons Ratio (x) = 0.22468 0.64124
# Poissons Ratio (y) = 0.30343 0.34900
# Poissons Ratio (z) = 0.49761 0.20054
#
# Static dielectric constant tensor:
#      x y z
#    x 2.936230 0.000000 0.000000 
#    y 0.000000 2.449320 0.000000 
#    z 0.000000 0.000000 2.897620 
# 
# 
# High freq. dielectric constant tensor:
#      x y z
#    x 1.551850 0.000000 0.000000 
#    y 0.000000 1.488170 0.000000 
#    z 0.000000 0.000000 1.541780 
# 
# From -- ./inp_files/66236.got.cif
#   From: 2010.03.12/outbox.cif.g09.slc.cpg/sg65_34_cif.got.tgz:66236.got - 2010.04.10 20:52:16.
