data_PCOD8268499
_publ_section_title
;
Structure prediction by ZEFSAII (Michael W. Deem and Ramdas Pophale) SiO2 
 PCOD8268499
Probable space group: C M M M
;
_chemical_formula_sum "Si O2"
_cell_formula_units_Z 104
_cell_length_a 22.755016
_cell_length_b 27.745247
_cell_length_c 9.622908
_cell_angle_alpha 90.000000
_cell_angle_beta 90.000000
_cell_angle_gamma 90.000000
_cell_volume 6075.360796
_symmetry_space_group_name_H-M "C M M M"
_symmetry_group_IT_number 65
_symmetry_cell_setting 'orthorhombic'
loop_
_space_group_symop_operation_xyz
x,y,z
-x,-y,z
x,-y,-z
-x,y,-z
-x,-y,-z
x,y,-z
-x,y,z
x,-y,z
1/2+x,1/2+y,z
1/2-x,1/2-y,z
1/2+x,1/2-y,-z
1/2-x,1/2+y,-z
1/2-x,1/2-y,-z
1/2+x,1/2+y,-z
1/2-x,1/2+y,z
1/2+x,1/2-y,z
loop_
_atom_site_type_symbol
_atom_site_label
_atom_site_fract_x
_atom_site_fract_y
_atom_site_fract_z
Si Si1 0.568548 0.913792 0.342875
Si Si2 0.641923 0.820389 0.339301
Si Si3 0.375835 0.650334 0.836319
Si Si4 0.570118 0.000000 0.156605
Si Si5 0.432999 0.729023 0.340400
Si Si6 0.249514 0.806299 0.838426
Si Si7 0.566093 0.553177 0.835441
O O1 0.581791 0.931011 0.500000
O O2 0.500000 0.906319 0.319444
O O3 0.597696 0.863327 0.308988
O O4 0.594242 0.953259 0.236934
O O5 0.660013 0.817328 0.500000
O O6 0.609743 0.771724 0.290424
O O7 0.699530 0.831085 0.249763
O O8 0.422528 0.683086 0.756189
O O9 0.310514 0.667084 0.794479
O O10 0.388303 0.595021 0.788362
O O11 0.386408 0.657157 0.000000
O O12 0.500000 0.000000 0.158783
O O13 0.594833 0.000000 0.000000
O O14 0.419924 0.715163 0.500000
O O15 0.500000 0.746407 0.323063
O O16 0.250000 0.750000 0.799621
O O17 0.262770 0.813979 0.000000
O O18 0.500000 0.564409 0.780190
O O19 0.586459 0.500000 0.780430
O O20 0.564371 0.551843 0.000000
#
# Coordination Sequence:
#
# PCOD8268499 Si02
#       7
#    16  16  16   8  16  16  16
#     4   9  17  31  51  73  97 127 163 202 247 299
#     4  10  20  33  51  72  95 129 168 204 244 294
#     4  10  19  32  51  72  96 131 168 200 239 295
#     4   9  17  29  47  73 101 127 157 195 242 295
#     4  10  20  32  47  72 104 130 156 198 247 293
#     4  10  20  34  49  68  97 131 166 205 244 285
#     4   8  14  26  47  75 100 120 152 202 249 287
#
# _framework density 17.118324999999999
#
# number of rings (size 3 to 8) (size 9 to 14) (size 15 to 20)
#    0.000    2.538    1.538    1.615    0.000    5.231 
#    0.000    0.000    1.692    3.231    0.000    2.154 
#    0.000    0.000    0.000    0.000    0.000    0.000 
#
# Total GULP energy -644685.659154 kJ/mol
# GULP energy per Si atom -12397.801138 kJ/mol
# Density = 1.707936 g / cm^3
# Si number density = 17.118325 Si / 1000 Ang^3
#
#
#
# Elastic Constant Matrix: (Units=GPa)
#
#
# Indices 1 2 3 4 5 6 
#
# 1 84.1037 54.4095 33.1022 0.0000 0.0000 0.0000
# 2 54.4095 131.5694 43.4101 0.0000 0.0000 0.0000
# 3 33.1022 43.4101 55.6835 0.0000 0.0000 0.0000
# 4 0.0000 0.0000 0.0000 21.3934 0.0000 0.0000
# 5 0.0000 0.0000 0.0000 0.0000 24.9127 0.0000
# 6 0.0000 0.0000 0.0000 0.0000 0.0000 20.4110
#
#
#
# Elastic Compliance Matrix: (Units=1/GPa)
#
#
# Indices 1 2 3 4 5 6 
#
# 1 0.017840 -0.005222 -0.006535 0.000000 0.000000 0.000000
# 2 -0.005222 0.011761 -0.006065 0.000000 0.000000 0.000000
# 3 -0.006535 -0.006065 0.026571 0.000000 0.000000 0.000000
# 4 0.000000 0.000000 0.000000 0.046743 0.000000 0.000000
# 5 0.000000 0.000000 0.000000 0.000000 0.040140 0.000000
# 6 0.000000 0.000000 0.000000 0.000000 0.000000 0.048993
#
#
# Mechanical properties :
#
#
# Convention : Reuss Voigt Hill
#
# Bulk Modulus (GPa) = 48.70819 59.24448 53.97634
# Shear Modulus (GPa) = 21.31889 22.70574 22.01232
#
# Velocity S-wave (km/s) = 3.53283 3.64593 3.58982
# Velocity P-wave (km/s) = 6.71988 7.23931 6.98443
#
# Compressibility (1/GPa) = 0.02053043
#
# Stress axis : x y z
#
# Youngs Moduli (GPa) = 56.05355 85.02813 37.63481
#
# Poissons Ratio (x) = 0.44398 0.24593
# Poissons Ratio (y) = 0.29269 0.22824
# Poissons Ratio (z) = 0.36630 0.51565
#
# Static dielectric constant tensor:
#      x y z
#    x 3.081300 0.000000 0.000000 
#    y 0.000000 3.410590 0.000000 
#    z 0.000000 0.000000 3.079370 
# 
# 
# High freq. dielectric constant tensor:
#      x y z
#    x 1.644390 0.000000 0.000000 
#    y 0.000000 1.663810 0.000000 
#    z 0.000000 0.000000 1.644340 
# 
# From -- ./inp_files/14712.got.cif
#   From: 2010.03.12/outbox.cif.g09.slc.cpg/sg65_8_cif.got.tgz:14712.got - 2010.04.10 20:52:16.
