data_PCOD8268177
_publ_section_title
;
Structure prediction by ZEFSAII (Michael W. Deem and Ramdas Pophale) SiO2 
 PCOD8268177
Probable space group: C M M M
;
_chemical_formula_sum "Si O2"
_cell_formula_units_Z 88
_cell_length_a 13.033514
_cell_length_b 29.752073
_cell_length_c 12.207903
_cell_angle_alpha 90.000000
_cell_angle_beta 90.000000
_cell_angle_gamma 90.000000
_cell_volume 4733.908110
_symmetry_space_group_name_H-M "C M M M"
_symmetry_group_IT_number 65
_symmetry_cell_setting 'orthorhombic'
loop_
_space_group_symop_operation_xyz
x,y,z
-x,-y,z
x,-y,-z
-x,y,-z
-x,-y,-z
x,y,-z
-x,y,z
x,-y,z
1/2+x,1/2+y,z
1/2-x,1/2-y,z
1/2+x,1/2-y,-z
1/2-x,1/2+y,-z
1/2-x,1/2-y,-z
1/2+x,1/2+y,-z
1/2-x,1/2+y,z
1/2+x,1/2-y,z
loop_
_atom_site_type_symbol
_atom_site_label
_atom_site_fract_x
_atom_site_fract_y
_atom_site_fract_z
Si Si1 0.112089 0.301575 0.120148
Si Si2 0.618541 0.333432 0.699507
Si Si3 0.755423 0.115959 0.124160
Si Si4 0.383118 0.946830 0.735185
Si Si5 0.317082 0.947878 0.500000
Si Si6 0.750000 0.250000 0.725456
Si Si7 0.113669 0.899558 0.500000
O O1 0.164965 0.349038 0.117481
O O2 0.157366 0.265385 0.200283
O O3 0.000000 0.311948 0.164256
O O4 0.112574 0.279255 0.000000
O O5 0.500000 0.317122 0.711359
O O6 0.651786 0.359480 0.810795
O O7 0.695752 0.292095 0.663429
O O8 0.630507 0.369120 0.604900
O O9 0.705008 0.073423 0.185892
O O10 0.791665 0.102673 0.000000
O O11 0.500000 0.935073 0.772300
O O12 0.367408 0.927736 0.610991
O O13 0.365001 0.000000 0.738361
O O14 0.195050 0.939597 0.500000
O O15 0.339752 0.000000 0.500000
O O16 0.000000 0.921129 0.500000
#
# Coordination Sequence:
#
# PCOD8268177 Si02
#       7
#    16  16  16  16   8   8   8
#     4   9  17  29  45  67  98 135 176 219 256 300
#     4  10  21  37  57  80 107 143 184 228 277 329
#     4  10  20  34  53  78 108 145 184 222 269 324
#     4  10  20  34  55  83 114 147 182 223 273 328
#     4  10  19  35  59  85 112 143 183 232 276 318
#     4  10  19  31  50  76 104 136 173 217 272 326
#     4  10  20  37  60  82 107 142 185 228 276 329
#
# _framework density 18.589292
#
# number of rings (size 3 to 8) (size 9 to 14) (size 15 to 20)
#    0.000    2.182    1.818    1.636    0.000    4.182 
#    0.000    0.909    0.000    0.545    0.000    1.273 
#    0.000    0.000    0.000    0.000    0.000    0.000 
#
# Total GULP energy -545105.262926 kJ/mol
# GULP energy per Si atom -12388.755976 kJ/mol
# Density = 1.854698 g / cm^3
# Si number density = 18.589292 Si / 1000 Ang^3
#
#
#
# Elastic Constant Matrix: (Units=GPa)
#
#
# Indices 1 2 3 4 5 6 
#
# 1 86.7971 4.6367 15.1327 0.0000 0.0000 0.0000
# 2 4.6367 27.0291 8.7014 0.0000 0.0000 0.0000
# 3 15.1327 8.7014 86.6130 0.0000 0.0000 0.0000
# 4 0.0000 0.0000 0.0000 -43.8376 0.0000 0.0000
# 5 0.0000 0.0000 0.0000 0.0000 32.6006 0.0000
# 6 0.0000 0.0000 0.0000 0.0000 0.0000 28.1745
#
#
#
# Elastic Compliance Matrix: (Units=1/GPa)
#
#
# Indices 1 2 3 4 5 6 
#
# 1 0.011936 -0.001422 -0.001942 0.000000 0.000000 0.000000
# 2 -0.001422 0.038403 -0.003610 0.000000 0.000000 0.000000
# 3 -0.001942 -0.003610 0.012248 0.000000 0.000000 0.000000
# 4 0.000000 0.000000 0.000000 -0.022811 0.000000 0.000000
# 5 0.000000 0.000000 0.000000 0.000000 0.030674 0.000000
# 6 0.000000 0.000000 0.000000 0.000000 0.000000 0.035493
#
#
# Mechanical properties :
#
#
# Convention : Reuss Voigt Hill
#
# Bulk Modulus (GPa) = 20.56004 28.59785 24.57894
# Shear Modulus (GPa) = 36.73668 14.85205 25.79436
#
# Velocity S-wave (km/s) = 4.45030 2.82965 3.72908
# Velocity P-wave (km/s) = 6.12300 5.10816 5.63846
#
# Compressibility (1/GPa) = 0.04863803
#
# Stress axis : x y z
#
# Youngs Moduli (GPa) = 83.78182 26.03950 81.64847
#
# Poissons Ratio (x) = 0.03703 0.15860
# Poissons Ratio (y) = 0.11915 0.29472
# Poissons Ratio (z) = 0.16275 0.09399
#
# Static dielectric constant tensor:
#      x y z
#    x 3.518460 0.000000 0.000000 
#    y 0.000000 3.126450 0.000000 
#    z 0.000000 0.000000 3.809650 
# 
# 
# High freq. dielectric constant tensor:
#      x y z
#    x 1.726500 0.000000 0.000000 
#    y 0.000000 1.707560 0.000000 
#    z 0.000000 0.000000 1.717460 
# 
# From -- ./inp_files/23038.got.cif
#   From: 2010.03.12/outbox.cif.g09.slc.cpg/sg65_12_cif.got.tgz:23038.got - 2010.04.10 20:52:16.
