data_PCOD8268815
_publ_section_title
;
Structure prediction by ZEFSAII (Michael W. Deem and Ramdas Pophale) SiO2 
 PCOD8268815
Probable space group: C M M M
;
_chemical_formula_sum "Si O2"
_cell_formula_units_Z 104
_cell_length_a 28.868399
_cell_length_b 8.921478
_cell_length_c 20.348937
_cell_angle_alpha 90.000000
_cell_angle_beta 90.000000
_cell_angle_gamma 90.000000
_cell_volume 5240.844032
_symmetry_space_group_name_H-M "C M M M"
_symmetry_group_IT_number 65
_symmetry_cell_setting 'orthorhombic'
loop_
_space_group_symop_operation_xyz
x,y,z
-x,-y,z
x,-y,-z
-x,y,-z
-x,-y,-z
x,y,-z
-x,y,z
x,-y,z
1/2+x,1/2+y,z
1/2-x,1/2-y,z
1/2+x,1/2-y,-z
1/2-x,1/2+y,-z
1/2-x,1/2-y,-z
1/2+x,1/2+y,-z
1/2-x,1/2+y,z
1/2+x,1/2-y,z
loop_
_atom_site_type_symbol
_atom_site_label
_atom_site_fract_x
_atom_site_fract_y
_atom_site_fract_z
Si Si1 0.447230 0.673795 0.617576
Si Si2 0.447301 0.821813 0.000000
Si Si3 0.298450 0.323082 0.172384
Si Si4 0.552640 0.169986 0.248192
Si Si5 0.861768 0.327476 0.573156
Si Si6 0.202454 0.824360 0.322662
Si Si7 0.887680 0.323581 0.876505
O O1 0.500000 0.709619 0.598082
O O2 0.435460 0.500000 0.607875
O O3 0.437560 0.716241 0.693032
O O4 0.415020 0.773536 0.570806
O O5 0.418872 0.764508 0.936719
O O6 0.500000 0.756746 0.000000
O O7 0.450321 0.000000 0.000000
O O8 0.294547 0.500000 0.163636
O O9 0.250000 0.250000 0.150660
O O10 0.309926 0.277967 0.247969
O O11 0.338350 0.259858 0.124802
O O12 0.500000 0.181977 0.223046
O O13 0.585291 0.219573 0.189229
O O14 0.563406 0.000000 0.271395
O O15 0.840713 0.303922 0.500000
O O16 0.858682 0.500000 0.594039
O O17 0.836849 0.228768 0.627820
O O18 0.250000 0.750000 0.345673
O O19 0.208560 0.000000 0.329239
O O20 0.878602 0.500000 0.882515
#
# Coordination Sequence:
#
# PCOD8268815 Si02
#       7
#    16   8  16  16  16  16  16
#     4  10  21  36  54  77 105 138 178 226 279 331
#     4   9  18  34  56  83 116 153 192 227 260 309
#     4  10  21  37  58  84 111 139 177 224 273 324
#     4   9  17  30  51  79 108 139 177 221 269 322
#     4  11  24  39  55  77 106 142 183 224 268 323
#     4  10  21  38  61  86 112 142 176 220 273 326
#     4  10  19  32  54  82 112 147 185 225 268 314
#
# _framework density 19.844131999999998
#
# number of rings (size 3 to 8) (size 9 to 14) (size 15 to 20)
#    0.000    2.077    0.000    3.231    0.000    9.538 
#    0.000    2.308    0.000    1.846    0.000    0.000 
#    0.000    0.000    0.000    0.000    0.000    0.000 
#
# Total GULP energy -644908.281340 kJ/mol
# GULP energy per Si atom -12402.082333 kJ/mol
# Density = 1.979897 g / cm^3
# Si number density = 19.844132 Si / 1000 Ang^3
#
#
#
# Elastic Constant Matrix: (Units=GPa)
#
#
# Indices 1 2 3 4 5 6 
#
# 1 127.7203 38.4630 52.1816 0.0000 0.0000 0.0000
# 2 38.4630 62.0345 25.0080 0.0000 0.0000 0.0000
# 3 52.1816 25.0080 65.5785 0.0000 0.0000 0.0000
# 4 0.0000 0.0000 0.0000 19.3634 0.0000 0.0000
# 5 0.0000 0.0000 0.0000 0.0000 25.2336 0.0000
# 6 0.0000 0.0000 0.0000 0.0000 0.0000 36.9465
#
#
#
# Elastic Compliance Matrix: (Units=1/GPa)
#
#
# Indices 1 2 3 4 5 6 
#
# 1 0.012557 -0.004440 -0.008299 0.000000 0.000000 0.000000
# 2 -0.004440 0.020619 -0.004329 0.000000 0.000000 0.000000
# 3 -0.008299 -0.004329 0.023503 0.000000 0.000000 0.000000
# 4 0.000000 0.000000 0.000000 0.051644 0.000000 0.000000
# 5 0.000000 0.000000 0.000000 0.000000 0.039630 0.000000
# 6 0.000000 0.000000 0.000000 0.000000 0.000000 0.027066
#
#
# Mechanical properties :
#
#
# Convention : Reuss Voigt Hill
#
# Bulk Modulus (GPa) = 44.36160 54.07095 49.21628
# Shear Modulus (GPa) = 23.07653 25.62073 24.34863
#
# Velocity S-wave (km/s) = 3.41382 3.59708 3.50665
# Velocity P-wave (km/s) = 6.15974 6.67525 6.42267
#
# Compressibility (1/GPa) = 0.02254202
#
# Stress axis : x y z
#
# Youngs Moduli (GPa) = 79.63434 48.49992 42.54719
#
# Poissons Ratio (x) = 0.21536 0.35309
# Poissons Ratio (y) = 0.35361 0.18421
# Poissons Ratio (z) = 0.66086 0.20998
#
# Static dielectric constant tensor:
#      x y z
#    x 3.728190 0.000000 0.000000 
#    y 0.000000 3.459670 0.000000 
#    z 0.000000 0.000000 3.497820 
# 
# 
# High freq. dielectric constant tensor:
#      x y z
#    x 1.783390 0.000000 0.000000 
#    y 0.000000 1.765920 0.000000 
#    z 0.000000 0.000000 1.760320 
# 
# From -- ./inp_files/65905.got.cif
#   From: 2010.03.12/outbox.cif.g09.slc.cpg/sg65_33_cif.got.tgz:65905.got - 2010.04.10 20:52:16.
