data_PCOD8268375
_publ_section_title
;
Structure prediction by ZEFSAII (Michael W. Deem and Ramdas Pophale) SiO2 
 PCOD8268375
Probable space group: C M M M
;
_chemical_formula_sum "Si O2"
_cell_formula_units_Z 88
_cell_length_a 8.722671
_cell_length_b 27.465365
_cell_length_c 21.440636
_cell_angle_alpha 90.000000
_cell_angle_beta 90.000000
_cell_angle_gamma 90.000000
_cell_volume 5136.561957
_symmetry_space_group_name_H-M "C M M M"
_symmetry_group_IT_number 65
_symmetry_cell_setting 'orthorhombic'
loop_
_space_group_symop_operation_xyz
x,y,z
-x,-y,z
x,-y,-z
-x,y,-z
-x,-y,-z
x,y,-z
-x,y,z
x,-y,z
1/2+x,1/2+y,z
1/2-x,1/2-y,z
1/2+x,1/2-y,-z
1/2-x,1/2+y,-z
1/2-x,1/2-y,-z
1/2+x,1/2+y,-z
1/2-x,1/2+y,z
1/2+x,1/2-y,z
loop_
_atom_site_type_symbol
_atom_site_label
_atom_site_fract_x
_atom_site_fract_y
_atom_site_fract_z
Si Si1 0.680270 0.646270 0.189462
Si Si2 0.181765 0.802330 0.068922
Si Si3 0.181609 0.802137 0.313512
Si Si4 0.317937 0.945028 0.500000
Si Si5 0.678508 0.554828 0.738404
Si Si6 0.680588 0.893165 0.374884
O O1 0.500000 0.652515 0.186266
O O2 0.748660 0.661393 0.122065
O O3 0.741841 0.681021 0.245105
O O4 0.725160 0.590374 0.204414
O O5 0.250000 0.750000 0.083483
O O6 0.000000 0.798317 0.072207
O O7 0.233217 0.820729 0.000000
O O8 0.250000 0.750000 0.330739
O O9 0.237108 0.841465 0.364255
O O10 0.000000 0.799243 0.315728
O O11 0.500000 0.948216 0.500000
O O12 0.259615 0.915684 0.560344
O O13 0.249947 0.000000 0.500000
O O14 0.500000 0.562369 0.721290
O O15 0.714272 0.500000 0.759799
O O16 0.777500 0.567806 0.678147
O O17 0.500000 0.884373 0.375330
#
# Coordination Sequence:
#
# PCOD8268375 Si02
#       6
#    16  16  16   8  16  16
#     4   8  15  27  43  64  89 117 148 183 222 264
#     4   9  16  26  41  61  86 115 146 180 219 264
#     4  10  19  32  49  69  94 122 153 187 225 267
#     4   9  18  32  50  71  94 119 146 181 226 271
#     4   9  17  30  47  66  90 119 150 186 228 269
#     4  10  19  32  50  71  94 119 149 184 224 270
#
# _framework density 17.132083000000002
#
# number of rings (size 3 to 8) (size 9 to 14) (size 15 to 20)
#    0.000    2.818    0.000    3.273    0.000    1.091 
#    0.000    5.909    0.000    3.818    0.000    3.818 
#    0.000    0.000    0.000   11.091    0.000   12.000 
#
# Total GULP energy -545400.968384 kJ/mol
# GULP energy per Si atom -12395.476554 kJ/mol
# Density = 1.709309 g / cm^3
# Si number density = 17.132083 Si / 1000 Ang^3
#
#
#
# Elastic Constant Matrix: (Units=GPa)
#
#
# Indices 1 2 3 4 5 6 
#
# 1 35.9967 27.6709 20.4862 0.0000 0.0000 0.0000
# 2 27.6709 155.7786 86.1983 0.0000 0.0000 0.0000
# 3 20.4862 86.1983 147.3381 0.0000 0.0000 0.0000
# 4 0.0000 0.0000 0.0000 24.7145 0.0000 0.0000
# 5 0.0000 0.0000 0.0000 0.0000 16.5660 0.0000
# 6 0.0000 0.0000 0.0000 0.0000 0.0000 23.9693
#
#
#
# Elastic Compliance Matrix: (Units=1/GPa)
#
#
# Indices 1 2 3 4 5 6 
#
# 1 0.032454 -0.004832 -0.001685 0.000000 0.000000 0.000000
# 2 -0.004832 0.010212 -0.005302 0.000000 0.000000 0.000000
# 3 -0.001685 -0.005302 0.010124 0.000000 0.000000 0.000000
# 4 0.000000 0.000000 0.000000 0.040462 0.000000 0.000000
# 5 0.000000 0.000000 0.000000 0.000000 0.060365 0.000000
# 6 0.000000 0.000000 0.000000 0.000000 0.000000 0.041720
#
#
# Mechanical properties :
#
#
# Convention : Reuss Voigt Hill
#
# Bulk Modulus (GPa) = 34.30612 67.53601 50.92107
# Shear Modulus (GPa) = 21.86343 26.70050 24.28196
#
# Velocity S-wave (km/s) = 3.57623 3.95208 3.76884
# Velocity P-wave (km/s) = 6.09266 7.76734 6.98040
#
# Compressibility (1/GPa) = 0.02914932
#
# Stress axis : x y z
#
# Youngs Moduli (GPa) = 30.81279 97.92686 98.77967
#
# Poissons Ratio (x) = 0.47320 0.16649
# Poissons Ratio (y) = 0.14889 0.52377
# Poissons Ratio (z) = 0.05193 0.51924
#
# Static dielectric constant tensor:
#      x y z
#    x 2.984970 0.000000 0.000000 
#    y 0.000000 3.281440 0.000000 
#    z 0.000000 0.000000 3.508030 
# 
# 
# High freq. dielectric constant tensor:
#      x y z
#    x 1.642060 0.000000 0.000000 
#    y 0.000000 1.660490 0.000000 
#    z 0.000000 0.000000 1.653230 
# 
# From -- ./inp_files/60713.got.cif
#   From: 2010.03.12/outbox.cif.g09.slc.cpg/sg65_31_cif.got.tgz:60713.got - 2010.04.10 20:52:16.
