data_PCOD8268895
_publ_section_title
;
Structure prediction by ZEFSAII (Michael W. Deem and Ramdas Pophale) SiO2 
 PCOD8268895
Probable space group: C M M M
;
_chemical_formula_sum "Si O2"
_cell_formula_units_Z 104
_cell_length_a 23.798803
_cell_length_b 27.858812
_cell_length_c 9.144313
_cell_angle_alpha 90.000000
_cell_angle_beta 90.000000
_cell_angle_gamma 90.000000
_cell_volume 6062.737847
_symmetry_space_group_name_H-M "C M M M"
_symmetry_group_IT_number 65
_symmetry_cell_setting 'orthorhombic'
loop_
_space_group_symop_operation_xyz
x,y,z
-x,-y,z
x,-y,-z
-x,y,-z
-x,-y,-z
x,y,-z
-x,y,z
x,-y,z
1/2+x,1/2+y,z
1/2-x,1/2-y,z
1/2+x,1/2-y,-z
1/2-x,1/2+y,-z
1/2-x,1/2-y,-z
1/2+x,1/2+y,-z
1/2-x,1/2+y,z
1/2+x,1/2-y,z
loop_
_atom_site_type_symbol
_atom_site_label
_atom_site_fract_x
_atom_site_fract_y
_atom_site_fract_z
Si Si1 0.143887 0.556311 0.330757
Si Si2 0.433182 0.221769 0.334931
Si Si3 0.064977 0.000000 0.671858
Si Si4 0.123954 0.913227 0.169980
Si Si5 0.066199 0.372253 0.830730
Si Si6 0.935185 0.184471 0.830156
Si Si7 0.745638 0.555378 0.833156
O O1 0.139861 0.570136 0.500000
O O2 0.136051 0.500000 0.303717
O O3 0.094392 0.581926 0.243448
O O4 0.204421 0.573284 0.271107
O O5 0.410112 0.219075 0.500000
O O6 0.500000 0.221696 0.331242
O O7 0.410596 0.175997 0.245611
O O8 0.411181 0.270453 0.260077
O O9 0.092639 0.047413 0.735676
O O10 0.074632 0.000000 0.500000
O O11 0.000000 0.000000 0.715106
O O12 0.101101 0.861371 0.216291
O O13 0.190417 0.913677 0.202707
O O14 0.111922 0.924255 0.000000
O O15 0.000000 0.377912 0.808264
O O16 0.082713 0.369895 0.000000
O O17 0.000000 0.173729 0.791672
O O18 0.928215 0.196924 0.000000
O O19 0.730313 0.500000 0.803275
O O20 0.765206 0.562836 0.000000
#
# Coordination Sequence:
#
# PCOD8268895 Si02
#       7
#    16  16   8  16  16  16  16
#     4  10  21  35  52  76 105 136 167 200 243 296
#     4   9  17  30  49  72 100 133 166 201 244 298
#     4  11  23  33  43  67 103 137 168 211 266 315
#     4  10  19  33  52  72  95 131 175 216 257 303
#     4  10  20  34  54  79 105 133 165 201 243 291
#     4   9  17  29  47  72 100 130 167 210 253 300
#     4   9  17  32  52  72  95 127 172 216 251 293
#
# _framework density 17.153967000000002
#
# number of rings (size 3 to 8) (size 9 to 14) (size 15 to 20)
#    0.000    2.385    0.769    2.077    0.000    6.462 
#    0.000    3.077    0.000    0.923    0.000    6.462 
#    0.000    0.000    0.000    0.000    0.000    0.000 
#
# Total GULP energy -644933.312677 kJ/mol
# GULP energy per Si atom -12402.563705 kJ/mol
# Density = 1.711492 g / cm^3
# Si number density = 17.153967 Si / 1000 Ang^3
#
#
#
# Elastic Constant Matrix: (Units=GPa)
#
#
# Indices 1 2 3 4 5 6 
#
# 1 65.9657 52.9095 52.7548 0.0000 0.0000 0.0000
# 2 52.9095 102.7734 65.5920 0.0000 0.0000 0.0000
# 3 52.7548 65.5920 112.9244 0.0000 0.0000 0.0000
# 4 0.0000 0.0000 0.0000 27.6883 0.0000 0.0000
# 5 0.0000 0.0000 0.0000 0.0000 24.3228 0.0000
# 6 0.0000 0.0000 0.0000 0.0000 0.0000 -6.6745
#
#
#
# Elastic Compliance Matrix: (Units=1/GPa)
#
#
# Indices 1 2 3 4 5 6 
#
# 1 0.029714 -0.010230 -0.007939 0.000000 0.000000 0.000000
# 2 -0.010230 0.018984 -0.006248 0.000000 0.000000 0.000000
# 3 -0.007939 -0.006248 0.016193 0.000000 0.000000 0.000000
# 4 0.000000 0.000000 0.000000 0.036116 0.000000 0.000000
# 5 0.000000 0.000000 0.000000 0.000000 0.041114 0.000000
# 6 0.000000 0.000000 0.000000 0.000000 0.000000 -0.149823
#
#
# Mechanical properties :
#
#
# Convention : Reuss Voigt Hill
#
# Bulk Modulus (GPa) = 62.27709 69.35291 65.81500
# Shear Modulus (GPa) = 107.55987 16.42779 61.99383
#
# Velocity S-wave (km/s) = 7.92709 3.09798 6.01815
# Velocity P-wave (km/s) = 10.96214 7.30165 9.31350
#
# Compressibility (1/GPa) = 0.01605727
#
# Stress axis : x y z
#
# Youngs Moduli (GPa) = 33.65394 52.67509 61.75341
#
# Poissons Ratio (x) = 0.53889 0.49028
# Poissons Ratio (y) = 0.34429 0.38582
# Poissons Ratio (z) = 0.26719 0.32910
#
# Static dielectric constant tensor:
#      x y z
#    x 3.037510 0.000000 0.000000 
#    y 0.000000 3.143280 0.000000 
#    z 0.000000 0.000000 3.314570 
# 
# 
# High freq. dielectric constant tensor:
#      x y z
#    x 1.639390 0.000000 0.000000 
#    y 0.000000 1.658850 0.000000 
#    z 0.000000 0.000000 1.670640 
# 
# From -- ./inp_files/14768.got.cif
#   From: 2010.03.12/outbox.cif.g09.slc.cpg/sg65_8_cif.got.tgz:14768.got - 2010.04.10 20:52:16.
