data_PCOD8268435
_publ_section_title
;
Structure prediction by ZEFSAII (Michael W. Deem and Ramdas Pophale) SiO2 
 PCOD8268435
Probable space group: C M M M
;
_chemical_formula_sum "Si O2"
_cell_formula_units_Z 100
_cell_length_a 9.339232
_cell_length_b 30.840625
_cell_length_c 19.723881
_cell_angle_alpha 90.000000
_cell_angle_beta 90.000000
_cell_angle_gamma 90.000000
_cell_volume 5681.025103
_symmetry_space_group_name_H-M "C M M M"
_symmetry_group_IT_number 65
_symmetry_cell_setting 'orthorhombic'
loop_
_space_group_symop_operation_xyz
x,y,z
-x,-y,z
x,-y,-z
-x,y,-z
-x,-y,-z
x,y,-z
-x,y,z
x,-y,z
1/2+x,1/2+y,z
1/2-x,1/2-y,z
1/2+x,1/2-y,-z
1/2-x,1/2+y,-z
1/2-x,1/2-y,-z
1/2+x,1/2+y,-z
1/2-x,1/2+y,z
1/2+x,1/2-y,z
loop_
_atom_site_type_symbol
_atom_site_label
_atom_site_fract_x
_atom_site_fract_y
_atom_site_fract_z
Si Si1 0.842846 0.081511 0.768528
Si Si2 0.728131 0.000000 0.000000
Si Si3 0.163160 0.707919 0.814486
Si Si4 0.839972 0.403897 0.000000
Si Si5 0.167402 0.706629 0.577623
Si Si6 0.340231 0.356081 0.889822
Si Si7 0.160155 0.357795 0.309913
Si Si8 0.166813 0.000000 0.848703
O O1 0.861214 0.122020 0.817767
O O2 0.748397 0.098148 0.705278
O O3 0.767775 0.042154 0.810458
O O4 0.000000 0.067879 0.741130
O O5 0.637148 0.955892 0.000000
O O6 0.817016 0.000000 0.929942
O O7 0.250000 0.750000 0.790715
O O8 0.247306 0.687630 0.879356
O O9 0.161323 0.674775 0.752852
O O10 0.000000 0.719610 0.835714
O O11 0.749392 0.388988 0.064313
O O12 0.000000 0.383618 0.000000
O O13 0.199111 0.694019 0.500000
O O14 0.250000 0.750000 0.598656
O O15 0.223130 0.667072 0.624321
O O16 0.000000 0.715247 0.590887
O O17 0.500000 0.346139 0.920069
O O18 0.000000 0.373536 0.325379
O O19 0.000000 0.000000 0.835550
#
# Coordination Sequence:
#
# PCOD8268435 Si02
#       8
#    16   4  16   8  16  16  16   8
#     4   9  18  32  50  72  96 125 162 203 245 292
#     4  12  22  36  54  78 105 134 161 194 249 316
#     4  10  19  32  50  72  97 126 162 204 244 289
#     4  12  24  37  51  74 102 128 157 193 241 297
#     4   9  17  29  46  71 104 138 171 206 244 288
#     4  10  20  35  53  71  93 125 162 200 244 294
#     4   9  18  31  47  70 100 134 166 201 246 291
#     4  10  19  33  53  78 102 127 163 206 249 300
#
# _framework density 17.602457000000001
#
# number of rings (size 3 to 8) (size 9 to 14) (size 15 to 20)
#    0.000    2.240    1.600    1.920    0.000    2.560 
#    0.000    0.800    0.000    0.000    0.000    0.560 
#    0.000    4.480    0.000    0.000    0.000    0.000 
#
# Total GULP energy -619604.900449 kJ/mol
# GULP energy per Si atom -12392.098009 kJ/mol
# Density = 1.756239 g / cm^3
# Si number density = 17.602457 Si / 1000 Ang^3
#
#
#
# Elastic Constant Matrix: (Units=GPa)
#
#
# Indices 1 2 3 4 5 6 
#
# 1 104.7964 35.6023 35.0108 0.0000 0.0000 0.0000
# 2 35.6023 72.8589 40.0657 0.0000 0.0000 0.0000
# 3 35.0108 40.0657 80.5322 0.0000 0.0000 0.0000
# 4 0.0000 0.0000 0.0000 33.6606 0.0000 0.0000
# 5 0.0000 0.0000 0.0000 0.0000 17.7372 0.0000
# 6 0.0000 0.0000 0.0000 0.0000 0.0000 24.8622
#
#
#
# Elastic Compliance Matrix: (Units=1/GPa)
#
#
# Indices 1 2 3 4 5 6 
#
# 1 0.012001 -0.004123 -0.003166 0.000000 0.000000 0.000000
# 2 -0.004123 0.020311 -0.008312 0.000000 0.000000 0.000000
# 3 -0.003166 -0.008312 0.017929 0.000000 0.000000 0.000000
# 4 0.000000 0.000000 0.000000 0.029708 0.000000 0.000000
# 5 0.000000 0.000000 0.000000 0.000000 0.056379 0.000000
# 6 0.000000 0.000000 0.000000 0.000000 0.000000 0.040222
#
#
# Mechanical properties :
#
#
# Convention : Reuss Voigt Hill
#
# Bulk Modulus (GPa) = 52.52655 53.28279 52.90467
# Shear Modulus (GPa) = 23.35368 25.08590 24.21979
#
# Velocity S-wave (km/s) = 3.64638 3.77919 3.71338
# Velocity P-wave (km/s) = 6.90169 7.02701 6.96463
#
# Compressibility (1/GPa) = 0.01903799
#
# Stress axis : x y z
#
# Youngs Moduli (GPa) = 83.32808 49.23429 55.77461
#
# Poissons Ratio (x) = 0.20300 0.17658
# Poissons Ratio (y) = 0.34358 0.46362
# Poissons Ratio (z) = 0.26381 0.40926
#
# Static dielectric constant tensor:
#      x y z
#    x 3.529450 0.000000 0.000000 
#    y 0.000000 3.303190 0.000000 
#    z 0.000000 0.000000 3.118990 
# 
# 
# High freq. dielectric constant tensor:
#      x y z
#    x 1.683530 0.000000 0.000000 
#    y 0.000000 1.665960 0.000000 
#    z 0.000000 0.000000 1.652220 
# 
# From -- ./inp_files/60949.got.cif
#   From: 2010.03.12/outbox.cif.g09.slc.cpg/sg65_31_cif.got.tgz:60949.got - 2010.04.10 20:52:16.
