data_PCOD8268985
_publ_section_title
;
Structure prediction by ZEFSAII (Michael W. Deem and Ramdas Pophale) SiO2 
 PCOD8268985
Probable space group: C M M M
;
_chemical_formula_sum "Si O2"
_cell_formula_units_Z 128
_cell_length_a 19.036160
_cell_length_b 16.824098
_cell_length_c 22.048162
_cell_angle_alpha 90.000000
_cell_angle_beta 90.000000
_cell_angle_gamma 90.000000
_cell_volume 7061.281532
_symmetry_space_group_name_H-M "C M M M"
_symmetry_group_IT_number 65
_symmetry_cell_setting 'orthorhombic'
loop_
_space_group_symop_operation_xyz
x,y,z
-x,-y,z
x,-y,-z
-x,y,-z
-x,-y,-z
x,y,-z
-x,y,z
x,-y,z
1/2+x,1/2+y,z
1/2-x,1/2-y,z
1/2+x,1/2-y,-z
1/2-x,1/2+y,-z
1/2-x,1/2-y,-z
1/2+x,1/2+y,-z
1/2-x,1/2+y,z
1/2+x,1/2-y,z
loop_
_atom_site_type_symbol
_atom_site_label
_atom_site_fract_x
_atom_site_fract_y
_atom_site_fract_z
Si Si1 0.668107 0.239527 0.570964
Si Si2 0.418403 0.306194 0.671651
Si Si3 0.179636 0.701671 0.067281
Si Si4 0.922278 0.197351 0.864673
Si Si5 0.423616 0.171758 0.239322
Si Si6 0.348320 0.406604 0.223829
Si Si7 0.421360 0.088465 0.428453
Si Si8 0.198310 0.408305 0.180331
O O1 0.656592 0.256632 0.500000
O O2 0.750000 0.250000 0.588519
O O3 0.622493 0.305334 0.607459
O O4 0.638830 0.152004 0.589651
O O5 0.500000 0.331210 0.663539
O O6 0.412089 0.216253 0.697070
O O7 0.380349 0.368190 0.715911
O O8 0.250000 0.750000 0.072284
O O9 0.118990 0.766597 0.078565
O O10 0.180305 0.631920 0.116305
O O11 0.169074 0.665011 0.000000
O O12 0.919913 0.260652 0.811046
O O13 0.890275 0.116375 0.837336
O O14 0.000000 0.178508 0.887652
O O15 0.500000 0.129602 0.237869
O O16 0.364479 0.105830 0.228123
O O17 0.351655 0.500000 0.233115
O O18 0.268768 0.375523 0.212345
O O19 0.424832 0.083339 0.500000
O O20 0.500000 0.113541 0.404781
O O21 0.402049 0.000000 0.402724
O O22 0.206695 0.500000 0.165473
#
# Coordination Sequence:
#
# PCOD8268985 Si02
#       8
#    16  16  16  16  16  16  16  16
#     4  10  21  35  53  81 114 148 181 217 268 329
#     4  10  21  35  56  81 103 138 180 223 270 319
#     4  10  19  33  53  76 105 143 181 218 259 310
#     4   9  17  31  52  76 102 136 177 221 265 311
#     4   8  17  32  51  76 104 136 174 216 265 316
#     4  10  20  34  54  81 106 135 180 231 278 325
#     4   8  14  28  52  77 101 134 176 218 256 301
#     4  10  20  33  53  81 109 142 179 215 268 323
#
# _framework density 18.127022
#
# number of rings (size 3 to 8) (size 9 to 14) (size 15 to 20)
#    0.000    2.625    1.250    1.875    1.750    2.500 
#    0.000    1.250    0.000    2.250    0.000    5.250 
#    0.000    0.000    0.000    0.000    0.000    0.000 
#
# Total GULP energy -793179.461427 kJ/mol
# GULP energy per Si atom -12393.429085 kJ/mol
# Density = 1.808576 g / cm^3
# Si number density = 18.127022 Si / 1000 Ang^3
#
#
#
# Elastic Constant Matrix: (Units=GPa)
#
#
# Indices 1 2 3 4 5 6 
#
# 1 164.1288 51.5062 51.6446 0.0000 0.0000 0.0000
# 2 51.5062 66.0243 30.3416 0.0000 0.0000 0.0000
# 3 51.6446 30.3416 70.0436 0.0000 0.0000 0.0000
# 4 0.0000 0.0000 0.0000 18.2826 0.0000 0.0000
# 5 0.0000 0.0000 0.0000 0.0000 26.2077 0.0000
# 6 0.0000 0.0000 0.0000 0.0000 0.0000 27.1601
#
#
#
# Elastic Compliance Matrix: (Units=1/GPa)
#
#
# Indices 1 2 3 4 5 6 
#
# 1 0.009091 -0.005009 -0.004533 0.000000 0.000000 0.000000
# 2 -0.005009 0.021670 -0.005694 0.000000 0.000000 0.000000
# 3 -0.004533 -0.005694 0.020086 0.000000 0.000000 0.000000
# 4 0.000000 0.000000 0.000000 0.054697 0.000000 0.000000
# 5 0.000000 0.000000 0.000000 0.000000 0.038157 0.000000
# 6 0.000000 0.000000 0.000000 0.000000 0.000000 0.036819
#
#
# Mechanical properties :
#
#
# Convention : Reuss Voigt Hill
#
# Bulk Modulus (GPa) = 49.08021 63.02013 56.05017
# Shear Modulus (GPa) = 22.95865 25.44370 24.20118
#
# Velocity S-wave (km/s) = 3.56271 3.75057 3.65785
# Velocity P-wave (km/s) = 6.63765 7.32100 6.98768
#
# Compressibility (1/GPa) = 0.02037481
#
# Stress axis : x y z
#
# Youngs Moduli (GPa) = 109.99841 46.14681 49.78622
#
# Poissons Ratio (x) = 0.23114 0.22570
# Poissons Ratio (y) = 0.55095 0.28348
# Poissons Ratio (z) = 0.49866 0.26276
#
# Static dielectric constant tensor:
#      x y z
#    x 3.617530 0.000000 0.000000 
#    y 0.000000 3.134290 0.000000 
#    z 0.000000 0.000000 3.323410 
# 
# 
# High freq. dielectric constant tensor:
#      x y z
#    x 1.716460 0.000000 0.000000 
#    y 0.000000 1.677100 0.000000 
#    z 0.000000 0.000000 1.690230 
# 
# From -- ./inp_files/70681.got.cif
#   From: 2010.03.12/outbox.cif.g09.slc.cpg/sg65_36_cif.got.tgz:70681.got - 2010.04.10 20:52:16.
