data_PCOD8268148
_publ_section_title
;
Structure prediction by ZEFSAII (Michael W. Deem and Ramdas Pophale) SiO2 
 PCOD8268148
Probable space group: C M M M
;
_chemical_formula_sum "Si O2"
_cell_formula_units_Z 104
_cell_length_a 29.353113
_cell_length_b 19.568352
_cell_length_c 9.663534
_cell_angle_alpha 90.000000
_cell_angle_beta 90.000000
_cell_angle_gamma 90.000000
_cell_volume 5550.657080
_symmetry_space_group_name_H-M "C M M M"
_symmetry_group_IT_number 65
_symmetry_cell_setting 'orthorhombic'
loop_
_space_group_symop_operation_xyz
x,y,z
-x,-y,z
x,-y,-z
-x,y,-z
-x,-y,-z
x,y,-z
-x,y,z
x,-y,z
1/2+x,1/2+y,z
1/2-x,1/2-y,z
1/2+x,1/2-y,-z
1/2-x,1/2+y,-z
1/2-x,1/2-y,-z
1/2+x,1/2+y,-z
1/2-x,1/2+y,z
1/2+x,1/2-y,z
loop_
_atom_site_type_symbol
_atom_site_label
_atom_site_fract_x
_atom_site_fract_y
_atom_site_fract_z
Si Si1 0.789826 0.802250 0.340724
Si Si2 0.448710 0.424183 0.336290
Si Si3 0.105187 0.792603 0.340143
Si Si4 0.417788 0.829820 0.163989
Si Si5 0.839935 0.573901 0.163971
Si Si6 0.737334 0.577733 0.839817
Si Si7 0.000000 0.575993 0.836534
O O1 0.780038 0.820305 0.500000
O O2 0.750000 0.750000 0.287852
O O3 0.841232 0.775421 0.320250
O O4 0.791660 0.871536 0.253005
O O5 0.448991 0.427710 0.500000
O O6 0.500000 0.404687 0.284643
O O7 0.435349 0.500000 0.278410
O O8 0.411045 0.368051 0.288901
O O9 0.091451 0.782382 0.500000
O O10 0.076568 0.740546 0.245817
O O11 0.371046 0.864562 0.215920
O O12 0.456311 0.882165 0.212514
O O13 0.419241 0.815207 0.000000
O O14 0.856740 0.500000 0.221589
O O15 0.788821 0.587297 0.213141
O O16 0.841684 0.570192 0.000000
O O17 0.720846 0.500000 0.816339
O O18 0.732228 0.598246 0.000000
O O19 0.000000 0.500000 0.769912
O O20 0.000000 0.568459 0.000000
#
# Coordination Sequence:
#
# PCOD8268148 Si02
#       7
#    16  16  16  16  16  16   8
#     4  10  21  35  49  70 104 140 172 208 253 307
#     4   8  15  30  52  74  93 117 157 206 249 294
#     4  10  21  34  51  75 100 130 166 205 251 301
#     4  10  19  31  50  75 101 132 168 206 246 293
#     4   8  14  27  48  71  95 128 172 213 244 283
#     4   9  18  32  51  75  99 127 169 217 259 301
#     4   9  18  32  51  77 106 135 168 206 247 291
#
# _framework density 18.736519999999999
#
# number of rings (size 3 to 8) (size 9 to 14) (size 15 to 20)
#    0.000    2.846    0.000    2.769    1.077    3.692 
#    0.000    1.538    0.000    3.692    0.000    1.077 
#    0.000    0.000    0.000    0.000    0.000    0.000 
#
# Total GULP energy -644375.449265 kJ/mol
# GULP energy per Si atom -12391.835563 kJ/mol
# Density = 1.869387 g / cm^3
# Si number density = 18.736520 Si / 1000 Ang^3
#
#
#
# Elastic Constant Matrix: (Units=GPa)
#
#
# Indices 1 2 3 4 5 6 
#
# 1 69.9720 48.2425 21.3623 0.0000 0.0000 0.0000
# 2 48.2425 137.9211 46.0062 0.0000 0.0000 0.0000
# 3 21.3623 46.0062 40.9506 0.0000 0.0000 0.0000
# 4 0.0000 0.0000 0.0000 26.0697 0.0000 0.0000
# 5 0.0000 0.0000 0.0000 0.0000 10.3552 0.0000
# 6 0.0000 0.0000 0.0000 0.0000 0.0000 75.3094
#
#
#
# Elastic Compliance Matrix: (Units=1/GPa)
#
#
# Indices 1 2 3 4 5 6 
#
# 1 0.019226 -0.005405 -0.003957 0.000000 0.000000 0.000000
# 2 -0.005405 0.013116 -0.011915 0.000000 0.000000 0.000000
# 3 -0.003957 -0.011915 0.039870 0.000000 0.000000 0.000000
# 4 0.000000 0.000000 0.000000 0.038359 0.000000 0.000000
# 5 0.000000 0.000000 0.000000 0.000000 0.096570 0.000000
# 6 0.000000 0.000000 0.000000 0.000000 0.000000 0.013279
#
#
# Mechanical properties :
#
#
# Convention : Reuss Voigt Hill
#
# Bulk Modulus (GPa) = 33.71884 53.34062 43.52973
# Shear Modulus (GPa) = 18.32442 31.22905 24.77674
#
# Velocity S-wave (km/s) = 3.13070 4.08701 3.64039
# Velocity P-wave (km/s) = 5.57708 7.12756 6.39945
#
# Compressibility (1/GPa) = 0.02965701
#
# Stress axis : x y z
#
# Youngs Moduli (GPa) = 52.01287 76.24475 25.08132
#
# Poissons Ratio (x) = 0.41210 0.09925
# Poissons Ratio (y) = 0.28113 0.29885
# Poissons Ratio (z) = 0.20583 0.90848
#
# Static dielectric constant tensor:
#      x y z
#    x 3.576170 0.000000 0.000000 
#    y 0.000000 3.767300 0.000000 
#    z 0.000000 0.000000 2.955740 
# 
# 
# High freq. dielectric constant tensor:
#      x y z
#    x 1.726470 0.000000 0.000000 
#    y 0.000000 1.737690 0.000000 
#    z 0.000000 0.000000 1.677030 
# 
# From -- ./inp_files/34131.got.cif
#   From: 2010.03.12/outbox.cif.g09.slc.cpg/sg65_18_cif.got.tgz:34131.got - 2010.04.10 20:52:16.
