data_PCOD8268243
_publ_section_title
;
Structure prediction by ZEFSAII (Michael W. Deem and Ramdas Pophale) SiO2 
 PCOD8268243
Probable space group: C M M M
;
_chemical_formula_sum "Si O2"
_cell_formula_units_Z 72
_cell_length_a 18.162261
_cell_length_b 9.113947
_cell_length_c 22.892081
_cell_angle_alpha 90.000000
_cell_angle_beta 90.000000
_cell_angle_gamma 90.000000
_cell_volume 3789.323516
_symmetry_space_group_name_H-M "C M M M"
_symmetry_group_IT_number 65
_symmetry_cell_setting 'orthorhombic'
loop_
_space_group_symop_operation_xyz
x,y,z
-x,-y,z
x,-y,-z
-x,y,-z
-x,-y,-z
x,y,-z
-x,y,z
x,-y,z
1/2+x,1/2+y,z
1/2-x,1/2-y,z
1/2+x,1/2-y,-z
1/2-x,1/2+y,-z
1/2-x,1/2-y,-z
1/2+x,1/2+y,-z
1/2-x,1/2+y,z
1/2+x,1/2-y,z
loop_
_atom_site_type_symbol
_atom_site_label
_atom_site_fract_x
_atom_site_fract_y
_atom_site_fract_z
Si Si1 0.582599 0.325761 0.386971
Si Si2 0.824611 0.329010 0.932536
Si Si3 0.415063 0.669361 0.840168
Si Si4 0.328412 0.674228 0.500000
Si Si5 0.672037 0.326713 0.275047
O O1 0.500000 0.260146 0.388349
O O2 0.578232 0.500000 0.386458
O O3 0.626765 0.271037 0.443562
O O4 0.623854 0.268489 0.329254
O O5 0.814904 0.500000 0.920178
O O6 0.750000 0.250000 0.912202
O O7 0.892217 0.266421 0.895555
O O8 0.841958 0.296098 0.000000
O O9 0.500000 0.698316 0.826185
O O10 0.400351 0.500000 0.855396
O O11 0.369251 0.719578 0.783927
O O12 0.317543 0.500000 0.500000
O O13 0.250000 0.750000 0.500000
O O14 0.683586 0.500000 0.278807
O O15 0.750000 0.250000 0.276822
#
# Coordination Sequence:
#
# PCOD8268243 Si02
#       5
#    16  16  16   8  16
#     4   9  17  31  52  76 101 132 173 216 254 298
#     4  10  21  37  57  80 106 137 173 213 258 308
#     4  10  21  36  54  77 105 138 175 214 259 310
#     4  10  19  31  51  77 103 134 172 212 254 302
#     4  10  20  34  53  76 103 135 171 213 259 307
#
# _framework density 19.000751999999999
#
# number of rings (size 3 to 8) (size 9 to 14) (size 15 to 20)
#    0.000    2.222    0.000    3.000    0.000    8.889 
#    0.000    2.222    0.000    4.667    0.000    0.000 
#    0.000    0.000    0.000    0.000    0.000    0.000 
#
# Total GULP energy -446539.156227 kJ/mol
# GULP energy per Si atom -12403.865451 kJ/mol
# Density = 1.895751 g / cm^3
# Si number density = 19.000752 Si / 1000 Ang^3
#
#
#
# Elastic Constant Matrix: (Units=GPa)
#
#
# Indices 1 2 3 4 5 6 
#
# 1 171.0665 44.6951 83.9697 0.0000 0.0000 0.0000
# 2 44.6951 45.4232 44.6764 0.0000 0.0000 0.0000
# 3 83.9697 44.6764 137.7874 0.0000 0.0000 0.0000
# 4 0.0000 0.0000 0.0000 14.4396 0.0000 0.0000
# 5 0.0000 0.0000 0.0000 0.0000 40.1160 0.0000
# 6 0.0000 0.0000 0.0000 0.0000 0.0000 34.3631
#
#
#
# Elastic Compliance Matrix: (Units=1/GPa)
#
#
# Indices 1 2 3 4 5 6 
#
# 1 0.009088 -0.005132 -0.003875 0.000000 0.000000 0.000000
# 2 -0.005132 0.035221 -0.008293 0.000000 0.000000 0.000000
# 3 -0.003875 -0.008293 0.012308 0.000000 0.000000 0.000000
# 4 0.000000 0.000000 0.000000 0.069254 0.000000 0.000000
# 5 0.000000 0.000000 0.000000 0.000000 0.024928 0.000000
# 6 0.000000 0.000000 0.000000 0.000000 0.000000 0.029101
#
#
# Mechanical properties :
#
#
# Convention : Reuss Voigt Hill
#
# Bulk Modulus (GPa) = 45.41569 77.88439 61.65004
# Shear Modulus (GPa) = 22.53895 29.84611 26.19253
#
# Velocity S-wave (km/s) = 3.44788 3.96761 3.71684
# Velocity P-wave (km/s) = 6.30908 7.87835 7.13698
#
# Compressibility (1/GPa) = 0.02201882
#
# Stress axis : x y z
#
# Youngs Moduli (GPa) = 110.03049 28.39204 81.24983
#
# Poissons Ratio (x) = 0.14570 0.31482
# Poissons Ratio (y) = 0.56465 0.67379
# Poissons Ratio (z) = 0.42633 0.23545
#
# Static dielectric constant tensor:
#      x y z
#    x 3.536460 0.000000 0.000000 
#    y 0.000000 3.200750 0.000000 
#    z 0.000000 0.000000 3.675440 
# 
# 
# High freq. dielectric constant tensor:
#      x y z
#    x 1.749870 0.000000 0.000000 
#    y 0.000000 1.707760 0.000000 
#    z 0.000000 0.000000 1.754650 
# 
# From -- ./inp_files/70323.got.cif
#   From: 2010.03.12/outbox.cif.g09.slc.cpg/sg65_36_cif.got.tgz:70323.got - 2010.04.10 20:52:16.
