data_PCOD8268149
_publ_section_title
;
Structure prediction by ZEFSAII (Michael W. Deem and Ramdas Pophale) SiO2 
 PCOD8268149
Probable space group: C M M M
;
_chemical_formula_sum "Si O2"
_cell_formula_units_Z 96
_cell_length_a 18.829195
_cell_length_b 9.046934
_cell_length_c 31.292455
_cell_angle_alpha 90.000000
_cell_angle_beta 90.000000
_cell_angle_gamma 90.000000
_cell_volume 5330.559699
_symmetry_space_group_name_H-M "C M M M"
_symmetry_group_IT_number 65
_symmetry_cell_setting 'orthorhombic'
loop_
_space_group_symop_operation_xyz
x,y,z
-x,-y,z
x,-y,-z
-x,y,-z
-x,-y,-z
x,y,-z
-x,y,z
x,-y,z
1/2+x,1/2+y,z
1/2-x,1/2-y,z
1/2+x,1/2-y,-z
1/2-x,1/2+y,-z
1/2-x,1/2-y,-z
1/2+x,1/2+y,-z
1/2-x,1/2+y,z
1/2+x,1/2-y,z
loop_
_atom_site_type_symbol
_atom_site_label
_atom_site_fract_x
_atom_site_fract_y
_atom_site_fract_z
Si Si1 0.416401 0.830507 0.208921
Si Si2 0.674566 0.325291 0.375755
Si Si3 0.173650 0.825458 0.137840
Si Si4 0.324309 0.671450 0.954913
Si Si5 0.918141 0.171071 0.294607
Si Si6 0.079382 0.175544 0.452459
O O1 0.500000 0.811873 0.203362
O O2 0.380688 0.737554 0.171768
O O3 0.391945 0.767207 0.254554
O O4 0.392167 0.000000 0.206016
O O5 0.684817 0.500000 0.378671
O O6 0.750000 0.250000 0.371856
O O7 0.628184 0.280105 0.334920
O O8 0.634587 0.261844 0.417738
O O9 0.250000 0.750000 0.143530
O O10 0.139388 0.787905 0.090601
O O11 0.182446 0.000000 0.144929
O O12 0.307171 0.500000 0.954067
O O13 0.250000 0.750000 0.956574
O O14 0.366364 0.710403 0.000000
O O15 0.000000 0.203311 0.305933
O O16 0.906719 0.000000 0.283054
O O17 0.103747 0.225312 0.500000
O O18 0.000000 0.236331 0.442981
O O19 0.077284 0.000000 0.449301
#
# Coordination Sequence:
#
# PCOD8268149 Si02
#       6
#    16  16  16  16  16  16
#     4  10  21  36  53  73  98 128 163 204 249 297
#     4  10  20  32  48  73 102 129 157 194 242 290
#     4  10  19  31  50  75 102 131 163 201 245 292
#     4   8  14  25  42  66  95 125 158 196 237 282
#     4   9  18  34  54  71  89 120 164 206 240 282
#     4   8  14  27  49  74  97 125 165 206 236 269
#
# _framework density 18.009366
#
# number of rings (size 3 to 8) (size 9 to 14) (size 15 to 20)
#    0.000    2.833    0.000    2.000    0.000    5.333 
#    0.000    1.667    0.000    2.000    0.000    4.667 
#    0.000    0.000    0.000    0.000    0.000    0.000 
#
# Total GULP energy -594735.689168 kJ/mol
# GULP energy per Si atom -12390.326858 kJ/mol
# Density = 1.796838 g / cm^3
# Si number density = 18.009366 Si / 1000 Ang^3
#
#
#
# Elastic Constant Matrix: (Units=GPa)
#
#
# Indices 1 2 3 4 5 6 
#
# 1 72.0481 32.5015 75.6825 0.0000 0.0000 0.0000
# 2 32.5015 57.5663 58.3909 0.0000 0.0000 0.0000
# 3 75.6825 58.3909 188.8347 0.0000 0.0000 0.0000
# 4 0.0000 0.0000 0.0000 17.6871 0.0000 0.0000
# 5 0.0000 0.0000 0.0000 0.0000 15.1955 0.0000
# 6 0.0000 0.0000 0.0000 0.0000 0.0000 26.5765
#
#
#
# Elastic Compliance Matrix: (Units=1/GPa)
#
#
# Indices 1 2 3 4 5 6 
#
# 1 0.025240 -0.005813 -0.008318 0.000000 0.000000 0.000000
# 2 -0.005813 0.026648 -0.005910 0.000000 0.000000 0.000000
# 3 -0.008318 -0.005910 0.010457 0.000000 0.000000 0.000000
# 4 0.000000 0.000000 0.000000 0.056538 0.000000 0.000000
# 5 0.000000 0.000000 0.000000 0.000000 0.065809 0.000000
# 6 0.000000 0.000000 0.000000 0.000000 0.000000 0.037627
#
#
# Mechanical properties :
#
#
# Convention : Reuss Voigt Hill
#
# Bulk Modulus (GPa) = 44.91936 72.39989 58.65963
# Shear Modulus (GPa) = 18.53065 22.01677 20.27371
#
# Velocity S-wave (km/s) = 3.21120 3.50025 3.35883
# Velocity P-wave (km/s) = 6.22458 7.52490 6.90542
#
# Compressibility (1/GPa) = 0.02226211
#
# Stress axis : x y z
#
# Youngs Moduli (GPa) = 39.61999 37.52609 95.62827
#
# Poissons Ratio (x) = 0.21813 0.79548
# Poissons Ratio (y) = 0.23030 0.56520
# Poissons Ratio (z) = 0.32958 0.22180
#
# Static dielectric constant tensor:
#      x y z
#    x 3.065810 0.000000 0.000000 
#    y 0.000000 3.206120 0.000000 
#    z 0.000000 0.000000 3.954470 
# 
# 
# High freq. dielectric constant tensor:
#      x y z
#    x 1.665810 0.000000 0.000000 
#    y 0.000000 1.681630 0.000000 
#    z 0.000000 0.000000 1.724770 
# 
# From -- ./inp_files/75326.got.cif
#   From: 2010.03.12/outbox.cif.g09.slc.cpg/sg65_38_cif.got.tgz:75326.got - 2010.04.10 20:52:16.
