data_PCOD8268152
_publ_section_title
;
Structure prediction by ZEFSAII (Michael W. Deem and Ramdas Pophale) SiO2 
 PCOD8268152
Probable space group: C M M M
;
_chemical_formula_sum "Si O2"
_cell_formula_units_Z 72
_cell_length_a 18.713601
_cell_length_b 8.695256
_cell_length_c 23.211761
_cell_angle_alpha 90.000000
_cell_angle_beta 90.000000
_cell_angle_gamma 90.000000
_cell_volume 3777.007337
_symmetry_space_group_name_H-M "C M M M"
_symmetry_group_IT_number 65
_symmetry_cell_setting 'orthorhombic'
loop_
_space_group_symop_operation_xyz
x,y,z
-x,-y,z
x,-y,-z
-x,y,-z
-x,-y,-z
x,y,-z
-x,y,z
x,-y,z
1/2+x,1/2+y,z
1/2-x,1/2-y,z
1/2+x,1/2-y,-z
1/2-x,1/2+y,-z
1/2-x,1/2-y,-z
1/2+x,1/2+y,-z
1/2-x,1/2+y,z
1/2+x,1/2-y,z
loop_
_atom_site_type_symbol
_atom_site_label
_atom_site_fract_x
_atom_site_fract_y
_atom_site_fract_z
Si Si1 0.828688 0.820001 0.000000
Si Si2 0.326702 0.180046 0.213245
Si Si3 0.327490 0.682958 0.332039
Si Si4 0.079895 0.182634 0.563074
Si Si5 0.582468 0.179109 0.102140
O O1 0.750000 0.750000 0.000000
O O2 0.872819 0.772849 0.944067
O O3 0.818175 0.000000 0.000000
O O4 0.250000 0.250000 0.195755
O O5 0.358074 0.256256 0.271304
O O6 0.384675 0.215162 0.164407
O O7 0.315575 0.000000 0.223419
O O8 0.326052 0.500000 0.331181
O O9 0.250000 0.750000 0.341653
O O10 0.373566 0.750460 0.384882
O O11 0.110045 0.233372 0.500000
O O12 0.000000 0.247048 0.570389
O O13 0.079228 0.000000 0.566846
O O14 0.500000 0.232606 0.101497
O O15 0.588749 0.000000 0.086782
#
# Coordination Sequence:
#
# PCOD8268152 Si02
#       5
#     8  16  16  16  16
#     4  12  25  40  61  87 113 145 183 222 265 312
#     4  10  20  35  55  77 104 140 178 215 258 310
#     4  10  19  31  50  75 102 133 169 213 262 308
#     4   8  15  29  48  70  97 130 169 211 255 306
#     4  10  22  40  60  83 113 146 178 217 267 318
#
# _framework density 19.062711
#
# number of rings (size 3 to 8) (size 9 to 14) (size 15 to 20)
#    0.000    2.222    0.000    5.333    0.000    6.667 
#    0.000    0.000    0.000    4.000    0.000    6.222 
#    0.000    0.000    0.000    0.000    0.000    0.000 
#
# Total GULP energy -446339.220330 kJ/mol
# GULP energy per Si atom -12398.311676 kJ/mol
# Density = 1.901932 g / cm^3
# Si number density = 19.062711 Si / 1000 Ang^3
#
#
#
# Elastic Constant Matrix: (Units=GPa)
#
#
# Indices 1 2 3 4 5 6 
#
# 1 125.3501 48.9145 96.1240 0.0000 0.0000 0.0000
# 2 48.9145 84.7261 61.1945 0.0000 0.0000 0.0000
# 3 96.1240 61.1945 169.8417 0.0000 0.0000 0.0000
# 4 0.0000 0.0000 0.0000 18.5837 0.0000 0.0000
# 5 0.0000 0.0000 0.0000 0.0000 19.1333 0.0000
# 6 0.0000 0.0000 0.0000 0.0000 0.0000 20.4455
#
#
#
# Elastic Compliance Matrix: (Units=1/GPa)
#
#
# Indices 1 2 3 4 5 6 
#
# 1 0.014772 -0.003366 -0.007148 0.000000 0.000000 0.000000
# 2 -0.003366 0.016722 -0.004120 0.000000 0.000000 0.000000
# 3 -0.007148 -0.004120 0.011418 0.000000 0.000000 0.000000
# 4 0.000000 0.000000 0.000000 0.053811 0.000000 0.000000
# 5 0.000000 0.000000 0.000000 0.000000 0.052265 0.000000
# 6 0.000000 0.000000 0.000000 0.000000 0.000000 0.048911
#
#
# Mechanical properties :
#
#
# Convention : Reuss Voigt Hill
#
# Bulk Modulus (GPa) = 73.29012 88.04265 80.66638
# Shear Modulus (GPa) = 21.57840 23.21149 22.39495
#
# Velocity S-wave (km/s) = 3.36812 3.49325 3.43126
# Velocity P-wave (km/s) = 7.32503 7.90927 7.62275
#
# Compressibility (1/GPa) = 0.01364440
#
# Stress axis : x y z
#
# Youngs Moduli (GPa) = 67.69386 59.80306 87.58334
#
# Poissons Ratio (x) = 0.20128 0.62604
# Poissons Ratio (y) = 0.22784 0.36084
# Poissons Ratio (z) = 0.48387 0.24638
#
# Static dielectric constant tensor:
#      x y z
#    x 3.578910 0.000000 0.000000 
#    y 0.000000 3.347880 0.000000 
#    z 0.000000 0.000000 3.958680 
# 
# 
# High freq. dielectric constant tensor:
#      x y z
#    x 1.738680 0.000000 0.000000 
#    y 0.000000 1.725590 0.000000 
#    z 0.000000 0.000000 1.761060 
# 
# From -- ./inp_files/70314.got.cif
#   From: 2010.03.12/outbox.cif.g09.slc.cpg/sg65_36_cif.got.tgz:70314.got - 2010.04.10 20:52:16.
