data_PCOD8268881
_publ_section_title
;
Structure prediction by ZEFSAII (Michael W. Deem and Ramdas Pophale) SiO2 
 PCOD8268881
Probable space group: C M M M
;
_chemical_formula_sum "Si O2"
_cell_formula_units_Z 104
_cell_length_a 28.706703
_cell_length_b 9.133499
_cell_length_c 23.303526
_cell_angle_alpha 90.000000
_cell_angle_beta 90.000000
_cell_angle_gamma 90.000000
_cell_volume 6110.013077
_symmetry_space_group_name_H-M "C M M M"
_symmetry_group_IT_number 65
_symmetry_cell_setting 'orthorhombic'
loop_
_space_group_symop_operation_xyz
x,y,z
-x,-y,z
x,-y,-z
-x,y,-z
-x,-y,-z
x,y,-z
-x,y,z
x,-y,z
1/2+x,1/2+y,z
1/2-x,1/2-y,z
1/2+x,1/2-y,-z
1/2-x,1/2+y,-z
1/2-x,1/2-y,-z
1/2+x,1/2+y,-z
1/2-x,1/2+y,z
1/2+x,1/2-y,z
loop_
_atom_site_type_symbol
_atom_site_label
_atom_site_fract_x
_atom_site_fract_y
_atom_site_fract_z
Si Si1 0.446020 0.673432 0.876135
Si Si2 0.703297 0.827832 0.601003
Si Si3 0.445237 0.169008 0.342233
Si Si4 0.112624 0.167731 0.564931
Si Si5 0.946309 0.171305 0.000000
Si Si6 0.704737 0.168914 0.734193
Si Si7 0.104787 0.327724 0.226557
O O1 0.500000 0.718026 0.868138
O O2 0.440550 0.500000 0.870839
O O3 0.415187 0.749010 0.828551
O O4 0.426545 0.730097 0.938832
O O5 0.750000 0.750000 0.578218
O O6 0.660036 0.759478 0.567846
O O7 0.695966 0.793038 0.667898
O O8 0.706356 0.000000 0.588248
O O9 0.500000 0.190984 0.336672
O O10 0.426959 0.264744 0.394772
O O11 0.422040 0.225412 0.283455
O O12 0.431570 0.000000 0.353402
O O13 0.093743 0.176416 0.500000
O O14 0.122211 0.000000 0.583140
O O15 0.000000 0.211239 0.000000
O O16 0.938844 0.000000 0.000000
O O17 0.750000 0.250000 0.759073
O O18 0.658952 0.217087 0.768909
O O19 0.715104 0.000000 0.742295
O O20 0.098212 0.500000 0.219051
#
# Coordination Sequence:
#
# PCOD8268881 Si02
#       7
#    16  16  16  16   8  16  16
#     4   9  17  29  47  73 103 138 177 210 242 285
#     4  10  19  35  57  79 102 129 162 201 249 306
#     4  10  21  38  57  74  97 132 169 205 252 307
#     4  11  24  39  54  74 100 130 166 209 256 303
#     4   7  12  26  45  65  98 139 174 209 244 281
#     4   9  18  32  51  74 100 128 159 196 244 297
#     4  10  19  33  51  75 105 133 161 201 252 299
#
# _framework density 17.021241
#
# number of rings (size 3 to 8) (size 9 to 14) (size 15 to 20)
#    0.000    2.385    1.538    2.308    0.000    4.923 
#    0.000    1.923    0.000    1.385    0.000    0.538 
#    0.000    0.000    0.000    0.000    0.000    0.000 
#
# Total GULP energy -644642.299441 kJ/mol
# GULP energy per Si atom -12396.967297 kJ/mol
# Density = 1.698250 g / cm^3
# Si number density = 17.021241 Si / 1000 Ang^3
#
#
#
# Elastic Constant Matrix: (Units=GPa)
#
#
# Indices 1 2 3 4 5 6 
#
# 1 94.7842 41.4423 60.5600 0.0000 0.0000 0.0000
# 2 41.4423 65.3784 47.8137 0.0000 0.0000 0.0000
# 3 60.5600 47.8137 124.9790 0.0000 0.0000 0.0000
# 4 0.0000 0.0000 0.0000 23.1638 0.0000 0.0000
# 5 0.0000 0.0000 0.0000 0.0000 20.3582 0.0000
# 6 0.0000 0.0000 0.0000 0.0000 0.0000 30.9648
#
#
#
# Elastic Compliance Matrix: (Units=1/GPa)
#
#
# Indices 1 2 3 4 5 6 
#
# 1 0.017139 -0.006651 -0.005760 0.000000 0.000000 0.000000
# 2 -0.006651 0.023819 -0.005890 0.000000 0.000000 0.000000
# 3 -0.005760 -0.005890 0.013046 0.000000 0.000000 0.000000
# 4 0.000000 0.000000 0.000000 0.043171 0.000000 0.000000
# 5 0.000000 0.000000 0.000000 0.000000 0.049120 0.000000
# 6 0.000000 0.000000 0.000000 0.000000 0.000000 0.032295
#
#
# Mechanical properties :
#
#
# Convention : Reuss Voigt Hill
#
# Bulk Modulus (GPa) = 57.46680 64.97484 61.22082
# Shear Modulus (GPa) = 22.62529 23.91907 23.27218
#
# Velocity S-wave (km/s) = 3.64983 3.75273 3.70164
# Velocity P-wave (km/s) = 7.18309 7.55202 7.36986
#
# Compressibility (1/GPa) = 0.01740135
#
# Stress axis : x y z
#
# Youngs Moduli (GPa) = 58.34737 41.98328 76.65376
#
# Poissons Ratio (x) = 0.27925 0.44154
# Poissons Ratio (y) = 0.38809 0.45146
# Poissons Ratio (z) = 0.33609 0.24726
#
# Static dielectric constant tensor:
#      x y z
#    x 3.178810 0.000000 0.000000 
#    y 0.000000 3.153160 0.000000 
#    z 0.000000 0.000000 3.286280 
# 
# 
# High freq. dielectric constant tensor:
#      x y z
#    x 1.648220 0.000000 0.000000 
#    y 0.000000 1.651110 0.000000 
#    z 0.000000 0.000000 1.648640 
# 
# From -- ./inp_files/66417.got.cif
#   From: 2010.03.12/outbox.cif.g09.slc.cpg/sg65_34_cif.got.tgz:66417.got - 2010.04.10 20:52:16.
