data_PCOD8268929
_publ_section_title
;
Structure prediction by ZEFSAII (Michael W. Deem and Ramdas Pophale) SiO2 
 PCOD8268929
Probable space group: C M M M
;
_chemical_formula_sum "Si O2"
_cell_formula_units_Z 88
_cell_length_a 22.140616
_cell_length_b 16.330148
_cell_length_c 13.920809
_cell_angle_alpha 90.000000
_cell_angle_beta 90.000000
_cell_angle_gamma 90.000000
_cell_volume 5033.201244
_symmetry_space_group_name_H-M "C M M M"
_symmetry_group_IT_number 65
_symmetry_cell_setting 'orthorhombic'
loop_
_space_group_symop_operation_xyz
x,y,z
-x,-y,z
x,-y,-z
-x,y,-z
-x,-y,-z
x,y,-z
-x,y,z
x,-y,z
1/2+x,1/2+y,z
1/2-x,1/2-y,z
1/2+x,1/2-y,-z
1/2-x,1/2+y,-z
1/2-x,1/2-y,-z
1/2+x,1/2+y,-z
1/2-x,1/2+y,z
1/2+x,1/2-y,z
loop_
_atom_site_type_symbol
_atom_site_label
_atom_site_fract_x
_atom_site_fract_y
_atom_site_fract_z
Si Si1 0.815337 0.209119 0.105828
Si Si2 0.760497 0.091766 0.754654
Si Si3 0.071863 0.500000 0.886816
Si Si4 0.870557 0.345403 0.221723
Si Si5 0.428973 0.751741 0.389866
Si Si6 0.138673 0.089968 0.612054
O O1 0.750000 0.250000 0.100642
O O2 0.807503 0.127454 0.167756
O O3 0.866722 0.268221 0.150108
O O4 0.838000 0.184970 0.000000
O O5 0.697534 0.137847 0.744983
O O6 0.793860 0.099397 0.653066
O O7 0.746288 0.000000 0.786678
O O8 0.098599 0.420166 0.834549
O O9 0.000000 0.500000 0.875201
O O10 0.090152 0.500000 0.000000
O O11 0.906817 0.323514 0.318701
O O12 0.408870 0.771374 0.500000
O O13 0.500000 0.746455 0.382957
O O14 0.404067 0.663881 0.353536
O O15 0.146961 0.095055 0.500000
O O16 0.111889 0.000000 0.642049
#
# Coordination Sequence:
#
# PCOD8268929 Si02
#       6
#    16  16   8  16  16  16
#     4   9  18  31  50  77 107 137 172 218 273 326
#     4  10  19  33  52  80 110 140 176 216 273 334
#     4  11  24  40  59  81 107 147 195 234 268 310
#     4  11  20  37  55  79 109 143 179 229 274 319
#     4  10  21  36  56  81 108 143 183 223 272 327
#     4   9  18  33  54  81 112 140 176 222 266 326
#
# _framework density 17.483903000000002
#
# number of rings (size 3 to 8) (size 9 to 14) (size 15 to 20)
#    0.000    2.091    2.727    1.091    0.000    2.182 
#    0.000    4.091    0.000    1.636    0.000    0.000 
#    0.000    2.909    0.000    0.000    0.000    0.000 
#
# Total GULP energy -545372.156482 kJ/mol
# GULP energy per Si atom -12394.821738 kJ/mol
# Density = 1.744411 g / cm^3
# Si number density = 17.483903 Si / 1000 Ang^3
#
#
#
# Elastic Constant Matrix: (Units=GPa)
#
#
# Indices 1 2 3 4 5 6 
#
# 1 72.4305 36.0595 36.9920 0.0000 0.0000 0.0000
# 2 36.0595 83.6285 40.7358 0.0000 0.0000 0.0000
# 3 36.9920 40.7358 68.3752 0.0000 0.0000 0.0000
# 4 0.0000 0.0000 0.0000 26.7535 0.0000 0.0000
# 5 0.0000 0.0000 0.0000 0.0000 23.7815 0.0000
# 6 0.0000 0.0000 0.0000 0.0000 0.0000 24.8955
#
#
#
# Elastic Compliance Matrix: (Units=1/GPa)
#
#
# Indices 1 2 3 4 5 6 
#
# 1 0.020364 -0.004810 -0.008152 0.000000 0.000000 0.000000
# 2 -0.004810 0.017983 -0.008111 0.000000 0.000000 0.000000
# 3 -0.008152 -0.008111 0.023868 0.000000 0.000000 0.000000
# 4 0.000000 0.000000 0.000000 0.037378 0.000000 0.000000
# 5 0.000000 0.000000 0.000000 0.000000 0.042050 0.000000
# 6 0.000000 0.000000 0.000000 0.000000 0.000000 0.040168
#
#
# Mechanical properties :
#
#
# Convention : Reuss Voigt Hill
#
# Bulk Modulus (GPa) = 49.82855 50.22319 50.02587
# Shear Modulus (GPa) = 21.67825 22.46256 22.07041
#
# Velocity S-wave (km/s) = 3.52504 3.58824 3.55678
# Velocity P-wave (km/s) = 6.71784 6.77901 6.74850
#
# Compressibility (1/GPa) = 0.02006882
#
# Stress axis : x y z
#
# Youngs Moduli (GPa) = 49.10560 55.60905 41.89754
#
# Poissons Ratio (x) = 0.26748 0.34153
# Poissons Ratio (y) = 0.23620 0.33984
# Poissons Ratio (z) = 0.40029 0.45106
#
# Static dielectric constant tensor:
#      x y z
#    x 3.079510 0.000000 0.000000 
#    y 0.000000 3.473490 0.000000 
#    z 0.000000 0.000000 3.433550 
# 
# 
# High freq. dielectric constant tensor:
#      x y z
#    x 1.658580 0.000000 0.000000 
#    y 0.000000 1.681200 0.000000 
#    z 0.000000 0.000000 1.679950 
# 
# From -- ./inp_files/26791.got.cif
#   From: 2010.03.12/outbox.cif.g09.slc.cpg/sg65_14_cif.got.tgz:26791.got - 2010.04.10 20:52:16.
