data_PCOD8268603
_publ_section_title
;
Structure prediction by ZEFSAII (Michael W. Deem and Ramdas Pophale) SiO2 
 PCOD8268603
Probable space group: C M M M
;
_chemical_formula_sum "Si O2"
_cell_formula_units_Z 104
_cell_length_a 8.817481
_cell_length_b 28.456232
_cell_length_c 23.320713
_cell_angle_alpha 90.000000
_cell_angle_beta 90.000000
_cell_angle_gamma 90.000000
_cell_volume 5851.453386
_symmetry_space_group_name_H-M "C M M M"
_symmetry_group_IT_number 65
_symmetry_cell_setting 'orthorhombic'
loop_
_space_group_symop_operation_xyz
x,y,z
-x,-y,z
x,-y,-z
-x,y,-z
-x,-y,-z
x,y,-z
-x,y,z
x,-y,z
1/2+x,1/2+y,z
1/2-x,1/2-y,z
1/2+x,1/2-y,-z
1/2-x,1/2+y,-z
1/2-x,1/2-y,-z
1/2+x,1/2+y,-z
1/2-x,1/2+y,z
1/2+x,1/2-y,z
loop_
_atom_site_type_symbol
_atom_site_label
_atom_site_fract_x
_atom_site_fract_y
_atom_site_fract_z
Si Si1 0.674950 0.947035 0.272241
Si Si2 0.322737 0.446961 0.605987
Si Si3 0.679142 0.198384 0.875720
Si Si4 0.178254 0.199437 0.665345
Si Si5 0.178865 0.139105 0.775748
Si Si6 0.325933 0.142747 0.435253
Si Si7 0.326285 0.200710 0.000000
O O1 0.500000 0.936062 0.286130
O O2 0.773104 0.939204 0.328940
O O3 0.739781 0.911609 0.224760
O O4 0.694420 0.000000 0.248802
O O5 0.500000 0.436027 0.601787
O O6 0.285536 0.500000 0.585512
O O7 0.233865 0.410765 0.565945
O O8 0.500000 0.201072 0.862553
O O9 0.750000 0.250000 0.870534
O O10 0.762087 0.165211 0.831387
O O11 0.712752 0.175458 0.939286
O O12 0.250000 0.250000 0.674392
O O13 0.227300 0.167343 0.718797
O O14 0.232094 0.176336 0.606290
O O15 0.000000 0.205748 0.662243
O O16 0.000000 0.132411 0.779778
O O17 0.307142 0.161639 0.500000
O O18 0.500000 0.143504 0.415758
O O19 0.250000 0.250000 0.000000
O O20 0.500000 0.213440 0.000000
#
# Coordination Sequence:
#
# PCOD8268603 Si02
#       7
#    16  16  16  16  16  16   8
#     4  10  20  34  55  81 108 139 173 213 262 314
#     4  10  20  35  56  81 108 137 169 209 260 318
#     4  10  19  32  51  77 111 149 187 226 265 310
#     4  11  24  40  58  78 103 137 174 218 266 315
#     4  11  22  35  54  82 111 141 178 218 263 314
#     4  11  24  40  58  79 103 134 175 220 265 318
#     4   8  16  30  48  72 105 146 187 224 264 307
#
# _framework density 17.773361999999999
#
# number of rings (size 3 to 8) (size 9 to 14) (size 15 to 20)
#    0.000    1.692    1.538    3.231    0.000    7.385 
#    0.000    1.538    0.000    0.000    0.000    0.538 
#    0.000    4.308    0.000    0.000    0.000    0.000 
#
# Total GULP energy -644731.371580 kJ/mol
# GULP energy per Si atom -12398.680223 kJ/mol
# Density = 1.773291 g / cm^3
# Si number density = 17.773362 Si / 1000 Ang^3
#
#
#
# Elastic Constant Matrix: (Units=GPa)
#
#
# Indices 1 2 3 4 5 6 
#
# 1 59.8723 39.6174 36.9055 0.0000 0.0000 0.0000
# 2 39.6174 96.3284 44.8105 0.0000 0.0000 0.0000
# 3 36.9055 44.8105 103.1702 0.0000 0.0000 0.0000
# 4 0.0000 0.0000 0.0000 20.1521 0.0000 0.0000
# 5 0.0000 0.0000 0.0000 0.0000 23.3099 0.0000
# 6 0.0000 0.0000 0.0000 0.0000 0.0000 32.6486
#
#
#
# Elastic Compliance Matrix: (Units=1/GPa)
#
#
# Indices 1 2 3 4 5 6 
#
# 1 0.025360 -0.007782 -0.005692 0.000000 0.000000 0.000000
# 2 -0.007782 0.015398 -0.003904 0.000000 0.000000 0.000000
# 3 -0.005692 -0.003904 0.013424 0.000000 0.000000 0.000000
# 4 0.000000 0.000000 0.000000 0.049623 0.000000 0.000000
# 5 0.000000 0.000000 0.000000 0.000000 0.042900 0.000000
# 6 0.000000 0.000000 0.000000 0.000000 0.000000 0.030629
#
#
# Mechanical properties :
#
#
# Convention : Reuss Voigt Hill
#
# Bulk Modulus (GPa) = 51.47593 55.78196 53.62895
# Shear Modulus (GPa) = 22.87644 24.42462 23.65053
#
# Velocity S-wave (km/s) = 3.59154 3.71108 3.65180
# Velocity P-wave (km/s) = 6.79883 7.05805 6.92965
#
# Compressibility (1/GPa) = 0.01942655
#
# Stress axis : x y z
#
# Youngs Moduli (GPa) = 39.43213 64.94389 74.49169
#
# Poissons Ratio (x) = 0.50541 0.42397
# Poissons Ratio (y) = 0.30687 0.29082
# Poissons Ratio (z) = 0.22443 0.25354
#
# Static dielectric constant tensor:
#      x y z
#    x 3.458010 0.000000 0.000000 
#    y 0.000000 3.373500 0.000000 
#    z 0.000000 0.000000 3.695680 
# 
# 
# High freq. dielectric constant tensor:
#      x y z
#    x 1.707760 0.000000 0.000000 
#    y 0.000000 1.676560 0.000000 
#    z 0.000000 0.000000 1.676790 
# 
# From -- ./inp_files/68217.got.cif
#   From: 2010.03.12/outbox.cif.g09.slc.cpg/sg65_35_cif.got.tgz:68217.got - 2010.04.10 20:52:16.
