data_PCOD8268946
_publ_section_title
;
Structure prediction by ZEFSAII (Michael W. Deem and Ramdas Pophale) SiO2 
 PCOD8268946
Probable space group: C M M M
;
_chemical_formula_sum "Si O2"
_cell_formula_units_Z 80
_cell_length_a 18.206456
_cell_length_b 7.736708
_cell_length_c 27.561601
_cell_angle_alpha 90.000000
_cell_angle_beta 90.000000
_cell_angle_gamma 90.000000
_cell_volume 3882.272925
_symmetry_space_group_name_H-M "C M M M"
_symmetry_group_IT_number 65
_symmetry_cell_setting 'orthorhombic'
loop_
_space_group_symop_operation_xyz
x,y,z
-x,-y,z
x,-y,-z
-x,y,-z
-x,-y,-z
x,y,-z
-x,y,z
x,-y,z
1/2+x,1/2+y,z
1/2-x,1/2-y,z
1/2+x,1/2-y,-z
1/2-x,1/2+y,-z
1/2-x,1/2-y,-z
1/2+x,1/2+y,-z
1/2-x,1/2+y,z
1/2+x,1/2-y,z
loop_
_atom_site_type_symbol
_atom_site_label
_atom_site_fract_x
_atom_site_fract_y
_atom_site_fract_z
Si Si1 0.418194 0.704656 0.288843
Si Si2 0.834116 0.801925 0.802136
Si Si3 0.665942 0.798229 0.092904
Si Si4 0.582607 0.206556 0.000000
Si Si5 0.584626 0.000000 0.442705
Si Si6 0.335273 0.704060 0.613901
O O1 0.500000 0.782813 0.295331
O O2 0.423809 0.500000 0.284903
O O3 0.382244 0.788682 0.240051
O O4 0.367336 0.756943 0.333857
O O5 0.750000 0.750000 0.799336
O O6 0.866318 0.765845 0.855706
O O7 0.839209 0.000000 0.790469
O O8 0.750000 0.750000 0.086529
O O9 0.621441 0.716009 0.048038
O O10 0.656183 0.000000 0.091938
O O11 0.500000 0.274643 0.000000
O O12 0.586741 0.000000 0.000000
O O13 0.623375 0.176417 0.424951
O O14 0.500000 0.000000 0.425545
O O15 0.591148 0.000000 0.500000
O O16 0.347864 0.500000 0.602146
O O17 0.250000 0.750000 0.613371
#
# Coordination Sequence:
#
# PCOD8268946 Si02
#       6
#    16  16  16   8   8  16
#     4   9  19  35  57  84 118 158 197 240 300 363
#     4  10  19  33  53  77 108 143 180 231 282 341
#     4  10  19  33  53  74  99 132 177 223 274 334
#     4   9  19  34  51  71  98 133 168 218 276 331
#     4  11  26  46  68 100 137 171 217 272 325 383
#     4  11  22  42  68  97 130 173 219 268 320 377
#
# _framework density 20.606486
#
# number of rings (size 3 to 8) (size 9 to 14) (size 15 to 20)
#    0.000    2.000    1.000    3.900    0.000    2.800 
#    3.600    2.500    0.000    4.200    0.000    0.000 
#    0.000    0.000    0.000    0.000    0.000    0.000 
#
# Total GULP energy -495840.347013 kJ/mol
# GULP energy per Si atom -12396.008675 kJ/mol
# Density = 2.055958 g / cm^3
# Si number density = 20.606486 Si / 1000 Ang^3
#
#
#
# Elastic Constant Matrix: (Units=GPa)
#
#
# Indices 1 2 3 4 5 6 
#
# 1 147.4531 29.2368 88.0889 0.0000 0.0000 0.0000
# 2 29.2368 71.5090 33.7531 0.0000 0.0000 0.0000
# 3 88.0889 33.7531 154.0338 0.0000 0.0000 0.0000
# 4 0.0000 0.0000 0.0000 63.1998 0.0000 0.0000
# 5 0.0000 0.0000 0.0000 0.0000 36.1728 0.0000
# 6 0.0000 0.0000 0.0000 0.0000 0.0000 11.0702
#
#
#
# Elastic Compliance Matrix: (Units=1/GPa)
#
#
# Indices 1 2 3 4 5 6 
#
# 1 0.010467 -0.001622 -0.005631 0.000000 0.000000 0.000000
# 2 -0.001622 0.015849 -0.002545 0.000000 0.000000 0.000000
# 3 -0.005631 -0.002545 0.010270 0.000000 0.000000 0.000000
# 4 0.000000 0.000000 0.000000 0.015823 0.000000 0.000000
# 5 0.000000 0.000000 0.000000 0.000000 0.027645 0.000000
# 6 0.000000 0.000000 0.000000 0.000000 0.000000 0.090333
#
#
# Mechanical properties :
#
#
# Convention : Reuss Voigt Hill
#
# Bulk Modulus (GPa) = 58.85754 75.01705 66.93730
# Shear Modulus (GPa) = 25.55646 36.88304 31.21975
#
# Velocity S-wave (km/s) = 3.52549 4.23528 3.89658
# Velocity P-wave (km/s) = 6.72285 7.77177 7.26626
#
# Compressibility (1/GPa) = 0.01699018
#
# Stress axis : x y z
#
# Youngs Moduli (GPa) = 95.53758 63.09613 97.37245
#
# Poissons Ratio (x) = 0.10233 0.54826
# Poissons Ratio (y) = 0.15495 0.24785
# Poissons Ratio (z) = 0.53793 0.16061
#
# Static dielectric constant tensor:
#      x y z
#    x 3.707290 0.000000 0.000000 
#    y 0.000000 3.633140 0.000000 
#    z 0.000000 0.000000 4.222510 
# 
# 
# High freq. dielectric constant tensor:
#      x y z
#    x 1.806940 0.000000 0.000000 
#    y 0.000000 1.794900 0.000000 
#    z 0.000000 0.000000 1.817550 
# 
# From -- ./inp_files/75091.got.cif
#   From: 2010.03.12/outbox.cif.g09.slc.cpg/sg65_38_cif.got.tgz:75091.got - 2010.04.10 20:52:16.
