data_PCOD8268379
_publ_section_title
;
Structure prediction by ZEFSAII (Michael W. Deem and Ramdas Pophale) SiO2 
 PCOD8268379
Probable space group: C M M M
;
_chemical_formula_sum "Si O2"
_cell_formula_units_Z 104
_cell_length_a 21.433289
_cell_length_b 13.674997
_cell_length_c 22.526140
_cell_angle_alpha 90.000000
_cell_angle_beta 90.000000
_cell_angle_gamma 90.000000
_cell_volume 6602.415301
_symmetry_space_group_name_H-M "C M M M"
_symmetry_group_IT_number 65
_symmetry_cell_setting 'orthorhombic'
loop_
_space_group_symop_operation_xyz
x,y,z
-x,-y,z
x,-y,-z
-x,y,-z
-x,-y,-z
x,y,-z
-x,y,z
x,-y,z
1/2+x,1/2+y,z
1/2-x,1/2-y,z
1/2+x,1/2-y,-z
1/2-x,1/2+y,-z
1/2-x,1/2-y,-z
1/2+x,1/2+y,-z
1/2-x,1/2+y,z
1/2+x,1/2-y,z
loop_
_atom_site_type_symbol
_atom_site_label
_atom_site_fract_x
_atom_site_fract_y
_atom_site_fract_z
Si Si1 0.651155 0.300434 0.895314
Si Si2 0.573178 0.392874 0.659838
Si Si3 0.426059 0.386932 0.000000
Si Si4 0.572348 0.614782 0.793616
Si Si5 0.348639 0.287783 0.569417
Si Si6 0.780383 0.612315 0.070059
Si Si7 0.774736 0.605846 0.430330
O O1 0.600238 0.333010 0.942816
O O2 0.619038 0.318837 0.832010
O O3 0.713493 0.365124 0.901027
O O4 0.667563 0.185203 0.902743
O O5 0.500000 0.399897 0.657220
O O6 0.601601 0.500000 0.645200
O O7 0.592510 0.361236 0.726126
O O8 0.593344 0.315931 0.609955
O O9 0.404964 0.500000 0.000000
O O10 0.500000 0.377301 0.000000
O O11 0.500000 0.643163 0.805325
O O12 0.581625 0.500000 0.808096
O O13 0.363643 0.306178 0.500000
O O14 0.289706 0.349454 0.593399
O O15 0.334000 0.174264 0.582620
O O16 0.799336 0.500000 0.083677
O O17 0.774883 0.631949 0.000000
O O18 0.765652 0.597301 0.500000
O O19 0.786993 0.500000 0.401017
#
# Coordination Sequence:
#
# PCOD8268379 Si02
#       7
#    16  16   8  16  16  16  16
#     4  11  18  31  49  71  92 120 153 183 222 265
#     4   9  18  31  45  64  91 121 150 181 227 281
#     4  11  20  27  43  73  97 109 139 194 232 251
#     4   9  18  32  49  67  90 121 151 184 230 278
#     4   9  16  26  44  68  90 116 151 188 227 271
#     4  10  19  32  49  69  98 129 150 176 222 277
#     4   8  14  25  41  63  91 118 143 175 222 274
#
# _framework density 15.751811999999999
#
# number of rings (size 3 to 8) (size 9 to 14) (size 15 to 20)
#    0.000    2.538    1.538    4.615    0.000    2.462 
#    0.000    3.846    0.000    5.538    0.000    4.308 
#    0.000    0.000    0.000    0.000    0.000    0.000 
#
# Total GULP energy -644529.142066 kJ/mol
# GULP energy per Si atom -12394.791194 kJ/mol
# Density = 1.571596 g / cm^3
# Si number density = 15.751812 Si / 1000 Ang^3
#
#
#
# Elastic Constant Matrix: (Units=GPa)
#
#
# Indices 1 2 3 4 5 6 
#
# 1 51.4568 37.5874 38.8957 0.0000 0.0000 0.0000
# 2 37.5874 116.6943 43.0372 0.0000 0.0000 0.0000
# 3 38.8957 43.0372 82.1328 0.0000 0.0000 0.0000
# 4 0.0000 0.0000 0.0000 13.8861 0.0000 0.0000
# 5 0.0000 0.0000 0.0000 0.0000 23.3069 0.0000
# 6 0.0000 0.0000 0.0000 0.0000 0.0000 25.0038
#
#
#
# Elastic Compliance Matrix: (Units=1/GPa)
#
#
# Indices 1 2 3 4 5 6 
#
# 1 0.033454 -0.006114 -0.012639 0.000000 0.000000 0.000000
# 2 -0.006114 0.011740 -0.003256 0.000000 0.000000 0.000000
# 3 -0.012639 -0.003256 0.019867 0.000000 0.000000 0.000000
# 4 0.000000 0.000000 0.000000 0.072014 0.000000 0.000000
# 5 0.000000 0.000000 0.000000 0.000000 0.042906 0.000000
# 6 0.000000 0.000000 0.000000 0.000000 0.000000 0.039994
#
#
# Mechanical properties :
#
#
# Convention : Reuss Voigt Hill
#
# Bulk Modulus (GPa) = 47.52390 54.36939 50.94665
# Shear Modulus (GPa) = 18.44978 21.15696 19.80337
#
# Velocity S-wave (km/s) = 3.42611 3.66887 3.54957
# Velocity P-wave (km/s) = 6.77399 7.24836 7.01518
#
# Compressibility (1/GPa) = 0.02104204
#
# Stress axis : x y z
#
# Youngs Moduli (GPa) = 29.89216 85.18166 50.33497
#
# Poissons Ratio (x) = 0.52082 0.63618
# Poissons Ratio (y) = 0.18277 0.16389
# Poissons Ratio (z) = 0.37780 0.27735
#
# Static dielectric constant tensor:
#      x y z
#    x 2.828750 0.000000 0.000000 
#    y 0.000000 5.373470 0.000000 
#    z 0.000000 0.000000 2.942940 
# 
# 
# High freq. dielectric constant tensor:
#      x y z
#    x 1.591660 0.000000 0.000000 
#    y 0.000000 1.598730 0.000000 
#    z 0.000000 0.000000 1.588570 
# 
# From -- ./inp_files/71260.got.cif
#   From: 2010.03.12/outbox.cif.g09.slc.cpg/sg65_36_cif.got.tgz:71260.got - 2010.04.10 20:52:16.
