data_PCOD8268719
_publ_section_title
;
Structure prediction by ZEFSAII (Michael W. Deem and Ramdas Pophale) SiO2 
 PCOD8268719
Probable space group: C M M M
;
_chemical_formula_sum "Si O2"
_cell_formula_units_Z 96
_cell_length_a 23.093279
_cell_length_b 9.203092
_cell_length_c 25.370552
_cell_angle_alpha 90.000000
_cell_angle_beta 90.000000
_cell_angle_gamma 90.000000
_cell_volume 5391.992538
_symmetry_space_group_name_H-M "C M M M"
_symmetry_group_IT_number 65
_symmetry_cell_setting 'orthorhombic'
loop_
_space_group_symop_operation_xyz
x,y,z
-x,-y,z
x,-y,-z
-x,y,-z
-x,-y,-z
x,y,-z
-x,y,z
x,-y,z
1/2+x,1/2+y,z
1/2-x,1/2-y,z
1/2+x,1/2-y,-z
1/2-x,1/2+y,-z
1/2-x,1/2-y,-z
1/2+x,1/2+y,-z
1/2-x,1/2+y,z
1/2+x,1/2-y,z
loop_
_atom_site_type_symbol
_atom_site_label
_atom_site_fract_x
_atom_site_fract_y
_atom_site_fract_z
Si Si1 0.875698 0.667411 0.894741
Si Si2 0.307820 0.164333 0.500000
Si Si3 0.500000 0.836191 0.860511
Si Si4 0.688167 0.170607 0.614636
Si Si5 0.619920 0.667283 0.298323
Si Si6 0.000000 0.171548 0.248283
Si Si7 0.309645 0.332491 0.193566
Si Si8 0.810957 0.670929 0.000000
O O1 0.859578 0.500000 0.883121
O O2 0.854426 0.767099 0.847479
O O3 0.847358 0.720013 0.949143
O O4 0.944700 0.690488 0.897932
O O5 0.250000 0.250000 0.500000
O O6 0.339622 0.197331 0.444248
O O7 0.287447 0.000000 0.500000
O O8 0.500000 0.733783 0.810112
O O9 0.500000 0.000000 0.838248
O O10 0.750000 0.250000 0.621732
O O11 0.640282 0.233960 0.653535
O O12 0.697557 0.000000 0.626284
O O13 0.617198 0.500000 0.316517
O O14 0.556768 0.722724 0.280141
O O15 0.665641 0.687934 0.251712
O O16 0.000000 0.000000 0.240952
O O17 0.299491 0.500000 0.179681
O O18 0.250000 0.250000 0.188481
O O19 0.750000 0.750000 0.000000
O O20 0.799676 0.500000 0.000000
#
# Coordination Sequence:
#
# PCOD8268719 Si02
#       8
#    16   8   8  16  16   8  16   8
#     4  10  21  37  57  81 108 139 176 218 263 314
#     4   8  16  30  48  73 104 141 177 216 264 312
#     4  10  20  35  58  84 107 135 176 221 263 315
#     4  10  19  32  52  78 110 142 178 220 265 317
#     4  10  21  35  53  77 105 138 176 219 268 316
#     4  10  20  38  57  76 106 142 177 217 266 317
#     4  11  22  35  53  77 107 140 174 215 266 319
#     4  10  22  39  57  79 109 142 177 218 265 316
#
# _framework density 17.804179999999999
#
# number of rings (size 3 to 8) (size 9 to 14) (size 15 to 20)
#    0.000    2.000    1.667    2.000    0.000    6.333 
#    0.000    1.667    0.000    0.500    0.000    5.833 
#    0.000    0.000    0.000    0.000    0.000    0.000 
#
# Total GULP energy -595082.807884 kJ/mol
# GULP energy per Si atom -12397.558498 kJ/mol
# Density = 1.776366 g / cm^3
# Si number density = 17.804180 Si / 1000 Ang^3
#
#
#
# Elastic Constant Matrix: (Units=GPa)
#
#
# Indices 1 2 3 4 5 6 
#
# 1 113.0698 35.8082 44.0817 0.0000 0.0000 0.0000
# 2 35.8082 69.6699 48.1446 0.0000 0.0000 0.0000
# 3 44.0817 48.1446 113.8490 0.0000 0.0000 0.0000
# 4 0.0000 0.0000 0.0000 19.5734 0.0000 0.0000
# 5 0.0000 0.0000 0.0000 0.0000 20.2315 0.0000
# 6 0.0000 0.0000 0.0000 0.0000 0.0000 23.4722
#
#
#
# Elastic Compliance Matrix: (Units=1/GPa)
#
#
# Indices 1 2 3 4 5 6 
#
# 1 0.011108 -0.003867 -0.002666 0.000000 0.000000 0.000000
# 2 -0.003867 0.021626 -0.007648 0.000000 0.000000 0.000000
# 3 -0.002666 -0.007648 0.013050 0.000000 0.000000 0.000000
# 4 0.000000 0.000000 0.000000 0.051090 0.000000 0.000000
# 5 0.000000 0.000000 0.000000 0.000000 0.049428 0.000000
# 6 0.000000 0.000000 0.000000 0.000000 0.000000 0.042604
#
#
# Mechanical properties :
#
#
# Convention : Reuss Voigt Hill
#
# Bulk Modulus (GPa) = 57.39692 61.40641 59.40167
# Shear Modulus (GPa) = 22.41412 23.89238 23.15325
#
# Velocity S-wave (km/s) = 3.55198 3.66724 3.61007
# Velocity P-wave (km/s) = 7.00928 7.24543 7.12833
#
# Compressibility (1/GPa) = 0.01742254
#
# Stress axis : x y z
#
# Youngs Moduli (GPa) = 90.02518 46.24066 76.62934
#
# Poissons Ratio (x) = 0.17882 0.20426
# Poissons Ratio (y) = 0.34814 0.58605
# Poissons Ratio (z) = 0.23997 0.35364
#
# Static dielectric constant tensor:
#      x y z
#    x 3.347120 0.000000 0.000000 
#    y 0.000000 3.361220 0.000000 
#    z 0.000000 0.000000 4.444860 
# 
# 
# High freq. dielectric constant tensor:
#      x y z
#    x 1.681130 0.000000 0.000000 
#    y 0.000000 1.693780 0.000000 
#    z 0.000000 0.000000 1.693130 
# 
# From -- ./inp_files/71509.got.cif
#   From: 2010.03.12/outbox.cif.g09.slc.cpg/sg65_36_cif.got.tgz:71509.got - 2010.04.10 20:52:16.
