data_PCOD8268229
_publ_section_title
;
Structure prediction by ZEFSAII (Michael W. Deem and Ramdas Pophale) SiO2 
 PCOD8268229
Probable space group: C M M M
;
_chemical_formula_sum "Si O2"
_cell_formula_units_Z 104
_cell_length_a 27.108869
_cell_length_b 23.368679
_cell_length_c 9.233242
_cell_angle_alpha 90.000000
_cell_angle_beta 90.000000
_cell_angle_gamma 90.000000
_cell_volume 5849.244567
_symmetry_space_group_name_H-M "C M M M"
_symmetry_group_IT_number 65
_symmetry_cell_setting 'orthorhombic'
loop_
_space_group_symop_operation_xyz
x,y,z
-x,-y,z
x,-y,-z
-x,y,-z
-x,-y,-z
x,y,-z
-x,y,z
x,-y,z
1/2+x,1/2+y,z
1/2-x,1/2-y,z
1/2+x,1/2-y,-z
1/2-x,1/2+y,-z
1/2-x,1/2-y,-z
1/2+x,1/2+y,-z
1/2-x,1/2+y,z
1/2+x,1/2-y,z
loop_
_atom_site_type_symbol
_atom_site_label
_atom_site_fract_x
_atom_site_fract_y
_atom_site_fract_z
Si Si1 0.444108 0.189535 0.170539
Si Si2 0.389402 0.717211 0.330183
Si Si3 0.703417 0.500000 0.667329
Si Si4 0.145608 0.614773 0.835502
Si Si5 0.196298 0.271578 0.164001
Si Si6 0.557881 0.500000 0.161233
Si Si7 0.381712 0.413940 0.668347
Si Si8 0.306755 0.000000 0.174070
O O1 0.500000 0.169652 0.204350
O O2 0.433940 0.250477 0.247611
O O3 0.405159 0.141837 0.231107
O O4 0.435485 0.198797 0.000000
O O5 0.397957 0.724640 0.500000
O O6 0.338113 0.744541 0.284180
O O7 0.384438 0.651582 0.283680
O O8 0.719764 0.500000 0.500000
O O9 0.671113 0.556740 0.703659
O O10 0.751430 0.500000 0.766487
O O11 0.190868 0.659737 0.822739
O O12 0.163560 0.555347 0.763558
O O13 0.133132 0.600077 0.000000
O O14 0.250000 0.250000 0.204246
O O15 0.181784 0.252704 0.000000
O O16 0.500000 0.500000 0.156442
O O17 0.575072 0.443503 0.243195
O O18 0.580383 0.500000 0.000000
O O19 0.393447 0.421944 0.500000
O O20 0.302933 0.000000 0.000000
#
# Coordination Sequence:
#
# PCOD8268229 Si02
#       8
#    16  16   8  16  16   8  16   8
#     4   9  18  35  56  74  99 136 170 206 259 317
#     4  10  20  33  51  77 104 131 168 214 256 302
#     4   9  19  35  50  67  96 135 172 206 244 295
#     4   8  16  31  48  73 103 130 165 209 254 303
#     4   9  18  32  50  71 102 141 171 203 252 308
#     4  10  21  35  52  75  99 126 169 222 261 295
#     4   9  20  37  52  69 101 139 172 208 255 310
#     4  10  19  31  51  76 102 130 168 216 257 299
#
# _framework density 17.780073999999999
#
# number of rings (size 3 to 8) (size 9 to 14) (size 15 to 20)
#    0.000    2.846    0.000    2.077    2.154    4.308 
#    0.000    6.538    0.000    2.308    0.000    0.000 
#    0.000    5.538    0.000    0.000    0.000    0.000 
#
# Total GULP energy -644466.649507 kJ/mol
# GULP energy per Si atom -12393.589414 kJ/mol
# Density = 1.773961 g / cm^3
# Si number density = 17.780074 Si / 1000 Ang^3
#
#
#
# Elastic Constant Matrix: (Units=GPa)
#
#
# Indices 1 2 3 4 5 6 
#
# 1 117.9496 57.2719 26.7613 0.0000 0.0000 0.0000
# 2 57.2719 136.5317 37.5838 0.0000 0.0000 0.0000
# 3 26.7613 37.5838 40.5096 0.0000 0.0000 0.0000
# 4 0.0000 0.0000 0.0000 18.7114 0.0000 0.0000
# 5 0.0000 0.0000 0.0000 0.0000 19.2787 0.0000
# 6 0.0000 0.0000 0.0000 0.0000 0.0000 17.5033
#
#
#
# Elastic Compliance Matrix: (Units=1/GPa)
#
#
# Indices 1 2 3 4 5 6 
#
# 1 0.011121 -0.003549 -0.004054 0.000000 0.000000 0.000000
# 2 -0.003549 0.010969 -0.007832 0.000000 0.000000 0.000000
# 3 -0.004054 -0.007832 0.034630 0.000000 0.000000 0.000000
# 4 0.000000 0.000000 0.000000 0.053443 0.000000 0.000000
# 5 0.000000 0.000000 0.000000 0.000000 0.051871 0.000000
# 6 0.000000 0.000000 0.000000 0.000000 0.000000 0.057132
#
#
# Mechanical properties :
#
#
# Convention : Reuss Voigt Hill
#
# Bulk Modulus (GPa) = 38.68512 59.80278 49.24395
# Shear Modulus (GPa) = 19.33077 22.65692 20.99385
#
# Velocity S-wave (km/s) = 3.30087 3.57359 3.43993
# Velocity P-wave (km/s) = 6.02764 7.12286 6.59802
#
# Compressibility (1/GPa) = 0.02584973
#
# Stress axis : x y z
#
# Youngs Moduli (GPa) = 89.91707 91.16497 28.87639
#
# Poissons Ratio (x) = 0.32356 0.11707
# Poissons Ratio (y) = 0.31913 0.22617
# Poissons Ratio (z) = 0.36454 0.71403
#
# Static dielectric constant tensor:
#      x y z
#    x 3.308420 0.000000 0.000000 
#    y 0.000000 3.606740 0.000000 
#    z 0.000000 0.000000 3.161630 
# 
# 
# High freq. dielectric constant tensor:
#      x y z
#    x 1.683210 0.000000 0.000000 
#    y 0.000000 1.688390 0.000000 
#    z 0.000000 0.000000 1.670240 
# 
# From -- ./inp_files/16838.got.cif
#   From: 2010.03.12/outbox.cif.g09.slc.cpg/sg65_9_cif.got.tgz:16838.got - 2010.04.10 20:52:16.
