data_PCOD8268445
_publ_section_title
;
Structure prediction by ZEFSAII (Michael W. Deem and Ramdas Pophale) SiO2 
 PCOD8268445
Probable space group: C M M M
;
_chemical_formula_sum "Si O2"
_cell_formula_units_Z 104
_cell_length_a 24.026730
_cell_length_b 8.792199
_cell_length_c 28.397175
_cell_angle_alpha 90.000000
_cell_angle_beta 90.000000
_cell_angle_gamma 90.000000
_cell_volume 5998.840503
_symmetry_space_group_name_H-M "C M M M"
_symmetry_group_IT_number 65
_symmetry_cell_setting 'orthorhombic'
loop_
_space_group_symop_operation_xyz
x,y,z
-x,-y,z
x,-y,-z
-x,y,-z
-x,-y,-z
x,y,-z
-x,y,z
x,-y,z
1/2+x,1/2+y,z
1/2-x,1/2-y,z
1/2+x,1/2-y,-z
1/2-x,1/2+y,-z
1/2-x,1/2-y,-z
1/2+x,1/2+y,-z
1/2-x,1/2+y,z
1/2+x,1/2-y,z
loop_
_atom_site_type_symbol
_atom_site_label
_atom_site_fract_x
_atom_site_fract_y
_atom_site_fract_z
Si Si1 0.500000 0.669689 0.555941
Si Si2 0.688815 0.318871 0.000000
Si Si3 0.189582 0.178871 0.628633
Si Si4 0.000000 0.320429 0.052857
Si Si5 0.379414 0.180860 0.914903
Si Si6 0.191305 0.825180 0.270474
Si Si7 0.311780 0.319689 0.832241
Si Si8 0.611374 0.820948 0.446429
O O1 0.500000 0.500000 0.576661
O O2 0.500000 0.669990 0.500000
O O3 0.445849 0.755836 0.574583
O O4 0.750000 0.250000 0.000000
O O5 0.656572 0.262352 0.045568
O O6 0.692770 0.500000 0.000000
O O7 0.250000 0.250000 0.630467
O O8 0.159739 0.214087 0.679949
O O9 0.159919 0.260216 0.585845
O O10 0.191962 0.000000 0.618202
O O11 0.944173 0.268184 0.080310
O O12 0.000000 0.500000 0.048468
O O13 0.000000 0.250274 0.000000
O O14 0.356353 0.237402 0.865172
O O15 0.372909 0.000000 0.919874
O O16 0.250000 0.750000 0.270857
O O17 0.162796 0.784878 0.220342
O O18 0.205504 0.000000 0.271099
O O19 0.308745 0.500000 0.842815
O O20 0.250000 0.250000 0.839225
O O21 0.621777 0.765235 0.500000
O O22 0.608484 0.000000 0.444154
#
# Coordination Sequence:
#
# PCOD8268445 Si02
#       8
#     8   8  16   8  16  16  16  16
#     4   9  17  31  51  72  93 122 163 208 251 297
#     4  12  24  37  52  75 105 136 164 198 245 294
#     4  10  19  32  50  73 100 133 171 209 253 304
#     4   9  18  36  58  75  96 133 174 207 243 289
#     4  11  21  36  56  77 101 132 169 207 246 293
#     4   8  16  30  49  71  98 130 165 205 248 298
#     4  10  19  33  52  78 107 133 164 204 253 302
#     4  10  20  33  49  71 100 133 168 209 256 305
#
# _framework density 17.336684000000002
#
# number of rings (size 3 to 8) (size 9 to 14) (size 15 to 20)
#    0.000    2.154    0.769    3.231    0.000    3.385 
#    0.000    1.923    0.000    0.923    0.000    5.385 
#    0.000    0.000    0.000    0.000    0.000    0.000 
#
# Total GULP energy -644260.859321 kJ/mol
# GULP energy per Si atom -12389.631910 kJ/mol
# Density = 1.729722 g / cm^3
# Si number density = 17.336684 Si / 1000 Ang^3
#
#
#
# Elastic Constant Matrix: (Units=GPa)
#
#
# Indices 1 2 3 4 5 6 
#
# 1 100.6402 37.5508 58.1357 0.0000 0.0000 0.0000
# 2 37.5508 79.4022 46.0608 0.0000 0.0000 0.0000
# 3 58.1357 46.0608 125.5880 0.0000 0.0000 0.0000
# 4 0.0000 0.0000 0.0000 22.1957 0.0000 0.0000
# 5 0.0000 0.0000 0.0000 0.0000 -4.9760 0.0000
# 6 0.0000 0.0000 0.0000 0.0000 0.0000 27.4262
#
#
#
# Elastic Compliance Matrix: (Units=1/GPa)
#
#
# Indices 1 2 3 4 5 6 
#
# 1 0.014385 -0.003735 -0.005289 0.000000 0.000000 0.000000
# 2 -0.003735 0.016967 -0.004494 0.000000 0.000000 0.000000
# 3 -0.005289 -0.004494 0.012059 0.000000 0.000000 0.000000
# 4 0.000000 0.000000 0.000000 0.045054 0.000000 0.000000
# 5 0.000000 0.000000 0.000000 0.000000 -0.200965 0.000000
# 6 0.000000 0.000000 0.000000 0.000000 0.000000 0.036461
#
#
# Mechanical properties :
#
#
# Convention : Reuss Voigt Hill
#
# Bulk Modulus (GPa) = 61.06663 65.45834 63.26249
# Shear Modulus (GPa) = -114.83057 19.85471 -47.48793
#
# Velocity S-wave (km/s) = -8.14736 3.38781 -5.23938
# Velocity P-wave (km/s) = 7.29421 7.28987 0.17791
#
# Compressibility (1/GPa) = 0.01637555
#
# Stress axis : x y z
#
# Youngs Moduli (GPa) = 69.51531 58.93661 82.92372
#
# Poissons Ratio (x) = 0.22012 0.43861
# Poissons Ratio (y) = 0.25963 0.37267
# Poissons Ratio (z) = 0.36769 0.26487
#
# Static dielectric constant tensor:
#      x y z
#    x 3.454050 0.000000 0.000000 
#    y 0.000000 3.283130 0.000000 
#    z 0.000000 0.000000 3.900670 
# 
# 
# High freq. dielectric constant tensor:
#      x y z
#    x 1.643250 0.000000 0.000000 
#    y 0.000000 1.680810 0.000000 
#    z 0.000000 0.000000 1.677420 
# 
# From -- ./inp_files/75876.got.cif
#   From: 2010.03.12/outbox.cif.g09.slc.cpg/sg65_38_cif.got.tgz:75876.got - 2010.04.10 20:52:16.
