data_PCOD8268408
_publ_section_title
;
Structure prediction by ZEFSAII (Michael W. Deem and Ramdas Pophale) SiO2 
 PCOD8268408
Probable space group: C M M M
;
_chemical_formula_sum "Si O2"
_cell_formula_units_Z 72
_cell_length_a 10.036631
_cell_length_b 22.702735
_cell_length_c 18.576219
_cell_angle_alpha 90.000000
_cell_angle_beta 90.000000
_cell_angle_gamma 90.000000
_cell_volume 4232.758200
_symmetry_space_group_name_H-M "C M M M"
_symmetry_group_IT_number 65
_symmetry_cell_setting 'orthorhombic'
loop_
_space_group_symop_operation_xyz
x,y,z
-x,-y,z
x,-y,-z
-x,y,-z
-x,-y,-z
x,y,-z
-x,y,z
x,-y,z
1/2+x,1/2+y,z
1/2-x,1/2-y,z
1/2+x,1/2-y,-z
1/2-x,1/2+y,-z
1/2-x,1/2-y,-z
1/2+x,1/2+y,-z
1/2-x,1/2+y,z
1/2+x,1/2-y,z
loop_
_atom_site_type_symbol
_atom_site_label
_atom_site_fract_x
_atom_site_fract_y
_atom_site_fract_z
Si Si1 0.000000 0.809103 0.082112
Si Si2 0.000000 0.330379 0.083797
Si Si3 0.844243 0.930749 0.295807
Si Si4 0.353233 0.500000 0.083772
Si Si5 0.764629 0.118851 0.853353
Si Si6 0.648568 0.930176 0.419944
O O1 0.000000 0.739483 0.087043
O O2 0.870709 0.833925 0.120385
O O3 0.000000 0.831062 0.000000
O O4 0.122820 0.354602 0.128680
O O5 0.000000 0.351192 0.000000
O O6 0.785841 0.892378 0.230875
O O7 0.762137 0.908182 0.365203
O O8 0.000000 0.917546 0.308410
O O9 0.820993 0.000000 0.279939
O O10 0.500000 0.500000 0.121903
O O11 0.273117 0.442628 0.105462
O O12 0.374414 0.500000 0.000000
O O13 0.681286 0.905707 0.500000
O O14 0.500000 0.908923 0.396145
O O15 0.650624 0.000000 0.421972
#
# Coordination Sequence:
#
# PCOD8268408 Si02
#       6
#     8   8  16   8  16  16
#     4  11  22  41  63  75  98 142 188 232 275 324
#     4  11  26  41  55  79 104 136 186 240 285 316
#     4  10  19  32  49  75 108 142 177 215 262 317
#     4  11  20  33  55  77 102 141 180 216 266 332
#     4  12  22  37  56  80 109 139 179 225 275 331
#     4   8  15  28  47  71 104 145 179 205 247 313
#
# _framework density 17.010185
#
# number of rings (size 3 to 8) (size 9 to 14) (size 15 to 20)
#    0.000    1.667    3.333    3.333    1.556    2.667 
#    0.000    3.333    0.000    0.000    0.000    0.000 
#    0.000    5.333    0.000    0.000    0.000    0.000 
#
# Total GULP energy -446343.194735 kJ/mol
# GULP energy per Si atom -12398.422076 kJ/mol
# Density = 1.697147 g / cm^3
# Si number density = 17.010185 Si / 1000 Ang^3
#
#
#
# Elastic Constant Matrix: (Units=GPa)
#
#
# Indices 1 2 3 4 5 6 
#
# 1 158.4990 37.8718 86.8338 0.0000 0.0000 0.0000
# 2 37.8718 54.9610 33.0345 0.0000 0.0000 0.0000
# 3 86.8338 33.0345 144.0183 0.0000 0.0000 0.0000
# 4 0.0000 0.0000 0.0000 28.8026 0.0000 0.0000
# 5 0.0000 0.0000 0.0000 0.0000 36.3326 0.0000
# 6 0.0000 0.0000 0.0000 0.0000 0.0000 -110.2231
#
#
#
# Elastic Compliance Matrix: (Units=1/GPa)
#
#
# Indices 1 2 3 4 5 6 
#
# 1 0.010066 -0.003814 -0.005194 0.000000 0.000000 0.000000
# 2 -0.003814 0.022550 -0.002873 0.000000 0.000000 0.000000
# 3 -0.005194 -0.002873 0.010734 0.000000 0.000000 0.000000
# 4 0.000000 0.000000 0.000000 0.034719 0.000000 0.000000
# 5 0.000000 0.000000 0.000000 0.000000 0.027523 0.000000
# 6 0.000000 0.000000 0.000000 0.000000 0.000000 -0.009073
#
#
# Mechanical properties :
#
#
# Convention : Reuss Voigt Hill
#
# Bulk Modulus (GPa) = 51.05244 74.77316 62.91280
# Shear Modulus (GPa) = 39.42835 4.29830 21.86332
#
# Velocity S-wave (km/s) = 4.81971 1.59135 3.58901
# Velocity P-wave (km/s) = 7.81350 6.88693 7.36480
#
# Compressibility (1/GPa) = 0.01958770
#
# Stress axis : x y z
#
# Youngs Moduli (GPa) = 99.34083 44.34670 93.15834
#
# Poissons Ratio (x) = 0.16915 0.48391
# Poissons Ratio (y) = 0.37891 0.26761
# Poissons Ratio (z) = 0.51602 0.12739
#
# Static dielectric constant tensor:
#      x y z
#    x 3.278680 0.000000 0.000000 
#    y 0.000000 2.906670 0.000000 
#    z 0.000000 0.000000 3.432690 
# 
# 
# High freq. dielectric constant tensor:
#      x y z
#    x 1.668520 0.000000 0.000000 
#    y 0.000000 1.619420 0.000000 
#    z 0.000000 0.000000 1.661050 
# 
# From -- ./inp_files/59356.got.cif
#   From: 2010.03.12/outbox.cif.g09.slc.cpg/sg65_30_cif.got.tgz:59356.got - 2010.04.10 20:52:16.
