data_PCOD8268943
_publ_section_title
;
Structure prediction by ZEFSAII (Michael W. Deem and Ramdas Pophale) SiO2 
 PCOD8268943
Probable space group: C M M M
;
_chemical_formula_sum "Si O2"
_cell_formula_units_Z 80
_cell_length_a 18.094190
_cell_length_b 9.297734
_cell_length_c 26.135943
_cell_angle_alpha 90.000000
_cell_angle_beta 90.000000
_cell_angle_gamma 90.000000
_cell_volume 4396.979471
_symmetry_space_group_name_H-M "C M M M"
_symmetry_group_IT_number 65
_symmetry_cell_setting 'orthorhombic'
loop_
_space_group_symop_operation_xyz
x,y,z
-x,-y,z
x,-y,-z
-x,y,-z
-x,-y,-z
x,y,-z
-x,y,z
x,-y,z
1/2+x,1/2+y,z
1/2-x,1/2-y,z
1/2+x,1/2-y,-z
1/2-x,1/2+y,-z
1/2-x,1/2-y,-z
1/2+x,1/2+y,-z
1/2-x,1/2+y,z
1/2+x,1/2-y,z
loop_
_atom_site_type_symbol
_atom_site_label
_atom_site_fract_x
_atom_site_fract_y
_atom_site_fract_z
Si Si1 0.587861 0.338555 0.904858
Si Si2 0.323032 0.337785 0.500000
Si Si3 0.912118 0.161683 0.791928
Si Si4 0.911634 0.661166 0.000000
Si Si5 0.671816 0.669417 0.611096
Si Si6 0.587802 0.162761 0.303839
O O1 0.500000 0.335054 0.906929
O O2 0.616017 0.500000 0.915186
O O3 0.614476 0.286905 0.848415
O O4 0.620622 0.236948 0.949092
O O5 0.295435 0.500000 0.500000
O O6 0.250000 0.250000 0.500000
O O7 0.364597 0.307159 0.553977
O O8 0.880821 0.270454 0.749163
O O9 0.000000 0.161081 0.790222
O O10 0.883109 0.000000 0.780845
O O11 0.881517 0.500000 0.000000
O O12 0.000000 0.666348 0.000000
O O13 0.682049 0.500000 0.623124
O O14 0.750000 0.750000 0.615999
O O15 0.614412 0.739232 0.649725
O O16 0.500000 0.164636 0.304176
O O17 0.617891 0.000000 0.308886
#
# Coordination Sequence:
#
# PCOD8268943 Si02
#       6
#    16   8  16   8  16  16
#     4   8  13  21  32  45  64  94 133 174 215 261
#     4   8  16  30  49  72  93 117 149 185 225 270
#     4   8  14  25  40  56  75 105 145 184 223 268
#     4   9  15  19  25  41  65  93 128 171 216 259
#     4  10  19  33  53  74  96 121 152 189 229 274
#     4  10  20  32  46  67  95 125 157 192 230 273
#
# _framework density 18.194307999999999
#
# number of rings (size 3 to 8) (size 9 to 14) (size 15 to 20)
#    0.000    3.100    0.000    2.700    0.000    4.000 
#    0.000    4.500    0.000    3.000    0.000    0.000 
#    0.000    0.000    0.000    0.900    0.000   12.800 
#
# Total GULP energy -495543.339700 kJ/mol
# GULP energy per Si atom -12388.583492 kJ/mol
# Density = 1.815290 g / cm^3
# Si number density = 18.194308 Si / 1000 Ang^3
#
#
#
# Elastic Constant Matrix: (Units=GPa)
#
#
# Indices 1 2 3 4 5 6 
#
# 1 8.7711 13.9236 15.7498 0.0000 0.0000 0.0000
# 2 13.9236 136.1941 98.7224 0.0000 0.0000 0.0000
# 3 15.7498 98.7224 186.6910 0.0000 0.0000 0.0000
# 4 0.0000 0.0000 0.0000 28.7605 0.0000 0.0000
# 5 0.0000 0.0000 0.0000 0.0000 -1.2548 0.0000
# 6 0.0000 0.0000 0.0000 0.0000 0.0000 16.7151
#
#
#
# Elastic Compliance Matrix: (Units=1/GPa)
#
#
# Indices 1 2 3 4 5 6 
#
# 1 0.141448 -0.009423 -0.006950 0.000000 0.000000 0.000000
# 2 -0.009423 0.012534 -0.005833 0.000000 0.000000 0.000000
# 3 -0.006950 -0.005833 0.009027 0.000000 0.000000 0.000000
# 4 0.000000 0.000000 0.000000 0.034770 0.000000 0.000000
# 5 0.000000 0.000000 0.000000 0.000000 -0.796958 0.000000
# 6 0.000000 0.000000 0.000000 0.000000 0.000000 0.059826
#
#
# Mechanical properties :
#
#
# Convention : Reuss Voigt Hill
#
# Bulk Modulus (GPa) = 8.43188 65.38309 36.90749
# Shear Modulus (GPa) = -10.97918 22.39485 5.70783
#
# Velocity S-wave (km/s) = -2.45917 3.51218 1.77312
# Velocity P-wave (km/s) = 1.84903 7.24302 4.95189
#
# Compressibility (1/GPa) = 0.11859749
#
# Stress axis : x y z
#
# Youngs Moduli (GPa) = 7.06972 79.78320 110.77509
#
# Poissons Ratio (x) = 0.75179 0.76991
# Poissons Ratio (y) = 0.06662 0.64616
# Poissons Ratio (z) = 0.04914 0.46538
#
# Static dielectric constant tensor:
#      x y z
#    x 2.539310 0.000000 0.000000 
#    y 0.000000 3.595710 0.000000 
#    z 0.000000 0.000000 4.087020 
# 
# 
# High freq. dielectric constant tensor:
#      x y z
#    x 1.619660 0.000000 0.000000 
#    y 0.000000 1.714350 0.000000 
#    z 0.000000 0.000000 1.731280 
# 
# From -- ./inp_files/70790.got.cif
#   From: 2010.03.12/outbox.cif.g09.slc.cpg/sg65_36_cif.got.tgz:70790.got - 2010.04.10 20:52:16.
