data_PCOD8268628
_publ_section_title
;
Structure prediction by ZEFSAII (Michael W. Deem and Ramdas Pophale) SiO2 
 PCOD8268628
Probable space group: C M M M
;
_chemical_formula_sum "Si O2"
_cell_formula_units_Z 80
_cell_length_a 8.603621
_cell_length_b 27.547689
_cell_length_c 18.832978
_cell_angle_alpha 90.000000
_cell_angle_beta 90.000000
_cell_angle_gamma 90.000000
_cell_volume 4463.601773
_symmetry_space_group_name_H-M "C M M M"
_symmetry_group_IT_number 65
_symmetry_cell_setting 'orthorhombic'
loop_
_space_group_symop_operation_xyz
x,y,z
-x,-y,z
x,-y,-z
-x,y,-z
-x,-y,-z
x,y,-z
-x,y,z
x,-y,z
1/2+x,1/2+y,z
1/2-x,1/2-y,z
1/2+x,1/2-y,-z
1/2-x,1/2+y,-z
1/2-x,1/2-y,-z
1/2+x,1/2+y,-z
1/2-x,1/2+y,z
1/2+x,1/2-y,z
loop_
_atom_site_type_symbol
_atom_site_label
_atom_site_fract_x
_atom_site_fract_y
_atom_site_fract_z
Si Si1 0.318845 0.444739 0.795361
Si Si2 0.683288 0.801445 0.579142
Si Si3 0.817117 0.198368 0.159953
Si Si4 0.816551 0.359855 0.287287
Si Si5 0.180530 0.612243 0.080426
O O1 0.500000 0.436167 0.808866
O O2 0.280743 0.500000 0.774974
O O3 0.264110 0.411122 0.730125
O O4 0.229705 0.431405 0.867780
O O5 0.743550 0.815129 0.500000
O O6 0.500000 0.796258 0.580103
O O7 0.750000 0.750000 0.604143
O O8 0.736216 0.843217 0.634017
O O9 0.750000 0.250000 0.136702
O O10 0.736225 0.181390 0.232489
O O11 0.778518 0.160463 0.097581
O O12 0.000000 0.201574 0.171928
O O13 0.000000 0.366725 0.281717
O O14 0.000000 0.624089 0.092308
O O15 0.215162 0.595953 0.000000
#
# Coordination Sequence:
#
# PCOD8268628 Si02
#       5
#    16  16  16  16  16
#     4  10  21  36  54  75  98 126 162 204 249 297
#     4   9  18  31  48  74 106 137 167 198 236 284
#     4  11  21  33  50  71  99 133 168 204 242 289
#     4  10  19  32  52  75 100 130 165 206 247 290
#     4  10  21  36  53  74  99 126 160 202 247 296
#
# _framework density 17.922746
#
# number of rings (size 3 to 8) (size 9 to 14) (size 15 to 20)
#    0.000    2.000    0.000    6.600    0.000    7.200 
#    0.000    2.000    0.000    0.600    0.000    4.200 
#    0.000    0.000    0.000    0.000    0.000    0.000 
#
# Total GULP energy -496040.963817 kJ/mol
# GULP energy per Si atom -12401.024095 kJ/mol
# Density = 1.788195 g / cm^3
# Si number density = 17.922746 Si / 1000 Ang^3
#
#
#
# Elastic Constant Matrix: (Units=GPa)
#
#
# Indices 1 2 3 4 5 6 
#
# 1 45.9487 31.8728 25.0871 0.0000 0.0000 0.0000
# 2 31.8728 120.1129 59.1687 0.0000 0.0000 0.0000
# 3 25.0871 59.1687 122.7746 0.0000 0.0000 0.0000
# 4 0.0000 0.0000 0.0000 27.6445 0.0000 0.0000
# 5 0.0000 0.0000 0.0000 0.0000 20.0299 0.0000
# 6 0.0000 0.0000 0.0000 0.0000 0.0000 30.7326
#
#
#
# Elastic Compliance Matrix: (Units=1/GPa)
#
#
# Indices 1 2 3 4 5 6 
#
# 1 0.027360 -0.005909 -0.002743 0.000000 0.000000 0.000000
# 2 -0.005909 0.012193 -0.004669 0.000000 0.000000 0.000000
# 3 -0.002743 -0.004669 0.010956 0.000000 0.000000 0.000000
# 4 0.000000 0.000000 0.000000 0.036174 0.000000 0.000000
# 5 0.000000 0.000000 0.000000 0.000000 0.049925 0.000000
# 6 0.000000 0.000000 0.000000 0.000000 0.000000 0.032539
#
#
# Mechanical properties :
#
#
# Convention : Reuss Voigt Hill
#
# Bulk Modulus (GPa) = 41.89844 57.89927 49.89885
# Shear Modulus (GPa) = 24.54062 27.19524 25.86793
#
# Velocity S-wave (km/s) = 3.70434 3.89956 3.80320
# Velocity P-wave (km/s) = 6.45943 7.25606 6.86930
#
# Compressibility (1/GPa) = 0.02386724
#
# Stress axis : x y z
#
# Youngs Moduli (GPa) = 36.55004 82.01109 91.27765
#
# Poissons Ratio (x) = 0.48460 0.25036
# Poissons Ratio (y) = 0.21597 0.42617
# Poissons Ratio (z) = 0.10025 0.38291
#
# Static dielectric constant tensor:
#      x y z
#    x 3.432920 0.000000 0.000000 
#    y 0.000000 3.489710 0.000000 
#    z 0.000000 0.000000 3.491530 
# 
# 
# High freq. dielectric constant tensor:
#      x y z
#    x 1.707900 0.000000 0.000000 
#    y 0.000000 1.682360 0.000000 
#    z 0.000000 0.000000 1.686210 
# 
# From -- ./inp_files/49877.got.cif
#   From: 2010.03.12/outbox.cif.g09.slc.cpg/sg65_25_cif.got.tgz:49877.got - 2010.04.10 20:52:16.
