data_PCOD8268691
_publ_section_title
;
Structure prediction by ZEFSAII (Michael W. Deem and Ramdas Pophale) SiO2 
 PCOD8268691
Probable space group: C M M M
;
_chemical_formula_sum "Si O2"
_cell_formula_units_Z 72
_cell_length_a 22.084184
_cell_length_b 19.078516
_cell_length_c 9.488419
_cell_angle_alpha 90.000000
_cell_angle_beta 90.000000
_cell_angle_gamma 90.000000
_cell_volume 3997.788386
_symmetry_space_group_name_H-M "C M M M"
_symmetry_group_IT_number 65
_symmetry_cell_setting 'orthorhombic'
loop_
_space_group_symop_operation_xyz
x,y,z
-x,-y,z
x,-y,-z
-x,y,-z
-x,-y,-z
x,y,-z
-x,y,z
x,-y,z
1/2+x,1/2+y,z
1/2-x,1/2-y,z
1/2+x,1/2-y,-z
1/2-x,1/2+y,-z
1/2-x,1/2-y,-z
1/2+x,1/2+y,-z
1/2-x,1/2+y,z
1/2+x,1/2-y,z
loop_
_atom_site_type_symbol
_atom_site_label
_atom_site_fract_x
_atom_site_fract_y
_atom_site_fract_z
Si Si1 0.000000 0.577891 0.332838
Si Si2 0.430553 0.705679 0.163925
Si Si3 0.347134 0.579187 0.162160
Si Si4 0.113736 0.332843 0.666487
Si Si5 0.731135 0.080427 0.663624
O O1 0.059196 0.618303 0.279506
O O2 0.000000 0.500000 0.267131
O O3 0.000000 0.572745 0.500000
O O4 0.500000 0.706893 0.215257
O O5 0.404628 0.628194 0.193222
O O6 0.390356 0.759321 0.253629
O O7 0.425501 0.725625 0.000000
O O8 0.365725 0.500000 0.204382
O O9 0.289896 0.605272 0.251715
O O10 0.327484 0.583541 0.000000
O O11 0.109693 0.319318 0.500000
O O12 0.175768 0.370539 0.709615
O O13 0.745865 0.089721 0.500000
O O14 0.714015 0.000000 0.698511
#
# Coordination Sequence:
#
# PCOD8268691 Si02
#       5
#     8  16  16  16  16
#     4   9  16  28  49  75 100 131 172 210 241 283
#     4  10  21  36  53  74 103 135 168 213 261 303
#     4   9  19  36  56  76  98 130 172 213 257 308
#     4  10  19  32  52  77 104 136 171 207 249 301
#     4   9  18  33  53  78 106 134 168 211 254 296
#
# _framework density 18.009958000000001
#
# number of rings (size 3 to 8) (size 9 to 14) (size 15 to 20)
#    0.000    2.556    1.111    0.667    0.000    5.778 
#    0.000    6.667    0.000    2.667    0.000    4.667 
#    0.000    0.000    0.000    0.000    0.000    0.000 
#
# Total GULP energy -446470.584281 kJ/mol
# GULP energy per Si atom -12401.960674 kJ/mol
# Density = 1.796897 g / cm^3
# Si number density = 18.009958 Si / 1000 Ang^3
#
#
#
# Elastic Constant Matrix: (Units=GPa)
#
#
# Indices 1 2 3 4 5 6 
#
# 1 98.5410 55.0677 39.0589 0.0000 0.0000 0.0000
# 2 55.0677 105.8511 37.7643 0.0000 0.0000 0.0000
# 3 39.0589 37.7643 40.3409 0.0000 0.0000 0.0000
# 4 0.0000 0.0000 0.0000 28.6513 0.0000 0.0000
# 5 0.0000 0.0000 0.0000 0.0000 28.3269 0.0000
# 6 0.0000 0.0000 0.0000 0.0000 0.0000 32.7123
#
#
#
# Elastic Compliance Matrix: (Units=1/GPa)
#
#
# Indices 1 2 3 4 5 6 
#
# 1 0.017900 -0.004698 -0.012933 0.000000 0.000000 0.000000
# 2 -0.004698 0.015418 -0.009884 0.000000 0.000000 0.000000
# 3 -0.012933 -0.009884 0.046564 0.000000 0.000000 0.000000
# 4 0.000000 0.000000 0.000000 0.034902 0.000000 0.000000
# 5 0.000000 0.000000 0.000000 0.000000 0.035302 0.000000
# 6 0.000000 0.000000 0.000000 0.000000 0.000000 0.030570
#
#
# Mechanical properties :
#
#
# Convention : Reuss Voigt Hill
#
# Bulk Modulus (GPa) = 40.24042 56.50166 48.37104
# Shear Modulus (GPa) = 20.49441 25.46092 22.97766
#
# Velocity S-wave (km/s) = 3.37701 3.76402 3.57575
# Velocity P-wave (km/s) = 6.13168 7.09443 6.63055
#
# Compressibility (1/GPa) = 0.02485064
#
# Stress axis : x y z
#
# Youngs Moduli (GPa) = 55.86680 64.86040 21.47601
#
# Poissons Ratio (x) = 0.30472 0.27775
# Poissons Ratio (y) = 0.26247 0.21227
# Poissons Ratio (z) = 0.72252 0.64110
#
# Static dielectric constant tensor:
#      x y z
#    x 3.357280 0.000000 0.000000 
#    y 0.000000 3.406320 0.000000 
#    z 0.000000 0.000000 3.157080 
# 
# 
# High freq. dielectric constant tensor:
#      x y z
#    x 1.698990 0.000000 0.000000 
#    y 0.000000 1.702190 0.000000 
#    z 0.000000 0.000000 1.678420 
# 
# From -- ./inp_files/9212.got.cif
#   From: 2010.03.12/outbox.cif.g09.slc.cpg/sg65_5_cif.got.tgz:9212.got - 2010.04.10 20:52:16.
