data_PCOD8268659
_publ_section_title
;
Structure prediction by ZEFSAII (Michael W. Deem and Ramdas Pophale) SiO2 
 PCOD8268659
Probable space group: C M M M
;
_chemical_formula_sum "Si O2"
_cell_formula_units_Z 104
_cell_length_a 25.612691
_cell_length_b 17.377584
_cell_length_c 14.034855
_cell_angle_alpha 90.000000
_cell_angle_beta 90.000000
_cell_angle_gamma 90.000000
_cell_volume 6246.727147
_symmetry_space_group_name_H-M "C M M M"
_symmetry_group_IT_number 65
_symmetry_cell_setting 'orthorhombic'
loop_
_space_group_symop_operation_xyz
x,y,z
-x,-y,z
x,-y,-z
-x,y,-z
-x,-y,-z
x,y,-z
-x,y,z
x,-y,z
1/2+x,1/2+y,z
1/2-x,1/2-y,z
1/2+x,1/2-y,-z
1/2-x,1/2+y,-z
1/2-x,1/2-y,-z
1/2+x,1/2+y,-z
1/2-x,1/2+y,z
1/2+x,1/2-y,z
loop_
_atom_site_type_symbol
_atom_site_label
_atom_site_fract_x
_atom_site_fract_y
_atom_site_fract_z
Si Si1 0.619614 0.152537 0.389110
Si Si2 0.440780 0.000000 0.613087
Si Si3 0.356152 0.675670 0.108623
Si Si4 0.197717 0.296055 0.237793
Si Si5 0.438590 0.308569 0.394659
Si Si6 0.938688 0.910799 0.779359
Si Si7 0.248349 0.085803 0.891402
O O1 0.634181 0.144304 0.500000
O O2 0.590014 0.076064 0.351737
O O3 0.673221 0.166647 0.332276
O O4 0.582768 0.224910 0.368538
O O5 0.500000 0.000000 0.654799
O O6 0.444152 0.000000 0.500000
O O7 0.344596 0.744614 0.181750
O O8 0.409949 0.633061 0.134884
O O9 0.310642 0.613713 0.118871
O O10 0.360005 0.706590 0.000000
O O11 0.250000 0.250000 0.266986
O O12 0.211354 0.364424 0.167367
O O13 0.419312 0.334140 0.500000
O O14 0.500000 0.300562 0.392077
O O15 0.419802 0.373370 0.320482
O O16 0.000000 0.899852 0.796056
O O17 0.922961 0.000000 0.777193
O O18 0.250622 0.000000 0.850959
O O19 0.266914 0.090451 0.000000
#
# Coordination Sequence:
#
# PCOD8268659 Si02
#       7
#    16   8  16  16  16  16  16
#     4  10  19  32  52  76 103 134 166 200 250 306
#     4   9  18  32  52  80 107 129 163 213 257 298
#     4  10  19  34  52  71  98 131 165 205 253 295
#     4  10  20  33  50  74 100 132 168 209 247 293
#     4   9  17  31  51  72  96 128 165 204 245 293
#     4  10  20  32  48  73 101 128 164 205 246 297
#     4   9  18  32  52  75  96 123 163 208 249 291
#
# _framework density 16.648717999999999
#
# number of rings (size 3 to 8) (size 9 to 14) (size 15 to 20)
#    0.000    2.385    1.538    1.385    1.077    5.538 
#    0.000    2.308    0.000    0.000    0.000    0.000 
#    0.000    1.231    0.000    0.000    0.000    0.000 
#
# Total GULP energy -644730.212124 kJ/mol
# GULP energy per Si atom -12398.657925 kJ/mol
# Density = 1.661082 g / cm^3
# Si number density = 16.648718 Si / 1000 Ang^3
#
#
#
# Elastic Constant Matrix: (Units=GPa)
#
#
# Indices 1 2 3 4 5 6 
#
# 1 56.5236 48.6142 46.5427 0.0000 0.0000 0.0000
# 2 48.6142 96.8741 43.4231 0.0000 0.0000 0.0000
# 3 46.5427 43.4231 72.9152 0.0000 0.0000 0.0000
# 4 0.0000 0.0000 0.0000 24.1290 0.0000 0.0000
# 5 0.0000 0.0000 0.0000 0.0000 25.4102 0.0000
# 6 0.0000 0.0000 0.0000 0.0000 0.0000 22.7869
#
#
#
# Elastic Compliance Matrix: (Units=1/GPa)
#
#
# Indices 1 2 3 4 5 6 
#
# 1 0.048389 -0.014239 -0.022408 0.000000 0.000000 0.000000
# 2 -0.014239 0.018272 -0.001792 0.000000 0.000000 0.000000
# 3 -0.022408 -0.001792 0.029085 0.000000 0.000000 0.000000
# 4 0.000000 0.000000 0.000000 0.041444 0.000000 0.000000
# 5 0.000000 0.000000 0.000000 0.000000 0.039354 0.000000
# 6 0.000000 0.000000 0.000000 0.000000 0.000000 0.043885
#
#
# Mechanical properties :
#
#
# Convention : Reuss Voigt Hill
#
# Bulk Modulus (GPa) = 53.00036 55.94144 54.47090
# Shear Modulus (GPa) = 16.46923 20.31408 18.39165
#
# Velocity S-wave (km/s) = 3.14860 3.49687 3.32729
# Velocity P-wave (km/s) = 6.71728 7.06952 6.89565
#
# Compressibility (1/GPa) = 0.01886780
#
# Stress axis : x y z
#
# Youngs Moduli (GPa) = 20.66574 54.72970 34.38185
#
# Poissons Ratio (x) = 0.77930 0.77042
# Poissons Ratio (y) = 0.29426 0.06162
# Poissons Ratio (z) = 0.46307 0.09809
#
# Static dielectric constant tensor:
#      x y z
#    x 3.006010 0.000000 0.000000 
#    y 0.000000 3.265100 0.000000 
#    z 0.000000 0.000000 3.172980 
# 
# 
# High freq. dielectric constant tensor:
#      x y z
#    x 1.631420 0.000000 0.000000 
#    y 0.000000 1.648880 0.000000 
#    z 0.000000 0.000000 1.632070 
# 
# From -- ./inp_files/27506.got.cif
#   From: 2010.03.12/outbox.cif.g09.slc.cpg/sg65_14_cif.got.tgz:27506.got - 2010.04.10 20:52:16.
