data_PCOD8268592
_publ_section_title
;
Structure prediction by ZEFSAII (Michael W. Deem and Ramdas Pophale) SiO2 
 PCOD8268592
Probable space group: C M M M
;
_chemical_formula_sum "Si O2"
_cell_formula_units_Z 88
_cell_length_a 19.058497
_cell_length_b 19.818203
_cell_length_c 13.168234
_cell_angle_alpha 90.000000
_cell_angle_beta 90.000000
_cell_angle_gamma 90.000000
_cell_volume 4973.709962
_symmetry_space_group_name_H-M "C M M M"
_symmetry_group_IT_number 65
_symmetry_cell_setting 'orthorhombic'
loop_
_space_group_symop_operation_xyz
x,y,z
-x,-y,z
x,-y,-z
-x,y,-z
-x,-y,-z
x,y,-z
-x,y,z
x,-y,z
1/2+x,1/2+y,z
1/2-x,1/2-y,z
1/2+x,1/2-y,-z
1/2-x,1/2+y,-z
1/2-x,1/2-y,-z
1/2+x,1/2+y,-z
1/2-x,1/2+y,z
1/2+x,1/2-y,z
loop_
_atom_site_type_symbol
_atom_site_label
_atom_site_fract_x
_atom_site_fract_y
_atom_site_fract_z
Si Si1 0.788615 0.075601 0.230783
Si Si2 0.297472 0.185114 0.119560
Si Si3 0.919304 0.750095 0.779067
Si Si4 0.577498 0.609297 0.119051
Si Si5 0.500000 0.425557 0.620178
Si Si6 0.365436 0.341377 0.380441
O O1 0.735585 0.115445 0.158508
O O2 0.862956 0.066666 0.174414
O O3 0.798013 0.119207 0.335060
O O4 0.760412 0.000000 0.255185
O O5 0.250000 0.250000 0.149629
O O6 0.374173 0.190053 0.171505
O O7 0.306494 0.179515 0.000000
O O8 0.913014 0.811649 0.857838
O O9 0.881143 0.769327 0.671882
O O10 0.000000 0.727249 0.761658
O O11 0.500000 0.585140 0.156461
O O12 0.585300 0.598090 0.000000
O O13 0.500000 0.500000 0.667349
O O14 0.500000 0.429433 0.500000
O O15 0.568414 0.385951 0.655907
O O16 0.356180 0.331714 0.500000
#
# Coordination Sequence:
#
# PCOD8268592 Si02
#       6
#    16  16  16  16   8  16
#     4  11  23  35  50  74 106 143 181 221 267 319
#     4  11  21  36  56  77 104 139 180 223 273 334
#     4  10  19  33  54  78 103 134 176 224 272 321
#     4   9  17  29  46  70 100 133 168 205 251 313
#     4   9  16  26  42  66  99 143 182 207 241 295
#     4  10  19  32  51  76 108 145 180 215 257 313
#
# _framework density 17.69303
#
# number of rings (size 3 to 8) (size 9 to 14) (size 15 to 20)
#    0.000    1.909    4.545    1.636    1.273    4.000 
#    0.000    2.727    0.000    0.545    0.000    1.273 
#    0.000    0.000    0.000    3.273    0.000    0.000 
#
# Total GULP energy -545472.675522 kJ/mol
# GULP energy per Si atom -12397.106262 kJ/mol
# Density = 1.765276 g / cm^3
# Si number density = 17.693030 Si / 1000 Ang^3
#
#
#
# Elastic Constant Matrix: (Units=GPa)
#
#
# Indices 1 2 3 4 5 6 
#
# 1 70.8634 46.5234 45.3359 0.0000 0.0000 0.0000
# 2 46.5234 61.8628 32.2313 0.0000 0.0000 0.0000
# 3 45.3359 32.2313 95.3505 0.0000 0.0000 0.0000
# 4 0.0000 0.0000 0.0000 15.3242 0.0000 0.0000
# 5 0.0000 0.0000 0.0000 0.0000 23.9977 0.0000
# 6 0.0000 0.0000 0.0000 0.0000 0.0000 18.9561
#
#
#
# Elastic Compliance Matrix: (Units=1/GPa)
#
#
# Indices 1 2 3 4 5 6 
#
# 1 0.033101 -0.020262 -0.008889 0.000000 0.000000 0.000000
# 2 -0.020262 0.032023 -0.001191 0.000000 0.000000 0.000000
# 3 -0.008889 -0.001191 0.015117 0.000000 0.000000 0.000000
# 4 0.000000 0.000000 0.000000 0.065256 0.000000 0.000000
# 5 0.000000 0.000000 0.000000 0.000000 0.041671 0.000000
# 6 0.000000 0.000000 0.000000 0.000000 0.000000 0.052753
#
#
# Mechanical properties :
#
#
# Convention : Reuss Voigt Hill
#
# Bulk Modulus (GPa) = 51.13353 52.91756 52.02554
# Shear Modulus (GPa) = 16.28001 18.58800 17.43400
#
# Velocity S-wave (km/s) = 3.03667 3.24479 3.14245
# Velocity P-wave (km/s) = 6.42326 6.63414 6.52955
#
# Compressibility (1/GPa) = 0.01955664
#
# Stress axis : x y z
#
# Youngs Moduli (GPa) = 30.21031 31.22734 66.15182
#
# Poissons Ratio (x) = 0.63273 0.58805
# Poissons Ratio (y) = 0.61212 0.07878
# Poissons Ratio (z) = 0.26855 0.03719
#
# Static dielectric constant tensor:
#      x y z
#    x 3.332030 0.000000 0.000000 
#    y 0.000000 2.953170 0.000000 
#    z 0.000000 0.000000 3.311040 
# 
# 
# High freq. dielectric constant tensor:
#      x y z
#    x 1.661550 0.000000 0.000000 
#    y 0.000000 1.641850 0.000000 
#    z 0.000000 0.000000 1.697770 
# 
# From -- ./inp_files/42718.got.cif
#   From: 2010.03.12/outbox.cif.g09.slc.cpg/sg65_22_cif.got.tgz:42718.got - 2010.04.10 20:52:16.
