data_PCOD8268022
_publ_section_title
;
Structure prediction by ZEFSAII (Michael W. Deem and Ramdas Pophale) SiO2 
 PCOD8268022
Probable space group: C M M M
;
_chemical_formula_sum "Si O2"
_cell_formula_units_Z 88
_cell_length_a 28.424891
_cell_length_b 18.258824
_cell_length_c 9.581113
_cell_angle_alpha 90.000000
_cell_angle_beta 90.000000
_cell_angle_gamma 90.000000
_cell_volume 4972.646338
_symmetry_space_group_name_H-M "C M M M"
_symmetry_group_IT_number 65
_symmetry_cell_setting 'orthorhombic'
loop_
_space_group_symop_operation_xyz
x,y,z
-x,-y,z
x,-y,-z
-x,y,-z
-x,-y,-z
x,y,-z
-x,y,z
x,-y,z
1/2+x,1/2+y,z
1/2-x,1/2-y,z
1/2+x,1/2-y,-z
1/2-x,1/2+y,-z
1/2-x,1/2-y,-z
1/2+x,1/2+y,-z
1/2-x,1/2+y,z
1/2+x,1/2-y,z
loop_
_atom_site_type_symbol
_atom_site_label
_atom_site_fract_x
_atom_site_fract_y
_atom_site_fract_z
Si Si1 0.795873 0.916298 0.338636
Si Si2 0.118670 0.131964 0.838315
Si Si3 0.052982 0.000000 0.834478
Si Si4 0.447586 0.918741 0.165643
Si Si5 0.213759 0.315087 0.342496
Si Si6 0.622221 0.203493 0.837849
O O1 0.809408 0.903652 0.500000
O O2 0.833066 0.872664 0.246174
O O3 0.742837 0.889071 0.310323
O O4 0.798122 0.000000 0.293885
O O5 0.080267 0.073175 0.782530
O O6 0.100315 0.215113 0.816586
O O7 0.129727 0.115909 0.000000
O O8 0.000000 0.000000 0.771384
O O9 0.049703 0.000000 0.000000
O O10 0.500000 0.905842 0.225501
O O11 0.413767 0.855882 0.226940
O O12 0.429648 0.000000 0.209932
O O13 0.449127 0.912691 0.000000
O O14 0.193681 0.315139 0.500000
O O15 0.250000 0.250000 0.320368
O O16 0.171587 0.306944 0.236467
O O17 0.631362 0.188211 0.000000
#
# Coordination Sequence:
#
# PCOD8268022 Si02
#       6
#    16  16   8  16  16  16
#     4  10  20  34  52  71  93 129 174 208 239 293
#     4  10  19  31  49  73 100 130 165 206 251 296
#     4   9  18  32  49  71 101 133 163 203 256 303
#     4   8  15  30  51  74 103 136 166 201 251 306
#     4  10  20  34  50  70  98 134 168 200 248 301
#     4  10  20  31  50  80 105 128 167 214 251 291
#
# _framework density 17.696814
#
# number of rings (size 3 to 8) (size 9 to 14) (size 15 to 20)
#    0.000    2.455    2.727    0.545    0.000    2.545 
#    0.000    3.636    0.000    1.636    0.000    3.818 
#    0.000    0.000    0.000    0.000    0.000    0.000 
#
# Total GULP energy -545458.388472 kJ/mol
# GULP energy per Si atom -12396.781556 kJ/mol
# Density = 1.765654 g / cm^3
# Si number density = 17.696814 Si / 1000 Ang^3
#
#
#
# Elastic Constant Matrix: (Units=GPa)
#
#
# Indices 1 2 3 4 5 6 
#
# 1 100.3750 61.2631 34.2583 0.0000 0.0000 0.0000
# 2 61.2631 129.7401 33.4488 0.0000 0.0000 0.0000
# 3 34.2583 33.4488 37.0177 0.0000 0.0000 0.0000
# 4 0.0000 0.0000 0.0000 16.9627 0.0000 0.0000
# 5 0.0000 0.0000 0.0000 0.0000 -5.4415 0.0000
# 6 0.0000 0.0000 0.0000 0.0000 0.0000 17.8286
#
#
#
# Elastic Compliance Matrix: (Units=1/GPa)
#
#
# Indices 1 2 3 4 5 6 
#
# 1 0.016824 -0.005124 -0.010940 0.000000 0.000000 0.000000
# 2 -0.005124 0.011609 -0.005748 0.000000 0.000000 0.000000
# 3 -0.010940 -0.005748 0.042332 0.000000 0.000000 0.000000
# 4 0.000000 0.000000 0.000000 0.058953 0.000000 0.000000
# 5 0.000000 0.000000 0.000000 0.000000 -0.183771 0.000000
# 6 0.000000 0.000000 0.000000 0.000000 0.000000 0.056090
#
#
# Mechanical properties :
#
#
# Convention : Reuss Voigt Hill
#
# Bulk Modulus (GPa) = 36.84343 58.34146 47.59244
# Shear Modulus (GPa) = 91.39593 15.08078 53.23835
#
# Velocity S-wave (km/s) = 7.19427 2.92237 5.49080
# Velocity P-wave (km/s) = 9.48022 6.66527 8.19452
#
# Compressibility (1/GPa) = 0.02714188
#
# Stress axis : x y z
#
# Youngs Moduli (GPa) = 59.44014 86.13986 23.62252
#
# Poissons Ratio (x) = 0.44135 0.25843
# Poissons Ratio (y) = 0.30455 0.13578
# Poissons Ratio (z) = 0.65027 0.49514
#
# Static dielectric constant tensor:
#      x y z
#    x 3.529760 0.000000 0.000000 
#    y 0.000000 3.703160 0.000000 
#    z 0.000000 0.000000 2.971140 
# 
# 
# High freq. dielectric constant tensor:
#      x y z
#    x 1.673890 0.000000 0.000000 
#    y 0.000000 1.703840 0.000000 
#    z 0.000000 0.000000 1.649240 
# 
# From -- ./inp_files/10167.got.cif
#   From: 2010.03.12/outbox.cif.g09.slc.cpg/sg65_6_cif.got.tgz:10167.got - 2010.04.10 20:52:16.
