data_PCOD8268862
_publ_section_title
;
Structure prediction by ZEFSAII (Michael W. Deem and Ramdas Pophale) SiO2 
 PCOD8268862
Probable space group: C M M M
;
_chemical_formula_sum "Si O2"
_cell_formula_units_Z 120
_cell_length_a 28.055783
_cell_length_b 26.848831
_cell_length_c 8.965373
_cell_angle_alpha 90.000000
_cell_angle_beta 90.000000
_cell_angle_gamma 90.000000
_cell_volume 6753.301481
_symmetry_space_group_name_H-M "C M M M"
_symmetry_group_IT_number 65
_symmetry_cell_setting 'orthorhombic'
loop_
_space_group_symop_operation_xyz
x,y,z
-x,-y,z
x,-y,-z
-x,y,-z
-x,-y,-z
x,y,-z
-x,y,z
x,-y,z
1/2+x,1/2+y,z
1/2-x,1/2-y,z
1/2+x,1/2-y,-z
1/2-x,1/2+y,-z
1/2-x,1/2-y,-z
1/2+x,1/2+y,-z
1/2-x,1/2+y,z
1/2+x,1/2-y,z
loop_
_atom_site_type_symbol
_atom_site_label
_atom_site_fract_x
_atom_site_fract_y
_atom_site_fract_z
Si Si1 0.286977 0.442385 0.668731
Si Si2 0.805136 0.742096 0.675667
Si Si3 0.642391 0.847040 0.823275
Si Si4 0.054102 0.000000 0.322637
Si Si5 0.947732 0.290224 0.175604
Si Si6 0.308634 0.054958 0.175441
Si Si7 0.114615 0.802405 0.176454
Si Si8 0.111465 0.095925 0.676144
O O1 0.272290 0.429751 0.500000
O O2 0.300373 0.500000 0.685990
O O3 0.243087 0.426712 0.771800
O O4 0.333251 0.411823 0.717356
O O5 0.814479 0.742853 0.500000
O O6 0.750000 0.750000 0.714672
O O7 0.820517 0.688875 0.741224
O O8 0.835204 0.786852 0.749654
O O9 0.588268 0.834225 0.773514
O O10 0.652392 0.904164 0.774994
O O11 0.649061 0.838824 0.000000
O O12 0.080417 0.950437 0.263090
O O13 0.056283 0.000000 0.500000
O O14 0.000000 0.000000 0.263381
O O15 0.925478 0.237517 0.223486
O O16 0.000000 0.297290 0.250666
O O17 0.953692 0.291891 0.000000
O O18 0.321067 0.000000 0.243186
O O19 0.306856 0.050990 0.000000
O O20 0.095164 0.854611 0.238614
O O21 0.121817 0.804922 0.000000
O O22 0.104171 0.102519 0.500000
#
# Coordination Sequence:
#
# PCOD8268862 Si02
#       8
#    16  16  16   8  16  16  16  16
#     4   9  17  30  47  66  91 128 169 203 238 283
#     4  10  21  35  50  71 100 134 167 204 251 300
#     4   9  18  32  51  75 101 132 167 203 245 294
#     4   9  18  34  55  75  97 133 177 221 270 313
#     4   8  15  31  53  72  92 123 164 204 244 293
#     4   9  18  31  47  72 105 136 165 199 240 287
#     4  10  21  34  50  74 100 129 165 206 254 305
#     4  10  19  33  51  71  98 129 167 214 256 302
#
# _framework density 17.769086999999999
#
# number of rings (size 3 to 8) (size 9 to 14) (size 15 to 20)
#    0.000    2.733    0.667    1.600    1.867    2.667 
#    0.000    0.333    0.000   10.400    0.000    2.800 
#    0.000    0.000    0.000    8.133    0.000    8.800 
#
# Total GULP energy -743807.580406 kJ/mol
# GULP energy per Si atom -12396.793007 kJ/mol
# Density = 1.772864 g / cm^3
# Si number density = 17.769087 Si / 1000 Ang^3
#
#
#
# Elastic Constant Matrix: (Units=GPa)
#
#
# Indices 1 2 3 4 5 6 
#
# 1 133.5709 77.5615 30.8765 0.0000 0.0000 0.0000
# 2 77.5615 133.2334 32.9996 0.0000 0.0000 0.0000
# 3 30.8765 32.9996 33.3553 0.0000 0.0000 0.0000
# 4 0.0000 0.0000 0.0000 24.9844 0.0000 0.0000
# 5 0.0000 0.0000 0.0000 0.0000 13.9756 0.0000
# 6 0.0000 0.0000 0.0000 0.0000 0.0000 19.5562
#
#
#
# Elastic Compliance Matrix: (Units=1/GPa)
#
#
# Indices 1 2 3 4 5 6 
#
# 1 0.012046 -0.005630 -0.005581 0.000000 0.000000 0.000000
# 2 -0.005630 0.012573 -0.007227 0.000000 0.000000 0.000000
# 3 -0.005581 -0.007227 0.042296 0.000000 0.000000 0.000000
# 4 0.000000 0.000000 0.000000 0.040025 0.000000 0.000000
# 5 0.000000 0.000000 0.000000 0.000000 0.071553 0.000000
# 6 0.000000 0.000000 0.000000 0.000000 0.000000 0.051135
#
#
# Mechanical properties :
#
#
# Convention : Reuss Voigt Hill
#
# Bulk Modulus (GPa) = 33.28972 64.78165 49.03569
# Shear Modulus (GPa) = 18.08195 22.28470 20.18333
#
# Velocity S-wave (km/s) = 3.19346 3.54521 3.37392
# Velocity P-wave (km/s) = 5.68971 7.30032 6.54475
#
# Compressibility (1/GPa) = 0.03003930
#
# Stress axis : x y z
#
# Youngs Moduli (GPa) = 83.01429 79.53265 23.64263
#
# Poissons Ratio (x) = 0.44780 0.13194
# Poissons Ratio (y) = 0.46740 0.17087
# Poissons Ratio (z) = 0.46327 0.57481
#
# Static dielectric constant tensor:
#      x y z
#    x 3.475190 0.000000 0.000000 
#    y 0.000000 3.501060 0.000000 
#    z 0.000000 0.000000 3.072540 
# 
# 
# High freq. dielectric constant tensor:
#      x y z
#    x 1.678930 0.000000 0.000000 
#    y 0.000000 1.689160 0.000000 
#    z 0.000000 0.000000 1.664980 
# 
# From -- ./inp_files/17046.got.cif
#   From: 2010.03.12/outbox.cif.g09.slc.cpg/sg65_9_cif.got.tgz:17046.got - 2010.04.10 20:52:16.
