data_PCOD8268434
_publ_section_title
;
Structure prediction by ZEFSAII (Michael W. Deem and Ramdas Pophale) SiO2 
 PCOD8268434
Probable space group: C M M M
;
_chemical_formula_sum "Si O2"
_cell_formula_units_Z 72
_cell_length_a 17.370317
_cell_length_b 10.038529
_cell_length_c 22.109121
_cell_angle_alpha 90.000000
_cell_angle_beta 90.000000
_cell_angle_gamma 90.000000
_cell_volume 3855.221175
_symmetry_space_group_name_H-M "C M M M"
_symmetry_group_IT_number 65
_symmetry_cell_setting 'orthorhombic'
loop_
_space_group_symop_operation_xyz
x,y,z
-x,-y,z
x,-y,-z
-x,y,-z
-x,-y,-z
x,y,-z
-x,y,z
x,-y,z
1/2+x,1/2+y,z
1/2-x,1/2-y,z
1/2+x,1/2-y,-z
1/2-x,1/2+y,-z
1/2-x,1/2-y,-z
1/2+x,1/2+y,-z
1/2-x,1/2+y,z
1/2+x,1/2-y,z
loop_
_atom_site_type_symbol
_atom_site_label
_atom_site_fract_x
_atom_site_fract_y
_atom_site_fract_z
Si Si1 0.837805 0.500000 0.566792
Si Si2 0.841323 0.747086 0.356894
Si Si3 0.407803 0.650531 0.869816
Si Si4 0.916365 0.156875 0.000000
Si Si5 0.408668 0.847442 0.766114
Si Si6 0.345061 0.500000 0.431419
O O1 0.873483 0.500000 0.500000
O O2 0.869182 0.373434 0.601826
O O3 0.746242 0.500000 0.563082
O O4 0.750000 0.750000 0.347974
O O5 0.880038 0.732503 0.292078
O O6 0.873271 0.874763 0.392428
O O7 0.500000 0.651187 0.872639
O O8 0.380176 0.500000 0.852126
O O9 0.374153 0.693648 0.936425
O O10 0.377240 0.760862 0.822628
O O11 0.000000 0.227763 0.000000
O O12 0.928828 0.000000 0.000000
O O13 0.500000 0.850667 0.765783
O O14 0.376553 0.000000 0.768710
O O15 0.379616 0.500000 0.500000
#
# Coordination Sequence:
#
# PCOD8268434 Si02
#       6
#     8  16  16   8  16   8
#     4   9  16  30  51  71  93 120 153 194 238 281
#     4  10  19  32  50  72  96 122 156 196 235 279
#     4   8  14  25  43  66  91 123 159 193 230 272
#     4   7  10  20  39  63  90 117 152 195 231 267
#     4  10  20  33  47  67  99 133 160 187 228 282
#     4   9  18  30  49  75  93 112 151 204 248 275
#
# _framework density 18.675972999999999
#
# number of rings (size 3 to 8) (size 9 to 14) (size 15 to 20)
#    0.000    3.000    1.111    2.000    1.556    2.667 
#    0.000    0.556    0.000    7.333    0.000    0.778 
#    0.000    0.000    0.000    0.000    0.000    0.000 
#
# Total GULP energy -446013.282851 kJ/mol
# GULP energy per Si atom -12389.257857 kJ/mol
# Density = 1.863347 g / cm^3
# Si number density = 18.675973 Si / 1000 Ang^3
#
#
#
# Elastic Constant Matrix: (Units=GPa)
#
#
# Indices 1 2 3 4 5 6 
#
# 1 4.7485 8.6295 10.7591 0.0000 0.0000 0.0000
# 2 8.6295 152.2342 97.4725 0.0000 0.0000 0.0000
# 3 10.7591 97.4725 205.4207 0.0000 0.0000 0.0000
# 4 0.0000 0.0000 0.0000 37.0373 0.0000 0.0000
# 5 0.0000 0.0000 0.0000 0.0000 33.3653 0.0000
# 6 0.0000 0.0000 0.0000 0.0000 0.0000 22.5466
#
#
#
# Elastic Compliance Matrix: (Units=1/GPa)
#
#
# Indices 1 2 3 4 5 6 
#
# 1 0.245832 -0.008175 -0.008997 0.000000 0.000000 0.000000
# 2 -0.008175 0.009707 -0.004178 0.000000 0.000000 0.000000
# 3 -0.008997 -0.004178 0.007322 0.000000 0.000000 0.000000
# 4 0.000000 0.000000 0.000000 0.027000 0.000000 0.000000
# 5 0.000000 0.000000 0.000000 0.000000 0.029971 0.000000
# 6 0.000000 0.000000 0.000000 0.000000 0.000000 0.044353
#
#
# Mechanical properties :
#
#
# Convention : Reuss Voigt Hill
#
# Bulk Modulus (GPa) = 4.54211 66.23620 35.38916
# Shear Modulus (GPa) = 10.41079 34.95931 22.68505
#
# Velocity S-wave (km/s) = 2.36358 4.33122 3.48899
# Velocity P-wave (km/s) = 3.14421 7.78175 5.93472
#
# Compressibility (1/GPa) = 0.22016192
#
# Stress axis : x y z
#
# Youngs Moduli (GPa) = 4.06782 103.01539 136.57980
#
# Poissons Ratio (x) = 0.84212 1.22878
# Poissons Ratio (y) = 0.03325 0.57063
# Poissons Ratio (z) = 0.03660 0.43040
#
# Static dielectric constant tensor:
#      x y z
#    x 2.730230 0.000000 0.000000 
#    y 0.000000 3.627720 0.000000 
#    z 0.000000 0.000000 3.903310 
# 
# 
# High freq. dielectric constant tensor:
#      x y z
#    x 1.650770 0.000000 0.000000 
#    y 0.000000 1.725420 0.000000 
#    z 0.000000 0.000000 1.747970 
# 
# From -- ./inp_files/59406.got.cif
#   From: 2010.03.12/outbox.cif.g09.slc.cpg/sg65_30_cif.got.tgz:59406.got - 2010.04.10 20:52:16.
