data_PCOD8268576
_publ_section_title
;
Structure prediction by ZEFSAII (Michael W. Deem and Ramdas Pophale) SiO2 
 PCOD8268576
Probable space group: C M M M
;
_chemical_formula_sum "Si O2"
_cell_formula_units_Z 88
_cell_length_a 17.925033
_cell_length_b 9.746980
_cell_length_c 26.972601
_cell_angle_alpha 90.000000
_cell_angle_beta 90.000000
_cell_angle_gamma 90.000000
_cell_volume 4712.516315
_symmetry_space_group_name_H-M "C M M M"
_symmetry_group_IT_number 65
_symmetry_cell_setting 'orthorhombic'
loop_
_space_group_symop_operation_xyz
x,y,z
-x,-y,z
x,-y,-z
-x,y,-z
-x,-y,-z
x,y,-z
-x,y,z
x,-y,z
1/2+x,1/2+y,z
1/2-x,1/2-y,z
1/2+x,1/2-y,-z
1/2-x,1/2+y,-z
1/2-x,1/2-y,-z
1/2+x,1/2+y,-z
1/2-x,1/2+y,z
1/2+x,1/2-y,z
loop_
_atom_site_type_symbol
_atom_site_label
_atom_site_fract_x
_atom_site_fract_y
_atom_site_fract_z
Si Si1 0.842571 0.000000 0.443998
Si Si2 0.412780 0.843151 0.098150
Si Si3 0.661640 0.752790 0.379815
Si Si4 0.088614 0.842922 0.811429
Si Si5 0.588606 0.158166 0.279861
Si Si6 0.834295 0.500000 0.554562
Si Si7 0.677674 0.157999 0.000000
O O1 0.869281 0.874721 0.410551
O O2 0.877264 0.000000 0.500000
O O3 0.754273 0.000000 0.449904
O O4 0.500000 0.823485 0.088236
O O5 0.383649 0.735800 0.139322
O O6 0.371010 0.806228 0.047841
O O7 0.396633 0.000000 0.115453
O O8 0.750000 0.750000 0.370254
O O9 0.621167 0.767063 0.327709
O O10 0.635724 0.872818 0.415367
O O11 0.117882 0.751228 0.765618
O O12 0.000000 0.847482 0.810404
O O13 0.120072 0.000000 0.809626
O O14 0.500000 0.159198 0.282634
O O15 0.617086 0.000000 0.274839
O O16 0.870031 0.500000 0.500000
O O17 0.750000 0.250000 0.000000
O O18 0.702347 0.000000 0.000000
#
# Coordination Sequence:
#
# PCOD8268576 Si02
#       7
#     8  16  16  16  16   8   8
#     4   9  18  30  49  75  99 129 167 210 259 302
#     4   9  17  33  57  81 104 135 180 225 258 296
#     4  10  19  32  51  76 102 129 167 212 256 305
#     4   9  18  32  52  79 106 133 170 216 263 308
#     4  10  20  35  54  75 102 137 173 208 254 310
#     4   9  16  30  51  73  99 129 167 212 251 298
#     4  10  21  35  53  79 113 150 180 212 260 314
#
# _framework density 18.673674999999999
#
# number of rings (size 3 to 8) (size 9 to 14) (size 15 to 20)
#    0.000    2.545    0.909    1.364    1.273    6.182 
#    0.000    0.909    0.000    6.000    0.000    0.000 
#    0.000    0.000    0.000    0.000    0.000    0.000 
#
# Total GULP energy -545379.295506 kJ/mol
# GULP energy per Si atom -12394.983989 kJ/mol
# Density = 1.863117 g / cm^3
# Si number density = 18.673675 Si / 1000 Ang^3
#
#
#
# Elastic Constant Matrix: (Units=GPa)
#
#
# Indices 1 2 3 4 5 6 
#
# 1 25.3149 27.9128 33.9764 0.0000 0.0000 0.0000
# 2 27.9128 171.8099 106.2236 0.0000 0.0000 0.0000
# 3 33.9764 106.2236 193.6677 0.0000 0.0000 0.0000
# 4 0.0000 0.0000 0.0000 71.5752 0.0000 0.0000
# 5 0.0000 0.0000 0.0000 0.0000 41.1199 0.0000
# 6 0.0000 0.0000 0.0000 0.0000 0.0000 20.6102
#
#
#
# Elastic Compliance Matrix: (Units=1/GPa)
#
#
# Indices 1 2 3 4 5 6 
#
# 1 0.053774 -0.004394 -0.007024 0.000000 0.000000 0.000000
# 2 -0.004394 0.009166 -0.004257 0.000000 0.000000 0.000000
# 3 -0.007024 -0.004257 0.008730 0.000000 0.000000 0.000000
# 4 0.000000 0.000000 0.000000 0.013971 0.000000 0.000000
# 5 0.000000 0.000000 0.000000 0.000000 0.024319 0.000000
# 6 0.000000 0.000000 0.000000 0.000000 0.000000 0.048520
#
#
# Mechanical properties :
#
#
# Convention : Reuss Voigt Hill
#
# Bulk Modulus (GPa) = 24.80035 80.77980 52.79008
# Shear Modulus (GPa) = 24.59784 41.50638 33.05211
#
# Velocity S-wave (km/s) = 3.63333 4.71969 4.21168
# Velocity P-wave (km/s) = 5.55978 8.54712 7.20987
#
# Compressibility (1/GPa) = 0.04032200
#
# Stress axis : x y z
#
# Youngs Moduli (GPa) = 18.59625 109.10093 114.54221
#
# Poissons Ratio (x) = 0.47934 0.80456
# Poissons Ratio (y) = 0.08170 0.48755
# Poissons Ratio (z) = 0.13062 0.46439
#
# Static dielectric constant tensor:
#      x y z
#    x 2.940430 0.000000 0.000000 
#    y 0.000000 3.757890 0.000000 
#    z 0.000000 0.000000 3.605600 
# 
# 
# High freq. dielectric constant tensor:
#      x y z
#    x 1.673940 0.000000 0.000000 
#    y 0.000000 1.739760 0.000000 
#    z 0.000000 0.000000 1.741900 
# 
# From -- ./inp_files/78007.got.cif
#   From: 2010.03.12/outbox.cif.g09.slc.cpg/sg65_40_cif.got.tgz:78007.got - 2010.04.10 20:52:16.
