data_PCOD8268147
_publ_section_title
;
Structure prediction by ZEFSAII (Michael W. Deem and Ramdas Pophale) SiO2 
 PCOD8268147
Probable space group: C M M M
;
_chemical_formula_sum "Si O2"
_cell_formula_units_Z 104
_cell_length_a 9.121994
_cell_length_b 27.882002
_cell_length_c 23.553283
_cell_angle_alpha 90.000000
_cell_angle_beta 90.000000
_cell_angle_gamma 90.000000
_cell_volume 5990.529161
_symmetry_space_group_name_H-M "C M M M"
_symmetry_group_IT_number 65
_symmetry_cell_setting 'orthorhombic'
loop_
_space_group_symop_operation_xyz
x,y,z
-x,-y,z
x,-y,-z
-x,y,-z
-x,-y,-z
x,y,-z
-x,y,z
x,-y,z
1/2+x,1/2+y,z
1/2-x,1/2-y,z
1/2+x,1/2-y,-z
1/2-x,1/2+y,-z
1/2-x,1/2-y,-z
1/2+x,1/2+y,-z
1/2-x,1/2+y,z
1/2+x,1/2-y,z
loop_
_atom_site_type_symbol
_atom_site_label
_atom_site_fract_x
_atom_site_fract_y
_atom_site_fract_z
Si Si1 0.161398 0.000000 0.433206
Si Si2 0.672256 0.134860 0.836022
Si Si3 0.829358 0.297861 0.935768
Si Si4 0.164762 0.202783 0.248893
Si Si5 0.826791 0.944136 0.229923
Si Si6 0.162167 0.120522 0.334323
Si Si7 0.672325 0.094244 0.435811
O O1 0.252635 0.045660 0.413811
O O2 0.144904 0.000000 0.500000
O O3 0.000000 0.000000 0.404485
O O4 0.500000 0.129669 0.824192
O O5 0.704981 0.153767 0.899846
O O6 0.740084 0.175936 0.797530
O O7 0.747738 0.083471 0.822443
O O8 0.750000 0.250000 0.911706
O O9 0.000000 0.285947 0.932697
O O10 0.777010 0.308492 0.000000
O O11 0.250000 0.250000 0.266410
O O12 0.154066 0.171716 0.305317
O O13 0.000000 0.213397 0.225977
O O14 0.778765 0.919759 0.289658
O O15 0.000000 0.937422 0.221464
O O16 0.780648 0.000000 0.229651
O O17 0.269195 0.130555 0.388207
O O18 0.000000 0.105357 0.355933
O O19 0.720755 0.108603 0.500000
O O20 0.500000 0.088139 0.433239
#
# Coordination Sequence:
#
# PCOD8268147 Si02
#       7
#     8  16  16  16  16  16  16
#     4   9  17  29  45  63  85 119 157 187 222 275
#     4  10  19  31  50  75 101 131 167 203 242 293
#     4   9  18  31  47  71 103 135 166 202 244 289
#     4  10  20  34  52  74 100 128 159 200 245 290
#     4   9  19  35  52  71  98 130 163 205 250 290
#     4   9  19  33  50  72  95 125 161 194 238 294
#     4  10  20  32  46  68  97 124 154 196 242 285
#
# _framework density 17.360737
#
# number of rings (size 3 to 8) (size 9 to 14) (size 15 to 20)
#    0.000    2.538    0.000    3.000    1.077    7.692 
#    0.000    0.000    0.000    0.923    0.000    3.231 
#    0.000    0.000    0.000    0.000    0.000    0.000 
#
# Total GULP energy -644484.829332 kJ/mol
# GULP energy per Si atom -12393.939026 kJ/mol
# Density = 1.732122 g / cm^3
# Si number density = 17.360737 Si / 1000 Ang^3
#
#
#
# Elastic Constant Matrix: (Units=GPa)
#
#
# Indices 1 2 3 4 5 6 
#
# 1 78.4569 39.7859 43.4724 0.0000 0.0000 0.0000
# 2 39.7859 103.4234 42.1665 0.0000 0.0000 0.0000
# 3 43.4724 42.1665 85.4024 0.0000 0.0000 0.0000
# 4 0.0000 0.0000 0.0000 15.8481 0.0000 0.0000
# 5 0.0000 0.0000 0.0000 0.0000 26.3783 0.0000
# 6 0.0000 0.0000 0.0000 0.0000 0.0000 30.7408
#
#
#
# Elastic Compliance Matrix: (Units=1/GPa)
#
#
# Indices 1 2 3 4 5 6 
#
# 1 0.019134 -0.004244 -0.007644 0.000000 0.000000 0.000000
# 2 -0.004244 0.013047 -0.004282 0.000000 0.000000 0.000000
# 3 -0.007644 -0.004282 0.017714 0.000000 0.000000 0.000000
# 4 0.000000 0.000000 0.000000 0.063099 0.000000 0.000000
# 5 0.000000 0.000000 0.000000 0.000000 0.037910 0.000000
# 6 0.000000 0.000000 0.000000 0.000000 0.000000 0.032530
#
#
# Mechanical properties :
#
#
# Convention : Reuss Voigt Hill
#
# Bulk Modulus (GPa) = 56.96144 57.57025 57.26585
# Shear Modulus (GPa) = 22.56060 24.05065 23.30563
#
# Velocity S-wave (km/s) = 3.60879 3.72606 3.66790
# Velocity P-wave (km/s) = 7.08846 7.19337 7.14111
#
# Compressibility (1/GPa) = 0.01755574
#
# Stress axis : x y z
#
# Youngs Moduli (GPa) = 52.26435 76.64462 56.45127
#
# Poissons Ratio (x) = 0.32527 0.43152
# Poissons Ratio (y) = 0.22180 0.24171
# Poissons Ratio (z) = 0.39952 0.32817
#
# Static dielectric constant tensor:
#      x y z
#    x 3.347480 0.000000 0.000000 
#    y 0.000000 3.235210 0.000000 
#    z 0.000000 0.000000 3.313550 
# 
# 
# High freq. dielectric constant tensor:
#      x y z
#    x 1.679630 0.000000 0.000000 
#    y 0.000000 1.650880 0.000000 
#    z 0.000000 0.000000 1.660660 
# 
# From -- ./inp_files/68254.got.cif
#   From: 2010.03.12/outbox.cif.g09.slc.cpg/sg65_35_cif.got.tgz:68254.got - 2010.04.10 20:52:16.
