data_PCOD8268970
_publ_section_title
;
Structure prediction by ZEFSAII (Michael W. Deem and Ramdas Pophale) SiO2 
 PCOD8268970
Probable space group: C M M M
;
_chemical_formula_sum "Si O2"
_cell_formula_units_Z 88
_cell_length_a 19.374300
_cell_length_b 9.042617
_cell_length_c 28.370558
_cell_angle_alpha 90.000000
_cell_angle_beta 90.000000
_cell_angle_gamma 90.000000
_cell_volume 4970.362164
_symmetry_space_group_name_H-M "C M M M"
_symmetry_group_IT_number 65
_symmetry_cell_setting 'orthorhombic'
loop_
_space_group_symop_operation_xyz
x,y,z
-x,-y,z
x,-y,-z
-x,y,-z
-x,-y,-z
x,y,-z
-x,y,z
x,-y,z
1/2+x,1/2+y,z
1/2-x,1/2-y,z
1/2+x,1/2-y,-z
1/2-x,1/2+y,-z
1/2-x,1/2-y,-z
1/2+x,1/2+y,-z
1/2-x,1/2+y,z
1/2+x,1/2-y,z
loop_
_atom_site_type_symbol
_atom_site_label
_atom_site_fract_x
_atom_site_fract_y
_atom_site_fract_z
Si Si1 0.917973 0.166774 0.727458
Si Si2 0.320425 0.668320 0.000000
Si Si3 0.820033 0.673556 0.553050
Si Si4 0.175217 0.825520 0.897544
Si Si5 0.420677 0.827239 0.634659
Si Si6 0.081105 0.672510 0.178699
O O1 0.889789 0.240530 0.679548
O O2 0.891843 0.261045 0.771957
O O3 0.000000 0.169016 0.726263
O O4 0.889395 0.000000 0.731417
O O5 0.250000 0.750000 0.000000
O O6 0.357826 0.704550 0.049851
O O7 0.298706 0.500000 0.000000
O O8 0.840290 0.723001 0.500000
O O9 0.807965 0.500000 0.555596
O O10 0.750000 0.750000 0.569797
O O11 0.880610 0.724166 0.587960
O O12 0.250000 0.750000 0.891675
O O13 0.120592 0.754766 0.862669
O O14 0.182803 0.000000 0.887322
O O15 0.500000 0.786021 0.625774
O O16 0.411410 0.000000 0.645015
O O17 0.098833 0.500000 0.177916
O O18 0.000000 0.701687 0.171910
#
# Coordination Sequence:
#
# PCOD8268970 Si02
#       6
#    16   8  16  16  16  16
#     4   9  17  30  49  72  97 126 160 198 243 294
#     4   8  16  30  49  72  97 129 165 201 243 292
#     4   9  18  32  49  69  95 128 161 192 232 283
#     4  10  19  33  53  76 102 131 166 206 248 294
#     4   9  17  30  49  72  96 122 156 199 241 281
#     4  10  20  34  52  74 101 133 168 205 247 295
#
# _framework density 17.704948000000002
#
# number of rings (size 3 to 8) (size 9 to 14) (size 15 to 20)
#    0.000    2.727    0.000    1.636    0.000    5.091 
#    0.000    3.182    0.000    4.909    0.000    5.091 
#    0.000    0.000    0.000    0.000    0.000    0.000 
#
# Total GULP energy -545364.751467 kJ/mol
# GULP energy per Si atom -12394.653442 kJ/mol
# Density = 1.766465 g / cm^3
# Si number density = 17.704948 Si / 1000 Ang^3
#
#
#
# Elastic Constant Matrix: (Units=GPa)
#
#
# Indices 1 2 3 4 5 6 
#
# 1 58.4653 42.3410 65.8714 0.0000 0.0000 0.0000
# 2 42.3410 94.7004 74.8421 0.0000 0.0000 0.0000
# 3 65.8714 74.8421 170.4301 0.0000 0.0000 0.0000
# 4 0.0000 0.0000 0.0000 31.7821 0.0000 0.0000
# 5 0.0000 0.0000 0.0000 0.0000 3.6051 0.0000
# 6 0.0000 0.0000 0.0000 0.0000 0.0000 26.1533
#
#
#
# Elastic Compliance Matrix: (Units=1/GPa)
#
#
# Indices 1 2 3 4 5 6 
#
# 1 0.033227 -0.007208 -0.009677 0.000000 0.000000 0.000000
# 2 -0.007208 0.017736 -0.005002 0.000000 0.000000 0.000000
# 3 -0.009677 -0.005002 0.011804 0.000000 0.000000 0.000000
# 4 0.000000 0.000000 0.000000 0.031464 0.000000 0.000000
# 5 0.000000 0.000000 0.000000 0.000000 0.277388 0.000000
# 6 0.000000 0.000000 0.000000 0.000000 0.000000 0.038236
#
#
# Mechanical properties :
#
#
# Convention : Reuss Voigt Hill
#
# Bulk Modulus (GPa) = 52.65335 76.63388 64.64361
# Shear Modulus (GPa) = 10.87045 21.67751 16.27398
#
# Velocity S-wave (km/s) = 2.48055 3.50290 3.03508
# Velocity P-wave (km/s) = 6.16507 7.72906 6.99093
#
# Compressibility (1/GPa) = 0.01899214
#
# Stress axis : x y z
#
# Youngs Moduli (GPa) = 30.09580 56.38250 84.71398
#
# Poissons Ratio (x) = 0.40642 0.81977
# Poissons Ratio (y) = 0.21694 0.42378
# Poissons Ratio (z) = 0.29123 0.28205
#
# Static dielectric constant tensor:
#      x y z
#    x 2.985310 0.000000 0.000000 
#    y 0.000000 3.407410 0.000000 
#    z 0.000000 0.000000 2.866360 
# 
# 
# High freq. dielectric constant tensor:
#      x y z
#    x 1.644900 0.000000 0.000000 
#    y 0.000000 1.693830 0.000000 
#    z 0.000000 0.000000 1.703600 
# 
# From -- ./inp_files/67539.got.cif
#   From: 2010.03.12/outbox.cif.g09.slc.cpg/sg65_34_cif.got.tgz:67539.got - 2010.04.10 20:52:16.
