data_PCOD8268321
_publ_section_title
;
Structure prediction by ZEFSAII (Michael W. Deem and Ramdas Pophale) SiO2 
 PCOD8268321
Probable space group: C M M M
;
_chemical_formula_sum "Si O2"
_cell_formula_units_Z 88
_cell_length_a 12.593163
_cell_length_b 30.229861
_cell_length_c 12.208098
_cell_angle_alpha 90.000000
_cell_angle_beta 90.000000
_cell_angle_gamma 90.000000
_cell_volume 4647.495542
_symmetry_space_group_name_H-M "C M M M"
_symmetry_group_IT_number 65
_symmetry_cell_setting 'orthorhombic'
loop_
_space_group_symop_operation_xyz
x,y,z
-x,-y,z
x,-y,-z
-x,y,-z
-x,-y,-z
x,y,-z
-x,y,z
x,-y,z
1/2+x,1/2+y,z
1/2-x,1/2-y,z
1/2+x,1/2-y,-z
1/2-x,1/2+y,-z
1/2-x,1/2-y,-z
1/2+x,1/2+y,-z
1/2-x,1/2+y,z
1/2+x,1/2-y,z
loop_
_atom_site_type_symbol
_atom_site_label
_atom_site_fract_x
_atom_site_fract_y
_atom_site_fract_z
Si Si1 0.500000 0.927733 0.627373
Si Si2 0.727247 0.622041 0.129789
Si Si3 0.677695 0.209850 0.233417
Si Si4 0.500000 0.740969 0.877684
Si Si5 0.000000 0.854306 0.872394
Si Si6 0.500000 0.169985 0.371673
Si Si7 0.727142 0.049620 0.700335
Si Si8 0.123949 0.052443 0.500000
O O1 0.500000 0.920128 0.500000
O O2 0.500000 0.878897 0.682137
O O3 0.393454 0.953951 0.657628
O O4 0.761204 0.669352 0.177712
O O5 0.602876 0.617179 0.157602
O O6 0.778869 0.581008 0.193361
O O7 0.753751 0.619015 0.000000
O O8 0.750000 0.250000 0.277407
O O9 0.603334 0.229822 0.140432
O O10 0.606948 0.194519 0.335363
O O11 0.500000 0.694031 0.811396
O O12 0.500000 0.725447 0.000000
O O13 0.000000 0.845143 0.000000
O O14 0.500000 0.168996 0.500000
O O15 0.809596 0.068424 0.607705
O O16 0.762280 0.000000 0.734639
O O17 0.000000 0.070005 0.500000
O O18 0.123127 0.000000 0.500000
#
# Coordination Sequence:
#
# PCOD8268321 Si02
#       8
#     8  16  16   8   8   8  16   8
#     4  11  20  39  65  92 121 153 203 255 306 358
#     4  11  23  39  58  86 124 160 200 249 302 360
#     4  11  21  36  60  85 114 155 198 243 294 355
#     4  10  19  31  53  85 113 141 187 240 291 344
#     4   9  19  35  56  82 114 150 195 247 289 343
#     4  10  23  40  59  87 121 158 197 245 306 367
#     4  11  23  39  63  91 121 160 202 250 307 366
#     4   9  20  39  63  91 118 148 196 257 306 351
#
# _framework density 18.934929
#
# number of rings (size 3 to 8) (size 9 to 14) (size 15 to 20)
#    0.000    1.545    4.545    0.818    1.273    1.818 
#    0.000    1.364    0.000    2.727    0.000    0.000 
#    0.000    0.000    0.000    0.000    0.000    0.000 
#
# Total GULP energy -545239.414600 kJ/mol
# GULP energy per Si atom -12391.804877 kJ/mol
# Density = 1.889183 g / cm^3
# Si number density = 18.934929 Si / 1000 Ang^3
#
#
#
# Elastic Constant Matrix: (Units=GPa)
#
#
# Indices 1 2 3 4 5 6 
#
# 1 115.8625 21.2236 30.3703 0.0000 0.0000 0.0000
# 2 21.2236 102.0048 38.0532 0.0000 0.0000 0.0000
# 3 30.3703 38.0532 83.9482 0.0000 0.0000 0.0000
# 4 0.0000 0.0000 0.0000 20.9623 0.0000 0.0000
# 5 0.0000 0.0000 0.0000 0.0000 -408.6177 0.0000
# 6 0.0000 0.0000 0.0000 0.0000 0.0000 14.5977
#
#
#
# Elastic Compliance Matrix: (Units=1/GPa)
#
#
# Indices 1 2 3 4 5 6 
#
# 1 0.009595 -0.000844 -0.003089 0.000000 0.000000 0.000000
# 2 -0.000844 0.011873 -0.005077 0.000000 0.000000 0.000000
# 3 -0.003089 -0.005077 0.015331 0.000000 0.000000 0.000000
# 4 0.000000 0.000000 0.000000 0.047705 0.000000 0.000000
# 5 0.000000 0.000000 0.000000 0.000000 -0.002447 0.000000
# 6 0.000000 0.000000 0.000000 0.000000 0.000000 0.068504
#
#
# Mechanical properties :
#
#
# Convention : Reuss Voigt Hill
#
# Bulk Modulus (GPa) = 53.24795 53.45665 53.35230
# Shear Modulus (GPa) = 28.59780 -60.46698 -15.93459
#
# Velocity S-wave (km/s) = 3.89050 -5.65716 -2.90409
# Velocity P-wave (km/s) = 6.95442 3.79186 4.12224
#
# Compressibility (1/GPa) = 0.01878007
#
# Stress axis : x y z
#
# Youngs Moduli (GPa) = 104.21923 84.22527 65.22887
#
# Poissons Ratio (x) = 0.07110 0.20147
# Poissons Ratio (y) = 0.08798 0.33114
# Poissons Ratio (z) = 0.32189 0.42757
#
# Static dielectric constant tensor:
#      x y z
#    x 3.435020 0.000000 0.000000 
#    y 0.000000 3.479330 0.000000 
#    z 0.000000 0.000000 3.197570 
# 
# 
# High freq. dielectric constant tensor:
#      x y z
#    x 1.750280 0.000000 0.000000 
#    y 0.000000 1.737120 0.000000 
#    z 0.000000 0.000000 1.710580 
# 
# From -- ./inp_files/23075.got.cif
#   From: 2010.03.12/outbox.cif.g09.slc.cpg/sg65_12_cif.got.tgz:23075.got - 2010.04.10 20:52:16.
