data_PCOD8268579
_publ_section_title
;
Structure prediction by ZEFSAII (Michael W. Deem and Ramdas Pophale) SiO2 
 PCOD8268579
Probable space group: C M M M
;
_chemical_formula_sum "Si O2"
_cell_formula_units_Z 104
_cell_length_a 33.435398
_cell_length_b 17.588456
_cell_length_c 9.331560
_cell_angle_alpha 90.000000
_cell_angle_beta 90.000000
_cell_angle_gamma 90.000000
_cell_volume 5487.676058
_symmetry_space_group_name_H-M "C M M M"
_symmetry_group_IT_number 65
_symmetry_cell_setting 'orthorhombic'
loop_
_space_group_symop_operation_xyz
x,y,z
-x,-y,z
x,-y,-z
-x,y,-z
-x,-y,-z
x,y,-z
-x,y,z
x,-y,z
1/2+x,1/2+y,z
1/2-x,1/2-y,z
1/2+x,1/2-y,-z
1/2-x,1/2+y,-z
1/2-x,1/2-y,-z
1/2+x,1/2+y,-z
1/2-x,1/2+y,z
1/2+x,1/2-y,z
loop_
_atom_site_type_symbol
_atom_site_label
_atom_site_fract_x
_atom_site_fract_y
_atom_site_fract_z
Si Si1 0.426123 0.589849 0.338773
Si Si2 0.125680 0.340379 0.670211
Si Si3 0.044229 0.585765 0.330241
Si Si4 0.849331 0.172730 0.330453
Si Si5 0.194406 0.411400 0.159499
Si Si6 0.500000 0.409188 0.840035
Si Si7 0.770769 0.089103 0.332219
O O1 0.432712 0.621110 0.500000
O O2 0.425948 0.500000 0.338634
O O3 0.384568 0.618628 0.273051
O O4 0.461354 0.622929 0.241167
O O5 0.130259 0.351347 0.500000
O O6 0.079817 0.357354 0.719913
O O7 0.140443 0.257532 0.721290
O O8 0.154027 0.398930 0.751733
O O9 0.043457 0.584338 0.500000
O O10 0.052895 0.500000 0.273896
O O11 0.000000 0.612746 0.274521
O O12 0.847782 0.168226 0.500000
O O13 0.807544 0.139789 0.271688
O O14 0.200753 0.500000 0.143547
O O15 0.232312 0.379230 0.247493
O O16 0.192309 0.374453 0.000000
O O17 0.500000 0.500000 0.839537
O O18 0.500000 0.376546 0.000000
O O19 0.763113 0.103533 0.500000
O O20 0.779715 0.000000 0.304126
#
# Coordination Sequence:
#
# PCOD8268579 Si02
#       7
#    16  16  16  16  16   8  16
#     4   9  16  29  49  70  94 127 166 207 253 302
#     4  10  19  32  51  76 104 131 163 202 251 306
#     4   8  14  26  46  72  98 123 156 199 243 288
#     4   9  18  31  48  75 103 128 164 209 252 296
#     4  10  21  36  53  74 100 129 165 209 250 293
#     4   9  17  29  45  67  93 121 162 213 256 295
#     4   9  17  32  54  75  97 130 170 208 247 293
#
# _framework density 18.951556
#
# number of rings (size 3 to 8) (size 9 to 14) (size 15 to 20)
#    0.000    2.846    0.000    2.077    0.000    4.923 
#    1.385    5.385    0.000    4.154    0.000    2.154 
#    0.000    0.000    0.000    0.000    0.000    0.000 
#
# Total GULP energy -644496.825744 kJ/mol
# GULP energy per Si atom -12394.169726 kJ/mol
# Density = 1.890842 g / cm^3
# Si number density = 18.951556 Si / 1000 Ang^3
#
#
#
# Elastic Constant Matrix: (Units=GPa)
#
#
# Indices 1 2 3 4 5 6 
#
# 1 184.9283 44.5760 54.2906 0.0000 0.0000 0.0000
# 2 44.5760 41.3003 19.9839 0.0000 0.0000 0.0000
# 3 54.2906 19.9839 67.0088 0.0000 0.0000 0.0000
# 4 0.0000 0.0000 0.0000 10.7591 0.0000 0.0000
# 5 0.0000 0.0000 0.0000 0.0000 0.5990 0.0000
# 6 0.0000 0.0000 0.0000 0.0000 0.0000 11.9057
#
#
#
# Elastic Compliance Matrix: (Units=1/GPa)
#
#
# Indices 1 2 3 4 5 6 
#
# 1 0.008464 -0.006798 -0.004830 0.000000 0.000000 0.000000
# 2 -0.006798 0.033756 -0.004559 0.000000 0.000000 0.000000
# 3 -0.004830 -0.004559 0.020197 0.000000 0.000000 0.000000
# 4 0.000000 0.000000 0.000000 0.092945 0.000000 0.000000
# 5 0.000000 0.000000 0.000000 0.000000 1.669550 0.000000
# 6 0.000000 0.000000 0.000000 0.000000 0.000000 0.083993
#
#
# Mechanical properties :
#
#
# Convention : Reuss Voigt Hill
#
# Bulk Modulus (GPa) = 33.28693 58.99314 46.14004
# Shear Modulus (GPa) = 2.56240 16.27854 9.42047
#
# Velocity S-wave (km/s) = 1.16405 2.93397 2.23195
# Velocity P-wave (km/s) = 4.40557 6.53250 5.57147
#
# Compressibility (1/GPa) = 0.03004182
#
# Stress axis : x y z
#
# Youngs Moduli (GPa) = 118.14355 29.62398 49.51343
#
# Poissons Ratio (x) = 0.20140 0.23916
# Poissons Ratio (y) = 0.80319 0.22573
# Poissons Ratio (z) = 0.57067 0.13506
#
# Static dielectric constant tensor:
#      x y z
#    x 3.847510 0.000000 0.000000 
#    y 0.000000 3.289940 0.000000 
#    z 0.000000 0.000000 3.267580 
# 
# 
# High freq. dielectric constant tensor:
#      x y z
#    x 1.754880 0.000000 0.000000 
#    y 0.000000 1.713080 0.000000 
#    z 0.000000 0.000000 1.694430 
# 
# From -- ./inp_files/18674.got.cif
#   From: 2010.03.12/outbox.cif.g09.slc.cpg/sg65_10_cif.got.tgz:18674.got - 2010.04.10 20:52:16.
