data_PCOD8268567
_publ_section_title
;
Structure prediction by ZEFSAII (Michael W. Deem and Ramdas Pophale) SiO2 
 PCOD8268567
Probable space group: C M M M
;
_chemical_formula_sum "Si O2"
_cell_formula_units_Z 96
_cell_length_a 19.931594
_cell_length_b 8.592110
_cell_length_c 29.931745
_cell_angle_alpha 90.000000
_cell_angle_beta 90.000000
_cell_angle_gamma 90.000000
_cell_volume 5125.944471
_symmetry_space_group_name_H-M "C M M M"
_symmetry_group_IT_number 65
_symmetry_cell_setting 'orthorhombic'
loop_
_space_group_symop_operation_xyz
x,y,z
-x,-y,z
x,-y,-z
-x,y,-z
-x,-y,-z
x,y,-z
-x,y,z
x,-y,z
1/2+x,1/2+y,z
1/2-x,1/2-y,z
1/2+x,1/2-y,-z
1/2-x,1/2+y,-z
1/2-x,1/2-y,-z
1/2+x,1/2+y,-z
1/2-x,1/2+y,z
1/2+x,1/2-y,z
loop_
_atom_site_type_symbol
_atom_site_label
_atom_site_fract_x
_atom_site_fract_y
_atom_site_fract_z
Si Si1 0.820599 0.818647 0.052072
Si Si2 0.076939 0.320135 0.880672
Si Si3 0.177855 0.815166 0.622657
Si Si4 0.925119 0.185010 0.450345
Si Si5 0.577732 0.319570 0.786964
Si Si6 0.178622 0.317609 0.282073
O O1 0.750000 0.750000 0.068654
O O2 0.879906 0.731560 0.077229
O O3 0.822547 0.000000 0.063241
O O4 0.831156 0.784642 0.000000
O O5 0.089634 0.500000 0.869581
O O6 0.098148 0.220490 0.837558
O O7 0.000000 0.288028 0.893456
O O8 0.250000 0.750000 0.609280
O O9 0.125588 0.747162 0.586480
O O10 0.155550 0.758288 0.671425
O O11 0.179821 0.000000 0.622434
O O12 0.903457 0.241245 0.500000
O O13 0.000000 0.246054 0.439447
O O14 0.924470 0.000000 0.448657
O O15 0.500000 0.277331 0.778602
O O16 0.592239 0.500000 0.777925
O O17 0.622048 0.216266 0.754201
O O18 0.187034 0.500000 0.289091
O O19 0.250000 0.250000 0.265933
#
# Coordination Sequence:
#
# PCOD8268567 Si02
#       6
#    16  16  16  16  16  16
#     4  10  21  37  57  81 110 144 183 226 270 317
#     4  10  21  37  57  82 112 144 179 220 266 316
#     4  10  19  32  51  75 103 135 171 212 260 312
#     4   8  15  29  49  73 100 131 170 214 256 302
#     4  10  21  38  59  82 109 140 176 218 264 316
#     4  11  22  37  56  78 107 140 177 220 265 315
#
# _framework density 18.728255999999998
#
# number of rings (size 3 to 8) (size 9 to 14) (size 15 to 20)
#    0.000    2.167    0.000    5.000    0.000    5.000 
#    0.000    6.667    0.000    3.000    0.000    4.667 
#    0.000    0.000    0.000    0.000    0.000    0.000 
#
# Total GULP energy -595319.995388 kJ/mol
# GULP energy per Si atom -12402.499904 kJ/mol
# Density = 1.868563 g / cm^3
# Si number density = 18.728256 Si / 1000 Ang^3
#
#
#
# Elastic Constant Matrix: (Units=GPa)
#
#
# Indices 1 2 3 4 5 6 
#
# 1 107.3972 33.4039 76.1157 0.0000 0.0000 0.0000
# 2 33.4039 72.0069 27.0883 0.0000 0.0000 0.0000
# 3 76.1157 27.0883 97.2522 0.0000 0.0000 0.0000
# 4 0.0000 0.0000 0.0000 24.3210 0.0000 0.0000
# 5 0.0000 0.0000 0.0000 0.0000 42.5876 0.0000
# 6 0.0000 0.0000 0.0000 0.0000 0.0000 29.6005
#
#
#
# Elastic Compliance Matrix: (Units=1/GPa)
#
#
# Indices 1 2 3 4 5 6 
#
# 1 0.021971 -0.004159 -0.016038 0.000000 0.000000 0.000000
# 2 -0.004159 0.016300 -0.001285 0.000000 0.000000 0.000000
# 3 -0.016038 -0.001285 0.023192 0.000000 0.000000 0.000000
# 4 0.000000 0.000000 0.000000 0.041117 0.000000 0.000000
# 5 0.000000 0.000000 0.000000 0.000000 0.023481 0.000000
# 6 0.000000 0.000000 0.000000 0.000000 0.000000 0.033783
#
#
# Mechanical properties :
#
#
# Convention : Reuss Voigt Hill
#
# Bulk Modulus (GPa) = 54.05251 61.09693 57.57472
# Shear Modulus (GPa) = 23.92627 28.63838 26.28232
#
# Velocity S-wave (km/s) = 3.57816 3.91468 3.75020
# Velocity P-wave (km/s) = 6.78197 7.28880 7.03995
#
# Compressibility (1/GPa) = 0.01850053
#
# Stress axis : x y z
#
# Youngs Moduli (GPa) = 45.51415 61.34814 43.11745
#
# Poissons Ratio (x) = 0.25516 0.69150
# Poissons Ratio (y) = 0.18930 0.05541
# Poissons Ratio (z) = 0.72994 0.07883
#
# Static dielectric constant tensor:
#      x y z
#    x 3.560560 0.000000 0.000000 
#    y 0.000000 3.386090 0.000000 
#    z 0.000000 0.000000 3.505360 
# 
# 
# High freq. dielectric constant tensor:
#      x y z
#    x 1.729970 0.000000 0.000000 
#    y 0.000000 1.726630 0.000000 
#    z 0.000000 0.000000 1.729980 
# 
# From -- ./inp_files/73216.got.cif
#   From: 2010.03.12/outbox.cif.g09.slc.cpg/sg65_37_cif.got.tgz:73216.got - 2010.04.10 20:52:16.
