data_PCOD8268987
_publ_section_title
;
Structure prediction by ZEFSAII (Michael W. Deem and Ramdas Pophale) SiO2 
 PCOD8268987
Probable space group: C M M M
;
_chemical_formula_sum "Si O2"
_cell_formula_units_Z 80
_cell_length_a 7.853638
_cell_length_b 18.451795
_cell_length_c 27.854264
_cell_angle_alpha 90.000000
_cell_angle_beta 90.000000
_cell_angle_gamma 90.000000
_cell_volume 4036.464969
_symmetry_space_group_name_H-M "C M M M"
_symmetry_group_IT_number 65
_symmetry_cell_setting 'orthorhombic'
loop_
_space_group_symop_operation_xyz
x,y,z
-x,-y,z
x,-y,-z
-x,y,-z
-x,-y,-z
x,y,-z
-x,y,z
x,-y,z
1/2+x,1/2+y,z
1/2-x,1/2-y,z
1/2+x,1/2-y,-z
1/2-x,1/2+y,-z
1/2-x,1/2-y,-z
1/2+x,1/2+y,-z
1/2-x,1/2+y,z
1/2+x,1/2-y,z
loop_
_atom_site_type_symbol
_atom_site_label
_atom_site_fract_x
_atom_site_fract_y
_atom_site_fract_z
Si Si1 0.200818 0.833343 0.103655
Si Si2 0.800411 0.167709 0.000000
Si Si3 0.803962 0.414780 0.378693
Si Si4 0.800481 0.332903 0.716513
Si Si5 0.500000 0.585767 0.446566
Si Si6 0.303333 0.920070 0.194553
O O1 0.250000 0.750000 0.111566
O O2 0.266762 0.863611 0.051154
O O3 0.287743 0.882323 0.143298
O O4 0.000000 0.841207 0.108251
O O5 0.750000 0.250000 0.000000
O O6 0.000000 0.159112 0.000000
O O7 0.788211 0.500000 0.368720
O O8 0.739655 0.373818 0.331228
O O9 0.674045 0.388983 0.420259
O O10 0.000000 0.394823 0.392678
O O11 0.750000 0.250000 0.714334
O O12 0.717021 0.371517 0.763350
O O13 0.000000 0.338974 0.720723
O O14 0.500000 0.500000 0.449726
O O15 0.500000 0.619779 0.500000
O O16 0.500000 0.929232 0.206668
O O17 0.217498 0.000000 0.193407
#
# Coordination Sequence:
#
# PCOD8268987 Si02
#       6
#    16   8  16  16   8  16
#     4  10  19  33  53  77 103 134 174 219 264 320
#     4   8  16  30  49  72  99 131 169 215 265 310
#     4   9  18  34  55  80 111 147 184 225 273 322
#     4  10  21  35  54  79 104 139 176 217 265 321
#     4   9  18  32  54  86 116 144 183 228 272 318
#     4  10  21  37  54  74 106 141 174 218 271 321
#
# _framework density 19.819322
#
# number of rings (size 3 to 8) (size 9 to 14) (size 15 to 20)
#    0.000    2.500    0.000    1.800    1.400    6.400 
#    0.000    2.500    0.000    3.600    0.000    0.000 
#    0.000    0.000    0.000    0.000    0.000    0.000 
#
# Total GULP energy -495635.591996 kJ/mol
# GULP energy per Si atom -12390.889800 kJ/mol
# Density = 1.977421 g / cm^3
# Si number density = 19.819322 Si / 1000 Ang^3
#
#
#
# Elastic Constant Matrix: (Units=GPa)
#
#
# Indices 1 2 3 4 5 6 
#
# 1 52.3355 19.9578 47.2812 0.0000 0.0000 0.0000
# 2 19.9578 99.0003 73.1462 0.0000 0.0000 0.0000
# 3 47.2812 73.1462 202.5931 0.0000 0.0000 0.0000
# 4 0.0000 0.0000 0.0000 29.3448 0.0000 0.0000
# 5 0.0000 0.0000 0.0000 0.0000 24.6589 0.0000
# 6 0.0000 0.0000 0.0000 0.0000 0.0000 20.1755
#
#
#
# Elastic Compliance Matrix: (Units=1/GPa)
#
#
# Indices 1 2 3 4 5 6 
#
# 1 0.024280 -0.000966 -0.005318 0.000000 0.000000 0.000000
# 2 -0.000966 0.013814 -0.004762 0.000000 0.000000 0.000000
# 3 -0.005318 -0.004762 0.007896 0.000000 0.000000 0.000000
# 4 0.000000 0.000000 0.000000 0.034078 0.000000 0.000000
# 5 0.000000 0.000000 0.000000 0.000000 0.040553 0.000000
# 6 0.000000 0.000000 0.000000 0.000000 0.000000 0.049565
#
#
# Mechanical properties :
#
#
# Convention : Reuss Voigt Hill
#
# Bulk Modulus (GPa) = 41.84226 70.52215 56.18220
# Shear Modulus (GPa) = 24.96947 29.07209 27.02078
#
# Velocity S-wave (km/s) = 3.55329 3.83411 3.69637
# Velocity P-wave (km/s) = 6.16378 7.43373 6.82834
#
# Compressibility (1/GPa) = 0.02389928
#
# Stress axis : x y z
#
# Youngs Moduli (GPa) = 41.18619 72.38911 126.63843
#
# Poissons Ratio (x) = 0.06990 0.67344
# Poissons Ratio (y) = 0.03977 0.60309
# Poissons Ratio (z) = 0.21902 0.34474
#
# Static dielectric constant tensor:
#      x y z
#    x 3.537210 0.000000 0.000000 
#    y 0.000000 3.325410 0.000000 
#    z 0.000000 0.000000 4.151680 
# 
# 
# High freq. dielectric constant tensor:
#      x y z
#    x 1.766090 0.000000 0.000000 
#    y 0.000000 1.745070 0.000000 
#    z 0.000000 0.000000 1.786900 
# 
# From -- ./inp_files/72934.got.cif
#   From: 2010.03.12/outbox.cif.g09.slc.cpg/sg65_37_cif.got.tgz:72934.got - 2010.04.10 20:52:16.
