data_PCOD8268596
_publ_section_title
;
Structure prediction by ZEFSAII (Michael W. Deem and Ramdas Pophale) SiO2 
 PCOD8268596
Probable space group: C M M M
;
_chemical_formula_sum "Si O2"
_cell_formula_units_Z 120
_cell_length_a 9.316650
_cell_length_b 26.149316
_cell_length_c 27.318715
_cell_angle_alpha 90.000000
_cell_angle_beta 90.000000
_cell_angle_gamma 90.000000
_cell_volume 6655.495304
_symmetry_space_group_name_H-M "C M M M"
_symmetry_group_IT_number 65
_symmetry_cell_setting 'orthorhombic'
loop_
_space_group_symop_operation_xyz
x,y,z
-x,-y,z
x,-y,-z
-x,y,-z
-x,-y,-z
x,y,-z
-x,y,z
x,-y,z
1/2+x,1/2+y,z
1/2-x,1/2-y,z
1/2+x,1/2-y,-z
1/2-x,1/2+y,-z
1/2-x,1/2-y,-z
1/2+x,1/2+y,-z
1/2-x,1/2+y,z
1/2+x,1/2-y,z
loop_
_atom_site_type_symbol
_atom_site_label
_atom_site_fract_x
_atom_site_fract_y
_atom_site_fract_z
Si Si1 0.834627 0.057041 0.907907
Si Si2 0.667584 0.558637 0.296908
Si Si3 0.665136 0.148081 0.053943
Si Si4 0.670466 0.000000 0.554593
Si Si5 0.164533 0.107416 0.193782
Si Si6 0.830262 0.698971 0.153012
Si Si7 0.670102 0.901519 0.386013
Si Si8 0.667538 0.199597 0.556456
O O1 0.749486 0.095149 0.942758
O O2 0.810012 0.068856 0.850856
O O3 0.000000 0.062446 0.922058
O O4 0.778389 0.000000 0.918021
O O5 0.500000 0.564081 0.308445
O O6 0.718221 0.500000 0.302704
O O7 0.704006 0.576773 0.242427
O O8 0.755104 0.595111 0.333400
O O9 0.500000 0.134247 0.061680
O O10 0.713487 0.187078 0.096496
O O11 0.693189 0.172364 0.000000
O O12 0.725732 0.050778 0.581761
O O13 0.500000 0.000000 0.552324
O O14 0.735161 0.000000 0.500000
O O15 0.272177 0.155001 0.188748
O O16 0.000000 0.127225 0.194581
O O17 0.750000 0.750000 0.168943
O O18 0.000000 0.705203 0.159943
O O19 0.500000 0.903553 0.379056
O O20 0.718183 0.849002 0.411950
O O21 0.704824 0.187824 0.500000
O O22 0.500000 0.209977 0.563463
O O23 0.750000 0.250000 0.575099
#
# Coordination Sequence:
#
# PCOD8268596 Si02
#       8
#    16  16  16   8  16  16  16  16
#     4   9  17  30  49  72  97 126 166 211 249 292
#     4  10  20  34  53  77 107 139 168 203 253 309
#     4   9  19  34  49  69 100 134 165 198 243 301
#     4   9  16  28  49  75 103 137 175 215 258 305
#     4   9  18  34  54  74  97 131 170 207 250 299
#     4  10  20  35  55  77 100 127 163 209 255 300
#     4  10  19  32  51  77 106 137 175 216 257 307
#     4   9  18  33  53  76 101 133 175 218 258 302
#
# _framework density 18.030214000000001
#
# number of rings (size 3 to 8) (size 9 to 14) (size 15 to 20)
#    0.000    2.600    0.667    1.200    0.000    5.867 
#    0.000    2.000    0.000    5.600    0.000    0.000 
#    0.000    0.000    0.000    0.000    0.000    0.000 
#
# Total GULP energy -744031.691319 kJ/mol
# GULP energy per Si atom -12400.528189 kJ/mol
# Density = 1.798918 g / cm^3
# Si number density = 18.030214 Si / 1000 Ang^3
#
#
#
# Elastic Constant Matrix: (Units=GPa)
#
#
# Indices 1 2 3 4 5 6 
#
# 1 45.8035 38.1964 22.7838 0.0000 0.0000 0.0000
# 2 38.1964 111.5649 26.4052 0.0000 0.0000 0.0000
# 3 22.7838 26.4052 80.1516 0.0000 0.0000 0.0000
# 4 0.0000 0.0000 0.0000 19.4183 0.0000 0.0000
# 5 0.0000 0.0000 0.0000 0.0000 27.3650 0.0000
# 6 0.0000 0.0000 0.0000 0.0000 0.0000 30.5888
#
#
#
# Elastic Compliance Matrix: (Units=1/GPa)
#
#
# Indices 1 2 3 4 5 6 
#
# 1 0.033145 -0.009889 -0.006164 0.000000 0.000000 0.000000
# 2 -0.009889 0.012672 -0.001364 0.000000 0.000000 0.000000
# 3 -0.006164 -0.001364 0.014678 0.000000 0.000000 0.000000
# 4 0.000000 0.000000 0.000000 0.051498 0.000000 0.000000
# 5 0.000000 0.000000 0.000000 0.000000 0.036543 0.000000
# 6 0.000000 0.000000 0.000000 0.000000 0.000000 0.032692
#
#
# Mechanical properties :
#
#
# Convention : Reuss Voigt Hill
#
# Bulk Modulus (GPa) = 38.96871 45.81009 42.38940
# Shear Modulus (GPa) = 22.26039 25.48339 23.87189
#
# Velocity S-wave (km/s) = 3.51752 3.76356 3.64262
# Velocity P-wave (km/s) = 6.17715 6.65946 6.42284
#
# Compressibility (1/GPa) = 0.02566161
#
# Stress axis : x y z
#
# Youngs Moduli (GPa) = 30.17034 78.91533 68.13038
#
# Poissons Ratio (x) = 0.78039 0.41995
# Poissons Ratio (y) = 0.29835 0.09290
# Poissons Ratio (z) = 0.18597 0.10761
#
# Static dielectric constant tensor:
#      x y z
#    x 3.202000 0.000000 0.000000 
#    y 0.000000 3.328030 0.000000 
#    z 0.000000 0.000000 3.316290 
# 
# 
# High freq. dielectric constant tensor:
#      x y z
#    x 1.686380 0.000000 0.000000 
#    y 0.000000 1.696350 0.000000 
#    z 0.000000 0.000000 1.694370 
# 
# From -- ./inp_files/73970.got.cif
#   From: 2010.03.12/outbox.cif.g09.slc.cpg/sg65_37_cif.got.tgz:73970.got - 2010.04.10 20:52:16.
