data_PCOD8268653
_publ_section_title
;
Structure prediction by ZEFSAII (Michael W. Deem and Ramdas Pophale) SiO2 
 PCOD8268653
Probable space group: C M M M
;
_chemical_formula_sum "Si O2"
_cell_formula_units_Z 88
_cell_length_a 9.097148
_cell_length_b 19.007357
_cell_length_c 28.064119
_cell_angle_alpha 90.000000
_cell_angle_beta 90.000000
_cell_angle_gamma 90.000000
_cell_volume 4852.643704
_symmetry_space_group_name_H-M "C M M M"
_symmetry_group_IT_number 65
_symmetry_cell_setting 'orthorhombic'
loop_
_space_group_symop_operation_xyz
x,y,z
-x,-y,z
x,-y,-z
-x,y,-z
-x,-y,-z
x,y,-z
-x,y,z
x,-y,z
1/2+x,1/2+y,z
1/2-x,1/2-y,z
1/2+x,1/2-y,-z
1/2-x,1/2+y,-z
1/2-x,1/2-y,-z
1/2+x,1/2+y,-z
1/2-x,1/2+y,z
1/2+x,1/2-y,z
loop_
_atom_site_type_symbol
_atom_site_label
_atom_site_fract_x
_atom_site_fract_y
_atom_site_fract_z
Si Si1 0.169005 0.322341 0.000000
Si Si2 0.330737 0.581381 0.286190
Si Si3 0.333620 0.581649 0.823487
Si Si4 0.825514 0.578525 0.447043
Si Si5 0.828319 0.675500 0.102894
Si Si6 0.174833 0.325236 0.638339
O O1 0.250000 0.250000 0.000000
O O2 0.207124 0.360348 0.050516
O O3 0.000000 0.302581 0.000000
O O4 0.500000 0.596471 0.299943
O O5 0.292367 0.500000 0.295945
O O6 0.302838 0.600648 0.231288
O O7 0.221785 0.629966 0.315987
O O8 0.500000 0.602097 0.837014
O O9 0.305846 0.500000 0.832319
O O10 0.222277 0.623243 0.856368
O O11 0.771484 0.600786 0.500000
O O12 0.766246 0.500000 0.434849
O O13 0.766152 0.634350 0.408739
O O14 0.000000 0.577076 0.445478
O O15 0.750000 0.750000 0.108671
O O16 0.000000 0.688674 0.109430
O O17 0.250000 0.250000 0.639777
O O18 0.000000 0.316232 0.638466
#
# Coordination Sequence:
#
# PCOD8268653 Si02
#       6
#     8  16  16  16  16  16
#     4   8  16  30  47  70  99 131 167 205 247 294
#     4   9  19  37  58  76  98 131 168 209 257 305
#     4   9  19  36  55  75 101 132 166 206 254 305
#     4   8  15  30  52  76 101 131 169 211 253 298
#     4  10  19  32  52  76 102 133 169 209 251 297
#     4  11  22  34  51  77 107 138 172 210 252 299
#
# _framework density 18.134446000000001
#
# number of rings (size 3 to 8) (size 9 to 14) (size 15 to 20)
#    0.000    2.727    0.000    3.273    0.000    4.000 
#    0.000    2.273    0.000    4.364    0.000    6.364 
#    0.000    0.000    0.000    0.000    0.000    0.000 
#
# Total GULP energy -545311.847195 kJ/mol
# GULP energy per Si atom -12393.451073 kJ/mol
# Density = 1.809317 g / cm^3
# Si number density = 18.134446 Si / 1000 Ang^3
#
#
#
# Elastic Constant Matrix: (Units=GPa)
#
#
# Indices 1 2 3 4 5 6 
#
# 1 69.6295 46.1838 54.8184 0.0000 0.0000 0.0000
# 2 46.1838 93.2499 74.5498 0.0000 0.0000 0.0000
# 3 54.8184 74.5498 131.4472 0.0000 0.0000 0.0000
# 4 0.0000 0.0000 0.0000 28.7186 0.0000 0.0000
# 5 0.0000 0.0000 0.0000 0.0000 22.4459 0.0000
# 6 0.0000 0.0000 0.0000 0.0000 0.0000 21.4644
#
#
#
# Elastic Compliance Matrix: (Units=1/GPa)
#
#
# Indices 1 2 3 4 5 6 
#
# 1 0.023642 -0.007001 -0.005889 0.000000 0.000000 0.000000
# 2 -0.007001 0.021693 -0.009383 0.000000 0.000000 0.000000
# 3 -0.005889 -0.009383 0.015385 0.000000 0.000000 0.000000
# 4 0.000000 0.000000 0.000000 0.034821 0.000000 0.000000
# 5 0.000000 0.000000 0.000000 0.000000 0.044552 0.000000
# 6 0.000000 0.000000 0.000000 0.000000 0.000000 0.046589
#
#
# Mechanical properties :
#
#
# Convention : Reuss Voigt Hill
#
# Bulk Modulus (GPa) = 61.83045 71.71452 66.77249
# Shear Modulus (GPa) = 21.13110 22.44409 21.78760
#
# Velocity S-wave (km/s) = 3.41727 3.52184 3.46995
# Velocity P-wave (km/s) = 7.05266 7.49464 7.27701
#
# Compressibility (1/GPa) = 0.01617326
#
# Stress axis : x y z
#
# Youngs Moduli (GPa) = 42.29845 46.09796 64.99740
#
# Poissons Ratio (x) = 0.32273 0.38276
# Poissons Ratio (y) = 0.29613 0.60990
# Poissons Ratio (z) = 0.24909 0.43255
#
# Static dielectric constant tensor:
#      x y z
#    x 3.150100 0.000000 0.000000 
#    y 0.000000 3.182530 0.000000 
#    z 0.000000 0.000000 3.769630 
# 
# 
# High freq. dielectric constant tensor:
#      x y z
#    x 1.690070 0.000000 0.000000 
#    y 0.000000 1.685870 0.000000 
#    z 0.000000 0.000000 1.720380 
# 
# From -- ./inp_files/73186.got.cif
#   From: 2010.03.12/outbox.cif.g09.slc.cpg/sg65_37_cif.got.tgz:73186.got - 2010.04.10 20:52:16.
