data_PCOD8268688
_publ_section_title
;
Structure prediction by ZEFSAII (Michael W. Deem and Ramdas Pophale) SiO2 
 PCOD8268688
Probable space group: C M M M
;
_chemical_formula_sum "Si O2"
_cell_formula_units_Z 96
_cell_length_a 19.278809
_cell_length_b 31.325700
_cell_length_c 8.636572
_cell_angle_alpha 90.000000
_cell_angle_beta 90.000000
_cell_angle_gamma 90.000000
_cell_volume 5215.817451
_symmetry_space_group_name_H-M "C M M M"
_symmetry_group_IT_number 65
_symmetry_cell_setting 'orthorhombic'
loop_
_space_group_symop_operation_xyz
x,y,z
-x,-y,z
x,-y,-z
-x,y,-z
-x,-y,-z
x,y,-z
-x,y,z
x,-y,z
1/2+x,1/2+y,z
1/2-x,1/2-y,z
1/2+x,1/2-y,-z
1/2-x,1/2+y,-z
1/2-x,1/2-y,-z
1/2+x,1/2+y,-z
1/2-x,1/2+y,z
1/2+x,1/2-y,z
loop_
_atom_site_type_symbol
_atom_site_label
_atom_site_fract_x
_atom_site_fract_y
_atom_site_fract_z
Si Si1 0.160247 0.955054 0.672680
Si Si2 0.919242 0.792785 0.178808
Si Si3 0.420534 0.795848 0.320276
Si Si4 0.324903 0.046606 0.326690
Si Si5 0.326064 0.635697 0.683579
Si Si6 0.175365 0.633548 0.180175
O O1 0.129613 0.957321 0.500000
O O2 0.242636 0.954021 0.667394
O O3 0.138842 0.909216 0.746599
O O4 0.136655 0.000000 0.758108
O O5 0.895157 0.745376 0.224529
O O6 0.878097 0.826328 0.282194
O O7 0.000000 0.798782 0.216348
O O8 0.902174 0.800819 0.000000
O O9 0.410761 0.785332 0.500000
O O10 0.500000 0.806660 0.279884
O O11 0.375037 0.836018 0.274670
O O12 0.353681 0.055008 0.500000
O O13 0.348620 0.084863 0.214635
O O14 0.351676 0.000000 0.266814
O O15 0.312253 0.632108 0.500000
O O16 0.253569 0.643691 0.768482
O O17 0.167437 0.642866 0.000000
#
# Coordination Sequence:
#
# PCOD8268688 Si02
#       6
#    16  16  16  16  16  16
#     4   7  11  22  42  68  96 126 161 202 243 280
#     4  10  21  37  55  75 101 131 164 206 259 313
#     4  10  21  38  58  76  96 128 171 211 249 302
#     4   8  14  27  47  70  99 135 172 207 244 291
#     4  10  19  32  52  77 104 134 172 212 249 295
#     4  11  21  32  50  78 110 137 165 206 257 304
#
# _framework density 18.405552
#
# number of rings (size 3 to 8) (size 9 to 14) (size 15 to 20)
#    0.000    2.667    0.000    5.000    0.000    3.000 
#    0.000    3.333    0.000    2.500    0.000    7.000 
#    0.000    0.000    0.000    0.000    0.000    0.000 
#
# Total GULP energy -594688.675612 kJ/mol
# GULP energy per Si atom -12389.347409 kJ/mol
# Density = 1.836366 g / cm^3
# Si number density = 18.405552 Si / 1000 Ang^3
#
#
#
# Elastic Constant Matrix: (Units=GPa)
#
#
# Indices 1 2 3 4 5 6 
#
# 1 38.3113 43.9488 11.6538 0.0000 0.0000 0.0000
# 2 43.9488 138.1858 11.9111 0.0000 0.0000 0.0000
# 3 11.6538 11.9111 40.5294 0.0000 0.0000 0.0000
# 4 0.0000 0.0000 0.0000 22.5480 0.0000 0.0000
# 5 0.0000 0.0000 0.0000 0.0000 20.6794 0.0000
# 6 0.0000 0.0000 0.0000 0.0000 0.0000 -14.2637
#
#
#
# Elastic Compliance Matrix: (Units=1/GPa)
#
#
# Indices 1 2 3 4 5 6 
#
# 1 0.043922 -0.013215 -0.008746 0.000000 0.000000 0.000000
# 2 -0.013215 0.011401 0.000449 0.000000 0.000000 0.000000
# 3 -0.008746 0.000449 0.027056 0.000000 0.000000 0.000000
# 4 0.000000 0.000000 0.000000 0.044350 0.000000 0.000000
# 5 0.000000 0.000000 0.000000 0.000000 0.048357 0.000000
# 6 0.000000 0.000000 0.000000 0.000000 0.000000 -0.070108
#
#
# Mechanical properties :
#
#
# Convention : Reuss Voigt Hill
#
# Bulk Modulus (GPa) = 25.40898 39.11710 32.26304
# Shear Modulus (GPa) = 31.03285 15.76027 23.39656
#
# Velocity S-wave (km/s) = 4.11062 2.92940 3.56921
# Velocity P-wave (km/s) = 6.03031 5.72196 5.87816
#
# Compressibility (1/GPa) = 0.03935617
#
# Stress axis : x y z
#
# Youngs Moduli (GPa) = 22.76760 87.71248 36.96026
#
# Poissons Ratio (x) = 1.15914 0.32324
# Poissons Ratio (y) = 0.30088 -0.01661
# Poissons Ratio (z) = 0.19912 -0.03941
#
# Static dielectric constant tensor:
#      x y z
#    x 2.947340 0.000000 0.000000 
#    y 0.000000 4.105990 0.000000 
#    z 0.000000 0.000000 3.237910 
# 
# 
# High freq. dielectric constant tensor:
#      x y z
#    x 1.663740 0.000000 0.000000 
#    y 0.000000 1.742340 0.000000 
#    z 0.000000 0.000000 1.699270 
# 
# From -- ./inp_files/12187.got.cif
#   From: 2010.03.12/outbox.cif.g09.slc.cpg/sg65_7_cif.got.tgz:12187.got - 2010.04.10 20:52:16.
