data_PCOD8268800
_publ_section_title
;
Structure prediction by ZEFSAII (Michael W. Deem and Ramdas Pophale) SiO2 
 PCOD8268800
Probable space group: C M M M
;
_chemical_formula_sum "Si O2"
_cell_formula_units_Z 72
_cell_length_a 23.900694
_cell_length_b 17.912702
_cell_length_c 9.082894
_cell_angle_alpha 90.000000
_cell_angle_beta 90.000000
_cell_angle_gamma 90.000000
_cell_volume 3888.623160
_symmetry_space_group_name_H-M "C M M M"
_symmetry_group_IT_number 65
_symmetry_cell_setting 'orthorhombic'
loop_
_space_group_symop_operation_xyz
x,y,z
-x,-y,z
x,-y,-z
-x,y,-z
-x,-y,-z
x,y,-z
-x,y,z
x,-y,z
1/2+x,1/2+y,z
1/2-x,1/2-y,z
1/2+x,1/2-y,-z
1/2-x,1/2+y,-z
1/2-x,1/2-y,-z
1/2+x,1/2+y,-z
1/2-x,1/2+y,z
1/2+x,1/2-y,z
loop_
_atom_site_type_symbol
_atom_site_label
_atom_site_fract_x
_atom_site_fract_y
_atom_site_fract_z
Si Si1 0.933985 0.500000 0.166030
Si Si2 0.562971 0.292679 0.324900
Si Si3 0.118562 0.361052 0.325874
Si Si4 0.351973 0.416371 0.324372
Si Si5 0.756819 0.332958 0.325377
O O1 0.913709 0.573098 0.248365
O O2 0.000000 0.500000 0.168360
O O3 0.910762 0.500000 0.000000
O O4 0.561949 0.293883 0.500000
O O5 0.500000 0.297196 0.261244
O O6 0.592589 0.217024 0.270514
O O7 0.598151 0.363485 0.265399
O O8 0.111408 0.369727 0.500000
O O9 0.183395 0.365972 0.278294
O O10 0.351460 0.416384 0.500000
O O11 0.361453 0.500000 0.263388
O O12 0.292495 0.385875 0.264274
O O13 0.752469 0.327882 0.500000
O O14 0.750000 0.250000 0.258883
#
# Coordination Sequence:
#
# PCOD8268800 Si02
#       5
#     8  16  16  16  16
#     4  11  25  41  53  71 105 141 170 211 268 320
#     4   9  16  26  41  64  95 130 167 207 248 292
#     4  10  19  32  54  79 100 130 174 217 253 301
#     4   9  16  24  36  61  99 136 165 197 246 304
#     4   9  15  26  44  70 101 129 162 207 256 297
#
# _framework density 18.515550000000001
#
# number of rings (size 3 to 8) (size 9 to 14) (size 15 to 20)
#    0.000    2.556    2.222    1.000    1.556    2.222 
#    0.000    2.222    0.000    0.667    0.000    0.000 
#    0.000    0.000    0.000    4.667    0.000    4.444 
#
# Total GULP energy -446310.884240 kJ/mol
# GULP energy per Si atom -12397.524562 kJ/mol
# Density = 1.847341 g / cm^3
# Si number density = 18.515550 Si / 1000 Ang^3
#
#
#
# Elastic Constant Matrix: (Units=GPa)
#
#
# Indices 1 2 3 4 5 6 
#
# 1 159.6423 82.3794 19.0138 0.0000 0.0000 0.0000
# 2 82.3794 179.2231 23.6750 0.0000 0.0000 0.0000
# 3 19.0138 23.6750 18.6847 0.0000 0.0000 0.0000
# 4 0.0000 0.0000 0.0000 -3.7991 0.0000 0.0000
# 5 0.0000 0.0000 0.0000 0.0000 6.5940 0.0000
# 6 0.0000 0.0000 0.0000 0.0000 0.0000 36.0736
#
#
#
# Elastic Compliance Matrix: (Units=1/GPa)
#
#
# Indices 1 2 3 4 5 6 
#
# 1 0.008509 -0.003324 -0.004447 0.000000 0.000000 0.000000
# 2 -0.003324 0.007999 -0.006754 0.000000 0.000000 0.000000
# 3 -0.004447 -0.006754 0.066603 0.000000 0.000000 0.000000
# 4 0.000000 0.000000 0.000000 -0.263224 0.000000 0.000000
# 5 0.000000 0.000000 0.000000 0.000000 0.151652 0.000000
# 6 0.000000 0.000000 0.000000 0.000000 0.000000 0.027721
#
#
# Mechanical properties :
#
#
# Convention : Reuss Voigt Hill
#
# Bulk Modulus (GPa) = 18.49735 67.52070 43.00903
# Shear Modulus (GPa) = 107.91849 23.27251 65.59550
#
# Velocity S-wave (km/s) = 7.64277 3.54915 5.95854
# Velocity P-wave (km/s) = 9.37520 7.30352 8.40345
#
# Compressibility (1/GPa) = 0.05406179
#
# Stress axis : x y z
#
# Youngs Moduli (GPa) = 117.52657 125.00849 15.01427
#
# Poissons Ratio (x) = 0.41547 0.06677
# Poissons Ratio (y) = 0.39060 0.10141
# Poissons Ratio (z) = 0.52269 0.84430
#
# Static dielectric constant tensor:
#      x y z
#    x 3.734760 0.000000 0.000000 
#    y 0.000000 3.590710 0.000000 
#    z 0.000000 0.000000 2.668630 
# 
# 
# High freq. dielectric constant tensor:
#      x y z
#    x 1.737330 0.000000 0.000000 
#    y 0.000000 1.732260 0.000000 
#    z 0.000000 0.000000 1.631900 
# 
# From -- ./inp_files/9243.got.cif
#   From: 2010.03.12/outbox.cif.g09.slc.cpg/sg65_5_cif.got.tgz:9243.got - 2010.04.10 20:52:16.
