data_PCOD8268063
_publ_section_title
;
Structure prediction by ZEFSAII (Michael W. Deem and Ramdas Pophale) SiO2 
 PCOD8268063
Probable space group: C M M M
;
_chemical_formula_sum "Si O2"
_cell_formula_units_Z 96
_cell_length_a 24.887048
_cell_length_b 9.351887
_cell_length_c 21.932368
_cell_angle_alpha 90.000000
_cell_angle_beta 90.000000
_cell_angle_gamma 90.000000
_cell_volume 5104.558205
_symmetry_space_group_name_H-M "C M M M"
_symmetry_group_IT_number 65
_symmetry_cell_setting 'orthorhombic'
loop_
_space_group_symop_operation_xyz
x,y,z
-x,-y,z
x,-y,-z
-x,y,-z
-x,-y,-z
x,y,-z
-x,y,z
x,-y,z
1/2+x,1/2+y,z
1/2-x,1/2-y,z
1/2+x,1/2-y,-z
1/2-x,1/2+y,-z
1/2-x,1/2-y,-z
1/2+x,1/2+y,-z
1/2-x,1/2+y,z
1/2+x,1/2-y,z
loop_
_atom_site_type_symbol
_atom_site_label
_atom_site_fract_x
_atom_site_fract_y
_atom_site_fract_z
Si Si1 0.197612 0.665917 0.930846
Si Si2 0.000000 0.664873 0.212382
Si Si3 0.586908 0.670140 0.433042
Si Si4 0.617237 0.834481 0.173822
Si Si5 0.500000 0.329500 0.661318
Si Si6 0.801646 0.836640 0.249206
Si Si7 0.799815 0.838569 0.606479
O O1 0.212125 0.500000 0.926575
O O2 0.250000 0.750000 0.906484
O O3 0.144859 0.703116 0.890961
O O4 0.183994 0.712084 0.000000
O O5 0.946755 0.699074 0.172072
O O6 0.000000 0.759372 0.272830
O O7 0.000000 0.500000 0.232713
O O8 0.566201 0.720222 0.500000
O O9 0.586576 0.500000 0.429747
O O10 0.550467 0.727096 0.377983
O O11 0.646891 0.728608 0.423057
O O12 0.644017 0.735841 0.225153
O O13 0.627294 0.000000 0.190766
O O14 0.500000 0.500000 0.669846
O O15 0.750000 0.750000 0.224251
O O16 0.804693 0.829299 0.321277
O O17 0.797587 0.000000 0.226099
O O18 0.750000 0.750000 0.581082
O O19 0.791452 0.000000 0.584606
#
# Coordination Sequence:
#
# PCOD8268063 Si02
#       7
#    16   8  16  16   8  16  16
#     4   9  18  33  53  77 104 133 166 205 247 290
#     4  10  22  37  52  73 104 138 167 204 256 302
#     4   9  17  30  50  74  96 120 156 203 249 292
#     4  10  20  34  51  73 102 135 171 208 249 298
#     4  10  19  34  56  77  95 121 163 210 252 298
#     4  10  19  31  49  74 102 131 165 207 254 302
#     4   9  18  31  46  67  96 127 158 194 240 295
#
# _framework density 18.806719999999999
#
# number of rings (size 3 to 8) (size 9 to 14) (size 15 to 20)
#    0.000    2.500    0.000    2.250    0.000    6.000 
#    0.000    1.250    0.000    4.500    0.000    0.000 
#    0.000    4.667    0.000    0.000    0.000    0.000 
#
# Total GULP energy -595076.535861 kJ/mol
# GULP energy per Si atom -12397.427830 kJ/mol
# Density = 1.876392 g / cm^3
# Si number density = 18.806720 Si / 1000 Ang^3
#
#
#
# Elastic Constant Matrix: (Units=GPa)
#
#
# Indices 1 2 3 4 5 6 
#
# 1 163.6116 48.3286 59.0089 0.0000 0.0000 0.0000
# 2 48.3286 60.2492 29.1404 0.0000 0.0000 0.0000
# 3 59.0089 29.1404 79.1769 0.0000 0.0000 0.0000
# 4 0.0000 0.0000 0.0000 17.8464 0.0000 0.0000
# 5 0.0000 0.0000 0.0000 0.0000 28.4243 0.0000
# 6 0.0000 0.0000 0.0000 0.0000 0.0000 27.7986
#
#
#
# Elastic Compliance Matrix: (Units=1/GPa)
#
#
# Indices 1 2 3 4 5 6 
#
# 1 0.009494 -0.005101 -0.005198 0.000000 0.000000 0.000000
# 2 -0.005101 0.022933 -0.004639 0.000000 0.000000 0.000000
# 3 -0.005198 -0.004639 0.018211 0.000000 0.000000 0.000000
# 4 0.000000 0.000000 0.000000 0.056034 0.000000 0.000000
# 5 0.000000 0.000000 0.000000 0.000000 0.035181 0.000000
# 6 0.000000 0.000000 0.000000 0.000000 0.000000 0.035973
#
#
# Mechanical properties :
#
#
# Convention : Reuss Voigt Hill
#
# Bulk Modulus (GPa) = 48.16389 63.99926 56.08157
# Shear Modulus (GPa) = 23.29682 25.91785 24.60733
#
# Velocity S-wave (km/s) = 3.52341 3.71633 3.62115
# Velocity P-wave (km/s) = 6.49754 7.24697 6.88247
#
# Compressibility (1/GPa) = 0.02076244
#
# Stress axis : x y z
#
# Youngs Moduli (GPa) = 105.33471 43.60515 54.91183
#
# Poissons Ratio (x) = 0.22244 0.28543
# Poissons Ratio (y) = 0.53733 0.25471
# Poissons Ratio (z) = 0.54752 0.20226
#
# Static dielectric constant tensor:
#      x y z
#    x 3.713260 0.000000 0.000000 
#    y 0.000000 3.335640 0.000000 
#    z 0.000000 0.000000 3.421970 
# 
# 
# High freq. dielectric constant tensor:
#      x y z
#    x 1.736310 0.000000 0.000000 
#    y 0.000000 1.706300 0.000000 
#    z 0.000000 0.000000 1.726050 
# 
# From -- ./inp_files/71454.got.cif
#   From: 2010.03.12/outbox.cif.g09.slc.cpg/sg65_36_cif.got.tgz:71454.got - 2010.04.10 20:52:16.
