data_PCOD8268263
_publ_section_title
;
Structure prediction by ZEFSAII (Michael W. Deem and Ramdas Pophale) SiO2 
 PCOD8268263
Probable space group: C M M M
;
_chemical_formula_sum "Si O2"
_cell_formula_units_Z 104
_cell_length_a 20.088878
_cell_length_b 32.603545
_cell_length_c 8.785622
_cell_angle_alpha 90.000000
_cell_angle_beta 90.000000
_cell_angle_gamma 90.000000
_cell_volume 5754.306874
_symmetry_space_group_name_H-M "C M M M"
_symmetry_group_IT_number 65
_symmetry_cell_setting 'orthorhombic'
loop_
_space_group_symop_operation_xyz
x,y,z
-x,-y,z
x,-y,-z
-x,y,-z
-x,-y,-z
x,y,-z
-x,y,z
x,-y,z
1/2+x,1/2+y,z
1/2-x,1/2-y,z
1/2+x,1/2-y,-z
1/2-x,1/2+y,-z
1/2-x,1/2-y,-z
1/2+x,1/2+y,-z
1/2-x,1/2+y,z
1/2+x,1/2-y,z
loop_
_atom_site_type_symbol
_atom_site_label
_atom_site_fract_x
_atom_site_fract_y
_atom_site_fract_z
Si Si1 0.426938 0.500000 0.820003
Si Si2 0.851566 0.367843 0.680322
Si Si3 0.184099 0.455679 0.320511
Si Si4 0.822621 0.766591 0.321793
Si Si5 0.576915 0.203457 0.176338
Si Si6 0.321166 0.436246 0.175398
Si Si7 0.786463 0.153402 0.823937
O O1 0.500000 0.500000 0.743098
O O2 0.387631 0.540876 0.767259
O O3 0.434795 0.500000 0.000000
O O4 0.860379 0.364001 0.500000
O O5 0.856152 0.415485 0.738398
O O6 0.909610 0.342563 0.762920
O O7 0.780729 0.348370 0.725153
O O8 0.184190 0.453409 0.500000
O O9 0.153398 0.500000 0.266904
O O10 0.259788 0.453819 0.268547
O O11 0.830104 0.774006 0.500000
O O12 0.750000 0.750000 0.277905
O O13 0.879229 0.735496 0.269414
O O14 0.832407 0.809539 0.234381
O O15 0.500000 0.214058 0.203424
O O16 0.596244 0.205950 0.000000
O O17 0.329800 0.387660 0.200391
O O18 0.306828 0.446692 0.000000
O O19 0.766833 0.159448 0.000000
#
# Coordination Sequence:
#
# PCOD8268263 Si02
#       7
#     8  16  16  16  16  16  16
#     4   9  16  28  47  69  97 135 176 215 254 303
#     4  10  19  32  52  79 108 140 177 215 263 319
#     4   9  17  29  48  75 106 135 166 212 264 310
#     4  11  22  36  57  83 109 141 180 222 267 321
#     4  11  24  40  58  81 109 142 179 221 271 325
#     4   9  17  29  46  71 100 132 173 217 262 309
#     4  10  19  31  51  78 107 137 173 223 272 313
#
# _framework density 18.073419999999999
#
# number of rings (size 3 to 8) (size 9 to 14) (size 15 to 20)
#    0.000    2.077    2.308    1.846    0.000    3.077 
#    0.000    0.769    0.000    4.154    0.000    3.231 
#    0.000    0.000    0.000    0.000    0.000    0.000 
#
# Total GULP energy -644633.222831 kJ/mol
# GULP energy per Si atom -12396.792747 kJ/mol
# Density = 1.803228 g / cm^3
# Si number density = 18.073420 Si / 1000 Ang^3
#
#
#
# Elastic Constant Matrix: (Units=GPa)
#
#
# Indices 1 2 3 4 5 6 
#
# 1 64.7378 35.1500 18.0899 0.0000 0.0000 0.0000
# 2 35.1500 135.9823 30.8040 0.0000 0.0000 0.0000
# 3 18.0899 30.8040 35.6694 0.0000 0.0000 0.0000
# 4 0.0000 0.0000 0.0000 23.8095 0.0000 0.0000
# 5 0.0000 0.0000 0.0000 0.0000 9.7915 0.0000
# 6 0.0000 0.0000 0.0000 0.0000 0.0000 24.3053
#
#
#
# Elastic Compliance Matrix: (Units=1/GPa)
#
#
# Indices 1 2 3 4 5 6 
#
# 1 0.019202 -0.003428 -0.006778 0.000000 0.000000 0.000000
# 2 -0.003428 0.009754 -0.006685 0.000000 0.000000 0.000000
# 3 -0.006778 -0.006685 0.037246 0.000000 0.000000 0.000000
# 4 0.000000 0.000000 0.000000 0.042000 0.000000 0.000000
# 5 0.000000 0.000000 0.000000 0.000000 0.102130 0.000000
# 6 0.000000 0.000000 0.000000 0.000000 0.000000 0.041143
#
#
# Mechanical properties :
#
#
# Convention : Reuss Voigt Hill
#
# Bulk Modulus (GPa) = 30.84516 44.94192 37.89354
# Shear Modulus (GPa) = 16.88815 21.73762 19.31288
#
# Velocity S-wave (km/s) = 3.06014 3.47182 3.27246
# Velocity P-wave (km/s) = 5.43963 6.40247 5.94059
#
# Compressibility (1/GPa) = 0.03241999
#
# Stress axis : x y z
#
# Youngs Moduli (GPa) = 52.07713 102.51711 26.84845
#
# Poissons Ratio (x) = 0.35145 0.18198
# Poissons Ratio (y) = 0.17853 0.17949
# Poissons Ratio (z) = 0.35297 0.68536
#
# Static dielectric constant tensor:
#      x y z
#    x 3.085930 0.000000 0.000000 
#    y 0.000000 3.972440 0.000000 
#    z 0.000000 0.000000 3.318530 
# 
# 
# High freq. dielectric constant tensor:
#      x y z
#    x 1.657580 0.000000 0.000000 
#    y 0.000000 1.721770 0.000000 
#    z 0.000000 0.000000 1.699450 
# 
# From -- ./inp_files/12787.got.cif
#   From: 2010.03.12/outbox.cif.g09.slc.cpg/sg65_7_cif.got.tgz:12787.got - 2010.04.10 20:52:16.
