data_PCOD8268804
_publ_section_title
;
Structure prediction by ZEFSAII (Michael W. Deem and Ramdas Pophale) SiO2 
 PCOD8268804
Probable space group: C M M M
;
_chemical_formula_sum "Si O2"
_cell_formula_units_Z 72
_cell_length_a 28.754821
_cell_length_b 13.919528
_cell_length_c 9.231854
_cell_angle_alpha 90.000000
_cell_angle_beta 90.000000
_cell_angle_gamma 90.000000
_cell_volume 3695.082208
_symmetry_space_group_name_H-M "C M M M"
_symmetry_group_IT_number 65
_symmetry_cell_setting 'orthorhombic'
loop_
_space_group_symop_operation_xyz
x,y,z
-x,-y,z
x,-y,-z
-x,y,-z
-x,-y,-z
x,y,-z
-x,y,z
x,-y,z
1/2+x,1/2+y,z
1/2-x,1/2-y,z
1/2+x,1/2-y,-z
1/2-x,1/2+y,-z
1/2-x,1/2-y,-z
1/2+x,1/2+y,-z
1/2-x,1/2+y,z
1/2+x,1/2-y,z
loop_
_atom_site_type_symbol
_atom_site_label
_atom_site_fract_x
_atom_site_fract_y
_atom_site_fract_z
Si Si1 0.822705 0.393888 0.171203
Si Si2 0.500000 0.891644 0.828057
Si Si3 0.869025 0.111409 0.668930
Si Si4 0.410357 0.225238 0.171896
Si Si5 0.221355 0.885898 0.839139
O O1 0.827443 0.500000 0.241381
O O2 0.864445 0.328926 0.229954
O O3 0.772342 0.345715 0.209269
O O4 0.827361 0.403638 0.000000
O O5 0.454729 0.834633 0.773418
O O6 0.500000 0.000000 0.764008
O O7 0.500000 0.897776 0.000000
O O8 0.870640 0.133449 0.500000
O O9 0.909496 0.170745 0.750703
O O10 0.818587 0.144766 0.728041
O O11 0.878055 0.000000 0.703361
O O12 0.411445 0.239916 0.000000
O O13 0.227152 0.000000 0.845942
O O14 0.207799 0.847094 0.000000
#
# Coordination Sequence:
#
# PCOD8268804 Si02
#       5
#    16   8  16  16  16
#     4   8  14  26  47  76 106 134 166 204 247 299
#     4   9  18  34  58  87 112 130 155 199 254 305
#     4  10  21  36  51  69  99 138 175 212 254 297
#     4  10  19  32  54  80 103 131 168 208 250 299
#     4   8  14  27  48  72  99 133 171 208 246 292
#
# _framework density 19.485358000000002
#
# number of rings (size 3 to 8) (size 9 to 14) (size 15 to 20)
#    0.000    3.000    0.000    2.667    0.000    4.889 
#    0.000    6.667    0.000    8.000    0.000    0.000 
#    0.000    0.000    0.000    0.000    0.000    0.000 
#
# Total GULP energy -446255.211267 kJ/mol
# GULP energy per Si atom -12395.978091 kJ/mol
# Density = 1.944101 g / cm^3
# Si number density = 19.485358 Si / 1000 Ang^3
#
#
#
# Elastic Constant Matrix: (Units=GPa)
#
#
# Indices 1 2 3 4 5 6 
#
# 1 134.5192 78.9508 41.5154 0.0000 0.0000 0.0000
# 2 78.9508 93.5146 43.8833 0.0000 0.0000 0.0000
# 3 41.5154 43.8833 54.6588 0.0000 0.0000 0.0000
# 4 0.0000 0.0000 0.0000 18.2800 0.0000 0.0000
# 5 0.0000 0.0000 0.0000 0.0000 3.2889 0.0000
# 6 0.0000 0.0000 0.0000 0.0000 0.0000 31.6413
#
#
#
# Elastic Compliance Matrix: (Units=1/GPa)
#
#
# Indices 1 2 3 4 5 6 
#
# 1 0.014864 -0.011634 -0.001949 0.000000 0.000000 0.000000
# 2 -0.011634 0.026264 -0.012250 0.000000 0.000000 0.000000
# 3 -0.001949 -0.012250 0.029610 0.000000 0.000000 0.000000
# 4 0.000000 0.000000 0.000000 0.054705 0.000000 0.000000
# 5 0.000000 0.000000 0.000000 0.000000 0.304050 0.000000
# 6 0.000000 0.000000 0.000000 0.000000 0.000000 0.031604
#
#
# Mechanical properties :
#
#
# Convention : Reuss Voigt Hill
#
# Bulk Modulus (GPa) = 52.43157 67.93240 60.18199
# Shear Modulus (GPa) = 9.63167 18.53159 14.08163
#
# Velocity S-wave (km/s) = 2.22571 3.08726 2.69118
# Velocity P-wave (km/s) = 5.79410 6.90270 6.37255
#
# Compressibility (1/GPa) = 0.01907248
#
# Stress axis : x y z
#
# Youngs Moduli (GPa) = 67.27842 38.07443 33.77187
#
# Poissons Ratio (x) = 0.44297 0.06581
# Poissons Ratio (y) = 0.78274 0.41370
# Poissons Ratio (z) = 0.13111 0.46641
#
# Static dielectric constant tensor:
#      x y z
#    x 3.673440 0.000000 0.000000 
#    y 0.000000 3.745700 0.000000 
#    z 0.000000 0.000000 3.044310 
# 
# 
# High freq. dielectric constant tensor:
#      x y z
#    x 1.750690 0.000000 0.000000 
#    y 0.000000 1.770890 0.000000 
#    z 0.000000 0.000000 1.701720 
# 
# From -- ./inp_files/7213.got.cif
#   From: 2010.03.12/outbox.cif.g09.slc.cpg/sg65_4_cif.got.tgz:7213.got - 2010.04.10 20:52:16.
