data_PCOD8268331
_publ_section_title
;
Structure prediction by ZEFSAII (Michael W. Deem and Ramdas Pophale) SiO2 
 PCOD8268331
Probable space group: C M M M
;
_chemical_formula_sum "Si O2"
_cell_formula_units_Z 88
_cell_length_a 21.834310
_cell_length_b 17.547326
_cell_length_c 15.658164
_cell_angle_alpha 90.000000
_cell_angle_beta 90.000000
_cell_angle_gamma 90.000000
_cell_volume 5999.171178
_symmetry_space_group_name_H-M "C M M M"
_symmetry_group_IT_number 65
_symmetry_cell_setting 'orthorhombic'
loop_
_space_group_symop_operation_xyz
x,y,z
-x,-y,z
x,-y,-z
-x,y,-z
-x,-y,-z
x,y,-z
-x,y,z
x,-y,z
1/2+x,1/2+y,z
1/2-x,1/2-y,z
1/2+x,1/2-y,-z
1/2-x,1/2+y,-z
1/2-x,1/2-y,-z
1/2+x,1/2+y,-z
1/2-x,1/2+y,z
1/2+x,1/2-y,z
loop_
_atom_site_type_symbol
_atom_site_label
_atom_site_fract_x
_atom_site_fract_y
_atom_site_fract_z
Si Si1 0.121318 0.328796 0.099672
Si Si2 0.927778 0.082949 0.500000
Si Si3 0.000000 0.414571 0.101347
Si Si4 0.136871 0.162820 0.158856
Si Si5 0.754484 0.586948 0.900867
Si Si6 0.070700 0.090607 0.314959
Si Si7 0.572361 0.412980 0.000000
O O1 0.131783 0.253572 0.154976
O O2 0.176651 0.386552 0.116463
O O3 0.059913 0.369633 0.132856
O O4 0.116700 0.306403 0.000000
O O5 0.910193 0.122772 0.590195
O O6 0.000000 0.071085 0.500000
O O7 0.896278 0.000000 0.500000
O O8 0.000000 0.500000 0.140089
O O9 0.000000 0.420132 0.000000
O O10 0.207742 0.139176 0.151628
O O11 0.113032 0.135207 0.249661
O O12 0.096708 0.125882 0.084799
O O13 0.748476 0.500000 0.870516
O O14 0.737235 0.595474 0.000000
O O15 0.000000 0.109147 0.294692
O O16 0.081811 0.000000 0.308601
O O17 0.594738 0.500000 0.000000
O O18 0.500000 0.405877 0.000000
#
# Coordination Sequence:
#
# PCOD8268331 Si02
#       7
#    16   8   8  16  16  16   8
#     4  10  20  31  45  62  85 115 153 193 230 259
#     4   7  12  26  44  60  81 112 150 191 220 251
#     4   9  18  32  48  62  78 109 156 199 231 258
#     4  12  20  28  43  63  92 118 149 180 223 263
#     4  10  19  32  46  59  82 118 160 194 220 258
#     4   9  17  28  43  63  88 119 154 184 218 261
#     4  11  22  30  37  54  90 131 158 171 197 255
#
# _framework density 14.668692999999999
#
# number of rings (size 3 to 8) (size 9 to 14) (size 15 to 20)
#    0.000    2.091    1.818    4.364    2.545    5.091 
#    0.000    0.000    0.000    0.000    0.000    2.545 
#    0.000    0.000    0.000    3.273    0.000    0.000 
#
# Total GULP energy -545489.485215 kJ/mol
# GULP energy per Si atom -12397.488300 kJ/mol
# Density = 1.463531 g / cm^3
# Si number density = 14.668693 Si / 1000 Ang^3
#
#
#
# Elastic Constant Matrix: (Units=GPa)
#
#
# Indices 1 2 3 4 5 6 
#
# 1 96.6366 46.1377 33.5377 0.0000 0.0000 0.0000
# 2 46.1377 92.2722 26.1603 0.0000 0.0000 0.0000
# 3 33.5377 26.1603 80.9783 0.0000 0.0000 0.0000
# 4 0.0000 0.0000 0.0000 6.1754 0.0000 0.0000
# 5 0.0000 0.0000 0.0000 0.0000 14.4943 0.0000
# 6 0.0000 0.0000 0.0000 0.0000 0.0000 13.4461
#
#
#
# Elastic Compliance Matrix: (Units=1/GPa)
#
#
# Indices 1 2 3 4 5 6 
#
# 1 0.014732 -0.006205 -0.004097 0.000000 0.000000 0.000000
# 2 -0.006205 0.014544 -0.002129 0.000000 0.000000 0.000000
# 3 -0.004097 -0.002129 0.014733 0.000000 0.000000 0.000000
# 4 0.000000 0.000000 0.000000 0.161932 0.000000 0.000000
# 5 0.000000 0.000000 0.000000 0.000000 0.068993 0.000000
# 6 0.000000 0.000000 0.000000 0.000000 0.000000 0.074371
#
#
# Mechanical properties :
#
#
# Convention : Reuss Voigt Hill
#
# Bulk Modulus (GPa) = 52.22352 53.50648 52.86500
# Shear Modulus (GPa) = 13.13892 17.75992 15.44942
#
# Velocity S-wave (km/s) = 2.99609 3.48334 3.24886
# Velocity P-wave (km/s) = 6.90276 7.26182 7.08456
#
# Compressibility (1/GPa) = 0.01914846
#
# Stress axis : x y z
#
# Youngs Moduli (GPa) = 67.87793 68.75918 67.87293
#
# Poissons Ratio (x) = 0.42664 0.27807
# Poissons Ratio (y) = 0.42117 0.14447
# Poissons Ratio (z) = 0.27809 0.14636
#
# Static dielectric constant tensor:
#      x y z
#    x 2.854110 0.000000 0.000000 
#    y 0.000000 2.834990 0.000000 
#    z 0.000000 0.000000 2.473210 
# 
# 
# High freq. dielectric constant tensor:
#      x y z
#    x 1.562620 0.000000 0.000000 
#    y 0.000000 1.555250 0.000000 
#    z 0.000000 0.000000 1.519780 
# 
# From -- ./inp_files/42770.got.cif
#   From: 2010.03.12/outbox.cif.g09.slc.cpg/sg65_22_cif.got.tgz:42770.got - 2010.04.10 20:52:16.
