data_PCOD8268962
_publ_section_title
;
Structure prediction by ZEFSAII (Michael W. Deem and Ramdas Pophale) SiO2 
 PCOD8268962
Probable space group: C M M M
;
_chemical_formula_sum "Si O2"
_cell_formula_units_Z 80
_cell_length_a 9.029081
_cell_length_b 18.436583
_cell_length_c 26.174474
_cell_angle_alpha 90.000000
_cell_angle_beta 90.000000
_cell_angle_gamma 90.000000
_cell_volume 4357.144317
_symmetry_space_group_name_H-M "C M M M"
_symmetry_group_IT_number 65
_symmetry_cell_setting 'orthorhombic'
loop_
_space_group_symop_operation_xyz
x,y,z
-x,-y,z
x,-y,-z
-x,y,-z
-x,-y,-z
x,y,-z
-x,y,z
x,-y,z
1/2+x,1/2+y,z
1/2-x,1/2-y,z
1/2+x,1/2-y,-z
1/2-x,1/2+y,-z
1/2-x,1/2-y,-z
1/2+x,1/2+y,-z
1/2-x,1/2+y,z
1/2+x,1/2-y,z
loop_
_atom_site_type_symbol
_atom_site_label
_atom_site_fract_x
_atom_site_fract_y
_atom_site_fract_z
Si Si1 0.674439 0.828254 0.610786
Si Si2 0.831100 0.086027 0.301641
Si Si3 0.667394 0.413494 0.100391
Si Si4 0.332635 0.913585 0.799338
Si Si5 0.167330 0.586484 0.000000
Si Si6 0.330862 0.824458 0.500000
O O1 0.500000 0.819977 0.621251
O O2 0.750000 0.750000 0.616485
O O3 0.743378 0.883902 0.650252
O O4 0.705911 0.863831 0.554054
O O5 0.755313 0.115504 0.249963
O O6 0.000000 0.113376 0.302524
O O7 0.822398 0.000000 0.304038
O O8 0.500000 0.383853 0.100901
O O9 0.667918 0.500000 0.100500
O O10 0.752288 0.383350 0.150094
O O11 0.749324 0.383642 0.050051
O O12 0.500000 0.883635 0.797802
O O13 0.332439 0.000000 0.800064
O O14 0.167849 0.500000 0.000000
O O15 0.000000 0.616187 0.000000
O O16 0.500000 0.802483 0.500000
O O17 0.250000 0.750000 0.500000
#
# Coordination Sequence:
#
# PCOD8268962 Si02
#       6
#    16  16  16  16   8   8
#     4  10  19  33  53  75  98 124 156 193 234 280
#     4  10  20  33  48  68  95 126 160 197 236 279
#     4   9  15  22  32  47  69  99 136 178 223 270
#     4   9  16  26  40  57  78 108 146 185 226 274
#     4   9  15  21  29  43  65  95 134 179 222 265
#     4   8  16  30  49  72  95 121 153 189 229 276
#
# _framework density 18.36065
#
# number of rings (size 3 to 8) (size 9 to 14) (size 15 to 20)
#    0.000    2.700    0.000    2.700    0.000    8.000 
#    0.000    0.500    0.000    3.000    0.000    0.000 
#    0.000    0.000    0.000    0.900    0.000   13.600 
#
# Total GULP energy -495754.738872 kJ/mol
# GULP energy per Si atom -12393.868472 kJ/mol
# Density = 1.831886 g / cm^3
# Si number density = 18.360650 Si / 1000 Ang^3
#
#
#
# Elastic Constant Matrix: (Units=GPa)
#
#
# Indices 1 2 3 4 5 6 
#
# 1 168.5232 15.5221 100.3597 0.0000 0.0000 0.0000
# 2 15.5221 7.9900 17.5338 0.0000 0.0000 0.0000
# 3 100.3597 17.5338 200.5406 0.0000 0.0000 0.0000
# 4 0.0000 0.0000 0.0000 -1.9593 0.0000 0.0000
# 5 0.0000 0.0000 0.0000 0.0000 37.9545 0.0000
# 6 0.0000 0.0000 0.0000 0.0000 0.0000 17.0524
#
#
#
# Elastic Compliance Matrix: (Units=1/GPa)
#
#
# Indices 1 2 3 4 5 6 
#
# 1 0.008989 -0.009393 -0.003677 0.000000 0.000000 0.000000
# 2 -0.009393 0.164686 -0.009698 0.000000 0.000000 0.000000
# 3 -0.003677 -0.009698 0.007675 0.000000 0.000000 0.000000
# 4 0.000000 0.000000 0.000000 -0.510386 0.000000 0.000000
# 5 0.000000 0.000000 0.000000 0.000000 0.026347 0.000000
# 6 0.000000 0.000000 0.000000 0.000000 0.000000 0.058643
#
#
# Mechanical properties :
#
#
# Convention : Reuss Voigt Hill
#
# Bulk Modulus (GPa) = 7.36309 71.54277 39.45293
# Shear Modulus (GPa) = -32.62888 26.85206 -2.88841
#
# Velocity S-wave (km/s) = -4.22015 3.82839 -1.25561
# Velocity P-wave (km/s) = 4.44154 7.65454 4.40821
#
# Compressibility (1/GPa) = 0.13581263
#
# Stress axis : x y z
#
# Youngs Moduli (GPa) = 111.24783 6.07216 130.29812
#
# Poissons Ratio (x) = 0.05704 0.47913
# Poissons Ratio (y) = 1.04496 1.26365
# Poissons Ratio (z) = 0.40908 0.05889
#
# Static dielectric constant tensor:
#      x y z
#    x 3.656330 0.000000 0.000000 
#    y 0.000000 2.578170 0.000000 
#    z 0.000000 0.000000 3.951990 
# 
# 
# High freq. dielectric constant tensor:
#      x y z
#    x 1.734180 0.000000 0.000000 
#    y 0.000000 1.624720 0.000000 
#    z 0.000000 0.000000 1.738460 
# 
# From -- ./inp_files/67395.got.cif
#   From: 2010.03.12/outbox.cif.g09.slc.cpg/sg65_34_cif.got.tgz:67395.got - 2010.04.10 20:52:16.
