data_PCOD8268723
_publ_section_title
;
Structure prediction by ZEFSAII (Michael W. Deem and Ramdas Pophale) SiO2 
 PCOD8268723
Probable space group: C M M M
;
_chemical_formula_sum "Si O2"
_cell_formula_units_Z 120
_cell_length_a 26.313128
_cell_length_b 8.982711
_cell_length_c 26.900970
_cell_angle_alpha 90.000000
_cell_angle_beta 90.000000
_cell_angle_gamma 90.000000
_cell_volume 6358.400007
_symmetry_space_group_name_H-M "C M M M"
_symmetry_group_IT_number 65
_symmetry_cell_setting 'orthorhombic'
loop_
_space_group_symop_operation_xyz
x,y,z
-x,-y,z
x,-y,-z
-x,y,-z
-x,-y,-z
x,y,-z
-x,y,z
x,-y,z
1/2+x,1/2+y,z
1/2-x,1/2-y,z
1/2+x,1/2-y,-z
1/2-x,1/2+y,-z
1/2-x,1/2-y,-z
1/2+x,1/2+y,-z
1/2-x,1/2+y,z
1/2+x,1/2-y,z
loop_
_atom_site_type_symbol
_atom_site_label
_atom_site_fract_x
_atom_site_fract_y
_atom_site_fract_z
Si Si1 0.798538 0.334995 0.557581
Si Si2 0.802999 0.324958 0.207088
Si Si3 0.442201 0.664193 0.772252
Si Si4 0.878690 0.328220 0.296666
Si Si5 0.057350 0.328394 0.058151
Si Si6 0.500000 0.676692 0.556826
Si Si7 0.125090 0.826598 0.864358
Si Si8 0.391904 0.676803 0.399684
O O1 0.787211 0.354849 0.500000
O O2 0.803379 0.500000 0.582196
O O3 0.750000 0.250000 0.582216
O O4 0.850790 0.243453 0.562539
O O5 0.797375 0.500000 0.199828
O O6 0.750000 0.250000 0.218703
O O7 0.836270 0.285930 0.255836
O O8 0.824598 0.257425 0.155353
O O9 0.500000 0.664872 0.785643
O O10 0.423942 0.500000 0.754359
O O11 0.431868 0.783170 0.728845
O O12 0.416660 0.709628 0.823343
O O13 0.878115 0.500000 0.311406
O O14 0.873332 0.231660 0.345997
O O15 0.062841 0.500000 0.073655
O O16 0.102029 0.235891 0.084622
O O17 0.000000 0.272983 0.071763
O O18 0.066647 0.307200 0.000000
O O19 0.500000 0.500000 0.555873
O O20 0.500000 0.737666 0.500000
O O21 0.551084 0.732828 0.585396
O O22 0.137649 0.000000 0.871137
O O23 0.389710 0.500000 0.402115
#
# Coordination Sequence:
#
# PCOD8268723 Si02
#       8
#    16  16  16  16  16   8  16  16
#     4  10  21  38  60  85 111 139 175 222 275 329
#     4  10  21  38  59  80 106 141 182 228 278 335
#     4   9  18  32  50  72 102 138 176 217 263 318
#     4  10  22  37  52  77 109 140 177 220 270 324
#     4   9  18  32  50  75 111 153 192 232 280 332
#     4   9  20  38  59  83 111 149 195 235 276 333
#     4  10  19  32  52  79 108 140 182 229 276 328
#     4  11  22  37  59  84 113 149 188 231 279 333
#
# _framework density 18.872672999999999
#
# number of rings (size 3 to 8) (size 9 to 14) (size 15 to 20)
#    0.000    2.200    0.000    3.200    0.933    5.333 
#    0.000    3.000    0.000    2.800    0.000    0.000 
#    0.000    0.000    0.000    0.000    0.000    0.000 
#
# Total GULP energy -743749.535068 kJ/mol
# GULP energy per Si atom -12395.825584 kJ/mol
# Density = 1.882972 g / cm^3
# Si number density = 18.872673 Si / 1000 Ang^3
#
#
#
# Elastic Constant Matrix: (Units=GPa)
#
#
# Indices 1 2 3 4 5 6 
#
# 1 98.3398 46.6423 31.5279 0.0000 0.0000 0.0000
# 2 46.6423 99.0255 38.2072 0.0000 0.0000 0.0000
# 3 31.5279 38.2072 65.0299 0.0000 0.0000 0.0000
# 4 0.0000 0.0000 0.0000 32.2464 0.0000 0.0000
# 5 0.0000 0.0000 0.0000 0.0000 18.4993 0.0000
# 6 0.0000 0.0000 0.0000 0.0000 0.0000 28.5245
#
#
#
# Elastic Compliance Matrix: (Units=1/GPa)
#
#
# Indices 1 2 3 4 5 6 
#
# 1 0.013750 -0.005049 -0.003700 0.000000 0.000000 0.000000
# 2 -0.005049 0.014913 -0.006314 0.000000 0.000000 0.000000
# 3 -0.003700 -0.006314 0.020881 0.000000 0.000000 0.000000
# 4 0.000000 0.000000 0.000000 0.031011 0.000000 0.000000
# 5 0.000000 0.000000 0.000000 0.000000 0.054056 0.000000
# 6 0.000000 0.000000 0.000000 0.000000 0.000000 0.035058
#
#
# Mechanical properties :
#
#
# Convention : Reuss Voigt Hill
#
# Bulk Modulus (GPa) = 51.49807 55.01667 53.25737
# Shear Modulus (GPa) = 24.24062 25.58856 24.91459
#
# Velocity S-wave (km/s) = 3.58778 3.68618 3.63732
# Velocity P-wave (km/s) = 6.67153 6.87983 6.77648
#
# Compressibility (1/GPa) = 0.01941820
#
# Stress axis : x y z
#
# Youngs Moduli (GPa) = 72.72946 67.05772 47.89067
#
# Poissons Ratio (x) = 0.33856 0.17719
# Poissons Ratio (y) = 0.36719 0.30238
# Poissons Ratio (z) = 0.26908 0.42339
#
# Static dielectric constant tensor:
#      x y z
#    x 3.586450 0.000000 0.000000 
#    y 0.000000 3.643780 0.000000 
#    z 0.000000 0.000000 3.361570 
# 
# 
# High freq. dielectric constant tensor:
#      x y z
#    x 1.729940 0.000000 0.000000 
#    y 0.000000 1.736440 0.000000 
#    z 0.000000 0.000000 1.721940 
# 
# From -- ./inp_files/76163.got.cif
#   From: 2010.03.12/outbox.cif.g09.slc.cpg/sg65_39_cif.got.tgz:76163.got - 2010.04.10 20:52:16.
