data_PCOD8268291
_publ_section_title
;
Structure prediction by ZEFSAII (Michael W. Deem and Ramdas Pophale) SiO2 
 PCOD8268291
Probable space group: C M M M
;
_chemical_formula_sum "Si O2"
_cell_formula_units_Z 80
_cell_length_a 9.865605
_cell_length_b 24.098543
_cell_length_c 18.452459
_cell_angle_alpha 90.000000
_cell_angle_beta 90.000000
_cell_angle_gamma 90.000000
_cell_volume 4387.011351
_symmetry_space_group_name_H-M "C M M M"
_symmetry_group_IT_number 65
_symmetry_cell_setting 'orthorhombic'
loop_
_space_group_symop_operation_xyz
x,y,z
-x,-y,z
x,-y,-z
-x,y,-z
-x,-y,-z
x,y,-z
-x,y,z
x,-y,z
1/2+x,1/2+y,z
1/2-x,1/2-y,z
1/2+x,1/2-y,-z
1/2-x,1/2+y,-z
1/2-x,1/2-y,-z
1/2+x,1/2+y,-z
1/2-x,1/2+y,z
1/2+x,1/2-y,z
loop_
_atom_site_type_symbol
_atom_site_label
_atom_site_fract_x
_atom_site_fract_y
_atom_site_fract_z
Si Si1 0.000000 0.804914 0.586076
Si Si2 0.844340 0.101361 0.916926
Si Si3 0.000000 0.320645 0.413988
Si Si4 0.161704 0.000000 0.657030
Si Si5 0.763377 0.884432 0.414076
Si Si6 0.346943 0.796641 0.915296
Si Si7 0.159327 0.000000 0.179690
O O1 0.000000 0.742205 0.618585
O O2 0.127083 0.840166 0.613996
O O3 0.000000 0.800447 0.500000
O O4 0.733253 0.147333 0.900572
O O5 0.792875 0.053325 0.864368
O O6 0.000000 0.120760 0.900178
O O7 0.836778 0.081139 0.000000
O O8 0.125777 0.356610 0.386679
O O9 0.000000 0.315204 0.500000
O O10 0.219276 0.054877 0.619330
O O11 0.217557 0.000000 0.739101
O O12 0.000000 0.000000 0.651145
O O13 0.770311 0.891898 0.500000
O O14 0.500000 0.797723 0.881349
O O15 0.250000 0.750000 0.879468
O O16 0.362556 0.784350 0.000000
O O17 0.000000 0.000000 0.184411
#
# Coordination Sequence:
#
# PCOD8268291 Si02
#       7
#     8  16   8   8  16  16   8
#     4   9  16  29  51  79 105 130 163 206 254 303
#     4   9  16  29  51  76  98 123 161 208 252 297
#     4   9  18  31  49  77 107 132 165 210 260 301
#     4  11  21  34  51  73 100 138 177 210 250 300
#     4  10  19  31  52  78 105 135 168 210 251 297
#     4   9  16  26  44  73 105 132 158 194 244 298
#     4   9  19  33  51  73  95 129 166 207 249 297
#
# _framework density 18.235648999999999
#
# number of rings (size 3 to 8) (size 9 to 14) (size 15 to 20)
#    0.000    2.600    1.000    1.800    0.000    6.800 
#    0.000    2.000    4.400    4.800    0.000    0.000 
#    0.000    0.000    0.000    0.000    0.000    0.000 
#
# Total GULP energy -495682.307243 kJ/mol
# GULP energy per Si atom -12392.057681 kJ/mol
# Density = 1.819414 g / cm^3
# Si number density = 18.235649 Si / 1000 Ang^3
#
#
#
# Elastic Constant Matrix: (Units=GPa)
#
#
# Indices 1 2 3 4 5 6 
#
# 1 155.9356 90.9868 30.0250 0.0000 0.0000 0.0000
# 2 90.9868 173.5556 50.5062 0.0000 0.0000 0.0000
# 3 30.0250 50.5062 52.0363 0.0000 0.0000 0.0000
# 4 0.0000 0.0000 0.0000 -409.7936 0.0000 0.0000
# 5 0.0000 0.0000 0.0000 0.0000 9.9550 0.0000
# 6 0.0000 0.0000 0.0000 0.0000 0.0000 13.1867
#
#
#
# Elastic Compliance Matrix: (Units=1/GPa)
#
#
# Indices 1 2 3 4 5 6 
#
# 1 0.009268 -0.004603 -0.000880 0.000000 0.000000 0.000000
# 2 -0.004603 0.010316 -0.007357 0.000000 0.000000 0.000000
# 3 -0.000880 -0.007357 0.026866 0.000000 0.000000 0.000000
# 4 0.000000 0.000000 0.000000 -0.002440 0.000000 0.000000
# 5 0.000000 0.000000 0.000000 0.000000 0.100452 0.000000
# 6 0.000000 0.000000 0.000000 0.000000 0.000000 0.075834
#
#
# Mechanical properties :
#
#
# Convention : Reuss Voigt Hill
#
# Bulk Modulus (GPa) = 48.14622 80.50705 64.32664
# Shear Modulus (GPa) = 19.77093 -63.32973 -21.77940
#
# Velocity S-wave (km/s) = 3.29628 -5.89948 -3.45966
# Velocity P-wave (km/s) = 6.39897 1.47011 4.40373
#
# Compressibility (1/GPa) = 0.02077006
#
# Stress axis : x y z
#
# Youngs Moduli (GPa) = 107.89868 96.94112 37.22235
#
# Poissons Ratio (x) = 0.44617 0.03277
# Poissons Ratio (y) = 0.49661 0.27383
# Poissons Ratio (z) = 0.09500 0.71315
#
# Static dielectric constant tensor:
#      x y z
#    x 3.498680 0.000000 0.000000 
#    y 0.000000 3.508160 0.000000 
#    z 0.000000 0.000000 3.069960 
# 
# 
# High freq. dielectric constant tensor:
#      x y z
#    x 1.707990 0.000000 0.000000 
#    y 0.000000 1.721760 0.000000 
#    z 0.000000 0.000000 1.653720 
# 
# From -- ./inp_files/59714.got.cif
#   From: 2010.03.12/outbox.cif.g09.slc.cpg/sg65_30_cif.got.tgz:59714.got - 2010.04.10 20:52:16.
