data_PCOD8268107
_publ_section_title
;
Structure prediction by ZEFSAII (Michael W. Deem and Ramdas Pophale) SiO2 
 PCOD8268107
Probable space group: C M M M
;
_chemical_formula_sum "Si O2"
_cell_formula_units_Z 96
_cell_length_a 27.894935
_cell_length_b 20.487674
_cell_length_c 8.925983
_cell_angle_alpha 90.000000
_cell_angle_beta 90.000000
_cell_angle_gamma 90.000000
_cell_volume 5101.220122
_symmetry_space_group_name_H-M "C M M M"
_symmetry_group_IT_number 65
_symmetry_cell_setting 'orthorhombic'
loop_
_space_group_symop_operation_xyz
x,y,z
-x,-y,z
x,-y,-z
-x,y,-z
-x,-y,-z
x,y,-z
-x,y,z
x,-y,z
1/2+x,1/2+y,z
1/2-x,1/2-y,z
1/2+x,1/2-y,-z
1/2-x,1/2+y,-z
1/2-x,1/2-y,-z
1/2+x,1/2+y,-z
1/2-x,1/2+y,z
1/2+x,1/2-y,z
loop_
_atom_site_type_symbol
_atom_site_label
_atom_site_fract_x
_atom_site_fract_y
_atom_site_fract_z
Si Si1 0.877697 0.572075 0.321668
Si Si2 0.114359 0.807688 0.677343
Si Si3 0.284143 0.691263 0.176921
Si Si4 0.946381 0.683560 0.677737
Si Si5 0.769592 0.424767 0.674861
Si Si6 0.553492 0.427585 0.677931
O O1 0.878494 0.572920 0.500000
O O2 0.892263 0.500000 0.263531
O O3 0.914973 0.624207 0.254212
O O4 0.823793 0.589201 0.269536
O O5 0.123035 0.809058 0.500000
O O6 0.164018 0.793797 0.757222
O O7 0.077459 0.751395 0.724707
O O8 0.091661 0.875261 0.738596
O O9 0.250000 0.750000 0.231587
O O10 0.265862 0.621576 0.234637
O O11 0.287434 0.688492 0.000000
O O12 0.948365 0.677314 0.500000
O O13 0.000000 0.680156 0.744992
O O14 0.764058 0.408958 0.500000
O O15 0.755751 0.500000 0.706780
O O16 0.551793 0.423292 0.500000
O O17 0.500000 0.412412 0.739712
O O18 0.569739 0.500000 0.729524
#
# Coordination Sequence:
#
# PCOD8268107 Si02
#       6
#    16  16  16  16  16  16
#     4   8  14  25  42  66  96 127 157 192 238 292
#     4  10  19  31  50  73  96 126 165 207 249 293
#     4  11  24  38  51  71 101 136 174 215 258 304
#     4   9  16  25  41  68  98 126 159 199 241 287
#     4   9  18  34  56  79 102 131 169 210 252 302
#     4   8  14  26  46  73 102 127 153 191 239 291
#
# _framework density 18.819027999999999
#
# number of rings (size 3 to 8) (size 9 to 14) (size 15 to 20)
#    0.000    2.833    0.000    3.500    0.000    6.000 
#    0.000    3.333    0.000    2.000    0.000    1.167 
#    0.000    0.000    0.000   14.333    0.000   11.667 
#
# Total GULP energy -595068.466129 kJ/mol
# GULP energy per Si atom -12397.259711 kJ/mol
# Density = 1.877619 g / cm^3
# Si number density = 18.819028 Si / 1000 Ang^3
#
#
#
# Elastic Constant Matrix: (Units=GPa)
#
#
# Indices 1 2 3 4 5 6 
#
# 1 96.3244 41.3530 21.3308 0.0000 0.0000 0.0000
# 2 41.3530 104.2452 21.6499 0.0000 0.0000 0.0000
# 3 21.3308 21.6499 26.1468 0.0000 0.0000 0.0000
# 4 0.0000 0.0000 0.0000 13.2463 0.0000 0.0000
# 5 0.0000 0.0000 0.0000 0.0000 3.4958 0.0000
# 6 0.0000 0.0000 0.0000 0.0000 0.0000 40.9345
#
#
#
# Elastic Compliance Matrix: (Units=1/GPa)
#
#
# Indices 1 2 3 4 5 6 
#
# 1 0.013808 -0.003790 -0.008127 0.000000 0.000000 0.000000
# 2 -0.003790 0.012625 -0.007362 0.000000 0.000000 0.000000
# 3 -0.008127 -0.007362 0.050971 0.000000 0.000000 0.000000
# 4 0.000000 0.000000 0.000000 0.075493 0.000000 0.000000
# 5 0.000000 0.000000 0.000000 0.000000 0.286054 0.000000
# 6 0.000000 0.000000 0.000000 0.000000 0.000000 0.024429
#
#
# Mechanical properties :
#
#
# Convention : Reuss Voigt Hill
#
# Bulk Modulus (GPa) = 25.74177 43.93154 34.83666
# Shear Modulus (GPa) = 9.71087 21.02750 15.36918
#
# Velocity S-wave (km/s) = 2.27406 3.34631 2.86087
# Velocity P-wave (km/s) = 4.53910 6.19074 5.42811
#
# Compressibility (1/GPa) = 0.03884736
#
# Stress axis : x y z
#
# Youngs Moduli (GPa) = 72.42043 79.20731 19.61886
#
# Poissons Ratio (x) = 0.30018 0.15944
# Poissons Ratio (y) = 0.27446 0.14443
# Poissons Ratio (z) = 0.58855 0.58313
#
# Static dielectric constant tensor:
#      x y z
#    x 3.601910 0.000000 0.000000 
#    y 0.000000 3.783490 0.000000 
#    z 0.000000 0.000000 2.838180 
# 
# 
# High freq. dielectric constant tensor:
#      x y z
#    x 1.737200 0.000000 0.000000 
#    y 0.000000 1.748490 0.000000 
#    z 0.000000 0.000000 1.665090 
# 
# From -- ./inp_files/12242.got.cif
#   From: 2010.03.12/outbox.cif.g09.slc.cpg/sg65_7_cif.got.tgz:12242.got - 2010.04.10 20:52:16.
