data_PCOD8268065
_publ_section_title
;
Structure prediction by ZEFSAII (Michael W. Deem and Ramdas Pophale) SiO2 
 PCOD8268065
Probable space group: C M M M
;
_chemical_formula_sum "Si O2"
_cell_formula_units_Z 120
_cell_length_a 23.511100
_cell_length_b 19.500266
_cell_length_c 15.095883
_cell_angle_alpha 90.000000
_cell_angle_beta 90.000000
_cell_angle_gamma 90.000000
_cell_volume 6921.050298
_symmetry_space_group_name_H-M "C M M M"
_symmetry_group_IT_number 65
_symmetry_cell_setting 'orthorhombic'
loop_
_space_group_symop_operation_xyz
x,y,z
-x,-y,z
x,-y,-z
-x,y,-z
-x,-y,-z
x,y,-z
-x,y,z
x,-y,z
1/2+x,1/2+y,z
1/2-x,1/2-y,z
1/2+x,1/2-y,-z
1/2-x,1/2+y,-z
1/2-x,1/2-y,-z
1/2+x,1/2+y,-z
1/2-x,1/2+y,z
1/2+x,1/2-y,z
loop_
_atom_site_type_symbol
_atom_site_label
_atom_site_fract_x
_atom_site_fract_y
_atom_site_fract_z
Si Si1 0.344733 0.744247 0.099114
Si Si2 0.243436 0.077847 0.720378
Si Si3 0.934415 0.207322 0.241873
Si Si4 0.756279 0.359898 0.900708
Si Si5 0.844386 0.579048 0.602036
Si Si6 0.382018 0.581018 0.316431
Si Si7 0.062806 0.079940 0.500000
Si Si8 0.934731 0.307035 0.399739
O O1 0.397815 0.741016 0.164215
O O2 0.298119 0.686758 0.120033
O O3 0.314414 0.817596 0.108048
O O4 0.368432 0.734465 0.000000
O O5 0.256815 0.082353 0.825212
O O6 0.293323 0.111244 0.661302
O O7 0.182126 0.108958 0.695693
O O8 0.240764 0.000000 0.690763
O O9 0.921036 0.126061 0.250578
O O10 0.918701 0.245416 0.333654
O O11 0.000000 0.216748 0.216361
O O12 0.751894 0.391773 0.000000
O O13 0.825617 0.584478 0.500000
O O14 0.858287 0.500000 0.627526
O O15 0.899603 0.624428 0.622328
O O16 0.389283 0.500000 0.293884
O O17 0.401021 0.600492 0.414944
O O18 0.000000 0.116211 0.500000
O O19 0.051672 0.000000 0.500000
O O20 0.922317 0.281183 0.500000
O O21 0.000000 0.328695 0.388111
#
# Coordination Sequence:
#
# PCOD8268065 Si02
#       8
#    16  16  16  16  16  16   8  16
#     4   9  18  33  52  73  94 122 163 203 245 297
#     4  10  19  31  49  74 103 129 161 207 250 294
#     4  11  21  33  52  73 100 132 162 210 256 289
#     4   9  17  32  53  72  94 124 160 203 245 294
#     4   9  18  32  51  74 102 135 165 196 240 297
#     4  10  21  34  49  70  97 134 174 210 250 294
#     4   9  18  32  48  64  85 122 174 216 241 284
#     4   9  19  34  50  73 103 131 164 204 245 292
#
# _framework density 17.338408999999999
#
# number of rings (size 3 to 8) (size 9 to 14) (size 15 to 20)
#    0.000    2.467    1.333    2.000    1.867    1.600 
#    0.000    1.333    0.000    2.000    0.000    0.933 
#    0.000    0.000    0.000   24.800    0.000    0.267 
#
# Total GULP energy -743775.087719 kJ/mol
# GULP energy per Si atom -12396.251462 kJ/mol
# Density = 1.729895 g / cm^3
# Si number density = 17.338409 Si / 1000 Ang^3
#
#
#
# Elastic Constant Matrix: (Units=GPa)
#
#
# Indices 1 2 3 4 5 6 
#
# 1 110.0327 35.9935 67.0565 0.0000 0.0000 0.0000
# 2 35.9935 47.0850 26.4676 0.0000 0.0000 0.0000
# 3 67.0565 26.4676 105.4240 0.0000 0.0000 0.0000
# 4 0.0000 0.0000 0.0000 25.0062 0.0000 0.0000
# 5 0.0000 0.0000 0.0000 0.0000 28.0061 0.0000
# 6 0.0000 0.0000 0.0000 0.0000 0.0000 19.9785
#
#
#
# Elastic Compliance Matrix: (Units=1/GPa)
#
#
# Indices 1 2 3 4 5 6 
#
# 1 0.017151 -0.008125 -0.008869 0.000000 0.000000 0.000000
# 2 -0.008125 0.028577 -0.002006 0.000000 0.000000 0.000000
# 3 -0.008869 -0.002006 0.015631 0.000000 0.000000 0.000000
# 4 0.000000 0.000000 0.000000 0.039990 0.000000 0.000000
# 5 0.000000 0.000000 0.000000 0.000000 0.035707 0.000000
# 6 0.000000 0.000000 0.000000 0.000000 0.000000 0.050054
#
#
# Mechanical properties :
#
#
# Convention : Reuss Voigt Hill
#
# Bulk Modulus (GPa) = 42.81343 57.95301 50.38322
# Shear Modulus (GPa) = 21.46861 23.46642 22.46752
#
# Velocity S-wave (km/s) = 3.52264 3.68290 3.60366
# Velocity P-wave (km/s) = 6.42587 7.18207 6.81447
#
# Compressibility (1/GPa) = 0.02335716
#
# Stress axis : x y z
#
# Youngs Moduli (GPa) = 58.30410 34.99276 63.97642
#
# Poissons Ratio (x) = 0.28433 0.56744
# Poissons Ratio (y) = 0.47375 0.12835
# Poissons Ratio (z) = 0.51713 0.07020
#
# Static dielectric constant tensor:
#      x y z
#    x 3.303230 0.000000 0.000000 
#    y 0.000000 3.032750 0.000000 
#    z 0.000000 0.000000 3.272320 
# 
# 
# High freq. dielectric constant tensor:
#      x y z
#    x 1.669590 0.000000 0.000000 
#    y 0.000000 1.650520 0.000000 
#    z 0.000000 0.000000 1.668950 
# 
# From -- ./inp_files/44686.got.cif
#   From: 2010.03.12/outbox.cif.g09.slc.cpg/sg65_23_cif.got.tgz:44686.got - 2010.04.10 20:52:16.
