data_PCOD8268770
_publ_section_title
;
Structure prediction by ZEFSAII (Michael W. Deem and Ramdas Pophale) SiO2 
 PCOD8268770
Probable space group: C M M M
;
_chemical_formula_sum "Si O2"
_cell_formula_units_Z 80
_cell_length_a 8.880853
_cell_length_b 22.065838
_cell_length_c 22.202914
_cell_angle_alpha 90.000000
_cell_angle_beta 90.000000
_cell_angle_gamma 90.000000
_cell_volume 4350.959929
_symmetry_space_group_name_H-M "C M M M"
_symmetry_group_IT_number 65
_symmetry_cell_setting 'orthorhombic'
loop_
_space_group_symop_operation_xyz
x,y,z
-x,-y,z
x,-y,-z
-x,y,-z
-x,-y,-z
x,y,-z
-x,y,z
x,-y,z
1/2+x,1/2+y,z
1/2-x,1/2-y,z
1/2+x,1/2-y,-z
1/2-x,1/2+y,-z
1/2-x,1/2-y,-z
1/2+x,1/2+y,-z
1/2-x,1/2+y,z
1/2+x,1/2-y,z
loop_
_atom_site_type_symbol
_atom_site_label
_atom_site_fract_x
_atom_site_fract_y
_atom_site_fract_z
Si Si1 0.826807 0.612227 0.113826
Si Si2 0.324383 0.186990 0.000000
Si Si3 0.175512 0.689454 0.770089
Si Si4 0.321478 0.432370 0.431699
Si Si5 0.825013 0.000000 0.067310
Si Si6 0.180185 0.185035 0.642983
O O1 0.801935 0.638714 0.179892
O O2 0.723005 0.554642 0.109223
O O3 0.000000 0.594599 0.103192
O O4 0.768788 0.655113 0.060628
O O5 0.250000 0.250000 0.000000
O O6 0.500000 0.195548 0.000000
O O7 0.250000 0.750000 0.796846
O O8 0.264326 0.670702 0.710182
O O9 0.000000 0.700318 0.755078
O O10 0.264199 0.424456 0.500000
O O11 0.500000 0.431169 0.429222
O O12 0.267803 0.500000 0.407973
O O13 0.260851 0.373578 0.394945
O O14 0.000000 0.000000 0.057698
O O15 0.748831 0.000000 0.000000
O O16 0.250000 0.250000 0.620562
O O17 0.000000 0.190750 0.640427
#
# Coordination Sequence:
#
# PCOD8268770 Si02
#       6
#    16   8  16  16   8  16
#     4  10  21  37  56  74 100 138 173 207 257 315
#     4  10  20  33  52  77  99 126 164 210 257 308
#     4  10  20  35  55  78 105 138 174 212 259 310
#     4   8  15  30  52  77 105 139 180 222 263 309
#     4  11  23  37  55  79 103 131 168 215 262 305
#     4  10  19  32  53  79 109 142 176 218 266 315
#
# _framework density 18.386748000000001
#
# number of rings (size 3 to 8) (size 9 to 14) (size 15 to 20)
#    0.000    2.300    1.000    3.900    0.000    3.200 
#    1.800    0.000    0.000    3.600    0.000    5.600 
#    0.000    0.000    0.000    0.000    0.000    0.000 
#
# Total GULP energy -495655.829936 kJ/mol
# GULP energy per Si atom -12391.395748 kJ/mol
# Density = 1.834490 g / cm^3
# Si number density = 18.386748 Si / 1000 Ang^3
#
#
#
# Elastic Constant Matrix: (Units=GPa)
#
#
# Indices 1 2 3 4 5 6 
#
# 1 57.5483 50.1593 31.7046 0.0000 0.0000 0.0000
# 2 50.1593 168.0724 70.5783 0.0000 0.0000 0.0000
# 3 31.7046 70.5783 86.1199 0.0000 0.0000 0.0000
# 4 0.0000 0.0000 0.0000 29.7299 0.0000 0.0000
# 5 0.0000 0.0000 0.0000 0.0000 -45.4772 0.0000
# 6 0.0000 0.0000 0.0000 0.0000 0.0000 30.3613
#
#
#
# Elastic Compliance Matrix: (Units=1/GPa)
#
#
# Indices 1 2 3 4 5 6 
#
# 1 0.024646 -0.005406 -0.004643 0.000000 0.000000 0.000000
# 2 -0.005406 0.010257 -0.006416 0.000000 0.000000 0.000000
# 3 -0.004643 -0.006416 0.018580 0.000000 0.000000 0.000000
# 4 0.000000 0.000000 0.000000 0.033636 0.000000 0.000000
# 5 0.000000 0.000000 0.000000 0.000000 -0.021989 0.000000
# 6 0.000000 0.000000 0.000000 0.000000 0.000000 0.032937
#
#
# Mechanical properties :
#
#
# Convention : Reuss Voigt Hill
#
# Bulk Modulus (GPa) = 48.65504 68.51389 58.58446
# Shear Modulus (GPa) = 36.27167 13.54267 24.90717
#
# Velocity S-wave (km/s) = 4.44634 2.71688 3.68452
# Velocity P-wave (km/s) = 7.27182 6.86917 7.07336
#
# Compressibility (1/GPa) = 0.02055285
#
# Stress axis : x y z
#
# Youngs Moduli (GPa) = 40.57396 97.49042 53.82261
#
# Poissons Ratio (x) = 0.52699 0.24992
# Poissons Ratio (y) = 0.21932 0.34534
# Poissons Ratio (z) = 0.18840 0.62553
#
# Static dielectric constant tensor:
#      x y z
#    x 3.284170 0.000000 0.000000 
#    y 0.000000 3.496490 0.000000 
#    z 0.000000 0.000000 3.406800 
# 
# 
# High freq. dielectric constant tensor:
#      x y z
#    x 1.697720 0.000000 0.000000 
#    y 0.000000 1.723120 0.000000 
#    z 0.000000 0.000000 1.708880 
# 
# From -- ./inp_files/67341.got.cif
#   From: 2010.03.12/outbox.cif.g09.slc.cpg/sg65_34_cif.got.tgz:67341.got - 2010.04.10 20:52:16.
