data_PCOD8268318
_publ_section_title
;
Structure prediction by ZEFSAII (Michael W. Deem and Ramdas Pophale) SiO2 
 PCOD8268318
Probable space group: C M M M
;
_chemical_formula_sum "Si O2"
_cell_formula_units_Z 120
_cell_length_a 19.675406
_cell_length_b 20.002584
_cell_length_c 15.176009
_cell_angle_alpha 90.000000
_cell_angle_beta 90.000000
_cell_angle_gamma 90.000000
_cell_volume 5972.654338
_symmetry_space_group_name_H-M "C M M M"
_symmetry_group_IT_number 65
_symmetry_cell_setting 'orthorhombic'
loop_
_space_group_symop_operation_xyz
x,y,z
-x,-y,z
x,-y,-z
-x,y,-z
-x,-y,-z
x,y,-z
-x,y,z
x,-y,z
1/2+x,1/2+y,z
1/2-x,1/2-y,z
1/2+x,1/2-y,-z
1/2-x,1/2+y,-z
1/2-x,1/2-y,-z
1/2+x,1/2+y,-z
1/2-x,1/2+y,z
1/2+x,1/2-y,z
loop_
_atom_site_type_symbol
_atom_site_label
_atom_site_fract_x
_atom_site_fract_y
_atom_site_fract_z
Si Si1 0.077015 0.310609 0.222384
Si Si2 0.669111 0.422165 0.164527
Si Si3 0.077412 0.811645 0.901776
Si Si4 0.178793 0.426749 0.214900
Si Si5 0.781415 0.399863 0.405080
Si Si6 0.139820 0.874069 0.352409
Si Si7 0.135568 0.273289 0.600226
Si Si8 0.000000 0.928913 0.402216
O O1 0.099969 0.243802 0.170062
O O2 0.123758 0.371551 0.188515
O O3 0.081472 0.301871 0.328496
O O4 0.000000 0.328782 0.197621
O O5 0.657402 0.500000 0.140393
O O6 0.629754 0.374344 0.096346
O O7 0.749502 0.405848 0.170684
O O8 0.633960 0.403234 0.255550
O O9 0.000000 0.835673 0.880555
O O10 0.080266 0.780272 0.000000
O O11 0.156331 0.500000 0.179691
O O12 0.185144 0.435209 0.321081
O O13 0.807680 0.428786 0.500000
O O14 0.700162 0.412173 0.403453
O O15 0.798654 0.321010 0.400383
O O16 0.159625 0.796799 0.360484
O O17 0.065475 0.883200 0.390471
O O18 0.105120 0.267913 0.500000
O O19 0.000000 0.953772 0.500000
O O20 0.000000 0.000000 0.347317
#
# Coordination Sequence:
#
# PCOD8268318 Si02
#       8
#    16  16  16  16  16  16  16   8
#     4  10  21  38  59  86 116 152 189 237 293 337
#     4  10  21  37  58  83 115 151 186 231 282 335
#     4  10  22  41  64  91 117 147 189 233 279 338
#     4   9  20  37  57  84 116 150 193 237 284 344
#     4   9  18  32  51  77 106 143 192 242 285 329
#     4  11  20  33  49  70 104 149 188 227 281 325
#     4  10  19  31  53  82 110 142 189 238 285 341
#     4  11  24  34  40  62  99 143 194 230 256 313
#
# _framework density 20.091569
#
# number of rings (size 3 to 8) (size 9 to 14) (size 15 to 20)
#    0.000    2.067    1.333    2.000    1.867    3.467 
#    0.000    2.000    0.000    1.200    0.000    5.600 
#    0.000    0.000    0.000    0.000    0.000    0.000 
#
# Total GULP energy -743305.287819 kJ/mol
# GULP energy per Si atom -12388.421464 kJ/mol
# Density = 2.004584 g / cm^3
# Si number density = 20.091569 Si / 1000 Ang^3
#
#
#
# Elastic Constant Matrix: (Units=GPa)
#
#
# Indices 1 2 3 4 5 6 
#
# 1 102.7418 59.9319 28.6304 0.0000 0.0000 0.0000
# 2 59.9319 115.7032 21.6049 0.0000 0.0000 0.0000
# 3 28.6304 21.6049 74.2453 0.0000 0.0000 0.0000
# 4 0.0000 0.0000 0.0000 9.4993 0.0000 0.0000
# 5 0.0000 0.0000 0.0000 0.0000 16.2611 0.0000
# 6 0.0000 0.0000 0.0000 0.0000 0.0000 26.8083
#
#
#
# Elastic Compliance Matrix: (Units=1/GPa)
#
#
# Indices 1 2 3 4 5 6 
#
# 1 0.014844 -0.007000 -0.003687 0.000000 0.000000 0.000000
# 2 -0.007000 0.012441 -0.000921 0.000000 0.000000 0.000000
# 3 -0.003687 -0.000921 0.015159 0.000000 0.000000 0.000000
# 4 0.000000 0.000000 0.000000 0.105271 0.000000 0.000000
# 5 0.000000 0.000000 0.000000 0.000000 0.061497 0.000000
# 6 0.000000 0.000000 0.000000 0.000000 0.000000 0.037302
#
#
# Mechanical properties :
#
#
# Convention : Reuss Voigt Hill
#
# Bulk Modulus (GPa) = 52.01005 57.00273 54.50639
# Shear Modulus (GPa) = 18.10687 22.68196 20.39441
#
# Velocity S-wave (km/s) = 3.00529 3.36360 3.18948
# Velocity P-wave (km/s) = 6.16320 6.59683 6.38370
#
# Compressibility (1/GPa) = 0.01922705
#
# Stress axis : x y z
#
# Youngs Moduli (GPa) = 67.36664 80.38050 65.96925
#
# Poissons Ratio (x) = 0.56270 0.24323
# Poissons Ratio (y) = 0.47160 0.06074
# Poissons Ratio (z) = 0.24839 0.07400
#
# Static dielectric constant tensor:
#      x y z
#    x 3.465510 0.000000 0.000000 
#    y 0.000000 3.604030 0.000000 
#    z 0.000000 0.000000 3.557440 
# 
# 
# High freq. dielectric constant tensor:
#      x y z
#    x 1.769470 0.000000 0.000000 
#    y 0.000000 1.783250 0.000000 
#    z 0.000000 0.000000 1.767370 
# 
# From -- ./inp_files/44698.got.cif
#   From: 2010.03.12/outbox.cif.g09.slc.cpg/sg65_23_cif.got.tgz:44698.got - 2010.04.10 20:52:16.
