data_PCOD8268231
_publ_section_title
;
Structure prediction by ZEFSAII (Michael W. Deem and Ramdas Pophale) SiO2 
 PCOD8268231
Probable space group: C M M M
;
_chemical_formula_sum "Si O2"
_cell_formula_units_Z 88
_cell_length_a 22.591471
_cell_length_b 22.570999
_cell_length_c 9.722178
_cell_angle_alpha 90.000000
_cell_angle_beta 90.000000
_cell_angle_gamma 90.000000
_cell_volume 4957.455903
_symmetry_space_group_name_H-M "C M M M"
_symmetry_group_IT_number 65
_symmetry_cell_setting 'orthorhombic'
loop_
_space_group_symop_operation_xyz
x,y,z
-x,-y,z
x,-y,-z
-x,y,-z
-x,-y,-z
x,y,-z
-x,y,z
x,-y,z
1/2+x,1/2+y,z
1/2-x,1/2-y,z
1/2+x,1/2-y,-z
1/2-x,1/2+y,-z
1/2-x,1/2-y,-z
1/2+x,1/2+y,-z
1/2-x,1/2+y,z
1/2+x,1/2-y,z
loop_
_atom_site_type_symbol
_atom_site_label
_atom_site_fract_x
_atom_site_fract_y
_atom_site_fract_z
Si Si1 0.433343 0.276809 0.842749
Si Si2 0.434699 0.064688 0.162627
Si Si3 0.146605 0.332840 0.162684
Si Si4 0.882757 0.873713 0.660971
Si Si5 0.932451 0.000000 0.662032
Si Si6 0.745188 0.320469 0.345106
O O1 0.500000 0.250907 0.829471
O O2 0.385612 0.228022 0.794831
O O3 0.428465 0.333837 0.745997
O O4 0.420642 0.295481 0.000000
O O5 0.500000 0.072219 0.226293
O O6 0.392931 0.114572 0.224138
O O7 0.409041 0.000000 0.200794
O O8 0.438780 0.072501 0.000000
O O9 0.208745 0.344243 0.234814
O O10 0.156332 0.336208 0.000000
O O11 0.896116 0.865354 0.500000
O O12 0.894834 0.941781 0.707527
O O13 0.817136 0.850103 0.697003
O O14 0.938413 0.000000 0.500000
O O15 0.000000 0.000000 0.723650
O O16 0.761372 0.340447 0.500000
O O17 0.750000 0.250000 0.334492
#
# Coordination Sequence:
#
# PCOD8268231 Si02
#       6
#    16  16  16  16   8  16
#     4  10  20  32  49  77 108 132 160 205 260 310
#     4   8  14  27  48  73 101 132 166 205 248 294
#     4  10  19  31  51  76 102 132 169 209 249 299
#     4  10  20  36  56  75 100 134 173 213 254 301
#     4   9  18  34  57  81  99 125 174 223 254 294
#     4  10  20  35  52  72 101 134 167 205 251 304
#
# _framework density 17.751041000000001
#
# number of rings (size 3 to 8) (size 9 to 14) (size 15 to 20)
#    0.000    2.455    1.818    1.636    0.000    4.364 
#    1.636    0.455    0.000    3.273    0.000    1.273 
#    0.000    0.000    0.000    0.000    0.000    0.000 
#
# Total GULP energy -545319.997687 kJ/mol
# GULP energy per Si atom -12393.636311 kJ/mol
# Density = 1.771064 g / cm^3
# Si number density = 17.751041 Si / 1000 Ang^3
#
#
#
# Elastic Constant Matrix: (Units=GPa)
#
#
# Indices 1 2 3 4 5 6 
#
# 1 108.2736 56.7822 34.4519 0.0000 0.0000 0.0000
# 2 56.7822 122.4414 31.5645 0.0000 0.0000 0.0000
# 3 34.4519 31.5645 37.4258 0.0000 0.0000 0.0000
# 4 0.0000 0.0000 0.0000 14.8630 0.0000 0.0000
# 5 0.0000 0.0000 0.0000 0.0000 18.4877 0.0000
# 6 0.0000 0.0000 0.0000 0.0000 0.0000 32.2369
#
#
#
# Elastic Compliance Matrix: (Units=1/GPa)
#
#
# Indices 1 2 3 4 5 6 
#
# 1 0.014591 -0.004222 -0.009871 0.000000 0.000000 0.000000
# 2 -0.004222 0.011658 -0.005946 0.000000 0.000000 0.000000
# 3 -0.009871 -0.005946 0.040820 0.000000 0.000000 0.000000
# 4 0.000000 0.000000 0.000000 0.067281 0.000000 0.000000
# 5 0.000000 0.000000 0.000000 0.000000 0.054090 0.000000
# 6 0.000000 0.000000 0.000000 0.000000 0.000000 0.031020
#
#
# Mechanical properties :
#
#
# Convention : Reuss Voigt Hill
#
# Bulk Modulus (GPa) = 37.04729 57.08199 47.06464
# Shear Modulus (GPa) = 18.61959 22.80700 20.71329
#
# Velocity S-wave (km/s) = 3.24223 3.58834 3.41966
# Velocity P-wave (km/s) = 5.91032 7.02816 6.49334
#
# Compressibility (1/GPa) = 0.02699253
#
# Stress axis : x y z
#
# Youngs Moduli (GPa) = 68.53680 85.77942 24.49756
#
# Poissons Ratio (x) = 0.36215 0.24181
# Poissons Ratio (y) = 0.28935 0.14565
# Poissons Ratio (z) = 0.67650 0.51002
#
# Static dielectric constant tensor:
#      x y z
#    x 3.412710 0.000000 0.000000 
#    y 0.000000 3.457420 0.000000 
#    z 0.000000 0.000000 2.997460 
# 
# 
# High freq. dielectric constant tensor:
#      x y z
#    x 1.690470 0.000000 0.000000 
#    y 0.000000 1.688150 0.000000 
#    z 0.000000 0.000000 1.654380 
# 
# From -- ./inp_files/11830.got.cif
#   From: 2010.03.12/outbox.cif.g09.slc.cpg/sg65_6_cif.got.tgz:11830.got - 2010.04.10 20:52:16.
