data_PCOD8268811
_publ_section_title
;
Structure prediction by ZEFSAII (Michael W. Deem and Ramdas Pophale) SiO2 
 PCOD8268811
Probable space group: C M M M
;
_chemical_formula_sum "Si O2"
_cell_formula_units_Z 104
_cell_length_a 27.113953
_cell_length_b 22.092107
_cell_length_c 8.243730
_cell_angle_alpha 90.000000
_cell_angle_beta 90.000000
_cell_angle_gamma 90.000000
_cell_volume 4938.030137
_symmetry_space_group_name_H-M "C M M M"
_symmetry_group_IT_number 65
_symmetry_cell_setting 'orthorhombic'
loop_
_space_group_symop_operation_xyz
x,y,z
-x,-y,z
x,-y,-z
-x,y,-z
-x,-y,-z
x,y,-z
-x,y,z
x,-y,z
1/2+x,1/2+y,z
1/2-x,1/2-y,z
1/2+x,1/2-y,-z
1/2-x,1/2+y,-z
1/2-x,1/2-y,-z
1/2+x,1/2+y,-z
1/2-x,1/2+y,z
1/2+x,1/2-y,z
loop_
_atom_site_type_symbol
_atom_site_label
_atom_site_fract_x
_atom_site_fract_y
_atom_site_fract_z
Si Si1 0.882108 0.104485 0.687980
Si Si2 0.726202 0.188129 0.811721
Si Si3 0.942177 0.000000 0.182874
Si Si4 0.554807 0.713599 0.309862
Si Si5 0.278013 0.568002 0.811798
Si Si6 0.619325 0.174129 0.310244
Si Si7 0.445448 0.932824 0.692897
O O1 0.866839 0.109531 0.500000
O O2 0.904676 0.166768 0.759237
O O3 0.835067 0.084060 0.789855
O O4 0.925505 0.057179 0.713650
O O5 0.750000 0.250000 0.734825
O O6 0.746853 0.124542 0.733738
O O7 0.667878 0.191353 0.787772
O O8 0.739983 0.187253 0.000000
O O9 0.000000 0.000000 0.173553
O O10 0.919885 0.000000 0.000000
O O11 0.550033 0.701599 0.500000
O O12 0.500000 0.706822 0.231127
O O13 0.575380 0.779682 0.272201
O O14 0.266809 0.500000 0.736362
O O15 0.265446 0.563937 0.000000
O O16 0.632817 0.172662 0.500000
O O17 0.597690 0.110854 0.243260
O O18 0.447092 0.929042 0.500000
O O19 0.500000 0.914959 0.758815
O O20 0.431674 0.000000 0.752348
#
# Coordination Sequence:
#
# PCOD8268811 Si02
#       7
#    16  16   8  16  16  16  16
#     4  11  21  34  55  81 107 137 177 226 274 312
#     4  10  22  39  56  75 103 141 181 222 273 328
#     4  11  23  37  53  75 107 145 181 215 256 315
#     4   9  18  32  51  78 111 143 175 215 268 327
#     4  10  21  38  58  77 103 142 183 222 270 331
#     4  10  19  32  54  81 106 136 176 224 271 315
#     4   8  14  26  47  77 111 143 174 209 255 315
#
# _framework density 21.061031
#
# number of rings (size 3 to 8) (size 9 to 14) (size 15 to 20)
#    0.000    2.231    0.769    3.000    0.000    4.615 
#    0.000    0.769    0.000    3.692    0.000    1.077 
#    0.000    0.000    0.000    0.000    0.000    0.000 
#
# Total GULP energy -644440.233030 kJ/mol
# GULP energy per Si atom -12393.081404 kJ/mol
# Density = 2.101309 g / cm^3
# Si number density = 21.061031 Si / 1000 Ang^3
#
#
#
# Elastic Constant Matrix: (Units=GPa)
#
#
# Indices 1 2 3 4 5 6 
#
# 1 99.2414 57.2860 2.4610 0.0000 0.0000 0.0000
# 2 57.2860 163.2190 8.5143 0.0000 0.0000 0.0000
# 3 2.4610 8.5143 13.3288 0.0000 0.0000 0.0000
# 4 0.0000 0.0000 0.0000 14.2482 0.0000 0.0000
# 5 0.0000 0.0000 0.0000 0.0000 20.2353 0.0000
# 6 0.0000 0.0000 0.0000 0.0000 0.0000 32.5848
#
#
#
# Elastic Compliance Matrix: (Units=1/GPa)
#
#
# Indices 1 2 3 4 5 6 
#
# 1 0.012640 -0.004463 0.000517 0.000000 0.000000 0.000000
# 2 -0.004463 0.007914 -0.004231 0.000000 0.000000 0.000000
# 3 0.000517 -0.004231 0.077633 0.000000 0.000000 0.000000
# 4 0.000000 0.000000 0.000000 0.070184 0.000000 0.000000
# 5 0.000000 0.000000 0.000000 0.000000 0.049419 0.000000
# 6 0.000000 0.000000 0.000000 0.000000 0.000000 0.030689
#
#
# Mechanical properties :
#
#
# Convention : Reuss Voigt Hill
#
# Bulk Modulus (GPa) = 12.22014 45.81241 29.01628
# Shear Modulus (GPa) = 17.11680 27.24886 22.18283
#
# Velocity S-wave (km/s) = 2.85392 3.60085 3.24892
# Velocity P-wave (km/s) = 4.08347 6.25201 5.28026
#
# Compressibility (1/GPa) = 0.08183213
#
# Stress axis : x y z
#
# Youngs Moduli (GPa) = 79.11384 126.35856 12.88118
#
# Poissons Ratio (x) = 0.56398 -0.00666
# Poissons Ratio (y) = 0.35311 0.05450
# Poissons Ratio (z) = -0.04093 0.53466
#
# Static dielectric constant tensor:
#      x y z
#    x 3.705140 0.000000 0.000000 
#    y 0.000000 4.408460 0.000000 
#    z 0.000000 0.000000 3.349820 
# 
# 
# High freq. dielectric constant tensor:
#      x y z
#    x 1.824660 0.000000 0.000000 
#    y 0.000000 1.846940 0.000000 
#    z 0.000000 0.000000 1.773490 
# 
# From -- ./inp_files/16520.got.cif
#   From: 2010.03.12/outbox.cif.g09.slc.cpg/sg65_9_cif.got.tgz:16520.got - 2010.04.10 20:52:16.
