data_PCOD8268931
_publ_section_title
;
Structure prediction by ZEFSAII (Michael W. Deem and Ramdas Pophale) SiO2 
 PCOD8268931
Probable space group: C M M M
;
_chemical_formula_sum "Si O2"
_cell_formula_units_Z 88
_cell_length_a 9.409785
_cell_length_b 30.880747
_cell_length_c 17.231521
_cell_angle_alpha 90.000000
_cell_angle_beta 90.000000
_cell_angle_gamma 90.000000
_cell_volume 5007.155876
_symmetry_space_group_name_H-M "C M M M"
_symmetry_group_IT_number 65
_symmetry_cell_setting 'orthorhombic'
loop_
_space_group_symop_operation_xyz
x,y,z
-x,-y,z
x,-y,-z
-x,y,-z
-x,-y,-z
x,y,-z
-x,y,z
x,-y,z
1/2+x,1/2+y,z
1/2-x,1/2-y,z
1/2+x,1/2-y,-z
1/2-x,1/2+y,-z
1/2-x,1/2-y,-z
1/2+x,1/2+y,-z
1/2-x,1/2+y,z
1/2+x,1/2-y,z
loop_
_atom_site_type_symbol
_atom_site_label
_atom_site_fract_x
_atom_site_fract_y
_atom_site_fract_z
Si Si1 0.332713 0.622976 0.253597
Si Si2 0.153158 0.000000 0.590904
Si Si3 0.837120 0.583967 0.000000
Si Si4 0.335108 0.950793 0.833980
Si Si5 0.668724 0.407488 0.585215
Si Si6 0.835342 0.171614 0.000000
Si Si7 0.333724 0.291992 0.164648
O O1 0.500000 0.617123 0.239938
O O2 0.257679 0.581864 0.216082
O O3 0.293385 0.625792 0.345695
O O4 0.279293 0.667279 0.214913
O O5 0.234725 0.045218 0.610043
O O6 0.126304 0.000000 0.500000
O O7 0.000000 0.000000 0.634371
O O8 0.801128 0.555369 0.075094
O O9 0.746365 0.627066 0.000000
O O10 0.000000 0.598866 0.000000
O O11 0.500000 0.941459 0.816927
O O12 0.294816 0.000000 0.811115
O O13 0.726580 0.392008 0.500000
O O14 0.500000 0.413443 0.579080
O O15 0.795067 0.199665 0.924943
O O16 0.000000 0.159125 0.000000
O O17 0.500000 0.283816 0.177090
O O18 0.250000 0.250000 0.194182
#
# Coordination Sequence:
#
# PCOD8268931 Si02
#       7
#    16   8   8  16  16   8  16
#     4  10  20  33  52  78 103 128 165 213 259 297
#     4   7  10  18  34  60  93 124 153 186 226 275
#     4  10  19  33  53  71  95 137 180 206 236 289
#     4  10  21  35  50  71 102 140 177 208 240 288
#     4   8  14  25  43  70 102 131 161 200 245 293
#     4  10  19  34  52  74 104 127 154 208 260 299
#     4  10  21  35  52  74 100 129 163 205 254 306
#
# _framework density 17.574846999999998
#
# number of rings (size 3 to 8) (size 9 to 14) (size 15 to 20)
#    0.000    2.636    1.818    1.636    1.273    2.909 
#    0.000    0.000    0.000    2.727    0.000    1.273 
#    0.000    0.000    0.000    0.000    0.000    0.000 
#
# Total GULP energy -545237.090480 kJ/mol
# GULP energy per Si atom -12391.752056 kJ/mol
# Density = 1.753485 g / cm^3
# Si number density = 17.574847 Si / 1000 Ang^3
#
#
#
# Elastic Constant Matrix: (Units=GPa)
#
#
# Indices 1 2 3 4 5 6 
#
# 1 33.2800 41.7441 25.3710 0.0000 0.0000 0.0000
# 2 41.7441 127.9805 61.0378 0.0000 0.0000 0.0000
# 3 25.3710 61.0378 125.3400 0.0000 0.0000 0.0000
# 4 0.0000 0.0000 0.0000 21.7166 0.0000 0.0000
# 5 0.0000 0.0000 0.0000 0.0000 1.6476 0.0000
# 6 0.0000 0.0000 0.0000 0.0000 0.0000 28.0777
#
#
#
# Elastic Compliance Matrix: (Units=1/GPa)
#
#
# Indices 1 2 3 4 5 6 
#
# 1 0.051669 -0.015454 -0.002933 0.000000 0.000000 0.000000
# 2 -0.015454 0.014800 -0.004079 0.000000 0.000000 0.000000
# 3 -0.002933 -0.004079 0.010558 0.000000 0.000000 0.000000
# 4 0.000000 0.000000 0.000000 0.046048 0.000000 0.000000
# 5 0.000000 0.000000 0.000000 0.000000 0.606952 0.000000
# 6 0.000000 0.000000 0.000000 0.000000 0.000000 0.035616
#
#
# Mechanical properties :
#
#
# Convention : Reuss Voigt Hill
#
# Bulk Modulus (GPa) = 31.15773 60.32292 45.74032
# Shear Modulus (GPa) = 6.08812 20.85153 13.46983
#
# Velocity S-wave (km/s) = 1.86323 3.44821 2.77144
# Velocity P-wave (km/s) = 4.73243 7.08883 6.02692
#
# Compressibility (1/GPa) = 0.03209477
#
# Stress axis : x y z
#
# Youngs Moduli (GPa) = 19.35410 67.56790 94.71205
#
# Poissons Ratio (x) = 1.04422 0.27776
# Poissons Ratio (y) = 0.29910 0.38633
# Poissons Ratio (z) = 0.05676 0.27561
#
# Static dielectric constant tensor:
#      x y z
#    x 2.929530 0.000000 0.000000 
#    y 0.000000 3.293970 0.000000 
#    z 0.000000 0.000000 3.506160 
# 
# 
# High freq. dielectric constant tensor:
#      x y z
#    x 1.642510 0.000000 0.000000 
#    y 0.000000 1.669410 0.000000 
#    z 0.000000 0.000000 1.682460 
# 
# From -- ./inp_files/50512.got.cif
#   From: 2010.03.12/outbox.cif.g09.slc.cpg/sg65_26_cif.got.tgz:50512.got - 2010.04.10 20:52:16.
