data_PCOD8268315
_publ_section_title
;
Structure prediction by ZEFSAII (Michael W. Deem and Ramdas Pophale) SiO2 
 PCOD8268315
Probable space group: C M M M
;
_chemical_formula_sum "Si O2"
_cell_formula_units_Z 64
_cell_length_a 24.033538
_cell_length_b 15.716196
_cell_length_c 9.389674
_cell_angle_alpha 90.000000
_cell_angle_beta 90.000000
_cell_angle_gamma 90.000000
_cell_volume 3546.628168
_symmetry_space_group_name_H-M "C M M M"
_symmetry_group_IT_number 65
_symmetry_cell_setting 'orthorhombic'
loop_
_space_group_symop_operation_xyz
x,y,z
-x,-y,z
x,-y,-z
-x,y,-z
-x,-y,-z
x,y,-z
-x,y,z
x,-y,z
1/2+x,1/2+y,z
1/2-x,1/2-y,z
1/2+x,1/2-y,-z
1/2-x,1/2+y,-z
1/2-x,1/2-y,-z
1/2+x,1/2+y,-z
1/2-x,1/2+y,z
1/2+x,1/2-y,z
loop_
_atom_site_type_symbol
_atom_site_label
_atom_site_fract_x
_atom_site_fract_y
_atom_site_fract_z
Si Si1 0.591276 0.500000 0.161727
Si Si2 0.000000 0.138553 0.161808
Si Si3 0.796957 0.000000 0.669216
Si Si4 0.500000 0.191091 0.330587
Si Si5 0.226839 0.339030 0.669500
Si Si6 0.609458 0.904134 0.669527
O O1 0.554791 0.583366 0.190568
O O2 0.641452 0.500000 0.270791
O O3 0.613521 0.500000 0.000000
O O4 0.000000 0.214394 0.272432
O O5 0.000000 0.172667 0.000000
O O6 0.764909 0.083620 0.725054
O O7 0.800524 0.000000 0.500000
O O8 0.500000 0.195637 0.500000
O O9 0.554409 0.142301 0.272791
O O10 0.227854 0.337057 0.500000
O O11 0.250000 0.250000 0.731998
O O12 0.163797 0.353290 0.724199
O O13 0.608975 0.907081 0.500000
O O14 0.610851 0.000000 0.730145
#
# Coordination Sequence:
#
# PCOD8268315 Si02
#       6
#     8   8   8   8  16  16
#     4   9  20  38  56  70  97 139 170 200 252 315
#     4   9  20  39  55  70  98 138 171 196 251 326
#     4  10  19  31  53  81 102 130 171 214 252 292
#     4  10  20  29  51  83 102 122 168 227 258 274
#     4   9  17  28  44  70 106 140 165 198 253 310
#     4   9  16  29  45  68 105 141 168 199 250 309
#
# _framework density 18.045309
#
# number of rings (size 3 to 8) (size 9 to 14) (size 15 to 20)
#    0.000    2.750    1.250    1.125    3.500    2.500 
#    0.000    1.250    0.000    3.750    0.000    0.000 
#    0.000    0.000    0.000    0.000    0.000    0.000 
#
# Total GULP energy -396756.498910 kJ/mol
# GULP energy per Si atom -12398.640591 kJ/mol
# Density = 1.800424 g / cm^3
# Si number density = 18.045309 Si / 1000 Ang^3
#
#
#
# Elastic Constant Matrix: (Units=GPa)
#
#
# Indices 1 2 3 4 5 6 
#
# 1 167.0320 80.3316 22.9222 0.0000 0.0000 0.0000
# 2 80.3316 162.2595 20.0461 0.0000 0.0000 0.0000
# 3 22.9222 20.0461 12.9328 0.0000 0.0000 0.0000
# 4 0.0000 0.0000 0.0000 10.5527 0.0000 0.0000
# 5 0.0000 0.0000 0.0000 0.0000 11.6226 0.0000
# 6 0.0000 0.0000 0.0000 0.0000 0.0000 15.7804
#
#
#
# Elastic Compliance Matrix: (Units=1/GPa)
#
#
# Indices 1 2 3 4 5 6 
#
# 1 0.009001 -0.003074 -0.011188 0.000000 0.000000 0.000000
# 2 -0.003074 0.008672 -0.007994 0.000000 0.000000 0.000000
# 3 -0.011188 -0.007994 0.109545 0.000000 0.000000 0.000000
# 4 0.000000 0.000000 0.000000 0.094762 0.000000 0.000000
# 5 0.000000 0.000000 0.000000 0.000000 0.086040 0.000000
# 6 0.000000 0.000000 0.000000 0.000000 0.000000 0.063370
#
#
# Mechanical properties :
#
#
# Convention : Reuss Voigt Hill
#
# Bulk Modulus (GPa) = 12.09118 65.42490 38.75804
# Shear Modulus (GPa) = 11.27469 22.18608 16.73039
#
# Velocity S-wave (km/s) = 2.50231 3.51018 3.04819
# Velocity P-wave (km/s) = 3.88120 7.26382 5.82352
#
# Compressibility (1/GPa) = 0.08270494
#
# Stress axis : x y z
#
# Youngs Moduli (GPa) = 111.10410 115.30843 9.12866
#
# Poissons Ratio (x) = 0.35443 0.10213
# Poissons Ratio (y) = 0.34151 0.07298
# Poissons Ratio (z) = 1.24307 0.92183
#
# Static dielectric constant tensor:
#      x y z
#    x 3.538610 0.000000 0.000000 
#    y 0.000000 3.512670 0.000000 
#    z 0.000000 0.000000 2.698500 
# 
# 
# High freq. dielectric constant tensor:
#      x y z
#    x 1.715410 0.000000 0.000000 
#    y 0.000000 1.711690 0.000000 
#    z 0.000000 0.000000 1.632430 
# 
# From -- ./inp_files/6812.got.cif
#   From: 2010.03.12/outbox.cif.g09.slc.cpg/sg65_4_cif.got.tgz:6812.got - 2010.04.10 20:52:16.
