data_PCOD8268383
_publ_section_title
;
Structure prediction by ZEFSAII (Michael W. Deem and Ramdas Pophale) SiO2 
 PCOD8268383
Probable space group: C M M M
;
_chemical_formula_sum "Si O2"
_cell_formula_units_Z 80
_cell_length_a 8.861029
_cell_length_b 27.120414
_cell_length_c 18.708810
_cell_angle_alpha 90.000000
_cell_angle_beta 90.000000
_cell_angle_gamma 90.000000
_cell_volume 4496.003465
_symmetry_space_group_name_H-M "C M M M"
_symmetry_group_IT_number 65
_symmetry_cell_setting 'orthorhombic'
loop_
_space_group_symop_operation_xyz
x,y,z
-x,-y,z
x,-y,-z
-x,y,-z
-x,-y,-z
x,y,-z
-x,y,z
x,-y,z
1/2+x,1/2+y,z
1/2-x,1/2-y,z
1/2+x,1/2-y,-z
1/2-x,1/2+y,-z
1/2-x,1/2-y,-z
1/2+x,1/2+y,-z
1/2-x,1/2+y,z
1/2+x,1/2-y,z
loop_
_atom_site_type_symbol
_atom_site_label
_atom_site_fract_x
_atom_site_fract_y
_atom_site_fract_z
Si Si1 0.177792 0.699172 0.780094
Si Si2 0.677030 0.101314 0.144713
Si Si3 0.323193 0.303074 0.500000
Si Si4 0.678206 0.647735 0.353180
Si Si5 0.680311 0.943756 0.000000
Si Si6 0.677783 0.943941 0.290863
O O1 0.250000 0.750000 0.806685
O O2 0.218211 0.658301 0.839973
O O3 0.244814 0.683611 0.704037
O O4 0.000000 0.705359 0.770792
O O5 0.500000 0.093983 0.138548
O O6 0.749396 0.083351 0.070033
O O7 0.735151 0.067661 0.210406
O O8 0.500000 0.294714 0.500000
O O9 0.250000 0.250000 0.500000
O O10 0.271608 0.333764 0.430909
O O11 0.500000 0.649552 0.341892
O O12 0.736148 0.591633 0.345791
O O13 0.500000 0.941056 0.000000
O O14 0.735801 0.000000 0.000000
O O15 0.500000 0.933294 0.296656
O O16 0.717835 0.000000 0.310583
#
# Coordination Sequence:
#
# PCOD8268383 Si02
#       6
#    16  16   8  16   8  16
#     4  10  19  32  49  70  96 126 160 198 239 281
#     4   8  15  26  42  67  97 125 156 196 237 278
#     4  10  22  36  51  72  97 123 152 193 241 288
#     4  10  20  34  51  73  98 124 158 196 238 287
#     4   9  14  22  41  68  95 123 155 193 238 283
#     4   9  17  31  50  72  99 130 163 199 237 277
#
# _framework density 17.793579999999999
#
# number of rings (size 3 to 8) (size 9 to 14) (size 15 to 20)
#    0.000    2.700    0.000    3.600    0.000    6.000 
#    0.000    1.000    0.000    3.000    0.000   16.800 
#    0.000   26.400    0.000    0.000    0.000    0.000 
#
# Total GULP energy -495930.419394 kJ/mol
# GULP energy per Si atom -12398.260485 kJ/mol
# Density = 1.775308 g / cm^3
# Si number density = 17.793580 Si / 1000 Ang^3
#
#
#
# Elastic Constant Matrix: (Units=GPa)
#
#
# Indices 1 2 3 4 5 6 
#
# 1 48.7940 46.0542 36.1561 0.0000 0.0000 0.0000
# 2 46.0542 158.6210 84.1983 0.0000 0.0000 0.0000
# 3 36.1561 84.1983 145.6910 0.0000 0.0000 0.0000
# 4 0.0000 0.0000 0.0000 23.6735 0.0000 0.0000
# 5 0.0000 0.0000 0.0000 0.0000 15.2822 0.0000
# 6 0.0000 0.0000 0.0000 0.0000 0.0000 31.0830
#
#
#
# Elastic Compliance Matrix: (Units=1/GPa)
#
#
# Indices 1 2 3 4 5 6 
#
# 1 0.029356 -0.006717 -0.003404 0.000000 0.000000 0.000000
# 2 -0.006717 0.010631 -0.004477 0.000000 0.000000 0.000000
# 3 -0.003404 -0.004477 0.010296 0.000000 0.000000 0.000000
# 4 0.000000 0.000000 0.000000 0.042241 0.000000 0.000000
# 5 0.000000 0.000000 0.000000 0.000000 0.065436 0.000000
# 6 0.000000 0.000000 0.000000 0.000000 0.000000 0.032172
#
#
# Mechanical properties :
#
#
# Convention : Reuss Voigt Hill
#
# Bulk Modulus (GPa) = 47.41961 76.21366 61.81664
# Shear Modulus (GPa) = 22.08918 26.45422 24.27170
#
# Velocity S-wave (km/s) = 3.52719 3.85999 3.69734
# Velocity P-wave (km/s) = 6.57995 7.92409 7.28310
#
# Compressibility (1/GPa) = 0.02108832
#
# Stress axis : x y z
#
# Youngs Moduli (GPa) = 34.06487 94.06569 97.12630
#
# Poissons Ratio (x) = 0.63179 0.33058
# Poissons Ratio (y) = 0.22880 0.43483
# Poissons Ratio (z) = 0.11594 0.42113
#
# Static dielectric constant tensor:
#      x y z
#    x 3.040540 0.000000 0.000000 
#    y 0.000000 3.419640 0.000000 
#    z 0.000000 0.000000 3.458840 
# 
# 
# High freq. dielectric constant tensor:
#      x y z
#    x 1.662090 0.000000 0.000000 
#    y 0.000000 1.698570 0.000000 
#    z 0.000000 0.000000 1.679670 
# 
# From -- ./inp_files/49905.got.cif
#   From: 2010.03.12/outbox.cif.g09.slc.cpg/sg65_25_cif.got.tgz:49905.got - 2010.04.10 20:52:16.
