data_PCOD8268289
_publ_section_title
;
Structure prediction by ZEFSAII (Michael W. Deem and Ramdas Pophale) SiO2 
 PCOD8268289
Probable space group: C M M M
;
_chemical_formula_sum "Si O2"
_cell_formula_units_Z 72
_cell_length_a 32.407214
_cell_length_b 13.447624
_cell_length_c 8.503292
_cell_angle_alpha 90.000000
_cell_angle_beta 90.000000
_cell_angle_gamma 90.000000
_cell_volume 3705.734898
_symmetry_space_group_name_H-M "C M M M"
_symmetry_group_IT_number 65
_symmetry_cell_setting 'orthorhombic'
loop_
_space_group_symop_operation_xyz
x,y,z
-x,-y,z
x,-y,-z
-x,y,-z
-x,-y,-z
x,y,-z
-x,y,z
x,-y,z
1/2+x,1/2+y,z
1/2-x,1/2-y,z
1/2+x,1/2-y,-z
1/2-x,1/2+y,-z
1/2-x,1/2-y,-z
1/2+x,1/2+y,-z
1/2-x,1/2+y,z
1/2+x,1/2-y,z
loop_
_atom_site_type_symbol
_atom_site_label
_atom_site_fract_x
_atom_site_fract_y
_atom_site_fract_z
Si Si1 0.546655 0.110187 0.186773
Si Si2 0.734506 0.892625 0.187338
Si Si3 0.092638 0.806225 0.812579
Si Si4 0.952386 0.000000 0.315146
Si Si5 0.815543 0.209405 0.813211
O O1 0.500000 0.125930 0.247537
O O2 0.574018 0.201709 0.252747
O O3 0.562602 0.000000 0.242662
O O4 0.547555 0.113007 0.000000
O O5 0.781303 0.869646 0.244222
O O6 0.700464 0.815956 0.251005
O O7 0.721848 0.000000 0.252816
O O8 0.734683 0.888644 0.000000
O O9 0.139301 0.814952 0.745063
O O10 0.067555 0.900563 0.753319
O O11 0.091664 0.807053 0.000000
O O12 0.946332 0.000000 0.500000
O O13 0.000000 0.000000 0.265250
O O14 0.818686 0.211428 0.000000
#
# Coordination Sequence:
#
# PCOD8268289 Si02
#       5
#    16  16  16   8  16
#     4   8  14  25  42  67  98 126 151 191 251 304
#     4   8  13  22  36  56  96 140 159 182 235 295
#     4  10  19  31  52  78 101 127 169 217 250 292
#     4  11  25  41  53  69  99 137 171 209 263 317
#     4   8  15  24  36  64  96 124 160 197 238 284
#
# _framework density 19.429345000000001
#
# number of rings (size 3 to 8) (size 9 to 14) (size 15 to 20)
#    0.000    3.222    0.000    3.000    1.556    2.667 
#    0.000    4.444    0.000    0.667    0.000    6.222 
#    0.000    0.000    0.000    0.000    0.000    0.000 
#
# Total GULP energy -445987.909647 kJ/mol
# GULP energy per Si atom -12388.553046 kJ/mol
# Density = 1.938512 g / cm^3
# Si number density = 19.429345 Si / 1000 Ang^3
#
#
#
# Elastic Constant Matrix: (Units=GPa)
#
#
# Indices 1 2 3 4 5 6 
#
# 1 138.3576 65.0922 16.9466 0.0000 0.0000 0.0000
# 2 65.0922 159.0716 14.1607 0.0000 0.0000 0.0000
# 3 16.9466 14.1607 11.0018 0.0000 0.0000 0.0000
# 4 0.0000 0.0000 0.0000 -0.0632 0.0000 0.0000
# 5 0.0000 0.0000 0.0000 0.0000 5.3044 0.0000
# 6 0.0000 0.0000 0.0000 0.0000 0.0000 19.7055
#
#
#
# Elastic Compliance Matrix: (Units=1/GPa)
#
#
# Indices 1 2 3 4 5 6 
#
# 1 0.010106 -0.003105 -0.011569 0.000000 0.000000 0.000000
# 2 -0.003105 0.008054 -0.005584 0.000000 0.000000 0.000000
# 3 -0.011569 -0.005584 0.115902 0.000000 0.000000 0.000000
# 4 0.000000 0.000000 0.000000-15.829819 0.000000 0.000000
# 5 0.000000 0.000000 0.000000 0.000000 0.188523 0.000000
# 6 0.000000 0.000000 0.000000 0.000000 0.000000 0.050747
#
#
# Mechanical properties :
#
#
# Convention : Reuss Voigt Hill
#
# Bulk Modulus (GPa) = 10.68996 55.64775 33.16886
# Shear Modulus (GPa) = -0.32500 19.13810 9.40655
#
# Velocity S-wave (km/s) = -0.40943 3.14189 2.20271
# Velocity P-wave (km/s) = 2.30009 6.47034 4.85570
#
# Compressibility (1/GPa) = 0.09354568
#
# Stress axis : x y z
#
# Youngs Moduli (GPa) = 98.95466 124.15827 8.62797
#
# Poissons Ratio (x) = 0.38555 0.09982
# Poissons Ratio (y) = 0.30729 0.04817
# Poissons Ratio (z) = 1.14483 0.69325
#
# Static dielectric constant tensor:
#      x y z
#    x 3.856390 0.000000 0.000000 
#    y 0.000000 4.018520 0.000000 
#    z 0.000000 0.000000 2.786530 
# 
# 
# High freq. dielectric constant tensor:
#      x y z
#    x 1.761020 0.000000 0.000000 
#    y 0.000000 1.774250 0.000000 
#    z 0.000000 0.000000 1.676570 
# 
# From -- ./inp_files/18013.got.cif
#   From: 2010.03.12/outbox.cif.g09.slc.cpg/sg65_10_cif.got.tgz:18013.got - 2010.04.10 20:52:16.
