data_PCOD8268444
_publ_section_title
;
Structure prediction by ZEFSAII (Michael W. Deem and Ramdas Pophale) SiO2 
 PCOD8268444
Probable space group: C M M M
;
_chemical_formula_sum "Si O2"
_cell_formula_units_Z 96
_cell_length_a 21.976340
_cell_length_b 13.923001
_cell_length_c 18.399700
_cell_angle_alpha 90.000000
_cell_angle_beta 90.000000
_cell_angle_gamma 90.000000
_cell_volume 5629.877717
_symmetry_space_group_name_H-M "C M M M"
_symmetry_group_IT_number 65
_symmetry_cell_setting 'orthorhombic'
loop_
_space_group_symop_operation_xyz
x,y,z
-x,-y,z
x,-y,-z
-x,y,-z
-x,-y,-z
x,y,-z
-x,y,z
x,-y,z
1/2+x,1/2+y,z
1/2-x,1/2-y,z
1/2+x,1/2-y,-z
1/2-x,1/2+y,-z
1/2-x,1/2-y,-z
1/2+x,1/2+y,-z
1/2-x,1/2+y,z
1/2+x,1/2-y,z
loop_
_atom_site_type_symbol
_atom_site_label
_atom_site_fract_x
_atom_site_fract_y
_atom_site_fract_z
Si Si1 0.662025 0.198044 0.916865
Si Si2 0.715604 0.609471 0.704998
Si Si3 0.350948 0.888571 0.326587
Si Si4 0.178964 0.769178 0.579001
Si Si5 0.429566 0.888403 0.811307
Si Si6 0.786284 0.889271 0.130145
O O1 0.599931 0.174842 0.875041
O O2 0.715189 0.136282 0.878676
O O3 0.674779 0.313007 0.916218
O O4 0.655634 0.165317 0.000000
O O5 0.716717 0.500000 0.682254
O O6 0.785207 0.647193 0.703313
O O7 0.670467 0.657146 0.646037
O O8 0.692086 0.624593 0.786739
O O9 0.360005 0.826383 0.400039
O O10 0.400988 0.862564 0.266600
O O11 0.353080 0.000000 0.347537
O O12 0.154627 0.806201 0.500000
O O13 0.250000 0.750000 0.569902
O O14 0.500000 0.861553 0.807903
O O15 0.418612 0.000000 0.829317
O O16 0.797246 0.000000 0.105014
#
# Coordination Sequence:
#
# PCOD8268444 Si02
#       6
#    16  16  16  16  16  16
#     4  11  22  32  48  74 101 129 160 202 254 304
#     4   9  16  26  44  65  91 127 157 186 227 281
#     4   9  16  28  45  64  88 123 162 194 230 277
#     4   9  17  26  40  66  97 126 153 188 235 284
#     4  10  20  34  52  72  95 128 171 213 247 285
#     4  10  19  32  50  73 100 131 164 197 241 299
#
# _framework density 17.051881000000002
#
# number of rings (size 3 to 8) (size 9 to 14) (size 15 to 20)
#    0.000    2.333    1.667    2.500    4.667    3.333 
#    0.000    4.167    0.000    1.000    0.000    3.500 
#    0.000    0.000    0.000    6.000    0.000    2.000 
#
# Total GULP energy -594888.735284 kJ/mol
# GULP energy per Si atom -12393.515318 kJ/mol
# Density = 1.701307 g / cm^3
# Si number density = 17.051881 Si / 1000 Ang^3
#
#
#
# Elastic Constant Matrix: (Units=GPa)
#
#
# Indices 1 2 3 4 5 6 
#
# 1 66.7882 33.4762 36.0563 0.0000 0.0000 0.0000
# 2 33.4762 63.2571 42.0270 0.0000 0.0000 0.0000
# 3 36.0563 42.0270 121.5997 0.0000 0.0000 0.0000
# 4 0.0000 0.0000 0.0000 18.1984 0.0000 0.0000
# 5 0.0000 0.0000 0.0000 0.0000 6.5388 0.0000
# 6 0.0000 0.0000 0.0000 0.0000 0.0000 16.1487
#
#
#
# Elastic Compliance Matrix: (Units=1/GPa)
#
#
# Indices 1 2 3 4 5 6 
#
# 1 0.021261 -0.009168 -0.003135 0.000000 0.000000 0.000000
# 2 -0.009168 0.024474 -0.005740 0.000000 0.000000 0.000000
# 3 -0.003135 -0.005740 0.011137 0.000000 0.000000 0.000000
# 4 0.000000 0.000000 0.000000 0.054950 0.000000 0.000000
# 5 0.000000 0.000000 0.000000 0.000000 0.152933 0.000000
# 6 0.000000 0.000000 0.000000 0.000000 0.000000 0.061925
#
#
# Mechanical properties :
#
#
# Convention : Reuss Voigt Hill
#
# Bulk Modulus (GPa) = 48.11282 52.75157 50.43219
# Shear Modulus (GPa) = 13.52465 17.51621 15.52043
#
# Velocity S-wave (km/s) = 2.81934 3.20852 3.02021
# Velocity P-wave (km/s) = 6.23499 6.68799 6.46546
#
# Compressibility (1/GPa) = 0.02078448
#
# Stress axis : x y z
#
# Youngs Moduli (GPa) = 47.03489 40.85958 89.78831
#
# Poissons Ratio (x) = 0.37461 0.28153
# Poissons Ratio (y) = 0.43123 0.51540
# Poissons Ratio (z) = 0.14748 0.23454
#
# Static dielectric constant tensor:
#      x y z
#    x 2.737560 0.000000 0.000000 
#    y 0.000000 3.262770 0.000000 
#    z 0.000000 0.000000 3.354500 
# 
# 
# High freq. dielectric constant tensor:
#      x y z
#    x 1.593480 0.000000 0.000000 
#    y 0.000000 1.660930 0.000000 
#    z 0.000000 0.000000 1.666420 
# 
# From -- ./inp_files/64649.got.cif
#   From: 2010.03.12/outbox.cif.g09.slc.cpg/sg65_33_cif.got.tgz:64649.got - 2010.04.10 20:52:16.
