data_PCOD8268947
_publ_section_title
;
Structure prediction by ZEFSAII (Michael W. Deem and Ramdas Pophale) SiO2 
 PCOD8268947
Probable space group: C M M M
;
_chemical_formula_sum "Si O2"
_cell_formula_units_Z 88
_cell_length_a 19.295794
_cell_length_b 9.147878
_cell_length_c 28.049972
_cell_angle_alpha 90.000000
_cell_angle_beta 90.000000
_cell_angle_gamma 90.000000
_cell_volume 4951.256780
_symmetry_space_group_name_H-M "C M M M"
_symmetry_group_IT_number 65
_symmetry_cell_setting 'orthorhombic'
loop_
_space_group_symop_operation_xyz
x,y,z
-x,-y,z
x,-y,-z
-x,y,-z
-x,-y,-z
x,y,-z
-x,y,z
x,-y,z
1/2+x,1/2+y,z
1/2-x,1/2-y,z
1/2+x,1/2-y,-z
1/2-x,1/2+y,-z
1/2-x,1/2-y,-z
1/2+x,1/2+y,-z
1/2-x,1/2+y,z
1/2+x,1/2-y,z
loop_
_atom_site_type_symbol
_atom_site_label
_atom_site_fract_x
_atom_site_fract_y
_atom_site_fract_z
Si Si1 0.580848 0.331063 0.623582
Si Si2 0.582207 0.338139 0.729470
Si Si3 0.680545 0.170525 0.445115
Si Si4 0.581754 0.831350 0.178963
Si Si5 0.819861 0.834013 0.000000
Si Si6 0.175673 0.172129 0.896388
O O1 0.500000 0.298211 0.619409
O O2 0.596873 0.500000 0.612044
O O3 0.608414 0.291848 0.676862
O O4 0.617016 0.227139 0.585791
O O5 0.500000 0.344331 0.727691
O O6 0.610569 0.500000 0.742581
O O7 0.607527 0.222969 0.769086
O O8 0.664262 0.207371 0.500000
O O9 0.750000 0.250000 0.427881
O O10 0.690774 0.000000 0.436597
O O11 0.500000 0.805982 0.172705
O O12 0.620133 0.737901 0.139294
O O13 0.602107 0.000000 0.173774
O O14 0.750000 0.750000 0.000000
O O15 0.857754 0.799336 0.949601
O O16 0.796764 0.000000 0.000000
O O17 0.250000 0.250000 0.890370
O O18 0.185194 0.000000 0.886329
#
# Coordination Sequence:
#
# PCOD8268947 Si02
#       6
#    16  16  16  16   8  16
#     4   9  18  33  54  79 104 130 163 204 248 294
#     4   8  15  30  51  73  98 130 166 202 244 294
#     4  10  21  36  53  73 100 135 171 206 247 296
#     4  10  20  33  50  74 103 134 168 204 245 294
#     4   8  16  30  49  72  95 125 163 201 245 296
#     4  10  19  33  53  75 100 129 164 206 250 296
#
# _framework density 17.773266
#
# number of rings (size 3 to 8) (size 9 to 14) (size 15 to 20)
#    0.000    2.727    0.000    2.727    0.000    4.364 
#    0.000    5.000    0.000    7.091    0.000    0.000 
#    0.000    0.000    0.000    0.000    0.000    0.000 
#
# Total GULP energy -545311.038056 kJ/mol
# GULP energy per Si atom -12393.432683 kJ/mol
# Density = 1.773281 g / cm^3
# Si number density = 17.773266 Si / 1000 Ang^3
#
#
#
# Elastic Constant Matrix: (Units=GPa)
#
#
# Indices 1 2 3 4 5 6 
#
# 1 47.7057 42.8069 48.2819 0.0000 0.0000 0.0000
# 2 42.8069 105.6901 69.8175 0.0000 0.0000 0.0000
# 3 48.2819 69.8175 126.8450 0.0000 0.0000 0.0000
# 4 0.0000 0.0000 0.0000 30.8947 0.0000 0.0000
# 5 0.0000 0.0000 0.0000 0.0000 -130.1015 0.0000
# 6 0.0000 0.0000 0.0000 0.0000 0.0000 30.4682
#
#
#
# Elastic Compliance Matrix: (Units=1/GPa)
#
#
# Indices 1 2 3 4 5 6 
#
# 1 0.039354 -0.009497 -0.009752 0.000000 0.000000 0.000000
# 2 -0.009497 0.017159 -0.005830 0.000000 0.000000 0.000000
# 3 -0.009752 -0.005830 0.014804 0.000000 0.000000 0.000000
# 4 0.000000 0.000000 0.000000 0.032368 0.000000 0.000000
# 5 0.000000 0.000000 0.000000 0.000000 -0.007686 0.000000
# 6 0.000000 0.000000 0.000000 0.000000 0.000000 0.032821
#
#
# Mechanical properties :
#
#
# Convention : Reuss Voigt Hill
#
# Bulk Modulus (GPa) = 47.26028 66.89483 57.07756
# Shear Modulus (GPa) = 26.87724 -5.79211 10.54256
#
# Velocity S-wave (km/s) = 3.89296 -1.80720 2.43815
# Velocity P-wave (km/s) = 6.84509 5.77624 6.33325
#
# Compressibility (1/GPa) = 0.02115942
#
# Stress axis : x y z
#
# Youngs Moduli (GPa) = 25.41070 58.27774 67.54709
#
# Poissons Ratio (x) = 0.55346 0.65873
# Poissons Ratio (y) = 0.24132 0.39379
# Poissons Ratio (z) = 0.24781 0.33975
#
# Static dielectric constant tensor:
#      x y z
#    x 2.911770 0.000000 0.000000 
#    y 0.000000 3.412870 0.000000 
#    z 0.000000 0.000000 4.011910 
# 
# 
# High freq. dielectric constant tensor:
#      x y z
#    x 1.649670 0.000000 0.000000 
#    y 0.000000 1.697040 0.000000 
#    z 0.000000 0.000000 1.703810 
# 
# From -- ./inp_files/67540.got.cif
#   From: 2010.03.12/outbox.cif.g09.slc.cpg/sg65_34_cif.got.tgz:67540.got - 2010.04.10 20:52:16.
