data_PCOD8268368
_publ_section_title
;
Structure prediction by ZEFSAII (Michael W. Deem and Ramdas Pophale) SiO2 
 PCOD8268368
Probable space group: C M M M
;
_chemical_formula_sum "Si O2"
_cell_formula_units_Z 96
_cell_length_a 16.540751
_cell_length_b 18.315784
_cell_length_c 18.392548
_cell_angle_alpha 90.000000
_cell_angle_beta 90.000000
_cell_angle_gamma 90.000000
_cell_volume 5572.147900
_symmetry_space_group_name_H-M "C M M M"
_symmetry_group_IT_number 65
_symmetry_cell_setting 'orthorhombic'
loop_
_space_group_symop_operation_xyz
x,y,z
-x,-y,z
x,-y,-z
-x,y,-z
-x,-y,-z
x,y,-z
-x,y,z
x,-y,z
1/2+x,1/2+y,z
1/2-x,1/2-y,z
1/2+x,1/2-y,-z
1/2-x,1/2+y,-z
1/2-x,1/2-y,-z
1/2+x,1/2+y,-z
1/2-x,1/2+y,z
1/2+x,1/2-y,z
loop_
_atom_site_type_symbol
_atom_site_label
_atom_site_fract_x
_atom_site_fract_y
_atom_site_fract_z
Si Si1 0.714066 0.082584 0.585860
Si Si2 0.090778 0.178142 0.916644
Si Si3 0.671706 0.202375 0.824231
Si Si4 0.594053 0.819256 0.671203
Si Si5 0.830279 0.797690 0.419751
Si Si6 0.258424 0.416363 0.915115
O O1 0.699663 0.087857 0.500000
O O2 0.636652 0.119419 0.622720
O O3 0.799035 0.122579 0.606636
O O4 0.721517 0.000000 0.613468
O O5 0.108917 0.249517 0.869560
O O6 0.150997 0.111787 0.898107
O O7 0.000000 0.150821 0.900140
O O8 0.101383 0.202105 0.000000
O O9 0.750000 0.250000 0.804530
O O10 0.629641 0.175842 0.751380
O O11 0.693998 0.130954 0.870595
O O12 0.500000 0.837019 0.673087
O O13 0.607731 0.738067 0.637357
O O14 0.870972 0.801925 0.500000
O O15 0.750000 0.750000 0.424376
O O16 0.252604 0.500000 0.889596
O O17 0.238018 0.408106 0.000000
#
# Coordination Sequence:
#
# PCOD8268368 Si02
#       6
#    16  16  16  16  16  16
#     4   9  18  33  52  72  95 125 159 193 231 279
#     4   9  17  30  50  74  97 121 151 192 241 286
#     4  10  19  32  49  68  93 127 165 197 226 272
#     4  11  21  31  47  72  99 125 155 196 242 280
#     4   8  15  30  50  70  92 121 157 191 226 275
#     4   9  18  32  50  72  96 123 156 193 234 281
#
# _framework density 17.228543999999999
#
# number of rings (size 3 to 8) (size 9 to 14) (size 15 to 20)
#    0.000    2.667    0.000    4.000    0.000    4.667 
#    0.000    2.500    0.000    2.000    0.000    8.167 
#    0.000    0.000    0.000    0.000    0.000    0.000 
#
# Total GULP energy -595097.169749 kJ/mol
# GULP energy per Si atom -12397.857703 kJ/mol
# Density = 1.718933 g / cm^3
# Si number density = 17.228544 Si / 1000 Ang^3
#
#
#
# Elastic Constant Matrix: (Units=GPa)
#
#
# Indices 1 2 3 4 5 6 
#
# 1 56.7197 41.7623 35.9269 0.0000 0.0000 0.0000
# 2 41.7623 133.4558 46.6009 0.0000 0.0000 0.0000
# 3 35.9269 46.6009 71.5199 0.0000 0.0000 0.0000
# 4 0.0000 0.0000 0.0000 11.1587 0.0000 0.0000
# 5 0.0000 0.0000 0.0000 0.0000 14.9829 0.0000
# 6 0.0000 0.0000 0.0000 0.0000 0.0000 17.9043
#
#
#
# Elastic Compliance Matrix: (Units=1/GPa)
#
#
# Indices 1 2 3 4 5 6 
#
# 1 0.028245 -0.005028 -0.010912 0.000000 0.000000 0.000000
# 2 -0.005028 0.010595 -0.004378 0.000000 0.000000 0.000000
# 3 -0.010912 -0.004378 0.022316 0.000000 0.000000 0.000000
# 4 0.000000 0.000000 0.000000 0.089616 0.000000 0.000000
# 5 0.000000 0.000000 0.000000 0.000000 0.066743 0.000000
# 6 0.000000 0.000000 0.000000 0.000000 0.000000 0.055852
#
#
# Mechanical properties :
#
#
# Convention : Reuss Voigt Hill
#
# Bulk Modulus (GPa) = 48.73308 56.69729 52.71519
# Shear Modulus (GPa) = 15.58393 17.96953 16.77673
#
# Velocity S-wave (km/s) = 3.01082 3.23307 3.12392
# Velocity P-wave (km/s) = 6.35880 6.84962 6.60877
#
# Compressibility (1/GPa) = 0.02051994
#
# Stress axis : x y z
#
# Youngs Moduli (GPa) = 35.40500 94.38159 44.81085
#
# Poissons Ratio (x) = 0.47458 0.48897
# Poissons Ratio (y) = 0.17803 0.19617
# Poissons Ratio (z) = 0.38634 0.41318
#
# Static dielectric constant tensor:
#      x y z
#    x 3.073480 0.000000 0.000000 
#    y 0.000000 3.508400 0.000000 
#    z 0.000000 0.000000 3.218470 
# 
# 
# High freq. dielectric constant tensor:
#      x y z
#    x 1.645710 0.000000 0.000000 
#    y 0.000000 1.658100 0.000000 
#    z 0.000000 0.000000 1.666920 
# 
# From -- ./inp_files/54476.got.cif
#   From: 2010.03.12/outbox.cif.g09.slc.cpg/sg65_28_cif.got.tgz:54476.got - 2010.04.10 20:52:16.
