data_PCOD8268269
_publ_section_title
;
Structure prediction by ZEFSAII (Michael W. Deem and Ramdas Pophale) SiO2 
 PCOD8268269
Probable space group: C M M M
;
_chemical_formula_sum "Si O2"
_cell_formula_units_Z 120
_cell_length_a 22.784281
_cell_length_b 16.195187
_cell_length_c 17.396967
_cell_angle_alpha 90.000000
_cell_angle_beta 90.000000
_cell_angle_gamma 90.000000
_cell_volume 6419.405867
_symmetry_space_group_name_H-M "C M M M"
_symmetry_group_IT_number 65
_symmetry_cell_setting 'orthorhombic'
loop_
_space_group_symop_operation_xyz
x,y,z
-x,-y,z
x,-y,-z
-x,y,-z
-x,-y,-z
x,y,-z
-x,y,z
x,-y,z
1/2+x,1/2+y,z
1/2-x,1/2-y,z
1/2+x,1/2-y,-z
1/2-x,1/2+y,-z
1/2-x,1/2-y,-z
1/2+x,1/2+y,-z
1/2-x,1/2+y,z
1/2+x,1/2-y,z
loop_
_atom_site_type_symbol
_atom_site_label
_atom_site_fract_x
_atom_site_fract_y
_atom_site_fract_z
Si Si1 0.789251 0.906068 0.414847
Si Si2 0.302850 0.190737 0.779142
Si Si3 0.119133 0.906006 0.848150
Si Si4 0.664334 0.907169 0.637677
Si Si5 0.744141 0.402467 0.910168
Si Si6 0.371080 0.322848 0.298597
Si Si7 0.065977 0.279963 0.587752
Si Si8 0.500000 0.594043 0.910249
O O1 0.813725 0.885720 0.500000
O O2 0.719024 0.895999 0.419487
O O3 0.815938 0.842574 0.353443
O O4 0.805740 0.000000 0.391388
O O5 0.250000 0.250000 0.754887
O O6 0.310282 0.113851 0.721851
O O7 0.293208 0.150981 0.863978
O O8 0.359460 0.249511 0.764651
O O9 0.180296 0.868947 0.881570
O O10 0.115129 0.901156 0.755179
O O11 0.060169 0.861953 0.881175
O O12 0.118808 0.000000 0.875897
O O13 0.611204 0.851100 0.609715
O O14 0.640199 0.000000 0.638198
O O15 0.751679 0.500000 0.892964
O O16 0.751997 0.383348 0.000000
O O17 0.424267 0.297845 0.355074
O O18 0.075740 0.251355 0.500000
O O19 0.000000 0.313199 0.599443
O O20 0.500000 0.500000 0.879279
O O21 0.500000 0.598657 0.000000
#
# Coordination Sequence:
#
# PCOD8268269 Si02
#       8
#    16  16  16  16  16  16  16   8
#     4  10  19  31  51  79 107 137 174 216 262 317
#     4  11  19  33  49  78 106 139 167 203 257 312
#     4  10  19  32  51  73  98 134 176 211 252 305
#     4  10  20  35  56  79 106 136 174 218 264 319
#     4  10  20  34  52  75 107 144 176 208 252 309
#     4  11  21  34  52  75 106 141 172 212 266 316
#     4  10  23  39  54  74 102 138 180 227 275 318
#     4   9  18  32  48  68  93 121 164 215 251 287
#
# _framework density 18.693317
#
# number of rings (size 3 to 8) (size 9 to 14) (size 15 to 20)
#    0.000    1.800    2.667    2.000    0.933    5.067 
#    0.000    2.667    0.000    0.000    0.000    2.800 
#    0.000    0.000    0.000   14.400    0.000    0.000 
#
# Total GULP energy -743428.891925 kJ/mol
# GULP energy per Si atom -12390.481532 kJ/mol
# Density = 1.865077 g / cm^3
# Si number density = 18.693317 Si / 1000 Ang^3
#
#
#
# Elastic Constant Matrix: (Units=GPa)
#
#
# Indices 1 2 3 4 5 6 
#
# 1 82.8918 22.1094 50.3590 0.0000 0.0000 0.0000
# 2 22.1094 43.4591 32.4254 0.0000 0.0000 0.0000
# 3 50.3590 32.4254 127.3119 0.0000 0.0000 0.0000
# 4 0.0000 0.0000 0.0000 27.8766 0.0000 0.0000
# 5 0.0000 0.0000 0.0000 0.0000 25.4900 0.0000
# 6 0.0000 0.0000 0.0000 0.0000 0.0000 11.9973
#
#
#
# Elastic Compliance Matrix: (Units=1/GPa)
#
#
# Indices 1 2 3 4 5 6 
#
# 1 0.016522 -0.004357 -0.005426 0.000000 0.000000 0.000000
# 2 -0.004357 0.029558 -0.005805 0.000000 0.000000 0.000000
# 3 -0.005426 -0.005805 0.011479 0.000000 0.000000 0.000000
# 4 0.000000 0.000000 0.000000 0.035872 0.000000 0.000000
# 5 0.000000 0.000000 0.000000 0.000000 0.039231 0.000000
# 6 0.000000 0.000000 0.000000 0.000000 0.000000 0.083352
#
#
# Mechanical properties :
#
#
# Convention : Reuss Voigt Hill
#
# Bulk Modulus (GPa) = 37.90161 51.49446 44.69804
# Shear Modulus (GPa) = 19.53238 22.99071 21.26154
#
# Velocity S-wave (km/s) = 3.23598 3.51078 3.37618
# Velocity P-wave (km/s) = 5.85505 6.63633 6.25789
#
# Compressibility (1/GPa) = 0.02638410
#
# Stress axis : x y z
#
# Youngs Moduli (GPa) = 60.52373 33.83204 87.11342
#
# Poissons Ratio (x) = 0.14742 0.47266
# Poissons Ratio (y) = 0.26373 0.50565
# Poissons Ratio (z) = 0.32839 0.19638
#
# Static dielectric constant tensor:
#      x y z
#    x 3.381300 0.000000 0.000000 
#    y 0.000000 3.414990 0.000000 
#    z 0.000000 0.000000 3.479190 
# 
# 
# High freq. dielectric constant tensor:
#      x y z
#    x 1.703530 0.000000 0.000000 
#    y 0.000000 1.708090 0.000000 
#    z 0.000000 0.000000 1.733300 
# 
# From -- ./inp_files/56121.got.cif
#   From: 2010.03.12/outbox.cif.g09.slc.cpg/sg65_29_cif.got.tgz:56121.got - 2010.04.10 20:52:16.
