data_PCOD8268249
_publ_section_title
;
Structure prediction by ZEFSAII (Michael W. Deem and Ramdas Pophale) SiO2 
 PCOD8268249
Probable space group: C M M M
;
_chemical_formula_sum "Si O2"
_cell_formula_units_Z 88
_cell_length_a 18.052229
_cell_length_b 8.792005
_cell_length_c 28.721885
_cell_angle_alpha 90.000000
_cell_angle_beta 90.000000
_cell_angle_gamma 90.000000
_cell_volume 4558.602239
_symmetry_space_group_name_H-M "C M M M"
_symmetry_group_IT_number 65
_symmetry_cell_setting 'orthorhombic'
loop_
_space_group_symop_operation_xyz
x,y,z
-x,-y,z
x,-y,-z
-x,y,-z
-x,-y,-z
x,y,-z
-x,y,z
x,-y,z
1/2+x,1/2+y,z
1/2-x,1/2-y,z
1/2+x,1/2-y,-z
1/2-x,1/2+y,-z
1/2-x,1/2-y,-z
1/2+x,1/2+y,-z
1/2-x,1/2+y,z
1/2+x,1/2-y,z
loop_
_atom_site_type_symbol
_atom_site_label
_atom_site_fract_x
_atom_site_fract_y
_atom_site_fract_z
Si Si1 0.669593 0.179646 0.181044
Si Si2 0.913404 0.324547 0.274205
Si Si3 0.416688 0.818921 0.909058
Si Si4 0.168974 0.178914 0.357899
Si Si5 0.330708 0.180583 0.000000
Si Si6 0.330510 0.821833 0.449584
O O1 0.750000 0.250000 0.182676
O O2 0.625486 0.229541 0.226926
O O3 0.625724 0.243653 0.136336
O O4 0.677071 0.000000 0.177889
O O5 0.895100 0.500000 0.285312
O O6 0.884206 0.220653 0.315692
O O7 0.000000 0.297674 0.267850
O O8 0.500000 0.753196 0.909284
O O9 0.374391 0.759853 0.954769
O O10 0.419271 0.000000 0.908390
O O11 0.250000 0.250000 0.350107
O O12 0.129800 0.242143 0.405496
O O13 0.177614 0.000000 0.361438
O O14 0.250000 0.250000 0.000000
O O15 0.324347 0.000000 0.000000
O O16 0.370523 0.793186 0.500000
O O17 0.250000 0.750000 0.452321
O O18 0.324136 0.000000 0.439483
#
# Coordination Sequence:
#
# PCOD8268249 Si02
#       6
#    16  16  16  16   8  16
#     4  10  20  34  54  78 103 133 169 212 260 310
#     4  10  21  37  55  74  99 133 172 214 262 314
#     4   9  17  31  52  77 103 134 176 218 255 303
#     4  11  21  33  52  77 106 138 173 214 259 308
#     4  10  19  31  51  77 105 138 174 216 262 306
#     4   9  16  27  46  73 104 136 171 212 257 304
#
# _framework density 19.304162999999999
#
# number of rings (size 3 to 8) (size 9 to 14) (size 15 to 20)
#    0.000    2.182    0.000    5.182    0.000    6.909 
#    0.000    0.000    0.000    4.364    0.000    3.818 
#    0.000    0.000    0.000    0.000    0.000    0.000 
#
# Total GULP energy -545494.023180 kJ/mol
# GULP energy per Si atom -12397.591436 kJ/mol
# Density = 1.926023 g / cm^3
# Si number density = 19.304163 Si / 1000 Ang^3
#
#
#
# Elastic Constant Matrix: (Units=GPa)
#
#
# Indices 1 2 3 4 5 6 
#
# 1 124.3816 35.5887 79.8895 0.0000 0.0000 0.0000
# 2 35.5887 74.1003 56.3460 0.0000 0.0000 0.0000
# 3 79.8895 56.3460 206.1494 0.0000 0.0000 0.0000
# 4 0.0000 0.0000 0.0000 -0.0886 0.0000 0.0000
# 5 0.0000 0.0000 0.0000 0.0000 128.9588 0.0000
# 6 0.0000 0.0000 0.0000 0.0000 0.0000 26.2155
#
#
#
# Elastic Compliance Matrix: (Units=1/GPa)
#
#
# Indices 1 2 3 4 5 6 
#
# 1 0.011087 -0.002597 -0.003586 0.000000 0.000000 0.000000
# 2 -0.002597 0.017644 -0.003816 0.000000 0.000000 0.000000
# 3 -0.003586 -0.003816 0.007284 0.000000 0.000000 0.000000
# 4 0.000000 0.000000 0.000000-11.284379 0.000000 0.000000
# 5 0.000000 0.000000 0.000000 0.000000 0.007754 0.000000
# 6 0.000000 0.000000 0.000000 0.000000 0.000000 0.038145
#
#
# Mechanical properties :
#
#
# Convention : Reuss Voigt Hill
#
# Bulk Modulus (GPa) = 62.44241 83.14221 72.79231
# Shear Modulus (GPa) = -0.44734 46.53761 23.04513
#
# Velocity S-wave (km/s) = -0.48191 4.91527 3.45888
# Velocity P-wave (km/s) = 5.66632 8.68195 7.33087
#
# Compressibility (1/GPa) = 0.01601476
#
# Stress axis : x y z
#
# Youngs Moduli (GPa) = 90.19968 56.67490 137.29208
#
# Poissons Ratio (x) = 0.14721 0.49239
# Poissons Ratio (y) = 0.23429 0.52392
# Poissons Ratio (z) = 0.32349 0.21628
#
# Static dielectric constant tensor:
#      x y z
#    x 3.375330 0.000000 0.000000 
#    y 0.000000 3.315770 0.000000 
#    z 0.000000 0.000000 4.258170 
# 
# 
# High freq. dielectric constant tensor:
#      x y z
#    x 1.730010 0.000000 0.000000 
#    y 0.000000 1.729640 0.000000 
#    z 0.000000 0.000000 1.780010 
# 
# From -- ./inp_files/77892.got.cif
#   From: 2010.03.12/outbox.cif.g09.slc.cpg/sg65_39_cif.got.tgz:77892.got - 2010.04.10 20:52:16.
