data_PCOD8268234
_publ_section_title
;
Structure prediction by ZEFSAII (Michael W. Deem and Ramdas Pophale) SiO2 
 PCOD8268234
Probable space group: C M M M
;
_chemical_formula_sum "Si O2"
_cell_formula_units_Z 96
_cell_length_a 24.116267
_cell_length_b 24.363296
_cell_length_c 8.763788
_cell_angle_alpha 90.000000
_cell_angle_beta 90.000000
_cell_angle_gamma 90.000000
_cell_volume 5149.178988
_symmetry_space_group_name_H-M "C M M M"
_symmetry_group_IT_number 65
_symmetry_cell_setting 'orthorhombic'
loop_
_space_group_symop_operation_xyz
x,y,z
-x,-y,z
x,-y,-z
-x,y,-z
-x,-y,-z
x,y,-z
-x,y,z
x,-y,z
1/2+x,1/2+y,z
1/2-x,1/2-y,z
1/2+x,1/2-y,-z
1/2-x,1/2+y,-z
1/2-x,1/2-y,-z
1/2+x,1/2+y,-z
1/2-x,1/2+y,z
1/2+x,1/2-y,z
loop_
_atom_site_type_symbol
_atom_site_label
_atom_site_fract_x
_atom_site_fract_y
_atom_site_fract_z
Si Si1 0.356431 0.156517 0.318872
Si Si2 0.846847 0.059822 0.677510
Si Si3 0.358777 0.270730 0.821191
Si Si4 0.563165 0.356798 0.676557
Si Si5 0.562482 0.061457 0.681284
Si Si6 0.270192 0.655592 0.318992
O O1 0.361202 0.159988 0.500000
O O2 0.378142 0.212714 0.247045
O O3 0.393561 0.105990 0.254595
O O4 0.292920 0.149362 0.265619
O O5 0.834525 0.052944 0.500000
O O6 0.908108 0.084337 0.704372
O O7 0.801228 0.101487 0.745419
O O8 0.842742 0.000000 0.757505
O O9 0.408319 0.311835 0.782219
O O10 0.300080 0.290627 0.750143
O O11 0.350907 0.265547 0.000000
O O12 0.569786 0.338891 0.500000
O O13 0.500000 0.362810 0.726594
O O14 0.564389 0.062059 0.500000
O O15 0.500000 0.076405 0.736431
O O16 0.578392 0.000000 0.739261
O O17 0.275840 0.660883 0.500000
#
# Coordination Sequence:
#
# PCOD8268234 Si02
#       6
#    16  16  16  16  16  16
#     4  10  19  31  51  76  99 128 167 205 242 291
#     4   8  14  26  46  73 101 125 154 198 248 291
#     4  11  22  34  49  70  99 132 166 206 250 294
#     4   9  18  33  52  73  99 132 167 202 243 290
#     4   8  15  29  49  75 105 130 154 192 243 295
#     4   9  18  32  49  71 100 131 164 204 248 293
#
# _framework density 18.643750000000001
#
# number of rings (size 3 to 8) (size 9 to 14) (size 15 to 20)
#    0.000    2.833    0.000    3.500    0.000    4.667 
#    0.000    6.667    0.000    8.500    0.000   10.500 
#    0.000    0.000    0.000    0.000    0.000    0.000 
#
# Total GULP energy -594999.235166 kJ/mol
# GULP energy per Si atom -12395.817399 kJ/mol
# Density = 1.860132 g / cm^3
# Si number density = 18.643750 Si / 1000 Ang^3
#
#
#
# Elastic Constant Matrix: (Units=GPa)
#
#
# Indices 1 2 3 4 5 6 
#
# 1 85.4514 47.4439 10.1670 0.0000 0.0000 0.0000
# 2 47.4439 141.6957 18.6164 0.0000 0.0000 0.0000
# 3 10.1670 18.6164 23.7322 0.0000 0.0000 0.0000
# 4 0.0000 0.0000 0.0000 0.1838 0.0000 0.0000
# 5 0.0000 0.0000 0.0000 0.0000 8.6893 0.0000
# 6 0.0000 0.0000 0.0000 0.0000 0.0000 26.8981
#
#
#
# Elastic Compliance Matrix: (Units=1/GPa)
#
#
# Indices 1 2 3 4 5 6 
#
# 1 0.014527 -0.004511 -0.002685 0.000000 0.000000 0.000000
# 2 -0.004511 0.009269 -0.005338 0.000000 0.000000 0.000000
# 3 -0.002685 -0.005338 0.047475 0.000000 0.000000 0.000000
# 4 0.000000 0.000000 0.000000 5.441876 0.000000 0.000000
# 5 0.000000 0.000000 0.000000 0.000000 0.115085 0.000000
# 6 0.000000 0.000000 0.000000 0.000000 0.000000 0.037177
#
#
# Mechanical properties :
#
#
# Convention : Reuss Voigt Hill
#
# Bulk Modulus (GPa) = 21.64405 44.81487 33.22946
# Shear Modulus (GPa) = 0.87629 18.79770 9.83699
#
# Velocity S-wave (km/s) = 0.68632 3.17875 2.29951
# Velocity P-wave (km/s) = 3.50179 6.12881 4.99123
#
# Compressibility (1/GPa) = 0.04620206
#
# Stress axis : x y z
#
# Youngs Moduli (GPa) = 68.83882 107.88343 21.06384
#
# Poissons Ratio (x) = 0.48669 0.05655
# Poissons Ratio (y) = 0.31055 0.11245
# Poissons Ratio (z) = 0.18480 0.57594
#
# Static dielectric constant tensor:
#      x y z
#    x 3.577500 0.000000 0.000000 
#    y 0.000000 3.762080 0.000000 
#    z 0.000000 0.000000 2.908270 
# 
# 
# High freq. dielectric constant tensor:
#      x y z
#    x 1.725700 0.000000 0.000000 
#    y 0.000000 1.731500 0.000000 
#    z 0.000000 0.000000 1.673210 
# 
# From -- ./inp_files/14302.got.cif
#   From: 2010.03.12/outbox.cif.g09.slc.cpg/sg65_8_cif.got.tgz:14302.got - 2010.04.10 20:52:16.
