data_PCOD8268405
_publ_section_title
;
Structure prediction by ZEFSAII (Michael W. Deem and Ramdas Pophale) SiO2 
 PCOD8268405
Probable space group: C M M M
;
_chemical_formula_sum "Si O2"
_cell_formula_units_Z 88
_cell_length_a 15.212476
_cell_length_b 25.515945
_cell_length_c 13.314805
_cell_angle_alpha 90.000000
_cell_angle_beta 90.000000
_cell_angle_gamma 90.000000
_cell_volume 5168.284042
_symmetry_space_group_name_H-M "C M M M"
_symmetry_group_IT_number 65
_symmetry_cell_setting 'orthorhombic'
loop_
_space_group_symop_operation_xyz
x,y,z
-x,-y,z
x,-y,-z
-x,y,-z
-x,-y,-z
x,y,-z
-x,y,z
x,-y,z
1/2+x,1/2+y,z
1/2-x,1/2-y,z
1/2+x,1/2-y,-z
1/2-x,1/2+y,-z
1/2-x,1/2-y,-z
1/2+x,1/2+y,-z
1/2-x,1/2+y,z
1/2+x,1/2-y,z
loop_
_atom_site_type_symbol
_atom_site_label
_atom_site_fract_x
_atom_site_fract_y
_atom_site_fract_z
Si Si1 0.500000 0.709001 0.882044
Si Si2 0.772969 0.561507 0.613587
Si Si3 0.164176 0.608306 0.808153
Si Si4 0.850203 0.130261 0.882292
Si Si5 0.905306 0.061050 0.708669
Si Si6 0.402013 0.000000 0.883378
Si Si7 0.500000 0.172816 0.120482
O O1 0.410327 0.679703 0.848196
O O2 0.500000 0.767776 0.839081
O O3 0.500000 0.713653 0.000000
O O4 0.799957 0.575318 0.500000
O O5 0.790343 0.500000 0.636484
O O6 0.828930 0.598273 0.688208
O O7 0.670087 0.575896 0.628949
O O8 0.248228 0.638942 0.853844
O O9 0.154177 0.551066 0.856449
O O10 0.083488 0.645053 0.832201
O O11 0.883716 0.080609 0.820424
O O12 0.861536 0.118836 0.000000
O O13 0.000000 0.083370 0.671300
O O14 0.911382 0.000000 0.720636
O O15 0.500000 0.000000 0.831901
O O16 0.417889 0.000000 0.000000
O O17 0.500000 0.167230 0.000000
#
# Coordination Sequence:
#
# PCOD8268405 Si02
#       7
#     8  16  16  16  16   8   8
#     4   9  20  36  52  73 104 141 179 219 260 306
#     4   9  18  33  50  72 105 139 170 213 260 311
#     4  11  21  34  52  79 104 140 178 214 260 315
#     4  10  19  32  49  74 111 143 171 209 258 315
#     4   9  17  28  45  73 105 138 177 211 248 311
#     4  11  20  32  51  76 112 143 169 208 254 309
#     4  11  22  37  55  76 102 135 182 226 258 305
#
# _framework density 17.026927000000001
#
# number of rings (size 3 to 8) (size 9 to 14) (size 15 to 20)
#    0.000    2.091    2.727    1.636    1.273    1.455 
#    0.000    5.909    0.000    1.636    0.000   15.273 
#    0.000    0.000    0.000    0.000    0.000    0.000 
#
# Total GULP energy -545313.751410 kJ/mol
# GULP energy per Si atom -12393.494350 kJ/mol
# Density = 1.698817 g / cm^3
# Si number density = 17.026927 Si / 1000 Ang^3
#
#
#
# Elastic Constant Matrix: (Units=GPa)
#
#
# Indices 1 2 3 4 5 6 
#
# 1 131.5264 48.1593 31.1849 0.0000 0.0000 0.0000
# 2 48.1593 41.9167 21.1336 0.0000 0.0000 0.0000
# 3 31.1849 21.1336 88.2390 0.0000 0.0000 0.0000
# 4 0.0000 0.0000 0.0000 11.7786 0.0000 0.0000
# 5 0.0000 0.0000 0.0000 0.0000 15.7270 0.0000
# 6 0.0000 0.0000 0.0000 0.0000 0.0000 75.7177
#
#
#
# Elastic Compliance Matrix: (Units=1/GPa)
#
#
# Indices 1 2 3 4 5 6 
#
# 1 0.013231 -0.014608 -0.001177 0.000000 0.000000 0.000000
# 2 -0.014608 0.043261 -0.005199 0.000000 0.000000 0.000000
# 3 -0.001177 -0.005199 0.012994 0.000000 0.000000 0.000000
# 4 0.000000 0.000000 0.000000 0.084900 0.000000 0.000000
# 5 0.000000 0.000000 0.000000 0.000000 0.063585 0.000000
# 6 0.000000 0.000000 0.000000 0.000000 0.000000 0.013207
#
#
# Mechanical properties :
#
#
# Convention : Reuss Voigt Hill
#
# Bulk Modulus (GPa) = 36.33907 51.40418 43.87162
# Shear Modulus (GPa) = 17.71049 31.39162 24.55106
#
# Velocity S-wave (km/s) = 3.22863 4.29843 3.80135
# Velocity P-wave (km/s) = 5.94030 7.40883 6.71483
#
# Compressibility (1/GPa) = 0.02751859
#
# Stress axis : x y z
#
# Youngs Moduli (GPa) = 75.58048 23.11541 76.95831
#
# Poissons Ratio (x) = 0.33766 0.09061
# Poissons Ratio (y) = 1.10406 0.40008
# Poissons Ratio (z) = 0.08899 0.12017
#
# Static dielectric constant tensor:
#      x y z
#    x 2.588160 0.000000 0.000000 
#    y 0.000000 3.171820 0.000000 
#    z 0.000000 0.000000 3.049190 
# 
# 
# High freq. dielectric constant tensor:
#      x y z
#    x 1.673170 0.000000 0.000000 
#    y 0.000000 1.630530 0.000000 
#    z 0.000000 0.000000 1.637750 
# 
# From -- ./inp_files/40635.got.cif
#   From: 2010.03.12/outbox.cif.g09.slc.cpg/sg65_21_cif.got.tgz:40635.got - 2010.04.10 20:52:16.
