data_PCOD8268544
_publ_section_title
;
Structure prediction by ZEFSAII (Michael W. Deem and Ramdas Pophale) SiO2 
 PCOD8268544
Probable space group: C M M M
;
_chemical_formula_sum "Si O2"
_cell_formula_units_Z 72
_cell_length_a 26.447625
_cell_length_b 10.580326
_cell_length_c 13.797579
_cell_angle_alpha 90.000000
_cell_angle_beta 90.000000
_cell_angle_gamma 90.000000
_cell_volume 3860.900568
_symmetry_space_group_name_H-M "C M M M"
_symmetry_group_IT_number 65
_symmetry_cell_setting 'orthorhombic'
loop_
_space_group_symop_operation_xyz
x,y,z
-x,-y,z
x,-y,-z
-x,y,-z
-x,-y,-z
x,y,-z
-x,y,z
x,-y,z
1/2+x,1/2+y,z
1/2-x,1/2-y,z
1/2+x,1/2-y,-z
1/2-x,1/2+y,-z
1/2-x,1/2-y,-z
1/2+x,1/2+y,-z
1/2-x,1/2+y,z
1/2+x,1/2-y,z
loop_
_atom_site_type_symbol
_atom_site_label
_atom_site_fract_x
_atom_site_fract_y
_atom_site_fract_z
Si Si1 0.441354 0.256813 0.294296
Si Si2 0.940415 0.500000 0.391441
Si Si3 0.604285 0.354955 0.890805
Si Si4 0.791204 0.147273 0.209678
Si Si5 0.650411 0.356165 0.394915
O O1 0.500000 0.282254 0.317055
O O2 0.422595 0.119877 0.329808
O O3 0.430454 0.270376 0.179805
O O4 0.407215 0.353396 0.355559
O O5 0.916458 0.500000 0.500000
O O6 0.000000 0.500000 0.401808
O O7 0.587008 0.500000 0.879068
O O8 0.663392 0.342904 0.866639
O O9 0.595270 0.306722 0.000000
O O10 0.750000 0.250000 0.175591
O O11 0.810908 0.197258 0.314665
O O12 0.771691 0.000000 0.212650
O O13 0.655707 0.286534 0.500000
O O14 0.664707 0.500000 0.409838
#
# Coordination Sequence:
#
# PCOD8268544 Si02
#       5
#    16   8  16  16  16
#     4  10  19  32  51  74 102 137 178 216 251 302
#     4   9  18  32  49  69  99 141 178 210 253 301
#     4   9  19  36  55  76 105 137 168 212 272 323
#     4   9  18  34  54  75 102 135 172 215 264 321
#     4   9  18  32  49  72 104 136 165 209 267 314
#
# _framework density 18.648499000000001
#
# number of rings (size 3 to 8) (size 9 to 14) (size 15 to 20)
#    0.000    2.778    0.000    2.667    0.000    4.444 
#    8.000    2.778    0.000    2.000    0.000    0.000 
#    0.000    0.000    0.000    0.000    0.000    0.000 
#
# Total GULP energy -446100.782333 kJ/mol
# GULP energy per Si atom -12391.688398 kJ/mol
# Density = 1.860605 g / cm^3
# Si number density = 18.648499 Si / 1000 Ang^3
#
#
#
# Elastic Constant Matrix: (Units=GPa)
#
#
# Indices 1 2 3 4 5 6 
#
# 1 42.0085 21.3833 -3.4335 0.0000 0.0000 0.0000
# 2 21.3833 64.2874 32.2044 0.0000 0.0000 0.0000
# 3 -3.4335 32.2044 129.2392 0.0000 0.0000 0.0000
# 4 0.0000 0.0000 0.0000 24.5386 0.0000 0.0000
# 5 0.0000 0.0000 0.0000 0.0000 15.2724 0.0000
# 6 0.0000 0.0000 0.0000 0.0000 0.0000 24.8620
#
#
#
# Elastic Compliance Matrix: (Units=1/GPa)
#
#
# Indices 1 2 3 4 5 6 
#
# 1 0.030187 -0.011932 0.003775 0.000000 0.000000 0.000000
# 2 -0.011932 0.022490 -0.005921 0.000000 0.000000 0.000000
# 3 0.003775 -0.005921 0.009313 0.000000 0.000000 0.000000
# 4 0.000000 0.000000 0.000000 0.040752 0.000000 0.000000
# 5 0.000000 0.000000 0.000000 0.000000 0.065478 0.000000
# 6 0.000000 0.000000 0.000000 0.000000 0.000000 0.040222
#
#
# Mechanical properties :
#
#
# Convention : Reuss Voigt Hill
#
# Bulk Modulus (GPa) = 29.55557 37.31594 33.43576
# Shear Modulus (GPa) = 20.17136 25.29333 22.73234
#
# Velocity S-wave (km/s) = 3.29243 3.68682 3.49519
# Velocity P-wave (km/s) = 5.50787 6.17876 5.85294
#
# Compressibility (1/GPa) = 0.03383457
#
# Stress axis : x y z
#
# Youngs Moduli (GPa) = 33.12694 44.46388 107.37267
#
# Poissons Ratio (x) = 0.53054 -0.40536
# Poissons Ratio (y) = 0.39527 0.63577
# Poissons Ratio (z) = -0.12506 0.26328
#
# Static dielectric constant tensor:
#      x y z
#    x 3.128010 0.000000 0.000000 
#    y 0.000000 3.358390 0.000000 
#    z 0.000000 0.000000 3.855880 
# 
# 
# High freq. dielectric constant tensor:
#      x y z
#    x 1.701610 0.000000 0.000000 
#    y 0.000000 1.701610 0.000000 
#    z 0.000000 0.000000 1.734050 
# 
# From -- ./inp_files/37000.got.cif
#   From: 2010.03.12/outbox.cif.g09.slc.cpg/sg65_19_cif.got.tgz:37000.got - 2010.04.10 20:52:16.
