data_PCOD8268055
_publ_section_title
;
Structure prediction by ZEFSAII (Michael W. Deem and Ramdas Pophale) SiO2 
 PCOD8268055
Probable space group: C M M M
;
_chemical_formula_sum "Si O2"
_cell_formula_units_Z 96
_cell_length_a 8.698136
_cell_length_b 27.639352
_cell_length_c 23.539837
_cell_angle_alpha 90.000000
_cell_angle_beta 90.000000
_cell_angle_gamma 90.000000
_cell_volume 5659.232049
_symmetry_space_group_name_H-M "C M M M"
_symmetry_group_IT_number 65
_symmetry_cell_setting 'orthorhombic'
loop_
_space_group_symop_operation_xyz
x,y,z
-x,-y,z
x,-y,-z
-x,y,-z
-x,-y,-z
x,y,-z
-x,y,z
x,-y,z
1/2+x,1/2+y,z
1/2-x,1/2-y,z
1/2+x,1/2-y,-z
1/2-x,1/2+y,-z
1/2-x,1/2-y,-z
1/2+x,1/2+y,-z
1/2-x,1/2+y,z
1/2+x,1/2-y,z
loop_
_atom_site_type_symbol
_atom_site_label
_atom_site_fract_x
_atom_site_fract_y
_atom_site_fract_z
Si Si1 0.180364 0.198713 0.064934
Si Si2 0.182296 0.646451 0.833765
Si Si3 0.821779 0.055091 0.434619
Si Si4 0.819817 0.388161 0.335953
Si Si5 0.181871 0.198477 0.272991
Si Si6 0.318589 0.052891 0.771824
O O1 0.250000 0.250000 0.082957
O O2 0.255027 0.157376 0.103630
O O3 0.000000 0.200793 0.075133
O O4 0.222085 0.186184 0.000000
O O5 0.252089 0.683316 0.788205
O O6 0.235470 0.591638 0.819056
O O7 0.000000 0.651876 0.831689
O O8 0.791833 0.068248 0.500000
O O9 0.722131 0.092317 0.397966
O O10 0.000000 0.061239 0.419168
O O11 0.769219 0.000000 0.422586
O O12 0.730505 0.338735 0.322413
O O13 0.768137 0.428556 0.290246
O O14 0.000000 0.377204 0.331726
O O15 0.250000 0.250000 0.290417
O O16 0.000000 0.201438 0.268781
O O17 0.500000 0.048015 0.773983
O O18 0.243214 0.000000 0.783181
#
# Coordination Sequence:
#
# PCOD8268055 Si02
#       6
#    16  16  16  16  16  16
#     4  10  20  33  49  69  94 124 158 196 239 287
#     4  10  19  31  49  73  99 126 158 196 238 284
#     4   9  18  32  49  71 101 135 168 202 242 287
#     4  10  19  31  49  74 100 127 162 202 245 290
#     4  11  21  34  51  71  98 129 161 197 239 288
#     4   8  15  28  46  69  96 124 154 192 235 276
#
# _framework density 16.963432999999998
#
# number of rings (size 3 to 8) (size 9 to 14) (size 15 to 20)
#    0.000    2.333    0.000    5.500    0.000    2.333 
#    0.000    0.833    0.000   11.000    0.000    3.500 
#    0.000    0.000    0.000    0.000    0.000    0.000 
#
# Total GULP energy -595207.098087 kJ/mol
# GULP energy per Si atom -12400.147877 kJ/mol
# Density = 1.692482 g / cm^3
# Si number density = 16.963433 Si / 1000 Ang^3
#
#
#
# Elastic Constant Matrix: (Units=GPa)
#
#
# Indices 1 2 3 4 5 6 
#
# 1 81.2430 39.3514 36.6500 0.0000 0.0000 0.0000
# 2 39.3514 129.5852 60.7761 0.0000 0.0000 0.0000
# 3 36.6500 60.7761 97.5658 0.0000 0.0000 0.0000
# 4 0.0000 0.0000 0.0000 24.1139 0.0000 0.0000
# 5 0.0000 0.0000 0.0000 0.0000 29.5587 0.0000
# 6 0.0000 0.0000 0.0000 0.0000 0.0000 22.3227
#
#
#
# Elastic Compliance Matrix: (Units=1/GPa)
#
#
# Indices 1 2 3 4 5 6 
#
# 1 0.015504 -0.002792 -0.004084 0.000000 0.000000 0.000000
# 2 -0.002792 0.011405 -0.006055 0.000000 0.000000 0.000000
# 3 -0.004084 -0.006055 0.015556 0.000000 0.000000 0.000000
# 4 0.000000 0.000000 0.000000 0.041470 0.000000 0.000000
# 5 0.000000 0.000000 0.000000 0.000000 0.033831 0.000000
# 6 0.000000 0.000000 0.000000 0.000000 0.000000 0.044797
#
#
# Mechanical properties :
#
#
# Convention : Reuss Voigt Hill
#
# Bulk Modulus (GPa) = 60.24098 64.66100 62.45099
# Shear Modulus (GPa) = 25.77836 26.64015 26.20925
#
# Velocity S-wave (km/s) = 3.90249 3.96718 3.93497
# Velocity P-wave (km/s) = 7.47631 7.69320 7.58553
#
# Compressibility (1/GPa) = 0.01660000
#
# Stress axis : x y z
#
# Youngs Moduli (GPa) = 64.49992 87.68103 64.28440
#
# Poissons Ratio (x) = 0.24485 0.26257
# Poissons Ratio (y) = 0.18012 0.38927
# Poissons Ratio (z) = 0.26345 0.53095
#
# Static dielectric constant tensor:
#      x y z
#    x 3.108420 0.000000 0.000000 
#    y 0.000000 3.352750 0.000000 
#    z 0.000000 0.000000 3.095820 
# 
# 
# High freq. dielectric constant tensor:
#      x y z
#    x 1.654620 0.000000 0.000000 
#    y 0.000000 1.649020 0.000000 
#    z 0.000000 0.000000 1.642460 
# 
# From -- ./inp_files/60216.got.cif
#   From: 2010.03.12/outbox.cif.g09.slc.cpg/sg65_31_cif.got.tgz:60216.got - 2010.04.10 20:52:16.
