data_PCOD8268599
_publ_section_title
;
Structure prediction by ZEFSAII (Michael W. Deem and Ramdas Pophale) SiO2 
 PCOD8268599
Probable space group: C M M M
;
_chemical_formula_sum "Si O2"
_cell_formula_units_Z 128
_cell_length_a 18.884501
_cell_length_b 19.059021
_cell_length_c 19.052544
_cell_angle_alpha 90.000000
_cell_angle_beta 90.000000
_cell_angle_gamma 90.000000
_cell_volume 6857.393563
_symmetry_space_group_name_H-M "C M M M"
_symmetry_group_IT_number 65
_symmetry_cell_setting 'orthorhombic'
loop_
_space_group_symop_operation_xyz
x,y,z
-x,-y,z
x,-y,-z
-x,y,-z
-x,-y,-z
x,y,-z
-x,y,z
x,-y,z
1/2+x,1/2+y,z
1/2-x,1/2-y,z
1/2+x,1/2-y,-z
1/2-x,1/2+y,-z
1/2-x,1/2-y,-z
1/2+x,1/2+y,-z
1/2-x,1/2+y,z
1/2+x,1/2-y,z
loop_
_atom_site_type_symbol
_atom_site_label
_atom_site_fract_x
_atom_site_fract_y
_atom_site_fract_z
Si Si1 0.185179 0.199329 0.082032
Si Si2 0.647962 0.078906 0.214459
Si Si3 0.152790 0.817205 0.582990
Si Si4 0.304681 0.832884 0.578695
Si Si5 0.419178 0.336247 0.278617
Si Si6 0.577532 0.079857 0.363181
Si Si7 0.307671 0.580340 0.190600
Si Si8 0.917926 0.282449 0.828906
O O1 0.250000 0.250000 0.102141
O O2 0.195347 0.124227 0.118771
O O3 0.113045 0.235236 0.108457
O O4 0.180031 0.185021 0.000000
O O5 0.605792 0.090909 0.285682
O O6 0.731456 0.087178 0.228834
O O7 0.619834 0.141360 0.165400
O O8 0.631962 0.000000 0.184279
O O9 0.129757 0.824673 0.500000
O O10 0.226159 0.858697 0.602415
O O11 0.167134 0.738686 0.612381
O O12 0.091845 0.841792 0.636762
O O13 0.291927 0.809438 0.500000
O O14 0.364558 0.891364 0.583364
O O15 0.500000 0.357904 0.263048
O O16 0.367926 0.392442 0.242639
O O17 0.404590 0.258568 0.245220
O O18 0.500000 0.116842 0.370475
O O19 0.568041 0.000000 0.383223
O O20 0.324062 0.500000 0.170827
O O21 0.000000 0.294168 0.843692
#
# Coordination Sequence:
#
# PCOD8268599 Si02
#       8
#    16  16  16  16  16  16  16  16
#     4  10  20  37  60  86 116 148 183 223 267 316
#     4  10  19  32  51  77 107 142 183 223 265 322
#     4   9  18  33  52  74 100 135 182 233 286 339
#     4   9  18  32  48  67  94 132 177 226 277 331
#     4  10  21  34  53  81 109 142 185 237 290 337
#     4  10  20  31  45  69 101 137 174 213 262 319
#     4  10  21  37  59  85 111 145 187 226 275 328
#     4  10  20  34  54  82 114 148 186 226 275 330
#
# _framework density 18.665984999999999
#
# number of rings (size 3 to 8) (size 9 to 14) (size 15 to 20)
#    0.000    2.250    1.250    2.625    0.000    4.750 
#    0.000    1.875    0.000    1.500    0.000    5.250 
#    0.000    0.000    0.000    0.000    0.000    0.000 
#
# Total GULP energy -792969.287536 kJ/mol
# GULP energy per Si atom -12390.145118 kJ/mol
# Density = 1.862350 g / cm^3
# Si number density = 18.665985 Si / 1000 Ang^3
#
#
#
# Elastic Constant Matrix: (Units=GPa)
#
#
# Indices 1 2 3 4 5 6 
#
# 1 117.7362 48.0341 31.4699 0.0000 0.0000 0.0000
# 2 48.0341 101.5148 30.9196 0.0000 0.0000 0.0000
# 3 31.4699 30.9196 76.3900 0.0000 0.0000 0.0000
# 4 0.0000 0.0000 0.0000 18.0935 0.0000 0.0000
# 5 0.0000 0.0000 0.0000 0.0000 20.3968 0.0000
# 6 0.0000 0.0000 0.0000 0.0000 0.0000 27.2599
#
#
#
# Elastic Compliance Matrix: (Units=1/GPa)
#
#
# Indices 1 2 3 4 5 6 
#
# 1 0.011016 -0.004369 -0.002770 0.000000 0.000000 0.000000
# 2 -0.004369 0.012969 -0.003449 0.000000 0.000000 0.000000
# 3 -0.002770 -0.003449 0.015628 0.000000 0.000000 0.000000
# 4 0.000000 0.000000 0.000000 0.055269 0.000000 0.000000
# 5 0.000000 0.000000 0.000000 0.000000 0.049027 0.000000
# 6 0.000000 0.000000 0.000000 0.000000 0.000000 0.036684
#
#
# Mechanical properties :
#
#
# Convention : Reuss Voigt Hill
#
# Bulk Modulus (GPa) = 54.24025 57.38759 55.81392
# Shear Modulus (GPa) = 24.04828 25.49785 24.77306
#
# Velocity S-wave (km/s) = 3.59325 3.69996 3.64700
# Velocity P-wave (km/s) = 6.80710 7.00458 6.90655
#
# Compressibility (1/GPa) = 0.01843649
#
# Stress axis : x y z
#
# Youngs Moduli (GPa) = 90.77358 77.10885 63.98767
#
# Poissons Ratio (x) = 0.33689 0.17724
# Poissons Ratio (y) = 0.39659 0.22072
# Poissons Ratio (z) = 0.25144 0.26597
#
# Static dielectric constant tensor:
#      x y z
#    x 4.157880 0.000000 0.000000 
#    y 0.000000 3.374750 0.000000 
#    z 0.000000 0.000000 3.169990 
# 
# 
# High freq. dielectric constant tensor:
#      x y z
#    x 1.736390 0.000000 0.000000 
#    y 0.000000 1.712640 0.000000 
#    z 0.000000 0.000000 1.700120 
# 
# From -- ./inp_files/64870.got.cif
#   From: 2010.03.12/outbox.cif.g09.slc.cpg/sg65_33_cif.got.tgz:64870.got - 2010.04.10 20:52:16.
