data_PCOD8268301
_publ_section_title
;
Structure prediction by ZEFSAII (Michael W. Deem and Ramdas Pophale) SiO2 
 PCOD8268301
Probable space group: C M M M
;
_chemical_formula_sum "Si O2"
_cell_formula_units_Z 104
_cell_length_a 19.203797
_cell_length_b 19.233484
_cell_length_c 15.166821
_cell_angle_alpha 90.000000
_cell_angle_beta 90.000000
_cell_angle_gamma 90.000000
_cell_volume 5601.955159
_symmetry_space_group_name_H-M "C M M M"
_symmetry_group_IT_number 65
_symmetry_cell_setting 'orthorhombic'
loop_
_space_group_symop_operation_xyz
x,y,z
-x,-y,z
x,-y,-z
-x,y,-z
-x,-y,-z
x,y,-z
-x,y,z
x,-y,z
1/2+x,1/2+y,z
1/2-x,1/2-y,z
1/2+x,1/2-y,-z
1/2-x,1/2+y,-z
1/2-x,1/2-y,-z
1/2+x,1/2+y,-z
1/2-x,1/2+y,z
1/2+x,1/2-y,z
loop_
_atom_site_type_symbol
_atom_site_label
_atom_site_fract_x
_atom_site_fract_y
_atom_site_fract_z
Si Si1 0.724368 0.327031 0.095233
Si Si2 0.000000 0.421909 0.896412
Si Si3 0.181976 0.798184 0.719426
Si Si4 0.365930 0.076598 0.359721
Si Si5 0.713982 0.577215 0.403373
Si Si6 0.148886 0.419995 0.842578
Si Si7 0.421270 0.218501 0.401336
O O1 0.750000 0.250000 0.082902
O O2 0.671344 0.324896 0.179188
O O3 0.790577 0.376766 0.110850
O O4 0.689908 0.349442 0.000000
O O5 0.072055 0.386834 0.862981
O O6 0.000000 0.500000 0.857785
O O7 0.000000 0.420344 0.000000
O O8 0.250000 0.750000 0.711732
O O9 0.183323 0.867230 0.662484
O O10 0.119423 0.753021 0.679945
O O11 0.296648 0.085152 0.417068
O O12 0.338543 0.086053 0.260572
O O13 0.420500 0.135013 0.388704
O O14 0.400192 0.000000 0.372744
O O15 0.680321 0.588610 0.500000
O O16 0.695894 0.500000 0.367369
O O17 0.152465 0.500000 0.876289
O O18 0.391988 0.236919 0.500000
O O19 0.500000 0.244412 0.394464
#
# Coordination Sequence:
#
# PCOD8268301 Si02
#       7
#    16   8  16  16  16  16  16
#     4  10  20  34  53  75 102 137 180 230 279 319
#     4   9  18  30  46  72 105 143 186 222 255 306
#     4  11  20  36  58  78 104 143 182 227 277 330
#     4  10  19  32  50  76 113 151 181 215 262 317
#     4  10  19  31  52  81 109 138 178 225 268 317
#     4  10  19  33  52  77 110 149 187 221 264 322
#     4  11  24  38  54  80 110 145 189 231 273 326
#
# _framework density 18.564947
#
# number of rings (size 3 to 8) (size 9 to 14) (size 15 to 20)
#    0.000    1.769    3.077    2.308    1.077    2.769 
#    0.000    0.769    0.000    0.923    0.000    2.154 
#    0.000    0.000    0.000    2.769    0.923    0.154 
#
# Total GULP energy -644238.201471 kJ/mol
# GULP energy per Si atom -12389.196182 kJ/mol
# Density = 1.852269 g / cm^3
# Si number density = 18.564947 Si / 1000 Ang^3
#
#
#
# Elastic Constant Matrix: (Units=GPa)
#
#
# Indices 1 2 3 4 5 6 
#
# 1 58.3243 31.5907 40.4435 0.0000 0.0000 0.0000
# 2 31.5907 90.8202 44.6291 0.0000 0.0000 0.0000
# 3 40.4435 44.6291 136.4487 0.0000 0.0000 0.0000
# 4 0.0000 0.0000 0.0000 26.8879 0.0000 0.0000
# 5 0.0000 0.0000 0.0000 0.0000 12.3181 0.0000
# 6 0.0000 0.0000 0.0000 0.0000 0.0000 15.8157
#
#
#
# Elastic Compliance Matrix: (Units=1/GPa)
#
#
# Indices 1 2 3 4 5 6 
#
# 1 0.023859 -0.005748 -0.005192 0.000000 0.000000 0.000000
# 2 -0.005748 0.014504 -0.003040 0.000000 0.000000 0.000000
# 3 -0.005192 -0.003040 0.009862 0.000000 0.000000 0.000000
# 4 0.000000 0.000000 0.000000 0.037192 0.000000 0.000000
# 5 0.000000 0.000000 0.000000 0.000000 0.081181 0.000000
# 6 0.000000 0.000000 0.000000 0.000000 0.000000 0.063228
#
#
# Mechanical properties :
#
#
# Convention : Reuss Voigt Hill
#
# Bulk Modulus (GPa) = 49.34564 57.65772 53.50168
# Shear Modulus (GPa) = 18.90067 22.26633 20.58350
#
# Velocity S-wave (km/s) = 3.19420 3.46696 3.33337
# Velocity P-wave (km/s) = 6.34363 6.86667 6.61032
#
# Compressibility (1/GPa) = 0.02026522
#
# Stress axis : x y z
#
# Youngs Moduli (GPa) = 41.91312 68.94625 101.39900
#
# Poissons Ratio (x) = 0.39629 0.52645
# Poissons Ratio (y) = 0.24091 0.30828
# Poissons Ratio (z) = 0.21761 0.20962
#
# Static dielectric constant tensor:
#      x y z
#    x 3.040510 0.000000 0.000000 
#    y 0.000000 3.669150 0.000000 
#    z 0.000000 0.000000 3.968470 
# 
# 
# High freq. dielectric constant tensor:
#      x y z
#    x 1.665070 0.000000 0.000000 
#    y 0.000000 1.713590 0.000000 
#    z 0.000000 0.000000 1.742430 
# 
# From -- ./inp_files/44439.got.cif
#   From: 2010.03.12/outbox.cif.g09.slc.cpg/sg65_23_cif.got.tgz:44439.got - 2010.04.10 20:52:16.
