data_PCOD8268481
_publ_section_title
;
Structure prediction by ZEFSAII (Michael W. Deem and Ramdas Pophale) SiO2 
 PCOD8268481
Probable space group: C M M M
;
_chemical_formula_sum "Si O2"
_cell_formula_units_Z 104
_cell_length_a 25.796883
_cell_length_b 9.426928
_cell_length_c 23.735631
_cell_angle_alpha 90.000000
_cell_angle_beta 90.000000
_cell_angle_gamma 90.000000
_cell_volume 5772.157938
_symmetry_space_group_name_H-M "C M M M"
_symmetry_group_IT_number 65
_symmetry_cell_setting 'orthorhombic'
loop_
_space_group_symop_operation_xyz
x,y,z
-x,-y,z
x,-y,-z
-x,y,-z
-x,-y,-z
x,y,-z
-x,y,z
x,-y,z
1/2+x,1/2+y,z
1/2-x,1/2-y,z
1/2+x,1/2-y,-z
1/2-x,1/2+y,-z
1/2-x,1/2-y,-z
1/2+x,1/2+y,-z
1/2-x,1/2+y,z
1/2+x,1/2-y,z
loop_
_atom_site_type_symbol
_atom_site_label
_atom_site_fract_x
_atom_site_fract_y
_atom_site_fract_z
Si Si1 0.000000 0.163463 0.433568
Si Si2 0.598625 0.168736 0.387204
Si Si3 0.059149 0.661954 0.734563
Si Si4 0.829489 0.500000 0.066013
Si Si5 0.302235 0.666378 0.566470
Si Si6 0.129527 0.208027 0.065665
Si Si7 0.057330 0.157059 0.835230
Si Si8 0.782949 0.000000 0.065568
O O1 0.949622 0.251763 0.415410
O O2 0.000000 0.153753 0.500000
O O3 0.000000 0.000000 0.409524
O O4 0.594174 0.186442 0.320109
O O5 0.650820 0.248502 0.405069
O O6 0.599228 0.000000 0.403713
O O7 0.059421 0.500000 0.753032
O O8 0.084221 0.747613 0.786995
O O9 0.000000 0.712730 0.721836
O O10 0.864856 0.630273 0.083203
O O11 0.772985 0.500000 0.096480
O O12 0.819025 0.500000 0.000000
O O13 0.310704 0.673461 0.500000
O O14 0.300042 0.500000 0.585811
O O15 0.250000 0.750000 0.583993
O O16 0.084818 0.147790 0.104476
O O17 0.184408 0.138415 0.081874
O O18 0.115530 0.180887 0.000000
O O19 0.000000 0.217938 0.846786
O O20 0.055293 0.000000 0.809860
O O21 0.772132 0.000000 0.000000
#
# Coordination Sequence:
#
# PCOD8268481 Si02
#       8
#     8  16  16   8  16  16  16   8
#     4  11  23  35  51  83 125 157 182 223 280 335
#     4  11  21  36  58  84 112 146 189 235 285 335
#     4   9  19  37  57  78 104 138 181 225 271 324
#     4   9  18  30  49  75 101 131 170 208 255 318
#     4  10  21  37  57  84 117 154 194 231 272 327
#     4  10  19  32  50  77 107 136 172 212 262 323
#     4  10  21  35  52  76 103 136 178 218 262 318
#     4   9  16  30  51  73 101 133 164 208 257 310
#
# _framework density 18.017524999999999
#
# number of rings (size 3 to 8) (size 9 to 14) (size 15 to 20)
#    0.000    2.077    1.538    2.077    1.077    6.769 
#    0.000    0.769    0.000    3.231    0.000    0.000 
#    0.000    0.000    0.000    0.000    0.000    0.000 
#
# Total GULP energy -644416.931556 kJ/mol
# GULP energy per Si atom -12392.633299 kJ/mol
# Density = 1.797652 g / cm^3
# Si number density = 18.017525 Si / 1000 Ang^3
#
#
#
# Elastic Constant Matrix: (Units=GPa)
#
#
# Indices 1 2 3 4 5 6 
#
# 1 103.8227 51.9833 41.9374 0.0000 0.0000 0.0000
# 2 51.9833 138.1730 42.2414 0.0000 0.0000 0.0000
# 3 41.9374 42.2414 75.4823 0.0000 0.0000 0.0000
# 4 0.0000 0.0000 0.0000 24.1729 0.0000 0.0000
# 5 0.0000 0.0000 0.0000 0.0000 14.3751 0.0000
# 6 0.0000 0.0000 0.0000 0.0000 0.0000 26.8134
#
#
#
# Elastic Compliance Matrix: (Units=1/GPa)
#
#
# Indices 1 2 3 4 5 6 
#
# 1 0.013620 -0.003391 -0.005669 0.000000 0.000000 0.000000
# 2 -0.003391 0.009575 -0.003475 0.000000 0.000000 0.000000
# 3 -0.005669 -0.003475 0.018342 0.000000 0.000000 0.000000
# 4 0.000000 0.000000 0.000000 0.041369 0.000000 0.000000
# 5 0.000000 0.000000 0.000000 0.000000 0.069565 0.000000
# 6 0.000000 0.000000 0.000000 0.000000 0.000000 0.037295
#
#
# Mechanical properties :
#
#
# Convention : Reuss Voigt Hill
#
# Bulk Modulus (GPa) = 60.72471 65.53358 63.12915
# Shear Modulus (GPa) = 22.69385 25.16001 23.92693
#
# Velocity S-wave (km/s) = 3.55285 3.74092 3.64810
# Velocity P-wave (km/s) = 7.11384 7.42364 7.27039
#
# Compressibility (1/GPa) = 0.01646776
#
# Stress axis : x y z
#
# Youngs Moduli (GPa) = 73.42375 104.43649 54.51822
#
# Poissons Ratio (x) = 0.35412 0.30909
# Poissons Ratio (y) = 0.24896 0.18943
# Poissons Ratio (z) = 0.41627 0.36288
#
# Static dielectric constant tensor:
#      x y z
#    x 3.435330 0.000000 0.000000 
#    y 0.000000 3.561460 0.000000 
#    z 0.000000 0.000000 3.116270 
# 
# 
# High freq. dielectric constant tensor:
#      x y z
#    x 1.688150 0.000000 0.000000 
#    y 0.000000 1.720600 0.000000 
#    z 0.000000 0.000000 1.671510 
# 
# From -- ./inp_files/71925.got.cif
#   From: 2010.03.12/outbox.cif.g09.slc.cpg/sg65_36_cif.got.tgz:71925.got - 2010.04.10 20:52:16.
