data_PCOD8268507
_publ_section_title
;
Structure prediction by ZEFSAII (Michael W. Deem and Ramdas Pophale) SiO2 
 PCOD8268507
Probable space group: C M M M
;
_chemical_formula_sum "Si O2"
_cell_formula_units_Z 96
_cell_length_a 25.621343
_cell_length_b 9.034052
_cell_length_c 24.908056
_cell_angle_alpha 90.000000
_cell_angle_beta 90.000000
_cell_angle_gamma 90.000000
_cell_volume 5765.331848
_symmetry_space_group_name_H-M "C M M M"
_symmetry_group_IT_number 65
_symmetry_cell_setting 'orthorhombic'
loop_
_space_group_symop_operation_xyz
x,y,z
-x,-y,z
x,-y,-z
-x,y,-z
-x,-y,-z
x,y,-z
-x,y,z
x,-y,z
1/2+x,1/2+y,z
1/2-x,1/2-y,z
1/2+x,1/2-y,-z
1/2-x,1/2+y,-z
1/2-x,1/2-y,-z
1/2+x,1/2+y,-z
1/2-x,1/2+y,z
1/2+x,1/2-y,z
loop_
_atom_site_type_symbol
_atom_site_label
_atom_site_fract_x
_atom_site_fract_y
_atom_site_fract_z
Si Si1 0.604317 0.326126 0.374531
Si Si2 0.303373 0.828609 0.562838
Si Si3 0.103222 0.827371 0.750400
Si Si4 0.500000 0.167674 0.375154
Si Si5 0.305718 0.325604 0.826806
Si Si6 0.304783 0.672261 0.056607
Si Si7 0.500000 0.834075 0.752419
O O1 0.602540 0.500000 0.386350
O O2 0.650961 0.251980 0.406070
O O3 0.612650 0.291970 0.311863
O O4 0.550876 0.253775 0.396198
O O5 0.313911 0.809838 0.500000
O O6 0.250000 0.750000 0.580046
O O7 0.300563 0.000000 0.579627
O O8 0.153272 0.766986 0.782854
O O9 0.051812 0.747378 0.773348
O O10 0.094517 0.000000 0.760412
O O11 0.500000 0.168454 0.311420
O O12 0.500000 0.000000 0.397651
O O13 0.297113 0.500000 0.820316
O O14 0.250000 0.250000 0.816933
O O15 0.330589 0.284847 0.885974
O O16 0.293249 0.500000 0.057619
O O17 0.250000 0.750000 0.054360
O O18 0.335584 0.712304 0.000000
O O19 0.500000 0.000000 0.775146
#
# Coordination Sequence:
#
# PCOD8268507 Si02
#       7
#    16  16  16   8  16  16   8
#     4  10  19  32  51  73  96 122 152 186 227 274
#     4  10  21  37  55  73  94 122 156 192 227 265
#     4   9  18  31  46  66  93 123 150 180 223 271
#     4   9  17  31  50  72  97 122 150 186 228 271
#     4   9  17  28  41  61  91 122 149 180 221 266
#     4   8  13  22  37  56  79 110 147 183 217 256
#     4   9  17  29  47  68  87 114 153 192 224 259
#
# _framework density 16.651254000000002
#
# number of rings (size 3 to 8) (size 9 to 14) (size 15 to 20)
#    0.000    2.833    0.000    1.500    0.000    5.000 
#    0.000    2.083    0.000    2.500    0.000    0.583 
#    0.000    4.667    0.000    0.000    0.000    0.000 
#
# Total GULP energy -594753.589392 kJ/mol
# GULP energy per Si atom -12390.699779 kJ/mol
# Density = 1.661335 g / cm^3
# Si number density = 16.651254 Si / 1000 Ang^3
#
#
#
# Elastic Constant Matrix: (Units=GPa)
#
#
# Indices 1 2 3 4 5 6 
#
# 1 144.0755 65.1992 63.4396 0.0000 0.0000 0.0000
# 2 65.1992 85.4747 42.0837 0.0000 0.0000 0.0000
# 3 63.4396 42.0837 60.0187 0.0000 0.0000 0.0000
# 4 0.0000 0.0000 0.0000 17.3957 0.0000 0.0000
# 5 0.0000 0.0000 0.0000 0.0000 -7.3636 0.0000
# 6 0.0000 0.0000 0.0000 0.0000 0.0000 31.4461
#
#
#
# Elastic Compliance Matrix: (Units=1/GPa)
#
#
# Indices 1 2 3 4 5 6 
#
# 1 0.014419 -0.005338 -0.011499 0.000000 0.000000 0.000000
# 2 -0.005338 0.019844 -0.008272 0.000000 0.000000 0.000000
# 3 -0.011499 -0.008272 0.034616 0.000000 0.000000 0.000000
# 4 0.000000 0.000000 0.000000 0.057486 0.000000 0.000000
# 5 0.000000 0.000000 0.000000 0.000000 -0.135803 0.000000
# 6 0.000000 0.000000 0.000000 0.000000 0.000000 0.031800
#
#
# Mechanical properties :
#
#
# Convention : Reuss Voigt Hill
#
# Bulk Modulus (GPa) = 53.58460 70.11266 61.84863
# Shear Modulus (GPa) = 63.45300 16.21872 39.83586
#
# Velocity S-wave (km/s) = 6.17979 3.12432 4.89649
# Velocity P-wave (km/s) = 9.11976 7.43055 8.31815
#
# Compressibility (1/GPa) = 0.01866208
#
# Stress axis : x y z
#
# Youngs Moduli (GPa) = 69.35136 50.39417 28.88861
#
# Poissons Ratio (x) = 0.26898 0.33218
# Poissons Ratio (y) = 0.37016 0.23897
# Poissons Ratio (z) = 0.79745 0.41687
#
# Static dielectric constant tensor:
#      x y z
#    x 3.069010 0.000000 0.000000 
#    y 0.000000 3.128560 0.000000 
#    z 0.000000 0.000000 3.446170 
# 
# 
# High freq. dielectric constant tensor:
#      x y z
#    x 1.622340 0.000000 0.000000 
#    y 0.000000 1.650760 0.000000 
#    z 0.000000 0.000000 1.631840 
# 
# From -- ./inp_files/71426.got.cif
#   From: 2010.03.12/outbox.cif.g09.slc.cpg/sg65_36_cif.got.tgz:71426.got - 2010.04.10 20:52:16.
