data_PCOD8268195
_publ_section_title
;
Structure prediction by ZEFSAII (Michael W. Deem and Ramdas Pophale) SiO2 
 PCOD8268195
Probable space group: C M M M
;
_chemical_formula_sum "Si O2"
_cell_formula_units_Z 72
_cell_length_a 14.641542
_cell_length_b 30.336579
_cell_length_c 7.660748
_cell_angle_alpha 90.000000
_cell_angle_beta 90.000000
_cell_angle_gamma 90.000000
_cell_volume 3402.707346
_symmetry_space_group_name_H-M "C M M M"
_symmetry_group_IT_number 65
_symmetry_cell_setting 'orthorhombic'
loop_
_space_group_symop_operation_xyz
x,y,z
-x,-y,z
x,-y,-z
-x,y,-z
-x,-y,-z
x,y,-z
-x,y,z
x,-y,z
1/2+x,1/2+y,z
1/2-x,1/2-y,z
1/2+x,1/2-y,-z
1/2-x,1/2+y,-z
1/2-x,1/2-y,-z
1/2+x,1/2+y,-z
1/2-x,1/2+y,z
1/2+x,1/2-y,z
loop_
_atom_site_type_symbol
_atom_site_label
_atom_site_fract_x
_atom_site_fract_y
_atom_site_fract_z
Si Si1 0.902085 0.816630 0.698594
Si Si2 0.160286 0.270298 0.196260
Si Si3 0.605762 0.552084 0.000000
Si Si4 0.601289 0.135996 0.207364
Si Si5 0.288670 0.601682 0.702656
O O1 0.883607 0.803990 0.500000
O O2 0.909489 0.770639 0.803114
O O3 0.823598 0.849927 0.764367
O O4 0.000000 0.840772 0.722464
O O5 0.250000 0.250000 0.293082
O O6 0.121134 0.314767 0.284804
O O7 0.185930 0.283795 0.000000
O O8 0.660613 0.566817 0.173727
O O9 0.606275 0.500000 0.000000
O O10 0.500000 0.569167 0.000000
O O11 0.500000 0.121490 0.273885
O O12 0.678493 0.101749 0.274791
O O13 0.601418 0.136432 0.000000
O O14 0.314146 0.591829 0.500000
#
# Coordination Sequence:
#
# PCOD8268195 Si02
#       5
#    16  16   8  16  16
#     4  10  21  34  50  77 114 158 207 259 311 361
#     4  10  19  31  50  77 114 164 219 270 314 356
#     4  11  26  48  75 104 131 161 193 235 311 399
#     4  10  20  36  58  87 127 176 229 276 317 364
#     4  11  23  41  66  96 130 165 210 262 312 374
#
# _framework density 21.159621999999999
#
# number of rings (size 3 to 8) (size 9 to 14) (size 15 to 20)
#    0.000    1.667    3.333    1.333    1.556    4.889 
#    0.000    1.111    0.000    1.333    0.000    1.556 
#    0.000    0.000    0.000    0.000    0.000    0.000 
#
# Total GULP energy -446025.224202 kJ/mol
# GULP energy per Si atom -12389.589561 kJ/mol
# Density = 2.111146 g / cm^3
# Si number density = 21.159622 Si / 1000 Ang^3
#
#
#
# Elastic Constant Matrix: (Units=GPa)
#
#
# Indices 1 2 3 4 5 6 
#
# 1 169.8371 37.8242 37.3831 0.0000 0.0000 0.0000
# 2 37.8242 66.4422 27.6117 0.0000 0.0000 0.0000
# 3 37.3831 27.6117 76.1399 0.0000 0.0000 0.0000
# 4 0.0000 0.0000 0.0000 14.2616 0.0000 0.0000
# 5 0.0000 0.0000 0.0000 0.0000 17.7001 0.0000
# 6 0.0000 0.0000 0.0000 0.0000 0.0000 27.6826
#
#
#
# Elastic Compliance Matrix: (Units=1/GPa)
#
#
# Indices 1 2 3 4 5 6 
#
# 1 0.007090 -0.003049 -0.002375 0.000000 0.000000 0.000000
# 2 -0.003049 0.019033 -0.005405 0.000000 0.000000 0.000000
# 3 -0.002375 -0.005405 0.016260 0.000000 0.000000 0.000000
# 4 0.000000 0.000000 0.000000 0.070119 0.000000 0.000000
# 5 0.000000 0.000000 0.000000 0.000000 0.056497 0.000000
# 6 0.000000 0.000000 0.000000 0.000000 0.000000 0.036124
#
#
# Mechanical properties :
#
#
# Convention : Reuss Voigt Hill
#
# Bulk Modulus (GPa) = 48.25362 57.56191 52.90776
# Shear Modulus (GPa) = 21.39600 25.90218 23.64909
#
# Velocity S-wave (km/s) = 3.18334 3.50256 3.34676
# Velocity P-wave (km/s) = 6.03039 6.60454 6.32398
#
# Compressibility (1/GPa) = 0.02072383
#
# Stress axis : x y z
#
# Youngs Moduli (GPa) = 141.04641 52.54131 61.50045
#
# Poissons Ratio (x) = 0.16020 0.14608
# Poissons Ratio (y) = 0.43005 0.33241
# Poissons Ratio (z) = 0.33502 0.28399
#
# Static dielectric constant tensor:
#      x y z
#    x 4.251350 0.000000 0.000000 
#    y 0.000000 3.369130 0.000000 
#    z 0.000000 0.000000 3.613230 
# 
# 
# High freq. dielectric constant tensor:
#      x y z
#    x 1.850260 0.000000 0.000000 
#    y 0.000000 1.771490 0.000000 
#    z 0.000000 0.000000 1.817910 
# 
# From -- ./inp_files/7646.got.cif
#   From: 2010.03.12/outbox.cif.g09.slc.cpg/sg65_4_cif.got.tgz:7646.got - 2010.04.10 20:52:16.
