data_PCOD8268354
_publ_section_title
;
Structure prediction by ZEFSAII (Michael W. Deem and Ramdas Pophale) SiO2 
 PCOD8268354
Probable space group: C M M M
;
_chemical_formula_sum "Si O2"
_cell_formula_units_Z 128
_cell_length_a 20.305078
_cell_length_b 28.177316
_cell_length_c 13.498273
_cell_angle_alpha 90.000000
_cell_angle_beta 90.000000
_cell_angle_gamma 90.000000
_cell_volume 7722.936999
_symmetry_space_group_name_H-M "C M M M"
_symmetry_group_IT_number 65
_symmetry_cell_setting 'orthorhombic'
loop_
_space_group_symop_operation_xyz
x,y,z
-x,-y,z
x,-y,-z
-x,y,-z
-x,-y,-z
x,y,-z
-x,y,z
x,-y,z
1/2+x,1/2+y,z
1/2-x,1/2-y,z
1/2+x,1/2-y,-z
1/2-x,1/2+y,-z
1/2-x,1/2-y,-z
1/2+x,1/2+y,-z
1/2-x,1/2+y,z
1/2+x,1/2-y,z
loop_
_atom_site_type_symbol
_atom_site_label
_atom_site_fract_x
_atom_site_fract_y
_atom_site_fract_z
Si Si1 0.423544 0.904762 0.888052
Si Si2 0.677875 0.947048 0.250970
Si Si3 0.572786 0.711315 0.247577
Si Si4 0.926718 0.318644 0.244172
Si Si5 0.651065 0.347516 0.885972
Si Si6 0.179573 0.358427 0.615480
Si Si7 0.301153 0.447493 0.112563
Si Si8 0.787045 0.799998 0.287571
O O1 0.500000 0.917811 0.883051
O O2 0.386273 0.941623 0.817696
O O3 0.408989 0.851504 0.849449
O O4 0.397043 0.908318 0.000000
O O5 0.677902 0.911794 0.343666
O O6 0.740709 0.936982 0.183707
O O7 0.678524 0.000000 0.294909
O O8 0.500000 0.701846 0.295619
O O9 0.576934 0.764786 0.206195
O O10 0.582824 0.675326 0.154687
O O11 0.635528 0.704966 0.322821
O O12 0.876706 0.326712 0.334118
O O13 0.000000 0.330734 0.283813
O O14 0.646753 0.404812 0.870886
O O15 0.711580 0.324634 0.821927
O O16 0.662220 0.334081 0.000000
O O17 0.165473 0.360301 0.500000
O O18 0.250260 0.334133 0.635335
O O19 0.332275 0.500000 0.134544
O O20 0.274847 0.445862 0.000000
O O21 0.750000 0.750000 0.280469
#
# Coordination Sequence:
#
# PCOD8268354 Si02
#       8
#    16  16  16  16  16  16  16  16
#     4   9  18  30  45  67  96 132 170 203 239 290
#     4  10  19  32  48  68  95 124 160 208 254 297
#     4   9  18  32  51  72 104 136 164 200 241 292
#     4   9  18  34  50  70 100 133 168 207 248 292
#     4   9  18  30  48  73 103 134 165 197 237 289
#     4  11  21  35  54  72  94 128 167 211 260 304
#     4   9  16  28  48  71  95 126 161 198 243 294
#     4  10  19  35  49  75 104 127 166 199 245 295
#
# _framework density 16.574005
#
# number of rings (size 3 to 8) (size 9 to 14) (size 15 to 20)
#    0.750    1.750    2.500    0.375    0.000    2.750 
#    0.000    1.875    0.000    0.750    0.000    5.250 
#    0.000    0.000    0.000    4.500    0.000    0.000 
#
# Total GULP energy -792855.476752 kJ/mol
# GULP energy per Si atom -12388.366824 kJ/mol
# Density = 1.653628 g / cm^3
# Si number density = 16.574005 Si / 1000 Ang^3
#
#
#
# Elastic Constant Matrix: (Units=GPa)
#
#
# Indices 1 2 3 4 5 6 
#
# 1 88.0431 40.8692 25.6175 0.0000 0.0000 0.0000
# 2 40.8692 108.3934 36.9005 0.0000 0.0000 0.0000
# 3 25.6175 36.9005 70.6366 0.0000 0.0000 0.0000
# 4 0.0000 0.0000 0.0000 14.6053 0.0000 0.0000
# 5 0.0000 0.0000 0.0000 0.0000 13.3043 0.0000
# 6 0.0000 0.0000 0.0000 0.0000 0.0000 19.9484
#
#
#
# Elastic Compliance Matrix: (Units=1/GPa)
#
#
# Indices 1 2 3 4 5 6 
#
# 1 0.014230 -0.004389 -0.002868 0.000000 0.000000 0.000000
# 2 -0.004389 0.012575 -0.004977 0.000000 0.000000 0.000000
# 3 -0.002868 -0.004977 0.017797 0.000000 0.000000 0.000000
# 4 0.000000 0.000000 0.000000 0.068468 0.000000 0.000000
# 5 0.000000 0.000000 0.000000 0.000000 0.075164 0.000000
# 6 0.000000 0.000000 0.000000 0.000000 0.000000 0.050129
#
#
# Mechanical properties :
#
#
# Convention : Reuss Voigt Hill
#
# Bulk Modulus (GPa) = 49.66843 52.64972 51.15908
# Shear Modulus (GPa) = 18.54992 20.48400 19.51696
#
# Velocity S-wave (km/s) = 3.34910 3.51937 3.43529
# Velocity P-wave (km/s) = 6.70731 6.95342 6.83147
#
# Compressibility (1/GPa) = 0.02013351
#
# Stress axis : x y z
#
# Youngs Moduli (GPa) = 70.27470 79.52298 56.18841
#
# Poissons Ratio (x) = 0.34903 0.16114
# Poissons Ratio (y) = 0.30844 0.27967
# Poissons Ratio (z) = 0.20154 0.39582
#
# Static dielectric constant tensor:
#      x y z
#    x 3.127410 0.000000 0.000000 
#    y 0.000000 3.281970 0.000000 
#    z 0.000000 0.000000 2.771590 
# 
# 
# High freq. dielectric constant tensor:
#      x y z
#    x 1.626400 0.000000 0.000000 
#    y 0.000000 1.649910 0.000000 
#    z 0.000000 0.000000 1.602600 
# 
# From -- ./inp_files/31312.got.cif
#   From: 2010.03.12/outbox.cif.g09.slc.cpg/sg65_16_cif.got.tgz:31312.got - 2010.04.10 20:52:16.
