data_PCOD8268610
_publ_section_title
;
Structure prediction by ZEFSAII (Michael W. Deem and Ramdas Pophale) SiO2 
 PCOD8268610
Probable space group: C M M M
;
_chemical_formula_sum "Si O2"
_cell_formula_units_Z 96
_cell_length_a 28.374629
_cell_length_b 9.812619
_cell_length_c 19.476357
_cell_angle_alpha 90.000000
_cell_angle_beta 90.000000
_cell_angle_gamma 90.000000
_cell_volume 5422.790854
_symmetry_space_group_name_H-M "C M M M"
_symmetry_group_IT_number 65
_symmetry_cell_setting 'orthorhombic'
loop_
_space_group_symop_operation_xyz
x,y,z
-x,-y,z
x,-y,-z
-x,y,-z
-x,-y,-z
x,y,-z
-x,y,z
x,-y,z
1/2+x,1/2+y,z
1/2-x,1/2-y,z
1/2+x,1/2-y,-z
1/2-x,1/2+y,-z
1/2-x,1/2-y,-z
1/2+x,1/2+y,-z
1/2-x,1/2+y,z
1/2+x,1/2-y,z
loop_
_atom_site_type_symbol
_atom_site_label
_atom_site_fract_x
_atom_site_fract_y
_atom_site_fract_z
Si Si1 0.709206 0.000000 0.418701
Si Si2 0.376510 0.654718 0.921580
Si Si3 0.315015 0.500000 0.418546
Si Si4 0.445889 0.157226 0.678142
Si Si5 0.137352 0.273427 0.418788
Si Si6 0.709036 0.154550 0.081074
Si Si7 0.053943 0.154619 0.801199
O O1 0.679700 0.129909 0.393626
O O2 0.714014 0.000000 0.500000
O O3 0.761997 0.000000 0.386637
O O4 0.356418 0.500000 0.912335
O O5 0.338745 0.767805 0.899966
O O6 0.420667 0.681353 0.873046
O O7 0.392888 0.676284 0.000000
O O8 0.309847 0.500000 0.500000
O O9 0.345637 0.373176 0.393212
O O10 0.500000 0.195917 0.658923
O O11 0.412846 0.188029 0.613300
O O12 0.427011 0.245826 0.741966
O O13 0.442207 0.000000 0.699240
O O14 0.129966 0.283098 0.500000
O O15 0.750000 0.250000 0.112837
O O16 0.709522 0.000000 0.111979
O O17 0.715924 0.144048 0.000000
O O18 0.000000 0.187772 0.816314
O O19 0.061485 0.000000 0.775608
#
# Coordination Sequence:
#
# PCOD8268610 Si02
#       7
#     8  16   8  16  16  16  16
#     4   9  16  30  51  75 105 137 169 208 252 304
#     4   9  17  30  50  77 104 129 162 206 254 302
#     4   9  18  30  49  77 107 135 167 210 260 308
#     4  10  21  36  53  73  99 136 178 215 255 306
#     4  10  19  32  51  79 107 135 173 214 257 300
#     4   9  16  26  43  69 100 132 165 200 241 292
#     4   9  19  35  54  75  99 132 169 204 250 307
#
# _framework density 17.703060000000001
#
# number of rings (size 3 to 8) (size 9 to 14) (size 15 to 20)
#    0.000    2.667    0.833    1.000    1.167    5.333 
#    0.000    2.500    0.000    3.500    0.000    4.667 
#    0.000    0.000    0.000    0.000    0.000    0.000 
#
# Total GULP energy -595007.799961 kJ/mol
# GULP energy per Si atom -12395.995833 kJ/mol
# Density = 1.766277 g / cm^3
# Si number density = 17.703060 Si / 1000 Ang^3
#
#
#
# Elastic Constant Matrix: (Units=GPa)
#
#
# Indices 1 2 3 4 5 6 
#
# 1 91.8358 53.7460 42.1728 0.0000 0.0000 0.0000
# 2 53.7460 136.5564 36.8224 0.0000 0.0000 0.0000
# 3 42.1728 36.8224 54.7008 0.0000 0.0000 0.0000
# 4 0.0000 0.0000 0.0000 19.4587 0.0000 0.0000
# 5 0.0000 0.0000 0.0000 0.0000 9.4467 0.0000
# 6 0.0000 0.0000 0.0000 0.0000 0.0000 34.5979
#
#
#
# Elastic Compliance Matrix: (Units=1/GPa)
#
#
# Indices 1 2 3 4 5 6 
#
# 1 0.018668 -0.004235 -0.011541 0.000000 0.000000 0.000000
# 2 -0.004235 0.009908 -0.003404 0.000000 0.000000 0.000000
# 3 -0.011541 -0.003404 0.029471 0.000000 0.000000 0.000000
# 4 0.000000 0.000000 0.000000 0.051391 0.000000 0.000000
# 5 0.000000 0.000000 0.000000 0.000000 0.105858 0.000000
# 6 0.000000 0.000000 0.000000 0.000000 0.000000 0.028904
#
#
# Mechanical properties :
#
#
# Convention : Reuss Voigt Hill
#
# Bulk Modulus (GPa) = 50.80062 60.95284 55.87673
# Shear Modulus (GPa) = 17.29377 22.72409 20.00893
#
# Velocity S-wave (km/s) = 3.12890 3.58666 3.36557
# Velocity P-wave (km/s) = 6.46619 7.18732 6.83627
#
# Compressibility (1/GPa) = 0.01968480
#
# Stress axis : x y z
#
# Youngs Moduli (GPa) = 53.56894 100.93018 33.93168
#
# Poissons Ratio (x) = 0.42745 0.39161
# Poissons Ratio (y) = 0.22687 0.11552
# Poissons Ratio (z) = 0.61825 0.34361
#
# Static dielectric constant tensor:
#      x y z
#    x 3.301960 0.000000 0.000000 
#    y 0.000000 3.612770 0.000000 
#    z 0.000000 0.000000 2.888550 
# 
# 
# High freq. dielectric constant tensor:
#      x y z
#    x 1.687130 0.000000 0.000000 
#    y 0.000000 1.701880 0.000000 
#    z 0.000000 0.000000 1.638860 
# 
# From -- ./inp_files/71488.got.cif
#   From: 2010.03.12/outbox.cif.g09.slc.cpg/sg65_36_cif.got.tgz:71488.got - 2010.04.10 20:52:16.
