data_PCOD8268415
_publ_section_title
;
Structure prediction by ZEFSAII (Michael W. Deem and Ramdas Pophale) SiO2 
 PCOD8268415
Probable space group: C M M M
;
_chemical_formula_sum "Si O2"
_cell_formula_units_Z 104
_cell_length_a 25.694291
_cell_length_b 9.212075
_cell_length_c 25.913117
_cell_angle_alpha 90.000000
_cell_angle_beta 90.000000
_cell_angle_gamma 90.000000
_cell_volume 6133.576120
_symmetry_space_group_name_H-M "C M M M"
_symmetry_group_IT_number 65
_symmetry_cell_setting 'orthorhombic'
loop_
_space_group_symop_operation_xyz
x,y,z
-x,-y,z
x,-y,-z
-x,y,-z
-x,-y,-z
x,y,-z
-x,y,z
x,-y,z
1/2+x,1/2+y,z
1/2-x,1/2-y,z
1/2+x,1/2-y,-z
1/2-x,1/2+y,-z
1/2-x,1/2-y,-z
1/2+x,1/2+y,-z
1/2-x,1/2+y,z
1/2+x,1/2-y,z
loop_
_atom_site_type_symbol
_atom_site_label
_atom_site_fract_x
_atom_site_fract_y
_atom_site_fract_z
Si Si1 0.397539 0.331826 0.709381
Si Si2 0.198541 0.669280 0.878088
Si Si3 0.059572 0.832567 0.401139
Si Si4 0.438047 0.164043 0.500000
Si Si5 0.000000 0.672732 0.119070
Si Si6 0.600426 0.172765 0.941947
Si Si7 0.500000 0.668988 0.226838
Si Si8 0.697467 0.829672 0.758837
O O1 0.383401 0.500000 0.718864
O O2 0.406506 0.299721 0.649225
O O3 0.449309 0.289198 0.740397
O O4 0.350476 0.230771 0.726528
O O5 0.207409 0.500000 0.887161
O O6 0.250000 0.750000 0.897231
O O7 0.151141 0.730171 0.912097
O O8 0.186147 0.704079 0.818671
O O9 0.083431 0.741295 0.448532
O O10 0.000000 0.788386 0.389386
O O11 0.062669 0.000000 0.416924
O O12 0.500000 0.175377 0.500000
O O13 0.417851 0.000000 0.500000
O O14 0.049983 0.730530 0.088044
O O15 0.000000 0.500000 0.123968
O O16 0.000000 0.737040 0.175689
O O17 0.599787 0.000000 0.942917
O O18 0.600408 0.235271 0.000000
O O19 0.500000 0.500000 0.212468
O O20 0.750000 0.750000 0.740731
O O21 0.703723 0.000000 0.748397
#
# Coordination Sequence:
#
# PCOD8268415 Si02
#       8
#    16  16  16   8   8  16   8  16
#     4  10  19  32  50  73 101 132 167 206 245 291
#     4   9  18  32  49  69  93 119 151 191 238 291
#     4   9  16  29  47  67  95 133 172 203 238 289
#     4   9  17  27  41  65  98 133 168 207 247 284
#     4  10  19  32  50  70  91 121 162 199 233 283
#     4   9  17  30  49  71  93 118 152 195 239 284
#     4  10  20  33  49  72 103 134 161 195 248 301
#     4  10  20  34  51  72  98 129 164 203 247 296
#
# _framework density 16.955850999999999
#
# number of rings (size 3 to 8) (size 9 to 14) (size 15 to 20)
#    0.000    2.538    0.769    1.846    0.000    5.231 
#    0.000    0.769    0.000    1.846    0.000    0.538 
#    0.000    0.000    0.000    0.000    0.000    0.000 
#
# Total GULP energy -644871.766066 kJ/mol
# GULP energy per Si atom -12401.380117 kJ/mol
# Density = 1.691726 g / cm^3
# Si number density = 16.955851 Si / 1000 Ang^3
#
#
#
# Elastic Constant Matrix: (Units=GPa)
#
#
# Indices 1 2 3 4 5 6 
#
# 1 126.6175 49.9047 66.5109 0.0000 0.0000 0.0000
# 2 49.9047 63.0004 52.9467 0.0000 0.0000 0.0000
# 3 66.5109 52.9467 121.8310 0.0000 0.0000 0.0000
# 4 0.0000 0.0000 0.0000 23.6821 0.0000 0.0000
# 5 0.0000 0.0000 0.0000 0.0000 4.3616 0.0000
# 6 0.0000 0.0000 0.0000 0.0000 0.0000 27.7098
#
#
#
# Elastic Compliance Matrix: (Units=1/GPa)
#
#
# Indices 1 2 3 4 5 6 
#
# 1 0.012614 -0.006624 -0.004008 0.000000 0.000000 0.000000
# 2 -0.006624 0.028484 -0.008763 0.000000 0.000000 0.000000
# 3 -0.004008 -0.008763 0.014204 0.000000 0.000000 0.000000
# 4 0.000000 0.000000 0.000000 0.042226 0.000000 0.000000
# 5 0.000000 0.000000 0.000000 0.000000 0.229272 0.000000
# 6 0.000000 0.000000 0.000000 0.000000 0.000000 0.036088
#
#
# Mechanical properties :
#
#
# Convention : Reuss Voigt Hill
#
# Bulk Modulus (GPa) = 60.55550 72.24151 66.39850
# Shear Modulus (GPa) = 12.27955 20.62315 16.45135
#
# Velocity S-wave (km/s) = 2.69403 3.49131 3.11826
# Velocity P-wave (km/s) = 6.74301 7.67792 7.22560
#
# Compressibility (1/GPa) = 0.01651378
#
# Stress axis : x y z
#
# Youngs Moduli (GPa) = 79.28001 35.10710 70.40157
#
# Poissons Ratio (x) = 0.23254 0.28213
# Poissons Ratio (y) = 0.52512 0.61693
# Poissons Ratio (z) = 0.31772 0.30764
#
# Static dielectric constant tensor:
#      x y z
#    x 3.133010 0.000000 0.000000 
#    y 0.000000 3.018630 0.000000 
#    z 0.000000 0.000000 3.232820 
# 
# 
# High freq. dielectric constant tensor:
#      x y z
#    x 1.640870 0.000000 0.000000 
#    y 0.000000 1.639020 0.000000 
#    z 0.000000 0.000000 1.656650 
# 
# From -- ./inp_files/71900.got.cif
#   From: 2010.03.12/outbox.cif.g09.slc.cpg/sg65_36_cif.got.tgz:71900.got - 2010.04.10 20:52:16.
