data_PCOD8268255
_publ_section_title
;
Structure prediction by ZEFSAII (Michael W. Deem and Ramdas Pophale) SiO2 
 PCOD8268255
Probable space group: C M M M
;
_chemical_formula_sum "Si O2"
_cell_formula_units_Z 80
_cell_length_a 18.271285
_cell_length_b 15.145987
_cell_length_c 16.898857
_cell_angle_alpha 90.000000
_cell_angle_beta 90.000000
_cell_angle_gamma 90.000000
_cell_volume 4676.532992
_symmetry_space_group_name_H-M "C M M M"
_symmetry_group_IT_number 65
_symmetry_cell_setting 'orthorhombic'
loop_
_space_group_symop_operation_xyz
x,y,z
-x,-y,z
x,-y,-z
-x,y,-z
-x,-y,-z
x,y,-z
-x,y,z
x,-y,z
1/2+x,1/2+y,z
1/2-x,1/2-y,z
1/2+x,1/2-y,-z
1/2-x,1/2+y,-z
1/2-x,1/2-y,-z
1/2+x,1/2+y,-z
1/2-x,1/2+y,z
1/2+x,1/2-y,z
loop_
_atom_site_type_symbol
_atom_site_label
_atom_site_fract_x
_atom_site_fract_y
_atom_site_fract_z
Si Si1 0.799235 0.598725 0.830834
Si Si2 0.080079 0.810902 0.000000
Si Si3 0.238055 0.853946 0.000000
Si Si4 0.081921 0.104357 0.586403
Si Si5 0.849995 0.102451 0.746572
Si Si6 0.919080 0.260113 0.167567
O O1 0.829127 0.500000 0.817895
O O2 0.733417 0.619134 0.770768
O O3 0.862018 0.666187 0.804455
O O4 0.773542 0.605825 0.921631
O O5 0.150415 0.876424 0.000000
O O6 0.084981 0.744415 0.926718
O O7 0.000000 0.860639 0.000000
O O8 0.250000 0.750000 0.000000
O O9 0.107514 0.141139 0.500000
O O10 0.138226 0.132951 0.655340
O O11 0.000000 0.139874 0.605806
O O12 0.079151 0.000000 0.582063
O O13 0.901569 0.162472 0.800668
O O14 0.872503 0.000000 0.759631
O O15 0.000000 0.287969 0.196263
#
# Coordination Sequence:
#
# PCOD8268255 Si02
#       6
#    16   8   8  16  16  16
#     4  11  22  34  51  73  97 134 176 209 246 292
#     4  10  20  32  50  72  96 129 164 202 251 295
#     4  12  17  34  55  68  96 128 162 207 252 300
#     4   8  14  26  45  71 104 135 158 188 239 303
#     4  10  19  31  51  78 103 128 162 200 246 307
#     4  11  21  35  52  70  99 134 168 213 254 288
#
# _framework density 17.10669
#
# number of rings (size 3 to 8) (size 9 to 14) (size 15 to 20)
#    0.000    1.800    4.000    2.100    0.000    1.600 
#    0.000    0.500    0.000    8.400    0.000    0.000 
#    0.000    0.000    0.000   12.000    0.000    0.200 
#
# Total GULP energy -495748.057584 kJ/mol
# GULP energy per Si atom -12393.701440 kJ/mol
# Density = 1.706775 g / cm^3
# Si number density = 17.106690 Si / 1000 Ang^3
#
#
#
# Elastic Constant Matrix: (Units=GPa)
#
#
# Indices 1 2 3 4 5 6 
#
# 1 124.8348 51.3962 51.4567 0.0000 0.0000 0.0000
# 2 51.3962 68.6531 39.4831 0.0000 0.0000 0.0000
# 3 51.4567 39.4831 111.8666 0.0000 0.0000 0.0000
# 4 0.0000 0.0000 0.0000 7.5043 0.0000 0.0000
# 5 0.0000 0.0000 0.0000 0.0000 18.3164 0.0000
# 6 0.0000 0.0000 0.0000 0.0000 0.0000 21.8241
#
#
#
# Elastic Compliance Matrix: (Units=1/GPa)
#
#
# Indices 1 2 3 4 5 6 
#
# 1 0.012349 -0.007500 -0.003033 0.000000 0.000000 0.000000
# 2 -0.007500 0.022831 -0.004608 0.000000 0.000000 0.000000
# 3 -0.003033 -0.004608 0.011961 0.000000 0.000000 0.000000
# 4 0.000000 0.000000 0.000000 0.133257 0.000000 0.000000
# 5 0.000000 0.000000 0.000000 0.000000 0.054596 0.000000
# 6 0.000000 0.000000 0.000000 0.000000 0.000000 0.045821
#
#
# Mechanical properties :
#
#
# Convention : Reuss Voigt Hill
#
# Bulk Modulus (GPa) = 59.32019 65.55850 62.43934
# Shear Modulus (GPa) = 15.78697 20.39686 18.09192
#
# Velocity S-wave (km/s) = 3.04115 3.45676 3.25559
# Velocity P-wave (km/s) = 6.86173 7.37148 7.12117
#
# Compressibility (1/GPa) = 0.01685767
#
# Stress axis : x y z
#
# Youngs Moduli (GPa) = 80.97944 43.79952 83.60657
#
# Poissons Ratio (x) = 0.32852 0.25358
# Poissons Ratio (y) = 0.60738 0.38527
# Poissons Ratio (z) = 0.24561 0.20184
#
# Static dielectric constant tensor:
#      x y z
#    x 3.386060 0.000000 0.000000 
#    y 0.000000 2.964420 0.000000 
#    z 0.000000 0.000000 3.499130 
# 
# 
# High freq. dielectric constant tensor:
#      x y z
#    x 1.658690 0.000000 0.000000 
#    y 0.000000 1.626780 0.000000 
#    z 0.000000 0.000000 1.652790 
# 
# From -- ./inp_files/54213.got.cif
#   From: 2010.03.12/outbox.cif.g09.slc.cpg/sg65_28_cif.got.tgz:54213.got - 2010.04.10 20:52:16.
