data_PCOD8268027
_publ_section_title
;
Structure prediction by ZEFSAII (Michael W. Deem and Ramdas Pophale) SiO2 
 PCOD8268027
Probable space group: C M M M
;
_chemical_formula_sum "Si O2"
_cell_formula_units_Z 96
_cell_length_a 19.381779
_cell_length_b 9.022372
_cell_length_c 31.229928
_cell_angle_alpha 90.000000
_cell_angle_beta 90.000000
_cell_angle_gamma 90.000000
_cell_volume 5461.165647
_symmetry_space_group_name_H-M "C M M M"
_symmetry_group_IT_number 65
_symmetry_cell_setting 'orthorhombic'
loop_
_space_group_symop_operation_xyz
x,y,z
-x,-y,z
x,-y,-z
-x,y,-z
-x,-y,-z
x,y,-z
-x,y,z
x,-y,z
1/2+x,1/2+y,z
1/2-x,1/2-y,z
1/2+x,1/2-y,-z
1/2-x,1/2+y,-z
1/2-x,1/2-y,-z
1/2+x,1/2+y,-z
1/2-x,1/2+y,z
1/2+x,1/2-y,z
loop_
_atom_site_type_symbol
_atom_site_label
_atom_site_fract_x
_atom_site_fract_y
_atom_site_fract_z
Si Si1 0.179844 0.674041 0.951818
Si Si2 0.177810 0.828227 0.545149
Si Si3 0.581117 0.827283 0.292139
Si Si4 0.079266 0.326753 0.122293
Si Si5 0.824786 0.175617 0.638373
Si Si6 0.918009 0.167099 0.206765
O O1 0.191527 0.500000 0.949574
O O2 0.250000 0.750000 0.936590
O O3 0.119406 0.725152 0.920064
O O4 0.159693 0.723955 0.000000
O O5 0.136724 0.789497 0.500000
O O6 0.250000 0.750000 0.543087
O O7 0.143097 0.787015 0.590790
O O8 0.194406 0.000000 0.546182
O O9 0.500000 0.798527 0.298198
O O10 0.620369 0.742833 0.329440
O O11 0.608038 0.762058 0.247116
O O12 0.599203 0.000000 0.293404
O O13 0.088392 0.500000 0.131524
O O14 0.110192 0.240518 0.163179
O O15 0.000000 0.285062 0.114250
O O16 0.750000 0.250000 0.644714
O O17 0.817619 0.000000 0.646118
O O18 0.000000 0.169265 0.205627
O O19 0.889435 0.000000 0.210534
#
# Coordination Sequence:
#
# PCOD8268027 Si02
#       6
#    16  16  16  16  16  16
#     4   9  18  32  49  69  95 128 161 191 227 274
#     4   8  14  25  42  65  92 122 156 193 234 281
#     4  10  20  34  52  72  96 128 165 202 241 289
#     4   9  17  30  49  72  96 121 153 195 238 277
#     4  10  19  31  49  73 101 129 159 199 244 288
#     4   9  17  30  49  72  96 122 155 195 239 287
#
# _framework density 17.578665000000001
#
# number of rings (size 3 to 8) (size 9 to 14) (size 15 to 20)
#    0.000    2.833    0.000    1.500    0.000    4.667 
#    0.000    2.500    0.000    2.500    0.000    8.167 
#    0.000    0.000    0.000    0.000    0.000    0.000 
#
# Total GULP energy -594744.997056 kJ/mol
# GULP energy per Si atom -12390.520772 kJ/mol
# Density = 1.753865 g / cm^3
# Si number density = 17.578665 Si / 1000 Ang^3
#
#
#
# Elastic Constant Matrix: (Units=GPa)
#
#
# Indices 1 2 3 4 5 6 
#
# 1 51.5359 35.4917 62.0845 0.0000 0.0000 0.0000
# 2 35.4917 79.8088 66.7304 0.0000 0.0000 0.0000
# 3 62.0845 66.7304 177.8474 0.0000 0.0000 0.0000
# 4 0.0000 0.0000 0.0000 27.5672 0.0000 0.0000
# 5 0.0000 0.0000 0.0000 0.0000 20.6083 0.0000
# 6 0.0000 0.0000 0.0000 0.0000 0.0000 23.6671
#
#
#
# Elastic Compliance Matrix: (Units=1/GPa)
#
#
# Indices 1 2 3 4 5 6 
#
# 1 0.036837 -0.008203 -0.009781 0.000000 0.000000 0.000000
# 2 -0.008203 0.020085 -0.004672 0.000000 0.000000 0.000000
# 3 -0.009781 -0.004672 0.010790 0.000000 0.000000 0.000000
# 4 0.000000 0.000000 0.000000 0.036275 0.000000 0.000000
# 5 0.000000 0.000000 0.000000 0.000000 0.048524 0.000000
# 6 0.000000 0.000000 0.000000 0.000000 0.000000 0.042253
#
#
# Mechanical properties :
#
#
# Convention : Reuss Voigt Hill
#
# Bulk Modulus (GPa) = 44.64655 70.86725 57.75690
# Shear Modulus (GPa) = 20.19845 24.02754 22.11300
#
# Velocity S-wave (km/s) = 3.39341 3.70112 3.55060
# Velocity P-wave (km/s) = 6.38803 7.65939 7.05242
#
# Compressibility (1/GPa) = 0.02239815
#
# Stress axis : x y z
#
# Youngs Moduli (GPa) = 27.14678 49.78922 92.67414
#
# Poissons Ratio (x) = 0.40843 0.90648
# Poissons Ratio (y) = 0.22269 0.43301
# Poissons Ratio (z) = 0.26553 0.23263
#
# Static dielectric constant tensor:
#      x y z
#    x 2.896350 0.000000 0.000000 
#    y 0.000000 3.364580 0.000000 
#    z 0.000000 0.000000 3.880470 
# 
# 
# High freq. dielectric constant tensor:
#      x y z
#    x 1.628830 0.000000 0.000000 
#    y 0.000000 1.687050 0.000000 
#    z 0.000000 0.000000 1.704680 
# 
# From -- ./inp_files/75687.got.cif
#   From: 2010.03.12/outbox.cif.g09.slc.cpg/sg65_38_cif.got.tgz:75687.got - 2010.04.10 20:52:16.
