data_PCOD8268272
_publ_section_title
;
Structure prediction by ZEFSAII (Michael W. Deem and Ramdas Pophale) SiO2 
 PCOD8268272
Probable space group: C M M M
;
_chemical_formula_sum "Si O2"
_cell_formula_units_Z 104
_cell_length_a 27.692345
_cell_length_b 25.972536
_cell_length_c 7.743275
_cell_angle_alpha 90.000000
_cell_angle_beta 90.000000
_cell_angle_gamma 90.000000
_cell_volume 5569.276421
_symmetry_space_group_name_H-M "C M M M"
_symmetry_group_IT_number 65
_symmetry_cell_setting 'orthorhombic'
loop_
_space_group_symop_operation_xyz
x,y,z
-x,-y,z
x,-y,-z
-x,y,-z
-x,-y,-z
x,y,-z
-x,y,z
x,-y,z
1/2+x,1/2+y,z
1/2-x,1/2-y,z
1/2+x,1/2-y,-z
1/2-x,1/2+y,-z
1/2-x,1/2-y,-z
1/2+x,1/2+y,-z
1/2-x,1/2+y,z
1/2+x,1/2-y,z
loop_
_atom_site_type_symbol
_atom_site_label
_atom_site_fract_x
_atom_site_fract_y
_atom_site_fract_z
Si Si1 0.946237 0.128390 0.000000
Si Si2 0.145985 0.939345 0.000000
Si Si3 0.770690 0.303414 0.705344
Si Si4 0.813167 0.875852 0.696738
Si Si5 0.445410 0.889987 0.196995
Si Si6 0.057166 0.500000 0.693937
Si Si7 0.622985 0.801734 0.696115
Si Si8 0.405959 0.692393 0.697417
O O1 0.908490 0.081839 0.000000
O O2 0.940988 0.162205 0.826472
O O3 0.000000 0.104901 0.000000
O O4 0.173676 0.921702 0.826975
O O5 0.143387 0.000000 0.000000
O O6 0.770179 0.300950 0.500000
O O7 0.750000 0.250000 0.781878
O O8 0.737206 0.351295 0.761661
O O9 0.824691 0.312734 0.782261
O O10 0.809976 0.897501 0.500000
O O11 0.852347 0.830548 0.706311
O O12 0.500000 0.886969 0.273135
O O13 0.411197 0.851234 0.297857
O O14 0.424332 0.948014 0.213777
O O15 0.445235 0.872888 0.000000
O O16 0.076909 0.500000 0.500000
O O17 0.000000 0.500000 0.703000
O O18 0.634023 0.787300 0.500000
O O19 0.596842 0.750947 0.771180
O O20 0.426170 0.689259 0.500000
#
# Coordination Sequence:
#
# PCOD8268272 Si02
#       8
#     8   8  16  16  16   8  16  16
#     4  10  22  37  55  79 108 143 183 228 282 335
#     4  10  22  39  58  82 107 139 192 239 273 328
#     4   9  15  29  55  82 108 140 173 211 261 317
#     4   9  17  34  58  82 110 142 176 218 274 330
#     4  10  21  35  50  70 100 137 175 217 264 310
#     4   9  17  33  57  75  87 117 171 225 263 301
#     4  10  19  31  51  79 108 139 177 217 260 316
#     4   9  18  33  53  78 110 145 176 213 266 330
#
# _framework density 18.67388
#
# number of rings (size 3 to 8) (size 9 to 14) (size 15 to 20)
#    0.000    2.538    1.538    0.692    1.077    3.231 
#    1.385    1.923    1.692    0.000    0.000    4.308 
#    0.000    0.000    0.000    0.000    0.000    0.000 
#
# Total GULP energy -644568.820590 kJ/mol
# GULP energy per Si atom -12395.554242 kJ/mol
# Density = 1.863138 g / cm^3
# Si number density = 18.673880 Si / 1000 Ang^3
#
#
#
# Elastic Constant Matrix: (Units=GPa)
#
#
# Indices 1 2 3 4 5 6 
#
# 1 97.5355 57.3552 26.2921 0.0000 0.0000 0.0000
# 2 57.3552 140.8821 35.8945 0.0000 0.0000 0.0000
# 3 26.2921 35.8945 76.2262 0.0000 0.0000 0.0000
# 4 0.0000 0.0000 0.0000 18.9353 0.0000 0.0000
# 5 0.0000 0.0000 0.0000 0.0000 9.8773 0.0000
# 6 0.0000 0.0000 0.0000 0.0000 0.0000 18.2092
#
#
#
# Elastic Compliance Matrix: (Units=1/GPa)
#
#
# Indices 1 2 3 4 5 6 
#
# 1 0.013860 -0.005028 -0.002413 0.000000 0.000000 0.000000
# 2 -0.005028 0.009890 -0.002923 0.000000 0.000000 0.000000
# 3 -0.002413 -0.002923 0.015327 0.000000 0.000000 0.000000
# 4 0.000000 0.000000 0.000000 0.052811 0.000000 0.000000
# 5 0.000000 0.000000 0.000000 0.000000 0.101242 0.000000
# 6 0.000000 0.000000 0.000000 0.000000 0.000000 0.054917
#
#
# Mechanical properties :
#
#
# Convention : Reuss Voigt Hill
#
# Bulk Modulus (GPa) = 54.49653 61.52526 58.01090
# Shear Modulus (GPa) = 18.18902 22.41117 20.30009
#
# Velocity S-wave (km/s) = 3.12434 3.46805 3.30067
# Velocity P-wave (km/s) = 6.50092 7.00395 6.75712
#
# Compressibility (1/GPa) = 0.01834979
#
# Stress axis : x y z
#
# Youngs Moduli (GPa) = 72.15201 101.11566 65.24222
#
# Poissons Ratio (x) = 0.50838 0.15743
# Poissons Ratio (y) = 0.36276 0.19069
# Poissons Ratio (z) = 0.17410 0.29554
#
# Static dielectric constant tensor:
#      x y z
#    x 3.356740 0.000000 0.000000 
#    y 0.000000 3.224970 0.000000 
#    z 0.000000 0.000000 3.443840 
# 
# 
# High freq. dielectric constant tensor:
#      x y z
#    x 1.708410 0.000000 0.000000 
#    y 0.000000 1.706350 0.000000 
#    z 0.000000 0.000000 1.721480 
# 
# From -- ./inp_files/16835.got.cif
#   From: 2010.03.12/outbox.cif.g09.slc.cpg/sg65_9_cif.got.tgz:16835.got - 2010.04.10 20:52:16.
