data_PCOD8268955
_publ_section_title
;
Structure prediction by ZEFSAII (Michael W. Deem and Ramdas Pophale) SiO2 
 PCOD8268955
Probable space group: C M M M
;
_chemical_formula_sum "Si O2"
_cell_formula_units_Z 80
_cell_length_a 8.666441
_cell_length_b 18.561804
_cell_length_c 25.764316
_cell_angle_alpha 90.000000
_cell_angle_beta 90.000000
_cell_angle_gamma 90.000000
_cell_volume 4144.571005
_symmetry_space_group_name_H-M "C M M M"
_symmetry_group_IT_number 65
_symmetry_cell_setting 'orthorhombic'
loop_
_space_group_symop_operation_xyz
x,y,z
-x,-y,z
x,-y,-z
-x,y,-z
-x,-y,-z
x,y,-z
-x,y,z
x,-y,z
1/2+x,1/2+y,z
1/2-x,1/2-y,z
1/2+x,1/2-y,-z
1/2-x,1/2+y,-z
1/2-x,1/2-y,-z
1/2+x,1/2+y,-z
1/2-x,1/2+y,z
1/2+x,1/2-y,z
loop_
_atom_site_type_symbol
_atom_site_label
_atom_site_fract_x
_atom_site_fract_y
_atom_site_fract_z
Si Si1 0.183452 0.670515 0.500000
Si Si2 0.816996 0.327688 0.695518
Si Si3 0.325959 0.414276 0.000000
Si Si4 0.818756 0.173017 0.195580
Si Si5 0.675452 0.914597 0.105748
Si Si6 0.183339 0.580822 0.598245
O O1 0.250000 0.750000 0.500000
O O2 0.245852 0.627997 0.550332
O O3 0.000000 0.675185 0.500000
O O4 0.750000 0.250000 0.681116
O O5 0.754012 0.355167 0.750679
O O6 0.760679 0.383654 0.651948
O O7 0.000000 0.322172 0.698157
O O8 0.237798 0.385234 0.050756
O O9 0.326153 0.500000 0.000000
O O10 0.500000 0.384108 0.000000
O O11 0.750000 0.250000 0.179703
O O12 0.781242 0.115984 0.151202
O O13 0.000000 0.180746 0.202887
O O14 0.500000 0.888261 0.112752
O O15 0.687569 0.000000 0.107991
O O16 0.251286 0.500000 0.594685
O O17 0.000000 0.578070 0.596073
#
# Coordination Sequence:
#
# PCOD8268955 Si02
#       6
#     8  16   8  16  16  16
#     4  10  19  33  55  79 105 138 176 216 258 310
#     4  10  19  33  53  75 101 135 174 215 261 316
#     4   9  17  31  52  79 110 143 180 221 265 315
#     4  11  22  37  56  78 107 141 179 222 270 322
#     4  10  20  35  56  81 109 142 180 221 267 320
#     4   9  18  32  52  78 105 135 174 218 261 307
#
# _framework density 19.30236
#
# number of rings (size 3 to 8) (size 9 to 14) (size 15 to 20)
#    0.000    2.100    0.000    5.400    0.000    4.400 
#    0.000    3.500    0.000    5.400    0.000    0.000 
#    0.000    0.000    0.000    0.000    0.000    0.000 
#
# Total GULP energy -496087.182473 kJ/mol
# GULP energy per Si atom -12402.179562 kJ/mol
# Density = 1.925843 g / cm^3
# Si number density = 19.302360 Si / 1000 Ang^3
#
#
#
# Elastic Constant Matrix: (Units=GPa)
#
#
# Indices 1 2 3 4 5 6 
#
# 1 89.0694 27.1136 41.3010 0.0000 0.0000 0.0000
# 2 27.1136 97.2346 76.1562 0.0000 0.0000 0.0000
# 3 41.3010 76.1562 165.7563 0.0000 0.0000 0.0000
# 4 0.0000 0.0000 0.0000 30.8356 0.0000 0.0000
# 5 0.0000 0.0000 0.0000 0.0000 21.2301 0.0000
# 6 0.0000 0.0000 0.0000 0.0000 0.0000 27.3857
#
#
#
# Elastic Compliance Matrix: (Units=1/GPa)
#
#
# Indices 1 2 3 4 5 6 
#
# 1 0.012868 -0.001682 -0.002433 0.000000 0.000000 0.000000
# 2 -0.001682 0.016286 -0.007063 0.000000 0.000000 0.000000
# 3 -0.002433 -0.007063 0.009884 0.000000 0.000000 0.000000
# 4 0.000000 0.000000 0.000000 0.032430 0.000000 0.000000
# 5 0.000000 0.000000 0.000000 0.000000 0.047103 0.000000
# 6 0.000000 0.000000 0.000000 0.000000 0.000000 0.036515
#
#
# Mechanical properties :
#
#
# Convention : Reuss Voigt Hill
#
# Bulk Modulus (GPa) = 59.95180 71.24465 65.59822
# Shear Modulus (GPa) = 27.32190 29.72292 28.52241
#
# Velocity S-wave (km/s) = 3.76635 3.92836 3.84821
# Velocity P-wave (km/s) = 7.07394 7.58722 7.33507
#
# Compressibility (1/GPa) = 0.01668007
#
# Stress axis : x y z
#
# Youngs Moduli (GPa) = 77.71460 61.40419 101.16967
#
# Poissons Ratio (x) = 0.10330 0.24617
# Poissons Ratio (y) = 0.13074 0.71458
# Poissons Ratio (z) = 0.18910 0.43371
#
# Static dielectric constant tensor:
#      x y z
#    x 3.459950 0.000000 0.000000 
#    y 0.000000 3.402900 0.000000 
#    z 0.000000 0.000000 3.767420 
# 
# 
# High freq. dielectric constant tensor:
#      x y z
#    x 1.743200 0.000000 0.000000 
#    y 0.000000 1.736310 0.000000 
#    z 0.000000 0.000000 1.768560 
# 
# From -- ./inp_files/72902.got.cif
#   From: 2010.03.12/outbox.cif.g09.slc.cpg/sg65_37_cif.got.tgz:72902.got - 2010.04.10 20:52:16.
