data_PCOD8268998
_publ_section_title
;
Structure prediction by ZEFSAII (Michael W. Deem and Ramdas Pophale) SiO2 
 PCOD8268998
Probable space group: C M M M
;
_chemical_formula_sum "Si O2"
_cell_formula_units_Z 88
_cell_length_a 16.230185
_cell_length_b 26.468682
_cell_length_c 11.875863
_cell_angle_alpha 90.000000
_cell_angle_beta 90.000000
_cell_angle_gamma 90.000000
_cell_volume 5101.771054
_symmetry_space_group_name_H-M "C M M M"
_symmetry_group_IT_number 65
_symmetry_cell_setting 'orthorhombic'
loop_
_space_group_symop_operation_xyz
x,y,z
-x,-y,z
x,-y,-z
-x,y,-z
-x,-y,-z
x,y,-z
-x,y,z
x,-y,z
1/2+x,1/2+y,z
1/2-x,1/2-y,z
1/2+x,1/2-y,-z
1/2-x,1/2+y,-z
1/2-x,1/2-y,-z
1/2+x,1/2+y,-z
1/2-x,1/2+y,z
1/2+x,1/2-y,z
loop_
_atom_site_type_symbol
_atom_site_label
_atom_site_fract_x
_atom_site_fract_y
_atom_site_fract_z
Si Si1 0.768159 0.138970 0.372438
Si Si2 0.676035 0.211845 0.788962
Si Si3 0.091909 0.782616 0.623376
Si Si4 0.500000 0.439768 0.873668
Si Si5 0.325282 0.558383 0.787056
Si Si6 0.099261 0.345086 0.000000
Si Si7 0.710579 0.058496 0.000000
O O1 0.734711 0.133751 0.500000
O O2 0.703203 0.168148 0.295955
O O3 0.853478 0.168114 0.366517
O O4 0.785293 0.083933 0.321992
O O5 0.750000 0.250000 0.825239
O O6 0.608006 0.243081 0.721812
O O7 0.632804 0.186043 0.894268
O O8 0.107330 0.757161 0.500000
O O9 0.000000 0.802606 0.635690
O O10 0.500000 0.500000 0.880097
O O11 0.582611 0.420478 0.811337
O O12 0.500000 0.417530 0.000000
O O13 0.329649 0.500000 0.758311
O O14 0.267485 0.569610 0.893201
O O15 0.133724 0.402645 0.000000
O O16 0.000000 0.347567 0.000000
O O17 0.678787 0.000000 0.000000
#
# Coordination Sequence:
#
# PCOD8268998 Si02
#       7
#    16  16  16   8  16   8   8
#     4  10  20  33  52  76 103 138 182 218 257 310
#     4  10  20  36  55  76 105 139 174 214 261 316
#     4   9  18  33  52  74 103 139 176 214 254 303
#     4   9  16  28  49  75 101 137 178 217 253 303
#     4  10  19  33  53  77 108 140 179 220 263 312
#     4  12  23  36  57  84 110 133 167 220 279 321
#     4  10  20  37  58  79 103 140 179 215 265 325
#
# _framework density 17.248912000000001
#
# number of rings (size 3 to 8) (size 9 to 14) (size 15 to 20)
#    0.000    2.091    2.727    1.364    1.273    2.727 
#    0.000    0.000    0.000    1.636    0.000    0.000 
#    0.000    2.909    0.000    0.000    0.000    0.000 
#
# Total GULP energy -545399.366073 kJ/mol
# GULP energy per Si atom -12395.440138 kJ/mol
# Density = 1.720965 g / cm^3
# Si number density = 17.248912 Si / 1000 Ang^3
#
#
#
# Elastic Constant Matrix: (Units=GPa)
#
#
# Indices 1 2 3 4 5 6 
#
# 1 88.4539 35.0261 47.5280 0.0000 0.0000 0.0000
# 2 35.0261 74.0226 55.2443 0.0000 0.0000 0.0000
# 3 47.5280 55.2443 127.7685 0.0000 0.0000 0.0000
# 4 0.0000 0.0000 0.0000 20.3931 0.0000 0.0000
# 5 0.0000 0.0000 0.0000 0.0000 10.6204 0.0000
# 6 0.0000 0.0000 0.0000 0.0000 0.0000 17.6822
#
#
#
# Elastic Compliance Matrix: (Units=1/GPa)
#
#
# Indices 1 2 3 4 5 6 
#
# 1 0.015016 -0.004336 -0.003711 0.000000 0.000000 0.000000
# 2 -0.004336 0.021198 -0.007553 0.000000 0.000000 0.000000
# 3 -0.003711 -0.007553 0.012473 0.000000 0.000000 0.000000
# 4 0.000000 0.000000 0.000000 0.049036 0.000000 0.000000
# 5 0.000000 0.000000 0.000000 0.000000 0.094158 0.000000
# 6 0.000000 0.000000 0.000000 0.000000 0.000000 0.056554
#
#
# Mechanical properties :
#
#
# Convention : Reuss Voigt Hill
#
# Bulk Modulus (GPa) = 57.18307 62.87133 60.02720
# Shear Modulus (GPa) = 17.51542 19.90226 18.70884
#
# Velocity S-wave (km/s) = 3.19007 3.40049 3.29696
# Velocity P-wave (km/s) = 6.84050 7.20738 7.02633
#
# Compressibility (1/GPa) = 0.01748769
#
# Stress axis : x y z
#
# Youngs Moduli (GPa) = 66.59443 47.17529 80.17500
#
# Poissons Ratio (x) = 0.20454 0.29754
# Poissons Ratio (y) = 0.28873 0.60552
# Poissons Ratio (z) = 0.24714 0.35629
#
# Static dielectric constant tensor:
#      x y z
#    x 3.195080 0.000000 0.000000 
#    y 0.000000 3.098830 0.000000 
#    z 0.000000 0.000000 3.415460 
# 
# 
# High freq. dielectric constant tensor:
#      x y z
#    x 1.658320 0.000000 0.000000 
#    y 0.000000 1.654170 0.000000 
#    z 0.000000 0.000000 1.673350 
# 
# From -- ./inp_files/25237.got.cif
#   From: 2010.03.12/outbox.cif.g09.slc.cpg/sg65_13_cif.got.tgz:25237.got - 2010.04.10 20:52:16.
