data_PCOD8268940
_publ_section_title
;
Structure prediction by ZEFSAII (Michael W. Deem and Ramdas Pophale) SiO2 
 PCOD8268940
Probable space group: C M M M
;
_chemical_formula_sum "Si O2"
_cell_formula_units_Z 96
_cell_length_a 8.733309
_cell_length_b 19.132669
_cell_length_c 30.722354
_cell_angle_alpha 90.000000
_cell_angle_beta 90.000000
_cell_angle_gamma 90.000000
_cell_volume 5133.444532
_symmetry_space_group_name_H-M "C M M M"
_symmetry_group_IT_number 65
_symmetry_cell_setting 'orthorhombic'
loop_
_space_group_symop_operation_xyz
x,y,z
-x,-y,z
x,-y,-z
-x,y,-z
-x,-y,-z
x,y,-z
-x,y,z
x,-y,z
1/2+x,1/2+y,z
1/2-x,1/2-y,z
1/2+x,1/2-y,-z
1/2-x,1/2+y,-z
1/2-x,1/2-y,-z
1/2+x,1/2+y,-z
1/2-x,1/2+y,z
1/2+x,1/2-y,z
loop_
_atom_site_type_symbol
_atom_site_label
_atom_site_fract_x
_atom_site_fract_y
_atom_site_fract_z
Si Si1 0.174647 0.417495 0.365659
Si Si2 0.181983 0.421926 0.875105
Si Si3 0.180980 0.676483 0.049003
Si Si4 0.680191 0.675994 0.294760
Si Si5 0.817967 0.324678 0.203076
Si Si6 0.172147 0.082975 0.452390
O O1 0.201107 0.500000 0.361954
O O2 0.284510 0.381563 0.330894
O O3 0.217843 0.389781 0.413987
O O4 0.000000 0.396741 0.356223
O O5 0.251412 0.500000 0.874170
O O6 0.242596 0.383161 0.918488
O O7 0.237754 0.380865 0.832361
O O8 0.000000 0.425070 0.875933
O O9 0.250000 0.750000 0.063991
O O10 0.000000 0.683303 0.052037
O O11 0.233658 0.657119 0.000000
O O12 0.500000 0.684347 0.288589
O O13 0.750000 0.750000 0.309425
O O14 0.754098 0.650614 0.249538
O O15 0.750000 0.250000 0.189620
O O16 0.000000 0.318963 0.205369
O O17 0.229288 0.110036 0.500000
O O18 0.000000 0.110172 0.443617
O O19 0.172905 0.000000 0.452739
#
# Coordination Sequence:
#
# PCOD8268940 Si02
#       6
#    16  16  16  16  16  16
#     4  10  20  33  51  77 107 137 171 211 255 303
#     4   9  18  31  48  73 102 130 162 203 250 295
#     4   9  17  30  50  74  99 130 168 207 245 289
#     4  11  22  37  56  76 101 132 169 211 256 308
#     4  10  19  33  53  73  95 126 164 204 247 297
#     4   8  14  26  45  70 101 136 173 212 253 297
#
# _framework density 18.700893000000001
#
# number of rings (size 3 to 8) (size 9 to 14) (size 15 to 20)
#    0.000    2.500    0.000    4.500    0.000    2.333 
#    0.000    5.833    0.000    4.500    0.000    2.333 
#    0.000    0.000    0.000    0.000    0.000    0.000 
#
# Total GULP energy -595119.616136 kJ/mol
# GULP energy per Si atom -12398.325336 kJ/mol
# Density = 1.865833 g / cm^3
# Si number density = 18.700893 Si / 1000 Ang^3
#
#
#
# Elastic Constant Matrix: (Units=GPa)
#
#
# Indices 1 2 3 4 5 6 
#
# 1 69.6199 27.9903 36.5959 0.0000 0.0000 0.0000
# 2 27.9903 97.0321 78.3075 0.0000 0.0000 0.0000
# 3 36.5959 78.3075 146.4385 0.0000 0.0000 0.0000
# 4 0.0000 0.0000 0.0000 25.0575 0.0000 0.0000
# 5 0.0000 0.0000 0.0000 0.0000 24.7069 0.0000
# 6 0.0000 0.0000 0.0000 0.0000 0.0000 23.6562
#
#
#
# Elastic Compliance Matrix: (Units=1/GPa)
#
#
# Indices 1 2 3 4 5 6 
#
# 1 0.016895 -0.002579 -0.002843 0.000000 0.000000 0.000000
# 2 -0.002579 0.018524 -0.009261 0.000000 0.000000 0.000000
# 3 -0.002843 -0.009261 0.012491 0.000000 0.000000 0.000000
# 4 0.000000 0.000000 0.000000 0.039908 0.000000 0.000000
# 5 0.000000 0.000000 0.000000 0.000000 0.040475 0.000000
# 6 0.000000 0.000000 0.000000 0.000000 0.000000 0.042272
#
#
# Mechanical properties :
#
#
# Convention : Reuss Voigt Hill
#
# Bulk Modulus (GPa) = 53.92571 66.54199 60.23385
# Shear Modulus (GPa) = 24.25856 26.03058 25.14457
#
# Velocity S-wave (km/s) = 3.60556 3.73492 3.67081
# Velocity P-wave (km/s) = 6.79940 7.36607 7.08840
#
# Compressibility (1/GPa) = 0.01854403
#
# Stress axis : x y z
#
# Youngs Moduli (GPa) = 59.18882 53.98488 80.05446
#
# Poissons Ratio (x) = 0.13924 0.22759
# Poissons Ratio (y) = 0.15267 0.74138
# Poissons Ratio (z) = 0.16827 0.49995
#
# Static dielectric constant tensor:
#      x y z
#    x 3.312600 0.000000 0.000000 
#    y 0.000000 3.343400 0.000000 
#    z 0.000000 0.000000 3.778430 
# 
# 
# High freq. dielectric constant tensor:
#      x y z
#    x 1.713440 0.000000 0.000000 
#    y 0.000000 1.700440 0.000000 
#    z 0.000000 0.000000 1.742750 
# 
# From -- ./inp_files/73198.got.cif
#   From: 2010.03.12/outbox.cif.g09.slc.cpg/sg65_37_cif.got.tgz:73198.got - 2010.04.10 20:52:16.
