data_PCOD8268150
_publ_section_title
;
Structure prediction by ZEFSAII (Michael W. Deem and Ramdas Pophale) SiO2 
 PCOD8268150
Probable space group: C M M M
;
_chemical_formula_sum "Si O2"
_cell_formula_units_Z 88
_cell_length_a 18.348813
_cell_length_b 9.065329
_cell_length_c 28.818408
_cell_angle_alpha 90.000000
_cell_angle_beta 90.000000
_cell_angle_gamma 90.000000
_cell_volume 4793.597117
_symmetry_space_group_name_H-M "C M M M"
_symmetry_group_IT_number 65
_symmetry_cell_setting 'orthorhombic'
loop_
_space_group_symop_operation_xyz
x,y,z
-x,-y,z
x,-y,-z
-x,y,-z
-x,-y,-z
x,y,-z
-x,y,z
x,-y,z
1/2+x,1/2+y,z
1/2-x,1/2-y,z
1/2+x,1/2-y,-z
1/2-x,1/2+y,-z
1/2-x,1/2-y,-z
1/2+x,1/2+y,-z
1/2-x,1/2+y,z
1/2+x,1/2-y,z
loop_
_atom_site_type_symbol
_atom_site_label
_atom_site_fract_x
_atom_site_fract_y
_atom_site_fract_z
Si Si1 0.081927 0.324657 0.500000
Si Si2 0.413812 0.332547 0.771223
Si Si3 0.584204 0.171385 0.678925
Si Si4 0.826130 0.670993 0.951030
Si Si5 0.828179 0.674141 0.149609
Si Si6 0.327638 0.174344 0.588315
O O1 0.077890 0.500000 0.500000
O O2 0.124260 0.267643 0.545372
O O3 0.000000 0.259239 0.500000
O O4 0.500000 0.323668 0.774410
O O5 0.385401 0.500000 0.774341
O O6 0.386990 0.264175 0.722685
O O7 0.383298 0.237945 0.813268
O O8 0.500000 0.205639 0.667726
O O9 0.631313 0.221841 0.635075
O O10 0.595361 0.000000 0.690428
O O11 0.808119 0.500000 0.950163
O O12 0.750000 0.750000 0.952679
O O13 0.863730 0.710889 0.901638
O O14 0.869275 0.709613 0.000000
O O15 0.819211 0.500000 0.157478
O O16 0.750000 0.750000 0.155353
O O17 0.250000 0.250000 0.586424
O O18 0.316829 0.000000 0.585662
#
# Coordination Sequence:
#
# PCOD8268150 Si02
#       6
#     8  16  16  16  16  16
#     4   9  17  32  55  79 102 133 174 210 238 279
#     4  10  21  36  53  73  99 132 169 210 255 302
#     4   9  18  34  54  73  94 126 170 210 244 291
#     4   8  14  25  42  66  95 125 158 197 242 292
#     4  10  19  31  50  75 102 131 164 205 251 299
#     4  10  20  33  52  78 106 134 163 202 250 295
#
# _framework density 18.357821000000001
#
# number of rings (size 3 to 8) (size 9 to 14) (size 15 to 20)
#    0.000    2.636    0.000    1.909    0.000    5.455 
#    0.000    1.818    0.000    2.727    0.000    3.818 
#    0.000    0.000    0.000    0.000    0.000    0.000 
#
# Total GULP energy -545221.898634 kJ/mol
# GULP energy per Si atom -12391.406787 kJ/mol
# Density = 1.831604 g / cm^3
# Si number density = 18.357821 Si / 1000 Ang^3
#
#
#
# Elastic Constant Matrix: (Units=GPa)
#
#
# Indices 1 2 3 4 5 6 
#
# 1 72.1360 30.3183 68.0164 0.0000 0.0000 0.0000
# 2 30.3183 64.4413 62.1160 0.0000 0.0000 0.0000
# 3 68.0164 62.1160 202.4789 0.0000 0.0000 0.0000
# 4 0.0000 0.0000 0.0000 20.1282 0.0000 0.0000
# 5 0.0000 0.0000 0.0000 0.0000 23.3641 0.0000
# 6 0.0000 0.0000 0.0000 0.0000 0.0000 27.5402
#
#
#
# Elastic Compliance Matrix: (Units=1/GPa)
#
#
# Indices 1 2 3 4 5 6 
#
# 1 0.021133 -0.004401 -0.005749 0.000000 0.000000 0.000000
# 2 -0.004401 0.022950 -0.005562 0.000000 0.000000 0.000000
# 3 -0.005749 -0.005562 0.008576 0.000000 0.000000 0.000000
# 4 0.000000 0.000000 0.000000 0.049682 0.000000 0.000000
# 5 0.000000 0.000000 0.000000 0.000000 0.042801 0.000000
# 6 0.000000 0.000000 0.000000 0.000000 0.000000 0.036311
#
#
# Mechanical properties :
#
#
# Convention : Reuss Voigt Hill
#
# Bulk Modulus (GPa) = 47.09207 73.32863 60.21035
# Shear Modulus (GPa) = 22.73192 26.11351 24.42272
#
# Velocity S-wave (km/s) = 3.52272 3.77566 3.65138
# Velocity P-wave (km/s) = 6.50032 7.68364 7.11661
#
# Compressibility (1/GPa) = 0.02123500
#
# Stress axis : x y z
#
# Youngs Moduli (GPa) = 47.31933 43.57278 116.60148
#
# Poissons Ratio (x) = 0.19178 0.67031
# Poissons Ratio (y) = 0.20827 0.64855
# Poissons Ratio (z) = 0.27203 0.24236
#
# Static dielectric constant tensor:
#      x y z
#    x 3.069090 0.000000 0.000000 
#    y 0.000000 3.341980 0.000000 
#    z 0.000000 0.000000 4.013810 
# 
# 
# High freq. dielectric constant tensor:
#      x y z
#    x 1.678800 0.000000 0.000000 
#    y 0.000000 1.704480 0.000000 
#    z 0.000000 0.000000 1.741450 
# 
# From -- ./inp_files/76701.got.cif
#   From: 2010.03.12/outbox.cif.g09.slc.cpg/sg65_39_cif.got.tgz:76701.got - 2010.04.10 20:52:16.
