data_PCOD8268474
_publ_section_title
;
Structure prediction by ZEFSAII (Michael W. Deem and Ramdas Pophale) SiO2 
 PCOD8268474
Probable space group: C M M M
;
_chemical_formula_sum "Si O2"
_cell_formula_units_Z 96
_cell_length_a 17.887001
_cell_length_b 14.380386
_cell_length_c 18.697972
_cell_angle_alpha 90.000000
_cell_angle_beta 90.000000
_cell_angle_gamma 90.000000
_cell_volume 4809.529357
_symmetry_space_group_name_H-M "C M M M"
_symmetry_group_IT_number 65
_symmetry_cell_setting 'orthorhombic'
loop_
_space_group_symop_operation_xyz
x,y,z
-x,-y,z
x,-y,-z
-x,y,-z
-x,-y,-z
x,y,-z
-x,y,z
x,-y,z
1/2+x,1/2+y,z
1/2-x,1/2-y,z
1/2+x,1/2-y,-z
1/2-x,1/2+y,-z
1/2-x,1/2-y,-z
1/2+x,1/2+y,-z
1/2-x,1/2+y,z
1/2+x,1/2-y,z
loop_
_atom_site_type_symbol
_atom_site_label
_atom_site_fract_x
_atom_site_fract_y
_atom_site_fract_z
Si Si1 0.635017 0.102993 0.837426
Si Si2 0.680128 0.899365 0.681157
Si Si3 0.661060 0.742881 0.579393
Si Si4 0.215003 0.893037 0.081044
Si Si5 0.583465 0.300323 0.160146
Si Si6 0.150039 0.109694 0.301136
O O1 0.632663 0.093857 0.752538
O O2 0.716135 0.132723 0.867799
O O3 0.579775 0.188521 0.852636
O O4 0.611497 0.000000 0.869118
O O5 0.637550 0.832169 0.626091
O O6 0.762413 0.867871 0.706796
O O7 0.685751 0.000000 0.643179
O O8 0.625186 0.744355 0.500000
O O9 0.750000 0.750000 0.572654
O O10 0.629781 0.650962 0.620258
O O11 0.140203 0.839457 0.101935
O O12 0.194687 0.000000 0.090228
O O13 0.237286 0.867437 0.000000
O O14 0.500000 0.338512 0.146211
O O15 0.608199 0.332294 0.239622
O O16 0.130457 0.000000 0.296317
#
# Coordination Sequence:
#
# PCOD8268474 Si02
#       6
#    16  16  16  16  16  16
#     4  10  20  37  61  84 110 146 192 239 282 332
#     4   9  16  29  53  79 105 142 182 233 286 329
#     4   9  17  28  47  78 111 143 179 230 294 344
#     4  10  22  40  63  90 116 147 189 235 282 335
#     4  12  24  36  56  85 118 155 192 234 285 338
#     4  10  19  32  50  75 109 146 187 229 276 337
#
# _framework density 19.960374000000002
#
# number of rings (size 3 to 8) (size 9 to 14) (size 15 to 20)
#    0.000    2.000    3.333    1.000    0.000    4.000 
#    0.000    4.167    0.000    0.500    0.000    4.667 
#    0.000    2.667    0.000    0.000    0.000    0.000 
#
# Total GULP energy -594700.268175 kJ/mol
# GULP energy per Si atom -12389.588920 kJ/mol
# Density = 1.991494 g / cm^3
# Si number density = 19.960374 Si / 1000 Ang^3
#
#
#
# Elastic Constant Matrix: (Units=GPa)
#
#
# Indices 1 2 3 4 5 6 
#
# 1 32.4333 28.6365 5.4248 0.0000 0.0000 0.0000
# 2 28.6365 116.6834 40.6566 0.0000 0.0000 0.0000
# 3 5.4248 40.6566 99.7107 0.0000 0.0000 0.0000
# 4 0.0000 0.0000 0.0000 27.3362 0.0000 0.0000
# 5 0.0000 0.0000 0.0000 0.0000 7.0833 0.0000
# 6 0.0000 0.0000 0.0000 0.0000 0.0000 11.2435
#
#
#
# Elastic Compliance Matrix: (Units=1/GPa)
#
#
# Indices 1 2 3 4 5 6 
#
# 1 0.039741 -0.010490 0.002115 0.000000 0.000000 0.000000
# 2 -0.010490 0.012759 -0.004632 0.000000 0.000000 0.000000
# 3 0.002115 -0.004632 0.011802 0.000000 0.000000 0.000000
# 4 0.000000 0.000000 0.000000 0.036582 0.000000 0.000000
# 5 0.000000 0.000000 0.000000 0.000000 0.141177 0.000000
# 6 0.000000 0.000000 0.000000 0.000000 0.000000 0.088940
#
#
# Mechanical properties :
#
#
# Convention : Reuss Voigt Hill
#
# Bulk Modulus (GPa) = 26.11733 44.25148 35.18441
# Shear Modulus (GPa) = 13.52168 20.73989 17.13078
#
# Velocity S-wave (km/s) = 2.60556 3.22693 2.93275
# Velocity P-wave (km/s) = 4.70797 6.00849 5.39754
#
# Compressibility (1/GPa) = 0.03828875
#
# Stress axis : x y z
#
# Youngs Moduli (GPa) = 25.16300 78.37902 84.72843
#
# Poissons Ratio (x) = 0.82222 -0.17922
# Poissons Ratio (y) = 0.26397 0.39242
# Poissons Ratio (z) = -0.05323 0.36301
#
# Static dielectric constant tensor:
#      x y z
#    x 3.104730 0.000000 0.000000 
#    y 0.000000 4.045650 0.000000 
#    z 0.000000 0.000000 3.743340 
# 
# 
# High freq. dielectric constant tensor:
#      x y z
#    x 1.720470 0.000000 0.000000 
#    y 0.000000 1.798120 0.000000 
#    z 0.000000 0.000000 1.771670 
# 
# From -- ./inp_files/62643.got.cif
#   From: 2010.03.12/outbox.cif.g09.slc.cpg/sg65_32_cif.got.tgz:62643.got - 2010.04.10 20:52:16.
