data_PCOD8268114
_publ_section_title
;
Structure prediction by ZEFSAII (Michael W. Deem and Ramdas Pophale) SiO2 
 PCOD8268114
Probable space group: C M M M
;
_chemical_formula_sum "Si O2"
_cell_formula_units_Z 104
_cell_length_a 9.072921
_cell_length_b 32.270792
_cell_length_c 20.766719
_cell_angle_alpha 90.000000
_cell_angle_beta 90.000000
_cell_angle_gamma 90.000000
_cell_volume 6080.294850
_symmetry_space_group_name_H-M "C M M M"
_symmetry_group_IT_number 65
_symmetry_cell_setting 'orthorhombic'
loop_
_space_group_symop_operation_xyz
x,y,z
-x,-y,z
x,-y,-z
-x,y,-z
-x,-y,-z
x,y,-z
-x,y,z
x,-y,z
1/2+x,1/2+y,z
1/2-x,1/2-y,z
1/2+x,1/2-y,-z
1/2-x,1/2+y,-z
1/2-x,1/2-y,-z
1/2+x,1/2+y,-z
1/2-x,1/2+y,z
1/2+x,1/2-y,z
loop_
_atom_site_type_symbol
_atom_site_label
_atom_site_fract_x
_atom_site_fract_y
_atom_site_fract_z
Si Si1 0.326422 0.500000 0.135422
Si Si2 0.675921 0.500000 0.282652
Si Si3 0.828985 0.207021 0.246022
Si Si4 0.173372 0.205699 0.500000
Si Si5 0.827921 0.842750 0.372827
Si Si6 0.831970 0.635409 0.814263
Si Si7 0.168537 0.575956 0.926570
Si Si8 0.172844 0.583357 0.310207
O O1 0.500000 0.500000 0.135337
O O2 0.268414 0.500000 0.208687
O O3 0.272948 0.460130 0.097372
O O4 0.500000 0.500000 0.288512
O O5 0.741511 0.459822 0.318208
O O6 0.750000 0.250000 0.235449
O O7 0.790822 0.189576 0.316415
O O8 0.772841 0.174909 0.192396
O O9 0.000000 0.214132 0.235849
O O10 0.250000 0.250000 0.500000
O O11 0.222802 0.179160 0.438348
O O12 0.000000 0.213911 0.500000
O O13 0.734505 0.884649 0.363460
O O14 0.000000 0.854551 0.373324
O O15 0.802823 0.616962 0.884743
O O16 0.793034 0.600721 0.761036
O O17 0.000000 0.649997 0.805047
O O18 0.000000 0.560951 0.918663
O O19 0.206013 0.587209 0.000000
O O20 0.000000 0.576345 0.321893
#
# Coordination Sequence:
#
# PCOD8268114 Si02
#       8
#     8   8  16   8  16  16  16  16
#     4  11  22  32  47  72 103 135 167 206 249 296
#     4  11  21  32  50  74 103 136 169 210 256 299
#     4  10  19  31  50  74 100 128 161 203 248 295
#     4  10  20  34  54  79 110 145 174 204 245 296
#     4   9  19  34  51  75 107 139 169 202 246 299
#     4   9  18  32  49  70  96 126 163 205 250 299
#     4  10  20  34  51  70  97 134 170 205 249 301
#     4  10  19  32  52  75  99 132 171 213 254 295
#
# _framework density 17.104433
#
# number of rings (size 3 to 8) (size 9 to 14) (size 15 to 20)
#    0.000    2.154    1.538    2.077    0.000    4.308 
#    0.000    0.000    0.000    0.923    0.000    3.231 
#    0.000    0.000    0.000    0.000    0.000    0.000 
#
# Total GULP energy -644978.654453 kJ/mol
# GULP energy per Si atom -12403.435663 kJ/mol
# Density = 1.706550 g / cm^3
# Si number density = 17.104433 Si / 1000 Ang^3
#
#
#
# Elastic Constant Matrix: (Units=GPa)
#
#
# Indices 1 2 3 4 5 6 
#
# 1 75.4434 66.3302 35.9941 0.0000 0.0000 0.0000
# 2 66.3302 139.6278 56.5853 0.0000 0.0000 0.0000
# 3 35.9941 56.5853 95.4180 0.0000 0.0000 0.0000
# 4 0.0000 0.0000 0.0000 22.5706 0.0000 0.0000
# 5 0.0000 0.0000 0.0000 0.0000 21.4662 0.0000
# 6 0.0000 0.0000 0.0000 0.0000 0.0000 33.5724
#
#
#
# Elastic Compliance Matrix: (Units=1/GPa)
#
#
# Indices 1 2 3 4 5 6 
#
# 1 0.023371 -0.009912 -0.002938 0.000000 0.000000 0.000000
# 2 -0.009912 0.013631 -0.004345 0.000000 0.000000 0.000000
# 3 -0.002938 -0.004345 0.014165 0.000000 0.000000 0.000000
# 4 0.000000 0.000000 0.000000 0.044305 0.000000 0.000000
# 5 0.000000 0.000000 0.000000 0.000000 0.046585 0.000000
# 6 0.000000 0.000000 0.000000 0.000000 0.000000 0.029786
#
#
# Mechanical properties :
#
#
# Convention : Reuss Voigt Hill
#
# Bulk Modulus (GPa) = 59.60149 69.81202 64.70675
# Shear Modulus (GPa) = 23.60422 25.62716 24.61569
#
# Velocity S-wave (km/s) = 3.71887 3.87496 3.79772
# Velocity P-wave (km/s) = 7.30488 7.80539 7.55928
#
# Compressibility (1/GPa) = 0.01677810
#
# Stress axis : x y z
#
# Youngs Moduli (GPa) = 42.78749 73.36112 70.59596
#
# Poissons Ratio (x) = 0.72714 0.20743
# Poissons Ratio (y) = 0.42410 0.30672
# Poissons Ratio (z) = 0.12572 0.31873
#
# Static dielectric constant tensor:
#      x y z
#    x 3.217630 0.000000 0.000000 
#    y 0.000000 3.152130 0.000000 
#    z 0.000000 0.000000 3.157900 
# 
# 
# High freq. dielectric constant tensor:
#      x y z
#    x 1.666420 0.000000 0.000000 
#    y 0.000000 1.658610 0.000000 
#    z 0.000000 0.000000 1.640440 
# 
# From -- ./inp_files/60940.got.cif
#   From: 2010.03.12/outbox.cif.g09.slc.cpg/sg65_31_cif.got.tgz:60940.got - 2010.04.10 20:52:16.
