data_PCOD8268021
_publ_section_title
;
Structure prediction by ZEFSAII (Michael W. Deem and Ramdas Pophale) SiO2 
 PCOD8268021
Probable space group: C M M M
;
_chemical_formula_sum "Si O2"
_cell_formula_units_Z 104
_cell_length_a 19.044275
_cell_length_b 9.153962
_cell_length_c 33.252265
_cell_angle_alpha 90.000000
_cell_angle_beta 90.000000
_cell_angle_gamma 90.000000
_cell_volume 5796.886300
_symmetry_space_group_name_H-M "C M M M"
_symmetry_group_IT_number 65
_symmetry_cell_setting 'orthorhombic'
loop_
_space_group_symop_operation_xyz
x,y,z
-x,-y,z
x,-y,-z
-x,y,-z
-x,-y,-z
x,y,-z
-x,y,z
x,-y,z
1/2+x,1/2+y,z
1/2-x,1/2-y,z
1/2+x,1/2-y,-z
1/2-x,1/2+y,-z
1/2-x,1/2-y,-z
1/2+x,1/2+y,-z
1/2-x,1/2+y,z
1/2+x,1/2-y,z
loop_
_atom_site_type_symbol
_atom_site_label
_atom_site_fract_x
_atom_site_fract_y
_atom_site_fract_z
Si Si1 0.674871 0.173788 0.574449
Si Si2 0.582540 0.165150 0.263763
Si Si3 0.578006 0.673313 0.044100
Si Si4 0.677933 0.329524 0.796534
Si Si5 0.921996 0.326859 0.646168
Si Si6 0.178654 0.170979 0.112438
Si Si7 0.420256 0.827210 0.500000
O O1 0.750000 0.250000 0.569982
O O2 0.636948 0.229555 0.615210
O O3 0.623328 0.225339 0.538782
O O4 0.686388 0.000000 0.573950
O O5 0.500000 0.171391 0.256775
O O6 0.617372 0.274427 0.232560
O O7 0.600924 0.219213 0.308890
O O8 0.610098 0.000000 0.256928
O O9 0.500000 0.737959 0.048802
O O10 0.575267 0.500000 0.047516
O O11 0.623489 0.737358 0.080657
O O12 0.608390 0.718152 0.000000
O O13 0.689790 0.500000 0.789811
O O14 0.750000 0.250000 0.785643
O O15 0.653871 0.294639 0.842156
O O16 0.927349 0.500000 0.643525
O O17 0.000000 0.263451 0.635909
O O18 0.250000 0.250000 0.102280
O O19 0.190151 0.000000 0.106116
O O20 0.500000 0.761635 0.500000
O O21 0.426612 0.000000 0.500000
#
# Coordination Sequence:
#
# PCOD8268021 Si02
#       7
#    16  16  16  16  16  16   8
#     4  10  19  31  49  73 100 126 155 194 236 278
#     4   9  18  33  52  73  97 125 159 199 242 288
#     4   8  14  26  45  68  92 118 150 187 225 268
#     4  10  20  33  49  69  96 128 161 199 241 285
#     4   8  15  30  51  71  92 123 161 196 230 273
#     4   9  18  31  47  68  93 121 153 190 231 275
#     4   9  17  30  51  75  94 121 164 202 228 267
#
# _framework density 17.940666
#
# number of rings (size 3 to 8) (size 9 to 14) (size 15 to 20)
#    0.000    3.000    0.000    2.538    0.000    4.308 
#    0.000    3.846    0.000    3.692    0.000    1.077 
#    0.000    0.000    0.000    0.000    0.000    0.000 
#
# Total GULP energy -644547.998227 kJ/mol
# GULP energy per Si atom -12395.153812 kJ/mol
# Density = 1.789983 g / cm^3
# Si number density = 17.940666 Si / 1000 Ang^3
#
#
#
# Elastic Constant Matrix: (Units=GPa)
#
#
# Indices 1 2 3 4 5 6 
#
# 1 121.0488 33.8781 92.4731 0.0000 0.0000 0.0000
# 2 33.8781 34.1503 34.5595 0.0000 0.0000 0.0000
# 3 92.4731 34.5595 147.9364 0.0000 0.0000 0.0000
# 4 0.0000 0.0000 0.0000 16.0426 0.0000 0.0000
# 5 0.0000 0.0000 0.0000 0.0000 32.1141 0.0000
# 6 0.0000 0.0000 0.0000 0.0000 0.0000 26.9445
#
#
#
# Elastic Compliance Matrix: (Units=1/GPa)
#
#
# Indices 1 2 3 4 5 6 
#
# 1 0.017401 -0.008192 -0.008964 0.000000 0.000000 0.000000
# 2 -0.008192 0.042204 -0.004739 0.000000 0.000000 0.000000
# 3 -0.008964 -0.004739 0.013470 0.000000 0.000000 0.000000
# 4 0.000000 0.000000 0.000000 0.062334 0.000000 0.000000
# 5 0.000000 0.000000 0.000000 0.000000 0.031139 0.000000
# 6 0.000000 0.000000 0.000000 0.000000 0.000000 0.037113
#
#
# Mechanical properties :
#
#
# Convention : Reuss Voigt Hill
#
# Bulk Modulus (GPa) = 34.14475 69.43965 51.79220
# Shear Modulus (GPa) = 19.43915 24.50188 21.97052
#
# Velocity S-wave (km/s) = 3.29526 3.69957 3.50325
# Velocity P-wave (km/s) = 5.79238 7.55237 6.73016
#
# Compressibility (1/GPa) = 0.02928708
#
# Stress axis : x y z
#
# Youngs Moduli (GPa) = 57.46648 23.69428 74.23977
#
# Poissons Ratio (x) = 0.19409 0.66547
# Poissons Ratio (y) = 0.47074 0.35182
# Poissons Ratio (z) = 0.51512 0.11229
#
# Static dielectric constant tensor:
#      x y z
#    x 3.441440 0.000000 0.000000 
#    y 0.000000 2.928660 0.000000 
#    z 0.000000 0.000000 3.671470 
# 
# 
# High freq. dielectric constant tensor:
#      x y z
#    x 1.694070 0.000000 0.000000 
#    y 0.000000 1.650210 0.000000 
#    z 0.000000 0.000000 1.710000 
# 
# From -- ./inp_files/75491.got.cif
#   From: 2010.03.12/outbox.cif.g09.slc.cpg/sg65_38_cif.got.tgz:75491.got - 2010.04.10 20:52:16.
