data_PCOD8268304
_publ_section_title
;
Structure prediction by ZEFSAII (Michael W. Deem and Ramdas Pophale) SiO2 
 PCOD8268304
Probable space group: C M M M
;
_chemical_formula_sum "Si O2"
_cell_formula_units_Z 104
_cell_length_a 18.928046
_cell_length_b 21.002729
_cell_length_c 14.318238
_cell_angle_alpha 90.000000
_cell_angle_beta 90.000000
_cell_angle_gamma 90.000000
_cell_volume 5692.081221
_symmetry_space_group_name_H-M "C M M M"
_symmetry_group_IT_number 65
_symmetry_cell_setting 'orthorhombic'
loop_
_space_group_symop_operation_xyz
x,y,z
-x,-y,z
x,-y,-z
-x,y,-z
-x,-y,-z
x,y,-z
-x,y,z
x,-y,z
1/2+x,1/2+y,z
1/2-x,1/2-y,z
1/2+x,1/2-y,-z
1/2-x,1/2+y,-z
1/2-x,1/2-y,-z
1/2+x,1/2+y,-z
1/2-x,1/2+y,z
1/2+x,1/2-y,z
loop_
_atom_site_type_symbol
_atom_site_label
_atom_site_fract_x
_atom_site_fract_y
_atom_site_fract_z
Si Si1 0.245334 0.931245 0.894867
Si Si2 0.423303 0.703017 0.604809
Si Si3 0.314470 0.295138 0.892049
Si Si4 0.162551 0.398756 0.267702
Si Si5 0.921755 0.719042 0.779783
Si Si6 0.083724 0.500000 0.390372
Si Si7 0.768873 0.176976 0.606640
O O1 0.197825 0.869791 0.869968
O O2 0.306529 0.939444 0.817848
O O3 0.204064 0.000000 0.892826
O O4 0.276427 0.920687 0.000000
O O5 0.417440 0.730128 0.500000
O O6 0.500000 0.666361 0.617832
O O7 0.423233 0.764520 0.670198
O O8 0.352623 0.661691 0.624498
O O9 0.250000 0.250000 0.858253
O O10 0.383465 0.275492 0.835381
O O11 0.329544 0.282815 0.000000
O O12 0.116411 0.347804 0.211587
O O13 0.115154 0.438349 0.339392
O O14 0.226753 0.368553 0.325251
O O15 0.000000 0.713227 0.821904
O O16 0.104667 0.500000 0.500000
O O17 0.000000 0.500000 0.377903
O O18 0.748240 0.161810 0.500000
O O19 0.750000 0.250000 0.631241
#
# Coordination Sequence:
#
# PCOD8268304 Si02
#       7
#    16  16  16  16  16   8  16
#     4  10  21  37  59  85 110 144 192 241 289 347
#     4   9  18  31  46  73 112 147 177 218 280 344
#     4  10  20  36  59  84 113 147 184 235 298 353
#     4  12  21  36  58  82 110 154 196 246 288 343
#     4  11  22  33  53  84 115 147 185 233 291 351
#     4  11  26  44  57  77 116 164 209 246 289 347
#     4  10  19  31  52  81 110 144 190 240 286 342
#
# _framework density 18.270997000000001
#
# number of rings (size 3 to 8) (size 9 to 14) (size 15 to 20)
#    0.000    1.615    3.846    1.846    0.000    0.923 
#    0.000    1.538    0.000    2.308    0.000    2.692 
#    0.000    3.077    0.000    0.154    0.000    0.154 
#
# Total GULP energy -644312.649488 kJ/mol
# GULP energy per Si atom -12390.627875 kJ/mol
# Density = 1.822941 g / cm^3
# Si number density = 18.270997 Si / 1000 Ang^3
#
#
#
# Elastic Constant Matrix: (Units=GPa)
#
#
# Indices 1 2 3 4 5 6 
#
# 1 130.7532 50.7186 43.2846 0.0000 0.0000 0.0000
# 2 50.7186 117.5636 37.8923 0.0000 0.0000 0.0000
# 3 43.2846 37.8923 86.1484 0.0000 0.0000 0.0000
# 4 0.0000 0.0000 0.0000 20.5505 0.0000 0.0000
# 5 0.0000 0.0000 0.0000 0.0000 18.1944 0.0000
# 6 0.0000 0.0000 0.0000 0.0000 0.0000 19.8613
#
#
#
# Elastic Compliance Matrix: (Units=1/GPa)
#
#
# Indices 1 2 3 4 5 6 
#
# 1 0.010095 -0.003170 -0.003678 0.000000 0.000000 0.000000
# 2 -0.003170 0.010906 -0.003205 0.000000 0.000000 0.000000
# 3 -0.003678 -0.003205 0.014865 0.000000 0.000000 0.000000
# 4 0.000000 0.000000 0.000000 0.048661 0.000000 0.000000
# 5 0.000000 0.000000 0.000000 0.000000 0.054962 0.000000
# 6 0.000000 0.000000 0.000000 0.000000 0.000000 0.050349
#
#
# Mechanical properties :
#
#
# Convention : Reuss Voigt Hill
#
# Bulk Modulus (GPa) = 63.44256 66.47294 64.95775
# Shear Modulus (GPa) = 23.23451 25.22589 24.23020
#
# Velocity S-wave (km/s) = 3.56990 3.71974 3.64559
# Velocity P-wave (km/s) = 7.19658 7.41008 7.30411
#
# Compressibility (1/GPa) = 0.01576229
#
# Stress axis : x y z
#
# Youngs Moduli (GPa) = 99.05819 91.68962 67.27035
#
# Poissons Ratio (x) = 0.29063 0.24742
# Poissons Ratio (y) = 0.31398 0.21557
# Poissons Ratio (z) = 0.36434 0.29383
#
# Static dielectric constant tensor:
#      x y z
#    x 3.562290 0.000000 0.000000 
#    y 0.000000 3.230760 0.000000 
#    z 0.000000 0.000000 3.583130 
# 
# 
# High freq. dielectric constant tensor:
#      x y z
#    x 1.699540 0.000000 0.000000 
#    y 0.000000 1.681440 0.000000 
#    z 0.000000 0.000000 1.728990 
# 
# From -- ./inp_files/42845.got.cif
#   From: 2010.03.12/outbox.cif.g09.slc.cpg/sg65_22_cif.got.tgz:42845.got - 2010.04.10 20:52:16.
