data_PCOD8268225
_publ_section_title
;
Structure prediction by ZEFSAII (Michael W. Deem and Ramdas Pophale) SiO2 
 PCOD8268225
Probable space group: C M M M
;
_chemical_formula_sum "Si O2"
_cell_formula_units_Z 72
_cell_length_a 9.252195
_cell_length_b 18.788027
_cell_length_c 22.687927
_cell_angle_alpha 90.000000
_cell_angle_beta 90.000000
_cell_angle_gamma 90.000000
_cell_volume 3943.853455
_symmetry_space_group_name_H-M "C M M M"
_symmetry_group_IT_number 65
_symmetry_cell_setting 'orthorhombic'
loop_
_space_group_symop_operation_xyz
x,y,z
-x,-y,z
x,-y,-z
-x,y,-z
-x,-y,-z
x,y,-z
-x,y,z
x,-y,z
1/2+x,1/2+y,z
1/2-x,1/2-y,z
1/2+x,1/2-y,-z
1/2-x,1/2+y,-z
1/2-x,1/2-y,-z
1/2+x,1/2+y,-z
1/2-x,1/2+y,z
1/2+x,1/2-y,z
loop_
_atom_site_type_symbol
_atom_site_label
_atom_site_fract_x
_atom_site_fract_y
_atom_site_fract_z
Si Si1 0.672059 0.174381 0.000000
Si Si2 0.828963 0.420469 0.109318
Si Si3 0.837183 0.083845 0.433669
Si Si4 0.831519 0.321099 0.787086
Si Si5 0.331167 0.821354 0.347303
O O1 0.750000 0.250000 0.000000
O O2 0.725504 0.129565 0.943531
O O3 0.500000 0.186472 0.000000
O O4 0.761530 0.500000 0.104522
O O5 0.780331 0.385799 0.171349
O O6 0.000000 0.426757 0.105853
O O7 0.803328 0.110343 0.500000
O O8 0.722021 0.115720 0.388817
O O9 0.000000 0.106634 0.415969
O O10 0.820641 0.000000 0.430367
O O11 0.750000 0.250000 0.806742
O O12 0.794255 0.342153 0.720023
O O13 0.000000 0.305354 0.795412
O O14 0.500000 0.809286 0.356647
O O15 0.250000 0.750000 0.366273
#
# Coordination Sequence:
#
# PCOD8268225 Si02
#       5
#     8  16  16  16  16
#     4  10  19  31  51  75  97 128 166 202 242 288
#     4   9  17  30  49  73  99 127 163 204 242 284
#     4   9  19  36  55  74  99 131 164 201 249 301
#     4   9  18  32  50  71  97 129 162 200 244 289
#     4  10  20  33  51  75 101 131 167 206 248 294
#
# _framework density 18.256256
#
# number of rings (size 3 to 8) (size 9 to 14) (size 15 to 20)
#    0.000    2.667    0.000    2.333    0.000    4.444 
#    0.000    3.333    0.000    3.333    0.000    0.000 
#    0.000    0.000    0.000    0.000    0.000    0.000 
#
# Total GULP energy -446392.030009 kJ/mol
# GULP energy per Si atom -12399.778611 kJ/mol
# Density = 1.821470 g / cm^3
# Si number density = 18.256256 Si / 1000 Ang^3
#
#
#
# Elastic Constant Matrix: (Units=GPa)
#
#
# Indices 1 2 3 4 5 6 
#
# 1 54.0246 41.7743 40.8632 0.0000 0.0000 0.0000
# 2 41.7743 128.2878 73.6705 0.0000 0.0000 0.0000
# 3 40.8632 73.6705 112.9370 0.0000 0.0000 0.0000
# 4 0.0000 0.0000 0.0000 35.2463 0.0000 0.0000
# 5 0.0000 0.0000 0.0000 0.0000 20.6033 0.0000
# 6 0.0000 0.0000 0.0000 0.0000 0.0000 31.1709
#
#
#
# Elastic Compliance Matrix: (Units=1/GPa)
#
#
# Indices 1 2 3 4 5 6 
#
# 1 0.027480 -0.005178 -0.006565 0.000000 0.000000 0.000000
# 2 -0.005178 0.013440 -0.006893 0.000000 0.000000 0.000000
# 3 -0.006565 -0.006893 0.015726 0.000000 0.000000 0.000000
# 4 0.000000 0.000000 0.000000 0.028372 0.000000 0.000000
# 5 0.000000 0.000000 0.000000 0.000000 0.048536 0.000000
# 6 0.000000 0.000000 0.000000 0.000000 0.000000 0.032081
#
#
# Mechanical properties :
#
#
# Convention : Reuss Voigt Hill
#
# Bulk Modulus (GPa) = 51.61855 67.54061 59.57958
# Shear Modulus (GPa) = 23.88168 26.66686 25.27427
#
# Velocity S-wave (km/s) = 3.62074 3.82605 3.72481
# Velocity P-wave (km/s) = 6.76872 7.52293 7.15576
#
# Compressibility (1/GPa) = 0.01937288
#
# Stress axis : x y z
#
# Youngs Moduli (GPa) = 36.39047 74.40636 63.58707
#
# Poissons Ratio (x) = 0.38529 0.41745
# Poissons Ratio (y) = 0.18844 0.43833
# Poissons Ratio (z) = 0.23890 0.51291
#
# Static dielectric constant tensor:
#      x y z
#    x 3.186830 0.000000 0.000000 
#    y 0.000000 3.406250 0.000000 
#    z 0.000000 0.000000 3.536010 
# 
# 
# High freq. dielectric constant tensor:
#      x y z
#    x 1.682000 0.000000 0.000000 
#    y 0.000000 1.707440 0.000000 
#    z 0.000000 0.000000 1.719110 
# 
# From -- ./inp_files/59254.got.cif
#   From: 2010.03.12/outbox.cif.g09.slc.cpg/sg65_30_cif.got.tgz:59254.got - 2010.04.10 20:52:16.
