data_PCOD8268456
_publ_section_title
;
Structure prediction by ZEFSAII (Michael W. Deem and Ramdas Pophale) SiO2 
 PCOD8268456
Probable space group: C M M M
;
_chemical_formula_sum "Si O2"
_cell_formula_units_Z 72
_cell_length_a 27.130649
_cell_length_b 8.611075
_cell_length_c 16.232645
_cell_angle_alpha 90.000000
_cell_angle_beta 90.000000
_cell_angle_gamma 90.000000
_cell_volume 3792.336321
_symmetry_space_group_name_H-M "C M M M"
_symmetry_group_IT_number 65
_symmetry_cell_setting 'orthorhombic'
loop_
_space_group_symop_operation_xyz
x,y,z
-x,-y,z
x,-y,-z
-x,y,-z
-x,-y,-z
x,y,-z
-x,y,z
x,-y,z
1/2+x,1/2+y,z
1/2-x,1/2-y,z
1/2+x,1/2-y,-z
1/2-x,1/2+y,-z
1/2-x,1/2-y,-z
1/2+x,1/2+y,-z
1/2-x,1/2+y,z
1/2+x,1/2-y,z
loop_
_atom_site_type_symbol
_atom_site_label
_atom_site_fract_x
_atom_site_fract_y
_atom_site_fract_z
Si Si1 0.852315 0.182477 0.660938
Si Si2 0.943990 0.316695 0.744820
Si Si3 0.804581 0.682477 0.500000
Si Si4 0.897855 0.318651 0.910359
Si Si5 0.198904 0.681412 0.183036
O O1 0.908519 0.232249 0.680188
O O2 0.835334 0.265438 0.578648
O O3 0.815748 0.231614 0.733525
O O4 0.849712 0.000000 0.647857
O O5 0.932895 0.500000 0.741261
O O6 0.932986 0.253544 0.837656
O O7 0.000000 0.277303 0.721155
O O8 0.799303 0.500000 0.500000
O O9 0.750000 0.750000 0.500000
O O10 0.907601 0.500000 0.918138
O O11 0.841113 0.285269 0.887570
O O12 0.909221 0.241086 0.000000
O O13 0.203309 0.500000 0.202751
O O14 0.250000 0.750000 0.149858
#
# Coordination Sequence:
#
# PCOD8268456 Si02
#       5
#    16  16   8  16  16
#     4  11  22  37  56  80 109 140 177 218 261 311
#     4   9  18  34  56  80 107 141 179 220 269 319
#     4  12  24  40  61  86 115 142 172 211 257 309
#     4   8  15  28  47  74 106 138 176 222 267 315
#     4  10  19  32  50  73 103 141 181 220 266 318
#
# _framework density 18.985658999999998
#
# number of rings (size 3 to 8) (size 9 to 14) (size 15 to 20)
#    0.000    2.222    0.000    5.667    0.000    1.333 
#    0.000    2.778    0.000   19.333    0.000    6.222 
#    0.000    0.000    0.000    0.000    0.000    0.000 
#
# Total GULP energy -446335.488535 kJ/mol
# GULP energy per Si atom -12398.208015 kJ/mol
# Density = 1.894245 g / cm^3
# Si number density = 18.985659 Si / 1000 Ang^3
#
#
#
# Elastic Constant Matrix: (Units=GPa)
#
#
# Indices 1 2 3 4 5 6 
#
# 1 108.2888 38.9571 38.1597 0.0000 0.0000 0.0000
# 2 38.9571 100.3227 36.2044 0.0000 0.0000 0.0000
# 3 38.1597 36.2044 122.6009 0.0000 0.0000 0.0000
# 4 0.0000 0.0000 0.0000 12.3958 0.0000 0.0000
# 5 0.0000 0.0000 0.0000 0.0000 16.8704 0.0000
# 6 0.0000 0.0000 0.0000 0.0000 0.0000 30.6417
#
#
#
# Elastic Compliance Matrix: (Units=1/GPa)
#
#
# Indices 1 2 3 4 5 6 
#
# 1 0.011382 -0.003516 -0.002504 0.000000 0.000000 0.000000
# 2 -0.003516 0.012243 -0.002521 0.000000 0.000000 0.000000
# 3 -0.002504 -0.002521 0.009680 0.000000 0.000000 0.000000
# 4 0.000000 0.000000 0.000000 0.080672 0.000000 0.000000
# 5 0.000000 0.000000 0.000000 0.000000 0.059275 0.000000
# 6 0.000000 0.000000 0.000000 0.000000 0.000000 0.032635
#
#
# Mechanical properties :
#
#
# Convention : Reuss Voigt Hill
#
# Bulk Modulus (GPa) = 61.64237 61.98383 61.81310
# Shear Modulus (GPa) = 21.89345 26.50766 24.20056
#
# Velocity S-wave (km/s) = 3.39950 3.74062 3.57413
# Velocity P-wave (km/s) = 6.92439 7.16763 7.04706
#
# Compressibility (1/GPa) = 0.01622261
#
# Stress axis : x y z
#
# Youngs Moduli (GPa) = 87.85819 81.67956 103.30053
#
# Poissons Ratio (x) = 0.28719 0.25870
# Poissons Ratio (y) = 0.30891 0.26042
# Poissons Ratio (z) = 0.22003 0.20591
#
# Static dielectric constant tensor:
#      x y z
#    x 3.451510 0.000000 0.000000 
#    y 0.000000 3.326640 0.000000 
#    z 0.000000 0.000000 3.662730 
# 
# 
# High freq. dielectric constant tensor:
#      x y z
#    x 1.741260 0.000000 0.000000 
#    y 0.000000 1.721380 0.000000 
#    z 0.000000 0.000000 1.735270 
# 
# From -- ./inp_files/36509.got.cif
#   From: 2010.03.12/outbox.cif.g09.slc.cpg/sg65_19_cif.got.tgz:36509.got - 2010.04.10 20:52:16.
