data_PCOD8268742
_publ_section_title
;
Structure prediction by ZEFSAII (Michael W. Deem and Ramdas Pophale) SiO2 
 PCOD8268742
Probable space group: C M M M
;
_chemical_formula_sum "Si O2"
_cell_formula_units_Z 96
_cell_length_a 22.030790
_cell_length_b 25.705496
_cell_length_c 9.174743
_cell_angle_alpha 90.000000
_cell_angle_beta 90.000000
_cell_angle_gamma 90.000000
_cell_volume 5195.770583
_symmetry_space_group_name_H-M "C M M M"
_symmetry_group_IT_number 65
_symmetry_cell_setting 'orthorhombic'
loop_
_space_group_symop_operation_xyz
x,y,z
-x,-y,z
x,-y,-z
-x,y,-z
-x,-y,-z
x,y,-z
-x,y,z
x,-y,z
1/2+x,1/2+y,z
1/2-x,1/2-y,z
1/2+x,1/2-y,-z
1/2-x,1/2+y,-z
1/2-x,1/2-y,-z
1/2+x,1/2+y,-z
1/2-x,1/2+y,z
1/2+x,1/2-y,z
loop_
_atom_site_type_symbol
_atom_site_label
_atom_site_fract_x
_atom_site_fract_y
_atom_site_fract_z
Si Si1 0.500000 0.296776 0.830373
Si Si2 0.340140 0.145607 0.327134
Si Si3 0.704849 0.352556 0.327285
Si Si4 0.881025 0.240147 0.671752
Si Si5 0.881289 0.057425 0.333951
Si Si6 0.068301 0.441528 0.673329
Si Si7 0.500000 0.418281 0.831171
O O1 0.558699 0.272968 0.757076
O O2 0.500000 0.357529 0.800253
O O3 0.500000 0.283035 0.000000
O O4 0.337998 0.140287 0.500000
O O5 0.272286 0.141521 0.260668
O O6 0.364856 0.201682 0.281559
O O7 0.383686 0.100266 0.261744
O O8 0.709857 0.354695 0.500000
O O9 0.673507 0.298369 0.279579
O O10 0.665621 0.400932 0.267655
O O11 0.893235 0.234850 0.500000
O O12 0.898015 0.072710 0.500000
O O13 0.941559 0.056073 0.239702
O O14 0.851387 0.000000 0.327689
O O15 0.069291 0.438943 0.500000
O O16 0.086198 0.500000 0.724722
O O17 0.000000 0.427938 0.728056
O O18 0.500000 0.432189 0.000000
#
# Coordination Sequence:
#
# PCOD8268742 Si02
#       7
#     8  16  16  16  16  16   8
#     4  11  23  36  52  75 103 133 168 212 259 304
#     4   9  17  27  46  74 101 131 169 203 240 299
#     4   9  17  30  46  69 101 133 162 203 251 292
#     4  10  19  32  53  76 100 130 167 208 252 298
#     4  10  20  33  51  75 103 135 172 211 253 301
#     4   8  14  24  37  59  98 137 160 190 240 291
#     4  11  22  36  53  72  98 133 175 217 259 302
#
# _framework density 18.476565999999998
#
# number of rings (size 3 to 8) (size 9 to 14) (size 15 to 20)
#    0.000    2.500    1.667    1.750    1.167    4.667 
#    0.000    3.333    0.000    3.000    0.000    0.000 
#    0.000    1.333    0.000    0.000    0.000    0.000 
#
# Total GULP energy -595057.635690 kJ/mol
# GULP energy per Si atom -12397.034077 kJ/mol
# Density = 1.843451 g / cm^3
# Si number density = 18.476566 Si / 1000 Ang^3
#
#
#
# Elastic Constant Matrix: (Units=GPa)
#
#
# Indices 1 2 3 4 5 6 
#
# 1 155.2950 88.6936 23.7906 0.0000 0.0000 0.0000
# 2 88.6936 158.6071 27.2835 0.0000 0.0000 0.0000
# 3 23.7906 27.2835 25.1754 0.0000 0.0000 0.0000
# 4 0.0000 0.0000 0.0000 10.7687 0.0000 0.0000
# 5 0.0000 0.0000 0.0000 0.0000 4.7818 0.0000
# 6 0.0000 0.0000 0.0000 0.0000 0.0000 17.1052
#
#
#
# Elastic Compliance Matrix: (Units=1/GPa)
#
#
# Indices 1 2 3 4 5 6 
#
# 1 0.009790 -0.004773 -0.004079 0.000000 0.000000 0.000000
# 2 -0.004773 0.010077 -0.006410 0.000000 0.000000 0.000000
# 3 -0.004079 -0.006410 0.050523 0.000000 0.000000 0.000000
# 4 0.000000 0.000000 0.000000 0.092862 0.000000 0.000000
# 5 0.000000 0.000000 0.000000 0.000000 0.209125 0.000000
# 6 0.000000 0.000000 0.000000 0.000000 0.000000 0.058462
#
#
# Mechanical properties :
#
#
# Convention : Reuss Voigt Hill
#
# Bulk Modulus (GPa) = 25.08426 68.73474 46.90950
# Shear Modulus (GPa) = 10.53407 19.81846 15.17626
#
# Velocity S-wave (km/s) = 2.39033 3.27865 2.86908
# Velocity P-wave (km/s) = 4.60695 7.18433 6.03484
#
# Compressibility (1/GPa) = 0.03986564
#
# Stress axis : x y z
#
# Youngs Moduli (GPa) = 102.14187 99.23936 19.79310
#
# Poissons Ratio (x) = 0.47368 0.08074
# Poissons Ratio (y) = 0.48753 0.12687
# Poissons Ratio (z) = 0.41664 0.63611
#
# Static dielectric constant tensor:
#      x y z
#    x 3.669010 0.000000 0.000000 
#    y 0.000000 3.747070 0.000000 
#    z 0.000000 0.000000 2.823920 
# 
# 
# High freq. dielectric constant tensor:
#      x y z
#    x 1.723560 0.000000 0.000000 
#    y 0.000000 1.734530 0.000000 
#    z 0.000000 0.000000 1.650310 
# 
# From -- ./inp_files/14413.got.cif
#   From: 2010.03.12/outbox.cif.g09.slc.cpg/sg65_8_cif.got.tgz:14413.got - 2010.04.10 20:52:16.
