data_PCOD8268170
_publ_section_title
;
Structure prediction by ZEFSAII (Michael W. Deem and Ramdas Pophale) SiO2 
 PCOD8268170
Probable space group: C M M M
;
_chemical_formula_sum "Si O2"
_cell_formula_units_Z 96
_cell_length_a 19.078536
_cell_length_b 8.736339
_cell_length_c 31.545749
_cell_angle_alpha 90.000000
_cell_angle_beta 90.000000
_cell_angle_gamma 90.000000
_cell_volume 5257.936867
_symmetry_space_group_name_H-M "C M M M"
_symmetry_group_IT_number 65
_symmetry_cell_setting 'orthorhombic'
loop_
_space_group_symop_operation_xyz
x,y,z
-x,-y,z
x,-y,-z
-x,y,-z
-x,-y,-z
x,y,-z
-x,y,z
x,-y,z
1/2+x,1/2+y,z
1/2-x,1/2-y,z
1/2+x,1/2-y,-z
1/2-x,1/2+y,-z
1/2-x,1/2-y,-z
1/2+x,1/2+y,-z
1/2-x,1/2+y,z
1/2+x,1/2-y,z
loop_
_atom_site_type_symbol
_atom_site_label
_atom_site_fract_x
_atom_site_fract_y
_atom_site_fract_z
Si Si1 0.918150 0.822598 0.202074
Si Si2 0.327295 0.681519 0.363295
Si Si3 0.418522 0.177088 0.709967
Si Si4 0.826446 0.820731 0.954126
Si Si5 0.325661 0.679061 0.455295
Si Si6 0.326933 0.179948 0.870243
O O1 0.894317 0.769677 0.248600
O O2 0.876147 0.723806 0.168403
O O3 0.000000 0.789653 0.195266
O O4 0.899651 0.000000 0.196364
O O5 0.324461 0.500000 0.355843
O O6 0.250000 0.750000 0.358091
O O7 0.377807 0.758978 0.329968
O O8 0.360266 0.724512 0.410068
O O9 0.500000 0.203450 0.700946
O O10 0.400552 0.000000 0.717170
O O11 0.750000 0.750000 0.956608
O O12 0.863981 0.741688 0.913805
O O13 0.820924 0.000000 0.945141
O O14 0.864237 0.790493 0.000000
O O15 0.365620 0.726292 0.500000
O O16 0.314672 0.500000 0.454797
O O17 0.250000 0.750000 0.456604
O O18 0.250000 0.250000 0.863793
O O19 0.319453 0.000000 0.872888
#
# Coordination Sequence:
#
# PCOD8268170 Si02
#       6
#    16  16  16  16  16  16
#     4  10  21  38  58  77  99 129 166 206 251 305
#     4  10  19  31  50  76 104 132 165 205 249 295
#     4  10  21  37  55  74  98 129 166 206 249 299
#     4   9  16  27  45  70 101 135 170 207 248 294
#     4   8  14  25  42  66  96 128 161 198 240 287
#     4  11  21  33  52  78 108 137 169 209 251 295
#
# _framework density 18.258111
#
# number of rings (size 3 to 8) (size 9 to 14) (size 15 to 20)
#    0.000    2.333    0.000    4.500    0.000    4.333 
#    0.000    3.333    0.000    1.000    0.000    7.000 
#    0.000    0.000    0.000    0.000    0.000    0.000 
#
# Total GULP energy -594635.821774 kJ/mol
# GULP energy per Si atom -12388.246287 kJ/mol
# Density = 1.821656 g / cm^3
# Si number density = 18.258111 Si / 1000 Ang^3
#
#
#
# Elastic Constant Matrix: (Units=GPa)
#
#
# Indices 1 2 3 4 5 6 
#
# 1 35.7240 31.0520 50.9962 0.0000 0.0000 0.0000
# 2 31.0520 95.3970 52.4115 0.0000 0.0000 0.0000
# 3 50.9962 52.4115 173.9561 0.0000 0.0000 0.0000
# 4 0.0000 0.0000 0.0000 29.2464 0.0000 0.0000
# 5 0.0000 0.0000 0.0000 0.0000 -14.9328 0.0000
# 6 0.0000 0.0000 0.0000 0.0000 0.0000 22.9355
#
#
#
# Elastic Compliance Matrix: (Units=1/GPa)
#
#
# Indices 1 2 3 4 5 6 
#
# 1 0.056552 -0.011144 -0.013221 0.000000 0.000000 0.000000
# 2 -0.011144 0.014758 -0.001179 0.000000 0.000000 0.000000
# 3 -0.013221 -0.001179 0.009980 0.000000 0.000000 0.000000
# 4 0.000000 0.000000 0.000000 0.034192 0.000000 0.000000
# 5 0.000000 0.000000 0.000000 0.000000 -0.066967 0.000000
# 6 0.000000 0.000000 0.000000 0.000000 0.000000 0.043600
#
#
# Mechanical properties :
#
#
# Convention : Reuss Voigt Hill
#
# Bulk Modulus (GPa) = 33.11197 63.77739 48.44468
# Shear Modulus (GPa) = 32.62189 18.82434 25.72312
#
# Velocity S-wave (km/s) = 4.23153 3.21442 3.75755
# Velocity P-wave (km/s) = 6.48455 6.98452 6.73917
#
# Compressibility (1/GPa) = 0.03020056
#
# Stress axis : x y z
#
# Youngs Moduli (GPa) = 17.68287 67.75985 100.20341
#
# Poissons Ratio (x) = 0.75513 1.32477
# Poissons Ratio (y) = 0.19706 0.11819
# Poissons Ratio (z) = 0.23378 0.07992
#
# Static dielectric constant tensor:
#      x y z
#    x 2.880750 0.000000 0.000000 
#    y 0.000000 3.592960 0.000000 
#    z 0.000000 0.000000 4.323850 
# 
# 
# High freq. dielectric constant tensor:
#      x y z
#    x 1.648760 0.000000 0.000000 
#    y 0.000000 1.724640 0.000000 
#    z 0.000000 0.000000 1.742060 
# 
# From -- ./inp_files/73178.got.cif
#   From: 2010.03.12/outbox.cif.g09.slc.cpg/sg65_37_cif.got.tgz:73178.got - 2010.04.10 20:52:16.
