data_PCOD8268457
_publ_section_title
;
Structure prediction by ZEFSAII (Michael W. Deem and Ramdas Pophale) SiO2 
 PCOD8268457
Probable space group: C M M M
;
_chemical_formula_sum "Si O2"
_cell_formula_units_Z 96
_cell_length_a 17.760851
_cell_length_b 16.266053
_cell_length_c 18.713375
_cell_angle_alpha 90.000000
_cell_angle_beta 90.000000
_cell_angle_gamma 90.000000
_cell_volume 5406.274270
_symmetry_space_group_name_H-M "C M M M"
_symmetry_group_IT_number 65
_symmetry_cell_setting 'orthorhombic'
loop_
_space_group_symop_operation_xyz
x,y,z
-x,-y,z
x,-y,-z
-x,y,-z
-x,-y,-z
x,y,-z
-x,y,z
x,-y,z
1/2+x,1/2+y,z
1/2-x,1/2-y,z
1/2+x,1/2-y,-z
1/2-x,1/2+y,-z
1/2-x,1/2-y,-z
1/2+x,1/2+y,-z
1/2-x,1/2+y,z
1/2+x,1/2-y,z
loop_
_atom_site_type_symbol
_atom_site_label
_atom_site_fract_x
_atom_site_fract_y
_atom_site_fract_z
Si Si1 0.583324 0.769442 0.846694
Si Si2 0.408390 0.744114 0.500000
Si Si3 0.257294 0.907159 0.000000
Si Si4 0.668025 0.905971 0.239582
Si Si5 0.917296 0.339969 0.000000
Si Si6 0.788368 0.837458 0.850477
Si Si7 0.696902 0.824476 0.613242
Si Si8 0.199458 0.905018 0.500000
O O1 0.500000 0.755845 0.818268
O O2 0.613853 0.851689 0.809379
O O3 0.625382 0.683031 0.829679
O O4 0.589138 0.781761 0.931475
O O5 0.500000 0.744449 0.500000
O O6 0.375191 0.791120 0.430792
O O7 0.376162 0.650805 0.500000
O O8 0.348440 0.904078 0.000000
O O9 0.220924 0.865908 0.931244
O O10 0.231212 0.000000 0.000000
O O11 0.752466 0.901082 0.206142
O O12 0.664746 0.873537 0.319915
O O13 0.640341 0.000000 0.237698
O O14 0.000000 0.384694 0.000000
O O15 0.750000 0.750000 0.841415
O O16 0.750000 0.750000 0.639194
O O17 0.748707 0.886203 0.568199
O O18 0.174385 0.000000 0.500000
#
# Coordination Sequence:
#
# PCOD8268457 Si02
#       8
#    16   8   8  16   8  16  16   8
#     4  10  21  35  53  74 100 137 174 209 256 314
#     4   9  19  34  54  80 107 137 174 206 246 303
#     4  12  20  31  52  77 102 131 169 219 265 303
#     4  11  21  33  53  80 105 130 168 217 261 299
#     4  10  19  32  50  73 104 137 165 204 261 316
#     4  10  19  33  53  72  99 134 174 211 252 307
#     4   9  18  34  54  76 104 142 176 205 243 301
#     4   9  17  32  56  82 107 135 170 212 254 291
#
# _framework density 17.757145000000001
#
# number of rings (size 3 to 8) (size 9 to 14) (size 15 to 20)
#    0.000    2.000    3.333    4.250    0.000    1.333 
#    0.000    1.667    0.000   11.000    0.000    0.000 
#    0.000    0.000    0.000    0.000    0.000    0.000 
#
# Total GULP energy -594890.339859 kJ/mol
# GULP energy per Si atom -12393.548747 kJ/mol
# Density = 1.771673 g / cm^3
# Si number density = 17.757145 Si / 1000 Ang^3
#
#
#
# Elastic Constant Matrix: (Units=GPa)
#
#
# Indices 1 2 3 4 5 6 
#
# 1 138.4845 52.3315 36.2127 0.0000 0.0000 0.0000
# 2 52.3315 72.6683 26.9771 0.0000 0.0000 0.0000
# 3 36.2127 26.9771 92.6637 0.0000 0.0000 0.0000
# 4 0.0000 0.0000 0.0000 8.1705 0.0000 0.0000
# 5 0.0000 0.0000 0.0000 0.0000 24.0395 0.0000
# 6 0.0000 0.0000 0.0000 0.0000 0.0000 14.7314
#
#
#
# Elastic Compliance Matrix: (Units=1/GPa)
#
#
# Indices 1 2 3 4 5 6 
#
# 1 0.010268 -0.006620 -0.002085 0.000000 0.000000 0.000000
# 2 -0.006620 0.019697 -0.003147 0.000000 0.000000 0.000000
# 3 -0.002085 -0.003147 0.012523 0.000000 0.000000 0.000000
# 4 0.000000 0.000000 0.000000 0.122391 0.000000 0.000000
# 5 0.000000 0.000000 0.000000 0.000000 0.041598 0.000000
# 6 0.000000 0.000000 0.000000 0.000000 0.000000 0.067882
#
#
# Mechanical properties :
#
#
# Convention : Reuss Voigt Hill
#
# Bulk Modulus (GPa) = 53.24162 59.42881 56.33521
# Shear Modulus (GPa) = 16.42976 21.94131 19.18554
#
# Velocity S-wave (km/s) = 3.04509 3.51897 3.29057
# Velocity P-wave (km/s) = 6.51243 7.07468 6.79937
#
# Compressibility (1/GPa) = 0.01878230
#
# Stress axis : x y z
#
# Youngs Moduli (GPa) = 97.38947 50.76905 79.85367
#
# Poissons Ratio (x) = 0.33611 0.16652
# Poissons Ratio (y) = 0.64475 0.25132
# Poissons Ratio (z) = 0.20309 0.15978
#
# Static dielectric constant tensor:
#      x y z
#    x 3.869240 0.000000 0.000000 
#    y 0.000000 3.339280 0.000000 
#    z 0.000000 0.000000 3.332200 
# 
# 
# High freq. dielectric constant tensor:
#      x y z
#    x 1.674640 0.000000 0.000000 
#    y 0.000000 1.671780 0.000000 
#    z 0.000000 0.000000 1.693090 
# 
# From -- ./inp_files/54553.got.cif
#   From: 2010.03.12/outbox.cif.g09.slc.cpg/sg65_28_cif.got.tgz:54553.got - 2010.04.10 20:52:16.
