data_PCOD8268017
_publ_section_title
;
Structure prediction by ZEFSAII (Michael W. Deem and Ramdas Pophale) SiO2 
 PCOD8268017
Probable space group: C M M M
;
_chemical_formula_sum "Si O2"
_cell_formula_units_Z 96
_cell_length_a 8.752418
_cell_length_b 19.929993
_cell_length_c 30.144832
_cell_angle_alpha 90.000000
_cell_angle_beta 90.000000
_cell_angle_gamma 90.000000
_cell_volume 5258.332745
_symmetry_space_group_name_H-M "C M M M"
_symmetry_group_IT_number 65
_symmetry_cell_setting 'orthorhombic'
loop_
_space_group_symop_operation_xyz
x,y,z
-x,-y,z
x,-y,-z
-x,y,-z
-x,-y,-z
x,y,-z
-x,y,z
x,-y,z
1/2+x,1/2+y,z
1/2-x,1/2-y,z
1/2+x,1/2-y,-z
1/2-x,1/2+y,-z
1/2-x,1/2-y,-z
1/2+x,1/2+y,-z
1/2-x,1/2+y,z
1/2+x,1/2-y,z
loop_
_atom_site_type_symbol
_atom_site_label
_atom_site_fract_x
_atom_site_fract_y
_atom_site_fract_z
Si Si1 0.317622 0.321550 0.622033
Si Si2 0.181051 0.678942 0.284196
Si Si3 0.177585 0.576677 0.792244
Si Si4 0.318525 0.574819 0.549283
Si Si5 0.177653 0.077656 0.884031
Si Si6 0.679540 0.181097 0.050473
O O1 0.500000 0.317940 0.623654
O O2 0.250000 0.250000 0.608479
O O3 0.254504 0.344560 0.669609
O O4 0.254454 0.373863 0.585709
O O5 0.250000 0.750000 0.268852
O O6 0.227495 0.623254 0.248418
O O7 0.000000 0.686037 0.289819
O O8 0.216940 0.500000 0.779470
O O9 0.271214 0.600445 0.835135
O O10 0.000000 0.585249 0.803438
O O11 0.262171 0.596108 0.500000
O O12 0.500000 0.575284 0.550480
O O13 0.258487 0.500000 0.560470
O O14 0.267108 0.118387 0.921011
O O15 0.000000 0.092168 0.889405
O O16 0.218798 0.000000 0.891366
O O17 0.500000 0.187598 0.053697
O O18 0.750000 0.250000 0.069401
O O19 0.734602 0.169247 0.000000
#
# Coordination Sequence:
#
# PCOD8268017 Si02
#       6
#    16  16  16  16  16  16
#     4  10  19  31  49  72  98 128 161 200 245 292
#     4  10  20  34  52  73  99 131 165 204 249 297
#     4   9  19  36  55  74  99 133 171 209 252 302
#     4   8  15  29  48  70  96 126 162 202 242 287
#     4  10  21  36  55  80 109 140 174 214 258 304
#     4  10  21  37  57  80 107 140 177 217 260 307
#
# _framework density 18.256737999999999
#
# number of rings (size 3 to 8) (size 9 to 14) (size 15 to 20)
#    0.000    2.500    0.000    3.500    0.000    5.333 
#    0.000    3.333    0.000    3.000    0.000    4.667 
#    0.000    0.000    0.000    0.000    0.000    0.000 
#
# Total GULP energy -595244.868633 kJ/mol
# GULP energy per Si atom -12400.934763 kJ/mol
# Density = 1.821519 g / cm^3
# Si number density = 18.256738 Si / 1000 Ang^3
#
#
#
# Elastic Constant Matrix: (Units=GPa)
#
#
# Indices 1 2 3 4 5 6 
#
# 1 63.9342 38.7095 41.9512 0.0000 0.0000 0.0000
# 2 38.7095 110.3518 93.1729 0.0000 0.0000 0.0000
# 3 41.9512 93.1729 129.2149 0.0000 0.0000 0.0000
# 4 0.0000 0.0000 0.0000 41.5508 0.0000 0.0000
# 5 0.0000 0.0000 0.0000 0.0000 23.7278 0.0000
# 6 0.0000 0.0000 0.0000 0.0000 0.0000 27.3621
#
#
#
# Elastic Compliance Matrix: (Units=1/GPa)
#
#
# Indices 1 2 3 4 5 6 
#
# 1 0.020552 -0.004028 -0.003768 0.000000 0.000000 0.000000
# 2 -0.004028 0.023955 -0.015965 0.000000 0.000000 0.000000
# 3 -0.003768 -0.015965 0.020475 0.000000 0.000000 0.000000
# 4 0.000000 0.000000 0.000000 0.024067 0.000000 0.000000
# 5 0.000000 0.000000 0.000000 0.000000 0.042145 0.000000
# 6 0.000000 0.000000 0.000000 0.000000 0.000000 0.036547
#
#
# Mechanical properties :
#
#
# Convention : Reuss Voigt Hill
#
# Bulk Modulus (GPa) = 57.27742 72.35200 64.81471
# Shear Modulus (GPa) = 22.61596 27.17263 24.89429
#
# Velocity S-wave (km/s) = 3.52344 3.86211 3.69666
# Velocity P-wave (km/s) = 6.92779 7.72038 7.33480
#
# Compressibility (1/GPa) = 0.01745889
#
# Stress axis : x y z
#
# Youngs Moduli (GPa) = 48.65628 41.74527 48.84085
#
# Poissons Ratio (x) = 0.16814 0.18405
# Poissons Ratio (y) = 0.19597 0.77977
# Poissons Ratio (z) = 0.18335 0.66648
#
# Static dielectric constant tensor:
#      x y z
#    x 3.280730 0.000000 0.000000 
#    y 0.000000 3.484740 0.000000 
#    z 0.000000 0.000000 3.507800 
# 
# 
# High freq. dielectric constant tensor:
#      x y z
#    x 1.702490 0.000000 0.000000 
#    y 0.000000 1.710090 0.000000 
#    z 0.000000 0.000000 1.711770 
# 
# From -- ./inp_files/73092.got.cif
#   From: 2010.03.12/outbox.cif.g09.slc.cpg/sg65_37_cif.got.tgz:73092.got - 2010.04.10 20:52:16.
