data_PCOD8268242
_publ_section_title
;
Structure prediction by ZEFSAII (Michael W. Deem and Ramdas Pophale) SiO2 
 PCOD8268242
Probable space group: C M M M
;
_chemical_formula_sum "Si O2"
_cell_formula_units_Z 80
_cell_length_a 18.057224
_cell_length_b 9.167968
_cell_length_c 25.971062
_cell_angle_alpha 90.000000
_cell_angle_beta 90.000000
_cell_angle_gamma 90.000000
_cell_volume 4299.458717
_symmetry_space_group_name_H-M "C M M M"
_symmetry_group_IT_number 65
_symmetry_cell_setting 'orthorhombic'
loop_
_space_group_symop_operation_xyz
x,y,z
-x,-y,z
x,-y,-z
-x,y,-z
-x,-y,-z
x,y,-z
-x,y,z
x,-y,z
1/2+x,1/2+y,z
1/2-x,1/2-y,z
1/2+x,1/2-y,-z
1/2-x,1/2+y,-z
1/2-x,1/2-y,-z
1/2+x,1/2+y,-z
1/2-x,1/2+y,z
1/2+x,1/2-y,z
loop_
_atom_site_type_symbol
_atom_site_label
_atom_site_fract_x
_atom_site_fract_y
_atom_site_fract_z
Si Si1 0.671093 0.328842 0.388256
Si Si2 0.324695 0.334142 0.500000
Si Si3 0.585926 0.167931 0.301631
Si Si4 0.082982 0.326803 0.899927
Si Si5 0.827914 0.671886 0.199002
Si Si6 0.328392 0.826871 0.000000
O O1 0.683173 0.500000 0.378044
O O2 0.750000 0.250000 0.381521
O O3 0.634777 0.299603 0.445523
O O4 0.612102 0.267289 0.348505
O O5 0.300230 0.500000 0.500000
O O6 0.250000 0.250000 0.500000
O O7 0.500000 0.196336 0.291447
O O8 0.628790 0.215208 0.250461
O O9 0.601636 0.000000 0.315492
O O10 0.078522 0.500000 0.899112
O O11 0.125063 0.269383 0.849351
O O12 0.126543 0.272953 0.950214
O O13 0.000000 0.261322 0.900770
O O14 0.814993 0.500000 0.194999
O O15 0.750000 0.750000 0.199457
O O16 0.250000 0.750000 0.000000
O O17 0.316850 0.000000 0.000000
#
# Coordination Sequence:
#
# PCOD8268242 Si02
#       6
#    16   8  16  16  16   8
#     4  10  19  33  54  78 103 132 167 207 251 299
#     4   8  16  30  49  74 101 129 163 203 247 296
#     4  10  21  36  52  72 100 134 171 210 253 301
#     4   9  17  31  52  76 100 130 170 210 247 292
#     4  10  20  34  53  75 100 131 166 207 253 301
#     4  10  19  31  51  77 103 132 168 210 250 292
#
# _framework density 18.606992999999999
#
# number of rings (size 3 to 8) (size 9 to 14) (size 15 to 20)
#    0.000    2.400    0.000    2.700    0.000    7.200 
#    0.000    0.500    0.000    7.200    0.000    0.000 
#    0.000    0.000    0.000    0.000    0.000    0.000 
#
# Total GULP energy -495854.705909 kJ/mol
# GULP energy per Si atom -12396.367648 kJ/mol
# Density = 1.856464 g / cm^3
# Si number density = 18.606993 Si / 1000 Ang^3
#
#
#
# Elastic Constant Matrix: (Units=GPa)
#
#
# Indices 1 2 3 4 5 6 
#
# 1 148.6485 42.6461 89.3018 0.0000 0.0000 0.0000
# 2 42.6461 46.2824 52.6149 0.0000 0.0000 0.0000
# 3 89.3018 52.6149 189.3554 0.0000 0.0000 0.0000
# 4 0.0000 0.0000 0.0000 14.5458 0.0000 0.0000
# 5 0.0000 0.0000 0.0000 0.0000 18.1483 0.0000
# 6 0.0000 0.0000 0.0000 0.0000 0.0000 30.4277
#
#
#
# Elastic Compliance Matrix: (Units=1/GPa)
#
#
# Indices 1 2 3 4 5 6 
#
# 1 0.010364 -0.005837 -0.003266 0.000000 0.000000 0.000000
# 2 -0.005837 0.034870 -0.006936 0.000000 0.000000 0.000000
# 3 -0.003266 -0.006936 0.008749 0.000000 0.000000 0.000000
# 4 0.000000 0.000000 0.000000 0.068748 0.000000 0.000000
# 5 0.000000 0.000000 0.000000 0.000000 0.055102 0.000000
# 6 0.000000 0.000000 0.000000 0.000000 0.000000 0.032865
#
#
# Mechanical properties :
#
#
# Convention : Reuss Voigt Hill
#
# Bulk Modulus (GPa) = 45.65287 83.71245 64.68266
# Shear Modulus (GPa) = 19.99383 25.93926 22.96655
#
# Velocity S-wave (km/s) = 3.28156 3.73776 3.51707
# Velocity P-wave (km/s) = 6.24074 7.98218 7.16457
#
# Compressibility (1/GPa) = 0.02190443
#
# Stress axis : x y z
#
# Youngs Moduli (GPa) = 96.48965 28.67774 114.30349
#
# Poissons Ratio (x) = 0.16739 0.37329
# Poissons Ratio (y) = 0.56320 0.79286
# Poissons Ratio (z) = 0.31512 0.19892
#
# Static dielectric constant tensor:
#      x y z
#    x 3.306260 0.000000 0.000000 
#    y 0.000000 3.192040 0.000000 
#    z 0.000000 0.000000 4.057170 
# 
# 
# High freq. dielectric constant tensor:
#      x y z
#    x 1.714210 0.000000 0.000000 
#    y 0.000000 1.697820 0.000000 
#    z 0.000000 0.000000 1.747660 
# 
# From -- ./inp_files/75108.got.cif
#   From: 2010.03.12/outbox.cif.g09.slc.cpg/sg65_38_cif.got.tgz:75108.got - 2010.04.10 20:52:16.
