data_PCOD8268529
_publ_section_title
;
Structure prediction by ZEFSAII (Michael W. Deem and Ramdas Pophale) SiO2 
 PCOD8268529
Probable space group: C M M M
;
_chemical_formula_sum "Si O2"
_cell_formula_units_Z 104
_cell_length_a 9.270899
_cell_length_b 29.205842
_cell_length_c 20.348302
_cell_angle_alpha 90.000000
_cell_angle_beta 90.000000
_cell_angle_gamma 90.000000
_cell_volume 5509.596014
_symmetry_space_group_name_H-M "C M M M"
_symmetry_group_IT_number 65
_symmetry_cell_setting 'orthorhombic'
loop_
_space_group_symop_operation_xyz
x,y,z
-x,-y,z
x,-y,-z
-x,y,-z
-x,-y,-z
x,y,-z
-x,y,z
x,-y,z
1/2+x,1/2+y,z
1/2-x,1/2-y,z
1/2+x,1/2-y,-z
1/2-x,1/2+y,-z
1/2-x,1/2-y,-z
1/2+x,1/2+y,-z
1/2-x,1/2+y,z
1/2+x,1/2-y,z
loop_
_atom_site_type_symbol
_atom_site_label
_atom_site_fract_x
_atom_site_fract_y
_atom_site_fract_z
Si Si1 0.328341 0.552645 0.500000
Si Si2 0.330538 0.704252 0.175534
Si Si3 0.830493 0.548903 0.118661
Si Si4 0.832654 0.795363 0.673291
Si Si5 0.167658 0.644632 0.926953
Si Si6 0.835042 0.447589 0.734640
Si Si7 0.829858 0.893045 0.372791
O O1 0.269692 0.500000 0.500000
O O2 0.500000 0.551744 0.500000
O O3 0.270032 0.581028 0.562692
O O4 0.500000 0.710202 0.163926
O O5 0.250000 0.750000 0.153742
O O6 0.293913 0.692331 0.251097
O O7 0.270709 0.665525 0.127661
O O8 0.768060 0.500000 0.091918
O O9 0.792867 0.590594 0.070551
O O10 0.772091 0.558434 0.192041
O O11 0.000000 0.543398 0.126159
O O12 0.750000 0.750000 0.648978
O O13 0.789869 0.838795 0.627656
O O14 0.000000 0.783716 0.666842
O O15 0.000000 0.652231 0.907632
O O16 0.198229 0.664462 0.000000
O O17 0.821239 0.500000 0.711238
O O18 0.737415 0.415776 0.690480
O O19 0.000000 0.430838 0.729147
O O20 0.000000 0.898904 0.367532
#
# Coordination Sequence:
#
# PCOD8268529 Si02
#       7
#     8  16  16  16  16  16  16
#     4   9  18  32  50  73 103 139 171 197 232 279
#     4  10  20  35  54  74  97 125 158 199 249 298
#     4   8  15  29  48  70  97 128 162 201 244 290
#     4   9  19  34  53  77 100 124 159 204 249 292
#     4  10  20  32  48  72  99 128 164 202 241 289
#     4   9  17  29  47  72  99 127 161 202 249 294
#     4  10  19  32  51  74 100 131 168 204 238 282
#
# _framework density 18.876156000000002
#
# number of rings (size 3 to 8) (size 9 to 14) (size 15 to 20)
#    0.000    2.692    0.000    2.769    0.000    3.077 
#    0.000    2.308    0.000    2.769    0.000    1.077 
#    0.000    0.000    0.000    0.000    0.000    0.000 
#
# Total GULP energy -644505.815755 kJ/mol
# GULP energy per Si atom -12394.342611 kJ/mol
# Density = 1.883319 g / cm^3
# Si number density = 18.876156 Si / 1000 Ang^3
#
#
#
# Elastic Constant Matrix: (Units=GPa)
#
#
# Indices 1 2 3 4 5 6 
#
# 1 42.4580 37.8350 23.4077 0.0000 0.0000 0.0000
# 2 37.8350 121.1420 50.8383 0.0000 0.0000 0.0000
# 3 23.4077 50.8383 63.1344 0.0000 0.0000 0.0000
# 4 0.0000 0.0000 0.0000 20.2300 0.0000 0.0000
# 5 0.0000 0.0000 0.0000 0.0000 16.4890 0.0000
# 6 0.0000 0.0000 0.0000 0.0000 0.0000 22.4534
#
#
#
# Elastic Compliance Matrix: (Units=1/GPa)
#
#
# Indices 1 2 3 4 5 6 
#
# 1 0.034147 -0.008083 -0.006151 0.000000 0.000000 0.000000
# 2 -0.008083 0.014382 -0.008584 0.000000 0.000000 0.000000
# 3 -0.006151 -0.008584 0.025032 0.000000 0.000000 0.000000
# 4 0.000000 0.000000 0.000000 0.049432 0.000000 0.000000
# 5 0.000000 0.000000 0.000000 0.000000 0.060647 0.000000
# 6 0.000000 0.000000 0.000000 0.000000 0.000000 0.044537
#
#
# Mechanical properties :
#
#
# Convention : Reuss Voigt Hill
#
# Bulk Modulus (GPa) = 35.81168 50.09961 42.95564
# Shear Modulus (GPa) = 17.66034 19.47802 18.56918
#
# Velocity S-wave (km/s) = 3.06206 3.21578 3.13986
# Velocity P-wave (km/s) = 5.61380 6.35509 5.99591
#
# Compressibility (1/GPa) = 0.02792385
#
# Stress axis : x y z
#
# Youngs Moduli (GPa) = 29.28491 69.53356 39.94927
#
# Poissons Ratio (x) = 0.56207 0.24574
# Poissons Ratio (y) = 0.23672 0.34291
# Poissons Ratio (z) = 0.18014 0.59685
#
# Static dielectric constant tensor:
#      x y z
#    x 3.142850 0.000000 0.000000 
#    y 0.000000 3.720380 0.000000 
#    z 0.000000 0.000000 3.410270 
# 
# 
# High freq. dielectric constant tensor:
#      x y z
#    x 1.700050 0.000000 0.000000 
#    y 0.000000 1.744850 0.000000 
#    z 0.000000 0.000000 1.720780 
# 
# From -- ./inp_files/60441.got.cif
#   From: 2010.03.12/outbox.cif.g09.slc.cpg/sg65_31_cif.got.tgz:60441.got - 2010.04.10 20:52:16.
