data_PCOD8268995
_publ_section_title
;
Structure prediction by ZEFSAII (Michael W. Deem and Ramdas Pophale) SiO2 
 PCOD8268995
Probable space group: C M M M
;
_chemical_formula_sum "Si O2"
_cell_formula_units_Z 80
_cell_length_a 27.714619
_cell_length_b 9.176157
_cell_length_c 17.923138
_cell_angle_alpha 90.000000
_cell_angle_beta 90.000000
_cell_angle_gamma 90.000000
_cell_volume 4558.099453
_symmetry_space_group_name_H-M "C M M M"
_symmetry_group_IT_number 65
_symmetry_cell_setting 'orthorhombic'
loop_
_space_group_symop_operation_xyz
x,y,z
-x,-y,z
x,-y,-z
-x,y,-z
-x,-y,-z
x,y,-z
-x,y,z
x,-y,z
1/2+x,1/2+y,z
1/2-x,1/2-y,z
1/2+x,1/2-y,-z
1/2-x,1/2+y,-z
1/2-x,1/2-y,-z
1/2+x,1/2+y,-z
1/2-x,1/2+y,z
1/2+x,1/2-y,z
loop_
_atom_site_type_symbol
_atom_site_label
_atom_site_fract_x
_atom_site_fract_y
_atom_site_fract_z
Si Si1 0.611098 0.827084 0.856067
Si Si2 0.108951 0.164005 0.417262
Si Si3 0.945548 0.327769 0.290745
Si Si4 0.200485 0.829438 0.913908
Si Si5 0.553297 0.172703 0.000000
Si Si6 0.799922 0.832742 0.500000
O O1 0.582572 0.776067 0.782784
O O2 0.661416 0.741890 0.859017
O O3 0.580211 0.773009 0.926386
O O4 0.620580 0.000000 0.857597
O O5 0.084978 0.174986 0.500000
O O6 0.083087 0.275659 0.363070
O O7 0.166517 0.201221 0.426834
O O8 0.102713 0.000000 0.385992
O O9 0.947730 0.500000 0.293448
O O10 0.000000 0.263893 0.289671
O O11 0.250000 0.750000 0.894812
O O12 0.205679 0.000000 0.896816
O O13 0.185966 0.801153 0.000000
O O14 0.500000 0.241506 0.000000
O O15 0.550016 0.000000 0.000000
O O16 0.750000 0.750000 0.500000
O O17 0.785370 0.000000 0.500000
#
# Coordination Sequence:
#
# PCOD8268995 Si02
#       6
#    16  16  16  16   8   8
#     4  10  19  33  53  77 106 140 179 221 264 313
#     4   8  18  36  55  78 106 139 179 216 256 315
#     4  10  21  35  52  79 112 141 176 222 265 308
#     4  10  20  34  54  78 104 134 174 222 271 320
#     4   9  16  28  50  75  98 135 182 221 260 307
#     4   8  16  32  55  82 107 133 170 213 255 308
#
# _framework density 17.551175000000001
#
# number of rings (size 3 to 8) (size 9 to 14) (size 15 to 20)
#    0.600    2.100    1.000    1.200    0.000    6.000 
#    0.000    3.000    0.000    4.800    0.000    0.000 
#    0.000    0.000    0.000    0.000    0.000    0.000 
#
# Total GULP energy -495751.692567 kJ/mol
# GULP energy per Si atom -12393.792314 kJ/mol
# Density = 1.751123 g / cm^3
# Si number density = 17.551175 Si / 1000 Ang^3
#
#
#
# Elastic Constant Matrix: (Units=GPa)
#
#
# Indices 1 2 3 4 5 6 
#
# 1 150.9147 54.0335 65.3102 0.0000 0.0000 0.0000
# 2 54.0335 48.5743 30.7092 0.0000 0.0000 0.0000
# 3 65.3102 30.7092 98.5094 0.0000 0.0000 0.0000
# 4 0.0000 0.0000 0.0000 22.8279 0.0000 0.0000
# 5 0.0000 0.0000 0.0000 0.0000 24.1898 0.0000
# 6 0.0000 0.0000 0.0000 0.0000 0.0000 28.9884
#
#
#
# Elastic Compliance Matrix: (Units=1/GPa)
#
#
# Indices 1 2 3 4 5 6 
#
# 1 0.012732 -0.010993 -0.005014 0.000000 0.000000 0.000000
# 2 -0.010993 0.035132 -0.003664 0.000000 0.000000 0.000000
# 3 -0.005014 -0.003664 0.014618 0.000000 0.000000 0.000000
# 4 0.000000 0.000000 0.000000 0.043806 0.000000 0.000000
# 5 0.000000 0.000000 0.000000 0.000000 0.041340 0.000000
# 6 0.000000 0.000000 0.000000 0.000000 0.000000 0.034497
#
#
# Mechanical properties :
#
#
# Convention : Reuss Voigt Hill
#
# Bulk Modulus (GPa) = 43.21577 66.45602 54.83590
# Shear Modulus (GPa) = 21.81695 25.06424 23.44059
#
# Velocity S-wave (km/s) = 3.52951 3.78308 3.65849
# Velocity P-wave (km/s) = 6.42543 7.55173 7.01123
#
# Compressibility (1/GPa) = 0.02313970
#
# Stress axis : x y z
#
# Youngs Moduli (GPa) = 78.54092 28.46427 68.40955
#
# Poissons Ratio (x) = 0.31291 0.34303
# Poissons Ratio (y) = 0.86341 0.25063
# Poissons Ratio (z) = 0.39383 0.10428
#
# Static dielectric constant tensor:
#      x y z
#    x 3.333810 0.000000 0.000000 
#    y 0.000000 3.007880 0.000000 
#    z 0.000000 0.000000 3.101830 
# 
# 
# High freq. dielectric constant tensor:
#      x y z
#    x 1.684990 0.000000 0.000000 
#    y 0.000000 1.663900 0.000000 
#    z 0.000000 0.000000 1.662220 
# 
# From -- ./inp_files/57916.got.cif
#   From: 2010.03.12/outbox.cif.g09.slc.cpg/sg65_29_cif.got.tgz:57916.got - 2010.04.10 20:52:16.
