data_PCOD8268095
_publ_section_title
;
Structure prediction by ZEFSAII (Michael W. Deem and Ramdas Pophale) SiO2 
 PCOD8268095
Probable space group: C M M M
;
_chemical_formula_sum "Si O2"
_cell_formula_units_Z 104
_cell_length_a 23.737445
_cell_length_b 17.060211
_cell_length_c 13.502724
_cell_angle_alpha 90.000000
_cell_angle_beta 90.000000
_cell_angle_gamma 90.000000
_cell_volume 5468.141701
_symmetry_space_group_name_H-M "C M M M"
_symmetry_group_IT_number 65
_symmetry_cell_setting 'orthorhombic'
loop_
_space_group_symop_operation_xyz
x,y,z
-x,-y,z
x,-y,-z
-x,y,-z
-x,-y,-z
x,y,-z
-x,y,z
x,-y,z
1/2+x,1/2+y,z
1/2-x,1/2-y,z
1/2+x,1/2-y,-z
1/2-x,1/2+y,-z
1/2-x,1/2-y,-z
1/2+x,1/2+y,-z
1/2-x,1/2+y,z
1/2+x,1/2-y,z
loop_
_atom_site_type_symbol
_atom_site_label
_atom_site_fract_x
_atom_site_fract_y
_atom_site_fract_z
Si Si1 0.659331 0.408547 0.280341
Si Si2 0.166393 0.592059 0.799632
Si Si3 0.230629 0.835616 0.887351
Si Si4 0.435799 0.846452 0.726407
Si Si5 0.434066 0.000000 0.392741
Si Si6 0.270180 0.908533 0.607661
Si Si7 0.935307 0.184888 0.385286
O O1 0.651844 0.500000 0.256422
O O2 0.678936 0.365897 0.179465
O O3 0.704993 0.393572 0.365790
O O4 0.600395 0.375191 0.319679
O O5 0.152392 0.500000 0.801447
O O6 0.214279 0.608426 0.880958
O O7 0.109333 0.645077 0.817113
O O8 0.190777 0.624949 0.694563
O O9 0.250000 0.750000 0.851655
O O10 0.208840 0.834949 0.000000
O O11 0.500000 0.852754 0.766033
O O12 0.416131 0.921587 0.662775
O O13 0.427379 0.771356 0.658594
O O14 0.500000 0.000000 0.407796
O O15 0.403882 0.000000 0.500000
O O16 0.282237 0.869328 0.500000
O O17 0.282458 0.000000 0.602082
O O18 0.916340 0.185097 0.500000
O O19 0.000000 0.158240 0.376170
#
# Coordination Sequence:
#
# PCOD8268095 Si02
#       7
#    16  16  16  16   8  16  16
#     4  10  20  35  56  80 108 141 181 225 271 327
#     4  10  19  31  49  77 106 136 179 224 267 320
#     4  10  21  38  60  83 108 137 171 219 280 340
#     4  10  19  32  48  70 106 149 188 227 268 315
#     4   9  16  26  42  64  93 137 187 223 253 298
#     4   8  15  27  43  67  99 133 168 210 258 306
#     4  10  21  35  52  78 113 152 191 229 268 315
#
# _framework density 19.019259000000002
#
# number of rings (size 3 to 8) (size 9 to 14) (size 15 to 20)
#    0.000    2.385    0.769    3.231    0.000    5.538 
#    0.000    0.769    0.000    6.000    0.000    6.462 
#    0.000    0.000    0.000    0.000    0.000    0.000 
#
# Total GULP energy -644441.360810 kJ/mol
# GULP energy per Si atom -12393.103093 kJ/mol
# Density = 1.897597 g / cm^3
# Si number density = 19.019259 Si / 1000 Ang^3
#
#
#
# Elastic Constant Matrix: (Units=GPa)
#
#
# Indices 1 2 3 4 5 6 
#
# 1 100.0339 44.1372 25.3743 0.0000 0.0000 0.0000
# 2 44.1372 91.6536 35.1206 0.0000 0.0000 0.0000
# 3 25.3743 35.1206 63.3911 0.0000 0.0000 0.0000
# 4 0.0000 0.0000 0.0000 18.3631 0.0000 0.0000
# 5 0.0000 0.0000 0.0000 0.0000 18.3044 0.0000
# 6 0.0000 0.0000 0.0000 0.0000 0.0000 32.8788
#
#
#
# Elastic Compliance Matrix: (Units=1/GPa)
#
#
# Indices 1 2 3 4 5 6 
#
# 1 0.012929 -0.005387 -0.002191 0.000000 0.000000 0.000000
# 2 -0.005387 0.016095 -0.006761 0.000000 0.000000 0.000000
# 3 -0.002191 -0.006761 0.020398 0.000000 0.000000 0.000000
# 4 0.000000 0.000000 0.000000 0.054457 0.000000 0.000000
# 5 0.000000 0.000000 0.000000 0.000000 0.054632 0.000000
# 6 0.000000 0.000000 0.000000 0.000000 0.000000 0.030415
#
#
# Mechanical properties :
#
#
# Convention : Reuss Voigt Hill
#
# Bulk Modulus (GPa) = 48.20441 51.59365 49.89903
# Shear Modulus (GPa) = 22.26989 23.93903 23.10446
#
# Velocity S-wave (km/s) = 3.42557 3.55163 3.48917
# Velocity P-wave (km/s) = 6.40673 6.63360 6.52115
#
# Compressibility (1/GPa) = 0.02074499
#
# Stress axis : x y z
#
# Youngs Moduli (GPa) = 77.34513 62.12925 49.02449
#
# Poissons Ratio (x) = 0.33467 0.10741
# Poissons Ratio (y) = 0.41663 0.33146
# Poissons Ratio (z) = 0.16946 0.42007
#
# Static dielectric constant tensor:
#      x y z
#    x 3.610060 0.000000 0.000000 
#    y 0.000000 3.383330 0.000000 
#    z 0.000000 0.000000 3.502250 
# 
# 
# High freq. dielectric constant tensor:
#      x y z
#    x 1.745820 0.000000 0.000000 
#    y 0.000000 1.731510 0.000000 
#    z 0.000000 0.000000 1.707950 
# 
# From -- ./inp_files/45781.got.cif
#   From: 2010.03.12/outbox.cif.g09.slc.cpg/sg65_23_cif.got.tgz:45781.got - 2010.04.10 20:52:16.
