data_PCOD8268760
_publ_section_title
;
Structure prediction by ZEFSAII (Michael W. Deem and Ramdas Pophale) SiO2 
 PCOD8268760
Probable space group: C M M M
;
_chemical_formula_sum "Si O2"
_cell_formula_units_Z 104
_cell_length_a 29.016946
_cell_length_b 9.032347
_cell_length_c 20.887694
_cell_angle_alpha 90.000000
_cell_angle_beta 90.000000
_cell_angle_gamma 90.000000
_cell_volume 5474.479222
_symmetry_space_group_name_H-M "C M M M"
_symmetry_group_IT_number 65
_symmetry_cell_setting 'orthorhombic'
loop_
_space_group_symop_operation_xyz
x,y,z
-x,-y,z
x,-y,-z
-x,y,-z
-x,-y,-z
x,y,-z
-x,y,z
x,-y,z
1/2+x,1/2+y,z
1/2-x,1/2-y,z
1/2+x,1/2-y,-z
1/2-x,1/2+y,-z
1/2-x,1/2-y,-z
1/2+x,1/2+y,-z
1/2-x,1/2+y,z
1/2+x,1/2-y,z
loop_
_atom_site_type_symbol
_atom_site_label
_atom_site_fract_x
_atom_site_fract_y
_atom_site_fract_z
Si Si1 0.202517 0.674225 0.815426
Si Si2 0.140813 0.675363 0.069535
Si Si3 0.052797 0.824286 0.500000
Si Si4 0.298931 0.824687 0.330134
Si Si5 0.949467 0.325776 0.868691
Si Si6 0.552555 0.329265 0.260142
Si Si7 0.613215 0.674922 0.379864
O O1 0.208570 0.500000 0.822145
O O2 0.250000 0.750000 0.831951
O O3 0.168199 0.739791 0.869498
O O4 0.186619 0.714562 0.743248
O O5 0.146202 0.500000 0.069863
O O6 0.087125 0.720380 0.077242
O O7 0.157530 0.737594 0.000000
O O8 0.081998 0.769310 0.561107
O O9 0.000000 0.760347 0.500000
O O10 0.049095 0.000000 0.500000
O O11 0.250000 0.750000 0.346834
O O12 0.337657 0.758568 0.377623
O O13 0.294600 0.000000 0.340719
O O14 0.951356 0.500000 0.860586
O O15 0.932393 0.263712 0.801116
O O16 0.000000 0.262688 0.887443
O O17 0.500000 0.296248 0.280330
O O18 0.559455 0.500000 0.243173
O O19 0.584989 0.279005 0.317441
O O20 0.622540 0.500000 0.384214
#
# Coordination Sequence:
#
# PCOD8268760 Si02
#       7
#    16  16   8  16  16  16  16
#     4   9  18  32  50  71  95 124 157 197 245 293
#     4   9  17  29  45  66  93 124 157 194 240 294
#     4   9  18  34  56  81 110 143 176 207 240 287
#     4  10  20  35  55  78 104 132 166 209 255 300
#     4   9  17  29  46  68  92 120 159 205 248 290
#     4   9  17  29  47  72 100 129 162 202 248 297
#     4  10  19  32  53  79 105 135 171 207 245 291
#
# _framework density 18.997240999999999
#
# number of rings (size 3 to 8) (size 9 to 14) (size 15 to 20)
#    0.000    2.692    0.000    1.846    0.000    4.923 
#    0.000    3.077    0.000    3.231    0.000    2.154 
#    0.000    0.000    0.000    0.000    0.000    0.000 
#
# Total GULP energy -644505.420649 kJ/mol
# GULP energy per Si atom -12394.335012 kJ/mol
# Density = 1.895400 g / cm^3
# Si number density = 18.997241 Si / 1000 Ang^3
#
#
#
# Elastic Constant Matrix: (Units=GPa)
#
#
# Indices 1 2 3 4 5 6 
#
# 1 127.2587 32.6178 71.4027 0.0000 0.0000 0.0000
# 2 32.6178 25.9181 18.0428 0.0000 0.0000 0.0000
# 3 71.4027 18.0428 87.0713 0.0000 0.0000 0.0000
# 4 0.0000 0.0000 0.0000 17.0209 0.0000 0.0000
# 5 0.0000 0.0000 0.0000 0.0000 24.7065 0.0000
# 6 0.0000 0.0000 0.0000 0.0000 0.0000 27.4488
#
#
#
# Elastic Compliance Matrix: (Units=1/GPa)
#
#
# Indices 1 2 3 4 5 6 
#
# 1 0.018388 -0.014775 -0.012017 0.000000 0.000000 0.000000
# 2 -0.014775 0.056959 0.000313 0.000000 0.000000 0.000000
# 3 -0.012017 0.000313 0.021274 0.000000 0.000000 0.000000
# 4 0.000000 0.000000 0.000000 0.058751 0.000000 0.000000
# 5 0.000000 0.000000 0.000000 0.000000 0.040475 0.000000
# 6 0.000000 0.000000 0.000000 0.000000 0.000000 0.036431
#
#
# Mechanical properties :
#
#
# Convention : Reuss Voigt Hill
#
# Bulk Modulus (GPa) = 22.90239 53.81943 38.36091
# Shear Modulus (GPa) = 16.67827 21.71424 19.19625
#
# Velocity S-wave (km/s) = 2.96620 3.38453 3.18225
# Velocity P-wave (km/s) = 4.87985 6.60795 5.80853
#
# Compressibility (1/GPa) = 0.04366357
#
# Stress axis : x y z
#
# Youngs Moduli (GPa) = 54.38465 17.55642 47.00465
#
# Poissons Ratio (x) = 0.25940 0.56486
# Poissons Ratio (y) = 0.80353 -0.01472
# Poissons Ratio (z) = 0.65354 -0.00550
#
# Static dielectric constant tensor:
#      x y z
#    x 3.672880 0.000000 0.000000 
#    y 0.000000 3.142060 0.000000 
#    z 0.000000 0.000000 3.627850 
# 
# 
# High freq. dielectric constant tensor:
#      x y z
#    x 1.748970 0.000000 0.000000 
#    y 0.000000 1.703900 0.000000 
#    z 0.000000 0.000000 1.730980 
# 
# From -- ./inp_files/66373.got.cif
#   From: 2010.03.12/outbox.cif.g09.slc.cpg/sg65_34_cif.got.tgz:66373.got - 2010.04.10 20:52:16.
