data_PCOD8268004
_publ_section_title
;
Structure prediction by ZEFSAII (Michael W. Deem and Ramdas Pophale) SiO2 
 PCOD8268004
Probable space group: C M M M
;
_chemical_formula_sum "Si O2"
_cell_formula_units_Z 104
_cell_length_a 9.191865
_cell_length_b 26.205518
_cell_length_c 23.003405
_cell_angle_alpha 90.000000
_cell_angle_beta 90.000000
_cell_angle_gamma 90.000000
_cell_volume 5541.004614
_symmetry_space_group_name_H-M "C M M M"
_symmetry_group_IT_number 65
_symmetry_cell_setting 'orthorhombic'
loop_
_space_group_symop_operation_xyz
x,y,z
-x,-y,z
x,-y,-z
-x,y,-z
-x,-y,-z
x,y,-z
-x,y,z
x,-y,z
1/2+x,1/2+y,z
1/2-x,1/2-y,z
1/2+x,1/2-y,-z
1/2-x,1/2+y,-z
1/2-x,1/2-y,-z
1/2+x,1/2+y,-z
1/2-x,1/2+y,z
1/2+x,1/2-y,z
loop_
_atom_site_type_symbol
_atom_site_label
_atom_site_fract_x
_atom_site_fract_y
_atom_site_fract_z
Si Si1 0.166819 0.601171 0.431016
Si Si2 0.831050 0.198372 0.242184
Si Si3 0.340458 0.706773 0.936502
Si Si4 0.333302 0.500000 0.569159
Si Si5 0.171023 0.197344 0.622485
Si Si6 0.161242 0.440090 0.936306
Si Si7 0.161505 0.882072 0.150914
O O1 0.166289 0.600764 0.500000
O O2 0.249031 0.550372 0.407639
O O3 0.253849 0.651022 0.410988
O O4 0.000000 0.601860 0.407647
O O5 0.750000 0.250000 0.223600
O O6 0.806405 0.186663 0.309598
O O7 0.772085 0.149064 0.206172
O O8 0.000000 0.206390 0.226345
O O9 0.500000 0.729551 0.942460
O O10 0.250000 0.750000 0.902199
O O11 0.342347 0.654427 0.903840
O O12 0.270166 0.696926 0.000000
O O13 0.500000 0.500000 0.592651
O O14 0.334211 0.500000 0.500000
O O15 0.250000 0.250000 0.604050
O O16 0.000000 0.200828 0.606271
O O17 0.151938 0.500000 0.936697
O O18 0.244012 0.427495 0.875639
O O19 0.000000 0.416221 0.931415
O O20 0.228794 0.423044 0.000000
O O21 0.000000 0.902179 0.167050
#
# Coordination Sequence:
#
# PCOD8268004 Si02
#       7
#    16  16  16   8  16  16  16
#     4  10  20  34  54  81 112 144 180 224 271 320
#     4   9  19  34  52  75 102 133 171 211 252 300
#     4   9  17  27  39  60  91 121 147 180 223 274
#     4   9  17  31  53  81 111 143 177 213 258 313
#     4  10  20  35  54  76 106 143 183 225 271 324
#     4   9  19  35  52  71  96 125 160 204 253 305
#     4  10  19  31  49  72  96 122 158 201 244 293
#
# _framework density 18.769159999999999
#
# number of rings (size 3 to 8) (size 9 to 14) (size 15 to 20)
#    0.000    2.538    0.000    2.538    0.000    5.231 
#    0.000    2.308    1.692    0.000    0.000    0.000 
#    0.000    0.000    0.000    0.000    0.000    0.000 
#
# Total GULP energy -644194.712159 kJ/mol
# GULP energy per Si atom -12388.359849 kJ/mol
# Density = 1.872644 g / cm^3
# Si number density = 18.769160 Si / 1000 Ang^3
#
#
#
# Elastic Constant Matrix: (Units=GPa)
#
#
# Indices 1 2 3 4 5 6 
#
# 1 101.7172 51.7421 21.6765 0.0000 0.0000 0.0000
# 2 51.7421 99.1773 21.7496 0.0000 0.0000 0.0000
# 3 21.6765 21.7496 34.3542 0.0000 0.0000 0.0000
# 4 0.0000 0.0000 0.0000 34.4428 0.0000 0.0000
# 5 0.0000 0.0000 0.0000 0.0000 19.5153 0.0000
# 6 0.0000 0.0000 0.0000 0.0000 0.0000 34.6146
#
#
#
# Elastic Compliance Matrix: (Units=1/GPa)
#
#
# Indices 1 2 3 4 5 6 
#
# 1 0.014062 -0.006259 -0.004910 0.000000 0.000000 0.000000
# 2 -0.006259 0.014495 -0.005227 0.000000 0.000000 0.000000
# 3 -0.004910 -0.005227 0.035516 0.000000 0.000000 0.000000
# 4 0.000000 0.000000 0.000000 0.029034 0.000000 0.000000
# 5 0.000000 0.000000 0.000000 0.000000 0.051242 0.000000
# 6 0.000000 0.000000 0.000000 0.000000 0.000000 0.028890
#
#
# Mechanical properties :
#
#
# Convention : Reuss Voigt Hill
#
# Bulk Modulus (GPa) = 31.96963 47.28723 39.62843
# Shear Modulus (GPa) = 23.09938 27.05324 25.07631
#
# Velocity S-wave (km/s) = 3.51195 3.80065 3.65915
# Velocity P-wave (km/s) = 5.78922 6.67149 6.24595
#
# Compressibility (1/GPa) = 0.03127968
#
# Stress axis : x y z
#
# Youngs Moduli (GPa) = 71.11611 68.98984 28.15657
#
# Poissons Ratio (x) = 0.43183 0.13824
# Poissons Ratio (y) = 0.44514 0.14718
# Poissons Ratio (z) = 0.34915 0.36062
#
# Static dielectric constant tensor:
#      x y z
#    x 3.434830 0.000000 0.000000 
#    y 0.000000 3.359170 0.000000 
#    z 0.000000 0.000000 3.357100 
# 
# 
# High freq. dielectric constant tensor:
#      x y z
#    x 1.731120 0.000000 0.000000 
#    y 0.000000 1.722540 0.000000 
#    z 0.000000 0.000000 1.709090 
# 
# From -- ./inp_files/68140.got.cif
#   From: 2010.03.12/outbox.cif.g09.slc.cpg/sg65_35_cif.got.tgz:68140.got - 2010.04.10 20:52:16.
