data_PCOD8268899
_publ_section_title
;
Structure prediction by ZEFSAII (Michael W. Deem and Ramdas Pophale) SiO2 
 PCOD8268899
Probable space group: C M M M
;
_chemical_formula_sum "Si O2"
_cell_formula_units_Z 88
_cell_length_a 28.326715
_cell_length_b 14.805080
_cell_length_c 11.520260
_cell_angle_alpha 90.000000
_cell_angle_beta 90.000000
_cell_angle_gamma 90.000000
_cell_volume 4831.358364
_symmetry_space_group_name_H-M "C M M M"
_symmetry_group_IT_number 65
_symmetry_cell_setting 'orthorhombic'
loop_
_space_group_symop_operation_xyz
x,y,z
-x,-y,z
x,-y,-z
-x,y,-z
-x,-y,-z
x,y,-z
-x,y,z
x,-y,z
1/2+x,1/2+y,z
1/2-x,1/2-y,z
1/2+x,1/2-y,-z
1/2-x,1/2+y,-z
1/2-x,1/2-y,-z
1/2+x,1/2+y,-z
1/2-x,1/2+y,z
1/2+x,1/2-y,z
loop_
_atom_site_type_symbol
_atom_site_label
_atom_site_fract_x
_atom_site_fract_y
_atom_site_fract_z
Si Si1 0.219896 0.338386 0.746331
Si Si2 0.689005 0.896094 0.500000
Si Si3 0.302676 0.597469 0.129626
Si Si4 0.365177 0.238293 0.862991
Si Si5 0.446075 0.750935 0.314569
Si Si6 0.444066 0.395857 0.500000
Si Si7 0.577448 0.894299 0.500000
O O1 0.250000 0.250000 0.775532
O O2 0.211128 0.347465 0.610463
O O3 0.254963 0.414761 0.794272
O O4 0.169898 0.339866 0.814976
O O5 0.633392 0.884266 0.500000
O O6 0.703872 0.000000 0.500000
O O7 0.327863 0.500000 0.130111
O O8 0.341300 0.667625 0.176023
O O9 0.287422 0.627060 0.000000
O O10 0.415667 0.235162 0.801173
O O11 0.373219 0.227495 0.000000
O O12 0.500000 0.735952 0.275950
O O13 0.427895 0.662858 0.387515
O O14 0.443074 0.843498 0.387924
O O15 0.423610 0.500000 0.500000
O O16 0.500000 0.400934 0.500000
O O17 0.562151 0.000000 0.500000
#
# Coordination Sequence:
#
# PCOD8268899 Si02
#       7
#    16   8  16  16  16   8   8
#     4  10  19  33  52  73 103 138 169 210 260 314
#     4  11  20  31  51  77 104 131 164 215 269 316
#     4   9  18  33  53  75 101 136 176 214 252 305
#     4  10  20  34  52  75 105 139 178 219 261 309
#     4  10  20  35  56  80 107 139 176 218 267 320
#     4   8  16  32  54  79 104 132 170 215 260 310
#     4  10  20  36  58  79 101 134 175 220 271 321
#
# _framework density 18.214338999999999
#
# number of rings (size 3 to 8) (size 9 to 14) (size 15 to 20)
#    0.000    2.273    1.818    2.182    0.000    4.000 
#    0.000    0.000    0.000    6.000    0.000    6.364 
#    0.000    0.000    0.000    0.000    0.000    0.000 
#
# Total GULP energy -545292.747747 kJ/mol
# GULP energy per Si atom -12393.016994 kJ/mol
# Density = 1.817288 g / cm^3
# Si number density = 18.214339 Si / 1000 Ang^3
#
#
#
# Elastic Constant Matrix: (Units=GPa)
#
#
# Indices 1 2 3 4 5 6 
#
# 1 92.9984 16.7870 54.1626 0.0000 0.0000 0.0000
# 2 16.7870 80.5540 21.9732 0.0000 0.0000 0.0000
# 3 54.1626 21.9732 119.6434 0.0000 0.0000 0.0000
# 4 0.0000 0.0000 0.0000 11.7423 0.0000 0.0000
# 5 0.0000 0.0000 0.0000 0.0000 29.5504 0.0000
# 6 0.0000 0.0000 0.0000 0.0000 0.0000 14.1103
#
#
#
# Elastic Compliance Matrix: (Units=1/GPa)
#
#
# Indices 1 2 3 4 5 6 
#
# 1 0.014735 -0.001317 -0.006428 0.000000 0.000000 0.000000
# 2 -0.001317 0.013186 -0.001826 0.000000 0.000000 0.000000
# 3 -0.006428 -0.001826 0.011604 0.000000 0.000000 0.000000
# 4 0.000000 0.000000 0.000000 0.085162 0.000000 0.000000
# 5 0.000000 0.000000 0.000000 0.000000 0.033840 0.000000
# 6 0.000000 0.000000 0.000000 0.000000 0.000000 0.070870
#
#
# Mechanical properties :
#
#
# Convention : Reuss Voigt Hill
#
# Bulk Modulus (GPa) = 49.06163 53.22680 51.14421
# Shear Modulus (GPa) = 19.58220 24.43213 22.00717
#
# Velocity S-wave (km/s) = 3.28243 3.66644 3.47974
# Velocity P-wave (km/s) = 6.43117 6.87093 6.65468
#
# Compressibility (1/GPa) = 0.02038253
#
# Stress axis : x y z
#
# Youngs Moduli (GPa) = 67.86761 75.83531 86.18012
#
# Poissons Ratio (x) = 0.09988 0.55400
# Poissons Ratio (y) = 0.08939 0.15732
# Poissons Ratio (z) = 0.43628 0.13844
#
# Static dielectric constant tensor:
#      x y z
#    x 3.257990 0.000000 0.000000 
#    y 0.000000 3.475920 0.000000 
#    z 0.000000 0.000000 3.232480 
# 
# 
# High freq. dielectric constant tensor:
#      x y z
#    x 1.694180 0.000000 0.000000 
#    y 0.000000 1.703860 0.000000 
#    z 0.000000 0.000000 1.699070 
# 
# From -- ./inp_files/32256.got.cif
#   From: 2010.03.12/outbox.cif.g09.slc.cpg/sg65_17_cif.got.tgz:32256.got - 2010.04.10 20:52:16.
