data_PCOD8268662
_publ_section_title
;
Structure prediction by ZEFSAII (Michael W. Deem and Ramdas Pophale) SiO2 
 PCOD8268662
Probable space group: C M M M
;
_chemical_formula_sum "Si O2"
_cell_formula_units_Z 64
_cell_length_a 9.087837
_cell_length_b 18.944203
_cell_length_c 20.407262
_cell_angle_alpha 90.000000
_cell_angle_beta 90.000000
_cell_angle_gamma 90.000000
_cell_volume 3513.351550
_symmetry_space_group_name_H-M "C M M M"
_symmetry_group_IT_number 65
_symmetry_cell_setting 'orthorhombic'
loop_
_space_group_symop_operation_xyz
x,y,z
-x,-y,z
x,-y,-z
-x,y,-z
-x,-y,-z
x,y,-z
-x,y,z
x,-y,z
1/2+x,1/2+y,z
1/2-x,1/2-y,z
1/2+x,1/2-y,-z
1/2-x,1/2+y,-z
1/2-x,1/2-y,-z
1/2+x,1/2+y,-z
1/2-x,1/2+y,z
1/2+x,1/2-y,z
loop_
_atom_site_type_symbol
_atom_site_label
_atom_site_fract_x
_atom_site_fract_y
_atom_site_fract_z
Si Si1 0.824984 0.826044 0.000000
Si Si2 0.171843 0.175227 0.358526
Si Si3 0.670115 0.081678 0.894111
Si Si4 0.169317 0.822698 0.500000
Si Si5 0.166237 0.417901 0.256528
O O1 0.750000 0.750000 0.000000
O O2 0.775897 0.868830 0.064067
O O3 0.000000 0.817114 0.000000
O O4 0.250000 0.250000 0.350455
O O5 0.207815 0.139262 0.430517
O O6 0.221992 0.122759 0.302431
O O7 0.000000 0.188432 0.349818
O O8 0.500000 0.096501 0.912033
O O9 0.700994 0.100288 0.818675
O O10 0.707322 0.000000 0.908622
O O11 0.250000 0.750000 0.500000
O O12 0.000000 0.803202 0.500000
O O13 0.188920 0.500000 0.269365
O O14 0.000000 0.395305 0.273647
#
# Coordination Sequence:
#
# PCOD8268662 Si02
#       5
#     8  16  16   8  16
#     4  12  25  38  55  81 111 139 171 214 257 300
#     4  10  19  32  52  76 103 136 174 217 262 309
#     4   9  19  38  61  80 103 138 174 209 255 310
#     4   8  16  30  47  70  99 133 173 213 257 308
#     4   9  19  36  56  78 105 137 173 212 255 306
#
# _framework density 18.216225000000001
#
# number of rings (size 3 to 8) (size 9 to 14) (size 15 to 20)
#    0.000    2.500    0.000    3.750    0.000    5.500 
#    0.000    3.125    0.000    3.750    0.000    0.000 
#    0.000    0.000    0.000    0.000    0.000    0.000 
#
# Total GULP energy -396582.690343 kJ/mol
# GULP energy per Si atom -12393.209073 kJ/mol
# Density = 1.817476 g / cm^3
# Si number density = 18.216225 Si / 1000 Ang^3
#
#
#
# Elastic Constant Matrix: (Units=GPa)
#
#
# Indices 1 2 3 4 5 6 
#
# 1 106.0649 55.8444 70.3538 0.0000 0.0000 0.0000
# 2 55.8444 77.6834 68.1133 0.0000 0.0000 0.0000
# 3 70.3538 68.1133 137.6016 0.0000 0.0000 0.0000
# 4 0.0000 0.0000 0.0000 30.6540 0.0000 0.0000
# 5 0.0000 0.0000 0.0000 0.0000 31.3083 0.0000
# 6 0.0000 0.0000 0.0000 0.0000 0.0000 33.4229
#
#
#
# Elastic Compliance Matrix: (Units=1/GPa)
#
#
# Indices 1 2 3 4 5 6 
#
# 1 0.016654 -0.007962 -0.004574 0.000000 0.000000 0.000000
# 2 -0.007962 0.026550 -0.009072 0.000000 0.000000 0.000000
# 3 -0.004574 -0.009072 0.014097 0.000000 0.000000 0.000000
# 4 0.000000 0.000000 0.000000 0.032622 0.000000 0.000000
# 5 0.000000 0.000000 0.000000 0.000000 0.031940 0.000000
# 6 0.000000 0.000000 0.000000 0.000000 0.000000 0.029920
#
#
# Mechanical properties :
#
#
# Convention : Reuss Voigt Hill
#
# Bulk Modulus (GPa) = 70.99196 78.88588 74.93892
# Shear Modulus (GPa) = 25.03837 27.54628 26.29232
#
# Velocity S-wave (km/s) = 3.71146 3.89290 3.80326
# Velocity P-wave (km/s) = 7.57780 7.97531 7.77909
#
# Compressibility (1/GPa) = 0.01408610
#
# Stress axis : x y z
#
# Youngs Moduli (GPa) = 60.04547 37.66411 70.93930
#
# Poissons Ratio (x) = 0.29987 0.32447
# Poissons Ratio (y) = 0.47806 0.64355
# Poissons Ratio (z) = 0.27464 0.34168
#
# Static dielectric constant tensor:
#      x y z
#    x 3.245530 0.000000 0.000000 
#    y 0.000000 3.085220 0.000000 
#    z 0.000000 0.000000 3.800970 
# 
# 
# High freq. dielectric constant tensor:
#      x y z
#    x 1.707760 0.000000 0.000000 
#    y 0.000000 1.681980 0.000000 
#    z 0.000000 0.000000 1.727470 
# 
# From -- ./inp_files/49095.got.cif
#   From: 2010.03.12/outbox.cif.g09.slc.cpg/sg65_25_cif.got.tgz:49095.got - 2010.04.10 20:52:16.
