data_PCOD8268954
_publ_section_title
;
Structure prediction by ZEFSAII (Michael W. Deem and Ramdas Pophale) SiO2 
 PCOD8268954
Probable space group: C M M M
;
_chemical_formula_sum "Si O2"
_cell_formula_units_Z 88
_cell_length_a 7.990087
_cell_length_b 18.636622
_cell_length_c 29.957879
_cell_angle_alpha 90.000000
_cell_angle_beta 90.000000
_cell_angle_gamma 90.000000
_cell_volume 4460.974771
_symmetry_space_group_name_H-M "C M M M"
_symmetry_group_IT_number 65
_symmetry_cell_setting 'orthorhombic'
loop_
_space_group_symop_operation_xyz
x,y,z
-x,-y,z
x,-y,-z
-x,y,-z
-x,-y,-z
x,y,-z
-x,y,z
x,-y,z
1/2+x,1/2+y,z
1/2-x,1/2-y,z
1/2+x,1/2-y,-z
1/2-x,1/2+y,-z
1/2-x,1/2-y,-z
1/2+x,1/2+y,-z
1/2-x,1/2+y,z
1/2+x,1/2-y,z
loop_
_atom_site_type_symbol
_atom_site_label
_atom_site_fract_x
_atom_site_fract_y
_atom_site_fract_z
Si Si1 0.197160 0.831632 0.716359
Si Si2 0.000000 0.585705 0.050609
Si Si3 0.699470 0.580509 0.631269
Si Si4 0.307257 0.080506 0.799967
Si Si5 0.197823 0.828849 0.450513
Si Si6 0.684684 0.585184 0.105617
O O1 0.250000 0.750000 0.711295
O O2 0.265648 0.873986 0.673211
O O3 0.281149 0.865200 0.759713
O O4 0.000000 0.839279 0.720895
O O5 0.832203 0.616815 0.074372
O O6 0.000000 0.500000 0.052453
O O7 0.000000 0.613714 0.000000
O O8 0.500000 0.580748 0.630622
O O9 0.770181 0.500000 0.635068
O O10 0.770279 0.615007 0.585456
O O11 0.500000 0.078495 0.813838
O O12 0.208043 0.109613 0.843083
O O13 0.246698 0.000000 0.786470
O O14 0.271586 0.845677 0.500000
O O15 0.250000 0.750000 0.434672
O O16 0.000000 0.834063 0.451957
O O17 0.500000 0.611383 0.089377
O O18 0.695801 0.500000 0.103682
#
# Coordination Sequence:
#
# PCOD8268954 Si02
#       6
#    16   8  16  16  16  16
#     4  11  22  35  51  72 100 134 169 213 264 320
#     4   9  16  26  40  64 102 142 180 224 270 320
#     4   9  18  32  50  73 100 129 167 214 261 314
#     4  10  19  33  53  75 101 134 173 218 266 321
#     4   9  17  30  50  74  99 130 167 209 259 314
#     4   9  16  27  44  67  97 137 180 220 269 323
#
# _framework density 19.726628999999999
#
# number of rings (size 3 to 8) (size 9 to 14) (size 15 to 20)
#    0.000    2.455    0.909    2.182    0.000    2.545 
#    0.000    4.545    0.000    2.727    0.000    2.545 
#    0.000    0.727    0.364    0.000    0.000    0.000 
#
# Total GULP energy -545498.073085 kJ/mol
# GULP energy per Si atom -12397.683479 kJ/mol
# Density = 1.968173 g / cm^3
# Si number density = 19.726629 Si / 1000 Ang^3
#
#
#
# Elastic Constant Matrix: (Units=GPa)
#
#
# Indices 1 2 3 4 5 6 
#
# 1 81.4207 15.6830 46.7817 0.0000 0.0000 0.0000
# 2 15.6830 104.3381 65.1177 0.0000 0.0000 0.0000
# 3 46.7817 65.1177 154.4110 0.0000 0.0000 0.0000
# 4 0.0000 0.0000 0.0000 12.9021 0.0000 0.0000
# 5 0.0000 0.0000 0.0000 0.0000 20.3409 0.0000
# 6 0.0000 0.0000 0.0000 0.0000 0.0000 17.7773
#
#
#
# Elastic Compliance Matrix: (Units=1/GPa)
#
#
# Indices 1 2 3 4 5 6 
#
# 1 0.014918 0.000785 -0.004851 0.000000 0.000000 0.000000
# 2 0.000785 0.013049 -0.005741 0.000000 0.000000 0.000000
# 3 -0.004851 -0.005741 0.010367 0.000000 0.000000 0.000000
# 4 0.000000 0.000000 0.000000 0.077507 0.000000 0.000000
# 5 0.000000 0.000000 0.000000 0.000000 0.049162 0.000000
# 6 0.000000 0.000000 0.000000 0.000000 0.000000 0.056251
#
#
# Mechanical properties :
#
#
# Convention : Reuss Voigt Hill
#
# Bulk Modulus (GPa) = 53.41687 66.14828 59.78258
# Shear Modulus (GPa) = 20.23414 24.37656 22.30535
#
# Velocity S-wave (km/s) = 3.20617 3.51909 3.36627
# Velocity P-wave (km/s) = 6.39088 7.07936 6.74391
#
# Compressibility (1/GPa) = 0.01872068
#
# Stress axis : x y z
#
# Youngs Moduli (GPa) = 67.03444 76.63348 96.46142
#
# Poissons Ratio (x) = -0.06016 0.46790
# Poissons Ratio (y) = -0.05262 0.55377
# Poissons Ratio (z) = 0.32516 0.43994
#
# Static dielectric constant tensor:
#      x y z
#    x 3.583390 0.000000 0.000000 
#    y 0.000000 3.285740 0.000000 
#    z 0.000000 0.000000 3.786570 
# 
# 
# High freq. dielectric constant tensor:
#      x y z
#    x 1.762780 0.000000 0.000000 
#    y 0.000000 1.728880 0.000000 
#    z 0.000000 0.000000 1.776420 
# 
# From -- ./inp_files/76687.got.cif
#   From: 2010.03.12/outbox.cif.g09.slc.cpg/sg65_39_cif.got.tgz:76687.got - 2010.04.10 20:52:16.
