data_PCOD8268407
_publ_section_title
;
Structure prediction by ZEFSAII (Michael W. Deem and Ramdas Pophale) SiO2 
 PCOD8268407
Probable space group: C M M M
;
_chemical_formula_sum "Si O2"
_cell_formula_units_Z 128
_cell_length_a 22.207140
_cell_length_b 24.068258
_cell_length_c 13.653350
_cell_angle_alpha 90.000000
_cell_angle_beta 90.000000
_cell_angle_gamma 90.000000
_cell_volume 7297.540470
_symmetry_space_group_name_H-M "C M M M"
_symmetry_group_IT_number 65
_symmetry_cell_setting 'orthorhombic'
loop_
_space_group_symop_operation_xyz
x,y,z
-x,-y,z
x,-y,-z
-x,y,-z
-x,-y,-z
x,y,-z
-x,y,z
x,-y,z
1/2+x,1/2+y,z
1/2-x,1/2-y,z
1/2+x,1/2-y,-z
1/2-x,1/2+y,-z
1/2-x,1/2-y,-z
1/2+x,1/2+y,-z
1/2-x,1/2+y,z
1/2+x,1/2-y,z
loop_
_atom_site_type_symbol
_atom_site_label
_atom_site_fract_x
_atom_site_fract_y
_atom_site_fract_z
Si Si1 0.567811 0.435927 0.247159
Si Si2 0.105259 0.843546 0.387269
Si Si3 0.068001 0.277413 0.613002
Si Si4 0.238690 0.185521 0.386060
Si Si5 0.327914 0.434945 0.106586
Si Si6 0.691323 0.935180 0.884536
Si Si7 0.435547 0.060309 0.614677
Si Si8 0.150213 0.638678 0.714894
O O1 0.500000 0.431126 0.203220
O O2 0.581322 0.500000 0.276398
O O3 0.573243 0.396776 0.340863
O O4 0.618088 0.411692 0.173185
O O5 0.106562 0.858153 0.500000
O O6 0.067210 0.788110 0.365745
O O7 0.172881 0.832312 0.350145
O O8 0.091965 0.288345 0.500000
O O9 0.109238 0.306148 0.697395
O O10 0.000000 0.299943 0.621688
O O11 0.249681 0.172266 0.500000
O O12 0.250000 0.250000 0.364999
O O13 0.282294 0.149588 0.318509
O O14 0.337619 0.500000 0.095708
O O15 0.260651 0.423520 0.146489
O O16 0.334697 0.406626 0.000000
O O17 0.651078 0.890206 0.823234
O O18 0.674871 0.000000 0.860969
O O19 0.681172 0.923945 0.000000
O O20 0.436746 0.054477 0.500000
O O21 0.500000 0.086296 0.649979
O O22 0.377980 0.095091 0.641360
O O23 0.428586 0.000000 0.663572
#
# Coordination Sequence:
#
# PCOD8268407 Si02
#       8
#    16  16  16  16  16  16  16  16
#     4  10  20  32  49  76 105 134 174 216 253 304
#     4  10  20  35  51  69 102 143 176 207 251 303
#     4  10  20  33  51  75 100 131 176 221 256 300
#     4  10  19  32  49  75 107 136 168 214 265 310
#     4   8  15  31  53  74  98 126 159 206 260 305
#     4   9  19  35  54  77 104 135 172 214 260 313
#     4   9  18  31  46  70 106 139 165 204 259 310
#     4  12  19  29  53  77  99 130 173 211 259 309
#
# _framework density 17.540156
#
# number of rings (size 3 to 8) (size 9 to 14) (size 15 to 20)
#    0.000    2.250    1.250    4.125    0.000    2.250 
#    0.000    2.500    0.000    4.125    0.000    4.375 
#    0.000    0.000    0.000    0.000    0.000    0.000 
#
# Total GULP energy -792846.485467 kJ/mol
# GULP energy per Si atom -12388.226335 kJ/mol
# Density = 1.750023 g / cm^3
# Si number density = 17.540156 Si / 1000 Ang^3
#
#
#
# Elastic Constant Matrix: (Units=GPa)
#
#
# Indices 1 2 3 4 5 6 
#
# 1 70.6134 27.8875 27.9049 0.0000 0.0000 0.0000
# 2 27.8875 78.6443 38.0367 0.0000 0.0000 0.0000
# 3 27.9049 38.0367 56.7167 0.0000 0.0000 0.0000
# 4 0.0000 0.0000 0.0000 23.2286 0.0000 0.0000
# 5 0.0000 0.0000 0.0000 0.0000 17.9742 0.0000
# 6 0.0000 0.0000 0.0000 0.0000 0.0000 29.9105
#
#
#
# Elastic Compliance Matrix: (Units=1/GPa)
#
#
# Indices 1 2 3 4 5 6 
#
# 1 0.018083 -0.003122 -0.006803 0.000000 0.000000 0.000000
# 2 -0.003122 0.019359 -0.011447 0.000000 0.000000 0.000000
# 3 -0.006803 -0.011447 0.028656 0.000000 0.000000 0.000000
# 4 0.000000 0.000000 0.000000 0.043050 0.000000 0.000000
# 5 0.000000 0.000000 0.000000 0.000000 0.055635 0.000000
# 6 0.000000 0.000000 0.000000 0.000000 0.000000 0.033433
#
#
# Mechanical properties :
#
#
# Convention : Reuss Voigt Hill
#
# Bulk Modulus (GPa) = 42.82048 43.73694 43.27871
# Shear Modulus (GPa) = 20.10092 21.69901 20.89997
#
# Velocity S-wave (km/s) = 3.38893 3.52107 3.45563
# Velocity P-wave (km/s) = 6.30705 6.44360 6.37569
#
# Compressibility (1/GPa) = 0.02335331
#
# Stress axis : x y z
#
# Youngs Moduli (GPa) = 55.30037 51.65596 34.89730
#
# Poissons Ratio (x) = 0.16126 0.23742
# Poissons Ratio (y) = 0.17264 0.39947
# Poissons Ratio (z) = 0.37622 0.59130
#
# Static dielectric constant tensor:
#      x y z
#    x 3.365890 0.000000 0.000000 
#    y 0.000000 3.221550 0.000000 
#    z 0.000000 0.000000 3.114770 
# 
# 
# High freq. dielectric constant tensor:
#      x y z
#    x 1.689340 0.000000 0.000000 
#    y 0.000000 1.671370 0.000000 
#    z 0.000000 0.000000 1.640900 
# 
# From -- ./inp_files/31318.got.cif
#   From: 2010.03.12/outbox.cif.g09.slc.cpg/sg65_16_cif.got.tgz:31318.got - 2010.04.10 20:52:16.
