data_PCOD8268625
_publ_section_title
;
Structure prediction by ZEFSAII (Michael W. Deem and Ramdas Pophale) SiO2 
 PCOD8268625
Probable space group: C M M M
;
_chemical_formula_sum "Si O2"
_cell_formula_units_Z 104
_cell_length_a 8.030485
_cell_length_b 27.574679
_cell_length_c 23.604804
_cell_angle_alpha 90.000000
_cell_angle_beta 90.000000
_cell_angle_gamma 90.000000
_cell_volume 5227.001676
_symmetry_space_group_name_H-M "C M M M"
_symmetry_group_IT_number 65
_symmetry_cell_setting 'orthorhombic'
loop_
_space_group_symop_operation_xyz
x,y,z
-x,-y,z
x,-y,-z
-x,y,-z
-x,-y,-z
x,y,-z
-x,y,z
x,-y,z
1/2+x,1/2+y,z
1/2-x,1/2-y,z
1/2+x,1/2-y,-z
1/2-x,1/2+y,-z
1/2-x,1/2-y,-z
1/2+x,1/2+y,-z
1/2-x,1/2+y,z
1/2+x,1/2-y,z
loop_
_atom_site_type_symbol
_atom_site_label
_atom_site_fract_x
_atom_site_fract_y
_atom_site_fract_z
Si Si1 0.302582 0.648032 0.269987
Si Si2 0.809521 0.118314 0.065920
Si Si3 0.808233 0.601602 0.563268
Si Si4 0.305189 0.696490 0.384362
Si Si5 0.807496 0.053051 0.326848
Si Si6 0.500000 0.053738 0.932957
Si Si7 0.808120 0.195673 0.157843
O O1 0.500000 0.642700 0.265321
O O2 0.253734 0.685874 0.319219
O O3 0.227924 0.594582 0.285863
O O4 0.222738 0.667964 0.211298
O O5 0.671838 0.079512 0.086638
O O6 0.771179 0.167434 0.099805
O O7 0.000000 0.099664 0.077906
O O8 0.786758 0.130636 0.000000
O O9 0.743457 0.589878 0.500000
O O10 0.786353 0.658847 0.574643
O O11 0.707208 0.569247 0.607823
O O12 0.000000 0.587636 0.569266
O O13 0.500000 0.689553 0.393029
O O14 0.250000 0.750000 0.401522
O O15 0.000000 0.048338 0.312442
O O16 0.722600 0.000000 0.317094
O O17 0.500000 0.000000 0.906227
O O18 0.500000 0.050705 0.000000
O O19 0.750000 0.250000 0.149696
O O20 0.000000 0.197343 0.172303
#
# Coordination Sequence:
#
# PCOD8268625 Si02
#       7
#    16  16  16  16  16   8  16
#     4   8  16  32  51  75 103 131 170 216 261 316
#     4   9  19  35  54  81 117 152 191 238 285 339
#     4  10  21  35  50  71 100 132 167 208 253 305
#     4  10  19  32  52  74  99 131 168 210 257 311
#     4   9  18  34  56  77  99 131 168 210 262 319
#     4   9  18  34  58  82 108 148 190 234 284 330
#     4  10  20  33  52  78 108 145 184 224 273 326
#
# _framework density 19.896685000000002
#
# number of rings (size 3 to 8) (size 9 to 14) (size 15 to 20)
#    0.000    2.692    0.000    2.308    1.077    2.769 
#    0.000    6.923    0.000    2.769    0.000    0.000 
#    0.000    0.000    0.000    0.000    0.000    0.000 
#
# Total GULP energy -644475.907085 kJ/mol
# GULP energy per Si atom -12393.767444 kJ/mol
# Density = 1.985140 g / cm^3
# Si number density = 19.896685 Si / 1000 Ang^3
#
#
#
# Elastic Constant Matrix: (Units=GPa)
#
#
# Indices 1 2 3 4 5 6 
#
# 1 52.3214 32.6430 27.2178 0.0000 0.0000 0.0000
# 2 32.6430 160.5058 44.1445 0.0000 0.0000 0.0000
# 3 27.2178 44.1445 80.9209 0.0000 0.0000 0.0000
# 4 0.0000 0.0000 0.0000 19.6189 0.0000 0.0000
# 5 0.0000 0.0000 0.0000 0.0000 10.0845 0.0000
# 6 0.0000 0.0000 0.0000 0.0000 0.0000 22.9986
#
#
#
# Elastic Compliance Matrix: (Units=1/GPa)
#
#
# Indices 1 2 3 4 5 6 
#
# 1 0.024482 -0.003193 -0.006493 0.000000 0.000000 0.000000
# 2 -0.003193 0.007747 -0.003152 0.000000 0.000000 0.000000
# 3 -0.006493 -0.003152 0.016261 0.000000 0.000000 0.000000
# 4 0.000000 0.000000 0.000000 0.050971 0.000000 0.000000
# 5 0.000000 0.000000 0.000000 0.000000 0.099163 0.000000
# 6 0.000000 0.000000 0.000000 0.000000 0.000000 0.043481
#
#
# Mechanical properties :
#
#
# Convention : Reuss Voigt Hill
#
# Bulk Modulus (GPa) = 43.83229 55.75100 49.79164
# Shear Modulus (GPa) = 18.15638 23.18992 20.67315
#
# Velocity S-wave (km/s) = 3.02409 3.41767 3.22689
# Velocity P-wave (km/s) = 5.85417 6.60720 6.24205
#
# Compressibility (1/GPa) = 0.02281423
#
# Stress axis : x y z
#
# Youngs Moduli (GPa) = 40.84554 129.08803 61.49693
#
# Poissons Ratio (x) = 0.41224 0.39927
# Poissons Ratio (y) = 0.13044 0.19383
# Poissons Ratio (z) = 0.26519 0.40687
#
# Static dielectric constant tensor:
#      x y z
#    x 3.509650 0.000000 0.000000 
#    y 0.000000 3.780530 0.000000 
#    z 0.000000 0.000000 3.594440 
# 
# 
# High freq. dielectric constant tensor:
#      x y z
#    x 1.760710 0.000000 0.000000 
#    y 0.000000 1.776170 0.000000 
#    z 0.000000 0.000000 1.763360 
# 
# From -- ./inp_files/68171.got.cif
#   From: 2010.03.12/outbox.cif.g09.slc.cpg/sg65_35_cif.got.tgz:68171.got - 2010.04.10 20:52:16.
