data_PCOD8268113
_publ_section_title
;
Structure prediction by ZEFSAII (Michael W. Deem and Ramdas Pophale) SiO2 
 PCOD8268113
Probable space group: C M M M
;
_chemical_formula_sum "Si O2"
_cell_formula_units_Z 80
_cell_length_a 7.661230
_cell_length_b 18.059799
_cell_length_c 27.959086
_cell_angle_alpha 90.000000
_cell_angle_beta 90.000000
_cell_angle_gamma 90.000000
_cell_volume 3868.426797
_symmetry_space_group_name_H-M "C M M M"
_symmetry_group_IT_number 65
_symmetry_cell_setting 'orthorhombic'
loop_
_space_group_symop_operation_xyz
x,y,z
-x,-y,z
x,-y,-z
-x,y,-z
-x,-y,-z
x,y,-z
-x,y,z
x,-y,z
1/2+x,1/2+y,z
1/2-x,1/2-y,z
1/2+x,1/2-y,-z
1/2-x,1/2+y,-z
1/2-x,1/2-y,-z
1/2+x,1/2+y,-z
1/2-x,1/2+y,z
1/2+x,1/2-y,z
loop_
_atom_site_type_symbol
_atom_site_label
_atom_site_fract_x
_atom_site_fract_y
_atom_site_fract_z
Si Si1 0.500000 0.587680 0.053171
Si Si2 0.708404 0.083982 0.312499
Si Si3 0.291696 0.084004 0.500000
Si Si4 0.200477 0.587125 0.876347
Si Si5 0.704126 0.164621 0.780788
Si Si6 0.795166 0.335510 0.406250
O O1 0.500000 0.500000 0.049559
O O2 0.676006 0.613621 0.080241
O O3 0.500000 0.622789 0.000000
O O4 0.500000 0.086503 0.312306
O O5 0.786271 0.124371 0.265518
O O6 0.784300 0.126216 0.358931
O O7 0.776639 0.000000 0.313281
O O8 0.500000 0.086106 0.500000
O O9 0.215589 0.125502 0.546687
O O10 0.223067 0.000000 0.500000
O O11 0.216377 0.500000 0.867030
O O12 0.275061 0.627798 0.829307
O O13 0.000000 0.609128 0.888345
O O14 0.500000 0.151721 0.779645
O O15 0.750000 0.250000 0.779445
O O16 0.750000 0.250000 0.406543
O O17 0.000000 0.347584 0.406242
#
# Coordination Sequence:
#
# PCOD8268113 Si02
#       6
#     8  16   8  16  16  16
#     4   9  18  32  54  84 112 140 177 224 274 318
#     4   9  17  31  51  73  98 130 171 213 257 309
#     4   9  17  30  49  73  96 125 176 222 256 303
#     4   9  18  33  53  78 107 141 180 222 267 318
#     4  10  20  32  50  75 100 134 169 211 258 314
#     4  10  19  31  50  73  99 132 166 213 263 313
#
# _framework density 20.680243000000001
#
# number of rings (size 3 to 8) (size 9 to 14) (size 15 to 20)
#    0.000    2.600    0.000    2.100    1.400    5.200 
#    0.000    2.000    0.000    4.800    0.000    0.000 
#    0.000    0.000    0.000    0.000    0.000    0.000 
#
# Total GULP energy -495946.450557 kJ/mol
# GULP energy per Si atom -12398.661264 kJ/mol
# Density = 2.063317 g / cm^3
# Si number density = 20.680243 Si / 1000 Ang^3
#
#
#
# Elastic Constant Matrix: (Units=GPa)
#
#
# Indices 1 2 3 4 5 6 
#
# 1 46.8214 13.9912 45.0896 0.0000 0.0000 0.0000
# 2 13.9912 147.8519 95.5969 0.0000 0.0000 0.0000
# 3 45.0896 95.5969 236.7340 0.0000 0.0000 0.0000
# 4 0.0000 0.0000 0.0000 25.6240 0.0000 0.0000
# 5 0.0000 0.0000 0.0000 0.0000 3.1787 0.0000
# 6 0.0000 0.0000 0.0000 0.0000 0.0000 24.0365
#
#
#
# Elastic Compliance Matrix: (Units=1/GPa)
#
#
# Indices 1 2 3 4 5 6 
#
# 1 0.026267 0.001014 -0.005412 0.000000 0.000000 0.000000
# 2 0.001014 0.009193 -0.003905 0.000000 0.000000 0.000000
# 3 -0.005412 -0.003905 0.006832 0.000000 0.000000 0.000000
# 4 0.000000 0.000000 0.000000 0.039026 0.000000 0.000000
# 5 0.000000 0.000000 0.000000 0.000000 0.314591 0.000000
# 6 0.000000 0.000000 0.000000 0.000000 0.000000 0.041603
#
#
# Mechanical properties :
#
#
# Convention : Reuss Voigt Hill
#
# Bulk Modulus (GPa) = 38.93462 82.30698 60.62080
# Shear Modulus (GPa) = 10.80659 29.01650 19.91154
#
# Velocity S-wave (km/s) = 2.28843 3.74986 3.10632
# Velocity P-wave (km/s) = 5.08433 7.65734 6.49943
#
# Compressibility (1/GPa) = 0.02568408
#
# Stress axis : x y z
#
# Youngs Moduli (GPa) = 38.07066 108.78339 146.37017
#
# Poissons Ratio (x) = -0.11029 0.79220
# Poissons Ratio (y) = -0.03860 0.57161
# Poissons Ratio (z) = 0.20605 0.42482
#
# Static dielectric constant tensor:
#      x y z
#    x 3.485530 0.000000 0.000000 
#    y 0.000000 3.549240 0.000000 
#    z 0.000000 0.000000 4.209840 
# 
# 
# High freq. dielectric constant tensor:
#      x y z
#    x 1.784100 0.000000 0.000000 
#    y 0.000000 1.800490 0.000000 
#    z 0.000000 0.000000 1.819980 
# 
# From -- ./inp_files/72866.got.cif
#   From: 2010.03.12/outbox.cif.g09.slc.cpg/sg65_37_cif.got.tgz:72866.got - 2010.04.10 20:52:16.
