data_PCOD8268748
_publ_section_title
;
Structure prediction by ZEFSAII (Michael W. Deem and Ramdas Pophale) SiO2 
 PCOD8268748
Probable space group: C M M M
;
_chemical_formula_sum "Si O2"
_cell_formula_units_Z 88
_cell_length_a 8.742094
_cell_length_b 25.820232
_cell_length_c 20.827965
_cell_angle_alpha 90.000000
_cell_angle_beta 90.000000
_cell_angle_gamma 90.000000
_cell_volume 4701.348562
_symmetry_space_group_name_H-M "C M M M"
_symmetry_group_IT_number 65
_symmetry_cell_setting 'orthorhombic'
loop_
_space_group_symop_operation_xyz
x,y,z
-x,-y,z
x,-y,-z
-x,y,-z
-x,-y,-z
x,y,-z
-x,y,z
x,-y,z
1/2+x,1/2+y,z
1/2-x,1/2-y,z
1/2+x,1/2-y,-z
1/2-x,1/2+y,-z
1/2-x,1/2-y,-z
1/2+x,1/2+y,-z
1/2-x,1/2+y,z
1/2+x,1/2-y,z
loop_
_atom_site_type_symbol
_atom_site_label
_atom_site_fract_x
_atom_site_fract_y
_atom_site_fract_z
Si Si1 0.681324 0.940755 0.000000
Si Si2 0.181023 0.902860 0.130212
Si Si3 0.318846 0.195515 0.801815
Si Si4 0.681464 0.000000 0.355369
Si Si5 0.317527 0.899003 0.572468
Si Si6 0.820076 0.696615 0.654632
Si Si7 0.320474 0.500000 0.784026
O O1 0.745590 0.911370 0.061304
O O2 0.500000 0.937871 0.000000
O O3 0.739572 0.000000 0.000000
O O4 0.243454 0.849113 0.156576
O O5 0.000000 0.900494 0.123186
O O6 0.231630 0.949383 0.176929
O O7 0.500000 0.195626 0.811565
O O8 0.250000 0.250000 0.825494
O O9 0.272077 0.185723 0.727929
O O10 0.746543 0.949847 0.392080
O O11 0.733091 0.000000 0.282500
O O12 0.500000 0.000000 0.356742
O O13 0.254139 0.897658 0.500000
O O14 0.500000 0.899411 0.572680
O O15 0.254013 0.849313 0.610632
O O16 0.750000 0.750000 0.629136
O O17 0.000000 0.700808 0.647934
O O18 0.500000 0.500000 0.770870
#
# Coordination Sequence:
#
# PCOD8268748 Si02
#       7
#     8  16  16   8  16  16   8
#     4  11  23  39  60  87 118 151 187 226 268 318
#     4  11  22  38  59  84 115 151 186 224 274 328
#     4  10  20  36  57  83 113 146 187 232 279 330
#     4  10  19  32  53  77 100 133 179 227 272 324
#     4   9  17  30  49  74 103 135 174 222 274 326
#     4   9  18  32  51  75 104 137 175 223 273 322
#     4  10  22  36  54  81 113 145 178 223 280 333
#
# _framework density 18.718032999999998
#
# number of rings (size 3 to 8) (size 9 to 14) (size 15 to 20)
#    0.000    2.091    0.909    2.727    0.000    5.455 
#    0.000    1.364    0.000    2.182    0.000    0.000 
#    0.000    0.000    0.000    0.000    0.000    0.000 
#
# Total GULP energy -545742.143455 kJ/mol
# GULP energy per Si atom -12403.230533 kJ/mol
# Density = 1.867543 g / cm^3
# Si number density = 18.718033 Si / 1000 Ang^3
#
#
#
# Elastic Constant Matrix: (Units=GPa)
#
#
# Indices 1 2 3 4 5 6 
#
# 1 41.8753 39.1636 34.9661 0.0000 0.0000 0.0000
# 2 39.1636 193.2672 102.8506 0.0000 0.0000 0.0000
# 3 34.9661 102.8506 146.6600 0.0000 0.0000 0.0000
# 4 0.0000 0.0000 0.0000 23.3008 0.0000 0.0000
# 5 0.0000 0.0000 0.0000 0.0000 20.3239 0.0000
# 6 0.0000 0.0000 0.0000 0.0000 0.0000 29.7984
#
#
#
# Elastic Compliance Matrix: (Units=1/GPa)
#
#
# Indices 1 2 3 4 5 6 
#
# 1 0.031477 -0.003805 -0.004836 0.000000 0.000000 0.000000
# 2 -0.003805 0.008715 -0.005204 0.000000 0.000000 0.000000
# 3 -0.004836 -0.005204 0.011621 0.000000 0.000000 0.000000
# 4 0.000000 0.000000 0.000000 0.042917 0.000000 0.000000
# 5 0.000000 0.000000 0.000000 0.000000 0.049203 0.000000
# 6 0.000000 0.000000 0.000000 0.000000 0.000000 0.033559
#
#
# Mechanical properties :
#
#
# Convention : Reuss Voigt Hill
#
# Bulk Modulus (GPa) = 41.45573 81.75148 61.60360
# Shear Modulus (GPa) = 23.44945 28.33943 25.89444
#
# Velocity S-wave (km/s) = 3.54329 3.89526 3.72344
# Velocity P-wave (km/s) = 6.23983 8.00005 7.17413
#
# Compressibility (1/GPa) = 0.02412212
#
# Stress axis : x y z
#
# Youngs Moduli (GPa) = 31.76898 114.74691 86.04796
#
# Poissons Ratio (x) = 0.43658 0.41617
# Poissons Ratio (y) = 0.12087 0.44784
# Poissons Ratio (z) = 0.15365 0.59720
#
# Static dielectric constant tensor:
#      x y z
#    x 3.235400 0.000000 0.000000 
#    y 0.000000 3.986670 0.000000 
#    z 0.000000 0.000000 3.459700 
# 
# 
# High freq. dielectric constant tensor:
#      x y z
#    x 1.709850 0.000000 0.000000 
#    y 0.000000 1.741200 0.000000 
#    z 0.000000 0.000000 1.729540 
# 
# From -- ./inp_files/59887.got.cif
#   From: 2010.03.12/outbox.cif.g09.slc.cpg/sg65_30_cif.got.tgz:59887.got - 2010.04.10 20:52:16.
