data_PCOD8268501
_publ_section_title
;
Structure prediction by ZEFSAII (Michael W. Deem and Ramdas Pophale) SiO2 
 PCOD8268501
Probable space group: C M M M
;
_chemical_formula_sum "Si O2"
_cell_formula_units_Z 104
_cell_length_a 18.348213
_cell_length_b 16.237284
_cell_length_c 19.026317
_cell_angle_alpha 90.000000
_cell_angle_beta 90.000000
_cell_angle_gamma 90.000000
_cell_volume 5668.418258
_symmetry_space_group_name_H-M "C M M M"
_symmetry_group_IT_number 65
_symmetry_cell_setting 'orthorhombic'
loop_
_space_group_symop_operation_xyz
x,y,z
-x,-y,z
x,-y,-z
-x,y,-z
-x,-y,-z
x,y,-z
-x,y,z
x,-y,z
1/2+x,1/2+y,z
1/2-x,1/2-y,z
1/2+x,1/2-y,-z
1/2-x,1/2+y,-z
1/2-x,1/2-y,-z
1/2+x,1/2+y,-z
1/2-x,1/2+y,z
1/2+x,1/2-y,z
loop_
_atom_site_type_symbol
_atom_site_label
_atom_site_fract_x
_atom_site_fract_y
_atom_site_fract_z
Si Si1 0.700394 0.910038 0.734250
Si Si2 0.842390 0.907372 0.185322
Si Si3 0.919384 0.336205 0.815006
Si Si4 0.678225 0.208136 0.390164
Si Si5 0.411607 0.900274 0.500000
Si Si6 0.835217 0.765594 0.080688
Si Si7 0.919489 0.189930 0.704126
O O1 0.758237 0.893708 0.795533
O O2 0.622492 0.907768 0.773210
O O3 0.710909 0.841262 0.675443
O O4 0.710163 0.000000 0.699651
O O5 0.860953 0.848541 0.120119
O O6 0.887109 0.889915 0.257075
O O7 0.859526 0.000000 0.161041
O O8 0.878575 0.311601 0.886792
O O9 0.921221 0.259606 0.762837
O O10 0.000000 0.367907 0.833566
O O11 0.750000 0.250000 0.427944
O O12 0.628675 0.144046 0.434604
O O13 0.626931 0.282317 0.363707
O O14 0.500000 0.884249 0.500000
O O15 0.397848 0.000000 0.500000
O O16 0.750000 0.750000 0.089713
O O17 0.857950 0.774791 0.000000
O O18 0.000000 0.169301 0.676096
#
# Coordination Sequence:
#
# PCOD8268501 Si02
#       7
#    16  16  16  16   8  16  16
#     4  10  19  32  53  81 109 138 175 222 274 321
#     4  10  19  32  52  77 107 138 171 220 274 323
#     4   9  18  31  50  74 101 136 177 222 269 320
#     4  11  20  36  60  85 111 146 185 223 265 321
#     4  11  25  42  58  82 119 155 186 226 272 319
#     4  10  19  32  51  72  98 138 183 226 272 327
#     4   9  18  32  53  80 106 138 175 215 265 318
#
# _framework density 18.347269000000001
#
# number of rings (size 3 to 8) (size 9 to 14) (size 15 to 20)
#    0.000    2.077    3.077    1.154    0.000    1.846 
#    0.000    0.000    0.000    0.462    0.000    5.385 
#    0.000    4.308    0.000    0.000    0.000    0.000 
#
# Total GULP energy -644403.945368 kJ/mol
# GULP energy per Si atom -12392.383565 kJ/mol
# Density = 1.830551 g / cm^3
# Si number density = 18.347269 Si / 1000 Ang^3
#
#
#
# Elastic Constant Matrix: (Units=GPa)
#
#
# Indices 1 2 3 4 5 6 
#
# 1 118.9088 19.1896 25.3445 0.0000 0.0000 0.0000
# 2 19.1896 60.3417 27.2608 0.0000 0.0000 0.0000
# 3 25.3445 27.2608 70.1360 0.0000 0.0000 0.0000
# 4 0.0000 0.0000 0.0000 21.5173 0.0000 0.0000
# 5 0.0000 0.0000 0.0000 0.0000 21.1775 0.0000
# 6 0.0000 0.0000 0.0000 0.0000 0.0000 19.4389
#
#
#
# Elastic Compliance Matrix: (Units=1/GPa)
#
#
# Indices 1 2 3 4 5 6 
#
# 1 0.009260 -0.001738 -0.002670 0.000000 0.000000 0.000000
# 2 -0.001738 0.020428 -0.007312 0.000000 0.000000 0.000000
# 3 -0.002670 -0.007312 0.018065 0.000000 0.000000 0.000000
# 4 0.000000 0.000000 0.000000 0.046474 0.000000 0.000000
# 5 0.000000 0.000000 0.000000 0.000000 0.047220 0.000000
# 6 0.000000 0.000000 0.000000 0.000000 0.000000 0.051443
#
#
# Mechanical properties :
#
#
# Convention : Reuss Voigt Hill
#
# Bulk Modulus (GPa) = 41.13265 43.66402 42.39834
# Shear Modulus (GPa) = 22.27809 24.26619 23.27214
#
# Velocity S-wave (km/s) = 3.48838 3.64071 3.56536
# Velocity P-wave (km/s) = 6.22035 6.44386 6.33309
#
# Compressibility (1/GPa) = 0.02431159
#
# Stress axis : x y z
#
# Youngs Moduli (GPa) = 107.99714 48.95125 55.35540
#
# Poissons Ratio (x) = 0.08509 0.14782
# Poissons Ratio (y) = 0.18773 0.40476
# Poissons Ratio (z) = 0.28840 0.35794
#
# Static dielectric constant tensor:
#      x y z
#    x 3.660310 0.000000 0.000000 
#    y 0.000000 3.245530 0.000000 
#    z 0.000000 0.000000 3.177930 
# 
# 
# High freq. dielectric constant tensor:
#      x y z
#    x 1.721120 0.000000 0.000000 
#    y 0.000000 1.697390 0.000000 
#    z 0.000000 0.000000 1.687990 
# 
# From -- ./inp_files/54597.got.cif
#   From: 2010.03.12/outbox.cif.g09.slc.cpg/sg65_28_cif.got.tgz:54597.got - 2010.04.10 20:52:16.
