data_PCOD8268820
_publ_section_title
;
Structure prediction by ZEFSAII (Michael W. Deem and Ramdas Pophale) SiO2 
 PCOD8268820
Probable space group: C M M M
;
_chemical_formula_sum "Si O2"
_cell_formula_units_Z 56
_cell_length_a 18.019350
_cell_length_b 7.800161
_cell_length_c 19.592172
_cell_angle_alpha 90.000000
_cell_angle_beta 90.000000
_cell_angle_gamma 90.000000
_cell_volume 2753.754834
_symmetry_space_group_name_H-M "C M M M"
_symmetry_group_IT_number 65
_symmetry_cell_setting 'orthorhombic'
loop_
_space_group_symop_operation_xyz
x,y,z
-x,-y,z
x,-y,-z
-x,y,-z
-x,-y,-z
x,y,-z
-x,y,z
x,-y,z
1/2+x,1/2+y,z
1/2-x,1/2-y,z
1/2+x,1/2-y,-z
1/2-x,1/2+y,-z
1/2-x,1/2-y,-z
1/2+x,1/2+y,-z
1/2-x,1/2+y,z
1/2+x,1/2-y,z
loop_
_atom_site_type_symbol
_atom_site_label
_atom_site_fract_x
_atom_site_fract_y
_atom_site_fract_z
Si Si1 0.334463 0.193845 0.844553
Si Si2 0.584915 0.305838 0.282896
Si Si3 0.587608 0.196478 0.573327
Si Si4 0.085714 0.000000 0.080254
O O1 0.250000 0.250000 0.842136
O O2 0.366458 0.191772 0.767766
O O3 0.379039 0.325191 0.891720
O O4 0.341346 0.000000 0.873842
O O5 0.500000 0.238855 0.281780
O O6 0.589597 0.500000 0.256519
O O7 0.617940 0.296101 0.360120
O O8 0.619447 0.266081 0.500000
O O9 0.500000 0.218642 0.570804
O O10 0.610535 0.000000 0.581962
O O11 0.000000 0.000000 0.101541
O O12 0.097724 0.000000 0.000000
#
# Coordination Sequence:
#
# PCOD8268820 Si02
#       4
#    16  16  16   8
#     4  12  24  43  67  96 130 172 215 260 318 377
#     4  10  19  32  54  84 120 160 208 265 316 371
#     4   8  14  25  42  70 109 153 204 259 313 368
#     4  11  26  48  72 102 136 166 208 261 310 376
#
# _framework density 20.335871000000001
#
# number of rings (size 3 to 8) (size 9 to 14) (size 15 to 20)
#    0.000    1.857    2.857    2.571    0.000    5.143 
#    0.000    4.286    0.000    0.857    0.000    0.000 
#    0.000    0.000    0.000    0.000    0.000    0.000 
#
# Total GULP energy -347031.367408 kJ/mol
# GULP energy per Si atom -12393.977407 kJ/mol
# Density = 2.028959 g / cm^3
# Si number density = 20.335871 Si / 1000 Ang^3
#
#
#
# Elastic Constant Matrix: (Units=GPa)
#
#
# Indices 1 2 3 4 5 6 
#
# 1 99.6905 48.7643 61.3018 0.0000 0.0000 0.0000
# 2 48.7643 129.2872 47.8311 0.0000 0.0000 0.0000
# 3 61.3018 47.8311 112.4502 0.0000 0.0000 0.0000
# 4 0.0000 0.0000 0.0000 29.2725 0.0000 0.0000
# 5 0.0000 0.0000 0.0000 0.0000 0.6802 0.0000
# 6 0.0000 0.0000 0.0000 0.0000 0.0000 24.7382
#
#
#
# Elastic Compliance Matrix: (Units=1/GPa)
#
#
# Indices 1 2 3 4 5 6 
#
# 1 0.016248 -0.003384 -0.007418 0.000000 0.000000 0.000000
# 2 -0.003384 0.009884 -0.002359 0.000000 0.000000 0.000000
# 3 -0.007418 -0.002359 0.013940 0.000000 0.000000 0.000000
# 4 0.000000 0.000000 0.000000 0.034162 0.000000 0.000000
# 5 0.000000 0.000000 0.000000 0.000000 1.470114 0.000000
# 6 0.000000 0.000000 0.000000 0.000000 0.000000 0.040423
#
#
# Mechanical properties :
#
#
# Convention : Reuss Voigt Hill
#
# Bulk Modulus (GPa) = 72.73122 73.02471 72.87796
# Shear Modulus (GPa) = 3.09468 23.17357 13.13412
#
# Velocity S-wave (km/s) = 1.23494 3.37937 2.54413
# Velocity P-wave (km/s) = 6.15435 7.15641 6.67421
#
# Compressibility (1/GPa) = 0.01374925
#
# Stress axis : x y z
#
# Youngs Moduli (GPa) = 61.54660 101.17402 71.73420
#
# Poissons Ratio (x) = 0.34237 0.53213
# Poissons Ratio (y) = 0.20827 0.16925
# Poissons Ratio (z) = 0.45656 0.23871
#
# Static dielectric constant tensor:
#      x y z
#    x 3.379410 0.000000 0.000000 
#    y 0.000000 3.703050 0.000000 
#    z 0.000000 0.000000 3.879120 
# 
# 
# High freq. dielectric constant tensor:
#      x y z
#    x 1.751220 0.000000 0.000000 
#    y 0.000000 1.794970 0.000000 
#    z 0.000000 0.000000 1.810260 
# 
# From -- ./inp_files/63214.got.cif
#   From: 2010.03.12/outbox.cif.g09.slc.cpg/sg65_32_cif.got.tgz:63214.got - 2010.04.10 20:52:16.
