data_PCOD8268694
_publ_section_title
;
Structure prediction by ZEFSAII (Michael W. Deem and Ramdas Pophale) SiO2 
 PCOD8268694
Probable space group: C M M M
;
_chemical_formula_sum "Si O2"
_cell_formula_units_Z 104
_cell_length_a 20.032198
_cell_length_b 14.459093
_cell_length_c 18.190844
_cell_angle_alpha 90.000000
_cell_angle_beta 90.000000
_cell_angle_gamma 90.000000
_cell_volume 5268.930921
_symmetry_space_group_name_H-M "C M M M"
_symmetry_group_IT_number 65
_symmetry_cell_setting 'orthorhombic'
loop_
_space_group_symop_operation_xyz
x,y,z
-x,-y,z
x,-y,-z
-x,y,-z
-x,-y,-z
x,y,-z
-x,y,z
x,-y,z
1/2+x,1/2+y,z
1/2-x,1/2-y,z
1/2+x,1/2-y,-z
1/2-x,1/2+y,-z
1/2-x,1/2-y,-z
1/2+x,1/2+y,-z
1/2-x,1/2+y,z
1/2+x,1/2-y,z
loop_
_atom_site_type_symbol
_atom_site_label
_atom_site_fract_x
_atom_site_fract_y
_atom_site_fract_z
Si Si1 0.727981 0.399161 0.918711
Si Si2 0.666635 0.891582 0.348231
Si Si3 0.354214 0.897237 0.819790
Si Si4 0.424128 0.742498 0.586572
Si Si5 0.500000 0.399283 0.087233
Si Si6 0.691724 0.606745 0.413729
Si Si7 0.110976 0.763863 0.915726
O O1 0.690159 0.500000 0.914248
O O2 0.782321 0.397222 0.856327
O O3 0.683374 0.308850 0.907401
O O4 0.761310 0.391190 0.000000
O O5 0.655975 0.865463 0.263437
O O6 0.607915 0.841092 0.392864
O O7 0.740572 0.859051 0.373432
O O8 0.658436 0.000000 0.363760
O O9 0.400116 0.825455 0.864386
O O10 0.386419 0.000000 0.823809
O O11 0.429713 0.734748 0.500000
O O12 0.500000 0.732005 0.619429
O O13 0.372980 0.663175 0.615770
O O14 0.500000 0.500000 0.124634
O O15 0.436419 0.343429 0.114781
O O16 0.500000 0.409351 0.000000
O O17 0.702979 0.623502 0.500000
O O18 0.677318 0.500000 0.395701
O O19 0.094670 0.736550 0.000000
#
# Coordination Sequence:
#
# PCOD8268694 Si02
#       7
#    16  16  16  16   8  16  16
#     4   9  17  30  50  77 106 134 169 218 272 321
#     4  10  21  37  56  79 108 146 189 230 273 321
#     4  10  21  35  51  75 105 140 178 220 270 321
#     4  10  21  36  56  84 114 144 179 222 274 330
#     4   9  18  34  55  77 101 131 171 218 266 320
#     4   9  18  34  58  86 114 145 181 223 271 326
#     4  10  19  32  52  77 104 137 177 220 267 318
#
# _framework density 19.738348999999999
#
# number of rings (size 3 to 8) (size 9 to 14) (size 15 to 20)
#    0.000    2.385    0.000    2.308    0.000    9.231 
#    1.385    2.692    0.000    2.308    0.000    0.000 
#    0.000    0.000    0.000    0.000    0.000    0.000 
#
# Total GULP energy -644482.861585 kJ/mol
# GULP energy per Si atom -12393.901184 kJ/mol
# Density = 1.969342 g / cm^3
# Si number density = 19.738349 Si / 1000 Ang^3
#
#
#
# Elastic Constant Matrix: (Units=GPa)
#
#
# Indices 1 2 3 4 5 6 
#
# 1 116.6679 56.0961 26.6514 0.0000 0.0000 0.0000
# 2 56.0961 115.0549 37.0334 0.0000 0.0000 0.0000
# 3 26.6514 37.0334 41.3504 0.0000 0.0000 0.0000
# 4 0.0000 0.0000 0.0000 16.8605 0.0000 0.0000
# 5 0.0000 0.0000 0.0000 0.0000 94.8610 0.0000
# 6 0.0000 0.0000 0.0000 0.0000 0.0000 36.0995
#
#
#
# Elastic Compliance Matrix: (Units=1/GPa)
#
#
# Indices 1 2 3 4 5 6 
#
# 1 0.011520 -0.004534 -0.003364 0.000000 0.000000 0.000000
# 2 -0.004534 0.013996 -0.009613 0.000000 0.000000 0.000000
# 3 -0.003364 -0.009613 0.034961 0.000000 0.000000 0.000000
# 4 0.000000 0.000000 0.000000 0.059310 0.000000 0.000000
# 5 0.000000 0.000000 0.000000 0.000000 0.010542 0.000000
# 6 0.000000 0.000000 0.000000 0.000000 0.000000 0.027701
#
#
# Mechanical properties :
#
#
# Convention : Reuss Voigt Hill
#
# Bulk Modulus (GPa) = 39.28457 56.95943 48.12200
# Shear Modulus (GPa) = 24.80930 39.78368 32.29649
#
# Velocity S-wave (km/s) = 3.54914 4.49436 4.04942
# Velocity P-wave (km/s) = 6.06144 7.47344 6.80416
#
# Compressibility (1/GPa) = 0.02545529
#
# Stress axis : x y z
#
# Youngs Moduli (GPa) = 86.80727 71.44865 28.60305
#
# Poissons Ratio (x) = 0.32392 0.09623
# Poissons Ratio (y) = 0.39355 0.27496
# Poissons Ratio (z) = 0.29206 0.68682
#
# Static dielectric constant tensor:
#      x y z
#    x 3.576990 0.000000 0.000000 
#    y 0.000000 4.012500 0.000000 
#    z 0.000000 0.000000 3.405540 
# 
# 
# High freq. dielectric constant tensor:
#      x y z
#    x 1.750940 0.000000 0.000000 
#    y 0.000000 1.786760 0.000000 
#    z 0.000000 0.000000 1.746790 
# 
# From -- ./inp_files/55848.got.cif
#   From: 2010.03.12/outbox.cif.g09.slc.cpg/sg65_28_cif.got.tgz:55848.got - 2010.04.10 20:52:16.
