data_PCOD8268868
_publ_section_title
;
Structure prediction by ZEFSAII (Michael W. Deem and Ramdas Pophale) SiO2 
 PCOD8268868
Probable space group: C M M M
;
_chemical_formula_sum "Si O2"
_cell_formula_units_Z 104
_cell_length_a 29.005468
_cell_length_b 8.897511
_cell_length_c 23.537715
_cell_angle_alpha 90.000000
_cell_angle_beta 90.000000
_cell_angle_gamma 90.000000
_cell_volume 6074.530413
_symmetry_space_group_name_H-M "C M M M"
_symmetry_group_IT_number 65
_symmetry_cell_setting 'orthorhombic'
loop_
_space_group_symop_operation_xyz
x,y,z
-x,-y,z
x,-y,-z
-x,y,-z
-x,-y,-z
x,y,-z
-x,y,z
x,-y,z
1/2+x,1/2+y,z
1/2-x,1/2-y,z
1/2+x,1/2-y,-z
1/2-x,1/2+y,-z
1/2-x,1/2-y,-z
1/2+x,1/2+y,-z
1/2-x,1/2+y,z
1/2+x,1/2-y,z
loop_
_atom_site_type_symbol
_atom_site_label
_atom_site_fract_x
_atom_site_fract_y
_atom_site_fract_z
Si Si1 0.703047 0.176089 0.742197
Si Si2 0.608194 0.821463 0.437371
Si Si3 0.445242 0.335336 0.000000
Si Si4 0.553446 0.176869 0.671146
Si Si5 0.948383 0.179654 0.878307
Si Si6 0.889829 0.178602 0.771997
Si Si7 0.203723 0.674927 0.390085
O O1 0.750000 0.250000 0.765320
O O2 0.660791 0.251450 0.774947
O O3 0.696908 0.212237 0.675944
O O4 0.703996 0.000000 0.754758
O O5 0.593778 0.761862 0.500000
O O6 0.570890 0.768469 0.390872
O O7 0.659100 0.758916 0.422256
O O8 0.610423 0.000000 0.437096
O O9 0.431332 0.254643 0.940158
O O10 0.422117 0.500000 0.000000
O O11 0.500000 0.352432 0.000000
O O12 0.500000 0.218506 0.676473
O O13 0.581766 0.265272 0.718062
O O14 0.562460 0.000000 0.679380
O O15 0.914962 0.236962 0.828873
O O16 0.000000 0.237629 0.864370
O O17 0.948615 0.000000 0.881741
O O18 0.886593 0.000000 0.769277
O O19 0.209020 0.500000 0.400998
O O20 0.250000 0.750000 0.414435
#
# Coordination Sequence:
#
# PCOD8268868 Si02
#       7
#    16  16   8  16  16  16  16
#     4  10  19  33  51  72  98 125 157 194 238 288
#     4   9  17  31  49  68  90 117 153 198 243 286
#     4   7  10  20  38  60  92 131 164 197 234 269
#     4  10  20  34  50  68  92 124 162 203 245 286
#     4   8  14  24  40  66  99 132 165 198 232 274
#     4  11  20  30  48  74 102 129 158 194 239 286
#     4   9  17  30  48  68  91 115 143 183 232 285
#
# _framework density 17.120664999999999
#
# number of rings (size 3 to 8) (size 9 to 14) (size 15 to 20)
#    0.000    2.692    1.538    2.308    0.000    2.154 
#    0.000    1.538    0.000    1.385    0.000    3.769 
#    0.000    8.615    0.000    0.000    0.000    0.000 
#
# Total GULP energy -644489.495937 kJ/mol
# GULP energy per Si atom -12394.028768 kJ/mol
# Density = 1.708170 g / cm^3
# Si number density = 17.120665 Si / 1000 Ang^3
#
#
#
# Elastic Constant Matrix: (Units=GPa)
#
#
# Indices 1 2 3 4 5 6 
#
# 1 124.3621 33.8136 68.6256 0.0000 0.0000 0.0000
# 2 33.8136 34.3179 30.1924 0.0000 0.0000 0.0000
# 3 68.6256 30.1924 130.1495 0.0000 0.0000 0.0000
# 4 0.0000 0.0000 0.0000 10.4447 0.0000 0.0000
# 5 0.0000 0.0000 0.0000 0.0000 22.1943 0.0000
# 6 0.0000 0.0000 0.0000 0.0000 0.0000 25.1489
#
#
#
# Elastic Compliance Matrix: (Units=1/GPa)
#
#
# Indices 1 2 3 4 5 6 
#
# 1 0.013080 -0.008569 -0.004909 0.000000 0.000000 0.000000
# 2 -0.008569 0.042225 -0.005277 0.000000 0.000000 0.000000
# 3 -0.004909 -0.005277 0.011496 0.000000 0.000000 0.000000
# 4 0.000000 0.000000 0.000000 0.095742 0.000000 0.000000
# 5 0.000000 0.000000 0.000000 0.000000 0.045057 0.000000
# 6 0.000000 0.000000 0.000000 0.000000 0.000000 0.039763
#
#
# Mechanical properties :
#
#
# Convention : Reuss Voigt Hill
#
# Bulk Modulus (GPa) = 34.14023 61.56587 47.85305
# Shear Modulus (GPa) = 16.97008 21.97078 19.47043
#
# Velocity S-wave (km/s) = 3.15176 3.58619 3.37597
# Velocity P-wave (km/s) = 5.76446 7.29285 6.57323
#
# Compressibility (1/GPa) = 0.02929095
#
# Stress axis : x y z
#
# Youngs Moduli (GPa) = 76.45458 23.68262 86.98598
#
# Poissons Ratio (x) = 0.20293 0.42701
# Poissons Ratio (y) = 0.65512 0.45906
# Poissons Ratio (z) = 0.37531 0.12498
#
# Static dielectric constant tensor:
#      x y z
#    x 3.306980 0.000000 0.000000 
#    y 0.000000 2.885580 0.000000 
#    z 0.000000 0.000000 3.487150 
# 
# 
# High freq. dielectric constant tensor:
#      x y z
#    x 1.656210 0.000000 0.000000 
#    y 0.000000 1.625180 0.000000 
#    z 0.000000 0.000000 1.654750 
# 
# From -- ./inp_files/71856.got.cif
#   From: 2010.03.12/outbox.cif.g09.slc.cpg/sg65_36_cif.got.tgz:71856.got - 2010.04.10 20:52:16.
