data_PCOD8268115
_publ_section_title
;
Structure prediction by ZEFSAII (Michael W. Deem and Ramdas Pophale) SiO2 
 PCOD8268115
Probable space group: C M M M
;
_chemical_formula_sum "Si O2"
_cell_formula_units_Z 88
_cell_length_a 17.950540
_cell_length_b 9.542780
_cell_length_c 28.621055
_cell_angle_alpha 90.000000
_cell_angle_beta 90.000000
_cell_angle_gamma 90.000000
_cell_volume 4902.731028
_symmetry_space_group_name_H-M "C M M M"
_symmetry_group_IT_number 65
_symmetry_cell_setting 'orthorhombic'
loop_
_space_group_symop_operation_xyz
x,y,z
-x,-y,z
x,-y,-z
-x,y,-z
-x,-y,-z
x,y,-z
-x,y,z
x,-y,z
1/2+x,1/2+y,z
1/2-x,1/2-y,z
1/2+x,1/2-y,-z
1/2-x,1/2+y,-z
1/2-x,1/2-y,-z
1/2+x,1/2+y,-z
1/2-x,1/2+y,z
1/2+x,1/2-y,z
loop_
_atom_site_type_symbol
_atom_site_label
_atom_site_fract_x
_atom_site_fract_y
_atom_site_fract_z
Si Si1 0.826200 0.666470 0.909464
Si Si2 0.414140 0.837588 0.636611
Si Si3 0.911457 0.842234 0.448616
Si Si4 0.083116 0.665682 0.000000
Si Si5 0.416907 0.834172 0.818870
Si Si6 0.325581 0.165313 0.729116
O O1 0.810735 0.500000 0.909618
O O2 0.750000 0.750000 0.910033
O O3 0.873222 0.715889 0.954204
O O4 0.871643 0.715748 0.864079
O O5 0.500000 0.797005 0.645477
O O6 0.379419 0.756655 0.592097
O O7 0.368947 0.793791 0.682254
O O8 0.405637 0.000000 0.625288
O O9 0.882718 0.793411 0.500000
O O10 0.000000 0.834654 0.448290
O O11 0.884305 0.000000 0.438633
O O12 0.076439 0.500000 0.000000
O O13 0.000000 0.731293 0.000000
O O14 0.500000 0.768808 0.820078
O O15 0.375271 0.782568 0.772426
O O16 0.423295 0.000000 0.818657
O O17 0.250000 0.250000 0.730519
O O18 0.309009 0.000000 0.731967
#
# Coordination Sequence:
#
# PCOD8268115 Si02
#       6
#    16  16  16   8  16  16
#     4  10  19  31  50  74 100 130 162 200 245 290
#     4   9  17  29  46  68  92 119 153 192 231 271
#     4   8  14  25  42  66  95 123 150 184 229 278
#     4   9  17  30  49  73  98 127 170 214 242 275
#     4   9  17  31  52  74  94 122 162 201 236 279
#     4  10  20  33  49  69  94 123 155 193 235 281
#
# _framework density 17.949179999999998
#
# number of rings (size 3 to 8) (size 9 to 14) (size 15 to 20)
#    0.000    2.818    0.000    2.455    0.000    5.455 
#    0.000    1.818    0.000    6.000    0.000    0.000 
#    0.000    0.000    0.000    0.000    0.000    0.000 
#
# Total GULP energy -545509.061881 kJ/mol
# GULP energy per Si atom -12397.933225 kJ/mol
# Density = 1.790833 g / cm^3
# Si number density = 17.949180 Si / 1000 Ang^3
#
#
#
# Elastic Constant Matrix: (Units=GPa)
#
#
# Indices 1 2 3 4 5 6 
#
# 1 136.5447 45.5399 89.8145 0.0000 0.0000 0.0000
# 2 45.5399 38.4562 53.8105 0.0000 0.0000 0.0000
# 3 89.8145 53.8105 202.5468 0.0000 0.0000 0.0000
# 4 0.0000 0.0000 0.0000 13.6936 0.0000 0.0000
# 5 0.0000 0.0000 0.0000 0.0000 4.0559 0.0000
# 6 0.0000 0.0000 0.0000 0.0000 0.0000 26.6798
#
#
#
# Elastic Compliance Matrix: (Units=1/GPa)
#
#
# Indices 1 2 3 4 5 6 
#
# 1 0.012942 -0.011613 -0.002654 0.000000 0.000000 0.000000
# 2 -0.011613 0.051810 -0.008615 0.000000 0.000000 0.000000
# 3 -0.002654 -0.008615 0.008403 0.000000 0.000000 0.000000
# 4 0.000000 0.000000 0.000000 0.073027 0.000000 0.000000
# 5 0.000000 0.000000 0.000000 0.000000 0.246553 0.000000
# 6 0.000000 0.000000 0.000000 0.000000 0.000000 0.037482
#
#
# Mechanical properties :
#
#
# Convention : Reuss Voigt Hill
#
# Bulk Modulus (GPa) = 36.50717 83.98638 60.24678
# Shear Modulus (GPa) = 10.30692 21.44470 15.87581
#
# Velocity S-wave (km/s) = 2.39891 3.46026 2.97726
# Velocity P-wave (km/s) = 5.29682 7.92826 6.74217
#
# Compressibility (1/GPa) = 0.02739188
#
# Stress axis : x y z
#
# Youngs Moduli (GPa) = 77.26632 19.30121 119.01115
#
# Poissons Ratio (x) = 0.22414 0.31582
# Poissons Ratio (y) = 0.89729 1.02527
# Poissons Ratio (z) = 0.20504 0.16628
#
# Static dielectric constant tensor:
#      x y z
#    x 3.246110 0.000000 0.000000 
#    y 0.000000 3.034420 0.000000 
#    z 0.000000 0.000000 3.837080 
# 
# 
# High freq. dielectric constant tensor:
#      x y z
#    x 1.682630 0.000000 0.000000 
#    y 0.000000 1.657950 0.000000 
#    z 0.000000 0.000000 1.717580 
# 
# From -- ./inp_files/69806.got.cif
#   From: 2010.03.12/outbox.cif.g09.slc.cpg/sg65_35_cif.got.tgz:69806.got - 2010.04.10 20:52:16.
