data_PCOD8268644
_publ_section_title
;
Structure prediction by ZEFSAII (Michael W. Deem and Ramdas Pophale) SiO2 
 PCOD8268644
Probable space group: C M M M
;
_chemical_formula_sum "Si O2"
_cell_formula_units_Z 80
_cell_length_a 25.698573
_cell_length_b 18.924759
_cell_length_c 9.069184
_cell_angle_alpha 90.000000
_cell_angle_beta 90.000000
_cell_angle_gamma 90.000000
_cell_volume 4410.700604
_symmetry_space_group_name_H-M "C M M M"
_symmetry_group_IT_number 65
_symmetry_cell_setting 'orthorhombic'
loop_
_space_group_symop_operation_xyz
x,y,z
-x,-y,z
x,-y,-z
-x,y,-z
-x,-y,-z
x,y,-z
-x,y,z
x,-y,z
1/2+x,1/2+y,z
1/2-x,1/2-y,z
1/2+x,1/2-y,-z
1/2-x,1/2+y,-z
1/2-x,1/2-y,-z
1/2+x,1/2+y,-z
1/2-x,1/2+y,z
1/2+x,1/2-y,z
loop_
_atom_site_type_symbol
_atom_site_label
_atom_site_fract_x
_atom_site_fract_y
_atom_site_fract_z
Si Si1 0.500000 0.832016 0.834382
Si Si2 0.700772 0.918293 0.670222
Si Si3 0.603254 0.334794 0.672913
Si Si4 0.305912 0.417220 0.829871
Si Si5 0.500000 0.663982 0.166968
Si Si6 0.397892 0.829209 0.328414
O O1 0.500000 0.747936 0.828531
O O2 0.551724 0.860186 0.754408
O O3 0.500000 0.861084 0.000000
O O4 0.714134 0.901931 0.500000
O O5 0.749499 0.895589 0.769191
O O6 0.652134 0.872480 0.725847
O O7 0.686522 0.000000 0.692989
O O8 0.598139 0.348604 0.500000
O O9 0.651888 0.376463 0.735343
O O10 0.551139 0.364422 0.750072
O O11 0.611681 0.252566 0.709257
O O12 0.315585 0.500000 0.808281
O O13 0.309790 0.394682 0.000000
O O14 0.500000 0.635090 0.000000
O O15 0.408251 0.840785 0.500000
#
# Coordination Sequence:
#
# PCOD8268644 Si02
#       6
#     8  16  16  16   8  16
#     4   9  17  29  48  73 100 132 165 198 242 293
#     4   9  18  34  54  73  96 130 169 205 243 289
#     4  10  19  32  52  76 101 129 163 202 243 290
#     4  10  21  36  52  71  98 131 164 201 247 294
#     4   9  17  31  50  73 102 131 161 199 244 291
#     4   9  18  32  51  75 101 129 163 204 246 287
#
# _framework density 18.137708
#
# number of rings (size 3 to 8) (size 9 to 14) (size 15 to 20)
#    0.000    2.600    0.000    1.800    0.000    6.000 
#    0.000    5.000    0.000    6.000    0.000    0.000 
#    0.000    0.000    0.000    0.000    0.000    0.000 
#
# Total GULP energy -496093.180086 kJ/mol
# GULP energy per Si atom -12402.329502 kJ/mol
# Density = 1.809643 g / cm^3
# Si number density = 18.137708 Si / 1000 Ang^3
#
#
#
# Elastic Constant Matrix: (Units=GPa)
#
#
# Indices 1 2 3 4 5 6 
#
# 1 168.6969 58.6408 78.9654 0.0000 0.0000 0.0000
# 2 58.6408 41.5525 37.6478 0.0000 0.0000 0.0000
# 3 78.9654 37.6478 105.3012 0.0000 0.0000 0.0000
# 4 0.0000 0.0000 0.0000 20.5130 0.0000 0.0000
# 5 0.0000 0.0000 0.0000 0.0000 22.0544 0.0000
# 6 0.0000 0.0000 0.0000 0.0000 0.0000 -25.5975
#
#
#
# Elastic Compliance Matrix: (Units=1/GPa)
#
#
# Indices 1 2 3 4 5 6 
#
# 1 0.013061 -0.014138 -0.004740 0.000000 0.000000 0.000000
# 2 -0.014138 0.050900 -0.007596 0.000000 0.000000 0.000000
# 3 -0.004740 -0.007596 0.015767 0.000000 0.000000 0.000000
# 4 0.000000 0.000000 0.000000 0.048749 0.000000 0.000000
# 5 0.000000 0.000000 0.000000 0.000000 0.045342 0.000000
# 6 0.000000 0.000000 0.000000 0.000000 0.000000 -0.039066
#
#
# Mechanical properties :
#
#
# Convention : Reuss Voigt Hill
#
# Bulk Modulus (GPa) = 37.34077 74.00652 55.67364
# Shear Modulus (GPa) = 25.42882 12.74709 19.08796
#
# Velocity S-wave (km/s) = 3.74837 2.65390 3.24758
# Velocity P-wave (km/s) = 6.27422 7.09099 6.69507
#
# Compressibility (1/GPa) = 0.02678038
#
# Stress axis : x y z
#
# Youngs Moduli (GPa) = 76.56490 19.64635 63.42469
#
# Poissons Ratio (x) = 0.27775 0.30062
# Poissons Ratio (y) = 1.08245 0.48179
# Poissons Ratio (z) = 0.36290 0.14924
#
# Static dielectric constant tensor:
#      x y z
#    x 3.522570 0.000000 0.000000 
#    y 0.000000 3.110980 0.000000 
#    z 0.000000 0.000000 3.449150 
# 
# 
# High freq. dielectric constant tensor:
#      x y z
#    x 1.716360 0.000000 0.000000 
#    y 0.000000 1.672500 0.000000 
#    z 0.000000 0.000000 1.710570 
# 
# From -- ./inp_files/11606.got.cif
#   From: 2010.03.12/outbox.cif.g09.slc.cpg/sg65_6_cif.got.tgz:11606.got - 2010.04.10 20:52:16.
