data_PCOD8268587
_publ_section_title
;
Structure prediction by ZEFSAII (Michael W. Deem and Ramdas Pophale) SiO2 
 PCOD8268587
Probable space group: C M M M
;
_chemical_formula_sum "Si O2"
_cell_formula_units_Z 104
_cell_length_a 8.798946
_cell_length_b 28.353628
_cell_length_c 23.075934
_cell_angle_alpha 90.000000
_cell_angle_beta 90.000000
_cell_angle_gamma 90.000000
_cell_volume 5757.031128
_symmetry_space_group_name_H-M "C M M M"
_symmetry_group_IT_number 65
_symmetry_cell_setting 'orthorhombic'
loop_
_space_group_symop_operation_xyz
x,y,z
-x,-y,z
x,-y,-z
-x,y,-z
-x,-y,-z
x,y,-z
-x,y,z
x,-y,z
1/2+x,1/2+y,z
1/2-x,1/2-y,z
1/2+x,1/2-y,-z
1/2-x,1/2+y,-z
1/2-x,1/2-y,-z
1/2+x,1/2+y,-z
1/2-x,1/2+y,z
1/2+x,1/2-y,z
loop_
_atom_site_type_symbol
_atom_site_label
_atom_site_fract_x
_atom_site_fract_y
_atom_site_fract_z
Si Si1 0.326058 0.052233 0.732160
Si Si2 0.320679 0.801129 0.000000
Si Si3 0.323163 0.553145 0.853611
Si Si4 0.179474 0.800824 0.781363
Si Si5 0.176750 0.352601 0.675767
Si Si6 0.321013 0.856105 0.886412
Si Si7 0.321550 0.200911 0.435661
O O1 0.500000 0.057497 0.753769
O O2 0.217008 0.060441 0.786374
O O3 0.288124 0.091799 0.684145
O O4 0.299156 0.000000 0.705159
O O5 0.250000 0.750000 0.000000
O O6 0.264400 0.828935 0.056607
O O7 0.500000 0.796139 0.000000
O O8 0.500000 0.563861 0.861764
O O9 0.282343 0.500000 0.873367
O O10 0.226458 0.589099 0.893008
O O11 0.250000 0.750000 0.792954
O O12 0.226810 0.820524 0.719050
O O13 0.236928 0.836102 0.830480
O O14 0.000000 0.796441 0.784719
O O15 0.224750 0.339574 0.610152
O O16 0.000000 0.341380 0.687126
O O17 0.500000 0.851408 0.877646
O O18 0.262629 0.186469 0.500000
O O19 0.500000 0.208404 0.436575
O O20 0.250000 0.250000 0.415175
#
# Coordination Sequence:
#
# PCOD8268587 Si02
#       7
#    16   8  16  16  16  16  16
#     4   9  17  30  50  75 104 139 176 214 260 317
#     4  10  24  42  61  82 105 139 182 223 261 316
#     4  10  20  34  54  82 112 141 176 218 265 316
#     4  12  24  36  52  77 108 139 172 217 269 319
#     4  10  19  32  51  76 105 137 175 219 267 319
#     4  11  22  39  59  81 108 140 179 219 265 318
#     4   9  18  32  49  70  99 137 179 221 265 314
#
# _framework density 18.064867
#
# number of rings (size 3 to 8) (size 9 to 14) (size 15 to 20)
#    0.000    1.846    1.538    3.231    0.000    5.231 
#    0.000    0.385    0.000    2.769    0.000    3.231 
#    0.000    0.000    0.000    9.077    0.000    9.538 
#
# Total GULP energy -644837.784927 kJ/mol
# GULP energy per Si atom -12400.726633 kJ/mol
# Density = 1.802375 g / cm^3
# Si number density = 18.064867 Si / 1000 Ang^3
#
#
#
# Elastic Constant Matrix: (Units=GPa)
#
#
# Indices 1 2 3 4 5 6 
#
# 1 66.6711 36.4193 30.3494 0.0000 0.0000 0.0000
# 2 36.4193 135.4964 56.8382 0.0000 0.0000 0.0000
# 3 30.3494 56.8382 98.5421 0.0000 0.0000 0.0000
# 4 0.0000 0.0000 0.0000 31.2977 0.0000 0.0000
# 5 0.0000 0.0000 0.0000 0.0000 11.2140 0.0000
# 6 0.0000 0.0000 0.0000 0.0000 0.0000 28.3036
#
#
#
# Elastic Compliance Matrix: (Units=1/GPa)
#
#
# Indices 1 2 3 4 5 6 
#
# 1 0.018573 -0.003420 -0.003748 0.000000 0.000000 0.000000
# 2 -0.003420 0.010366 -0.004925 0.000000 0.000000 0.000000
# 3 -0.003748 -0.004925 0.014143 0.000000 0.000000 0.000000
# 4 0.000000 0.000000 0.000000 0.031951 0.000000 0.000000
# 5 0.000000 0.000000 0.000000 0.000000 0.089174 0.000000
# 6 0.000000 0.000000 0.000000 0.000000 0.000000 0.035331
#
#
# Mechanical properties :
#
#
# Convention : Reuss Voigt Hill
#
# Bulk Modulus (GPa) = 52.92227 60.88040 56.90133
# Shear Modulus (GPa) = 21.73690 25.96992 23.85341
#
# Velocity S-wave (km/s) = 3.47258 3.79567 3.63772
# Velocity P-wave (km/s) = 6.74075 7.27899 7.01503
#
# Compressibility (1/GPa) = 0.01889564
#
# Stress axis : x y z
#
# Youngs Moduli (GPa) = 53.84102 96.47192 70.70583
#
# Poissons Ratio (x) = 0.32995 0.26497
# Poissons Ratio (y) = 0.18415 0.34826
# Poissons Ratio (z) = 0.20177 0.47517
#
# Static dielectric constant tensor:
#      x y z
#    x 3.337580 0.000000 0.000000 
#    y 0.000000 3.690890 0.000000 
#    z 0.000000 0.000000 3.362310 
# 
# 
# High freq. dielectric constant tensor:
#      x y z
#    x 1.700880 0.000000 0.000000 
#    y 0.000000 1.710720 0.000000 
#    z 0.000000 0.000000 1.678340 
# 
# From -- ./inp_files/60833.got.cif
#   From: 2010.03.12/outbox.cif.g09.slc.cpg/sg65_31_cif.got.tgz:60833.got - 2010.04.10 20:52:16.
