data_PCOD8268802
_publ_section_title
;
Structure prediction by ZEFSAII (Michael W. Deem and Ramdas Pophale) SiO2 
 PCOD8268802
Probable space group: C M M M
;
_chemical_formula_sum "Si O2"
_cell_formula_units_Z 88
_cell_length_a 27.643075
_cell_length_b 19.320711
_cell_length_c 8.593018
_cell_angle_alpha 90.000000
_cell_angle_beta 90.000000
_cell_angle_gamma 90.000000
_cell_volume 4589.392250
_symmetry_space_group_name_H-M "C M M M"
_symmetry_group_IT_number 65
_symmetry_cell_setting 'orthorhombic'
loop_
_space_group_symop_operation_xyz
x,y,z
-x,-y,z
x,-y,-z
-x,y,-z
-x,-y,-z
x,y,-z
-x,y,z
x,-y,z
1/2+x,1/2+y,z
1/2-x,1/2-y,z
1/2+x,1/2-y,-z
1/2-x,1/2+y,-z
1/2-x,1/2-y,-z
1/2+x,1/2+y,-z
1/2-x,1/2+y,z
1/2+x,1/2-y,z
loop_
_atom_site_type_symbol
_atom_site_label
_atom_site_fract_x
_atom_site_fract_y
_atom_site_fract_z
Si Si1 0.500000 0.578834 0.185004
Si Si2 0.121357 0.304291 0.685281
Si Si3 0.554005 0.075989 0.685007
Si Si4 0.728566 0.179091 0.315303
Si Si5 0.096822 0.155588 0.182999
Si Si6 0.187674 0.919675 0.681348
O O1 0.500000 0.500000 0.250859
O O2 0.547747 0.619134 0.245644
O O3 0.500000 0.576110 0.000000
O O4 0.121398 0.303653 0.500000
O O5 0.086818 0.363461 0.755845
O O6 0.174201 0.325168 0.750574
O O7 0.102935 0.230026 0.739537
O O8 0.554037 0.080571 0.500000
O O9 0.500000 0.086926 0.749400
O O10 0.573333 0.000000 0.736395
O O11 0.726866 0.180002 0.500000
O O12 0.750000 0.250000 0.248820
O O13 0.762970 0.116658 0.258502
O O14 0.141906 0.107059 0.223589
O O15 0.093970 0.165888 0.000000
O O16 0.178789 0.903041 0.500000
O O17 0.194528 0.000000 0.714086
#
# Coordination Sequence:
#
# PCOD8268802 Si02
#       6
#     8  16  16  16  16  16
#     4   9  20  38  55  71  98 137 174 212 263 321
#     4  10  19  32  54  79 107 141 176 215 258 309
#     4   8  15  28  47  75 107 134 165 211 263 306
#     4   9  16  30  50  73 104 136 165 203 254 304
#     4  11  22  36  55  78 105 138 176 217 264 319
#     4  10  20  35  56  80 105 136 177 220 260 308
#
# _framework density 19.174651999999998
#
# number of rings (size 3 to 8) (size 9 to 14) (size 15 to 20)
#    0.000    2.455    1.818    1.636    1.273    1.818 
#    0.000    6.818    0.000    3.818    0.000    1.273 
#    0.000    0.000    0.000    0.000    0.000    0.000 
#
# Total GULP energy -545436.813191 kJ/mol
# GULP energy per Si atom -12396.291209 kJ/mol
# Density = 1.913101 g / cm^3
# Si number density = 19.174652 Si / 1000 Ang^3
#
#
#
# Elastic Constant Matrix: (Units=GPa)
#
#
# Indices 1 2 3 4 5 6 
#
# 1 171.9838 101.5102 13.4255 0.0000 0.0000 0.0000
# 2 101.5102 158.2520 9.8371 0.0000 0.0000 0.0000
# 3 13.4255 9.8371 15.1450 0.0000 0.0000 0.0000
# 4 0.0000 0.0000 0.0000 11.6709 0.0000 0.0000
# 5 0.0000 0.0000 0.0000 0.0000 16.1207 0.0000
# 6 0.0000 0.0000 0.0000 0.0000 0.0000 45.0881
#
#
#
# Elastic Compliance Matrix: (Units=1/GPa)
#
#
# Indices 1 2 3 4 5 6 
#
# 1 0.009672 -0.005910 -0.004736 0.000000 0.000000 0.000000
# 2 -0.005910 0.010196 -0.001384 0.000000 0.000000 0.000000
# 3 -0.004736 -0.001384 0.071125 0.000000 0.000000 0.000000
# 4 0.000000 0.000000 0.000000 0.085683 0.000000 0.000000
# 5 0.000000 0.000000 0.000000 0.000000 0.062032 0.000000
# 6 0.000000 0.000000 0.000000 0.000000 0.000000 0.022179
#
#
# Mechanical properties :
#
#
# Convention : Reuss Voigt Hill
#
# Bulk Modulus (GPa) = 14.93984 66.10292 40.52138
# Shear Modulus (GPa) = 16.27301 29.28314 22.77808
#
# Velocity S-wave (km/s) = 2.91636 3.91215 3.45037
# Velocity P-wave (km/s) = 4.37591 7.41320 6.08704
#
# Compressibility (1/GPa) = 0.06693510
#
# Stress axis : x y z
#
# Youngs Moduli (GPa) = 103.38676 98.07796 14.05976
#
# Poissons Ratio (x) = 0.57964 0.06658
# Poissons Ratio (y) = 0.61101 0.01945
# Poissons Ratio (z) = 0.48959 0.13570
#
# Static dielectric constant tensor:
#      x y z
#    x 3.918880 0.000000 0.000000 
#    y 0.000000 3.740650 0.000000 
#    z 0.000000 0.000000 2.985710 
# 
# 
# High freq. dielectric constant tensor:
#      x y z
#    x 1.759540 0.000000 0.000000 
#    y 0.000000 1.760360 0.000000 
#    z 0.000000 0.000000 1.691660 
# 
# From -- ./inp_files/13958.got.cif
#   From: 2010.03.12/outbox.cif.g09.slc.cpg/sg65_7_cif.got.tgz:13958.got - 2010.04.10 20:52:16.
