data_PCOD8268432
_publ_section_title
;
Structure prediction by ZEFSAII (Michael W. Deem and Ramdas Pophale) SiO2 
 PCOD8268432
Probable space group: C M M M
;
_chemical_formula_sum "Si O2"
_cell_formula_units_Z 64
_cell_length_a 25.569241
_cell_length_b 8.759615
_cell_length_c 16.790151
_cell_angle_alpha 90.000000
_cell_angle_beta 90.000000
_cell_angle_gamma 90.000000
_cell_volume 3760.602731
_symmetry_space_group_name_H-M "C M M M"
_symmetry_group_IT_number 65
_symmetry_cell_setting 'orthorhombic'
loop_
_space_group_symop_operation_xyz
x,y,z
-x,-y,z
x,-y,-z
-x,y,-z
-x,-y,-z
x,y,-z
-x,y,z
x,-y,z
1/2+x,1/2+y,z
1/2-x,1/2-y,z
1/2+x,1/2-y,-z
1/2-x,1/2+y,-z
1/2-x,1/2-y,-z
1/2+x,1/2+y,-z
1/2-x,1/2+y,z
1/2+x,1/2-y,z
loop_
_atom_site_type_symbol
_atom_site_label
_atom_site_fract_x
_atom_site_fract_y
_atom_site_fract_z
Si Si1 0.805498 0.678392 0.592031
Si Si2 0.500000 0.173807 0.405769
Si Si3 0.438622 0.822221 0.162454
Si Si4 0.902296 0.819688 0.679096
Si Si5 0.062108 0.828176 0.000000
O O1 0.819494 0.708517 0.500000
O O2 0.804676 0.500000 0.611607
O O3 0.750000 0.750000 0.614093
O O4 0.847651 0.760838 0.646302
O O5 0.500000 0.181387 0.500000
O O6 0.551454 0.254438 0.374367
O O7 0.500000 0.000000 0.374531
O O8 0.500000 0.789642 0.173871
O O9 0.407364 0.733169 0.230091
O O10 0.417875 0.760385 0.077957
O O11 0.425889 0.000000 0.167940
O O12 0.904315 0.000000 0.674674
O O13 0.000000 0.829713 0.000000
O O14 0.084477 0.000000 0.000000
#
# Coordination Sequence:
#
# PCOD8268432 Si02
#       5
#    16   8  16  16   8
#     4  10  21  38  58  78 102 134 175 222 268 313
#     4  11  23  37  51  70 101 140 177 213 259 315
#     4  10  19  32  50  72 103 140 177 213 256 310
#     4  12  23  34  52  77 106 138 175 217 263 312
#     4   9  17  29  47  71 102 135 172 213 256 305
#
# _framework density 17.018547999999999
#
# number of rings (size 3 to 8) (size 9 to 14) (size 15 to 20)
#    0.000    1.500    1.250    5.250    0.000    8.000 
#    0.000    0.000    0.000    0.000    0.000    0.875 
#    0.000    0.000    0.000    0.000    0.000    0.000 
#
# Total GULP energy -396950.189524 kJ/mol
# GULP energy per Si atom -12404.693423 kJ/mol
# Density = 1.697981 g / cm^3
# Si number density = 17.018548 Si / 1000 Ang^3
#
#
#
# Elastic Constant Matrix: (Units=GPa)
#
#
# Indices 1 2 3 4 5 6 
#
# 1 90.7185 67.6562 64.5414 0.0000 0.0000 0.0000
# 2 67.6562 161.3449 76.0232 0.0000 0.0000 0.0000
# 3 64.5414 76.0232 122.5320 0.0000 0.0000 0.0000
# 4 0.0000 0.0000 0.0000 31.5552 0.0000 0.0000
# 5 0.0000 0.0000 0.0000 0.0000 10.3649 0.0000
# 6 0.0000 0.0000 0.0000 0.0000 0.0000 28.5164
#
#
#
# Elastic Compliance Matrix: (Units=1/GPa)
#
#
# Indices 1 2 3 4 5 6 
#
# 1 0.019982 -0.004832 -0.007527 0.000000 0.000000 0.000000
# 2 -0.004832 0.009927 -0.003614 0.000000 0.000000 0.000000
# 3 -0.007527 -0.003614 0.014368 0.000000 0.000000 0.000000
# 4 0.000000 0.000000 0.000000 0.031690 0.000000 0.000000
# 5 0.000000 0.000000 0.000000 0.000000 0.096479 0.000000
# 6 0.000000 0.000000 0.000000 0.000000 0.000000 0.035067
#
#
# Mechanical properties :
#
#
# Convention : Reuss Voigt Hill
#
# Bulk Modulus (GPa) = 81.09770 87.89301 84.49536
# Shear Modulus (GPa) = 20.52795 25.17897 22.85346
#
# Velocity S-wave (km/s) = 3.47682 3.85060 3.66848
# Velocity P-wave (km/s) = 7.99210 8.45737 8.22802
#
# Compressibility (1/GPa) = 0.01233081
#
# Stress axis : x y z
#
# Youngs Moduli (GPa) = 50.04474 100.73577 69.59977
#
# Poissons Ratio (x) = 0.48680 0.52388
# Poissons Ratio (y) = 0.24184 0.25151
# Poissons Ratio (z) = 0.37669 0.36402
#
# Static dielectric constant tensor:
#      x y z
#    x 2.987370 0.000000 0.000000 
#    y 0.000000 3.421450 0.000000 
#    z 0.000000 0.000000 3.330980 
# 
# 
# High freq. dielectric constant tensor:
#      x y z
#    x 1.623130 0.000000 0.000000 
#    y 0.000000 1.680690 0.000000 
#    z 0.000000 0.000000 1.664340 
# 
# From -- ./inp_files/35984.got.cif
#   From: 2010.03.12/outbox.cif.g09.slc.cpg/sg65_18_cif.got.tgz:35984.got - 2010.04.10 20:52:16.
