data_PCOD8268619
_publ_section_title
;
Structure prediction by ZEFSAII (Michael W. Deem and Ramdas Pophale) SiO2 
 PCOD8268619
Probable space group: C M M M
;
_chemical_formula_sum "Si O2"
_cell_formula_units_Z 96
_cell_length_a 29.629535
_cell_length_b 13.429056
_cell_length_c 12.900236
_cell_angle_alpha 90.000000
_cell_angle_beta 90.000000
_cell_angle_gamma 90.000000
_cell_volume 5132.961137
_symmetry_space_group_name_H-M "C M M M"
_symmetry_group_IT_number 65
_symmetry_cell_setting 'orthorhombic'
loop_
_space_group_symop_operation_xyz
x,y,z
-x,-y,z
x,-y,-z
-x,y,-z
-x,-y,-z
x,y,-z
-x,y,z
x,-y,z
1/2+x,1/2+y,z
1/2-x,1/2-y,z
1/2+x,1/2-y,-z
1/2-x,1/2+y,-z
1/2-x,1/2-y,-z
1/2+x,1/2+y,-z
1/2-x,1/2+y,z
1/2+x,1/2-y,z
loop_
_atom_site_type_symbol
_atom_site_label
_atom_site_fract_x
_atom_site_fract_y
_atom_site_fract_z
Si Si1 0.681710 0.751603 0.799610
Si Si2 0.667889 0.389247 0.619253
Si Si3 0.931832 0.890131 0.702948
Si Si4 0.500000 0.757959 0.384869
Si Si5 0.000000 0.381426 0.813482
Si Si6 0.249075 0.889718 0.883548
Si Si7 0.082649 0.251154 0.879526
O O1 0.689582 0.698642 0.687943
O O2 0.712421 0.850405 0.804623
O O3 0.702936 0.674161 0.882277
O O4 0.630528 0.781906 0.827655
O O5 0.671160 0.356110 0.500000
O O6 0.690002 0.500000 0.634320
O O7 0.617099 0.398548 0.656348
O O8 0.957104 0.812623 0.629748
O O9 0.933544 0.848809 0.821049
O O10 0.954339 0.000000 0.703988
O O11 0.500000 0.803139 0.500000
O O12 0.500000 0.851691 0.307484
O O13 0.045404 0.338187 0.866591
O O14 0.000000 0.500000 0.826144
O O15 0.236287 0.000000 0.847915
O O16 0.268705 0.887279 0.000000
O O17 0.089193 0.227044 0.000000
#
# Coordination Sequence:
#
# PCOD8268619 Si02
#       7
#    16  16  16   8   8  16  16
#     4  10  19  34  54  77 105 134 173 220 260 306
#     4   9  17  30  49  73 102 138 176 212 255 306
#     4   9  18  30  46  73 105 134 168 211 258 309
#     4  10  19  32  52  74  96 128 171 218 266 308
#     4  10  23  40  54  74 106 140 177 218 254 296
#     4  10  20  34  53  78 107 136 168 213 268 318
#     4  10  20  34  53  77 105 140 179 213 251 302
#
# _framework density 18.702655
#
# number of rings (size 3 to 8) (size 9 to 14) (size 15 to 20)
#    0.000    2.333    0.000    3.500    0.000    3.833 
#    0.000    1.667    0.000    4.500    0.000    0.000 
#    0.000    0.000    0.000    0.000    0.000    0.000 
#
# Total GULP energy -594790.998167 kJ/mol
# GULP energy per Si atom -12391.479128 kJ/mol
# Density = 1.866009 g / cm^3
# Si number density = 18.702655 Si / 1000 Ang^3
#
#
#
# Elastic Constant Matrix: (Units=GPa)
#
#
# Indices 1 2 3 4 5 6 
#
# 1 79.8475 33.4542 13.6197 0.0000 0.0000 0.0000
# 2 33.4542 85.3933 20.4127 0.0000 0.0000 0.0000
# 3 13.6197 20.4127 123.1752 0.0000 0.0000 0.0000
# 4 0.0000 0.0000 0.0000 22.5852 0.0000 0.0000
# 5 0.0000 0.0000 0.0000 0.0000 16.8552 0.0000
# 6 0.0000 0.0000 0.0000 0.0000 0.0000 444.6206
#
#
#
# Elastic Compliance Matrix: (Units=1/GPa)
#
#
# Indices 1 2 3 4 5 6 
#
# 1 0.015043 -0.005723 -0.000715 0.000000 0.000000 0.000000
# 2 -0.005723 0.014370 -0.001749 0.000000 0.000000 0.000000
# 3 -0.000715 -0.001749 0.008487 0.000000 0.000000 0.000000
# 4 0.000000 0.000000 0.000000 0.044277 0.000000 0.000000
# 5 0.000000 0.000000 0.000000 0.000000 0.059329 0.000000
# 6 0.000000 0.000000 0.000000 0.000000 0.000000 0.002249
#
#
# Mechanical properties :
#
#
# Convention : Reuss Voigt Hill
#
# Bulk Modulus (GPa) = 46.44985 47.04326 46.74655
# Shear Modulus (GPa) = 29.88551 111.54081 70.71316
#
# Velocity S-wave (km/s) = 4.00175 7.73101 6.15559
# Velocity P-wave (km/s) = 6.80014 10.24203 8.69313
#
# Compressibility (1/GPa) = 0.02152859
#
# Stress axis : x y z
#
# Youngs Moduli (GPa) = 66.47401 69.58716 117.82205
#
# Poissons Ratio (x) = 0.39822 0.08425
# Poissons Ratio (y) = 0.38040 0.20604
# Poissons Ratio (z) = 0.04753 0.12169
#
# Static dielectric constant tensor:
#      x y z
#    x 3.432550 0.000000 0.000000 
#    y 0.000000 3.595030 0.000000 
#    z 0.000000 0.000000 3.446280 
# 
# 
# High freq. dielectric constant tensor:
#      x y z
#    x 1.721730 0.000000 0.000000 
#    y 0.000000 1.713600 0.000000 
#    z 0.000000 0.000000 1.722950 
# 
# From -- ./inp_files/33925.got.cif
#   From: 2010.03.12/outbox.cif.g09.slc.cpg/sg65_17_cif.got.tgz:33925.got - 2010.04.10 20:52:16.
