data_PCOD8268622
_publ_section_title
;
Structure prediction by ZEFSAII (Michael W. Deem and Ramdas Pophale) SiO2 
 PCOD8268622
Probable space group: C M M M
;
_chemical_formula_sum "Si O2"
_cell_formula_units_Z 112
_cell_length_a 14.352938
_cell_length_b 29.692415
_cell_length_c 14.560432
_cell_angle_alpha 90.000000
_cell_angle_beta 90.000000
_cell_angle_gamma 90.000000
_cell_volume 6205.268688
_symmetry_space_group_name_H-M "C M M M"
_symmetry_group_IT_number 65
_symmetry_cell_setting 'orthorhombic'
loop_
_space_group_symop_operation_xyz
x,y,z
-x,-y,z
x,-y,-z
-x,y,-z
-x,-y,-z
x,y,-z
-x,y,z
x,-y,z
1/2+x,1/2+y,z
1/2-x,1/2-y,z
1/2+x,1/2-y,-z
1/2-x,1/2+y,-z
1/2-x,1/2-y,-z
1/2+x,1/2+y,-z
1/2-x,1/2+y,z
1/2+x,1/2-y,z
loop_
_atom_site_type_symbol
_atom_site_label
_atom_site_fract_x
_atom_site_fract_y
_atom_site_fract_z
Si Si1 0.314998 0.049977 0.398633
Si Si2 0.392476 0.211906 0.393590
Si Si3 0.105647 0.548450 0.209502
Si Si4 0.732759 0.643132 0.603880
Si Si5 0.770634 0.198621 0.100692
Si Si6 0.106289 0.365581 0.107467
Si Si7 0.390513 0.700883 0.276844
O O1 0.361118 0.056825 0.500000
O O2 0.392212 0.054860 0.319691
O O3 0.239751 0.089304 0.382031
O O4 0.267923 0.000000 0.393469
O O5 0.379049 0.226829 0.500000
O O6 0.500000 0.198838 0.374976
O O7 0.329482 0.168523 0.368960
O O8 0.359896 0.252631 0.326916
O O9 0.152904 0.500000 0.183223
O O10 0.151319 0.590398 0.156611
O O11 0.000000 0.546989 0.176832
O O12 0.707385 0.655128 0.500000
O O13 0.647448 0.659159 0.665160
O O14 0.750000 0.250000 0.086878
O O15 0.674660 0.175133 0.134741
O O16 0.852432 0.194536 0.174208
O O17 0.801036 0.178906 0.000000
O O18 0.000000 0.354563 0.140945
O O19 0.105983 0.374944 0.000000
O O20 0.500000 0.697216 0.271991
#
# Coordination Sequence:
#
# PCOD8268622 Si02
#       7
#    16  16  16  16  16  16  16
#     4   9  18  31  46  66  94 129 166 201 236 277
#     4   9  18  32  50  74 102 129 159 196 239 289
#     4   9  17  28  44  69 100 131 160 191 229 278
#     4  10  19  32  52  74  98 129 163 201 245 291
#     4  10  21  36  52  70  95 129 168 204 237 280
#     4   9  18  33  53  75  98 125 157 195 240 288
#     4  11  22  34  50  72  98 128 163 204 248 290
#
# _framework density 18.049178000000001
#
# number of rings (size 3 to 8) (size 9 to 14) (size 15 to 20)
#    0.000    2.429    0.000    2.571    0.000    4.000 
#    0.000    9.286    0.000    0.429    0.000    2.000 
#    0.000    0.000    0.000   12.286    0.000    0.286 
#
# Total GULP energy -693936.924963 kJ/mol
# GULP energy per Si atom -12391.730803 kJ/mol
# Density = 1.800810 g / cm^3
# Si number density = 18.049178 Si / 1000 Ang^3
#
#
#
# Elastic Constant Matrix: (Units=GPa)
#
#
# Indices 1 2 3 4 5 6 
#
# 1 73.6914 45.4136 42.2689 0.0000 0.0000 0.0000
# 2 45.4136 125.9097 46.2732 0.0000 0.0000 0.0000
# 3 42.2689 46.2732 77.5024 0.0000 0.0000 0.0000
# 4 0.0000 0.0000 0.0000 22.2361 0.0000 0.0000
# 5 0.0000 0.0000 0.0000 0.0000 -43.8083 0.0000
# 6 0.0000 0.0000 0.0000 0.0000 0.0000 18.5984
#
#
#
# Elastic Compliance Matrix: (Units=1/GPa)
#
#
# Indices 1 2 3 4 5 6 
#
# 1 0.021507 -0.004415 -0.009094 0.000000 0.000000 0.000000
# 2 -0.004415 0.011081 -0.004208 0.000000 0.000000 0.000000
# 3 -0.009094 -0.004208 0.020375 0.000000 0.000000 0.000000
# 4 0.000000 0.000000 0.000000 0.044972 0.000000 0.000000
# 5 0.000000 0.000000 0.000000 0.000000 -0.022827 0.000000
# 6 0.000000 0.000000 0.000000 0.000000 0.000000 0.053768
#
#
# Mechanical properties :
#
#
# Convention : Reuss Voigt Hill
#
# Bulk Modulus (GPa) = 57.04729 60.55723 58.80226
# Shear Modulus (GPa) = 29.38527 8.94843 19.16685
#
# Velocity S-wave (km/s) = 4.03931 2.22903 3.26225
# Velocity P-wave (km/s) = 7.30958 6.34420 6.84393
#
# Compressibility (1/GPa) = 0.01752932
#
# Stress axis : x y z
#
# Youngs Moduli (GPa) = 46.49621 90.24264 49.08028
#
# Poissons Ratio (x) = 0.39845 0.44631
# Poissons Ratio (y) = 0.20529 0.20653
# Poissons Ratio (z) = 0.42282 0.37975
#
# Static dielectric constant tensor:
#      x y z
#    x 3.021710 0.000000 0.000000 
#    y 0.000000 3.686330 0.000000 
#    z 0.000000 0.000000 3.726600 
# 
# 
# High freq. dielectric constant tensor:
#      x y z
#    x 1.652330 0.000000 0.000000 
#    y 0.000000 1.701600 0.000000 
#    z 0.000000 0.000000 1.714000 
# 
# From -- ./inp_files/41133.got.cif
#   From: 2010.03.12/outbox.cif.g09.slc.cpg/sg65_21_cif.got.tgz:41133.got - 2010.04.10 20:52:16.
