data_PCOD8268100
_publ_section_title
;
Structure prediction by ZEFSAII (Michael W. Deem and Ramdas Pophale) SiO2 
 PCOD8268100
Probable space group: C M M M
;
_chemical_formula_sum "Si O2"
_cell_formula_units_Z 72
_cell_length_a 12.318595
_cell_length_b 32.593753
_cell_length_c 9.693172
_cell_angle_alpha 90.000000
_cell_angle_beta 90.000000
_cell_angle_gamma 90.000000
_cell_volume 3891.898149
_symmetry_space_group_name_H-M "C M M M"
_symmetry_group_IT_number 65
_symmetry_cell_setting 'orthorhombic'
loop_
_space_group_symop_operation_xyz
x,y,z
-x,-y,z
x,-y,-z
-x,y,-z
-x,-y,-z
x,y,-z
-x,y,z
x,-y,z
1/2+x,1/2+y,z
1/2-x,1/2-y,z
1/2+x,1/2-y,-z
1/2-x,1/2+y,-z
1/2-x,1/2-y,-z
1/2+x,1/2+y,-z
1/2-x,1/2+y,z
1/2+x,1/2-y,z
loop_
_atom_site_type_symbol
_atom_site_label
_atom_site_fract_x
_atom_site_fract_y
_atom_site_fract_z
Si Si1 0.122001 0.848849 0.841525
Si Si2 0.875529 0.225865 0.339640
Si Si3 0.168796 0.389406 0.158196
Si Si4 0.500000 0.954614 0.836584
Si Si5 0.123168 0.684409 0.350312
O O1 0.175533 0.812634 0.747329
O O2 0.199710 0.889206 0.823878
O O3 0.000000 0.861259 0.796050
O O4 0.124036 0.833779 0.000000
O O5 0.868344 0.214517 0.500000
O O6 0.819259 0.271316 0.312895
O O7 0.000000 0.226494 0.286857
O O8 0.124162 0.349912 0.235289
O O9 0.109037 0.430479 0.213845
O O10 0.134828 0.383797 0.000000
O O11 0.500000 0.000000 0.768729
O O12 0.500000 0.959314 0.000000
O O13 0.167586 0.668535 0.500000
O O14 0.000000 0.698524 0.371524
#
# Coordination Sequence:
#
# PCOD8268100 Si02
#       5
#    16  16  16   8  16
#     4   9  18  31  45  65  95 128 161 196 233 271
#     4   8  15  28  44  63  91 130 169 199 230 271
#     4  10  19  31  50  72  92 120 157 195 237 287
#     4   9  18  34  55  77  97 117 149 195 247 301
#     4   9  17  29  45  67  97 128 159 199 242 279
#
# _framework density 18.499970000000001
#
# number of rings (size 3 to 8) (size 9 to 14) (size 15 to 20)
#    0.000    3.000    1.111    1.333    0.000    2.667 
#    0.000    6.667    0.000    2.000    0.000    4.667 
#    0.000    0.000    0.000    7.556    0.000    8.000 
#
# Total GULP energy -445982.016193 kJ/mol
# GULP energy per Si atom -12388.389339 kJ/mol
# Density = 1.845786 g / cm^3
# Si number density = 18.499970 Si / 1000 Ang^3
#
#
#
# Elastic Constant Matrix: (Units=GPa)
#
#
# Indices 1 2 3 4 5 6 
#
# 1 91.6299 68.2719 20.8445 0.0000 0.0000 0.0000
# 2 68.2719 138.4381 40.7264 0.0000 0.0000 0.0000
# 3 20.8445 40.7264 46.2471 0.0000 0.0000 0.0000
# 4 0.0000 0.0000 0.0000 7.3939 0.0000 0.0000
# 5 0.0000 0.0000 0.0000 0.0000 15.1160 0.0000
# 6 0.0000 0.0000 0.0000 0.0000 0.0000 21.7951
#
#
#
# Elastic Compliance Matrix: (Units=1/GPa)
#
#
# Indices 1 2 3 4 5 6 
#
# 1 0.017258 -0.008398 -0.000383 0.000000 0.000000 0.000000
# 2 -0.008398 0.013836 -0.008399 0.000000 0.000000 0.000000
# 3 -0.000383 -0.008399 0.029192 0.000000 0.000000 0.000000
# 4 0.000000 0.000000 0.000000 0.135246 0.000000 0.000000
# 5 0.000000 0.000000 0.000000 0.000000 0.066155 0.000000
# 6 0.000000 0.000000 0.000000 0.000000 0.000000 0.045882
#
#
# Mechanical properties :
#
#
# Convention : Reuss Voigt Hill
#
# Bulk Modulus (GPa) = 38.57182 59.55562 49.06372
# Shear Modulus (GPa) = 14.26243 18.62582 16.44413
#
# Velocity S-wave (km/s) = 2.77960 3.17646 2.98463
# Velocity P-wave (km/s) = 5.58538 6.76131 6.20128
#
# Compressibility (1/GPa) = 0.02592566
#
# Stress axis : x y z
#
# Youngs Moduli (GPa) = 57.94422 72.27507 34.25608
#
# Poissons Ratio (x) = 0.60699 0.01311
# Poissons Ratio (y) = 0.48663 0.28772
# Poissons Ratio (z) = 0.02218 0.60704
#
# Static dielectric constant tensor:
#      x y z
#    x 4.079840 0.000000 0.000000 
#    y 0.000000 3.241830 0.000000 
#    z 0.000000 0.000000 3.220860 
# 
# 
# High freq. dielectric constant tensor:
#      x y z
#    x 1.760400 0.000000 0.000000 
#    y 0.000000 1.669430 0.000000 
#    z 0.000000 0.000000 1.698090 
# 
# From -- ./inp_files/7315.got.cif
#   From: 2010.03.12/outbox.cif.g09.slc.cpg/sg65_4_cif.got.tgz:7315.got - 2010.04.10 20:52:16.
