data_PCOD8268193
_publ_section_title
;
Structure prediction by ZEFSAII (Michael W. Deem and Ramdas Pophale) SiO2 
 PCOD8268193
Probable space group: C M M M
;
_chemical_formula_sum "Si O2"
_cell_formula_units_Z 84
_cell_length_a 24.084896
_cell_length_b 14.582828
_cell_length_c 12.000488
_cell_angle_alpha 90.000000
_cell_angle_beta 90.000000
_cell_angle_gamma 90.000000
_cell_volume 4214.882147
_symmetry_space_group_name_H-M "C M M M"
_symmetry_group_IT_number 65
_symmetry_cell_setting 'orthorhombic'
loop_
_space_group_symop_operation_xyz
x,y,z
-x,-y,z
x,-y,-z
-x,y,-z
-x,-y,-z
x,y,-z
-x,y,z
x,-y,z
1/2+x,1/2+y,z
1/2-x,1/2-y,z
1/2+x,1/2-y,-z
1/2-x,1/2+y,-z
1/2-x,1/2-y,-z
1/2+x,1/2+y,-z
1/2-x,1/2+y,z
1/2+x,1/2-y,z
loop_
_atom_site_type_symbol
_atom_site_label
_atom_site_fract_x
_atom_site_fract_y
_atom_site_fract_z
Si Si1 0.396090 0.897499 0.762140
Si Si2 0.000000 0.107907 0.237437
Si Si3 0.500000 0.890919 0.624558
Si Si4 0.314583 0.269353 0.758106
Si Si5 0.813508 0.769933 0.000000
Si Si6 0.893162 0.893022 0.629250
Si Si7 0.000000 0.802450 0.000000
Si Si8 0.910359 0.648540 0.000000
O O1 0.444725 0.855369 0.685544
O O2 0.344197 0.829741 0.752716
O O3 0.378086 0.000000 0.723687
O O4 0.421845 0.907183 0.887172
O O5 0.054780 0.145768 0.299802
O O6 0.000000 0.134437 0.108659
O O7 0.000000 0.000000 0.249625
O O8 0.500000 0.851479 0.500000
O O9 0.500000 0.000000 0.627227
O O10 0.250000 0.250000 0.735418
O O11 0.326286 0.318097 0.880247
O O12 0.338032 0.338008 0.665424
O O13 0.750000 0.750000 0.000000
O O14 0.845311 0.673255 0.000000
O O15 0.905447 0.874750 0.500000
O O16 0.882437 0.000000 0.652173
O O17 0.944786 0.742490 0.000000
#
# Coordination Sequence:
#
# PCOD8268193 Si02
#       8
#    16   8   8  16   8  16   4   8
#     4  10  20  35  56  81 110 146 185 226 273 328
#     4  10  20  36  59  86 115 147 186 235 289 345
#     4   9  19  35  52  74 105 138 177 223 268 318
#     4  10  21  37  58  84 114 147 187 233 284 339
#     4   8  16  33  53  75 106 141 177 223 270 318
#     4  10  22  40  60  82 111 149 192 237 284 337
#     4  12  21  32  53  86 122 150 182 228 290 346
#     4  10  19  31  50  77 110 144 179 215 263 327
#
# _framework density 19.929383000000001
#
# number of rings (size 3 to 8) (size 9 to 14) (size 15 to 20)
#    0.000    2.190    0.000    3.571    0.000    3.810 
#    0.000    3.333    0.000    5.714    0.000    0.000 
#    0.000    0.000    0.000    0.000    0.000    0.000 
#
# Total GULP energy -520497.069638 kJ/mol
# GULP energy per Si atom -12392.787372 kJ/mol
# Density = 1.988402 g / cm^3
# Si number density = 19.929383 Si / 1000 Ang^3
#
#
#
# Elastic Constant Matrix: (Units=GPa)
#
#
# Indices 1 2 3 4 5 6 
#
# 1 141.6115 41.0999 61.3039 0.0000 0.0000 0.0000
# 2 41.0999 54.3910 35.7600 0.0000 0.0000 0.0000
# 3 61.3039 35.7600 141.1866 0.0000 0.0000 0.0000
# 4 0.0000 0.0000 0.0000 29.2523 0.0000 0.0000
# 5 0.0000 0.0000 0.0000 0.0000 5.7441 0.0000
# 6 0.0000 0.0000 0.0000 0.0000 0.0000 23.6160
#
#
#
# Elastic Compliance Matrix: (Units=1/GPa)
#
#
# Indices 1 2 3 4 5 6 
#
# 1 0.009944 -0.005609 -0.002897 0.000000 0.000000 0.000000
# 2 -0.005609 0.025223 -0.003953 0.000000 0.000000 0.000000
# 3 -0.002897 -0.003953 0.009342 0.000000 0.000000 0.000000
# 4 0.000000 0.000000 0.000000 0.034185 0.000000 0.000000
# 5 0.000000 0.000000 0.000000 0.000000 0.174090 0.000000
# 6 0.000000 0.000000 0.000000 0.000000 0.000000 0.042344
#
#
# Mechanical properties :
#
#
# Convention : Reuss Voigt Hill
#
# Bulk Modulus (GPa) = 51.04565 68.16851 59.60708
# Shear Modulus (GPa) = 15.31036 24.99083 20.15060
#
# Velocity S-wave (km/s) = 2.77470 3.54498 3.18323
# Velocity P-wave (km/s) = 5.99451 7.14389 6.59429
#
# Compressibility (1/GPa) = 0.01959031
#
# Stress axis : x y z
#
# Youngs Moduli (GPa) = 100.56745 39.64663 107.04501
#
# Poissons Ratio (x) = 0.22238 0.31009
# Poissons Ratio (y) = 0.56410 0.42314
# Poissons Ratio (z) = 0.29133 0.15672
#
# Static dielectric constant tensor:
#      x y z
#    x 3.579550 0.000000 0.000000 
#    y 0.000000 3.290820 0.000000 
#    z 0.000000 0.000000 4.104500 
# 
# 
# High freq. dielectric constant tensor:
#      x y z
#    x 1.777060 0.000000 0.000000 
#    y 0.000000 1.755200 0.000000 
#    z 0.000000 0.000000 1.791330 
# 
# From -- ./inp_files/30621.got.cif
#   From: 2010.03.12/outbox.cif.g09.slc.cpg/sg65_16_cif.got.tgz:30621.got - 2010.04.10 20:52:16.
