data_PCOD8268248
_publ_section_title
;
Structure prediction by ZEFSAII (Michael W. Deem and Ramdas Pophale) SiO2 
 PCOD8268248
Probable space group: C M M M
;
_chemical_formula_sum "Si O2"
_cell_formula_units_Z 88
_cell_length_a 9.064964
_cell_length_b 18.279321
_cell_length_c 28.172552
_cell_angle_alpha 90.000000
_cell_angle_beta 90.000000
_cell_angle_gamma 90.000000
_cell_volume 4668.230936
_symmetry_space_group_name_H-M "C M M M"
_symmetry_group_IT_number 65
_symmetry_cell_setting 'orthorhombic'
loop_
_space_group_symop_operation_xyz
x,y,z
-x,-y,z
x,-y,-z
-x,y,-z
-x,-y,-z
x,y,-z
-x,y,z
x,-y,z
1/2+x,1/2+y,z
1/2-x,1/2-y,z
1/2+x,1/2-y,-z
1/2-x,1/2+y,-z
1/2-x,1/2-y,-z
1/2+x,1/2+y,-z
1/2-x,1/2+y,z
1/2+x,1/2-y,z
loop_
_atom_site_type_symbol
_atom_site_label
_atom_site_fract_x
_atom_site_fract_y
_atom_site_fract_z
Si Si1 0.324792 0.671591 0.000000
Si Si2 0.672364 0.675197 0.554599
Si Si3 0.833889 0.586502 0.631062
Si Si4 0.675181 0.417740 0.908513
Si Si5 0.171678 0.915395 0.275192
Si Si6 0.674459 0.672057 0.182166
O O1 0.250000 0.750000 0.000000
O O2 0.269545 0.626773 0.954248
O O3 0.500000 0.682018 0.000000
O O4 0.705851 0.655899 0.500000
O O5 0.500000 0.682982 0.564381
O O6 0.750000 0.750000 0.569841
O O7 0.738963 0.610931 0.586076
O O8 0.832289 0.500000 0.630814
O O9 0.761700 0.615176 0.679806
O O10 0.000000 0.617342 0.627470
O O11 0.500000 0.422149 0.908276
O O12 0.740806 0.500000 0.909705
O O13 0.732412 0.376621 0.861605
O O14 0.222547 0.868783 0.230077
O O15 0.000000 0.904751 0.286384
O O16 0.207876 0.000000 0.264593
O O17 0.500000 0.682762 0.179552
O O18 0.750000 0.750000 0.179846
#
# Coordination Sequence:
#
# PCOD8268248 Si02
#       6
#     8  16  16  16  16  16
#     4  10  19  31  51  77 105 136 168 210 260 306
#     4  10  21  37  57  80 107 140 177 217 261 310
#     4  10  21  36  55  80 109 140 174 215 262 311
#     4   9  17  31  52  76 100 131 175 217 251 297
#     4   9  18  34  54  73  96 131 174 215 255 302
#     4  10  20  33  51  75 102 132 167 211 260 308
#
# _framework density 18.850823999999999
#
# number of rings (size 3 to 8) (size 9 to 14) (size 15 to 20)
#    0.000    2.364    0.000    2.455    0.000    7.273 
#    0.000    3.636    0.000    3.818    0.000    0.000 
#    0.000    0.000    0.000    0.000    0.000    0.000 
#
# Total GULP energy -545712.840407 kJ/mol
# GULP energy per Si atom -12402.564555 kJ/mol
# Density = 1.880792 g / cm^3
# Si number density = 18.850824 Si / 1000 Ang^3
#
#
#
# Elastic Constant Matrix: (Units=GPa)
#
#
# Indices 1 2 3 4 5 6 
#
# 1 63.6117 38.3863 54.3930 0.0000 0.0000 0.0000
# 2 38.3863 114.2980 72.7538 0.0000 0.0000 0.0000
# 3 54.3930 72.7538 154.7192 0.0000 0.0000 0.0000
# 4 0.0000 0.0000 0.0000 31.1587 0.0000 0.0000
# 5 0.0000 0.0000 0.0000 0.0000 19.0747 0.0000
# 6 0.0000 0.0000 0.0000 0.0000 0.0000 33.1517
#
#
#
# Elastic Compliance Matrix: (Units=1/GPa)
#
#
# Indices 1 2 3 4 5 6 
#
# 1 0.023562 -0.003769 -0.006511 0.000000 0.000000 0.000000
# 2 -0.003769 0.013089 -0.004830 0.000000 0.000000 0.000000
# 3 -0.006511 -0.004830 0.011024 0.000000 0.000000 0.000000
# 4 0.000000 0.000000 0.000000 0.032094 0.000000 0.000000
# 5 0.000000 0.000000 0.000000 0.000000 0.052426 0.000000
# 6 0.000000 0.000000 0.000000 0.000000 0.000000 0.030164
#
#
# Mechanical properties :
#
#
# Convention : Reuss Voigt Hill
#
# Bulk Modulus (GPa) = 57.28995 73.74390 65.51693
# Shear Modulus (GPa) = 25.20194 27.81673 26.50933
#
# Velocity S-wave (km/s) = 3.66035 3.84555 3.75409
# Velocity P-wave (km/s) = 6.95136 7.67609 7.32270
#
# Compressibility (1/GPa) = 0.01745507
#
# Stress axis : x y z
#
# Youngs Moduli (GPa) = 42.44067 76.39897 90.71332
#
# Poissons Ratio (x) = 0.28791 0.59068
# Poissons Ratio (y) = 0.15994 0.43815
# Poissons Ratio (z) = 0.27635 0.36901
#
# Static dielectric constant tensor:
#      x y z
#    x 3.333970 0.000000 0.000000 
#    y 0.000000 3.419890 0.000000 
#    z 0.000000 0.000000 3.659100 
# 
# 
# High freq. dielectric constant tensor:
#      x y z
#    x 1.712200 0.000000 0.000000 
#    y 0.000000 1.733390 0.000000 
#    z 0.000000 0.000000 1.747810 
# 
# From -- ./inp_files/67472.got.cif
#   From: 2010.03.12/outbox.cif.g09.slc.cpg/sg65_34_cif.got.tgz:67472.got - 2010.04.10 20:52:16.
