data_PCOD8268834
_publ_section_title
;
Structure prediction by ZEFSAII (Michael W. Deem and Ramdas Pophale) SiO2 
 PCOD8268834
Probable space group: C M M M
;
_chemical_formula_sum "Si O2"
_cell_formula_units_Z 88
_cell_length_a 28.862040
_cell_length_b 7.744053
_cell_length_c 26.907450
_cell_angle_alpha 90.000000
_cell_angle_beta 90.000000
_cell_angle_gamma 90.000000
_cell_volume 6014.061748
_symmetry_space_group_name_H-M "C M M M"
_symmetry_group_IT_number 65
_symmetry_cell_setting 'orthorhombic'
loop_
_space_group_symop_operation_xyz
x,y,z
-x,-y,z
x,-y,-z
-x,y,-z
-x,-y,-z
x,y,-z
-x,y,z
x,-y,z
1/2+x,1/2+y,z
1/2-x,1/2-y,z
1/2+x,1/2-y,-z
1/2-x,1/2+y,-z
1/2-x,1/2-y,-z
1/2+x,1/2+y,-z
1/2-x,1/2+y,z
1/2+x,1/2-y,z
loop_
_atom_site_type_symbol
_atom_site_label
_atom_site_fract_x
_atom_site_fract_y
_atom_site_fract_z
Si Si1 0.555463 0.500000 0.622831
Si Si2 0.606828 0.198478 0.902820
Si Si3 0.054329 0.299290 0.806644
Si Si4 0.055077 0.691759 0.555651
Si Si5 0.299535 0.796832 0.944271
Si Si6 0.945320 0.000000 0.266091
Si Si7 0.946854 0.797130 0.000000
O O1 0.500000 0.500000 0.623131
O O2 0.574928 0.330887 0.594516
O O3 0.576070 0.500000 0.678559
O O4 0.581303 0.276631 0.854764
O O5 0.657910 0.282515 0.912127
O O6 0.613375 0.000000 0.890545
O O7 0.575946 0.218086 0.951408
O O8 0.065827 0.500000 0.794001
O O9 0.070457 0.176116 0.761503
O O10 0.000000 0.278014 0.817877
O O11 0.072735 0.736076 0.500000
O O12 0.072065 0.500000 0.571322
O O13 0.000000 0.698003 0.555970
O O14 0.250000 0.750000 0.919447
O O15 0.306095 0.000000 0.947469
O O16 0.301527 0.717005 0.000000
O O17 0.000000 0.000000 0.270428
O O18 0.000000 0.741286 0.000000
O O19 0.939978 0.000000 0.000000
#
# Coordination Sequence:
#
# PCOD8268834 Si02
#       7
#     8  16  16  16  16   8   8
#     4   9  15  22  33  48  65  92 123 155 197 239
#     4  10  19  33  48  60  76 101 126 149 186 236
#     4   9  18  31  45  58  74  99 128 162 201 235
#     4   8  13  20  30  46  68  92 119 154 196 239
#     4   9  17  30  45  62  82  99 117 142 176 227
#     4   9  18  29  40  54  74  97 128 169 203 237
#     4  11  23  31  40  63  84  97 120 155 188 227
#
# _framework density 14.632374
#
# number of rings (size 3 to 8) (size 9 to 14) (size 15 to 20)
#    0.000    2.818    0.909    1.636    1.273    4.000 
#    0.000    3.636    0.000    0.000    0.000    0.000 
#    0.000    0.000    0.000    0.000    0.000    0.000 
#
# Total GULP energy -545258.978736 kJ/mol
# GULP energy per Si atom -12392.249517 kJ/mol
# Density = 1.459907 g / cm^3
# Si number density = 14.632374 Si / 1000 Ang^3
#
#
#
# Elastic Constant Matrix: (Units=GPa)
#
#
# Indices 1 2 3 4 5 6 
#
# 1 61.9735 17.9985 30.1341 0.0000 0.0000 0.0000
# 2 17.9985 70.8682 54.7065 0.0000 0.0000 0.0000
# 3 30.1341 54.7065 121.8113 0.0000 0.0000 0.0000
# 4 0.0000 0.0000 0.0000 24.5817 0.0000 0.0000
# 5 0.0000 0.0000 0.0000 0.0000 2.0976 0.0000
# 6 0.0000 0.0000 0.0000 0.0000 0.0000 10.5101
#
#
#
# Elastic Compliance Matrix: (Units=1/GPa)
#
#
# Indices 1 2 3 4 5 6 
#
# 1 0.018488 -0.001783 -0.003773 0.000000 0.000000 0.000000
# 2 -0.001783 0.021771 -0.009336 0.000000 0.000000 0.000000
# 3 -0.003773 -0.009336 0.013336 0.000000 0.000000 0.000000
# 4 0.000000 0.000000 0.000000 0.040681 0.000000 0.000000
# 5 0.000000 0.000000 0.000000 0.000000 0.476738 0.000000
# 6 0.000000 0.000000 0.000000 0.000000 0.000000 0.095146
#
#
# Mechanical properties :
#
#
# Convention : Reuss Voigt Hill
#
# Bulk Modulus (GPa) = 41.99861 51.14791 46.57326
# Shear Modulus (GPa) = 7.10347 17.55879 12.33113
#
# Velocity S-wave (km/s) = 2.20571 3.46785 2.90613
# Velocity P-wave (km/s) = 5.93732 7.14604 6.56954
#
# Compressibility (1/GPa) = 0.02381031
#
# Stress axis : x y z
#
# Youngs Moduli (GPa) = 54.08817 45.93330 74.98601
#
# Poissons Ratio (x) = 0.08190 0.28292
# Poissons Ratio (y) = 0.09644 0.70009
# Poissons Ratio (z) = 0.20407 0.42885
#
# Static dielectric constant tensor:
#      x y z
#    x 2.682240 0.000000 0.000000 
#    y 0.000000 2.965420 0.000000 
#    z 0.000000 0.000000 2.939690 
# 
# 
# High freq. dielectric constant tensor:
#      x y z
#    x 1.505580 0.000000 0.000000 
#    y 0.000000 1.570510 0.000000 
#    z 0.000000 0.000000 1.540130 
# 
# From -- ./inp_files/72092.got.cif
#   From: 2010.03.12/outbox.cif.g09.slc.cpg/sg65_37_cif.got.tgz:72092.got - 2010.04.10 20:52:16.
