data_PCOD8268983
_publ_section_title
;
Structure prediction by ZEFSAII (Michael W. Deem and Ramdas Pophale) SiO2 
 PCOD8268983
Probable space group: C M M M
;
_chemical_formula_sum "Si O2"
_cell_formula_units_Z 104
_cell_length_a 15.232350
_cell_length_b 17.924364
_cell_length_c 21.024994
_cell_angle_alpha 90.000000
_cell_angle_beta 90.000000
_cell_angle_gamma 90.000000
_cell_volume 5740.458022
_symmetry_space_group_name_H-M "C M M M"
_symmetry_group_IT_number 65
_symmetry_cell_setting 'orthorhombic'
loop_
_space_group_symop_operation_xyz
x,y,z
-x,-y,z
x,-y,-z
-x,y,-z
-x,-y,-z
x,y,-z
-x,y,z
x,-y,z
1/2+x,1/2+y,z
1/2-x,1/2-y,z
1/2+x,1/2-y,-z
1/2-x,1/2+y,-z
1/2-x,1/2-y,-z
1/2+x,1/2+y,-z
1/2-x,1/2+y,z
1/2+x,1/2-y,z
loop_
_atom_site_type_symbol
_atom_site_label
_atom_site_fract_x
_atom_site_fract_y
_atom_site_fract_z
Si Si1 0.328884 0.191618 0.071002
Si Si2 0.728426 0.416250 0.846980
Si Si3 0.600102 0.206861 0.300968
Si Si4 0.235364 0.582834 0.703235
Si Si5 0.899549 0.856338 0.633801
Si Si6 0.603783 0.583357 0.500000
Si Si7 0.097826 0.785961 0.825639
O O1 0.250000 0.250000 0.070286
O O2 0.297091 0.113090 0.100300
O O3 0.403081 0.227665 0.115803
O O4 0.365804 0.177865 0.000000
O O5 0.698567 0.500000 0.866065
O O6 0.775165 0.416742 0.778974
O O7 0.645386 0.361931 0.844651
O O8 0.500000 0.178279 0.290310
O O9 0.662469 0.139594 0.323780
O O10 0.603347 0.267448 0.357206
O O11 0.638793 0.245128 0.236427
O O12 0.215131 0.500000 0.676788
O O13 0.334879 0.604245 0.684040
O O14 0.864406 0.873579 0.562982
O O15 0.000000 0.885717 0.644580
O O16 0.643827 0.500000 0.500000
O O17 0.500000 0.579521 0.500000
O O18 0.000000 0.809732 0.807813
#
# Coordination Sequence:
#
# PCOD8268983 Si02
#       7
#    16  16  16  16  16   8  16
#     4   9  18  33  53  73  97 135 181 217 254 317
#     4  10  20  32  50  77 107 138 173 215 270 328
#     4  10  20  35  54  77 106 144 187 230 269 316
#     4  11  21  33  53  79 109 145 183 226 272 323
#     4  10  20  34  57  85 111 146 180 214 268 323
#     4   9  18  34  53  80 122 154 175 213 264 324
#     4  10  19  33  53  76 105 137 174 221 270 320
#
# _framework density 18.117021000000001
#
# number of rings (size 3 to 8) (size 9 to 14) (size 15 to 20)
#    0.000    2.077    3.077    0.923    0.000    2.154 
#    0.000    3.077    0.000    0.462    0.000    5.385 
#    0.000    4.923    0.000    0.000    0.000    0.000 
#
# Total GULP energy -644634.439491 kJ/mol
# GULP energy per Si atom -12396.816144 kJ/mol
# Density = 1.807579 g / cm^3
# Si number density = 18.117021 Si / 1000 Ang^3
#
#
#
# Elastic Constant Matrix: (Units=GPa)
#
#
# Indices 1 2 3 4 5 6 
#
# 1 60.3654 49.7912 16.3078 0.0000 0.0000 0.0000
# 2 49.7912 136.9286 38.3718 0.0000 0.0000 0.0000
# 3 16.3078 38.3718 96.9815 0.0000 0.0000 0.0000
# 4 0.0000 0.0000 0.0000 23.2475 0.0000 0.0000
# 5 0.0000 0.0000 0.0000 0.0000 17.7966 0.0000
# 6 0.0000 0.0000 0.0000 0.0000 0.0000 21.0882
#
#
#
# Elastic Compliance Matrix: (Units=1/GPa)
#
#
# Indices 1 2 3 4 5 6 
#
# 1 0.023699 -0.008436 -0.000647 0.000000 0.000000 0.000000
# 2 -0.008436 0.011217 -0.003020 0.000000 0.000000 0.000000
# 3 -0.000647 -0.003020 0.011615 0.000000 0.000000 0.000000
# 4 0.000000 0.000000 0.000000 0.043015 0.000000 0.000000
# 5 0.000000 0.000000 0.000000 0.000000 0.056191 0.000000
# 6 0.000000 0.000000 0.000000 0.000000 0.000000 0.047420
#
#
# Mechanical properties :
#
#
# Convention : Reuss Voigt Hill
#
# Bulk Modulus (GPa) = 44.79316 55.91303 50.35309
# Shear Modulus (GPa) = 22.24156 25.08010 23.66083
#
# Velocity S-wave (km/s) = 3.50760 3.72471 3.61778
# Velocity P-wave (km/s) = 6.41735 7.03044 6.73088
#
# Compressibility (1/GPa) = 0.02232484
#
# Stress axis : x y z
#
# Youngs Moduli (GPa) = 42.19550 89.15080 86.09729
#
# Poissons Ratio (x) = 0.75211 0.05572
# Poissons Ratio (y) = 0.35598 0.25997
# Poissons Ratio (z) = 0.02731 0.26919
#
# Static dielectric constant tensor:
#      x y z
#    x 3.084380 0.000000 0.000000 
#    y 0.000000 3.432810 0.000000 
#    z 0.000000 0.000000 3.507610 
# 
# 
# High freq. dielectric constant tensor:
#      x y z
#    x 1.678250 0.000000 0.000000 
#    y 0.000000 1.698130 0.000000 
#    z 0.000000 0.000000 1.692160 
# 
# From -- ./inp_files/62873.got.cif
#   From: 2010.03.12/outbox.cif.g09.slc.cpg/sg65_32_cif.got.tgz:62873.got - 2010.04.10 20:52:16.
