data_PCOD8268275
_publ_section_title
;
Structure prediction by ZEFSAII (Michael W. Deem and Ramdas Pophale) SiO2 
 PCOD8268275
Probable space group: C M M M
;
_chemical_formula_sum "Si O2"
_cell_formula_units_Z 72
_cell_length_a 15.883580
_cell_length_b 8.648382
_cell_length_c 26.168780
_cell_angle_alpha 90.000000
_cell_angle_beta 90.000000
_cell_angle_gamma 90.000000
_cell_volume 3594.733799
_symmetry_space_group_name_H-M "C M M M"
_symmetry_group_IT_number 65
_symmetry_cell_setting 'orthorhombic'
loop_
_space_group_symop_operation_xyz
x,y,z
-x,-y,z
x,-y,-z
-x,y,-z
-x,-y,-z
x,y,-z
-x,y,z
x,-y,z
1/2+x,1/2+y,z
1/2-x,1/2-y,z
1/2+x,1/2-y,-z
1/2-x,1/2+y,-z
1/2-x,1/2-y,-z
1/2+x,1/2+y,-z
1/2-x,1/2+y,z
1/2+x,1/2-y,z
loop_
_atom_site_type_symbol
_atom_site_label
_atom_site_fract_x
_atom_site_fract_y
_atom_site_fract_z
Si Si1 0.000000 0.317973 0.267500
Si Si2 0.158902 0.184250 0.000000
Si Si3 0.337969 0.683193 0.788202
Si Si4 0.162938 0.817585 0.557879
Si Si5 0.407569 0.316921 0.893415
Si Si6 0.000000 0.816323 0.378636
O O1 0.084094 0.247967 0.243317
O O2 0.000000 0.277351 0.326671
O O3 0.000000 0.500000 0.259016
O O4 0.250000 0.250000 0.000000
O O5 0.116092 0.252089 0.948767
O O6 0.157917 0.000000 0.000000
O O7 0.338253 0.500000 0.782192
O O8 0.250000 0.750000 0.766899
O O9 0.346027 0.735691 0.847721
O O10 0.150154 0.756908 0.500000
O O11 0.250000 0.750000 0.580979
O O12 0.082952 0.762951 0.590626
O O13 0.169804 0.000000 0.558998
O O14 0.500000 0.255663 0.878894
O O15 0.407123 0.500000 0.897689
O O16 0.000000 0.000000 0.368660
#
# Coordination Sequence:
#
# PCOD8268275 Si02
#       6
#     8   8  16  16  16   8
#     4  12  26  43  61  86 117 154 203 255 304 355
#     4  10  19  31  51  79 113 146 184 226 278 346
#     4  11  22  40  64  88 116 152 196 245 300 359
#     4   9  18  34  58  88 121 157 196 236 283 342
#     4   9  17  32  56  83 110 146 188 232 283 348
#     4  10  21  38  60  84 117 159 198 241 295 349
#
# _framework density 20.029299999999999
#
# number of rings (size 3 to 8) (size 9 to 14) (size 15 to 20)
#    0.000    2.000    1.111    3.000    0.000    4.444 
#    0.000    3.333    0.000    4.000    0.000    0.000 
#    0.000    0.000    0.000    0.000    0.000    0.000 
#
# Total GULP energy -446302.948631 kJ/mol
# GULP energy per Si atom -12397.304129 kJ/mol
# Density = 1.998371 g / cm^3
# Si number density = 20.029300 Si / 1000 Ang^3
#
#
#
# Elastic Constant Matrix: (Units=GPa)
#
#
# Indices 1 2 3 4 5 6 
#
# 1 190.9782 43.0612 76.3088 0.0000 0.0000 0.0000
# 2 43.0612 57.1718 37.4168 0.0000 0.0000 0.0000
# 3 76.3088 37.4168 121.4855 0.0000 0.0000 0.0000
# 4 0.0000 0.0000 0.0000 18.9578 0.0000 0.0000
# 5 0.0000 0.0000 0.0000 0.0000 17.6884 0.0000
# 6 0.0000 0.0000 0.0000 0.0000 0.0000 34.3372
#
#
#
# Elastic Compliance Matrix: (Units=1/GPa)
#
#
# Indices 1 2 3 4 5 6 
#
# 1 0.007426 -0.003182 -0.003684 0.000000 0.000000 0.000000
# 2 -0.003182 0.023270 -0.005169 0.000000 0.000000 0.000000
# 3 -0.003684 -0.005169 0.012138 0.000000 0.000000 0.000000
# 4 0.000000 0.000000 0.000000 0.052749 0.000000 0.000000
# 5 0.000000 0.000000 0.000000 0.000000 0.056534 0.000000
# 6 0.000000 0.000000 0.000000 0.000000 0.000000 0.029123
#
#
# Mechanical properties :
#
#
# Convention : Reuss Voigt Hill
#
# Bulk Modulus (GPa) = 53.29283 75.91211 64.60247
# Shear Modulus (GPa) = 23.63357 28.38661 26.01009
#
# Velocity S-wave (km/s) = 3.43877 3.76873 3.60752
# Velocity P-wave (km/s) = 6.51399 7.54457 7.04814
#
# Compressibility (1/GPa) = 0.01876425
#
# Stress axis : x y z
#
# Youngs Moduli (GPa) = 134.66608 42.97341 82.38862
#
# Poissons Ratio (x) = 0.13673 0.30355
# Poissons Ratio (y) = 0.42847 0.42583
# Poissons Ratio (z) = 0.49616 0.22211
#
# Static dielectric constant tensor:
#      x y z
#    x 3.846190 0.000000 0.000000 
#    y 0.000000 3.337550 0.000000 
#    z 0.000000 0.000000 4.431720 
# 
# 
# High freq. dielectric constant tensor:
#      x y z
#    x 1.798430 0.000000 0.000000 
#    y 0.000000 1.753150 0.000000 
#    z 0.000000 0.000000 1.785260 
# 
# From -- ./inp_files/74659.got.cif
#   From: 2010.03.12/outbox.cif.g09.slc.cpg/sg65_38_cif.got.tgz:74659.got - 2010.04.10 20:52:16.
