data_PCOD8268411
_publ_section_title
;
Structure prediction by ZEFSAII (Michael W. Deem and Ramdas Pophale) SiO2 
 PCOD8268411
Probable space group: C M M M
;
_chemical_formula_sum "Si O2"
_cell_formula_units_Z 92
_cell_length_a 23.383899
_cell_length_b 18.192199
_cell_length_c 12.718754
_cell_angle_alpha 90.000000
_cell_angle_beta 90.000000
_cell_angle_gamma 90.000000
_cell_volume 5410.615746
_symmetry_space_group_name_H-M "C M M M"
_symmetry_group_IT_number 65
_symmetry_cell_setting 'orthorhombic'
loop_
_space_group_symop_operation_xyz
x,y,z
-x,-y,z
x,-y,-z
-x,y,-z
-x,-y,-z
x,y,-z
-x,y,z
x,-y,z
1/2+x,1/2+y,z
1/2-x,1/2-y,z
1/2+x,1/2-y,-z
1/2-x,1/2+y,-z
1/2-x,1/2-y,-z
1/2+x,1/2+y,-z
1/2-x,1/2+y,z
1/2+x,1/2-y,z
loop_
_atom_site_type_symbol
_atom_site_label
_atom_site_fract_x
_atom_site_fract_y
_atom_site_fract_z
Si Si1 0.678158 0.658918 0.194015
Si Si2 0.879027 0.917790 0.000000
Si Si3 0.878577 0.300880 0.121756
Si Si4 0.000000 0.860953 0.000000
Si Si5 0.287939 0.083672 0.878577
Si Si6 0.500000 0.656499 0.619153
Si Si7 0.500000 0.755048 0.814902
Si Si8 0.119397 0.084154 0.379425
O O1 0.641402 0.618699 0.106473
O O2 0.664533 0.745246 0.181494
O O3 0.744431 0.637113 0.182529
O O4 0.660009 0.635174 0.310239
O O5 0.946987 0.915345 0.000000
O O6 0.855647 0.000000 0.000000
O O7 0.851409 0.382100 0.134183
O O8 0.942596 0.303253 0.169009
O O9 0.882256 0.276453 0.000000
O O10 0.000000 0.811998 0.104490
O O11 0.288025 0.000000 0.834549
O O12 0.268996 0.083811 0.000000
O O13 0.500000 0.687370 0.500000
O O14 0.500000 0.726249 0.695876
O O15 0.446058 0.604970 0.640708
O O16 0.137010 0.096797 0.500000
O O17 0.127923 0.000000 0.345607
#
# Coordination Sequence:
#
# PCOD8268411 Si02
#       8
#    16   8  16   4  16   8   8  16
#     4  12  19  33  52  75 105 137 171 212 252 308
#     4  12  21  28  44  73 105 139 167 202 251 305
#     4  11  20  34  54  77 106 138 172 209 263 317
#     4  12  19  32  42  66 109 136 164 204 247 314
#     4  10  21  35  53  78 106 137 175 216 256 308
#     4  10  19  32  50  69 102 139 180 221 252 295
#     4  12  18  34  52  75 102 134 169 214 264 308
#     4  10  20  32  48  72 105 145 181 213 252 300
#
# _framework density 17.003609999999998
#
# number of rings (size 3 to 8) (size 9 to 14) (size 15 to 20)
#    0.000    1.043    6.087    2.478    0.000    2.435 
#    0.000    3.043    0.000    5.217    0.000    0.000 
#    0.000    0.696    0.000    0.000    0.000    0.000 
#
# Total GULP energy -570433.974544 kJ/mol
# GULP energy per Si atom -12400.738577 kJ/mol
# Density = 1.696491 g / cm^3
# Si number density = 17.003610 Si / 1000 Ang^3
#
#
#
# Elastic Constant Matrix: (Units=GPa)
#
#
# Indices 1 2 3 4 5 6 
#
# 1 88.0322 42.9160 27.2045 0.0000 0.0000 0.0000
# 2 42.9160 66.4801 18.9996 0.0000 0.0000 0.0000
# 3 27.2045 18.9996 73.9143 0.0000 0.0000 0.0000
# 4 0.0000 0.0000 0.0000 15.8470 0.0000 0.0000
# 5 0.0000 0.0000 0.0000 0.0000 19.8936 0.0000
# 6 0.0000 0.0000 0.0000 0.0000 0.0000 16.0722
#
#
#
# Elastic Compliance Matrix: (Units=1/GPa)
#
#
# Indices 1 2 3 4 5 6 
#
# 1 0.017523 -0.010219 -0.003822 0.000000 0.000000 0.000000
# 2 -0.010219 0.022195 -0.001944 0.000000 0.000000 0.000000
# 3 -0.003822 -0.001944 0.015436 0.000000 0.000000 0.000000
# 4 0.000000 0.000000 0.000000 0.063103 0.000000 0.000000
# 5 0.000000 0.000000 0.000000 0.000000 0.050267 0.000000
# 6 0.000000 0.000000 0.000000 0.000000 0.000000 0.062219
#
#
# Mechanical properties :
#
#
# Convention : Reuss Voigt Hill
#
# Bulk Modulus (GPa) = 43.13713 45.18521 44.16117
# Shear Modulus (GPa) = 18.48830 19.64967 19.06898
#
# Velocity S-wave (km/s) = 3.30102 3.40313 3.35246
# Velocity P-wave (km/s) = 6.32088 6.48639 6.40417
#
# Compressibility (1/GPa) = 0.02318188
#
# Stress axis : x y z
#
# Youngs Moduli (GPa) = 57.06900 45.05586 64.78477
#
# Poissons Ratio (x) = 0.46044 0.24764
# Poissons Ratio (y) = 0.58320 0.12593
# Poissons Ratio (z) = 0.21814 0.08758
#
# Static dielectric constant tensor:
#      x y z
#    x 3.226020 0.000000 0.000000 
#    y 0.000000 3.036780 0.000000 
#    z 0.000000 0.000000 3.314030 
# 
# 
# High freq. dielectric constant tensor:
#      x y z
#    x 1.658650 0.000000 0.000000 
#    y 0.000000 1.637760 0.000000 
#    z 0.000000 0.000000 1.637300 
# 
# From -- ./inp_files/30881.got.cif
#   From: 2010.03.12/outbox.cif.g09.slc.cpg/sg65_16_cif.got.tgz:30881.got - 2010.04.10 20:52:16.
