data_PCOD8268015
_publ_section_title
;
Structure prediction by ZEFSAII (Michael W. Deem and Ramdas Pophale) SiO2 
 PCOD8268015
Probable space group: C M M M
;
_chemical_formula_sum "Si O2"
_cell_formula_units_Z 72
_cell_length_a 28.145094
_cell_length_b 16.298287
_cell_length_c 9.085272
_cell_angle_alpha 90.000000
_cell_angle_beta 90.000000
_cell_angle_gamma 90.000000
_cell_volume 4167.567078
_symmetry_space_group_name_H-M "C M M M"
_symmetry_group_IT_number 65
_symmetry_cell_setting 'orthorhombic'
loop_
_space_group_symop_operation_xyz
x,y,z
-x,-y,z
x,-y,-z
-x,y,-z
-x,-y,-z
x,y,-z
-x,y,z
x,-y,z
1/2+x,1/2+y,z
1/2-x,1/2-y,z
1/2+x,1/2-y,-z
1/2-x,1/2+y,-z
1/2-x,1/2-y,-z
1/2+x,1/2+y,-z
1/2-x,1/2+y,z
1/2+x,1/2-y,z
loop_
_atom_site_type_symbol
_atom_site_label
_atom_site_fract_x
_atom_site_fract_y
_atom_site_fract_z
Si Si1 0.054339 0.322150 0.324704
Si Si2 0.779992 0.667629 0.665026
Si Si3 0.360786 0.747163 0.173636
Si Si4 0.698722 0.591522 0.168794
Si Si5 0.555966 0.000000 0.659877
O O1 0.061512 0.319033 0.500000
O O2 0.087193 0.255172 0.245147
O O3 0.069052 0.413452 0.261598
O O4 0.000000 0.301339 0.283601
O O5 0.794180 0.640581 0.500000
O O6 0.750000 0.750000 0.663420
O O7 0.827388 0.681487 0.759996
O O8 0.747212 0.598180 0.738238
O O9 0.341107 0.657139 0.218213
O O10 0.364020 0.758749 0.000000
O O11 0.677827 0.500000 0.191294
O O12 0.712567 0.608497 0.000000
O O13 0.500000 0.000000 0.635205
O O14 0.580877 0.000000 0.500000
#
# Coordination Sequence:
#
# PCOD8268015 Si02
#       5
#    16  16  16  16   8
#     4   9  17  31  51  72  95 125 161 200 240 282
#     4   9  17  30  48  69  93 121 155 194 235 282
#     4  10  19  31  49  72  98 128 160 196 241 288
#     4   9  18  33  51  70  95 127 162 200 241 284
#     4   7  12  26  47  67  87 115 151 189 229 273
#
# _framework density 17.276266
#
# number of rings (size 3 to 8) (size 9 to 14) (size 15 to 20)
#    0.000    3.000    0.000    2.667    0.000    4.444 
#    2.000    0.556    0.000    2.667    0.000    4.667 
#    0.000    0.000    0.000    0.000    0.000    0.000 
#
# Total GULP energy -446118.727844 kJ/mol
# GULP energy per Si atom -12392.186885 kJ/mol
# Density = 1.723694 g / cm^3
# Si number density = 17.276266 Si / 1000 Ang^3
#
#
#
# Elastic Constant Matrix: (Units=GPa)
#
#
# Indices 1 2 3 4 5 6 
#
# 1 108.0045 52.3698 50.2786 0.0000 0.0000 0.0000
# 2 52.3698 89.1153 36.3995 0.0000 0.0000 0.0000
# 3 50.2786 36.3995 74.6993 0.0000 0.0000 0.0000
# 4 0.0000 0.0000 0.0000 17.1949 0.0000 0.0000
# 5 0.0000 0.0000 0.0000 0.0000 29.7836 0.0000
# 6 0.0000 0.0000 0.0000 0.0000 0.0000 22.2047
#
#
#
# Elastic Compliance Matrix: (Units=1/GPa)
#
#
# Indices 1 2 3 4 5 6 
#
# 1 0.015803 -0.006170 -0.007630 0.000000 0.000000 0.000000
# 2 -0.006170 0.016419 -0.003848 0.000000 0.000000 0.000000
# 3 -0.007630 -0.003848 0.020397 0.000000 0.000000 0.000000
# 4 0.000000 0.000000 0.000000 0.058157 0.000000 0.000000
# 5 0.000000 0.000000 0.000000 0.000000 0.033576 0.000000
# 6 0.000000 0.000000 0.000000 0.000000 0.000000 0.045035
#
#
# Mechanical properties :
#
#
# Convention : Reuss Voigt Hill
#
# Bulk Modulus (GPa) = 57.72436 61.10166 59.41301
# Shear Modulus (GPa) = 21.69609 22.68806 22.19207
#
# Velocity S-wave (km/s) = 3.54762 3.62781 3.58794
# Velocity P-wave (km/s) = 7.08984 7.27957 7.18533
#
# Compressibility (1/GPa) = 0.01732371
#
# Stress axis : x y z
#
# Youngs Moduli (GPa) = 63.28102 60.90514 49.02600
#
# Poissons Ratio (x) = 0.37579 0.37406
# Poissons Ratio (y) = 0.39045 0.18863
# Poissons Ratio (z) = 0.48282 0.23434
#
# Static dielectric constant tensor:
#      x y z
#    x 3.092690 0.000000 0.000000 
#    y 0.000000 3.223680 0.000000 
#    z 0.000000 0.000000 3.161470 
# 
# 
# High freq. dielectric constant tensor:
#      x y z
#    x 1.649650 0.000000 0.000000 
#    y 0.000000 1.651410 0.000000 
#    z 0.000000 0.000000 1.658380 
# 
# From -- ./inp_files/7641.got.cif
#   From: 2010.03.12/outbox.cif.g09.slc.cpg/sg65_4_cif.got.tgz:7641.got - 2010.04.10 20:52:16.
