data_PCOD8268223
_publ_section_title
;
Structure prediction by ZEFSAII (Michael W. Deem and Ramdas Pophale) SiO2 
 PCOD8268223
Probable space group: C M M M
;
_chemical_formula_sum "Si O2"
_cell_formula_units_Z 88
_cell_length_a 18.794826
_cell_length_b 9.211415
_cell_length_c 27.654127
_cell_angle_alpha 90.000000
_cell_angle_beta 90.000000
_cell_angle_gamma 90.000000
_cell_volume 4787.674445
_symmetry_space_group_name_H-M "C M M M"
_symmetry_group_IT_number 65
_symmetry_cell_setting 'orthorhombic'
loop_
_space_group_symop_operation_xyz
x,y,z
-x,-y,z
x,-y,-z
-x,y,-z
-x,-y,-z
x,y,-z
-x,y,z
x,-y,z
1/2+x,1/2+y,z
1/2-x,1/2-y,z
1/2+x,1/2-y,-z
1/2-x,1/2+y,-z
1/2-x,1/2-y,-z
1/2+x,1/2+y,-z
1/2-x,1/2+y,z
1/2+x,1/2-y,z
loop_
_atom_site_type_symbol
_atom_site_label
_atom_site_fract_x
_atom_site_fract_y
_atom_site_fract_z
Si Si1 0.820251 0.831275 0.945679
Si Si2 0.582438 0.332300 0.141881
Si Si3 0.177891 0.329661 0.214899
Si Si4 0.674184 0.172789 0.500000
Si Si5 0.920538 0.671833 0.589661
Si Si6 0.679074 0.831106 0.674305
O O1 0.750000 0.750000 0.927532
O O2 0.884137 0.790986 0.909874
O O3 0.802342 0.000000 0.944177
O O4 0.841801 0.782271 0.000000
O O5 0.500000 0.297674 0.137502
O O6 0.597178 0.500000 0.155033
O O7 0.613261 0.231214 0.183740
O O8 0.187496 0.500000 0.205692
O O9 0.250000 0.250000 0.198773
O O10 0.159332 0.294395 0.270509
O O11 0.750000 0.250000 0.500000
O O12 0.629512 0.226794 0.453647
O O13 0.685854 0.000000 0.500000
O O14 0.926772 0.500000 0.586759
O O15 0.886080 0.720623 0.640651
O O16 0.000000 0.739599 0.585684
O O17 0.750000 0.750000 0.657560
O O18 0.694617 0.000000 0.667137
#
# Coordination Sequence:
#
# PCOD8268223 Si02
#       6
#    16  16  16   8  16  16
#     4   9  18  33  53  75  98 127 164 203 243 291
#     4  10  21  35  51  74 104 135 166 204 250 296
#     4  10  20  34  53  75  99 131 170 209 249 294
#     4  10  19  31  51  75  97 126 162 202 244 286
#     4   9  17  30  49  73  99 127 162 201 240 286
#     4   9  18  32  51  73  97 127 162 202 244 288
#
# _framework density 18.380531000000001
#
# number of rings (size 3 to 8) (size 9 to 14) (size 15 to 20)
#    0.000    2.545    0.000    1.909    0.000    5.455 
#    0.000    3.636    0.000    2.727    0.000    3.818 
#    0.000    0.000    0.000    0.000    0.000    0.000 
#
# Total GULP energy -545651.421582 kJ/mol
# GULP energy per Si atom -12401.168672 kJ/mol
# Density = 1.833870 g / cm^3
# Si number density = 18.380531 Si / 1000 Ang^3
#
#
#
# Elastic Constant Matrix: (Units=GPa)
#
#
# Indices 1 2 3 4 5 6 
#
# 1 168.3015 50.3067 89.1269 0.0000 0.0000 0.0000
# 2 50.3067 47.2629 42.3822 0.0000 0.0000 0.0000
# 3 89.1269 42.3822 117.6405 0.0000 0.0000 0.0000
# 4 0.0000 0.0000 0.0000 20.6145 0.0000 0.0000
# 5 0.0000 0.0000 0.0000 0.0000 27.7501 0.0000
# 6 0.0000 0.0000 0.0000 0.0000 0.0000 28.7268
#
#
#
# Elastic Compliance Matrix: (Units=1/GPa)
#
#
# Indices 1 2 3 4 5 6 
#
# 1 0.011059 -0.006290 -0.006112 0.000000 0.000000 0.000000
# 2 -0.006290 0.034833 -0.007784 0.000000 0.000000 0.000000
# 3 -0.006112 -0.007784 0.015936 0.000000 0.000000 0.000000
# 4 0.000000 0.000000 0.000000 0.048509 0.000000 0.000000
# 5 0.000000 0.000000 0.000000 0.000000 0.036036 0.000000
# 6 0.000000 0.000000 0.000000 0.000000 0.000000 0.034811
#
#
# Mechanical properties :
#
#
# Convention : Reuss Voigt Hill
#
# Bulk Modulus (GPa) = 46.60838 77.42629 62.01734
# Shear Modulus (GPa) = 21.86196 25.51089 23.68643
#
# Velocity S-wave (km/s) = 3.45252 3.72953 3.59370
# Velocity P-wave (km/s) = 6.42695 7.79496 7.14378
#
# Compressibility (1/GPa) = 0.02145537
#
# Stress axis : x y z
#
# Youngs Moduli (GPa) = 90.42713 28.70805 62.75249
#
# Poissons Ratio (x) = 0.18057 0.38356
# Poissons Ratio (y) = 0.56877 0.48847
# Poissons Ratio (z) = 0.55271 0.22347
#
# Static dielectric constant tensor:
#      x y z
#    x 3.455780 0.000000 0.000000 
#    y 0.000000 3.193720 0.000000 
#    z 0.000000 0.000000 3.614660 
# 
# 
# High freq. dielectric constant tensor:
#      x y z
#    x 1.711650 0.000000 0.000000 
#    y 0.000000 1.689030 0.000000 
#    z 0.000000 0.000000 1.726920 
# 
# From -- ./inp_files/76614.got.cif
#   From: 2010.03.12/outbox.cif.g09.slc.cpg/sg65_39_cif.got.tgz:76614.got - 2010.04.10 20:52:16.
