data_PCOD8268601
_publ_section_title
;
Structure prediction by ZEFSAII (Michael W. Deem and Ramdas Pophale) SiO2 
 PCOD8268601
Probable space group: C M M M
;
_chemical_formula_sum "Si O2"
_cell_formula_units_Z 96
_cell_length_a 24.258387
_cell_length_b 22.836900
_cell_length_c 9.338940
_cell_angle_alpha 90.000000
_cell_angle_beta 90.000000
_cell_angle_gamma 90.000000
_cell_volume 5173.645359
_symmetry_space_group_name_H-M "C M M M"
_symmetry_group_IT_number 65
_symmetry_cell_setting 'orthorhombic'
loop_
_space_group_symop_operation_xyz
x,y,z
-x,-y,z
x,-y,-z
-x,y,-z
-x,-y,-z
x,y,-z
-x,y,z
x,-y,z
1/2+x,1/2+y,z
1/2-x,1/2-y,z
1/2+x,1/2-y,-z
1/2-x,1/2+y,-z
1/2-x,1/2-y,-z
1/2+x,1/2+y,-z
1/2-x,1/2+y,z
1/2+x,1/2-y,z
loop_
_atom_site_type_symbol
_atom_site_label
_atom_site_fract_x
_atom_site_fract_y
_atom_site_fract_z
Si Si1 0.703810 0.896631 0.331896
Si Si2 0.086653 0.562914 0.331472
Si Si3 0.812900 0.267217 0.340098
Si Si4 0.500000 0.721532 0.832558
Si Si5 0.617169 0.324924 0.832838
Si Si6 0.500000 0.844275 0.670900
Si Si7 0.812299 0.933877 0.166892
O O1 0.718408 0.895885 0.500000
O O2 0.651375 0.936219 0.294192
O O3 0.685454 0.832584 0.278567
O O4 0.756510 0.920586 0.250370
O O5 0.077997 0.565027 0.500000
O O6 0.064337 0.500000 0.273104
O O7 0.052808 0.618573 0.272151
O O8 0.838354 0.264380 0.500000
O O9 0.750000 0.250000 0.342585
O O10 0.847888 0.225454 0.240752
O O11 0.446977 0.682149 0.791144
O O12 0.500000 0.781439 0.744483
O O13 0.500000 0.737611 0.000000
O O14 0.639301 0.389026 0.784802
O O15 0.626025 0.316262 0.000000
O O16 0.500000 0.834590 0.500000
O O17 0.832203 0.000000 0.201870
O O18 0.799168 0.926471 0.000000
#
# Coordination Sequence:
#
# PCOD8268601 Si02
#       7
#    16  16  16   8  16   8  16
#     4  10  19  32  51  77 108 141 173 209 257 309
#     4   9  17  29  48  75 104 135 175 216 249 292
#     4  10  19  32  52  81 113 138 169 216 261 304
#     4  10  22  39  56  77 104 134 169 216 266 314
#     4  10  21  37  56  77 105 139 175 213 262 317
#     4  10  19  34  56  77  99 133 175 216 260 304
#     4  10  21  36  53  75 103 134 171 215 260 310
#
# _framework density 18.555582000000001
#
# number of rings (size 3 to 8) (size 9 to 14) (size 15 to 20)
#    0.000    2.167    1.667    1.750    0.000    5.000 
#    0.000    1.250    0.000    4.500    0.000    0.000 
#    0.000    3.333    0.000    0.000    0.000    0.000 
#
# Total GULP energy -594950.105626 kJ/mol
# GULP energy per Si atom -12394.793867 kJ/mol
# Density = 1.851335 g / cm^3
# Si number density = 18.555582 Si / 1000 Ang^3
#
#
#
# Elastic Constant Matrix: (Units=GPa)
#
#
# Indices 1 2 3 4 5 6 
#
# 1 121.1850 74.1753 33.3521 0.0000 0.0000 0.0000
# 2 74.1753 147.5169 37.2031 0.0000 0.0000 0.0000
# 3 33.3521 37.2031 29.6109 0.0000 0.0000 0.0000
# 4 0.0000 0.0000 0.0000 26.0776 0.0000 0.0000
# 5 0.0000 0.0000 0.0000 0.0000 25.5195 0.0000
# 6 0.0000 0.0000 0.0000 0.0000 0.0000 10.5066
#
#
#
# Elastic Compliance Matrix: (Units=1/GPa)
#
#
# Indices 1 2 3 4 5 6 
#
# 1 0.013645 -0.004370 -0.009879 0.000000 0.000000 0.000000
# 2 -0.004370 0.011322 -0.009304 0.000000 0.000000 0.000000
# 3 -0.009879 -0.009304 0.056588 0.000000 0.000000 0.000000
# 4 0.000000 0.000000 0.000000 0.038347 0.000000 0.000000
# 5 0.000000 0.000000 0.000000 0.000000 0.039186 0.000000
# 6 0.000000 0.000000 0.000000 0.000000 0.000000 0.095178
#
#
# Mechanical properties :
#
#
# Convention : Reuss Voigt Hill
#
# Bulk Modulus (GPa) = 29.02722 65.30820 47.16771
# Shear Modulus (GPa) = 15.98179 22.65955 19.32067
#
# Velocity S-wave (km/s) = 2.93796 3.49832 3.23031
# Velocity P-wave (km/s) = 5.21404 7.18262 6.27599
#
# Compressibility (1/GPa) = 0.03445043
#
# Stress axis : x y z
#
# Youngs Moduli (GPa) = 73.28440 88.32006 17.67157
#
# Poissons Ratio (x) = 0.38594 0.17458
# Poissons Ratio (y) = 0.32024 0.16441
# Poissons Ratio (z) = 0.72400 0.82170
#
# Static dielectric constant tensor:
#      x y z
#    x 3.632700 0.000000 0.000000 
#    y 0.000000 3.697260 0.000000 
#    z 0.000000 0.000000 3.210240 
# 
# 
# High freq. dielectric constant tensor:
#      x y z
#    x 1.722400 0.000000 0.000000 
#    y 0.000000 1.733980 0.000000 
#    z 0.000000 0.000000 1.688140 
# 
# From -- ./inp_files/14348.got.cif
#   From: 2010.03.12/outbox.cif.g09.slc.cpg/sg65_8_cif.got.tgz:14348.got - 2010.04.10 20:52:16.
