data_PCOD8268139
_publ_section_title
;
Structure prediction by ZEFSAII (Michael W. Deem and Ramdas Pophale) SiO2 
 PCOD8268139
Probable space group: C M M M
;
_chemical_formula_sum "Si O2"
_cell_formula_units_Z 80
_cell_length_a 9.184444
_cell_length_b 18.402634
_cell_length_c 26.115473
_cell_angle_alpha 90.000000
_cell_angle_beta 90.000000
_cell_angle_gamma 90.000000
_cell_volume 4413.984008
_symmetry_space_group_name_H-M "C M M M"
_symmetry_group_IT_number 65
_symmetry_cell_setting 'orthorhombic'
loop_
_space_group_symop_operation_xyz
x,y,z
-x,-y,z
x,-y,-z
-x,y,-z
-x,-y,-z
x,y,-z
-x,y,z
x,-y,z
1/2+x,1/2+y,z
1/2-x,1/2-y,z
1/2+x,1/2-y,-z
1/2-x,1/2+y,-z
1/2-x,1/2-y,-z
1/2+x,1/2+y,-z
1/2-x,1/2+y,z
1/2+x,1/2-y,z
loop_
_atom_site_type_symbol
_atom_site_label
_atom_site_fract_x
_atom_site_fract_y
_atom_site_fract_z
Si Si1 0.329515 0.825081 0.650301
Si Si2 0.328445 0.672692 0.834664
Si Si3 0.168033 0.824751 0.945980
Si Si4 0.327137 0.918770 0.556888
Si Si5 0.667193 0.915579 0.750535
O O1 0.500000 0.809675 0.645087
O O2 0.250000 0.750000 0.660043
O O3 0.265525 0.862910 0.598980
O O4 0.294091 0.877532 0.697329
O O5 0.500000 0.684350 0.825913
O O6 0.250000 0.750000 0.827023
O O7 0.293882 0.637750 0.891434
O O8 0.269915 0.614794 0.794685
O O9 0.250000 0.750000 0.948114
O O10 0.000000 0.804616 0.944909
O O11 0.203532 0.868436 0.000000
O O12 0.279652 0.892655 0.500000
O O13 0.500000 0.921530 0.561283
O O14 0.266097 0.000000 0.567248
O O15 0.500000 0.901486 0.765917
O O16 0.700426 0.000000 0.743361
#
# Coordination Sequence:
#
# PCOD8268139 Si02
#       5
#    16  16  16  16  16
#     4  10  20  33  50  73  99 126 158 197 242 289
#     4  10  19  31  50  75 101 128 160 199 241 287
#     4   8  14  25  42  66  95 124 154 190 233 280
#     4   8  14  27  49  74  97 124 161 200 233 272
#     4  10  21  36  52  69  93 127 165 205 248 293
#
# _framework density 18.124215
#
# number of rings (size 3 to 8) (size 9 to 14) (size 15 to 20)
#    0.000    2.800    0.000    2.400    0.000    6.400 
#    0.000    0.000    0.000    2.400    0.000    5.600 
#    0.000    0.000    0.000    0.000    0.000    0.000 
#
# Total GULP energy -495532.372284 kJ/mol
# GULP energy per Si atom -12388.309307 kJ/mol
# Density = 1.808296 g / cm^3
# Si number density = 18.124215 Si / 1000 Ang^3
#
#
#
# Elastic Constant Matrix: (Units=GPa)
#
#
# Indices 1 2 3 4 5 6 
#
# 1 47.7356 39.7395 55.5660 0.0000 0.0000 0.0000
# 2 39.7395 103.1208 74.3234 0.0000 0.0000 0.0000
# 3 55.5660 74.3234 172.2290 0.0000 0.0000 0.0000
# 4 0.0000 0.0000 0.0000 -7.1182 0.0000 0.0000
# 5 0.0000 0.0000 0.0000 0.0000 -18.4575 0.0000
# 6 0.0000 0.0000 0.0000 0.0000 0.0000 20.8168
#
#
#
# Elastic Compliance Matrix: (Units=1/GPa)
#
#
# Indices 1 2 3 4 5 6 
#
# 1 0.038005 -0.008431 -0.008623 0.000000 0.000000 0.000000
# 2 -0.008431 0.015945 -0.004161 0.000000 0.000000 0.000000
# 3 -0.008623 -0.004161 0.010384 0.000000 0.000000 0.000000
# 4 0.000000 0.000000 0.000000 -0.140485 0.000000 0.000000
# 5 0.000000 0.000000 0.000000 0.000000 -0.054179 0.000000
# 6 0.000000 0.000000 0.000000 0.000000 0.000000 0.048038
#
#
# Mechanical properties :
#
#
# Convention : Reuss Voigt Hill
#
# Bulk Modulus (GPa) = 45.65329 73.59369 59.62349
# Shear Modulus (GPa) = -153.56636 9.27866 -72.14385
#
# Velocity S-wave (km/s) = -9.21487 2.26508 -6.31598
# Velocity P-wave (km/s) = 9.37948 6.89450 4.49670
#
# Compressibility (1/GPa) = 0.02190423
#
# Stress axis : x y z
#
# Youngs Moduli (GPa) = 26.31215 62.71424 96.30203
#
# Poissons Ratio (x) = 0.52873 0.83045
# Poissons Ratio (y) = 0.22183 0.40071
# Poissons Ratio (z) = 0.22690 0.26095
#
# Static dielectric constant tensor:
#      x y z
#    x 3.119570 0.000000 0.000000 
#    y 0.000000 3.062650 0.000000 
#    z 0.000000 0.000000 4.096200 
# 
# 
# High freq. dielectric constant tensor:
#      x y z
#    x 1.679330 0.000000 0.000000 
#    y 0.000000 1.668800 0.000000 
#    z 0.000000 0.000000 1.733350 
# 
# From -- ./inp_files/72735.got.cif
#   From: 2010.03.12/outbox.cif.g09.slc.cpg/sg65_37_cif.got.tgz:72735.got - 2010.04.10 20:52:16.
