data_PCOD8268646
_publ_section_title
;
Structure prediction by ZEFSAII (Michael W. Deem and Ramdas Pophale) SiO2 
 PCOD8268646
Probable space group: C M M M
;
_chemical_formula_sum "Si O2"
_cell_formula_units_Z 104
_cell_length_a 8.974712
_cell_length_b 27.512914
_cell_length_c 23.784919
_cell_angle_alpha 90.000000
_cell_angle_beta 90.000000
_cell_angle_gamma 90.000000
_cell_volume 5872.983603
_symmetry_space_group_name_H-M "C M M M"
_symmetry_group_IT_number 65
_symmetry_cell_setting 'orthorhombic'
loop_
_space_group_symop_operation_xyz
x,y,z
-x,-y,z
x,-y,-z
-x,y,-z
-x,-y,-z
x,y,-z
-x,y,z
x,-y,z
1/2+x,1/2+y,z
1/2-x,1/2-y,z
1/2+x,1/2-y,-z
1/2-x,1/2+y,-z
1/2-x,1/2-y,-z
1/2+x,1/2+y,-z
1/2-x,1/2+y,z
1/2+x,1/2-y,z
loop_
_atom_site_type_symbol
_atom_site_label
_atom_site_fract_x
_atom_site_fract_y
_atom_site_fract_z
Si Si1 0.832557 0.296662 0.753901
Si Si2 0.840650 0.000000 0.434668
Si Si3 0.833880 0.616039 0.329626
Si Si4 0.323991 0.641560 0.156096
Si Si5 0.821859 0.104505 0.437157
Si Si6 0.326272 0.800569 0.934576
Si Si7 0.675250 0.555841 0.236998
O O1 0.750000 0.250000 0.728642
O O2 0.838701 0.335255 0.705069
O O3 0.731585 0.314850 0.804915
O O4 0.000000 0.284934 0.775111
O O5 0.756473 0.949663 0.421742
O O6 0.877702 0.000000 0.500000
O O7 0.000000 0.000000 0.402216
O O8 0.751887 0.634529 0.386950
O O9 0.750054 0.573794 0.294863
O O10 0.000000 0.597357 0.342976
O O11 0.500000 0.643752 0.148125
O O12 0.245079 0.652218 0.096428
O O13 0.275628 0.589567 0.183762
O O14 0.770513 0.121046 0.500000
O O15 0.000000 0.105779 0.434237
O O16 0.500000 0.797082 0.920073
O O17 0.250000 0.750000 0.915297
O O18 0.297428 0.809789 0.000000
O O19 0.500000 0.560633 0.246293
O O20 0.722357 0.500000 0.224704
#
# Coordination Sequence:
#
# PCOD8268646 Si02
#       7
#    16   8  16  16  16  16  16
#     4  10  20  34  51  71  97 127 160 199 243 291
#     4   7  12  24  41  61  83 111 149 185 216 257
#     4  10  21  33  47  72 101 126 154 196 249 294
#     4  10  19  32  52  76 101 130 165 203 244 288
#     4   9  17  30  48  68  92 125 162 196 233 285
#     4  10  20  33  50  74 105 138 169 202 243 291
#     4   9  19  35  53  72  96 130 169 204 238 283
#
# _framework density 17.708205
#
# number of rings (size 3 to 8) (size 9 to 14) (size 15 to 20)
#    0.000    2.538    0.000    3.231    1.077    4.000 
#    0.000    0.000    0.000    2.308    0.000    3.231 
#    0.000    0.000    0.000    0.000    0.000    0.000 
#
# Total GULP energy -644309.619467 kJ/mol
# GULP energy per Si atom -12390.569605 kJ/mol
# Density = 1.766790 g / cm^3
# Si number density = 17.708205 Si / 1000 Ang^3
#
#
#
# Elastic Constant Matrix: (Units=GPa)
#
#
# Indices 1 2 3 4 5 6 
#
# 1 82.8175 41.3802 49.4419 0.0000 0.0000 0.0000
# 2 41.3802 76.8608 36.7229 0.0000 0.0000 0.0000
# 3 49.4419 36.7229 105.9829 0.0000 0.0000 0.0000
# 4 0.0000 0.0000 0.0000 8.1773 0.0000 0.0000
# 5 0.0000 0.0000 0.0000 0.0000 28.0783 0.0000
# 6 0.0000 0.0000 0.0000 0.0000 0.0000 22.7062
#
#
#
# Elastic Compliance Matrix: (Units=1/GPa)
#
#
# Indices 1 2 3 4 5 6 
#
# 1 0.019769 -0.007474 -0.006633 0.000000 0.000000 0.000000
# 2 -0.007474 0.018418 -0.002895 0.000000 0.000000 0.000000
# 3 -0.006633 -0.002895 0.013533 0.000000 0.000000 0.000000
# 4 0.000000 0.000000 0.000000 0.122290 0.000000 0.000000
# 5 0.000000 0.000000 0.000000 0.000000 0.035615 0.000000
# 6 0.000000 0.000000 0.000000 0.000000 0.000000 0.044041
#
#
# Mechanical properties :
#
#
# Convention : Reuss Voigt Hill
#
# Bulk Modulus (GPa) = 56.44649 57.86126 57.15387
# Shear Modulus (GPa) = 17.03150 21.00010 19.01580
#
# Velocity S-wave (km/s) = 3.10463 3.44742 3.28051
# Velocity P-wave (km/s) = 6.69304 6.97080 6.83333
#
# Compressibility (1/GPa) = 0.01771589
#
# Stress axis : x y z
#
# Youngs Moduli (GPa) = 50.58457 54.29581 73.89508
#
# Poissons Ratio (x) = 0.40582 0.49011
# Poissons Ratio (y) = 0.37808 0.21392
# Poissons Ratio (z) = 0.33550 0.15718
#
# Static dielectric constant tensor:
#      x y z
#    x 3.360330 0.000000 0.000000 
#    y 0.000000 3.450690 0.000000 
#    z 0.000000 0.000000 3.327090 
# 
# 
# High freq. dielectric constant tensor:
#      x y z
#    x 1.685760 0.000000 0.000000 
#    y 0.000000 1.662020 0.000000 
#    z 0.000000 0.000000 1.681730 
# 
# From -- ./inp_files/68185.got.cif
#   From: 2010.03.12/outbox.cif.g09.slc.cpg/sg65_35_cif.got.tgz:68185.got - 2010.04.10 20:52:16.
