data_PCOD8268847
_publ_section_title
;
Structure prediction by ZEFSAII (Michael W. Deem and Ramdas Pophale) SiO2 
 PCOD8268847
Probable space group: C M M M
;
_chemical_formula_sum "Si O2"
_cell_formula_units_Z 112
_cell_length_a 13.901999
_cell_length_b 32.592980
_cell_length_c 14.679656
_cell_angle_alpha 90.000000
_cell_angle_beta 90.000000
_cell_angle_gamma 90.000000
_cell_volume 6651.463337
_symmetry_space_group_name_H-M "C M M M"
_symmetry_group_IT_number 65
_symmetry_cell_setting 'orthorhombic'
loop_
_space_group_symop_operation_xyz
x,y,z
-x,-y,z
x,-y,-z
-x,y,-z
-x,-y,-z
x,y,-z
-x,y,z
x,-y,z
1/2+x,1/2+y,z
1/2-x,1/2-y,z
1/2+x,1/2-y,-z
1/2-x,1/2+y,-z
1/2-x,1/2-y,-z
1/2+x,1/2+y,-z
1/2-x,1/2+y,z
1/2+x,1/2-y,z
loop_
_atom_site_type_symbol
_atom_site_label
_atom_site_fract_x
_atom_site_fract_y
_atom_site_fract_z
Si Si1 0.188862 0.691849 0.100988
Si Si2 0.892868 0.954359 0.392008
Si Si3 0.390646 0.844888 0.273607
Si Si4 0.101750 0.187387 0.344685
Si Si5 0.756591 0.883098 0.605248
Si Si6 0.350102 0.230916 0.398941
Si Si7 0.889397 0.220025 0.855922
O O1 0.162713 0.657274 0.175570
O O2 0.131778 0.731727 0.137177
O O3 0.304426 0.697598 0.088204
O O4 0.150527 0.679846 0.000000
O O5 0.896974 0.950425 0.500000
O O6 0.819455 0.920448 0.353606
O O7 0.000000 0.946357 0.352624
O O8 0.857856 0.000000 0.363513
O O9 0.500000 0.858585 0.257993
O O10 0.339333 0.879947 0.334410
O O11 0.388770 0.801972 0.327702
O O12 0.186504 0.159778 0.385127
O O13 0.083828 0.228634 0.403361
O O14 0.126324 0.202621 0.244190
O O15 0.000000 0.162721 0.347829
O O16 0.729604 0.890569 0.500000
O O17 0.344125 0.210736 0.500000
O O18 0.250000 0.250000 0.363789
O O19 0.000000 0.211475 0.890046
#
# Coordination Sequence:
#
# PCOD8268847 Si02
#       7
#    16  16  16  16  16  16  16
#     4  11  22  36  52  66  86 123 170 215 261 305
#     4   8  15  30  53  80 107 133 161 194 236 290
#     4  12  24  37  48  64  94 129 172 217 253 295
#     4  11  20  30  46  66  94 129 163 204 250 291
#     4  11  21  33  50  72 102 134 165 201 241 288
#     4  11  20  32  46  59  85 126 168 209 247 282
#     4  10  19  33  50  67  89 120 161 211 262 302
#
# _framework density 16.838398999999999
#
# number of rings (size 3 to 8) (size 9 to 14) (size 15 to 20)
#    0.000    1.429    4.286    3.429    0.000    5.429 
#    0.000    0.000    0.000    0.429    0.000    2.000 
#    0.000    0.571    0.000    2.857    0.000    0.143 
#
# Total GULP energy -693842.316384 kJ/mol
# GULP energy per Si atom -12390.041364 kJ/mol
# Density = 1.680007 g / cm^3
# Si number density = 16.838399 Si / 1000 Ang^3
#
#
#
# Elastic Constant Matrix: (Units=GPa)
#
#
# Indices 1 2 3 4 5 6 
#
# 1 116.6075 28.1314 30.4008 0.0000 0.0000 0.0000
# 2 28.1314 66.4343 15.1414 0.0000 0.0000 0.0000
# 3 30.4008 15.1414 82.3405 0.0000 0.0000 0.0000
# 4 0.0000 0.0000 0.0000 -0.7442 0.0000 0.0000
# 5 0.0000 0.0000 0.0000 0.0000 10.5559 0.0000
# 6 0.0000 0.0000 0.0000 0.0000 0.0000 23.3936
#
#
#
# Elastic Compliance Matrix: (Units=1/GPa)
#
#
# Indices 1 2 3 4 5 6 
#
# 1 0.010267 -0.003636 -0.003122 0.000000 0.000000 0.000000
# 2 -0.003636 0.016999 -0.001783 0.000000 0.000000 0.000000
# 3 -0.003122 -0.001783 0.013625 0.000000 0.000000 0.000000
# 4 0.000000 0.000000 0.000000 -1.343754 0.000000 0.000000
# 5 0.000000 0.000000 0.000000 0.000000 0.094734 0.000000
# 6 0.000000 0.000000 0.000000 0.000000 0.000000 0.042747
#
#
# Mechanical properties :
#
#
# Convention : Reuss Voigt Hill
#
# Bulk Modulus (GPa) = 42.00261 45.85883 43.93072
# Shear Modulus (GPa) = -4.38456 19.42166 7.51855
#
# Velocity S-wave (km/s) = -1.61541 3.39988 2.11538
# Velocity P-wave (km/s) = 4.63889 6.53499 5.66680
#
# Compressibility (1/GPa) = 0.02380804
#
# Stress axis : x y z
#
# Youngs Moduli (GPa) = 97.40062 58.82859 73.39279
#
# Poissons Ratio (x) = 0.21390 0.22913
# Poissons Ratio (y) = 0.35414 0.13089
# Poissons Ratio (z) = 0.30409 0.10492
#
# Static dielectric constant tensor:
#      x y z
#    x 3.526030 0.000000 0.000000 
#    y 0.000000 2.880440 0.000000 
#    z 0.000000 0.000000 3.047210 
# 
# 
# High freq. dielectric constant tensor:
#      x y z
#    x 1.664770 0.000000 0.000000 
#    y 0.000000 1.583980 0.000000 
#    z 0.000000 0.000000 1.634840 
# 
# From -- ./inp_files/41340.got.cif
#   From: 2010.03.12/outbox.cif.g09.slc.cpg/sg65_21_cif.got.tgz:41340.got - 2010.04.10 20:52:16.
