data_PCOD8268793
_publ_section_title
;
Structure prediction by ZEFSAII (Michael W. Deem and Ramdas Pophale) SiO2 
 PCOD8268793
Probable space group: C M M M
;
_chemical_formula_sum "Si O2"
_cell_formula_units_Z 104
_cell_length_a 18.344512
_cell_length_b 15.829354
_cell_length_c 17.536626
_cell_angle_alpha 90.000000
_cell_angle_beta 90.000000
_cell_angle_gamma 90.000000
_cell_volume 5092.316575
_symmetry_space_group_name_H-M "C M M M"
_symmetry_group_IT_number 65
_symmetry_cell_setting 'orthorhombic'
loop_
_space_group_symop_operation_xyz
x,y,z
-x,-y,z
x,-y,-z
-x,y,-z
-x,-y,-z
x,y,-z
-x,y,z
x,-y,z
1/2+x,1/2+y,z
1/2-x,1/2-y,z
1/2+x,1/2-y,-z
1/2-x,1/2+y,-z
1/2-x,1/2-y,-z
1/2+x,1/2+y,-z
1/2-x,1/2+y,z
1/2+x,1/2-y,z
loop_
_atom_site_type_symbol
_atom_site_label
_atom_site_fract_x
_atom_site_fract_y
_atom_site_fract_z
Si Si1 0.415814 0.338818 0.172266
Si Si2 0.584043 0.592333 0.338098
Si Si3 0.713023 0.597318 0.913269
Si Si4 0.912939 0.739484 0.585922
Si Si5 0.148180 0.340567 0.844341
Si Si6 0.415917 0.094099 0.697788
Si Si7 0.585524 0.093863 0.000000
O O1 0.500000 0.329132 0.147345
O O2 0.407962 0.393036 0.248379
O O3 0.371637 0.386669 0.106004
O O4 0.378397 0.249043 0.186893
O O5 0.500000 0.588483 0.361296
O O6 0.619603 0.500000 0.357782
O O7 0.619622 0.670536 0.384562
O O8 0.732978 0.500000 0.901477
O O9 0.764807 0.653387 0.858361
O O10 0.727236 0.625211 0.000000
O O11 0.885321 0.724590 0.500000
O O12 0.883555 0.662363 0.637996
O O13 0.000000 0.741012 0.590058
O O14 0.126413 0.405769 0.778136
O O15 0.109695 0.357930 0.924573
O O16 0.500000 0.115490 0.714986
O O17 0.407473 0.000000 0.662637
O O18 0.500000 0.087799 0.000000
O O19 0.620574 0.000000 0.000000
#
# Coordination Sequence:
#
# PCOD8268793 Si02
#       7
#    16  16  16  16  16  16   8
#     4  11  23  39  61  88 118 155 204 254 305 365
#     4   9  17  32  54  80 112 151 195 246 300 354
#     4  11  25  43  60  83 119 160 202 252 310 369
#     4   9  17  30  49  80 120 156 195 247 304 361
#     4  12  22  38  60  83 117 157 200 252 310 359
#     4  10  19  32  53  82 117 161 208 251 301 364
#     4  11  22  34  53  82 114 154 201 251 306 358
#
# _framework density 20.422924999999999
#
# number of rings (size 3 to 8) (size 9 to 14) (size 15 to 20)
#    0.000    1.615    2.308    3.692    1.077    3.692 
#    0.000    3.846    0.000    0.000    0.000    2.154 
#    0.000    3.692    0.000    0.154    0.000    0.000 
#
# Total GULP energy -644669.344036 kJ/mol
# GULP energy per Si atom -12397.487385 kJ/mol
# Density = 2.037644 g / cm^3
# Si number density = 20.422925 Si / 1000 Ang^3
#
#
#
# Elastic Constant Matrix: (Units=GPa)
#
#
# Indices 1 2 3 4 5 6 
#
# 1 83.7443 25.4224 31.3620 0.0000 0.0000 0.0000
# 2 25.4224 131.8275 65.9237 0.0000 0.0000 0.0000
# 3 31.3620 65.9237 113.2388 0.0000 0.0000 0.0000
# 4 0.0000 0.0000 0.0000 27.7606 0.0000 0.0000
# 5 0.0000 0.0000 0.0000 0.0000 12.5991 0.0000
# 6 0.0000 0.0000 0.0000 0.0000 0.0000 19.6867
#
#
#
# Elastic Compliance Matrix: (Units=1/GPa)
#
#
# Indices 1 2 3 4 5 6 
#
# 1 0.013421 -0.001029 -0.003118 0.000000 0.000000 0.000000
# 2 -0.001029 0.010780 -0.005991 0.000000 0.000000 0.000000
# 3 -0.003118 -0.005991 0.013182 0.000000 0.000000 0.000000
# 4 0.000000 0.000000 0.000000 0.036022 0.000000 0.000000
# 5 0.000000 0.000000 0.000000 0.000000 0.079371 0.000000
# 6 0.000000 0.000000 0.000000 0.000000 0.000000 0.050796
#
#
# Mechanical properties :
#
#
# Convention : Reuss Voigt Hill
#
# Bulk Modulus (GPa) = 58.45323 63.80298 61.12810
# Shear Modulus (GPa) = 21.78177 25.74945 23.76561
#
# Velocity S-wave (km/s) = 3.26933 3.55464 3.41497
# Velocity P-wave (km/s) = 6.55247 6.93945 6.74874
#
# Compressibility (1/GPa) = 0.01710770
#
# Stress axis : x y z
#
# Youngs Moduli (GPa) = 74.50921 92.76512 75.86092
#
# Poissons Ratio (x) = 0.09545 0.23654
# Poissons Ratio (y) = 0.07667 0.45446
# Poissons Ratio (z) = 0.23232 0.55573
#
# Static dielectric constant tensor:
#      x y z
#    x 3.455380 0.000000 0.000000 
#    y 0.000000 3.971390 0.000000 
#    z 0.000000 0.000000 3.626690 
# 
# 
# High freq. dielectric constant tensor:
#      x y z
#    x 1.757510 0.000000 0.000000 
#    y 0.000000 1.816330 0.000000 
#    z 0.000000 0.000000 1.787650 
# 
# From -- ./inp_files/55867.got.cif
#   From: 2010.03.12/outbox.cif.g09.slc.cpg/sg65_28_cif.got.tgz:55867.got - 2010.04.10 20:52:16.
