data_PCOD8268156
_publ_section_title
;
Structure prediction by ZEFSAII (Michael W. Deem and Ramdas Pophale) SiO2 
 PCOD8268156
Probable space group: C M M M
;
_chemical_formula_sum "Si O2"
_cell_formula_units_Z 88
_cell_length_a 18.150082
_cell_length_b 8.943149
_cell_length_c 28.763296
_cell_angle_alpha 90.000000
_cell_angle_beta 90.000000
_cell_angle_gamma 90.000000
_cell_volume 4668.826213
_symmetry_space_group_name_H-M "C M M M"
_symmetry_group_IT_number 65
_symmetry_cell_setting 'orthorhombic'
loop_
_space_group_symop_operation_xyz
x,y,z
-x,-y,z
x,-y,-z
-x,y,-z
-x,-y,-z
x,y,-z
-x,y,z
x,-y,z
1/2+x,1/2+y,z
1/2-x,1/2-y,z
1/2+x,1/2-y,-z
1/2-x,1/2+y,-z
1/2-x,1/2-y,-z
1/2+x,1/2+y,-z
1/2-x,1/2+y,z
1/2+x,1/2-y,z
loop_
_atom_site_type_symbol
_atom_site_label
_atom_site_fract_x
_atom_site_fract_y
_atom_site_fract_z
Si Si1 0.829429 0.676177 0.149707
Si Si2 0.415623 0.174018 0.676182
Si Si3 0.828160 0.674398 0.950945
Si Si4 0.829550 0.322938 0.583710
Si Si5 0.087142 0.172985 0.500000
Si Si6 0.912840 0.168543 0.769117
O O1 0.820362 0.500000 0.156029
O O2 0.750000 0.750000 0.156082
O O3 0.865330 0.717706 0.098617
O O4 0.884655 0.735882 0.187971
O O5 0.500000 0.218585 0.664650
O O6 0.364609 0.218963 0.633159
O O7 0.384625 0.263180 0.720566
O O8 0.409903 0.000000 0.687887
O O9 0.813237 0.500000 0.950228
O O10 0.750000 0.750000 0.952472
O O11 0.871035 0.716720 0.000000
O O12 0.823579 0.500000 0.576415
O O13 0.750000 0.250000 0.579580
O O14 0.882248 0.254568 0.545140
O O15 0.000000 0.189963 0.500000
O O16 0.111636 0.000000 0.500000
O O17 0.000000 0.175324 0.770527
O O18 0.882972 0.000000 0.772969
#
# Coordination Sequence:
#
# PCOD8268156 Si02
#       6
#    16  16  16  16   8  16
#     4  10  19  31  50  75 103 134 169 213 262 313
#     4   9  19  37  59  80 103 137 181 223 265 316
#     4   8  14  25  42  66  95 126 162 205 254 307
#     4  11  23  39  60  86 117 149 181 221 268 315
#     4  11  24  41  62  87 115 149 188 227 266 313
#     4  10  21  36  54  76 104 139 177 218 263 313
#
# _framework density 18.848419
#
# number of rings (size 3 to 8) (size 9 to 14) (size 15 to 20)
#    0.000    2.273    0.000    2.727    0.000    5.455 
#    0.000    3.636    0.000    0.545    0.000    3.818 
#    0.000    0.000    0.000    0.000    0.000    0.000 
#
# Total GULP energy -545264.121806 kJ/mol
# GULP energy per Si atom -12392.366405 kJ/mol
# Density = 1.880552 g / cm^3
# Si number density = 18.848419 Si / 1000 Ang^3
#
#
#
# Elastic Constant Matrix: (Units=GPa)
#
#
# Indices 1 2 3 4 5 6 
#
# 1 48.4502 30.5723 46.4930 0.0000 0.0000 0.0000
# 2 30.5723 91.4239 73.5584 0.0000 0.0000 0.0000
# 3 46.4930 73.5584 181.1466 0.0000 0.0000 0.0000
# 4 0.0000 0.0000 0.0000 13.4575 0.0000 0.0000
# 5 0.0000 0.0000 0.0000 0.0000 41.1426 0.0000
# 6 0.0000 0.0000 0.0000 0.0000 0.0000 24.7805
#
#
#
# Elastic Compliance Matrix: (Units=1/GPa)
#
#
# Indices 1 2 3 4 5 6 
#
# 1 0.029158 -0.005539 -0.005234 0.000000 0.000000 0.000000
# 2 -0.005539 0.017298 -0.005603 0.000000 0.000000 0.000000
# 3 -0.005234 -0.005603 0.009139 0.000000 0.000000 0.000000
# 4 0.000000 0.000000 0.000000 0.074308 0.000000 0.000000
# 5 0.000000 0.000000 0.000000 0.000000 0.024306 0.000000
# 6 0.000000 0.000000 0.000000 0.000000 0.000000 0.040354
#
#
# Mechanical properties :
#
#
# Convention : Reuss Voigt Hill
#
# Bulk Modulus (GPa) = 43.77726 69.14088 56.45907
# Shear Modulus (GPa) = 21.28302 27.23592 24.25947
#
# Velocity S-wave (km/s) = 3.36395 3.80544 3.59149
# Velocity P-wave (km/s) = 6.19392 7.48804 6.87151
#
# Compressibility (1/GPa) = 0.02284291
#
# Stress axis : x y z
#
# Youngs Moduli (GPa) = 34.29618 57.80991 109.42187
#
# Poissons Ratio (x) = 0.32020 0.57276
# Poissons Ratio (y) = 0.18996 0.61305
# Poissons Ratio (z) = 0.17952 0.32389
#
# Static dielectric constant tensor:
#      x y z
#    x 3.132340 0.000000 0.000000 
#    y 0.000000 3.609650 0.000000 
#    z 0.000000 0.000000 4.090280 
# 
# 
# High freq. dielectric constant tensor:
#      x y z
#    x 1.697870 0.000000 0.000000 
#    y 0.000000 1.742610 0.000000 
#    z 0.000000 0.000000 1.761890 
# 
# From -- ./inp_files/77904.got.cif
#   From: 2010.03.12/outbox.cif.g09.slc.cpg/sg65_39_cif.got.tgz:77904.got - 2010.04.10 20:52:16.
