data_PCOD8268980
_publ_section_title
;
Structure prediction by ZEFSAII (Michael W. Deem and Ramdas Pophale) SiO2 
 PCOD8268980
Probable space group: C M M M
;
_chemical_formula_sum "Si O2"
_cell_formula_units_Z 96
_cell_length_a 8.587092
_cell_length_b 23.307923
_cell_length_c 25.798059
_cell_angle_alpha 90.000000
_cell_angle_beta 90.000000
_cell_angle_gamma 90.000000
_cell_volume 5163.411316
_symmetry_space_group_name_H-M "C M M M"
_symmetry_group_IT_number 65
_symmetry_cell_setting 'orthorhombic'
loop_
_space_group_symop_operation_xyz
x,y,z
-x,-y,z
x,-y,-z
-x,y,-z
-x,-y,-z
x,y,-z
-x,y,z
x,-y,z
1/2+x,1/2+y,z
1/2-x,1/2-y,z
1/2+x,1/2-y,-z
1/2-x,1/2+y,-z
1/2-x,1/2-y,-z
1/2+x,1/2+y,-z
1/2-x,1/2+y,z
1/2+x,1/2-y,z
loop_
_atom_site_type_symbol
_atom_site_label
_atom_site_fract_x
_atom_site_fract_y
_atom_site_fract_z
Si Si1 0.316302 0.500000 0.868756
Si Si2 0.684488 0.622114 0.712766
Si Si3 0.683698 0.187103 0.807406
Si Si4 0.182743 0.877987 0.903248
Si Si5 0.315713 0.500000 0.247410
Si Si6 0.681235 0.187050 0.000000
Si Si7 0.183375 0.812552 0.500000
Si Si8 0.683529 0.313155 0.611627
O O1 0.500000 0.500000 0.860997
O O2 0.264757 0.555477 0.901580
O O3 0.242728 0.500000 0.810692
O O4 0.500000 0.629096 0.722330
O O5 0.777269 0.663977 0.750727
O O6 0.739949 0.556597 0.721668
O O7 0.735275 0.641212 0.655102
O O8 0.500000 0.186699 0.817634
O O9 0.750000 0.250000 0.814240
O O10 0.772095 0.147708 0.848259
O O11 0.271373 0.847204 0.949207
O O12 0.000000 0.871097 0.912860
O O13 0.500000 0.500000 0.243813
O O14 0.750000 0.250000 0.000000
O O15 0.500000 0.195249 0.000000
O O16 0.250000 0.750000 0.500000
O O17 0.238450 0.839705 0.555278
O O18 0.000000 0.809902 0.500000
O O19 0.500000 0.305529 0.612665
O O20 0.750000 0.250000 0.622833
#
# Coordination Sequence:
#
# PCOD8268980 Si02
#       8
#     8  16  16  16   8   8   8  16
#     4   9  18  35  63  88 110 143 184 224 263 318
#     4  10  19  33  53  76 103 139 181 223 268 322
#     4  12  24  37  54  80 111 144 177 220 274 327
#     4  11  22  41  65  88 113 147 186 224 264 316
#     4   9  16  32  55  78 104 140 182 220 263 322
#     4  12  26  45  64  89 119 150 184 224 273 322
#     4   8  14  26  42  65  97 133 173 216 269 320
#     4   9  17  28  46  71 101 136 174 221 270 323
#
# _framework density 18.592359999999999
#
# number of rings (size 3 to 8) (size 9 to 14) (size 15 to 20)
#    0.000    1.833    1.667    3.750    0.000    2.333 
#    0.000    4.583    0.000    0.500    0.000    3.500 
#    0.000    0.000    0.000   13.750    0.000   10.167 
#
# Total GULP energy -594959.859084 kJ/mol
# GULP energy per Si atom -12394.997064 kJ/mol
# Density = 1.855004 g / cm^3
# Si number density = 18.592360 Si / 1000 Ang^3
#
#
#
# Elastic Constant Matrix: (Units=GPa)
#
#
# Indices 1 2 3 4 5 6 
#
# 1 51.3638 38.3849 29.1429 0.0000 0.0000 0.0000
# 2 38.3849 132.7734 58.5230 0.0000 0.0000 0.0000
# 3 29.1429 58.5230 141.2642 0.0000 0.0000 0.0000
# 4 0.0000 0.0000 0.0000 52.6437 0.0000 0.0000
# 5 0.0000 0.0000 0.0000 0.0000 36.6312 0.0000
# 6 0.0000 0.0000 0.0000 0.0000 0.0000 15.0346
#
#
#
# Elastic Compliance Matrix: (Units=1/GPa)
#
#
# Indices 1 2 3 4 5 6 
#
# 1 0.025659 -0.006221 -0.002716 0.000000 0.000000 0.000000
# 2 -0.006221 0.010722 -0.003159 0.000000 0.000000 0.000000
# 3 -0.002716 -0.003159 0.008948 0.000000 0.000000 0.000000
# 4 0.000000 0.000000 0.000000 0.018996 0.000000 0.000000
# 5 0.000000 0.000000 0.000000 0.000000 0.027299 0.000000
# 6 0.000000 0.000000 0.000000 0.000000 0.000000 0.066513
#
#
# Mechanical properties :
#
#
# Convention : Reuss Voigt Hill
#
# Bulk Modulus (GPa) = 47.30894 64.16701 55.73798
# Shear Modulus (GPa) = 26.40267 34.15194 30.27731
#
# Velocity S-wave (km/s) = 3.77249 4.29053 4.03982
# Velocity P-wave (km/s) = 6.66904 7.68976 7.19752
#
# Compressibility (1/GPa) = 0.02113765
#
# Stress axis : x y z
#
# Youngs Moduli (GPa) = 38.97267 93.26341 111.75801
#
# Poissons Ratio (x) = 0.58017 0.30357
# Poissons Ratio (y) = 0.24244 0.35301
# Poissons Ratio (z) = 0.10586 0.29459
#
# Static dielectric constant tensor:
#      x y z
#    x 3.429790 0.000000 0.000000 
#    y 0.000000 3.839320 0.000000 
#    z 0.000000 0.000000 9.237290 
# 
# 
# High freq. dielectric constant tensor:
#      x y z
#    x 1.707070 0.000000 0.000000 
#    y 0.000000 1.714050 0.000000 
#    z 0.000000 0.000000 1.734880 
# 
# From -- ./inp_files/67939.got.cif
#   From: 2010.03.12/outbox.cif.g09.slc.cpg/sg65_34_cif.got.tgz:67939.got - 2010.04.10 20:52:16.
