data_PCOD8268743
_publ_section_title
;
Structure prediction by ZEFSAII (Michael W. Deem and Ramdas Pophale) SiO2 
 PCOD8268743
Probable space group: C M M M
;
_chemical_formula_sum "Si O2"
_cell_formula_units_Z 120
_cell_length_a 25.651032
_cell_length_b 20.823335
_cell_length_c 12.673324
_cell_angle_alpha 90.000000
_cell_angle_beta 90.000000
_cell_angle_gamma 90.000000
_cell_volume 6769.329692
_symmetry_space_group_name_H-M "C M M M"
_symmetry_group_IT_number 65
_symmetry_cell_setting 'orthorhombic'
loop_
_space_group_symop_operation_xyz
x,y,z
-x,-y,z
x,-y,-z
-x,y,-z
-x,-y,-z
x,y,-z
-x,y,z
x,-y,z
1/2+x,1/2+y,z
1/2-x,1/2-y,z
1/2+x,1/2-y,-z
1/2-x,1/2+y,-z
1/2-x,1/2-y,-z
1/2+x,1/2+y,-z
1/2-x,1/2+y,z
1/2+x,1/2-y,z
loop_
_atom_site_type_symbol
_atom_site_label
_atom_site_fract_x
_atom_site_fract_y
_atom_site_fract_z
Si Si1 0.870773 0.319192 0.735311
Si Si2 0.325773 0.297034 0.620103
Si Si3 0.939718 0.771784 0.876699
Si Si4 0.060284 0.425856 0.376834
Si Si5 0.441744 0.500000 0.386397
Si Si6 0.601538 0.385763 0.260999
Si Si7 0.809130 0.930130 0.883101
Si Si8 0.756910 0.680562 0.798753
O O1 0.853197 0.271278 0.642424
O O2 0.905007 0.283893 0.824454
O O3 0.902335 0.379799 0.690490
O O4 0.816547 0.341831 0.786993
O O5 0.307929 0.301209 0.500000
O O6 0.369895 0.348715 0.644839
O O7 0.273931 0.310984 0.687984
O O8 0.930144 0.838748 0.816569
O O9 0.000000 0.752512 0.864456
O O10 0.924389 0.778913 0.000000
O O11 0.071051 0.414001 0.500000
O O12 0.072415 0.500000 0.347656
O O13 0.000000 0.409892 0.350687
O O14 0.500000 0.500000 0.422406
O O15 0.410149 0.500000 0.500000
O O16 0.434869 0.563287 0.316645
O O17 0.643334 0.425016 0.195367
O O18 0.767286 0.874393 0.869769
O O19 0.782511 0.000000 0.864840
O O20 0.832236 0.924711 0.000000
O O21 0.750000 0.750000 0.856587
#
# Coordination Sequence:
#
# PCOD8268743 Si02
#       8
#    16  16  16  16   8  16  16  16
#     4  10  19  32  53  76 100 134 172 212 258 312
#     4   9  18  32  51  75 103 135 168 205 253 303
#     4  10  21  36  54  76 103 134 171 220 269 309
#     4   9  18  32  50  74 103 134 169 210 259 312
#     4  11  22  34  51  75 105 141 176 212 252 297
#     4  10  19  35  53  75 103 135 175 212 251 306
#     4  10  20  35  55  75 100 134 170 214 261 306
#     4   9  20  33  49  76 104 132 167 210 257 308
#
# _framework density 17.727015000000002
#
# number of rings (size 3 to 8) (size 9 to 14) (size 15 to 20)
#    0.000    2.333    0.667    3.200    0.000    4.267 
#    0.000    0.000    0.000    8.400    0.000    1.867 
#    0.000    0.000    0.000    0.000    0.000    0.000 
#
# Total GULP energy -743584.135965 kJ/mol
# GULP energy per Si atom -12393.068933 kJ/mol
# Density = 1.768667 g / cm^3
# Si number density = 17.727015 Si / 1000 Ang^3
#
#
#
# Elastic Constant Matrix: (Units=GPa)
#
#
# Indices 1 2 3 4 5 6 
#
# 1 99.2972 45.6646 30.7641 0.0000 0.0000 0.0000
# 2 45.6646 112.9914 47.2416 0.0000 0.0000 0.0000
# 3 30.7641 47.2416 88.2086 0.0000 0.0000 0.0000
# 4 0.0000 0.0000 0.0000 17.5745 0.0000 0.0000
# 5 0.0000 0.0000 0.0000 0.0000 -96.4076 0.0000
# 6 0.0000 0.0000 0.0000 0.0000 0.0000 32.1066
#
#
#
# Elastic Compliance Matrix: (Units=1/GPa)
#
#
# Indices 1 2 3 4 5 6 
#
# 1 0.012682 -0.004221 -0.002162 0.000000 0.000000 0.000000
# 2 -0.004221 0.012809 -0.005388 0.000000 0.000000 0.000000
# 3 -0.002162 -0.005388 0.014976 0.000000 0.000000 0.000000
# 4 0.000000 0.000000 0.000000 0.056901 0.000000 0.000000
# 5 0.000000 0.000000 0.000000 0.000000 -0.010373 0.000000
# 6 0.000000 0.000000 0.000000 0.000000 0.000000 0.031146
#
#
# Mechanical properties :
#
#
# Convention : Reuss Voigt Hill
#
# Bulk Modulus (GPa) = 59.08556 60.87088 59.97822
# Shear Modulus (GPa) = 33.93844 2.44315 18.19080
#
# Velocity S-wave (km/s) = 4.38025 1.17524 3.20685
# Velocity P-wave (km/s) = 7.68019 6.02113 6.90070
#
# Compressibility (1/GPa) = 0.01692461
#
# Stress axis : x y z
#
# Youngs Moduli (GPa) = 78.85220 78.07103 66.77174
#
# Poissons Ratio (x) = 0.32956 0.14438
# Poissons Ratio (y) = 0.33286 0.35975
# Poissons Ratio (z) = 0.17050 0.42063
#
# Static dielectric constant tensor:
#      x y z
#    x 3.263650 0.000000 0.000000 
#    y 0.000000 3.403500 0.000000 
#    z 0.000000 0.000000 3.131390 
# 
# 
# High freq. dielectric constant tensor:
#      x y z
#    x 1.684750 0.000000 0.000000 
#    y 0.000000 1.689620 0.000000 
#    z 0.000000 0.000000 1.681070 
# 
# From -- ./inp_files/31123.got.cif
#   From: 2010.03.12/outbox.cif.g09.slc.cpg/sg65_16_cif.got.tgz:31123.got - 2010.04.10 20:52:16.
