data_PCOD8268264
_publ_section_title
;
Structure prediction by ZEFSAII (Michael W. Deem and Ramdas Pophale) SiO2 
 PCOD8268264
Probable space group: C M M M
;
_chemical_formula_sum "Si O2"
_cell_formula_units_Z 96
_cell_length_a 22.525643
_cell_length_b 24.328135
_cell_length_c 9.414083
_cell_angle_alpha 90.000000
_cell_angle_beta 90.000000
_cell_angle_gamma 90.000000
_cell_volume 5158.982289
_symmetry_space_group_name_H-M "C M M M"
_symmetry_group_IT_number 65
_symmetry_cell_setting 'orthorhombic'
loop_
_space_group_symop_operation_xyz
x,y,z
-x,-y,z
x,-y,-z
-x,y,-z
-x,-y,-z
x,y,-z
-x,y,z
x,-y,z
1/2+x,1/2+y,z
1/2-x,1/2-y,z
1/2+x,1/2-y,-z
1/2-x,1/2+y,-z
1/2-x,1/2-y,-z
1/2+x,1/2+y,-z
1/2-x,1/2+y,z
1/2+x,1/2-y,z
loop_
_atom_site_type_symbol
_atom_site_label
_atom_site_fract_x
_atom_site_fract_y
_atom_site_fract_z
Si Si1 0.068761 0.680610 0.832548
Si Si2 0.230179 0.811923 0.342760
Si Si3 0.616125 0.298004 0.165114
Si Si4 0.156906 0.000000 0.830439
Si Si5 0.719603 0.000000 0.664944
Si Si6 0.161845 0.385555 0.666186
Si Si7 0.435791 0.411529 0.166239
O O1 0.090874 0.740287 0.776458
O O2 0.103638 0.631998 0.753295
O O3 0.000000 0.674280 0.793488
O O4 0.079311 0.675121 0.000000
O O5 0.212223 0.833305 0.500000
O O6 0.250000 0.750000 0.351641
O O7 0.175950 0.817583 0.238037
O O8 0.283725 0.848050 0.281093
O O9 0.569845 0.346563 0.197107
O O10 0.630024 0.292213 0.000000
O O11 0.220769 0.000000 0.757010
O O12 0.119346 0.947123 0.774568
O O13 0.167001 0.000000 0.000000
O O14 0.678385 0.051899 0.701907
O O15 0.738535 0.000000 0.500000
O O16 0.148903 0.376499 0.500000
O O17 0.500000 0.429796 0.230413
O O18 0.436876 0.423045 0.000000
#
# Coordination Sequence:
#
# PCOD8268264 Si02
#       7
#    16  16  16   8   8  16  16
#     4  10  21  36  54  78 107 137 170 213 264 312
#     4  10  19  32  51  76 107 137 168 212 262 306
#     4  10  19  31  51  78 107 140 177 214 256 308
#     4  10  19  32  54  81 105 136 181 221 255 300
#     4  10  22  39  58  78 104 137 169 212 267 316
#     4  10  21  38  57  78 104 137 175 211 256 313
#     4   9  17  30  49  75 108 144 180 217 254 297
#
# _framework density 18.608322000000001
#
# number of rings (size 3 to 8) (size 9 to 14) (size 15 to 20)
#    0.000    2.167    1.667    1.750    0.000    5.000 
#    0.000    0.417    0.000    6.000    0.000    0.000 
#    0.000    0.000    0.000    0.000    0.000    0.000 
#
# Total GULP energy -595088.669649 kJ/mol
# GULP energy per Si atom -12397.680618 kJ/mol
# Density = 1.856597 g / cm^3
# Si number density = 18.608322 Si / 1000 Ang^3
#
#
#
# Elastic Constant Matrix: (Units=GPa)
#
#
# Indices 1 2 3 4 5 6 
#
# 1 142.8029 64.3904 51.8808 0.0000 0.0000 0.0000
# 2 64.3904 124.9358 35.2146 0.0000 0.0000 0.0000
# 3 51.8808 35.2146 39.9443 0.0000 0.0000 0.0000
# 4 0.0000 0.0000 0.0000 23.9544 0.0000 0.0000
# 5 0.0000 0.0000 0.0000 0.0000 59.8390 0.0000
# 6 0.0000 0.0000 0.0000 0.0000 0.0000 4.6792
#
#
#
# Elastic Compliance Matrix: (Units=1/GPa)
#
#
# Indices 1 2 3 4 5 6 
#
# 1 0.013944 -0.002770 -0.015669 0.000000 0.000000 0.000000
# 2 -0.002770 0.011201 -0.006277 0.000000 0.000000 0.000000
# 3 -0.015669 -0.006277 0.050920 0.000000 0.000000 0.000000
# 4 0.000000 0.000000 0.000000 0.041746 0.000000 0.000000
# 5 0.000000 0.000000 0.000000 0.000000 0.016712 0.000000
# 6 0.000000 0.000000 0.000000 0.000000 0.000000 0.213711
#
#
# Mechanical properties :
#
#
# Convention : Reuss Voigt Hill
#
# Bulk Modulus (GPa) = 37.54718 67.85052 52.69885
# Shear Modulus (GPa) = 12.29880 28.10766 20.20323
#
# Velocity S-wave (km/s) = 2.57365 3.89072 3.29859
# Velocity P-wave (km/s) = 5.39008 7.53161 6.54898
#
# Compressibility (1/GPa) = 0.02663316
#
# Stress axis : x y z
#
# Youngs Moduli (GPa) = 71.71303 89.27768 19.63869
#
# Poissons Ratio (x) = 0.24732 0.30772
# Poissons Ratio (y) = 0.19866 0.12326
# Poissons Ratio (z) = 1.12369 0.56036
#
# Static dielectric constant tensor:
#      x y z
#    x 3.297720 0.000000 0.000000 
#    y 0.000000 3.602880 0.000000 
#    z 0.000000 0.000000 3.247970 
# 
# 
# High freq. dielectric constant tensor:
#      x y z
#    x 1.723460 0.000000 0.000000 
#    y 0.000000 1.730770 0.000000 
#    z 0.000000 0.000000 1.692670 
# 
# From -- ./inp_files/14358.got.cif
#   From: 2010.03.12/outbox.cif.g09.slc.cpg/sg65_8_cif.got.tgz:14358.got - 2010.04.10 20:52:16.
