data_PCOD8268259
_publ_section_title
;
Structure prediction by ZEFSAII (Michael W. Deem and Ramdas Pophale) SiO2 
 PCOD8268259
Probable space group: C M M M
;
_chemical_formula_sum "Si O2"
_cell_formula_units_Z 72
_cell_length_a 29.884599
_cell_length_b 14.510676
_cell_length_c 8.955932
_cell_angle_alpha 90.000000
_cell_angle_beta 90.000000
_cell_angle_gamma 90.000000
_cell_volume 3883.701701
_symmetry_space_group_name_H-M "C M M M"
_symmetry_group_IT_number 65
_symmetry_cell_setting 'orthorhombic'
loop_
_space_group_symop_operation_xyz
x,y,z
-x,-y,z
x,-y,-z
-x,y,-z
-x,-y,-z
x,y,-z
-x,y,z
x,-y,z
1/2+x,1/2+y,z
1/2-x,1/2-y,z
1/2+x,1/2-y,-z
1/2-x,1/2+y,-z
1/2-x,1/2-y,-z
1/2+x,1/2+y,-z
1/2-x,1/2+y,z
1/2+x,1/2-y,z
loop_
_atom_site_type_symbol
_atom_site_label
_atom_site_fract_x
_atom_site_fract_y
_atom_site_fract_z
Si Si1 0.052130 0.814816 0.825609
Si Si2 0.260634 0.500000 0.322235
Si Si3 0.659650 0.000000 0.323046
Si Si4 0.207871 0.805984 0.677451
Si Si5 0.946818 0.000000 0.331697
Si Si6 0.877521 0.694486 0.322704
O O1 0.076999 0.726930 0.755652
O O2 0.000000 0.801115 0.790741
O O3 0.070766 0.908666 0.751003
O O4 0.061682 0.821400 0.000000
O O5 0.257501 0.500000 0.500000
O O6 0.210059 0.500000 0.257107
O O7 0.287927 0.410973 0.265386
O O8 0.633044 0.909447 0.269219
O O9 0.663482 0.000000 0.500000
O O10 0.208873 0.800547 0.500000
O O11 0.250000 0.750000 0.742627
O O12 0.162118 0.761015 0.735557
O O13 0.927700 0.000000 0.500000
O O14 0.000000 0.000000 0.330349
O O15 0.883480 0.699821 0.500000
#
# Coordination Sequence:
#
# PCOD8268259 Si02
#       6
#    16   8   8  16   8  16
#     4  10  21  37  55  76 106 144 179 213 263 324
#     4   9  14  23  41  68 104 137 167 207 261 319
#     4   9  16  28  47  73 103 138 177 220 270 317
#     4   9  15  24  41  69 102 133 166 213 268 319
#     4   9  17  32  57  84 106 131 166 211 260 309
#     4  10  19  31  51  78 105 136 180 228 272 314
#
# _framework density 18.539014000000002
#
# number of rings (size 3 to 8) (size 9 to 14) (size 15 to 20)
#    0.000    2.556    2.222    1.000    0.000    3.556 
#    0.000    3.333    0.000    4.000    0.000    0.000 
#    0.000    0.000    0.000    0.000    0.000    0.000 
#
# Total GULP energy -446347.372907 kJ/mol
# GULP energy per Si atom -12398.538136 kJ/mol
# Density = 1.849682 g / cm^3
# Si number density = 18.539014 Si / 1000 Ang^3
#
#
#
# Elastic Constant Matrix: (Units=GPa)
#
#
# Indices 1 2 3 4 5 6 
#
# 1 83.9965 69.9154 36.7304 0.0000 0.0000 0.0000
# 2 69.9154 184.8287 39.8361 0.0000 0.0000 0.0000
# 3 36.7304 39.8361 50.8474 0.0000 0.0000 0.0000
# 4 0.0000 0.0000 0.0000 13.2682 0.0000 0.0000
# 5 0.0000 0.0000 0.0000 0.0000 10.5257 0.0000
# 6 0.0000 0.0000 0.0000 0.0000 0.0000 35.9411
#
#
#
# Elastic Compliance Matrix: (Units=1/GPa)
#
#
# Indices 1 2 3 4 5 6 
#
# 1 0.021530 -0.005766 -0.011035 0.000000 0.000000 0.000000
# 2 -0.005766 0.008054 -0.002145 0.000000 0.000000 0.000000
# 3 -0.011035 -0.002145 0.029318 0.000000 0.000000 0.000000
# 4 0.000000 0.000000 0.000000 0.075368 0.000000 0.000000
# 5 0.000000 0.000000 0.000000 0.000000 0.095005 0.000000
# 6 0.000000 0.000000 0.000000 0.000000 0.000000 0.027823
#
#
# Mechanical properties :
#
#
# Convention : Reuss Voigt Hill
#
# Bulk Modulus (GPa) = 47.59500 68.07070 57.83285
# Shear Modulus (GPa) = 16.55662 23.49306 20.02484
#
# Velocity S-wave (km/s) = 2.99167 3.56367 3.29012
# Velocity P-wave (km/s) = 6.13694 7.33009 6.75989
#
# Compressibility (1/GPa) = 0.02101061
#
# Stress axis : x y z
#
# Youngs Moduli (GPa) = 46.44668 124.16726 34.10821
#
# Poissons Ratio (x) = 0.71592 0.37640
# Poissons Ratio (y) = 0.26780 0.07315
# Poissons Ratio (z) = 0.51256 0.26629
#
# Static dielectric constant tensor:
#      x y z
#    x 3.314990 0.000000 0.000000 
#    y 0.000000 3.686900 0.000000 
#    z 0.000000 0.000000 2.907120 
# 
# 
# High freq. dielectric constant tensor:
#      x y z
#    x 1.709940 0.000000 0.000000 
#    y 0.000000 1.731010 0.000000 
#    z 0.000000 0.000000 1.667280 
# 
# From -- ./inp_files/7742.got.cif
#   From: 2010.03.12/outbox.cif.g09.slc.cpg/sg65_4_cif.got.tgz:7742.got - 2010.04.10 20:52:16.
