data_PCOD8268241
_publ_section_title
;
Structure prediction by ZEFSAII (Michael W. Deem and Ramdas Pophale) SiO2 
 PCOD8268241
Probable space group: C M M M
;
_chemical_formula_sum "Si O2"
_cell_formula_units_Z 72
_cell_length_a 9.650376
_cell_length_b 17.926847
_cell_length_c 23.362043
_cell_angle_alpha 90.000000
_cell_angle_beta 90.000000
_cell_angle_gamma 90.000000
_cell_volume 4041.652457
_symmetry_space_group_name_H-M "C M M M"
_symmetry_group_IT_number 65
_symmetry_cell_setting 'orthorhombic'
loop_
_space_group_symop_operation_xyz
x,y,z
-x,-y,z
x,-y,-z
-x,y,-z
-x,-y,-z
x,y,-z
-x,y,z
x,-y,z
1/2+x,1/2+y,z
1/2-x,1/2-y,z
1/2+x,1/2-y,-z
1/2-x,1/2+y,-z
1/2-x,1/2-y,-z
1/2+x,1/2+y,-z
1/2-x,1/2+y,z
1/2+x,1/2-y,z
loop_
_atom_site_type_symbol
_atom_site_label
_atom_site_fract_x
_atom_site_fract_y
_atom_site_fract_z
Si Si1 0.159831 0.413857 0.165701
Si Si2 0.344132 0.588657 0.063089
Si Si3 0.336883 0.824729 0.279399
Si Si4 0.163848 0.583157 0.610962
Si Si5 0.835495 0.674553 0.500000
O O1 0.197839 0.500000 0.176794
O O2 0.244303 0.379245 0.112273
O O3 0.200221 0.369280 0.222213
O O4 0.000000 0.404475 0.150033
O O5 0.500000 0.615588 0.076283
O O6 0.336400 0.500000 0.063294
O O7 0.297908 0.617692 0.000000
O O8 0.500000 0.806578 0.283649
O O9 0.250000 0.750000 0.279876
O O10 0.285017 0.874219 0.332566
O O11 0.228986 0.500000 0.609860
O O12 0.212080 0.627895 0.555162
O O13 0.000000 0.576295 0.611750
O O14 0.750000 0.750000 0.500000
O O15 0.000000 0.691250 0.500000
#
# Coordination Sequence:
#
# PCOD8268241 Si02
#       5
#    16  16  16  16   8
#     4   9  17  29  46  68  92 120 156 195 234 277
#     4   8  14  25  42  66  95 123 150 185 233 284
#     4  10  20  33  49  69  95 126 158 196 241 286
#     4   9  17  31  52  75  97 125 165 206 238 275
#     4  10  19  31  51  77 103 132 164 198 238 284
#
# _framework density 17.814495999999998
#
# number of rings (size 3 to 8) (size 9 to 14) (size 15 to 20)
#    0.000    2.889    0.000    2.333    0.000    5.333 
#    0.000    2.222    0.000    5.333    0.000    0.000 
#    0.000    0.000    0.000    0.000    0.000    0.000 
#
# Total GULP energy -446312.190471 kJ/mol
# GULP energy per Si atom -12397.560846 kJ/mol
# Density = 1.777395 g / cm^3
# Si number density = 17.814496 Si / 1000 Ang^3
#
#
#
# Elastic Constant Matrix: (Units=GPa)
#
#
# Indices 1 2 3 4 5 6 
#
# 1 51.3147 50.0276 67.4795 0.0000 0.0000 0.0000
# 2 50.0276 116.2408 82.2064 0.0000 0.0000 0.0000
# 3 67.4795 82.2064 199.8379 0.0000 0.0000 0.0000
# 4 0.0000 0.0000 0.0000 0.1685 0.0000 0.0000
# 5 0.0000 0.0000 0.0000 0.0000 17.3720 0.0000
# 6 0.0000 0.0000 0.0000 0.0000 0.0000 26.0547
#
#
#
# Elastic Compliance Matrix: (Units=1/GPa)
#
#
# Indices 1 2 3 4 5 6 
#
# 1 0.044420 -0.012001 -0.010063 0.000000 0.000000 0.000000
# 2 -0.012001 0.015375 -0.002272 0.000000 0.000000 0.000000
# 3 -0.010063 -0.002272 0.009337 0.000000 0.000000 0.000000
# 4 0.000000 0.000000 0.000000 5.936156 0.000000 0.000000
# 5 0.000000 0.000000 0.000000 0.000000 0.057564 0.000000
# 6 0.000000 0.000000 0.000000 0.000000 0.000000 0.038381
#
#
# Mechanical properties :
#
#
# Convention : Reuss Voigt Hill
#
# Bulk Modulus (GPa) = 48.87662 85.20225 67.03944
# Shear Modulus (GPa) = 0.81212 19.89769 10.35490
#
# Velocity S-wave (km/s) = 0.67592 3.34569 2.41355
# Velocity P-wave (km/s) = 5.30143 7.92819 6.74393
#
# Compressibility (1/GPa) = 0.02045968
#
# Stress axis : x y z
#
# Youngs Moduli (GPa) = 22.51234 65.04145 107.10552
#
# Poissons Ratio (x) = 0.78057 1.07775
# Poissons Ratio (y) = 0.27017 0.24337
# Poissons Ratio (z) = 0.22653 0.14779
#
# Static dielectric constant tensor:
#      x y z
#    x 3.101220 0.000000 0.000000 
#    y 0.000000 3.161950 0.000000 
#    z 0.000000 0.000000 3.763210 
# 
# 
# High freq. dielectric constant tensor:
#      x y z
#    x 1.659820 0.000000 0.000000 
#    y 0.000000 1.670150 0.000000 
#    z 0.000000 0.000000 1.710660 
# 
# From -- ./inp_files/55537.got.cif
#   From: 2010.03.12/outbox.cif.g09.slc.cpg/sg65_28_cif.got.tgz:55537.got - 2010.04.10 20:52:16.
