data_PCOD8268877
_publ_section_title
;
Structure prediction by ZEFSAII (Michael W. Deem and Ramdas Pophale) SiO2 
 PCOD8268877
Probable space group: C M M M
;
_chemical_formula_sum "Si O2"
_cell_formula_units_Z 120
_cell_length_a 28.113092
_cell_length_b 9.051290
_cell_length_c 28.317322
_cell_angle_alpha 90.000000
_cell_angle_beta 90.000000
_cell_angle_gamma 90.000000
_cell_volume 7205.618634
_symmetry_space_group_name_H-M "C M M M"
_symmetry_group_IT_number 65
_symmetry_cell_setting 'orthorhombic'
loop_
_space_group_symop_operation_xyz
x,y,z
-x,-y,z
x,-y,-z
-x,y,-z
-x,-y,-z
x,y,-z
-x,y,z
x,-y,z
1/2+x,1/2+y,z
1/2-x,1/2-y,z
1/2+x,1/2-y,-z
1/2-x,1/2+y,-z
1/2-x,1/2-y,-z
1/2+x,1/2+y,-z
1/2-x,1/2+y,z
1/2+x,1/2-y,z
loop_
_atom_site_type_symbol
_atom_site_label
_atom_site_fract_x
_atom_site_fract_y
_atom_site_fract_z
Si Si1 0.610132 0.174775 0.226304
Si Si2 0.445883 0.324076 0.500000
Si Si3 0.397389 0.675127 0.404835
Si Si4 0.444976 0.831182 0.319601
Si Si5 0.298326 0.325794 0.258004
Si Si6 0.943611 0.831122 0.143359
Si Si7 0.056473 0.334262 0.051963
Si Si8 0.297693 0.672593 0.632878
O O1 0.582982 0.223083 0.273657
O O2 0.660511 0.257007 0.225920
O O3 0.579756 0.227057 0.182082
O O4 0.617597 0.000000 0.223483
O O5 0.446806 0.500000 0.500000
O O6 0.500000 0.262831 0.500000
O O7 0.417599 0.264056 0.545635
O O8 0.399336 0.500000 0.402943
O O9 0.431269 0.732244 0.363826
O O10 0.342922 0.728848 0.397492
O O11 0.500000 0.809406 0.308233
O O12 0.432560 0.000000 0.331790
O O13 0.295371 0.500000 0.249827
O O14 0.250000 0.250000 0.240718
O O15 0.307717 0.285600 0.312773
O O16 0.924950 0.777721 0.092021
O O17 0.000000 0.813190 0.147557
O O18 0.927779 0.000000 0.150726
O O19 0.074968 0.500000 0.062903
O O20 0.000000 0.334520 0.051831
O O21 0.074864 0.283209 0.000000
O O22 0.289573 0.500000 0.626743
O O23 0.250000 0.750000 0.613748
#
# Coordination Sequence:
#
# PCOD8268877 Si02
#       8
#    16   8  16  16  16  16  16  16
#     4  11  21  33  49  69  97 131 164 200 245 295
#     4   9  18  32  52  75  97 123 157 197 240 285
#     4  10  19  34  53  74  95 122 159 198 237 282
#     4  10  21  34  48  69  96 126 160 197 237 284
#     4  10  19  33  51  73  98 124 159 197 242 293
#     4  10  20  31  44  66  98 135 172 211 253 295
#     4   8  14  26  44  64  88 124 170 214 254 297
#     4   9  18  31  50  73  97 122 151 190 236 285
#
# _framework density 16.653669000000001
#
# number of rings (size 3 to 8) (size 9 to 14) (size 15 to 20)
#    0.000    2.333    1.333    2.400    0.000    4.000 
#    0.000    2.000    0.000    1.200    0.000    0.000 
#    0.000    0.533    0.000    2.000    0.000    3.067 
#
# Total GULP energy -744003.593154 kJ/mol
# GULP energy per Si atom -12400.059886 kJ/mol
# Density = 1.661576 g / cm^3
# Si number density = 16.653669 Si / 1000 Ang^3
#
#
#
# Elastic Constant Matrix: (Units=GPa)
#
#
# Indices 1 2 3 4 5 6 
#
# 1 78.5967 33.5866 35.4680 0.0000 0.0000 0.0000
# 2 33.5866 58.5542 36.4256 0.0000 0.0000 0.0000
# 3 35.4680 36.4256 101.6084 0.0000 0.0000 0.0000
# 4 0.0000 0.0000 0.0000 22.9322 0.0000 0.0000
# 5 0.0000 0.0000 0.0000 0.0000 6.0960 0.0000
# 6 0.0000 0.0000 0.0000 0.0000 0.0000 27.0043
#
#
#
# Elastic Compliance Matrix: (Units=1/GPa)
#
#
# Indices 1 2 3 4 5 6 
#
# 1 0.017655 -0.008099 -0.003259 0.000000 0.000000 0.000000
# 2 -0.008099 0.025696 -0.006384 0.000000 0.000000 0.000000
# 3 -0.003259 -0.006384 0.013268 0.000000 0.000000 0.000000
# 4 0.000000 0.000000 0.000000 0.043607 0.000000 0.000000
# 5 0.000000 0.000000 0.000000 0.000000 0.164042 0.000000
# 6 0.000000 0.000000 0.000000 0.000000 0.000000 0.037031
#
#
# Mechanical properties :
#
#
# Convention : Reuss Voigt Hill
#
# Bulk Modulus (GPa) = 47.31987 49.96885 48.64436
# Shear Modulus (GPa) = 14.54212 20.09178 17.31695
#
# Velocity S-wave (km/s) = 2.95821 3.47716 3.22813
# Velocity P-wave (km/s) = 6.33591 6.79638 6.57018
#
# Compressibility (1/GPa) = 0.02113277
#
# Stress axis : x y z
#
# Youngs Moduli (GPa) = 56.64098 38.91713 75.36858
#
# Poissons Ratio (x) = 0.31521 0.24564
# Poissons Ratio (y) = 0.45876 0.48118
# Poissons Ratio (z) = 0.18461 0.24846
#
# Static dielectric constant tensor:
#      x y z
#    x 3.081220 0.000000 0.000000 
#    y 0.000000 3.111820 0.000000 
#    z 0.000000 0.000000 3.220490 
# 
# 
# High freq. dielectric constant tensor:
#      x y z
#    x 1.626060 0.000000 0.000000 
#    y 0.000000 1.640010 0.000000 
#    z 0.000000 0.000000 1.629760 
# 
# From -- ./inp_files/76106.got.cif
#   From: 2010.03.12/outbox.cif.g09.slc.cpg/sg65_39_cif.got.tgz:76106.got - 2010.04.10 20:52:16.
