data_PCOD8268378
_publ_section_title
;
Structure prediction by ZEFSAII (Michael W. Deem and Ramdas Pophale) SiO2 
 PCOD8268378
Probable space group: C M M M
;
_chemical_formula_sum "Si O2"
_cell_formula_units_Z 80
_cell_length_a 18.006231
_cell_length_b 17.544017
_cell_length_c 13.828405
_cell_angle_alpha 90.000000
_cell_angle_beta 90.000000
_cell_angle_gamma 90.000000
_cell_volume 4368.415580
_symmetry_space_group_name_H-M "C M M M"
_symmetry_group_IT_number 65
_symmetry_cell_setting 'orthorhombic'
loop_
_space_group_symop_operation_xyz
x,y,z
-x,-y,z
x,-y,-z
-x,y,-z
-x,-y,-z
x,y,-z
-x,y,z
x,-y,z
1/2+x,1/2+y,z
1/2-x,1/2-y,z
1/2+x,1/2-y,-z
1/2-x,1/2+y,-z
1/2-x,1/2-y,-z
1/2+x,1/2+y,-z
1/2-x,1/2+y,z
1/2+x,1/2-y,z
loop_
_atom_site_type_symbol
_atom_site_label
_atom_site_fract_x
_atom_site_fract_y
_atom_site_fract_z
Si Si1 0.801678 0.590365 0.297555
Si Si2 0.080498 0.911997 0.209295
Si Si3 0.084831 0.307887 0.388354
Si Si4 0.655200 0.353361 0.389232
Si Si5 0.276379 0.590289 0.106375
O O1 0.798818 0.500000 0.314153
O O2 0.882314 0.622486 0.325438
O O3 0.741363 0.630959 0.366516
O O4 0.786122 0.611834 0.185082
O O5 0.103514 0.905145 0.321536
O O6 0.144118 0.874902 0.141192
O O7 0.000000 0.872704 0.190854
O O8 0.073605 0.000000 0.184099
O O9 0.087719 0.331673 0.500000
O O10 0.135311 0.234312 0.368233
O O11 0.000000 0.292700 0.355766
O O12 0.637951 0.374668 0.500000
O O13 0.284095 0.500000 0.101566
O O14 0.256044 0.623305 0.000000
#
# Coordination Sequence:
#
# PCOD8268378 Si02
#       5
#    16  16  16  16  16
#     4  10  20  33  52  77 100 125 162 207 250 288
#     4   9  17  27  42  69 100 129 164 204 245 286
#     4  10  21  35  51  72  99 134 170 199 235 288
#     4  10  19  32  49  69  97 133 168 198 235 288
#     4   8  15  29  48  69  93 122 158 201 247 293
#
# _framework density 18.313275999999998
#
# number of rings (size 3 to 8) (size 9 to 14) (size 15 to 20)
#    0.000    2.600    0.000    3.600    0.000    6.400 
#    0.000    4.000    0.000   10.200    0.000    2.800 
#    0.000    0.000    0.000    0.000    0.000    0.000 
#
# Total GULP energy -495777.130443 kJ/mol
# GULP energy per Si atom -12394.428261 kJ/mol
# Density = 1.827159 g / cm^3
# Si number density = 18.313276 Si / 1000 Ang^3
#
#
#
# Elastic Constant Matrix: (Units=GPa)
#
#
# Indices 1 2 3 4 5 6 
#
# 1 79.6459 38.7340 37.6578 0.0000 0.0000 0.0000
# 2 38.7340 51.7287 29.3923 0.0000 0.0000 0.0000
# 3 37.6578 29.3923 106.2864 0.0000 0.0000 0.0000
# 4 0.0000 0.0000 0.0000 8.5162 0.0000 0.0000
# 5 0.0000 0.0000 0.0000 0.0000 17.4603 0.0000
# 6 0.0000 0.0000 0.0000 0.0000 0.0000 25.7834
#
#
#
# Elastic Compliance Matrix: (Units=1/GPa)
#
#
# Indices 1 2 3 4 5 6 
#
# 1 0.020873 -0.013558 -0.003646 0.000000 0.000000 0.000000
# 2 -0.013558 0.031742 -0.003974 0.000000 0.000000 0.000000
# 3 -0.003646 -0.003974 0.011799 0.000000 0.000000 0.000000
# 4 0.000000 0.000000 0.000000 0.117423 0.000000 0.000000
# 5 0.000000 0.000000 0.000000 0.000000 0.057273 0.000000
# 6 0.000000 0.000000 0.000000 0.000000 0.000000 0.038785
#
#
# Mechanical properties :
#
#
# Convention : Reuss Voigt Hill
#
# Bulk Modulus (GPa) = 45.33537 49.91435 47.62486
# Shear Modulus (GPa) = 15.26234 19.14377 17.20306
#
# Velocity S-wave (km/s) = 2.89000 3.23669 3.06825
# Velocity P-wave (km/s) = 5.99545 6.42520 6.21404
#
# Compressibility (1/GPa) = 0.02205783
#
# Stress axis : x y z
#
# Youngs Moduli (GPa) = 47.90857 31.50421 84.74987
#
# Poissons Ratio (x) = 0.42713 0.30901
# Poissons Ratio (y) = 0.64954 0.33682
# Poissons Ratio (z) = 0.17468 0.12521
#
# Static dielectric constant tensor:
#      x y z
#    x 3.463720 0.000000 0.000000 
#    y 0.000000 3.054660 0.000000 
#    z 0.000000 0.000000 3.577860 
# 
# 
# High freq. dielectric constant tensor:
#      x y z
#    x 1.704590 0.000000 0.000000 
#    y 0.000000 1.677160 0.000000 
#    z 0.000000 0.000000 1.703690 
# 
# From -- ./inp_files/42323.got.cif
#   From: 2010.03.12/outbox.cif.g09.slc.cpg/sg65_22_cif.got.tgz:42323.got - 2010.04.10 20:52:16.
