data_PCOD8268303
_publ_section_title
;
Structure prediction by ZEFSAII (Michael W. Deem and Ramdas Pophale) SiO2 
 PCOD8268303
Probable space group: C M M M
;
_chemical_formula_sum "Si O2"
_cell_formula_units_Z 88
_cell_length_a 22.056470
_cell_length_b 13.997525
_cell_length_c 14.756141
_cell_angle_alpha 90.000000
_cell_angle_beta 90.000000
_cell_angle_gamma 90.000000
_cell_volume 4555.751804
_symmetry_space_group_name_H-M "C M M M"
_symmetry_group_IT_number 65
_symmetry_cell_setting 'orthorhombic'
loop_
_space_group_symop_operation_xyz
x,y,z
-x,-y,z
x,-y,-z
-x,y,-z
-x,-y,-z
x,y,-z
-x,y,z
x,-y,z
1/2+x,1/2+y,z
1/2-x,1/2-y,z
1/2+x,1/2-y,-z
1/2-x,1/2+y,-z
1/2-x,1/2-y,-z
1/2+x,1/2+y,-z
1/2-x,1/2+y,z
1/2+x,1/2-y,z
loop_
_atom_site_type_symbol
_atom_site_label
_atom_site_fract_x
_atom_site_fract_y
_atom_site_fract_z
Si Si1 0.000000 0.386641 0.394390
Si Si2 0.667163 0.605178 0.672649
Si Si3 0.846357 0.291509 0.901487
Si Si4 0.722519 0.393680 0.865956
Si Si5 0.289190 0.110399 0.400084
Si Si6 0.389116 0.208540 0.708108
O O1 0.058002 0.345708 0.343248
O O2 0.000000 0.500000 0.385262
O O3 0.000000 0.355993 0.500000
O O4 0.638665 0.500000 0.655398
O O5 0.710569 0.605427 0.759715
O O6 0.716819 0.633707 0.596466
O O7 0.611134 0.678897 0.680985
O O8 0.791316 0.363939 0.885336
O O9 0.823145 0.182491 0.909811
O O10 0.893831 0.303063 0.817695
O O11 0.876798 0.315174 0.000000
O O12 0.711435 0.500000 0.906674
O O13 0.315613 0.133210 0.500000
O O14 0.324161 0.170571 0.324480
O O15 0.299422 0.000000 0.375758
#
# Coordination Sequence:
#
# PCOD8268303 Si02
#       6
#     8  16  16  16  16  16
#     4  11  26  46  66  84 100 131 184 234 274 325
#     4   9  18  32  52  82 116 145 176 214 268 333
#     4  10  20  31  48  79 112 146 187 221 261 319
#     4   9  16  29  48  75 116 155 181 214 260 316
#     4  10  19  31  52  81 110 140 175 219 275 335
#     4  11  21  37  57  77 108 147 181 228 276 314
#
# _framework density 19.316241000000002
#
# number of rings (size 3 to 8) (size 9 to 14) (size 15 to 20)
#    0.000    2.091    1.818    2.727    0.000    5.818 
#    0.000    0.909    0.000    1.091    0.000    0.000 
#    0.000    5.818    0.000    0.000    0.000    0.000 
#
# Total GULP energy -545194.845416 kJ/mol
# GULP energy per Si atom -12390.791941 kJ/mol
# Density = 1.927228 g / cm^3
# Si number density = 19.316241 Si / 1000 Ang^3
#
#
#
# Elastic Constant Matrix: (Units=GPa)
#
#
# Indices 1 2 3 4 5 6 
#
# 1 54.2980 35.6420 36.0440 0.0000 0.0000 0.0000
# 2 35.6420 101.3456 39.5740 0.0000 0.0000 0.0000
# 3 36.0440 39.5740 121.5939 0.0000 0.0000 0.0000
# 4 0.0000 0.0000 0.0000 10.1511 0.0000 0.0000
# 5 0.0000 0.0000 0.0000 0.0000 13.1618 0.0000
# 6 0.0000 0.0000 0.0000 0.0000 0.0000 24.4315
#
#
#
# Elastic Compliance Matrix: (Units=1/GPa)
#
#
# Indices 1 2 3 4 5 6 
#
# 1 0.026917 -0.007275 -0.005611 0.000000 0.000000 0.000000
# 2 -0.007275 0.013270 -0.002162 0.000000 0.000000 0.000000
# 3 -0.005611 -0.002162 0.010591 0.000000 0.000000 0.000000
# 4 0.000000 0.000000 0.000000 0.098512 0.000000 0.000000
# 5 0.000000 0.000000 0.000000 0.000000 0.075978 0.000000
# 6 0.000000 0.000000 0.000000 0.000000 0.000000 0.040931
#
#
# Mechanical properties :
#
#
# Convention : Reuss Voigt Hill
#
# Bulk Modulus (GPa) = 48.35375 55.52860 51.94117
# Shear Modulus (GPa) = 16.49128 20.61403 18.55265
#
# Velocity S-wave (km/s) = 2.92507 3.27033 3.10251
# Velocity P-wave (km/s) = 6.04112 6.56274 6.30732
#
# Compressibility (1/GPa) = 0.02068092
#
# Stress axis : x y z
#
# Youngs Moduli (GPa) = 37.15069 75.35656 94.41819
#
# Poissons Ratio (x) = 0.54825 0.52980
# Poissons Ratio (y) = 0.27029 0.20416
# Poissons Ratio (z) = 0.20846 0.16294
#
# Static dielectric constant tensor:
#      x y z
#    x 2.910570 0.000000 0.000000 
#    y 0.000000 3.905080 0.000000 
#    z 0.000000 0.000000 3.813760 
# 
# 
# High freq. dielectric constant tensor:
#      x y z
#    x 1.674880 0.000000 0.000000 
#    y 0.000000 1.767900 0.000000 
#    z 0.000000 0.000000 1.768600 
# 
# From -- ./inp_files/45595.got.cif
#   From: 2010.03.12/outbox.cif.g09.slc.cpg/sg65_23_cif.got.tgz:45595.got - 2010.04.10 20:52:16.
