data_PCOD8268620
_publ_section_title
;
Structure prediction by ZEFSAII (Michael W. Deem and Ramdas Pophale) SiO2 
 PCOD8268620
Probable space group: C M M M
;
_chemical_formula_sum "Si O2"
_cell_formula_units_Z 104
_cell_length_a 8.980294
_cell_length_b 28.627100
_cell_length_c 23.194219
_cell_angle_alpha 90.000000
_cell_angle_beta 90.000000
_cell_angle_gamma 90.000000
_cell_volume 5962.764587
_symmetry_space_group_name_H-M "C M M M"
_symmetry_group_IT_number 65
_symmetry_cell_setting 'orthorhombic'
loop_
_space_group_symop_operation_xyz
x,y,z
-x,-y,z
x,-y,-z
-x,y,-z
-x,-y,-z
x,y,-z
-x,y,z
x,-y,z
1/2+x,1/2+y,z
1/2-x,1/2-y,z
1/2+x,1/2-y,-z
1/2-x,1/2+y,-z
1/2-x,1/2-y,-z
1/2+x,1/2+y,-z
1/2-x,1/2+y,z
1/2+x,1/2-y,z
loop_
_atom_site_type_symbol
_atom_site_label
_atom_site_fract_x
_atom_site_fract_y
_atom_site_fract_z
Si Si1 0.832129 0.555507 0.500000
Si Si2 0.174673 0.106611 0.064743
Si Si3 0.671697 0.895875 0.281475
Si Si4 0.172990 0.704622 0.240489
Si Si5 0.676101 0.296489 0.118256
Si Si6 0.825966 0.446487 0.166041
Si Si7 0.174833 0.946319 0.385176
O O1 0.826508 0.500000 0.500000
O O2 0.750256 0.574135 0.557106
O O3 0.000000 0.574667 0.500000
O O4 0.218923 0.159987 0.078205
O O5 0.250038 0.070547 0.107802
O O6 0.000000 0.099823 0.071368
O O7 0.228149 0.095046 0.000000
O O8 0.500000 0.910321 0.291784
O O9 0.691364 0.839962 0.281854
O O10 0.729456 0.916687 0.220841
O O11 0.772639 0.915948 0.331669
O O12 0.250000 0.750000 0.270074
O O13 0.255292 0.694004 0.180833
O O14 0.000000 0.714931 0.228079
O O15 0.500000 0.289571 0.123518
O O16 0.750000 0.250000 0.090944
O O17 0.782257 0.500000 0.177267
O O18 0.000000 0.439550 0.157391
O O19 0.000000 0.941335 0.392911
O O20 0.221843 0.000000 0.374528
#
# Coordination Sequence:
#
# PCOD8268620 Si02
#       7
#     8  16  16  16  16  16  16
#     4   9  17  31  51  73 104 147 186 217 253 297
#     4  10  22  38  53  71  97 129 165 206 255 311
#     4  10  20  34  53  76 104 136 170 208 254 306
#     4  10  19  32  52  76 102 131 164 203 252 306
#     4  10  19  32  52  74  98 126 158 199 251 309
#     4  10  21  37  55  74  98 129 167 212 257 302
#     4  10  20  32  49  77 111 144 179 218 256 295
#
# _framework density 17.441573999999999
#
# number of rings (size 3 to 8) (size 9 to 14) (size 15 to 20)
#    0.000    2.077    1.538    3.000    0.000    6.154 
#    0.000    1.538    0.000    0.000    0.000    0.538 
#    0.000    0.000    0.000    0.000    0.000    0.000 
#
# Total GULP energy -644855.831076 kJ/mol
# GULP energy per Si atom -12401.073675 kJ/mol
# Density = 1.740188 g / cm^3
# Si number density = 17.441574 Si / 1000 Ang^3
#
#
#
# Elastic Constant Matrix: (Units=GPa)
#
#
# Indices 1 2 3 4 5 6 
#
# 1 74.3731 34.9783 37.8765 0.0000 0.0000 0.0000
# 2 34.9783 82.4666 41.4754 0.0000 0.0000 0.0000
# 3 37.8765 41.4754 102.8767 0.0000 0.0000 0.0000
# 4 0.0000 0.0000 0.0000 11.7008 0.0000 0.0000
# 5 0.0000 0.0000 0.0000 0.0000 31.1537 0.0000
# 6 0.0000 0.0000 0.0000 0.0000 0.0000 29.1973
#
#
#
# Elastic Compliance Matrix: (Units=1/GPa)
#
#
# Indices 1 2 3 4 5 6 
#
# 1 0.018342 -0.005498 -0.004536 0.000000 0.000000 0.000000
# 2 -0.005498 0.016858 -0.004772 0.000000 0.000000 0.000000
# 3 -0.004536 -0.004772 0.013315 0.000000 0.000000 0.000000
# 4 0.000000 0.000000 0.000000 0.085464 0.000000 0.000000
# 5 0.000000 0.000000 0.000000 0.000000 0.032099 0.000000
# 6 0.000000 0.000000 0.000000 0.000000 0.000000 0.034250
#
#
# Mechanical properties :
#
#
# Convention : Reuss Voigt Hill
#
# Bulk Modulus (GPa) = 52.90711 54.26409 53.58560
# Shear Modulus (GPa) = 21.16477 24.10277 22.63377
#
# Velocity S-wave (km/s) = 3.48726 3.72144 3.60626
# Velocity P-wave (km/s) = 6.82748 7.04592 6.93756
#
# Compressibility (1/GPa) = 0.01890105
#
# Stress axis : x y z
#
# Youngs Moduli (GPa) = 54.52024 59.31785 75.10608
#
# Poissons Ratio (x) = 0.32614 0.34071
# Poissons Ratio (y) = 0.29976 0.35843
# Poissons Ratio (z) = 0.24732 0.28308
#
# Static dielectric constant tensor:
#      x y z
#    x 3.286190 0.000000 0.000000 
#    y 0.000000 3.360370 0.000000 
#    z 0.000000 0.000000 3.147040 
# 
# 
# High freq. dielectric constant tensor:
#      x y z
#    x 1.681530 0.000000 0.000000 
#    y 0.000000 1.667560 0.000000 
#    z 0.000000 0.000000 1.657330 
# 
# From -- ./inp_files/60880.got.cif
#   From: 2010.03.12/outbox.cif.g09.slc.cpg/sg65_31_cif.got.tgz:60880.got - 2010.04.10 20:52:16.
