data_PCOD8268907
_publ_section_title
;
Structure prediction by ZEFSAII (Michael W. Deem and Ramdas Pophale) SiO2 
 PCOD8268907
Probable space group: C M M M
;
_chemical_formula_sum "Si O2"
_cell_formula_units_Z 88
_cell_length_a 10.385276
_cell_length_b 28.790593
_cell_length_c 15.050438
_cell_angle_alpha 90.000000
_cell_angle_beta 90.000000
_cell_angle_gamma 90.000000
_cell_volume 4500.054692
_symmetry_space_group_name_H-M "C M M M"
_symmetry_group_IT_number 65
_symmetry_cell_setting 'orthorhombic'
loop_
_space_group_symop_operation_xyz
x,y,z
-x,-y,z
x,-y,-z
-x,y,-z
-x,-y,-z
x,y,-z
-x,y,z
x,-y,z
1/2+x,1/2+y,z
1/2-x,1/2-y,z
1/2+x,1/2-y,-z
1/2-x,1/2+y,-z
1/2-x,1/2-y,-z
1/2+x,1/2+y,-z
1/2-x,1/2+y,z
1/2+x,1/2-y,z
loop_
_atom_site_type_symbol
_atom_site_label
_atom_site_fract_x
_atom_site_fract_y
_atom_site_fract_z
Si Si1 0.000000 0.449013 0.105147
Si Si2 0.647215 0.212472 0.894536
Si Si3 0.146723 0.948747 0.243279
Si Si4 0.846729 0.889030 0.598298
Si Si5 0.643823 0.284977 0.394834
Si Si6 0.239224 0.389195 0.895649
O O1 0.877201 0.421157 0.137179
O O2 0.000000 0.500000 0.148237
O O3 0.000000 0.451865 0.000000
O O4 0.500000 0.219434 0.857701
O O5 0.750000 0.250000 0.856819
O O6 0.705839 0.162944 0.866703
O O7 0.639528 0.215927 0.000000
O O8 0.212888 0.925005 0.330015
O O9 0.146380 0.912582 0.160163
O O10 0.000000 0.956788 0.267688
O O11 0.208367 0.000000 0.223121
O O12 0.791049 0.900637 0.500000
O O13 0.808558 0.836908 0.628048
O O14 0.000000 0.891581 0.595087
O O15 0.636573 0.278502 0.500000
O O16 0.500000 0.275087 0.355369
O O17 0.750000 0.250000 0.352885
O O18 0.270775 0.392402 0.000000
#
# Coordination Sequence:
#
# PCOD8268907 Si02
#       6
#     8  16  16  16  16  16
#     4   9  16  28  50  74  93 123 171 217 253 291
#     4   9  17  31  52  77 105 139 181 225 265 313
#     4  10  21  34  49  74 105 134 169 215 267 322
#     4   8  15  30  51  72  97 131 169 210 255 304
#     4   8  13  23  44  73 100 127 160 200 249 303
#     4  10  19  33  52  74 103 136 172 213 259 311
#
# _framework density 19.555316999999999
#
# number of rings (size 3 to 8) (size 9 to 14) (size 15 to 20)
#    0.000    3.000    0.909    1.636    0.000    2.545 
#    0.000    5.455    2.000    2.182    0.000    0.000 
#    0.000    2.182    0.000    0.000    0.000    0.000 
#
# Total GULP energy -545086.973228 kJ/mol
# GULP energy per Si atom -12388.340301 kJ/mol
# Density = 1.951081 g / cm^3
# Si number density = 19.555317 Si / 1000 Ang^3
#
#
#
# Elastic Constant Matrix: (Units=GPa)
#
#
# Indices 1 2 3 4 5 6 
#
# 1 59.6069 54.7418 20.1964 0.0000 0.0000 0.0000
# 2 54.7418 180.7812 50.9852 0.0000 0.0000 0.0000
# 3 20.1964 50.9852 62.5897 0.0000 0.0000 0.0000
# 4 0.0000 0.0000 0.0000 25.9368 0.0000 0.0000
# 5 0.0000 0.0000 0.0000 0.0000 7.9055 0.0000
# 6 0.0000 0.0000 0.0000 0.0000 0.0000 46.8417
#
#
#
# Elastic Compliance Matrix: (Units=1/GPa)
#
#
# Indices 1 2 3 4 5 6 
#
# 1 0.023496 -0.006461 -0.002319 0.000000 0.000000 0.000000
# 2 -0.006461 0.008958 -0.005212 0.000000 0.000000 0.000000
# 3 -0.002319 -0.005212 0.020971 0.000000 0.000000 0.000000
# 4 0.000000 0.000000 0.000000 0.038555 0.000000 0.000000
# 5 0.000000 0.000000 0.000000 0.000000 0.126495 0.000000
# 6 0.000000 0.000000 0.000000 0.000000 0.000000 0.021349
#
#
# Mechanical properties :
#
#
# Convention : Reuss Voigt Hill
#
# Bulk Modulus (GPa) = 39.30625 61.64717 50.47671
# Shear Modulus (GPa) = 18.09713 27.94042 23.01877
#
# Velocity S-wave (km/s) = 3.04539 3.78403 3.43463
# Velocity P-wave (km/s) = 5.70172 7.11933 6.44959
#
# Compressibility (1/GPa) = 0.02544125
#
# Stress axis : x y z
#
# Youngs Moduli (GPa) = 42.56118 111.63326 47.68443
#
# Poissons Ratio (x) = 0.72123 0.11057
# Poissons Ratio (y) = 0.27497 0.24855
# Poissons Ratio (z) = 0.09869 0.58187
#
# Static dielectric constant tensor:
#      x y z
#    x 3.545160 0.000000 0.000000 
#    y 0.000000 3.992570 0.000000 
#    z 0.000000 0.000000 3.283460 
# 
# 
# High freq. dielectric constant tensor:
#      x y z
#    x 1.729520 0.000000 0.000000 
#    y 0.000000 1.774910 0.000000 
#    z 0.000000 0.000000 1.730750 
# 
# From -- ./inp_files/38674.got.cif
#   From: 2010.03.12/outbox.cif.g09.slc.cpg/sg65_20_cif.got.tgz:38674.got - 2010.04.10 20:52:16.
