data_PCOD8268774
_publ_section_title
;
Structure prediction by ZEFSAII (Michael W. Deem and Ramdas Pophale) SiO2 
 PCOD8268774
Probable space group: C M M M
;
_chemical_formula_sum "Si O2"
_cell_formula_units_Z 104
_cell_length_a 25.250361
_cell_length_b 9.364884
_cell_length_c 24.059197
_cell_angle_alpha 90.000000
_cell_angle_beta 90.000000
_cell_angle_gamma 90.000000
_cell_volume 5689.198961
_symmetry_space_group_name_H-M "C M M M"
_symmetry_group_IT_number 65
_symmetry_cell_setting 'orthorhombic'
loop_
_space_group_symop_operation_xyz
x,y,z
-x,-y,z
x,-y,-z
-x,y,-z
-x,-y,-z
x,y,-z
-x,y,z
x,-y,z
1/2+x,1/2+y,z
1/2-x,1/2-y,z
1/2+x,1/2-y,-z
1/2-x,1/2+y,-z
1/2-x,1/2-y,-z
1/2+x,1/2+y,-z
1/2-x,1/2+y,z
1/2+x,1/2-y,z
loop_
_atom_site_type_symbol
_atom_site_label
_atom_site_fract_x
_atom_site_fract_y
_atom_site_fract_z
Si Si1 0.198564 0.333837 0.436697
Si Si2 0.806322 0.668049 0.879509
Si Si3 0.300380 0.842440 0.000000
Si Si4 0.598697 0.168325 0.633499
Si Si5 0.000000 0.830327 0.935849
Si Si6 0.440057 0.661326 0.269031
Si Si7 0.000000 0.670042 0.562480
Si Si8 0.907390 0.166310 0.145976
O O1 0.182764 0.296127 0.500000
O O2 0.210487 0.500000 0.430394
O O3 0.250000 0.250000 0.417119
O O4 0.152200 0.283460 0.396317
O O5 0.799548 0.500000 0.863364
O O6 0.750000 0.750000 0.871418
O O7 0.830665 0.685149 0.942317
O O8 0.852987 0.744432 0.845950
O O9 0.250000 0.750000 0.000000
O O10 0.276933 0.000000 0.000000
O O11 0.597474 0.236763 0.694715
O O12 0.551352 0.226319 0.594972
O O13 0.595042 0.000000 0.641025
O O14 0.946828 0.778472 0.903220
O O15 0.000000 0.000000 0.935240
O O16 0.000000 0.772989 0.000000
O O17 0.500000 0.689352 0.287982
O O18 0.422402 0.500000 0.281378
O O19 0.437104 0.692544 0.203706
O O20 0.000000 0.500000 0.559628
O O21 0.000000 0.733045 0.500000
O O22 0.893146 0.000000 0.136376
#
# Coordination Sequence:
#
# PCOD8268774 Si02
#       8
#    16  16   8  16   8  16   8  16
#     4   9  18  33  53  78 109 144 180 218 261 311
#     4  10  20  35  54  79 109 140 174 215 264 320
#     4   8  16  30  48  71 102 135 167 202 250 310
#     4  10  19  32  53  80 105 135 179 222 259 309
#     4   9  18  33  55  83 109 137 178 225 274 334
#     4  10  20  36  55  75 105 143 179 218 266 320
#     4   9  16  27  47  77 109 135 162 209 268 312
#     4  10  20  36  57  80 107 142 183 225 273 326
#
# _framework density 18.280255
#
# number of rings (size 3 to 8) (size 9 to 14) (size 15 to 20)
#    0.000    2.462    1.538    0.923    1.077    3.692 
#    0.000    1.154    0.000    4.154    0.000    0.000 
#    0.000    0.000    0.000    0.000    0.000    0.000 
#
# Total GULP energy -644394.760309 kJ/mol
# GULP energy per Si atom -12392.206929 kJ/mol
# Density = 1.823865 g / cm^3
# Si number density = 18.280255 Si / 1000 Ang^3
#
#
#
# Elastic Constant Matrix: (Units=GPa)
#
#
# Indices 1 2 3 4 5 6 
#
# 1 122.7894 48.0500 52.1540 0.0000 0.0000 0.0000
# 2 48.0500 55.6826 34.2607 0.0000 0.0000 0.0000
# 3 52.1540 34.2607 102.5686 0.0000 0.0000 0.0000
# 4 0.0000 0.0000 0.0000 27.4022 0.0000 0.0000
# 5 0.0000 0.0000 0.0000 0.0000 25.5787 0.0000
# 6 0.0000 0.0000 0.0000 0.0000 0.0000 28.6981
#
#
#
# Elastic Compliance Matrix: (Units=1/GPa)
#
#
# Indices 1 2 3 4 5 6 
#
# 1 0.013322 -0.009224 -0.003693 0.000000 0.000000 0.000000
# 2 -0.009224 0.028991 -0.004994 0.000000 0.000000 0.000000
# 3 -0.003693 -0.004994 0.013295 0.000000 0.000000 0.000000
# 4 0.000000 0.000000 0.000000 0.036493 0.000000 0.000000
# 5 0.000000 0.000000 0.000000 0.000000 0.039095 0.000000
# 6 0.000000 0.000000 0.000000 0.000000 0.000000 0.034845
#
#
# Mechanical properties :
#
#
# Convention : Reuss Voigt Hill
#
# Bulk Modulus (GPa) = 50.53687 61.10778 55.82232
# Shear Modulus (GPa) = 23.98556 26.10754 25.04655
#
# Velocity S-wave (km/s) = 3.62622 3.78323 3.70556
# Velocity P-wave (km/s) = 6.72594 7.25153 6.99367
#
# Compressibility (1/GPa) = 0.01978754
#
# Stress axis : x y z
#
# Youngs Moduli (GPa) = 75.06370 34.49365 75.21385
#
# Poissons Ratio (x) = 0.31816 0.27777
# Poissons Ratio (y) = 0.69236 0.37559
# Poissons Ratio (z) = 0.27721 0.17225
#
# Static dielectric constant tensor:
#      x y z
#    x 3.292110 0.000000 0.000000 
#    y 0.000000 3.176080 0.000000 
#    z 0.000000 0.000000 3.407090 
# 
# 
# High freq. dielectric constant tensor:
#      x y z
#    x 1.702720 0.000000 0.000000 
#    y 0.000000 1.689410 0.000000 
#    z 0.000000 0.000000 1.707490 
# 
# From -- ./inp_files/71912.got.cif
#   From: 2010.03.12/outbox.cif.g09.slc.cpg/sg65_36_cif.got.tgz:71912.got - 2010.04.10 20:52:16.
