data_PCOD8268419
_publ_section_title
;
Structure prediction by ZEFSAII (Michael W. Deem and Ramdas Pophale) SiO2 
 PCOD8268419
Probable space group: C M M M
;
_chemical_formula_sum "Si O2"
_cell_formula_units_Z 104
_cell_length_a 13.666701
_cell_length_b 31.176460
_cell_length_c 12.996930
_cell_angle_alpha 90.000000
_cell_angle_beta 90.000000
_cell_angle_gamma 90.000000
_cell_volume 5537.723578
_symmetry_space_group_name_H-M "C M M M"
_symmetry_group_IT_number 65
_symmetry_cell_setting 'orthorhombic'
loop_
_space_group_symop_operation_xyz
x,y,z
-x,-y,z
x,-y,-z
-x,y,-z
-x,-y,-z
x,y,-z
-x,y,z
x,-y,z
1/2+x,1/2+y,z
1/2-x,1/2-y,z
1/2+x,1/2-y,-z
1/2-x,1/2+y,-z
1/2-x,1/2-y,-z
1/2+x,1/2+y,-z
1/2-x,1/2+y,z
1/2+x,1/2-y,z
loop_
_atom_site_type_symbol
_atom_site_label
_atom_site_fract_x
_atom_site_fract_y
_atom_site_fract_z
Si Si1 0.202988 0.548280 0.383897
Si Si2 0.207793 0.175538 0.617894
Si Si3 0.612332 0.187917 0.883742
Si Si4 0.612724 0.408958 0.317037
Si Si5 0.615572 0.547775 0.887790
Si Si6 0.388479 0.870734 0.300672
Si Si7 0.250000 0.250000 0.237411
O O1 0.162683 0.552185 0.500000
O O2 0.190785 0.500000 0.342564
O O3 0.317661 0.561488 0.387111
O O4 0.140582 0.579273 0.309395
O O5 0.185750 0.187625 0.500000
O O6 0.129713 0.140758 0.658025
O O7 0.318338 0.157153 0.625451
O O8 0.192760 0.217016 0.688719
O O9 0.500000 0.202542 0.882515
O O10 0.626946 0.144531 0.817173
O O11 0.672308 0.226948 0.835406
O O12 0.648064 0.178530 0.000000
O O13 0.500000 0.421323 0.337913
O O14 0.645972 0.417960 0.198939
O O15 0.500000 0.545578 0.893771
O O16 0.655316 0.500000 0.859793
O O17 0.656879 0.562119 0.000000
O O18 0.500000 0.863596 0.336542
#
# Coordination Sequence:
#
# PCOD8268419 Si02
#       7
#    16  16  16  16  16  16   8
#     4  10  21  34  48  72 104 135 172 213 247 288
#     4  10  21  35  51  74 102 131 168 211 251 298
#     4   9  18  34  57  82 105 131 165 205 251 305
#     4  10  19  32  50  71 101 139 171 202 245 297
#     4   8  14  26  45  68  94 127 168 209 243 277
#     4   9  18  34  55  75  97 129 168 211 259 303
#     4  10  20  36  56  76 102 136 166 202 254 308
#
# _framework density 18.780280000000001
#
# number of rings (size 3 to 8) (size 9 to 14) (size 15 to 20)
#    0.000    2.615    0.000    3.231    0.000    4.308 
#    0.000    9.231    0.000    6.000    0.000    2.154 
#    0.000    0.000    0.000    0.000    0.000    0.000 
#
# Total GULP energy -644555.884879 kJ/mol
# GULP energy per Si atom -12395.305478 kJ/mol
# Density = 1.873754 g / cm^3
# Si number density = 18.780280 Si / 1000 Ang^3
#
#
#
# Elastic Constant Matrix: (Units=GPa)
#
#
# Indices 1 2 3 4 5 6 
#
# 1 67.5520 26.1398 27.4275 0.0000 0.0000 0.0000
# 2 26.1398 117.1614 58.0710 0.0000 0.0000 0.0000
# 3 27.4275 58.0710 133.0532 0.0000 0.0000 0.0000
# 4 0.0000 0.0000 0.0000 31.8764 0.0000 0.0000
# 5 0.0000 0.0000 0.0000 0.0000 24.2527 0.0000
# 6 0.0000 0.0000 0.0000 0.0000 0.0000 13.5044
#
#
#
# Elastic Compliance Matrix: (Units=1/GPa)
#
#
# Indices 1 2 3 4 5 6 
#
# 1 0.016747 -0.002584 -0.002324 0.000000 0.000000 0.000000
# 2 -0.002584 0.011290 -0.004395 0.000000 0.000000 0.000000
# 3 -0.002324 -0.004395 0.009913 0.000000 0.000000 0.000000
# 4 0.000000 0.000000 0.000000 0.031371 0.000000 0.000000
# 5 0.000000 0.000000 0.000000 0.000000 0.041232 0.000000
# 6 0.000000 0.000000 0.000000 0.000000 0.000000 0.074050
#
#
# Mechanical properties :
#
#
# Convention : Reuss Voigt Hill
#
# Bulk Modulus (GPa) = 51.69749 60.11590 55.90669
# Shear Modulus (GPa) = 23.84827 27.66859 25.75843
#
# Velocity S-wave (km/s) = 3.56737 3.84250 3.70749
# Velocity P-wave (km/s) = 6.67499 7.19486 6.93979
#
# Compressibility (1/GPa) = 0.01934330
#
# Stress axis : x y z
#
# Youngs Moduli (GPa) = 59.71152 88.57284 100.87732
#
# Poissons Ratio (x) = 0.22891 0.23447
# Poissons Ratio (y) = 0.15432 0.44334
# Poissons Ratio (z) = 0.13879 0.38926
#
# Static dielectric constant tensor:
#      x y z
#    x 3.275630 0.000000 0.000000 
#    y 0.000000 3.425060 0.000000 
#    z 0.000000 0.000000 3.715920 
# 
# 
# High freq. dielectric constant tensor:
#      x y z
#    x 1.708900 0.000000 0.000000 
#    y 0.000000 1.720580 0.000000 
#    z 0.000000 0.000000 1.734140 
# 
# From -- ./inp_files/25580.got.cif
#   From: 2010.03.12/outbox.cif.g09.slc.cpg/sg65_13_cif.got.tgz:25580.got - 2010.04.10 20:52:16.
