data_PCOD8268469
_publ_section_title
;
Structure prediction by ZEFSAII (Michael W. Deem and Ramdas Pophale) SiO2 
 PCOD8268469
Probable space group: C M M M
;
_chemical_formula_sum "Si O2"
_cell_formula_units_Z 104
_cell_length_a 24.815559
_cell_length_b 17.874836
_cell_length_c 14.017873
_cell_angle_alpha 90.000000
_cell_angle_beta 90.000000
_cell_angle_gamma 90.000000
_cell_volume 6217.964662
_symmetry_space_group_name_H-M "C M M M"
_symmetry_group_IT_number 65
_symmetry_cell_setting 'orthorhombic'
loop_
_space_group_symop_operation_xyz
x,y,z
-x,-y,z
x,-y,-z
-x,y,-z
-x,-y,-z
x,y,-z
-x,y,z
x,-y,z
1/2+x,1/2+y,z
1/2-x,1/2-y,z
1/2+x,1/2-y,-z
1/2-x,1/2+y,-z
1/2-x,1/2-y,-z
1/2+x,1/2+y,-z
1/2-x,1/2+y,z
1/2+x,1/2-y,z
loop_
_atom_site_type_symbol
_atom_site_label
_atom_site_fract_x
_atom_site_fract_y
_atom_site_fract_z
Si Si1 0.242378 0.915739 0.886751
Si Si2 0.437608 0.085797 0.252122
Si Si3 0.563937 0.500000 0.607237
Si Si4 0.063872 0.855443 0.277535
Si Si5 0.638714 0.325213 0.110562
Si Si6 0.436312 0.212344 0.605927
Si Si7 0.353960 0.850491 0.889590
O O1 0.192936 0.864911 0.851841
O O2 0.298118 0.882074 0.846380
O O3 0.234750 0.000000 0.848248
O O4 0.244572 0.914005 0.000000
O O5 0.500000 0.100376 0.226721
O O6 0.419391 0.135548 0.342326
O O7 0.403975 0.109202 0.160034
O O8 0.426979 0.000000 0.279652
O O9 0.500000 0.500000 0.601050
O O10 0.588067 0.500000 0.500000
O O11 0.584110 0.572985 0.663300
O O12 0.089204 0.856733 0.172124
O O13 0.085287 0.782799 0.334079
O O14 0.000000 0.854985 0.264014
O O15 0.645148 0.237558 0.127208
O O16 0.626928 0.344225 0.000000
O O17 0.410612 0.212857 0.500000
O O18 0.500000 0.218982 0.597438
O O19 0.359298 0.871115 0.000000
#
# Coordination Sequence:
#
# PCOD8268469 Si02
#       7
#    16  16   8  16  16  16  16
#     4   9  18  32  50  71  95 126 167 211 247 283
#     4  10  20  32  47  73 105 131 164 206 247 299
#     4   9  18  32  51  75 101 131 170 216 254 287
#     4  10  19  32  50  75 105 135 167 202 247 301
#     4  10  20  32  49  73 103 134 167 205 242 292
#     4   9  17  31  50  70  96 130 165 204 249 294
#     4  10  19  33  51  71  99 135 170 203 242 289
#
# _framework density 16.725731
#
# number of rings (size 3 to 8) (size 9 to 14) (size 15 to 20)
#    0.000    2.385    1.538    1.385    1.077    5.538 
#    0.000    3.846    0.000    1.385    0.000    3.231 
#    0.000    0.000    0.000    0.000    0.000    0.000 
#
# Total GULP energy -644805.887833 kJ/mol
# GULP energy per Si atom -12400.113228 kJ/mol
# Density = 1.668766 g / cm^3
# Si number density = 16.725731 Si / 1000 Ang^3
#
#
#
# Elastic Constant Matrix: (Units=GPa)
#
#
# Indices 1 2 3 4 5 6 
#
# 1 68.5675 44.5730 47.0930 0.0000 0.0000 0.0000
# 2 44.5730 132.5469 56.5428 0.0000 0.0000 0.0000
# 3 47.0930 56.5428 96.1694 0.0000 0.0000 0.0000
# 4 0.0000 0.0000 0.0000 24.7425 0.0000 0.0000
# 5 0.0000 0.0000 0.0000 0.0000 4.5097 0.0000
# 6 0.0000 0.0000 0.0000 0.0000 0.0000 23.9083
#
#
#
# Elastic Compliance Matrix: (Units=1/GPa)
#
#
# Indices 1 2 3 4 5 6 
#
# 1 0.023455 -0.003988 -0.009141 0.000000 0.000000 0.000000
# 2 -0.003988 0.010748 -0.004367 0.000000 0.000000 0.000000
# 3 -0.009141 -0.004367 0.017442 0.000000 0.000000 0.000000
# 4 0.000000 0.000000 0.000000 0.040416 0.000000 0.000000
# 5 0.000000 0.000000 0.000000 0.000000 0.221746 0.000000
# 6 0.000000 0.000000 0.000000 0.000000 0.000000 0.041826
#
#
# Mechanical properties :
#
#
# Convention : Reuss Voigt Hill
#
# Bulk Modulus (GPa) = 60.04544 65.96681 63.00612
# Shear Modulus (GPa) = 12.62067 20.57043 16.59555
#
# Velocity S-wave (km/s) = 2.74992 3.51075 3.15336
# Velocity P-wave (km/s) = 6.78680 7.48063 7.14214
#
# Compressibility (1/GPa) = 0.01665405
#
# Stress axis : x y z
#
# Youngs Moduli (GPa) = 42.63572 93.03775 57.33386
#
# Poissons Ratio (x) = 0.37104 0.52407
# Poissons Ratio (y) = 0.17003 0.25035
# Poissons Ratio (z) = 0.38972 0.40626
#
# Static dielectric constant tensor:
#      x y z
#    x 2.977050 0.000000 0.000000 
#    y 0.000000 3.366010 0.000000 
#    z 0.000000 0.000000 3.087920 
# 
# 
# High freq. dielectric constant tensor:
#      x y z
#    x 1.616560 0.000000 0.000000 
#    y 0.000000 1.664060 0.000000 
#    z 0.000000 0.000000 1.625530 
# 
# From -- ./inp_files/27491.got.cif
#   From: 2010.03.12/outbox.cif.g09.slc.cpg/sg65_14_cif.got.tgz:27491.got - 2010.04.10 20:52:16.
