data_PCOD8268665
_publ_section_title
;
Structure prediction by ZEFSAII (Michael W. Deem and Ramdas Pophale) SiO2 
 PCOD8268665
Probable space group: C M M M
;
_chemical_formula_sum "Si O2"
_cell_formula_units_Z 80
_cell_length_a 17.600768
_cell_length_b 17.341199
_cell_length_c 14.303479
_cell_angle_alpha 90.000000
_cell_angle_beta 90.000000
_cell_angle_gamma 90.000000
_cell_volume 4365.685267
_symmetry_space_group_name_H-M "C M M M"
_symmetry_group_IT_number 65
_symmetry_cell_setting 'orthorhombic'
loop_
_space_group_symop_operation_xyz
x,y,z
-x,-y,z
x,-y,-z
-x,y,-z
-x,-y,-z
x,y,-z
-x,y,z
x,-y,z
1/2+x,1/2+y,z
1/2-x,1/2-y,z
1/2+x,1/2-y,-z
1/2-x,1/2+y,-z
1/2-x,1/2-y,-z
1/2+x,1/2+y,-z
1/2-x,1/2+y,z
1/2+x,1/2-y,z
loop_
_atom_site_type_symbol
_atom_site_label
_atom_site_fract_x
_atom_site_fract_y
_atom_site_fract_z
Si Si1 0.914357 0.665201 0.712303
Si Si2 0.780114 0.410970 0.608584
Si Si3 0.691830 0.413095 0.895008
Si Si4 0.182495 0.194446 0.734963
Si Si5 0.870513 0.587324 0.894531
O O1 0.861617 0.606978 0.654282
O O2 0.886632 0.753310 0.697873
O O3 0.912447 0.643273 0.822130
O O4 0.000000 0.658598 0.674390
O O5 0.784941 0.390861 0.500000
O O6 0.760559 0.500000 0.626863
O O7 0.712619 0.360076 0.652068
O O8 0.661530 0.500000 0.880891
O O9 0.651559 0.356337 0.821602
O O10 0.781142 0.410475 0.874210
O O11 0.673821 0.384910 0.000000
O O12 0.250000 0.250000 0.771011
O O13 0.900238 0.500000 0.881485
O O14 0.888113 0.615679 0.000000
#
# Coordination Sequence:
#
# PCOD8268665 Si02
#       5
#    16  16  16  16  16
#     4  11  23  35  49  77 113 143 168 201 251 312
#     4  10  21  38  60  81  98 125 170 218 259 301
#     4   9  16  28  50  77 100 128 173 223 260 289
#     4  10  19  32  52  76 103 137 170 210 253 303
#     4   9  17  30  49  74 105 140 176 212 251 296
#
# _framework density 18.324729000000001
#
# number of rings (size 3 to 8) (size 9 to 14) (size 15 to 20)
#    0.000    2.200    4.000    2.400    0.000    7.200 
#    0.000    2.000    0.000    2.400    0.000    2.800 
#    0.000    0.000    0.000    0.000    0.000    0.000 
#
# Total GULP energy -495988.722663 kJ/mol
# GULP energy per Si atom -12399.718067 kJ/mol
# Density = 1.828302 g / cm^3
# Si number density = 18.324729 Si / 1000 Ang^3
#
#
#
# Elastic Constant Matrix: (Units=GPa)
#
#
# Indices 1 2 3 4 5 6 
#
# 1 45.1702 24.0109 21.4308 0.0000 0.0000 0.0000
# 2 24.0109 95.6218 54.1679 0.0000 0.0000 0.0000
# 3 21.4308 54.1679 108.7292 0.0000 0.0000 0.0000
# 4 0.0000 0.0000 0.0000 18.7377 0.0000 0.0000
# 5 0.0000 0.0000 0.0000 0.0000 9.1342 0.0000
# 6 0.0000 0.0000 0.0000 0.0000 0.0000 11.3072
#
#
#
# Elastic Compliance Matrix: (Units=1/GPa)
#
#
# Indices 1 2 3 4 5 6 
#
# 1 0.026072 -0.005065 -0.002615 0.000000 0.000000 0.000000
# 2 -0.005065 0.015554 -0.006750 0.000000 0.000000 0.000000
# 3 -0.002615 -0.006750 0.013076 0.000000 0.000000 0.000000
# 4 0.000000 0.000000 0.000000 0.053368 0.000000 0.000000
# 5 0.000000 0.000000 0.000000 0.000000 0.109479 0.000000
# 6 0.000000 0.000000 0.000000 0.000000 0.000000 0.088439
#
#
# Mechanical properties :
#
#
# Convention : Reuss Voigt Hill
#
# Bulk Modulus (GPa) = 38.70072 49.86006 44.28039
# Shear Modulus (GPa) = 14.55765 17.82993 16.19379
#
# Velocity S-wave (km/s) = 2.82161 3.12268 2.97596
# Velocity P-wave (km/s) = 5.63743 6.34584 6.00210
#
# Compressibility (1/GPa) = 0.02583931
#
# Stress axis : x y z
#
# Youngs Moduli (GPa) = 38.35564 64.29345 76.47817
#
# Poissons Ratio (x) = 0.32565 0.20002
# Poissons Ratio (y) = 0.19428 0.51625
# Poissons Ratio (z) = 0.10032 0.43400
#
# Static dielectric constant tensor:
#      x y z
#    x 2.943530 0.000000 0.000000 
#    y 0.000000 3.598420 0.000000 
#    z 0.000000 0.000000 3.435720 
# 
# 
# High freq. dielectric constant tensor:
#      x y z
#    x 1.655190 0.000000 0.000000 
#    y 0.000000 1.716850 0.000000 
#    z 0.000000 0.000000 1.713400 
# 
# From -- ./inp_files/39987.got.cif
#   From: 2010.03.12/outbox.cif.g09.slc.cpg/sg65_20_cif.got.tgz:39987.got - 2010.04.10 20:52:16.
