data_PCOD8268841
_publ_section_title
;
Structure prediction by ZEFSAII (Michael W. Deem and Ramdas Pophale) SiO2 
 PCOD8268841
Probable space group: C M M M
;
_chemical_formula_sum "Si O2"
_cell_formula_units_Z 72
_cell_length_a 9.585240
_cell_length_b 25.376382
_cell_length_c 19.382899
_cell_angle_alpha 90.000000
_cell_angle_beta 90.000000
_cell_angle_gamma 90.000000
_cell_volume 4714.671384
_symmetry_space_group_name_H-M "C M M M"
_symmetry_group_IT_number 65
_symmetry_cell_setting 'orthorhombic'
loop_
_space_group_symop_operation_xyz
x,y,z
-x,-y,z
x,-y,-z
-x,y,-z
-x,-y,-z
x,y,-z
-x,y,z
x,-y,z
1/2+x,1/2+y,z
1/2-x,1/2-y,z
1/2+x,1/2-y,-z
1/2-x,1/2+y,-z
1/2-x,1/2-y,-z
1/2+x,1/2+y,-z
1/2-x,1/2+y,z
1/2+x,1/2-y,z
loop_
_atom_site_type_symbol
_atom_site_label
_atom_site_fract_x
_atom_site_fract_y
_atom_site_fract_z
Si Si1 0.662321 0.092049 0.649026
Si Si2 0.340413 0.939297 0.199518
Si Si3 0.842627 0.062651 0.924151
Si Si4 0.162310 0.000000 0.581685
Si Si5 0.160734 0.298989 0.579408
O O1 0.500000 0.077659 0.633799
O O2 0.692212 0.092005 0.730598
O O3 0.701148 0.149906 0.623056
O O4 0.761958 0.051433 0.610622
O O5 0.500000 0.933953 0.177434
O O6 0.252793 0.913856 0.136723
O O7 0.299908 0.000000 0.213108
O O8 0.000000 0.081447 0.910482
O O9 0.832783 0.000000 0.922853
O O10 0.793045 0.082679 0.000000
O O11 0.176715 0.000000 0.500000
O O12 0.000000 0.000000 0.604423
O O13 0.196889 0.311141 0.500000
O O14 0.250000 0.250000 0.607433
O O15 0.000000 0.283961 0.588947
#
# Coordination Sequence:
#
# PCOD8268841 Si02
#       5
#    16  16  16   8  16
#     4  10  19  33  49  65  88 120 153 181 219 274
#     4   9  16  26  40  60  85 112 145 181 212 249
#     4   8  14  24  37  54  79 113 148 176 206 250
#     4  11  23  33  43  65  92 117 148 187 225 260
#     4   9  18  32  50  68  85 111 147 187 229 268
#
# _framework density 15.271478
#
# number of rings (size 3 to 8) (size 9 to 14) (size 15 to 20)
#    0.000    2.778    1.111    1.667    0.000    4.000 
#    0.000    4.444    0.000    0.000    0.000    0.000 
#    0.000    0.889    0.000    2.000    0.000    3.556 
#
# Total GULP energy -446316.639069 kJ/mol
# GULP energy per Si atom -12397.684419 kJ/mol
# Density = 1.523672 g / cm^3
# Si number density = 15.271478 Si / 1000 Ang^3
#
#
#
# Elastic Constant Matrix: (Units=GPa)
#
#
# Indices 1 2 3 4 5 6 
#
# 1 86.3320 54.4558 67.2772 0.0000 0.0000 0.0000
# 2 54.4558 83.5043 56.6914 0.0000 0.0000 0.0000
# 3 67.2772 56.6914 118.4847 0.0000 0.0000 0.0000
# 4 0.0000 0.0000 0.0000 -415.8620 0.0000 0.0000
# 5 0.0000 0.0000 0.0000 0.0000 28.6170 0.0000
# 6 0.0000 0.0000 0.0000 0.0000 0.0000 20.9405
#
#
#
# Elastic Compliance Matrix: (Units=1/GPa)
#
#
# Indices 1 2 3 4 5 6 
#
# 1 0.025421 -0.010039 -0.009631 0.000000 0.000000 0.000000
# 2 -0.010039 0.021702 -0.004683 0.000000 0.000000 0.000000
# 3 -0.009631 -0.004683 0.016149 0.000000 0.000000 0.000000
# 4 0.000000 0.000000 0.000000 -0.002405 0.000000 0.000000
# 5 0.000000 0.000000 0.000000 0.000000 0.034944 0.000000
# 6 0.000000 0.000000 0.000000 0.000000 0.000000 0.047754
#
#
# Mechanical properties :
#
#
# Convention : Reuss Voigt Hill
#
# Bulk Modulus (GPa) = 68.65680 71.68553 70.17117
# Shear Modulus (GPa) = 25.36428 -65.93447 -20.28509
#
# Velocity S-wave (km/s) = 4.07983 -6.57789 -3.64854
# Velocity P-wave (km/s) = 8.20051 3.26325 5.31976
#
# Compressibility (1/GPa) = 0.01456520
#
# Stress axis : x y z
#
# Youngs Moduli (GPa) = 39.33780 46.07898 61.92279
#
# Poissons Ratio (x) = 0.46260 0.59636
# Poissons Ratio (y) = 0.39493 0.29000
# Poissons Ratio (z) = 0.37885 0.21580
#
# Static dielectric constant tensor:
#      x y z
#    x 3.044790 0.000000 0.000000 
#    y 0.000000 2.624770 0.000000 
#    z 0.000000 0.000000 3.168900 
# 
# 
# High freq. dielectric constant tensor:
#      x y z
#    x 1.589520 0.000000 0.000000 
#    y 0.000000 1.537580 0.000000 
#    z 0.000000 0.000000 1.591120 
# 
# From -- ./inp_files/56563.got.cif
#   From: 2010.03.12/outbox.cif.g09.slc.cpg/sg65_29_cif.got.tgz:56563.got - 2010.04.10 20:52:16.
