data_PCOD8268449
_publ_section_title
;
Structure prediction by ZEFSAII (Michael W. Deem and Ramdas Pophale) SiO2 
 PCOD8268449
Probable space group: C M M M
;
_chemical_formula_sum "Si O2"
_cell_formula_units_Z 88
_cell_length_a 25.550527
_cell_length_b 8.958575
_cell_length_c 21.638620
_cell_angle_alpha 90.000000
_cell_angle_beta 90.000000
_cell_angle_gamma 90.000000
_cell_volume 4953.000324
_symmetry_space_group_name_H-M "C M M M"
_symmetry_group_IT_number 65
_symmetry_cell_setting 'orthorhombic'
loop_
_space_group_symop_operation_xyz
x,y,z
-x,-y,z
x,-y,-z
-x,y,-z
-x,-y,-z
x,y,-z
-x,y,z
x,-y,z
1/2+x,1/2+y,z
1/2-x,1/2-y,z
1/2+x,1/2-y,-z
1/2-x,1/2+y,-z
1/2-x,1/2-y,-z
1/2+x,1/2+y,-z
1/2-x,1/2+y,z
1/2+x,1/2-y,z
loop_
_atom_site_type_symbol
_atom_site_label
_atom_site_fract_x
_atom_site_fract_y
_atom_site_fract_z
Si Si1 0.693094 0.323943 0.134049
Si Si2 0.195768 0.828914 0.000000
Si Si3 0.500000 0.668406 0.209909
Si Si4 0.000000 0.168539 0.356906
Si Si5 0.104605 0.670876 0.210565
Si Si6 0.395929 0.829188 0.642866
Si Si7 0.304029 0.674626 0.571024
O O1 0.698502 0.500000 0.146282
O O2 0.750000 0.250000 0.141116
O O3 0.654768 0.254699 0.184147
O O4 0.667656 0.290234 0.065409
O O5 0.250000 0.750000 0.000000
O O6 0.210455 0.000000 0.000000
O O7 0.500000 0.500000 0.183735
O O8 0.500000 0.667780 0.283385
O O9 0.448424 0.752706 0.185377
O O10 0.050765 0.254790 0.381853
O O11 0.000000 0.000000 0.382976
O O12 0.104501 0.500000 0.188520
O O13 0.108040 0.683244 0.283860
O O14 0.348390 0.740181 0.614094
O O15 0.394731 0.000000 0.620747
O O16 0.317524 0.710817 0.500000
O O17 0.298997 0.500000 0.583148
O O18 0.250000 0.750000 0.590914
#
# Coordination Sequence:
#
# PCOD8268449 Si02
#       7
#    16   8   8   8  16  16  16
#     4  10  19  32  50  73 101 132 166 205 249 296
#     4   8  16  30  48  69  94 127 166 204 244 292
#     4   9  17  31  51  73  97 131 169 202 243 294
#     4   9  17  31  52  76 102 130 163 203 246 294
#     4  10  20  33  50  75 104 133 165 203 246 293
#     4  10  20  34  53  76 103 133 165 203 247 294
#     4  10  21  37  56  76  99 130 168 207 247 295
#
# _framework density 17.767009000000002
#
# number of rings (size 3 to 8) (size 9 to 14) (size 15 to 20)
#    0.000    2.364    0.000    2.727    0.000    6.909 
#    0.000    0.455    0.000    3.273    0.000    3.818 
#    0.000    0.000    0.000    0.000    0.000    0.000 
#
# Total GULP energy -545456.613860 kJ/mol
# GULP energy per Si atom -12396.741224 kJ/mol
# Density = 1.772657 g / cm^3
# Si number density = 17.767009 Si / 1000 Ang^3
#
#
#
# Elastic Constant Matrix: (Units=GPa)
#
#
# Indices 1 2 3 4 5 6 
#
# 1 132.8913 68.1097 33.5407 0.0000 0.0000 0.0000
# 2 68.1097 125.4388 30.3056 0.0000 0.0000 0.0000
# 3 33.5407 30.3056 27.5264 0.0000 0.0000 0.0000
# 4 0.0000 0.0000 0.0000 22.3781 0.0000 0.0000
# 5 0.0000 0.0000 0.0000 0.0000 -14.1507 0.0000
# 6 0.0000 0.0000 0.0000 0.0000 0.0000 39.1390
#
#
#
# Elastic Compliance Matrix: (Units=1/GPa)
#
#
# Indices 1 2 3 4 5 6 
#
# 1 0.012276 -0.004157 -0.010381 0.000000 0.000000 0.000000
# 2 -0.004157 0.012269 -0.008442 0.000000 0.000000 0.000000
# 3 -0.010381 -0.008442 0.058272 0.000000 0.000000 0.000000
# 4 0.000000 0.000000 0.000000 0.044687 0.000000 0.000000
# 5 0.000000 0.000000 0.000000 0.000000 -0.070668 0.000000
# 6 0.000000 0.000000 0.000000 0.000000 0.000000 0.025550
#
#
# Mechanical properties :
#
#
# Convention : Reuss Voigt Hill
#
# Bulk Modulus (GPa) = 27.13227 61.08540 44.10884
# Shear Modulus (GPa) = 35.55413 19.73331 27.64372
#
# Velocity S-wave (km/s) = 4.47825 3.33629 3.94877
# Velocity P-wave (km/s) = 6.48413 7.02119 6.75800
#
# Compressibility (1/GPa) = 0.03685648
#
# Stress axis : x y z
#
# Youngs Moduli (GPa) = 81.46171 81.50685 17.16096
#
# Poissons Ratio (x) = 0.33886 0.17814
# Poissons Ratio (y) = 0.33867 0.14487
# Poissons Ratio (z) = 0.84563 0.68807
#
# Static dielectric constant tensor:
#      x y z
#    x 3.222720 0.000000 0.000000 
#    y 0.000000 3.541870 0.000000 
#    z 0.000000 0.000000 3.371560 
# 
# 
# High freq. dielectric constant tensor:
#      x y z
#    x 1.684140 0.000000 0.000000 
#    y 0.000000 1.709910 0.000000 
#    z 0.000000 0.000000 1.663690 
# 
# From -- ./inp_files/65263.got.cif
#   From: 2010.03.12/outbox.cif.g09.slc.cpg/sg65_33_cif.got.tgz:65263.got - 2010.04.10 20:52:16.
