data_PCOD8268584
_publ_section_title
;
Structure prediction by ZEFSAII (Michael W. Deem and Ramdas Pophale) SiO2 
 PCOD8268584
Probable space group: C M M M
;
_chemical_formula_sum "Si O2"
_cell_formula_units_Z 104
_cell_length_a 27.192554
_cell_length_b 17.138833
_cell_length_c 13.237337
_cell_angle_alpha 90.000000
_cell_angle_beta 90.000000
_cell_angle_gamma 90.000000
_cell_volume 6169.242931
_symmetry_space_group_name_H-M "C M M M"
_symmetry_group_IT_number 65
_symmetry_cell_setting 'orthorhombic'
loop_
_space_group_symop_operation_xyz
x,y,z
-x,-y,z
x,-y,-z
-x,y,-z
-x,-y,-z
x,y,-z
-x,y,z
x,-y,z
1/2+x,1/2+y,z
1/2-x,1/2-y,z
1/2+x,1/2-y,-z
1/2-x,1/2+y,-z
1/2-x,1/2-y,-z
1/2+x,1/2+y,-z
1/2-x,1/2+y,z
1/2+x,1/2-y,z
loop_
_atom_site_type_symbol
_atom_site_label
_atom_site_fract_x
_atom_site_fract_y
_atom_site_fract_z
Si Si1 0.558285 0.000000 0.885533
Si Si2 0.205713 0.195319 0.741706
Si Si3 0.139943 0.690666 0.382826
Si Si4 0.945104 0.808190 0.117564
Si Si5 0.230561 0.415479 0.615427
Si Si6 0.144821 0.088701 0.119005
Si Si7 0.942733 0.652028 0.762454
O O1 0.576066 0.076892 0.825361
O O2 0.500000 0.000000 0.893286
O O3 0.580251 0.000000 0.000000
O O4 0.250000 0.250000 0.782855
O O5 0.161113 0.240083 0.686955
O O6 0.227580 0.139157 0.658107
O O7 0.186494 0.144016 0.834530
O O8 0.134686 0.717212 0.500000
O O9 0.176205 0.618070 0.371648
O O10 0.087307 0.661610 0.341626
O O11 0.908587 0.877576 0.149788
O O12 0.931611 0.727631 0.170846
O O13 0.000000 0.836045 0.146722
O O14 0.940591 0.789912 0.000000
O O15 0.244488 0.424357 0.500000
O O16 0.231519 0.500000 0.669265
O O17 0.148474 0.000000 0.160134
O O18 0.152807 0.090257 0.000000
O O19 0.000000 0.643842 0.734011
#
# Coordination Sequence:
#
# PCOD8268584 Si02
#       7
#     8  16  16  16  16  16  16
#     4   9  18  32  51  75 103 135 172 216 253 287
#     4  10  19  34  53  73  96 132 170 212 250 299
#     4  10  20  33  50  74 103 132 168 211 252 297
#     4   9  17  31  52  76 101 130 167 207 246 297
#     4   9  18  32  52  75  96 124 163 210 258 300
#     4  10  20  33  51  77 106 133 164 205 258 311
#     4  10  19  32  51  76 104 137 172 204 250 305
#
# _framework density 16.857821999999999
#
# number of rings (size 3 to 8) (size 9 to 14) (size 15 to 20)
#    0.000    2.385    1.538    1.385    1.077    4.615 
#    0.000    1.538    0.000    1.385    0.000    0.000 
#    0.000    2.462    0.000    0.000    0.000    0.000 
#
# Total GULP energy -644633.601179 kJ/mol
# GULP energy per Si atom -12396.800023 kJ/mol
# Density = 1.681945 g / cm^3
# Si number density = 16.857822 Si / 1000 Ang^3
#
#
#
# Elastic Constant Matrix: (Units=GPa)
#
#
# Indices 1 2 3 4 5 6 
#
# 1 87.5130 51.7339 45.3690 0.0000 0.0000 0.0000
# 2 51.7339 126.8947 42.8139 0.0000 0.0000 0.0000
# 3 45.3690 42.8139 56.9780 0.0000 0.0000 0.0000
# 4 0.0000 0.0000 0.0000 25.2305 0.0000 0.0000
# 5 0.0000 0.0000 0.0000 0.0000 24.8837 0.0000
# 6 0.0000 0.0000 0.0000 0.0000 0.0000 16.5955
#
#
#
# Elastic Compliance Matrix: (Units=1/GPa)
#
#
# Indices 1 2 3 4 5 6 
#
# 1 0.020789 -0.003872 -0.013644 0.000000 0.000000 0.000000
# 2 -0.003872 0.011278 -0.005391 0.000000 0.000000 0.000000
# 3 -0.013644 -0.005391 0.032466 0.000000 0.000000 0.000000
# 4 0.000000 0.000000 0.000000 0.039635 0.000000 0.000000
# 5 0.000000 0.000000 0.000000 0.000000 0.040187 0.000000
# 6 0.000000 0.000000 0.000000 0.000000 0.000000 0.060257
#
#
# Mechanical properties :
#
#
# Convention : Reuss Voigt Hill
#
# Bulk Modulus (GPa) = 53.42352 61.24660 57.33506
# Shear Modulus (GPa) = 19.48051 22.10654 20.79352
#
# Velocity S-wave (km/s) = 3.40307 3.62519 3.51588
# Velocity P-wave (km/s) = 6.87027 7.34389 7.11103
#
# Compressibility (1/GPa) = 0.01871835
#
# Stress axis : x y z
#
# Youngs Moduli (GPa) = 48.10149 88.66636 30.80158
#
# Poissons Ratio (x) = 0.34333 0.42026
# Poissons Ratio (y) = 0.18626 0.16606
# Poissons Ratio (z) = 0.65630 0.47803
#
# Static dielectric constant tensor:
#      x y z
#    x 3.155340 0.000000 0.000000 
#    y 0.000000 3.387460 0.000000 
#    z 0.000000 0.000000 3.052000 
# 
# 
# High freq. dielectric constant tensor:
#      x y z
#    x 1.643020 0.000000 0.000000 
#    y 0.000000 1.660250 0.000000 
#    z 0.000000 0.000000 1.635820 
# 
# From -- ./inp_files/27482.got.cif
#   From: 2010.03.12/outbox.cif.g09.slc.cpg/sg65_14_cif.got.tgz:27482.got - 2010.04.10 20:52:16.
