data_PCOD8268311
_publ_section_title
;
Structure prediction by ZEFSAII (Michael W. Deem and Ramdas Pophale) SiO2 
 PCOD8268311
Probable space group: C M M M
;
_chemical_formula_sum "Si O2"
_cell_formula_units_Z 96
_cell_length_a 14.739904
_cell_length_b 23.265072
_cell_length_c 14.083434
_cell_angle_alpha 90.000000
_cell_angle_beta 90.000000
_cell_angle_gamma 90.000000
_cell_volume 4829.560588
_symmetry_space_group_name_H-M "C M M M"
_symmetry_group_IT_number 65
_symmetry_cell_setting 'orthorhombic'
loop_
_space_group_symop_operation_xyz
x,y,z
-x,-y,z
x,-y,-z
-x,y,-z
-x,-y,-z
x,y,-z
-x,y,z
x,-y,z
1/2+x,1/2+y,z
1/2-x,1/2-y,z
1/2+x,1/2-y,-z
1/2-x,1/2+y,-z
1/2-x,1/2-y,-z
1/2+x,1/2+y,-z
1/2-x,1/2+y,z
1/2+x,1/2-y,z
loop_
_atom_site_type_symbol
_atom_site_label
_atom_site_fract_x
_atom_site_fract_y
_atom_site_fract_z
Si Si1 0.392232 0.613079 0.800285
Si Si2 0.775254 0.434394 0.109235
Si Si3 0.849572 0.273560 0.392635
Si Si4 0.106397 0.342231 0.214725
Si Si5 0.100134 0.149764 0.397995
Si Si6 0.392979 0.731587 0.104598
O O1 0.500000 0.599406 0.812737
O O2 0.330595 0.568211 0.857799
O O3 0.358860 0.613673 0.689836
O O4 0.364898 0.675477 0.838234
O O5 0.807298 0.500000 0.117676
O O6 0.838565 0.397621 0.179405
O O7 0.784068 0.413386 0.000000
O O8 0.861687 0.296407 0.500000
O O9 0.750000 0.250000 0.372914
O O10 0.875548 0.327136 0.325281
O O11 0.911204 0.217488 0.373134
O O12 0.144978 0.288055 0.155957
O O13 0.000000 0.353923 0.197808
O O14 0.153328 0.141653 0.500000
O O15 0.000000 0.125152 0.411221
O O16 0.500000 0.736290 0.098401
O O17 0.349796 0.728076 0.000000
#
# Coordination Sequence:
#
# PCOD8268311 Si02
#       6
#    16  16  16  16  16  16
#     4  10  19  35  59  87 121 153 182 231 297 365
#     4  11  26  44  60  80 106 147 206 258 298 346
#     4  10  19  31  52  86 125 158 187 223 276 346
#     4  11  22  37  59  86 117 154 194 240 292 345
#     4   9  16  28  50  82 119 153 181 212 263 340
#     4   9  17  29  49  82 116 145 179 221 283 356
#
# _framework density 19.877586000000001
#
# number of rings (size 3 to 8) (size 9 to 14) (size 15 to 20)
#    0.000    2.000    1.667    2.500    0.000    3.667 
#    0.000    3.333    0.000    2.000    0.000    3.500 
#    0.000    0.000    0.000    0.000    0.000    0.000 
#
# Total GULP energy -594785.392185 kJ/mol
# GULP energy per Si atom -12391.362337 kJ/mol
# Density = 1.983234 g / cm^3
# Si number density = 19.877586 Si / 1000 Ang^3
#
#
#
# Elastic Constant Matrix: (Units=GPa)
#
#
# Indices 1 2 3 4 5 6 
#
# 1 61.1281 15.9582 24.4822 0.0000 0.0000 0.0000
# 2 15.9582 57.9755 30.6499 0.0000 0.0000 0.0000
# 3 24.4822 30.6499 138.6680 0.0000 0.0000 0.0000
# 4 0.0000 0.0000 0.0000 24.5075 0.0000 0.0000
# 5 0.0000 0.0000 0.0000 0.0000 21.6046 0.0000
# 6 0.0000 0.0000 0.0000 0.0000 0.0000 23.0239
#
#
#
# Elastic Compliance Matrix: (Units=1/GPa)
#
#
# Indices 1 2 3 4 5 6 
#
# 1 0.018304 -0.003770 -0.002398 0.000000 0.000000 0.000000
# 2 -0.003770 0.020308 -0.003823 0.000000 0.000000 0.000000
# 3 -0.002398 -0.003823 0.008480 0.000000 0.000000 0.000000
# 4 0.000000 0.000000 0.000000 0.040804 0.000000 0.000000
# 5 0.000000 0.000000 0.000000 0.000000 0.046286 0.000000
# 6 0.000000 0.000000 0.000000 0.000000 0.000000 0.043433
#
#
# Mechanical properties :
#
#
# Convention : Reuss Voigt Hill
#
# Bulk Modulus (GPa) = 36.88920 44.43914 40.66417
# Shear Modulus (GPa) = 24.19738 26.27262 25.23500
#
# Velocity S-wave (km/s) = 3.49280 3.63949 3.56690
# Velocity P-wave (km/s) = 5.90463 6.32978 6.12090
#
# Compressibility (1/GPa) = 0.02710820
#
# Stress axis : x y z
#
# Youngs Moduli (GPa) = 54.63312 49.24266 117.92641
#
# Poissons Ratio (x) = 0.18567 0.28281
# Poissons Ratio (y) = 0.20599 0.45082
# Poissons Ratio (z) = 0.13102 0.18825
#
# Static dielectric constant tensor:
#      x y z
#    x 3.549060 0.000000 0.000000 
#    y 0.000000 3.201600 0.000000 
#    z 0.000000 0.000000 4.084570 
# 
# 
# High freq. dielectric constant tensor:
#      x y z
#    x 1.768130 0.000000 0.000000 
#    y 0.000000 1.721390 0.000000 
#    z 0.000000 0.000000 1.797110 
# 
# From -- ./inp_files/40337.got.cif
#   From: 2010.03.12/outbox.cif.g09.slc.cpg/sg65_21_cif.got.tgz:40337.got - 2010.04.10 20:52:16.
