data_PCOD8268436
_publ_section_title
;
Structure prediction by ZEFSAII (Michael W. Deem and Ramdas Pophale) SiO2 
 PCOD8268436
Probable space group: C M M M
;
_chemical_formula_sum "Si O2"
_cell_formula_units_Z 112
_cell_length_a 26.699535
_cell_length_b 17.960871
_cell_length_c 14.104235
_cell_angle_alpha 90.000000
_cell_angle_beta 90.000000
_cell_angle_gamma 90.000000
_cell_volume 6763.642226
_symmetry_space_group_name_H-M "C M M M"
_symmetry_group_IT_number 65
_symmetry_cell_setting 'orthorhombic'
loop_
_space_group_symop_operation_xyz
x,y,z
-x,-y,z
x,-y,-z
-x,y,-z
-x,-y,-z
x,y,-z
-x,y,z
x,-y,z
1/2+x,1/2+y,z
1/2-x,1/2-y,z
1/2+x,1/2-y,-z
1/2-x,1/2+y,-z
1/2-x,1/2-y,-z
1/2+x,1/2+y,-z
1/2-x,1/2+y,z
1/2+x,1/2-y,z
loop_
_atom_site_type_symbol
_atom_site_label
_atom_site_fract_x
_atom_site_fract_y
_atom_site_fract_z
Si Si1 0.556724 0.301082 0.393492
Si Si2 0.203982 0.346326 0.107446
Si Si3 0.943426 0.719572 0.209811
Si Si4 0.143574 0.200305 0.109599
Si Si5 0.401394 0.915256 0.107414
Si Si6 0.143986 0.085214 0.392939
Si Si7 0.705012 0.413050 0.787085
O O1 0.566460 0.271589 0.500000
O O2 0.500000 0.332762 0.383753
O O3 0.564702 0.231416 0.322635
O O4 0.595431 0.366245 0.366839
O O5 0.186279 0.262388 0.130690
O O6 0.157776 0.402653 0.115917
O O7 0.243760 0.371410 0.186047
O O8 0.226582 0.349936 0.000000
O O9 0.908905 0.777288 0.154635
O O10 0.930884 0.634735 0.182892
O O11 0.000000 0.737572 0.180197
O O12 0.160485 0.120969 0.149816
O O13 0.133352 0.192711 0.000000
O O14 0.414205 0.000000 0.131870
O O15 0.418397 0.894927 0.000000
O O16 0.162601 0.101669 0.500000
O O17 0.190790 0.102020 0.323013
O O18 0.126837 0.000000 0.381139
O O19 0.709915 0.500000 0.810418
#
# Coordination Sequence:
#
# PCOD8268436 Si02
#       7
#    16  16  16  16  16  16  16
#     4   9  17  31  52  73  92 120 162 209 249 286
#     4   9  18  32  50  70  95 127 163 204 242 277
#     4  10  19  32  50  72  97 128 160 194 245 300
#     4  10  20  33  48  70  98 128 164 203 237 280
#     4   9  18  32  50  74 100 125 161 207 247 284
#     4   9  18  32  49  71  98 125 158 204 251 289
#     4  11  20  30  48  72  96 128 162 197 243 287
#
# _framework density 16.559125000000002
#
# number of rings (size 3 to 8) (size 9 to 14) (size 15 to 20)
#    0.000    2.429    1.429    2.571    0.000    4.571 
#    0.000    2.143    0.000    6.000    0.000    3.000 
#    0.000    0.000    0.000    0.000    0.000    0.000 
#
# Total GULP energy -694232.556319 kJ/mol
# GULP energy per Si atom -12397.009934 kJ/mol
# Density = 1.652144 g / cm^3
# Si number density = 16.559125 Si / 1000 Ang^3
#
#
#
# Elastic Constant Matrix: (Units=GPa)
#
#
# Indices 1 2 3 4 5 6 
#
# 1 86.3300 37.1227 62.9809 0.0000 0.0000 0.0000
# 2 37.1227 68.6964 55.8847 0.0000 0.0000 0.0000
# 3 62.9809 55.8847 113.4313 0.0000 0.0000 0.0000
# 4 0.0000 0.0000 0.0000 27.9299 0.0000 0.0000
# 5 0.0000 0.0000 0.0000 0.0000 29.3970 0.0000
# 6 0.0000 0.0000 0.0000 0.0000 0.0000 13.7257
#
#
#
# Elastic Compliance Matrix: (Units=1/GPa)
#
#
# Indices 1 2 3 4 5 6 
#
# 1 0.019818 -0.002934 -0.009558 0.000000 0.000000 0.000000
# 2 -0.002934 0.024728 -0.010554 0.000000 0.000000 0.000000
# 3 -0.009558 -0.010554 0.019323 0.000000 0.000000 0.000000
# 4 0.000000 0.000000 0.000000 0.035804 0.000000 0.000000
# 5 0.000000 0.000000 0.000000 0.000000 0.034017 0.000000
# 6 0.000000 0.000000 0.000000 0.000000 0.000000 0.072856
#
#
# Mechanical properties :
#
#
# Convention : Reuss Voigt Hill
#
# Bulk Modulus (GPa) = 56.25340 64.49272 60.37306
# Shear Modulus (GPa) = 19.33764 21.70846 20.52305
#
# Velocity S-wave (km/s) = 3.42101 3.62466 3.52430
# Velocity P-wave (km/s) = 7.04623 7.51991 7.28692
#
# Compressibility (1/GPa) = 0.01777670
#
# Stress axis : x y z
#
# Youngs Moduli (GPa) = 50.45880 40.44043 51.75285
#
# Poissons Ratio (x) = 0.11864 0.49467
# Poissons Ratio (y) = 0.14803 0.54619
# Poissons Ratio (z) = 0.48230 0.42680
#
# Static dielectric constant tensor:
#      x y z
#    x 3.069290 0.000000 0.000000 
#    y 0.000000 3.105740 0.000000 
#    z 0.000000 0.000000 3.240510 
# 
# 
# High freq. dielectric constant tensor:
#      x y z
#    x 1.635090 0.000000 0.000000 
#    y 0.000000 1.629370 0.000000 
#    z 0.000000 0.000000 1.634400 
# 
# From -- ./inp_files/32755.got.cif
#   From: 2010.03.12/outbox.cif.g09.slc.cpg/sg65_17_cif.got.tgz:32755.got - 2010.04.10 20:52:16.
