data_PCOD8268807
_publ_section_title
;
Structure prediction by ZEFSAII (Michael W. Deem and Ramdas Pophale) SiO2 
 PCOD8268807
Probable space group: C M M M
;
_chemical_formula_sum "Si O2"
_cell_formula_units_Z 88
_cell_length_a 30.566319
_cell_length_b 8.634458
_cell_length_c 17.862609
_cell_angle_alpha 90.000000
_cell_angle_beta 90.000000
_cell_angle_gamma 90.000000
_cell_volume 4714.364030
_symmetry_space_group_name_H-M "C M M M"
_symmetry_group_IT_number 65
_symmetry_cell_setting 'orthorhombic'
loop_
_space_group_symop_operation_xyz
x,y,z
-x,-y,z
x,-y,-z
-x,y,-z
-x,-y,-z
x,y,-z
-x,y,z
x,-y,z
1/2+x,1/2+y,z
1/2-x,1/2-y,z
1/2+x,1/2-y,-z
1/2-x,1/2+y,-z
1/2-x,1/2-y,-z
1/2+x,1/2+y,-z
1/2-x,1/2+y,z
1/2+x,1/2-y,z
loop_
_atom_site_type_symbol
_atom_site_label
_atom_site_fract_x
_atom_site_fract_y
_atom_site_fract_z
Si Si1 0.175599 0.820925 0.081001
Si Si2 0.915016 0.822020 0.851453
Si Si3 0.204715 0.816183 0.759804
Si Si4 0.048813 0.684097 0.584302
Si Si5 0.617750 0.818966 0.295524
Si Si6 0.500000 0.171597 0.912793
O O1 0.123661 0.798327 0.088888
O O2 0.198687 0.748515 0.154955
O O3 0.188066 0.000000 0.078370
O O4 0.189649 0.745509 0.000000
O O5 0.907933 0.712241 0.780655
O O6 0.958979 0.773064 0.890541
O O7 0.916736 0.000000 0.824394
O O8 0.250000 0.750000 0.727169
O O9 0.165136 0.763581 0.706026
O O10 0.205254 0.000000 0.760688
O O11 0.058873 0.740797 0.500000
O O12 0.049011 0.500000 0.588322
O O13 0.087128 0.749485 0.637996
O O14 0.000000 0.742565 0.608583
O O15 0.625981 0.000000 0.306204
O O16 0.500000 0.000000 0.874921
O O17 0.500000 0.147908 0.000000
#
# Coordination Sequence:
#
# PCOD8268807 Si02
#       6
#    16  16  16  16  16   8
#     4   8  15  29  48  68  92 124 163 208 258 309
#     4  10  20  33  49  70  98 136 176 214 256 311
#     4  10  20  34  52  74 102 134 174 220 268 319
#     4   8  15  29  51  81 113 142 172 206 249 306
#     4  10  19  32  54  80 107 138 172 213 259 307
#     4  11  23  35  47  67  96 131 176 227 271 312
#
# _framework density 18.666357000000001
#
# number of rings (size 3 to 8) (size 9 to 14) (size 15 to 20)
#    0.000    2.636    0.000    4.091    1.273    1.818 
#    0.000    0.000    0.000   13.091    0.000    5.091 
#    0.000    0.000    0.000    0.000    0.000    0.000 
#
# Total GULP energy -545258.611459 kJ/mol
# GULP energy per Si atom -12392.241170 kJ/mol
# Density = 1.862387 g / cm^3
# Si number density = 18.666357 Si / 1000 Ang^3
#
#
#
# Elastic Constant Matrix: (Units=GPa)
#
#
# Indices 1 2 3 4 5 6 
#
# 1 143.9075 30.5893 54.8610 0.0000 0.0000 0.0000
# 2 30.5893 46.8462 15.6074 0.0000 0.0000 0.0000
# 3 54.8610 15.6074 90.3598 0.0000 0.0000 0.0000
# 4 0.0000 0.0000 0.0000 14.3937 0.0000 0.0000
# 5 0.0000 0.0000 0.0000 0.0000 67.2212 0.0000
# 6 0.0000 0.0000 0.0000 0.0000 0.0000 26.7038
#
#
#
# Elastic Compliance Matrix: (Units=1/GPa)
#
#
# Indices 1 2 3 4 5 6 
#
# 1 0.009950 -0.004758 -0.005219 0.000000 0.000000 0.000000
# 2 -0.004758 0.024925 -0.001416 0.000000 0.000000 0.000000
# 3 -0.005219 -0.001416 0.014480 0.000000 0.000000 0.000000
# 4 0.000000 0.000000 0.000000 0.069475 0.000000 0.000000
# 5 0.000000 0.000000 0.000000 0.000000 0.014876 0.000000
# 6 0.000000 0.000000 0.000000 0.000000 0.000000 0.037448
#
#
# Mechanical properties :
#
#
# Convention : Reuss Voigt Hill
#
# Bulk Modulus (GPa) = 37.63910 53.69210 45.66560
# Shear Modulus (GPa) = 24.65509 33.66747 29.16128
#
# Velocity S-wave (km/s) = 3.63827 4.25154 3.95680
# Velocity P-wave (km/s) = 6.15282 7.27512 6.73738
#
# Compressibility (1/GPa) = 0.02656812
#
# Stress axis : x y z
#
# Youngs Moduli (GPa) = 100.50256 40.11987 69.05954
#
# Poissons Ratio (x) = 0.19090 0.36043
# Poissons Ratio (y) = 0.47821 0.09781
# Poissons Ratio (z) = 0.52454 0.05682
#
# Static dielectric constant tensor:
#      x y z
#    x 3.585430 0.000000 0.000000 
#    y 0.000000 3.174900 0.000000 
#    z 0.000000 0.000000 3.508890 
# 
# 
# High freq. dielectric constant tensor:
#      x y z
#    x 1.730600 0.000000 0.000000 
#    y 0.000000 1.700210 0.000000 
#    z 0.000000 0.000000 1.703770 
# 
# From -- ./inp_files/50450.got.cif
#   From: 2010.03.12/outbox.cif.g09.slc.cpg/sg65_26_cif.got.tgz:50450.got - 2010.04.10 20:52:16.
