data_PCOD8268833
_publ_section_title
;
Structure prediction by ZEFSAII (Michael W. Deem and Ramdas Pophale) SiO2 
 PCOD8268833
Probable space group: C M M M
;
_chemical_formula_sum "Si O2"
_cell_formula_units_Z 88
_cell_length_a 9.547248
_cell_length_b 28.116826
_cell_length_c 23.697139
_cell_angle_alpha 90.000000
_cell_angle_beta 90.000000
_cell_angle_gamma 90.000000
_cell_volume 6361.219964
_symmetry_space_group_name_H-M "C M M M"
_symmetry_group_IT_number 65
_symmetry_cell_setting 'orthorhombic'
loop_
_space_group_symop_operation_xyz
x,y,z
-x,-y,z
x,-y,-z
-x,y,-z
-x,-y,-z
x,y,-z
-x,y,z
x,-y,z
1/2+x,1/2+y,z
1/2-x,1/2-y,z
1/2+x,1/2-y,-z
1/2-x,1/2+y,-z
1/2-x,1/2-y,-z
1/2+x,1/2+y,-z
1/2-x,1/2+y,z
1/2+x,1/2-y,z
loop_
_atom_site_type_symbol
_atom_site_label
_atom_site_fract_x
_atom_site_fract_y
_atom_site_fract_z
Si Si1 0.157755 0.556896 0.819581
Si Si2 0.160353 0.793474 0.435106
Si Si3 0.338080 0.554798 0.283995
Si Si4 0.662653 0.056290 0.500000
Si Si5 0.333535 0.053291 0.059758
Si Si6 0.663173 0.602457 0.400724
O O1 0.162825 0.500000 0.822306
O O2 0.254070 0.576209 0.769128
O O3 0.215133 0.577089 0.880637
O O4 0.000000 0.574597 0.807845
O O5 0.201203 0.803443 0.500000
O O6 0.250000 0.750000 0.409874
O O7 0.192954 0.841276 0.400730
O O8 0.000000 0.778320 0.429339
O O9 0.500000 0.560711 0.269425
O O10 0.298540 0.500000 0.295188
O O11 0.295755 0.584121 0.339110
O O12 0.500000 0.072116 0.500000
O O13 0.738525 0.076111 0.555123
O O14 0.676867 0.000000 0.500000
O O15 0.500000 0.051110 0.062914
O O16 0.273070 0.000000 0.057142
O O17 0.287679 0.079081 0.000000
O O18 0.500000 0.591907 0.415449
#
# Coordination Sequence:
#
# PCOD8268833 Si02
#       6
#    16  16  16   8  16  16
#     4   8  13  21  33  48  67  92 121 155 191 220
#     4   9  17  30  47  65  80  94 116 149 189 232
#     4   9  17  27  39  54  72  98 130 159 183 212
#     4  11  23  33  42  61  84 101 122 159 200 227
#     4   7   9  14  26  44  63  84 115 153 187 217
#     4  10  19  33  48  60  75 101 133 156 182 229
#
# _framework density 13.833824999999999
#
# number of rings (size 3 to 8) (size 9 to 14) (size 15 to 20)
#    0.000    3.182    0.909    2.455    0.000    2.909 
#    0.000    1.818    0.000    0.545    0.000    3.818 
#    0.000    0.000    0.000    0.000    0.000    0.909 
#
# Total GULP energy -545084.555635 kJ/mol
# GULP energy per Si atom -12388.285355 kJ/mol
# Density = 1.380234 g / cm^3
# Si number density = 13.833825 Si / 1000 Ang^3
#
#
#
# Elastic Constant Matrix: (Units=GPa)
#
#
# Indices 1 2 3 4 5 6 
#
# 1 56.5873 29.9436 58.5776 0.0000 0.0000 0.0000
# 2 29.9436 49.6099 43.3673 0.0000 0.0000 0.0000
# 3 58.5776 43.3673 146.2164 0.0000 0.0000 0.0000
# 4 0.0000 0.0000 0.0000 -0.4681 0.0000 0.0000
# 5 0.0000 0.0000 0.0000 0.0000 17.1297 0.0000
# 6 0.0000 0.0000 0.0000 0.0000 0.0000 15.9448
#
#
#
# Elastic Compliance Matrix: (Units=1/GPa)
#
#
# Indices 1 2 3 4 5 6 
#
# 1 0.034698 -0.011869 -0.010381 0.000000 0.000000 0.000000
# 2 -0.011869 0.031273 -0.004521 0.000000 0.000000 0.000000
# 3 -0.010381 -0.004521 0.012339 0.000000 0.000000 0.000000
# 4 0.000000 0.000000 0.000000 -2.136489 0.000000 0.000000
# 5 0.000000 0.000000 0.000000 0.000000 0.058378 0.000000
# 6 0.000000 0.000000 0.000000 0.000000 0.000000 0.062716
#
#
# Mechanical properties :
#
#
# Convention : Reuss Voigt Hill
#
# Bulk Modulus (GPa) = 40.37189 57.35452 48.86320
# Shear Modulus (GPa) = -2.66626 14.55630 5.94502
#
# Velocity S-wave (km/s) = -1.38979 3.24732 2.07528
# Velocity P-wave (km/s) = 5.16444 7.45719 6.41409
#
# Compressibility (1/GPa) = 0.02476971
#
# Stress axis : x y z
#
# Youngs Moduli (GPa) = 28.82029 31.97686 81.04631
#
# Poissons Ratio (x) = 0.37952 0.84130
# Poissons Ratio (y) = 0.34206 0.36637
# Poissons Ratio (z) = 0.29917 0.14455
#
# Static dielectric constant tensor:
#      x y z
#    x 2.679460 0.000000 0.000000 
#    y 0.000000 2.399370 0.000000 
#    z 0.000000 0.000000 3.119280 
# 
# 
# High freq. dielectric constant tensor:
#      x y z
#    x 1.516190 0.000000 0.000000 
#    y 0.000000 1.471980 0.000000 
#    z 0.000000 0.000000 1.534590 
# 
# From -- ./inp_files/68420.got.cif
#   From: 2010.03.12/outbox.cif.g09.slc.cpg/sg65_35_cif.got.tgz:68420.got - 2010.04.10 20:52:16.
