data_PCOD8268104
_publ_section_title
;
Structure prediction by ZEFSAII (Michael W. Deem and Ramdas Pophale) SiO2 
 PCOD8268104
Probable space group: C M M M
;
_chemical_formula_sum "Si O2"
_cell_formula_units_Z 112
_cell_length_a 18.165434
_cell_length_b 9.526424
_cell_length_c 36.246024
_cell_angle_alpha 90.000000
_cell_angle_beta 90.000000
_cell_angle_gamma 90.000000
_cell_volume 6272.433405
_symmetry_space_group_name_H-M "C M M M"
_symmetry_group_IT_number 65
_symmetry_cell_setting 'orthorhombic'
loop_
_space_group_symop_operation_xyz
x,y,z
-x,-y,z
x,-y,-z
-x,y,-z
-x,-y,-z
x,y,-z
-x,y,z
x,-y,z
1/2+x,1/2+y,z
1/2-x,1/2-y,z
1/2+x,1/2-y,-z
1/2-x,1/2+y,-z
1/2-x,1/2-y,-z
1/2+x,1/2+y,-z
1/2-x,1/2+y,z
1/2+x,1/2-y,z
loop_
_atom_site_type_symbol
_atom_site_label
_atom_site_fract_x
_atom_site_fract_y
_atom_site_fract_z
Si Si1 0.174936 0.334257 0.819572
Si Si2 0.082218 0.665942 0.250334
Si Si3 0.587485 0.658000 0.040558
Si Si4 0.325260 0.166647 0.321274
Si Si5 0.918507 0.665959 0.609084
Si Si6 0.322143 0.162776 0.458335
Si Si7 0.084697 0.337200 0.891922
O O1 0.191098 0.500000 0.817066
O O2 0.250000 0.250000 0.819442
O O3 0.126887 0.280216 0.785114
O O4 0.130624 0.294245 0.856213
O O5 0.075630 0.500000 0.248662
O O6 0.123902 0.712713 0.287221
O O7 0.000000 0.731584 0.250246
O O8 0.500000 0.665221 0.040784
O O9 0.614470 0.500000 0.048382
O O10 0.618875 0.756969 0.072771
O O11 0.615899 0.707173 0.000000
O O12 0.250000 0.250000 0.317872
O O13 0.366155 0.219274 0.358184
O O14 0.309763 0.000000 0.321541
O O15 0.924949 0.500000 0.611822
O O16 0.885844 0.711674 0.569532
O O17 0.000000 0.732690 0.612897
O O18 0.349692 0.192014 0.500000
O O19 0.250000 0.250000 0.448863
O O20 0.302349 0.000000 0.452558
O O21 0.091923 0.500000 0.900900
O O22 0.000000 0.295214 0.884529
#
# Coordination Sequence:
#
# PCOD8268104 Si02
#       7
#    16  16  16  16  16  16  16
#     4  10  20  33  49  69  94 123 154 189 228 272
#     4   9  17  31  52  74  94 120 156 193 228 270
#     4   8  14  25  42  66  95 123 150 184 229 277
#     4  10  19  31  50  73  96 124 156 191 232 277
#     4   9  17  29  46  69  94 120 157 201 236 272
#     4   9  17  29  46  67  91 121 155 193 239 287
#     4   9  17  29  46  68  92 119 153 191 228 266
#
# _framework density 17.855910000000002
#
# number of rings (size 3 to 8) (size 9 to 14) (size 15 to 20)
#    0.000    2.857    0.000    2.143    0.000    4.571 
#    0.000    2.857    0.000    5.571    0.000    2.000 
#    0.000    0.000    0.000    0.000    0.000    0.000 
#
# Total GULP energy -694267.454338 kJ/mol
# GULP energy per Si atom -12397.633113 kJ/mol
# Density = 1.781527 g / cm^3
# Si number density = 17.855910 Si / 1000 Ang^3
#
#
#
# Elastic Constant Matrix: (Units=GPa)
#
#
# Indices 1 2 3 4 5 6 
#
# 1 131.4336 42.6486 82.0528 0.0000 0.0000 0.0000
# 2 42.6486 35.8122 45.8065 0.0000 0.0000 0.0000
# 3 82.0528 45.8065 166.1008 0.0000 0.0000 0.0000
# 4 0.0000 0.0000 0.0000 16.3225 0.0000 0.0000
# 5 0.0000 0.0000 0.0000 0.0000 10.6642 0.0000
# 6 0.0000 0.0000 0.0000 0.0000 0.0000 24.4082
#
#
#
# Elastic Compliance Matrix: (Units=1/GPa)
#
#
# Indices 1 2 3 4 5 6 
#
# 1 0.013585 -0.011734 -0.003475 0.000000 0.000000 0.000000
# 2 -0.011734 0.053275 -0.008896 0.000000 0.000000 0.000000
# 3 -0.003475 -0.008896 0.010190 0.000000 0.000000 0.000000
# 4 0.000000 0.000000 0.000000 0.061265 0.000000 0.000000
# 5 0.000000 0.000000 0.000000 0.000000 0.093772 0.000000
# 6 0.000000 0.000000 0.000000 0.000000 0.000000 0.040970
#
#
# Mechanical properties :
#
#
# Convention : Reuss Voigt Hill
#
# Bulk Modulus (GPa) = 34.67183 74.92916 54.80050
# Shear Modulus (GPa) = 15.11119 21.13489 18.12304
#
# Velocity S-wave (km/s) = 2.91225 3.44413 3.18930
# Velocity P-wave (km/s) = 5.54689 7.60726 6.65727
#
# Compressibility (1/GPa) = 0.02884186
#
# Stress axis : x y z
#
# Youngs Moduli (GPa) = 73.60847 18.77047 98.13173
#
# Poissons Ratio (x) = 0.22025 0.34103
# Poissons Ratio (y) = 0.86370 0.87294
# Poissons Ratio (z) = 0.25581 0.16698
#
# Static dielectric constant tensor:
#      x y z
#    x 3.276090 0.000000 0.000000 
#    y 0.000000 3.018530 0.000000 
#    z 0.000000 0.000000 3.681260 
# 
# 
# High freq. dielectric constant tensor:
#      x y z
#    x 1.679090 0.000000 0.000000 
#    y 0.000000 1.652980 0.000000 
#    z 0.000000 0.000000 1.712560 
# 
# From -- ./inp_files/77440.got.cif
#   From: 2010.03.12/outbox.cif.g09.slc.cpg/sg65_39_cif.got.tgz:77440.got - 2010.04.10 20:52:16.
