data_PCOD8268118
_publ_section_title
;
Structure prediction by ZEFSAII (Michael W. Deem and Ramdas Pophale) SiO2 
 PCOD8268118
Probable space group: C M M M
;
_chemical_formula_sum "Si O2"
_cell_formula_units_Z 88
_cell_length_a 18.129280
_cell_length_b 9.094367
_cell_length_c 28.118743
_cell_angle_alpha 90.000000
_cell_angle_beta 90.000000
_cell_angle_gamma 90.000000
_cell_volume 4636.058794
_symmetry_space_group_name_H-M "C M M M"
_symmetry_group_IT_number 65
_symmetry_cell_setting 'orthorhombic'
loop_
_space_group_symop_operation_xyz
x,y,z
-x,-y,z
x,-y,-z
-x,y,-z
-x,-y,-z
x,y,-z
-x,y,z
x,-y,z
1/2+x,1/2+y,z
1/2-x,1/2-y,z
1/2+x,1/2-y,-z
1/2-x,1/2+y,-z
1/2-x,1/2-y,-z
1/2+x,1/2+y,-z
1/2-x,1/2+y,z
1/2+x,1/2-y,z
loop_
_atom_site_type_symbol
_atom_site_label
_atom_site_fract_x
_atom_site_fract_y
_atom_site_fract_z
Si Si1 0.671798 0.173753 0.224392
Si Si2 0.582773 0.174481 0.500000
Si Si3 0.417278 0.174638 0.684299
Si Si4 0.824871 0.171495 0.945158
Si Si5 0.585081 0.169708 0.869449
Si Si6 0.328670 0.825332 0.407875
O O1 0.750000 0.250000 0.226210
O O2 0.623442 0.231988 0.268489
O O3 0.630932 0.220981 0.176267
O O4 0.682907 0.000000 0.227255
O O5 0.500000 0.240421 0.500000
O O6 0.625724 0.230012 0.453493
O O7 0.578204 0.000000 0.500000
O O8 0.500000 0.240305 0.682897
O O9 0.372620 0.229796 0.638428
O O10 0.421518 0.000000 0.684576
O O11 0.750000 0.250000 0.928523
O O12 0.892398 0.233485 0.914718
O O13 0.815182 0.000000 0.935576
O O14 0.842410 0.205901 0.000000
O O15 0.500000 0.198153 0.857980
O O16 0.600186 0.000000 0.881641
O O17 0.250000 0.750000 0.408498
O O18 0.318129 0.000000 0.408021
#
# Coordination Sequence:
#
# PCOD8268118 Si02
#       6
#    16   8  16  16  16  16
#     4  10  20  34  53  76 102 132 168 210 253 301
#     4   9  17  30  49  73  98 127 170 216 250 289
#     4   9  17  31  52  75  98 129 170 210 248 295
#     4  10  21  37  57  80 106 137 173 212 254 302
#     4  10  21  36  54  77 105 137 172 211 256 304
#     4  10  19  31  50  74 100 131 166 207 253 300
#
# _framework density 18.981639999999999
#
# number of rings (size 3 to 8) (size 9 to 14) (size 15 to 20)
#    0.000    2.273    0.000    3.000    0.000    8.364 
#    0.000    1.818    0.000    5.455    0.000    0.000 
#    0.000    0.000    0.000    0.000    0.000    0.000 
#
# Total GULP energy -545745.053235 kJ/mol
# GULP energy per Si atom -12403.296664 kJ/mol
# Density = 1.893844 g / cm^3
# Si number density = 18.981640 Si / 1000 Ang^3
#
#
#
# Elastic Constant Matrix: (Units=GPa)
#
#
# Indices 1 2 3 4 5 6 
#
# 1 177.4206 40.4465 87.4434 0.0000 0.0000 0.0000
# 2 40.4465 37.8006 40.0745 0.0000 0.0000 0.0000
# 3 87.4434 40.0745 148.0660 0.0000 0.0000 0.0000
# 4 0.0000 0.0000 0.0000 12.4411 0.0000 0.0000
# 5 0.0000 0.0000 0.0000 0.0000 41.1898 0.0000
# 6 0.0000 0.0000 0.0000 0.0000 0.0000 33.6935
#
#
#
# Elastic Compliance Matrix: (Units=1/GPa)
#
#
# Indices 1 2 3 4 5 6 
#
# 1 0.008671 -0.005398 -0.003660 0.000000 0.000000 0.000000
# 2 -0.005398 0.040460 -0.007763 0.000000 0.000000 0.000000
# 3 -0.003660 -0.007763 0.011016 0.000000 0.000000 0.000000
# 4 0.000000 0.000000 0.000000 0.080378 0.000000 0.000000
# 5 0.000000 0.000000 0.000000 0.000000 0.024278 0.000000
# 6 0.000000 0.000000 0.000000 0.000000 0.000000 0.029679
#
#
# Mechanical properties :
#
#
# Convention : Reuss Voigt Hill
#
# Bulk Modulus (GPa) = 37.72708 77.69064 57.70886
# Shear Modulus (GPa) = 21.10078 30.48641 25.79359
#
# Velocity S-wave (km/s) = 3.33775 4.01197 3.69029
# Velocity P-wave (km/s) = 5.89684 7.90439 6.97324
#
# Compressibility (1/GPa) = 0.02650616
#
# Stress axis : x y z
#
# Youngs Moduli (GPa) = 115.33339 24.71578 90.77626
#
# Poissons Ratio (x) = 0.13341 0.33221
# Poissons Ratio (y) = 0.62252 0.70469
# Poissons Ratio (z) = 0.42208 0.19187
#
# Static dielectric constant tensor:
#      x y z
#    x 3.555060 0.000000 0.000000 
#    y 0.000000 3.135990 0.000000 
#    z 0.000000 0.000000 3.723010 
# 
# 
# High freq. dielectric constant tensor:
#      x y z
#    x 1.750720 0.000000 0.000000 
#    y 0.000000 1.700410 0.000000 
#    z 0.000000 0.000000 1.755410 
# 
# From -- ./inp_files/76712.got.cif
#   From: 2010.03.12/outbox.cif.g09.slc.cpg/sg65_39_cif.got.tgz:76712.got - 2010.04.10 20:52:16.
