data_PCOD8268513
_publ_section_title
;
Structure prediction by ZEFSAII (Michael W. Deem and Ramdas Pophale) SiO2 
 PCOD8268513
Probable space group: C M M M
;
_chemical_formula_sum "Si O2"
_cell_formula_units_Z 128
_cell_length_a 18.050651
_cell_length_b 18.605845
_cell_length_c 22.380088
_cell_angle_alpha 90.000000
_cell_angle_beta 90.000000
_cell_angle_gamma 90.000000
_cell_volume 7516.299171
_symmetry_space_group_name_H-M "C M M M"
_symmetry_group_IT_number 65
_symmetry_cell_setting 'orthorhombic'
loop_
_space_group_symop_operation_xyz
x,y,z
-x,-y,z
x,-y,-z
-x,y,-z
-x,-y,-z
x,y,-z
-x,y,z
x,-y,z
1/2+x,1/2+y,z
1/2-x,1/2-y,z
1/2+x,1/2-y,-z
1/2-x,1/2+y,-z
1/2-x,1/2-y,-z
1/2+x,1/2+y,-z
1/2-x,1/2+y,z
1/2+x,1/2-y,z
loop_
_atom_site_type_symbol
_atom_site_label
_atom_site_fract_x
_atom_site_fract_y
_atom_site_fract_z
Si Si1 0.411529 0.229150 0.566462
Si Si2 0.412756 0.302769 0.683984
Si Si3 0.269918 0.668769 0.068525
Si Si4 0.917364 0.171086 0.868500
Si Si5 0.415540 0.195142 0.213182
Si Si6 0.355413 0.417814 0.235354
Si Si7 0.417766 0.075532 0.429304
Si Si8 0.201151 0.417056 0.172873
O O1 0.382664 0.251368 0.500000
O O2 0.500000 0.221688 0.564930
O O3 0.387417 0.287289 0.615781
O O4 0.378195 0.151053 0.587774
O O5 0.500000 0.317751 0.689059
O O6 0.391279 0.235261 0.725929
O O7 0.368756 0.373850 0.703721
O O8 0.250000 0.750000 0.085725
O O9 0.357519 0.656659 0.079826
O O10 0.220854 0.615158 0.108079
O O11 0.251819 0.651374 0.000000
O O12 0.904855 0.250490 0.841997
O O13 0.909003 0.112883 0.815910
O O14 0.000000 0.163735 0.895602
O O15 0.500000 0.168881 0.217679
O O16 0.366439 0.124796 0.203132
O O17 0.376461 0.500000 0.247025
O O18 0.270496 0.408360 0.216690
O O19 0.424741 0.076194 0.500000
O O20 0.500000 0.074146 0.401060
O O21 0.377218 0.000000 0.408878
O O22 0.178597 0.500000 0.164419
#
# Coordination Sequence:
#
# PCOD8268513 Si02
#       8
#    16  16  16  16  16  16  16  16
#     4   8  13  22  36  57  88 124 159 192 230 280
#     4   9  17  27  43  68  96 126 158 197 243 286
#     4  10  19  32  51  73  97 130 168 200 232 274
#     4   9  17  29  48  72  98 127 158 198 246 292
#     4   9  17  31  49  71  97 123 155 192 238 291
#     4   9  18  30  47  70  92 119 161 207 247 290
#     4   7   9  14  26  44  67 100 142 182 218 259
#     4  10  20  34  52  73  96 125 160 197 241 289
#
# _framework density 17.029658000000001
#
# number of rings (size 3 to 8) (size 9 to 14) (size 15 to 20)
#    0.000    3.125    1.250    2.250    0.000    1.750 
#    0.000    0.625    0.000    3.000    0.000    7.875 
#    0.000    1.000    0.000    0.000    0.000    0.000 
#
# Total GULP energy -793002.321844 kJ/mol
# GULP energy per Si atom -12390.661279 kJ/mol
# Density = 1.699090 g / cm^3
# Si number density = 17.029658 Si / 1000 Ang^3
#
#
#
# Elastic Constant Matrix: (Units=GPa)
#
#
# Indices 1 2 3 4 5 6 
#
# 1 54.1394 40.3281 22.4791 0.0000 0.0000 0.0000
# 2 40.3281 137.4001 57.5362 0.0000 0.0000 0.0000
# 3 22.4791 57.5362 76.8955 0.0000 0.0000 0.0000
# 4 0.0000 0.0000 0.0000 20.5882 0.0000 0.0000
# 5 0.0000 0.0000 0.0000 0.0000 11.9825 0.0000
# 6 0.0000 0.0000 0.0000 0.0000 0.0000 23.8406
#
#
#
# Elastic Compliance Matrix: (Units=1/GPa)
#
#
# Indices 1 2 3 4 5 6 
#
# 1 0.023975 -0.005974 -0.002539 0.000000 0.000000 0.000000
# 2 -0.005974 0.012087 -0.007298 0.000000 0.000000 0.000000
# 3 -0.002539 -0.007298 0.019207 0.000000 0.000000 0.000000
# 4 0.000000 0.000000 0.000000 0.048572 0.000000 0.000000
# 5 0.000000 0.000000 0.000000 0.000000 0.083455 0.000000
# 6 0.000000 0.000000 0.000000 0.000000 0.000000 0.041945
#
#
# Mechanical properties :
#
#
# Convention : Reuss Voigt Hill
#
# Bulk Modulus (GPa) = 42.28578 56.56909 49.42744
# Shear Modulus (GPa) = 18.60500 21.15505 19.88002
#
# Velocity S-wave (km/s) = 3.30889 3.52838 3.42040
# Velocity P-wave (km/s) = 6.28355 7.06324 6.68477
#
# Compressibility (1/GPa) = 0.02364861
#
# Stress axis : x y z
#
# Youngs Moduli (GPa) = 41.71062 82.73137 52.06319
#
# Poissons Ratio (x) = 0.49421 0.13218
# Poissons Ratio (y) = 0.24916 0.37995
# Poissons Ratio (z) = 0.10590 0.60377
#
# Static dielectric constant tensor:
#      x y z
#    x 2.893760 0.000000 0.000000 
#    y 0.000000 3.390160 0.000000 
#    z 0.000000 0.000000 3.039910 
# 
# 
# High freq. dielectric constant tensor:
#      x y z
#    x 1.623820 0.000000 0.000000 
#    y 0.000000 1.656350 0.000000 
#    z 0.000000 0.000000 1.635890 
# 
# From -- ./inp_files/70683.got.cif
#   From: 2010.03.12/outbox.cif.g09.slc.cpg/sg65_36_cif.got.tgz:70683.got - 2010.04.10 20:52:16.
