data_PCOD8268365
_publ_section_title
;
Structure prediction by ZEFSAII (Michael W. Deem and Ramdas Pophale) SiO2 
 PCOD8268365
Probable space group: C M M M
;
_chemical_formula_sum "Si O2"
_cell_formula_units_Z 104
_cell_length_a 8.963953
_cell_length_b 26.881649
_cell_length_c 26.727442
_cell_angle_alpha 90.000000
_cell_angle_beta 90.000000
_cell_angle_gamma 90.000000
_cell_volume 6440.400464
_symmetry_space_group_name_H-M "C M M M"
_symmetry_group_IT_number 65
_symmetry_cell_setting 'orthorhombic'
loop_
_space_group_symop_operation_xyz
x,y,z
-x,-y,z
x,-y,-z
-x,y,-z
-x,-y,-z
x,y,-z
-x,y,z
x,-y,z
1/2+x,1/2+y,z
1/2-x,1/2-y,z
1/2+x,1/2-y,-z
1/2-x,1/2+y,-z
1/2-x,1/2-y,-z
1/2+x,1/2+y,-z
1/2-x,1/2+y,z
1/2+x,1/2-y,z
loop_
_atom_site_type_symbol
_atom_site_label
_atom_site_fract_x
_atom_site_fract_y
_atom_site_fract_z
Si Si1 0.175924 0.700319 0.191867
Si Si2 0.676760 0.346882 0.902567
Si Si3 0.171993 0.055298 0.846908
Si Si4 0.321514 0.804323 0.000000
Si Si5 0.330890 0.559084 0.554384
Si Si6 0.173634 0.399767 0.754662
Si Si7 0.824487 0.443032 0.652183
O O1 0.250000 0.750000 0.214365
O O2 0.260974 0.689057 0.140314
O O3 0.208454 0.657434 0.232307
O O4 0.000000 0.706635 0.181692
O O5 0.500000 0.337918 0.909479
O O6 0.715493 0.404156 0.888870
O O7 0.765495 0.335052 0.952572
O O8 0.257816 0.063514 0.795408
O O9 0.000000 0.061359 0.833320
O O10 0.208601 0.000000 0.867659
O O11 0.250000 0.750000 0.000000
O O12 0.500000 0.799970 0.000000
O O13 0.269764 0.577831 0.500000
O O14 0.500000 0.576897 0.560775
O O15 0.319646 0.500000 0.555471
O O16 0.238458 0.581130 0.600955
O O17 0.238107 0.412069 0.699636
O O18 0.000000 0.411268 0.755544
O O19 0.771923 0.500000 0.658660
O O20 0.000000 0.439111 0.648567
#
# Coordination Sequence:
#
# PCOD8268365 Si02
#       7
#    16  16  16   8  16  16  16
#     4  10  19  32  49  68  91 118 147 179 219 264
#     4  10  20  35  53  73  96 120 148 180 216 259
#     4   9  18  32  50  71  94 121 152 183 214 252
#     4  12  24  38  55  74  95 117 146 183 225 268
#     4   8  14  24  36  51  75 109 146 180 214 252
#     4   9  18  30  44  64  90 119 149 182 219 261
#     4   9  16  25  38  58  84 113 145 179 213 250
#
# _framework density 16.148064000000002
#
# number of rings (size 3 to 8) (size 9 to 14) (size 15 to 20)
#    0.000    2.615    0.000    3.000    0.000    3.077 
#    0.000    3.462    0.000    2.308    0.000    0.000 
#    0.000    0.615    0.000    1.385    0.000    2.462 
#
# Total GULP energy -644600.987062 kJ/mol
# GULP energy per Si atom -12396.172828 kJ/mol
# Density = 1.611131 g / cm^3
# Si number density = 16.148064 Si / 1000 Ang^3
#
#
#
# Elastic Constant Matrix: (Units=GPa)
#
#
# Indices 1 2 3 4 5 6 
#
# 1 63.2936 36.4220 50.9382 0.0000 0.0000 0.0000
# 2 36.4220 88.5488 53.8255 0.0000 0.0000 0.0000
# 3 50.9382 53.8255 149.8335 0.0000 0.0000 0.0000
# 4 0.0000 0.0000 0.0000 16.4599 0.0000 0.0000
# 5 0.0000 0.0000 0.0000 0.0000 26.8556 0.0000
# 6 0.0000 0.0000 0.0000 0.0000 0.0000 19.2901
#
#
#
# Elastic Compliance Matrix: (Units=1/GPa)
#
#
# Indices 1 2 3 4 5 6 
#
# 1 0.024254 -0.006351 -0.005964 0.000000 0.000000 0.000000
# 2 -0.006351 0.016111 -0.003629 0.000000 0.000000 0.000000
# 3 -0.005964 -0.003629 0.010005 0.000000 0.000000 0.000000
# 4 0.000000 0.000000 0.000000 0.060754 0.000000 0.000000
# 5 0.000000 0.000000 0.000000 0.000000 0.037236 0.000000
# 6 0.000000 0.000000 0.000000 0.000000 0.000000 0.051840
#
#
# Mechanical properties :
#
#
# Convention : Reuss Voigt Hill
#
# Bulk Modulus (GPa) = 54.10325 64.89413 59.49869
# Shear Modulus (GPa) = 20.98657 23.22048 22.10352
#
# Velocity S-wave (km/s) = 3.60895 3.79618 3.70375
# Velocity P-wave (km/s) = 7.13746 7.71290 7.43075
#
# Compressibility (1/GPa) = 0.01848318
#
# Stress axis : x y z
#
# Youngs Moduli (GPa) = 41.23083 62.06888 99.94827
#
# Poissons Ratio (x) = 0.39418 0.59609
# Poissons Ratio (y) = 0.26185 0.36268
# Poissons Ratio (z) = 0.24590 0.22523
#
# Static dielectric constant tensor:
#      x y z
#    x 3.111390 0.000000 0.000000 
#    y 0.000000 3.030560 0.000000 
#    z 0.000000 0.000000 3.329180 
# 
# 
# High freq. dielectric constant tensor:
#      x y z
#    x 1.625700 0.000000 0.000000 
#    y 0.000000 1.594660 0.000000 
#    z 0.000000 0.000000 1.618120 
# 
# From -- ./inp_files/73779.got.cif
#   From: 2010.03.12/outbox.cif.g09.slc.cpg/sg65_37_cif.got.tgz:73779.got - 2010.04.10 20:52:16.
