data_PCOD8268976
_publ_section_title
;
Structure prediction by ZEFSAII (Michael W. Deem and Ramdas Pophale) SiO2 
 PCOD8268976
Probable space group: C M M M
;
_chemical_formula_sum "Si O2"
_cell_formula_units_Z 96
_cell_length_a 24.348746
_cell_length_b 17.834163
_cell_length_c 12.882030
_cell_angle_alpha 90.000000
_cell_angle_beta 90.000000
_cell_angle_gamma 90.000000
_cell_volume 5593.886331
_symmetry_space_group_name_H-M "C M M M"
_symmetry_group_IT_number 65
_symmetry_cell_setting 'orthorhombic'
loop_
_space_group_symop_operation_xyz
x,y,z
-x,-y,z
x,-y,-z
-x,y,-z
-x,-y,-z
x,y,-z
-x,y,z
x,-y,z
1/2+x,1/2+y,z
1/2-x,1/2-y,z
1/2+x,1/2-y,-z
1/2-x,1/2+y,-z
1/2-x,1/2-y,-z
1/2+x,1/2+y,-z
1/2-x,1/2+y,z
1/2+x,1/2-y,z
loop_
_atom_site_type_symbol
_atom_site_label
_atom_site_fract_x
_atom_site_fract_y
_atom_site_fract_z
Si Si1 0.803606 0.205097 0.718304
Si Si2 0.369891 0.154218 0.311467
Si Si3 0.439044 0.500000 0.876203
Si Si4 0.063305 0.305313 0.882326
Si Si5 0.934850 0.412881 0.500000
Si Si6 0.763891 0.583924 0.381775
Si Si7 0.382913 0.350190 0.881771
O O1 0.750000 0.250000 0.754415
O O2 0.848359 0.260844 0.665867
O O3 0.786688 0.140245 0.637635
O O4 0.827345 0.167420 0.821118
O O5 0.398831 0.149119 0.198672
O O6 0.412829 0.129225 0.398394
O O7 0.316749 0.100274 0.309780
O O8 0.500000 0.500000 0.829235
O O9 0.408844 0.425787 0.834778
O O10 0.441609 0.500000 0.000000
O O11 0.072825 0.216357 0.870618
O O12 0.000000 0.322400 0.857332
O O13 0.078134 0.330931 0.000000
O O14 0.915992 0.500000 0.500000
O O15 0.000000 0.406380 0.500000
O O16 0.783859 0.594026 0.500000
O O17 0.742933 0.500000 0.359643
O O18 0.365206 0.362473 0.000000
#
# Coordination Sequence:
#
# PCOD8268976 Si02
#       7
#    16  16   8  16   8  16  16
#     4   9  20  32  49  75  98 130 169 213 253 305
#     4  10  19  33  53  76 103 131 167 213 259 300
#     4   9  16  26  44  70  99 133 171 211 254 299
#     4   9  17  31  51  74 102 136 173 208 245 299
#     4  11  22  34  53  80 107 133 164 209 263 309
#     4  10  20  34  53  73  97 131 169 210 258 311
#     4   9  17  29  46  70 102 135 168 208 253 299
#
# _framework density 17.161591999999999
#
# number of rings (size 3 to 8) (size 9 to 14) (size 15 to 20)
#    0.000    2.500    0.833    1.500    2.333    3.333 
#    0.000    2.500    0.000    3.000    0.000    5.833 
#    0.000    1.333    0.000    0.000    0.000    0.000 
#
# Total GULP energy -595091.049320 kJ/mol
# GULP energy per Si atom -12397.730194 kJ/mol
# Density = 1.712253 g / cm^3
# Si number density = 17.161592 Si / 1000 Ang^3
#
#
#
# Elastic Constant Matrix: (Units=GPa)
#
#
# Indices 1 2 3 4 5 6 
#
# 1 94.4529 55.5982 54.4698 0.0000 0.0000 0.0000
# 2 55.5982 104.4153 56.0293 0.0000 0.0000 0.0000
# 3 54.4698 56.0293 95.1121 0.0000 0.0000 0.0000
# 4 0.0000 0.0000 0.0000 19.7037 0.0000 0.0000
# 5 0.0000 0.0000 0.0000 0.0000 28.7793 0.0000
# 6 0.0000 0.0000 0.0000 0.0000 0.0000 20.6393
#
#
#
# Elastic Compliance Matrix: (Units=1/GPa)
#
#
# Indices 1 2 3 4 5 6 
#
# 1 0.018012 -0.005930 -0.006822 0.000000 0.000000 0.000000
# 2 -0.005930 0.015956 -0.006003 0.000000 0.000000 0.000000
# 3 -0.006822 -0.006003 0.017957 0.000000 0.000000 0.000000
# 4 0.000000 0.000000 0.000000 0.050752 0.000000 0.000000
# 5 0.000000 0.000000 0.000000 0.000000 0.034747 0.000000
# 6 0.000000 0.000000 0.000000 0.000000 0.000000 0.048451
#
#
# Mechanical properties :
#
#
# Convention : Reuss Voigt Hill
#
# Bulk Modulus (GPa) = 69.37480 69.57498 69.47489
# Shear Modulus (GPa) = 21.91135 22.35000 22.13067
#
# Velocity S-wave (km/s) = 3.57706 3.61269 3.59492
# Velocity P-wave (km/s) = 7.58767 7.61782 7.60276
#
# Compressibility (1/GPa) = 0.01441446
#
# Stress axis : x y z
#
# Youngs Moduli (GPa) = 55.51791 62.67118 55.68775
#
# Poissons Ratio (x) = 0.37166 0.37990
# Poissons Ratio (y) = 0.32924 0.33432
# Poissons Ratio (z) = 0.37874 0.37624
#
# Static dielectric constant tensor:
#      x y z
#    x 3.199010 0.000000 0.000000 
#    y 0.000000 3.318260 0.000000 
#    z 0.000000 0.000000 3.104220 
# 
# 
# High freq. dielectric constant tensor:
#      x y z
#    x 1.662810 0.000000 0.000000 
#    y 0.000000 1.662800 0.000000 
#    z 0.000000 0.000000 1.642750 
# 
# From -- ./inp_files/32465.got.cif
#   From: 2010.03.12/outbox.cif.g09.slc.cpg/sg65_17_cif.got.tgz:32465.got - 2010.04.10 20:52:16.
