data_PCOD8268174
_publ_section_title
;
Structure prediction by ZEFSAII (Michael W. Deem and Ramdas Pophale) SiO2 
 PCOD8268174
Probable space group: C M M M
;
_chemical_formula_sum "Si O2"
_cell_formula_units_Z 64
_cell_length_a 35.892510
_cell_length_b 10.374289
_cell_length_c 9.010623
_cell_angle_alpha 90.000000
_cell_angle_beta 90.000000
_cell_angle_gamma 90.000000
_cell_volume 3355.189018
_symmetry_space_group_name_H-M "C M M M"
_symmetry_group_IT_number 65
_symmetry_cell_setting 'orthorhombic'
loop_
_space_group_symop_operation_xyz
x,y,z
-x,-y,z
x,-y,-z
-x,y,-z
-x,-y,-z
x,y,-z
-x,y,z
x,-y,z
1/2+x,1/2+y,z
1/2-x,1/2-y,z
1/2+x,1/2-y,-z
1/2-x,1/2+y,-z
1/2-x,1/2-y,-z
1/2+x,1/2+y,-z
1/2-x,1/2+y,z
1/2+x,1/2-y,z
loop_
_atom_site_type_symbol
_atom_site_label
_atom_site_fract_x
_atom_site_fract_y
_atom_site_fract_z
Si Si1 0.334857 0.500000 0.323281
Si Si2 0.792017 0.750266 0.676907
Si Si3 0.080647 0.000000 0.675976
Si Si4 0.543253 0.740945 0.172212
Si Si5 0.914123 0.500000 0.826994
Si Si6 0.164908 0.500000 0.323720
O O1 0.334312 0.500000 0.500000
O O2 0.313636 0.625264 0.260946
O O3 0.377040 0.500000 0.263895
O O4 0.791343 0.751566 0.500000
O O5 0.750000 0.750000 0.739398
O O6 0.813298 0.624627 0.736653
O O7 0.060290 0.873051 0.732010
O O8 0.079666 0.000000 0.500000
O O9 0.500000 0.753892 0.210348
O O10 0.562340 0.874723 0.217769
O O11 0.549572 0.708789 0.000000
O O12 0.876612 0.500000 0.734870
O O13 0.904426 0.500000 0.000000
O O14 0.163369 0.500000 0.500000
#
# Coordination Sequence:
#
# PCOD8268174 Si02
#       6
#     8  16   8  16   8   8
#     4   9  17  28  42  65  99 132 160 198 248 298
#     4   9  16  27  45  70  99 131 168 208 249 296
#     4  11  22  35  53  80 113 142 169 210 267 322
#     4  10  21  38  58  78 102 136 179 222 261 308
#     4  10  21  37  57  79 104 137 177 220 267 317
#     4  10  19  31  50  76 104 133 168 214 264 309
#
# _framework density 19.074930999999999
#
# number of rings (size 3 to 8) (size 9 to 14) (size 15 to 20)
#    0.000    2.250    0.000    3.375    0.000    9.500 
#    0.000    0.000    0.000    3.000    0.000    3.500 
#    0.000    0.000    0.000    0.000    0.000    0.000 
#
# Total GULP energy -396875.361055 kJ/mol
# GULP energy per Si atom -12402.355033 kJ/mol
# Density = 1.903152 g / cm^3
# Si number density = 19.074931 Si / 1000 Ang^3
#
#
#
# Elastic Constant Matrix: (Units=GPa)
#
#
# Indices 1 2 3 4 5 6 
#
# 1 189.0257 99.9569 37.7848 0.0000 0.0000 0.0000
# 2 99.9569 199.1296 37.9014 0.0000 0.0000 0.0000
# 3 37.7848 37.9014 28.9008 0.0000 0.0000 0.0000
# 4 0.0000 0.0000 0.0000 35.1285 0.0000 0.0000
# 5 0.0000 0.0000 0.0000 0.0000 10.2680 0.0000
# 6 0.0000 0.0000 0.0000 0.0000 0.0000 47.1243
#
#
#
# Elastic Compliance Matrix: (Units=1/GPa)
#
#
# Indices 1 2 3 4 5 6 
#
# 1 0.008155 -0.002751 -0.007054 0.000000 0.000000 0.000000
# 2 -0.002751 0.007620 -0.006397 0.000000 0.000000 0.000000
# 3 -0.007054 -0.006397 0.052213 0.000000 0.000000 0.000000
# 4 0.000000 0.000000 0.000000 0.028467 0.000000 0.000000
# 5 0.000000 0.000000 0.000000 0.000000 0.097390 0.000000
# 6 0.000000 0.000000 0.000000 0.000000 0.000000 0.021220
#
#
# Mechanical properties :
#
#
# Convention : Reuss Voigt Hill
#
# Bulk Modulus (GPa) = 28.10250 85.37137 56.73694
# Shear Modulus (GPa) = 19.28039 34.59837 26.93938
#
# Velocity S-wave (km/s) = 3.18271 4.26351 3.76212
# Velocity P-wave (km/s) = 5.31704 8.31202 6.97712
#
# Compressibility (1/GPa) = 0.03558402
#
# Stress axis : x y z
#
# Youngs Moduli (GPa) = 122.62321 131.22852 19.15237
#
# Poissons Ratio (x) = 0.36100 0.13511
# Poissons Ratio (y) = 0.33733 0.12252
# Poissons Ratio (z) = 0.86501 0.83946
#
# Static dielectric constant tensor:
#      x y z
#    x 3.700330 0.000000 0.000000 
#    y 0.000000 3.763540 0.000000 
#    z 0.000000 0.000000 3.015560 
# 
# 
# High freq. dielectric constant tensor:
#      x y z
#    x 1.762200 0.000000 0.000000 
#    y 0.000000 1.763880 0.000000 
#    z 0.000000 0.000000 1.691430 
# 
# From -- ./inp_files/17859.got.cif
#   From: 2010.03.12/outbox.cif.g09.slc.cpg/sg65_9_cif.got.tgz:17859.got - 2010.04.10 20:52:16.
