data_PCOD8268951
_publ_section_title
;
Structure prediction by ZEFSAII (Michael W. Deem and Ramdas Pophale) SiO2 
 PCOD8268951
Probable space group: C M M M
;
_chemical_formula_sum "Si O2"
_cell_formula_units_Z 88
_cell_length_a 18.554494
_cell_length_b 8.746872
_cell_length_c 28.412382
_cell_angle_alpha 90.000000
_cell_angle_beta 90.000000
_cell_angle_gamma 90.000000
_cell_volume 4611.152988
_symmetry_space_group_name_H-M "C M M M"
_symmetry_group_IT_number 65
_symmetry_cell_setting 'orthorhombic'
loop_
_space_group_symop_operation_xyz
x,y,z
-x,-y,z
x,-y,-z
-x,y,-z
-x,-y,-z
x,y,-z
-x,y,z
x,-y,z
1/2+x,1/2+y,z
1/2-x,1/2-y,z
1/2+x,1/2-y,-z
1/2-x,1/2+y,-z
1/2-x,1/2-y,-z
1/2+x,1/2+y,-z
1/2-x,1/2+y,z
1/2+x,1/2-y,z
loop_
_atom_site_type_symbol
_atom_site_label
_atom_site_fract_x
_atom_site_fract_y
_atom_site_fract_z
Si Si1 0.170894 0.818146 0.000000
Si Si2 0.173367 0.320267 0.724537
Si Si3 0.414581 0.327416 0.355252
Si Si4 0.919210 0.818525 0.088989
Si Si5 0.085640 0.672066 0.551507
Si Si6 0.327381 0.318403 0.177363
O O1 0.250000 0.750000 0.000000
O O2 0.128115 0.756771 0.045599
O O3 0.176663 0.000000 0.000000
O O4 0.181615 0.500000 0.731563
O O5 0.250000 0.250000 0.710266
O O6 0.116733 0.285224 0.683772
O O7 0.144723 0.246351 0.772955
O O8 0.500000 0.311802 0.353389
O O9 0.389262 0.500000 0.345211
O O10 0.384754 0.279638 0.406820
O O11 0.883529 0.764543 0.137748
O O12 0.000000 0.750507 0.085919
O O13 0.922443 0.000000 0.086646
O O14 0.112580 0.730708 0.500000
O O15 0.113691 0.500000 0.560190
O O16 0.000000 0.673432 0.552082
O O17 0.321095 0.500000 0.180381
O O18 0.250000 0.250000 0.164233
#
# Coordination Sequence:
#
# PCOD8268951 Si02
#       6
#     8  16  16  16  16  16
#     4  10  19  33  55  79 105 138 176 214 252 300
#     4  11  22  37  56  76 102 136 175 216 261 315
#     4  10  20  33  51  77 107 137 172 215 261 310
#     4   9  18  32  52  78 105 135 172 213 255 300
#     4   8  14  26  45  70 101 136 173 213 257 305
#     4  10  19  33  53  75 100 131 169 211 255 306
#
# _framework density 19.084164000000001
#
# number of rings (size 3 to 8) (size 9 to 14) (size 15 to 20)
#    0.000    2.364    0.000    5.182    0.000    3.273 
#    0.000    4.545    0.000    5.455    0.000    0.000 
#    0.000    0.000    0.000    0.000    0.000    0.000 
#
# Total GULP energy -545547.931787 kJ/mol
# GULP energy per Si atom -12398.816632 kJ/mol
# Density = 1.904073 g / cm^3
# Si number density = 19.084164 Si / 1000 Ang^3
#
#
#
# Elastic Constant Matrix: (Units=GPa)
#
#
# Indices 1 2 3 4 5 6 
#
# 1 86.5650 27.7400 70.3213 0.0000 0.0000 0.0000
# 2 27.7400 82.8336 44.9849 0.0000 0.0000 0.0000
# 3 70.3213 44.9849 162.5165 0.0000 0.0000 0.0000
# 4 0.0000 0.0000 0.0000 24.8055 0.0000 0.0000
# 5 0.0000 0.0000 0.0000 0.0000 19.7808 0.0000
# 6 0.0000 0.0000 0.0000 0.0000 0.0000 24.6687
#
#
#
# Elastic Compliance Matrix: (Units=1/GPa)
#
#
# Indices 1 2 3 4 5 6 
#
# 1 0.018128 -0.002131 -0.007254 0.000000 0.000000 0.000000
# 2 -0.002131 0.014459 -0.003080 0.000000 0.000000 0.000000
# 3 -0.007254 -0.003080 0.010145 0.000000 0.000000 0.000000
# 4 0.000000 0.000000 0.000000 0.040314 0.000000 0.000000
# 5 0.000000 0.000000 0.000000 0.000000 0.050554 0.000000
# 6 0.000000 0.000000 0.000000 0.000000 0.000000 0.040537
#
#
# Mechanical properties :
#
#
# Convention : Reuss Voigt Hill
#
# Bulk Modulus (GPa) = 56.17794 68.66748 62.42271
# Shear Modulus (GPa) = 24.39022 26.44227 25.41624
#
# Velocity S-wave (km/s) = 3.57884 3.72635 3.65334
# Velocity P-wave (km/s) = 6.82483 7.38741 7.11168
#
# Compressibility (1/GPa) = 0.01780058
#
# Stress axis : x y z
#
# Youngs Moduli (GPa) = 55.16389 69.16197 98.57470
#
# Poissons Ratio (x) = 0.14741 0.71506
# Poissons Ratio (y) = 0.11757 0.30361
# Poissons Ratio (z) = 0.40016 0.21302
#
# Static dielectric constant tensor:
#      x y z
#    x 3.276440 0.000000 0.000000 
#    y 0.000000 3.401280 0.000000 
#    z 0.000000 0.000000 3.845570 
# 
# 
# High freq. dielectric constant tensor:
#      x y z
#    x 1.716360 0.000000 0.000000 
#    y 0.000000 1.729000 0.000000 
#    z 0.000000 0.000000 1.761430 
# 
# From -- ./inp_files/77939.got.cif
#   From: 2010.03.12/outbox.cif.g09.slc.cpg/sg65_39_cif.got.tgz:77939.got - 2010.04.10 20:52:16.
