data_PCOD8268809
_publ_section_title
;
Structure prediction by ZEFSAII (Michael W. Deem and Ramdas Pophale) SiO2 
 PCOD8268809
Probable space group: C M M M
;
_chemical_formula_sum "Si O2"
_cell_formula_units_Z 72
_cell_length_a 8.988555
_cell_length_b 15.587801
_cell_length_c 26.361539
_cell_angle_alpha 90.000000
_cell_angle_beta 90.000000
_cell_angle_gamma 90.000000
_cell_volume 3693.562855
_symmetry_space_group_name_H-M "C M M M"
_symmetry_group_IT_number 65
_symmetry_cell_setting 'orthorhombic'
loop_
_space_group_symop_operation_xyz
x,y,z
-x,-y,z
x,-y,-z
-x,y,-z
-x,-y,-z
x,y,-z
-x,y,z
x,-y,z
1/2+x,1/2+y,z
1/2-x,1/2-y,z
1/2+x,1/2-y,-z
1/2-x,1/2+y,-z
1/2-x,1/2-y,-z
1/2+x,1/2+y,-z
1/2-x,1/2+y,z
1/2+x,1/2-y,z
loop_
_atom_site_type_symbol
_atom_site_label
_atom_site_fract_x
_atom_site_fract_y
_atom_site_fract_z
Si Si1 0.323434 0.596041 0.000000
Si Si2 0.176535 0.162675 0.892604
Si Si3 0.328826 0.900022 0.442648
Si Si4 0.175659 0.164203 0.346966
Si Si5 0.823104 0.000000 0.170972
Si Si6 0.676938 0.500000 0.285209
O O1 0.268095 0.645730 0.950070
O O2 0.256559 0.500000 0.000000
O O3 0.500000 0.589286 0.000000
O O4 0.250000 0.250000 0.872456
O O5 0.234667 0.084876 0.857618
O O6 0.000000 0.171294 0.889555
O O7 0.294616 0.870312 0.500000
O O8 0.500000 0.881319 0.428704
O O9 0.222771 0.847120 0.405457
O O10 0.292951 0.000000 0.436725
O O11 0.250000 0.250000 0.324506
O O12 0.000000 0.173061 0.343480
O O13 0.236056 0.084354 0.314010
O O14 0.759924 0.000000 0.228090
O O15 0.000000 0.000000 0.170586
O O16 0.500000 0.500000 0.285161
#
# Coordination Sequence:
#
# PCOD8268809 Si02
#       6
#     8  16  16  16   8   8
#     4   9  15  28  51  78 105 140 185 217 250 316
#     4  10  19  32  54  80 108 141 178 220 266 317
#     4   9  18  34  57  84 113 143 175 216 266 319
#     4  11  22  37  57  82 109 142 181 223 268 320
#     4   9  18  35  57  77 101 142 183 220 267 322
#     4   9  20  38  57  78 106 137 181 230 271 316
#
# _framework density 19.493373999999999
#
# number of rings (size 3 to 8) (size 9 to 14) (size 15 to 20)
#    0.000    2.333    2.222    1.667    0.000    1.778 
#    0.000    1.667    0.000    4.667    0.000    0.000 
#    0.000    0.000    0.000    0.000    0.000    0.000 
#
# Total GULP energy -446432.607666 kJ/mol
# GULP energy per Si atom -12400.905768 kJ/mol
# Density = 1.944901 g / cm^3
# Si number density = 19.493374 Si / 1000 Ang^3
#
#
#
# Elastic Constant Matrix: (Units=GPa)
#
#
# Indices 1 2 3 4 5 6 
#
# 1 41.8913 38.9695 27.2811 0.0000 0.0000 0.0000
# 2 38.9695 172.6831 74.4756 0.0000 0.0000 0.0000
# 3 27.2811 74.4756 136.5536 0.0000 0.0000 0.0000
# 4 0.0000 0.0000 0.0000 15.0910 0.0000 0.0000
# 5 0.0000 0.0000 0.0000 0.0000 12.2776 0.0000
# 6 0.0000 0.0000 0.0000 0.0000 0.0000 30.4084
#
#
#
# Elastic Compliance Matrix: (Units=1/GPa)
#
#
# Indices 1 2 3 4 5 6 
#
# 1 0.031205 -0.005692 -0.003130 0.000000 0.000000 0.000000
# 2 -0.005692 0.008610 -0.003559 0.000000 0.000000 0.000000
# 3 -0.003130 -0.003559 0.009889 0.000000 0.000000 0.000000
# 4 0.000000 0.000000 0.000000 0.066265 0.000000 0.000000
# 5 0.000000 0.000000 0.000000 0.000000 0.081449 0.000000
# 6 0.000000 0.000000 0.000000 0.000000 0.000000 0.032886
#
#
# Mechanical properties :
#
#
# Convention : Reuss Voigt Hill
#
# Bulk Modulus (GPa) = 40.09145 70.28670 55.18907
# Shear Modulus (GPa) = 18.98398 25.58217 22.28308
#
# Velocity S-wave (km/s) = 3.12407 3.62657 3.38466
# Velocity P-wave (km/s) = 5.79866 7.32605 6.60664
#
# Compressibility (1/GPa) = 0.02494298
#
# Stress axis : x y z
#
# Youngs Moduli (GPa) = 32.04650 116.13870 101.11863
#
# Poissons Ratio (x) = 0.66108 0.31647
# Poissons Ratio (y) = 0.18241 0.35987
# Poissons Ratio (z) = 0.10030 0.41332
#
# Static dielectric constant tensor:
#      x y z
#    x 3.069720 0.000000 0.000000 
#    y 0.000000 3.670390 0.000000 
#    z 0.000000 0.000000 3.686530 
# 
# 
# High freq. dielectric constant tensor:
#      x y z
#    x 1.716820 0.000000 0.000000 
#    y 0.000000 1.771150 0.000000 
#    z 0.000000 0.000000 1.757790 
# 
# From -- ./inp_files/72620.got.cif
#   From: 2010.03.12/outbox.cif.g09.slc.cpg/sg65_37_cif.got.tgz:72620.got - 2010.04.10 20:52:16.
