data_PCOD8268374
_publ_section_title
;
Structure prediction by ZEFSAII (Michael W. Deem and Ramdas Pophale) SiO2 
 PCOD8268374
Probable space group: C M M M
;
_chemical_formula_sum "Si O2"
_cell_formula_units_Z 104
_cell_length_a 8.962512
_cell_length_b 27.892340
_cell_length_c 24.071092
_cell_angle_alpha 90.000000
_cell_angle_beta 90.000000
_cell_angle_gamma 90.000000
_cell_volume 6017.422331
_symmetry_space_group_name_H-M "C M M M"
_symmetry_group_IT_number 65
_symmetry_cell_setting 'orthorhombic'
loop_
_space_group_symop_operation_xyz
x,y,z
-x,-y,z
x,-y,-z
-x,y,-z
-x,-y,-z
x,y,-z
-x,y,z
x,-y,z
1/2+x,1/2+y,z
1/2-x,1/2-y,z
1/2+x,1/2-y,-z
1/2-x,1/2+y,-z
1/2-x,1/2-y,-z
1/2+x,1/2+y,-z
1/2-x,1/2+y,z
1/2+x,1/2-y,z
loop_
_atom_site_type_symbol
_atom_site_label
_atom_site_fract_x
_atom_site_fract_y
_atom_site_fract_z
Si Si1 0.176920 0.140733 0.847197
Si Si2 0.662488 0.500000 0.435210
Si Si3 0.325431 0.094956 0.560906
Si Si4 0.327998 0.202361 0.757141
Si Si5 0.826382 0.299887 0.935070
Si Si6 0.830451 0.384260 0.321151
Si Si7 0.676437 0.554743 0.769403
O O1 0.234311 0.183749 0.809032
O O2 0.252631 0.152896 0.906367
O O3 0.228486 0.089282 0.820839
O O4 0.000000 0.142404 0.853372
O O5 0.500000 0.500000 0.405279
O O6 0.635687 0.500000 0.500000
O O7 0.757383 0.454557 0.418013
O O8 0.260785 0.112155 0.500000
O O9 0.500000 0.088551 0.553497
O O10 0.284217 0.127290 0.614374
O O11 0.500000 0.210076 0.774422
O O12 0.250000 0.250000 0.735562
O O13 0.311027 0.166769 0.706259
O O14 0.750000 0.250000 0.915619
O O15 0.000000 0.296972 0.919457
O O16 0.800720 0.307824 0.000000
O O17 0.735316 0.424770 0.289211
O O18 0.000000 0.402876 0.318495
O O19 0.500000 0.555541 0.765648
O O20 0.733823 0.500000 0.779233
#
# Coordination Sequence:
#
# PCOD8268374 Si02
#       7
#    16   8  16  16  16  16  16
#     4  10  19  32  51  73  98 128 161 195 234 280
#     4   9  17  27  39  59  85 113 145 179 218 265
#     4   9  17  30  46  63  87 119 153 189 230 279
#     4  10  19  32  49  69  94 121 154 195 237 283
#     4  10  20  33  50  74 104 134 163 196 235 279
#     4   9  19  32  47  69  92 119 156 194 234 282
#     4   9  19  34  50  70  96 126 159 196 238 280
#
# _framework density 17.283148000000001
#
# number of rings (size 3 to 8) (size 9 to 14) (size 15 to 20)
#    0.000    2.538    0.000    2.077    1.077    4.000 
#    0.000    0.000    0.000    0.923    0.000    3.231 
#    0.000    0.000    0.000    0.000    0.000    0.462 
#
# Total GULP energy -644252.300953 kJ/mol
# GULP energy per Si atom -12389.467326 kJ/mol
# Density = 1.724381 g / cm^3
# Si number density = 17.283148 Si / 1000 Ang^3
#
#
#
# Elastic Constant Matrix: (Units=GPa)
#
#
# Indices 1 2 3 4 5 6 
#
# 1 49.8874 32.5804 37.3140 0.0000 0.0000 0.0000
# 2 32.5804 95.5938 49.4556 0.0000 0.0000 0.0000
# 3 37.3140 49.4556 104.1462 0.0000 0.0000 0.0000
# 4 0.0000 0.0000 0.0000 16.9852 0.0000 0.0000
# 5 0.0000 0.0000 0.0000 0.0000 21.0611 0.0000
# 6 0.0000 0.0000 0.0000 0.0000 0.0000 20.5310
#
#
#
# Elastic Compliance Matrix: (Units=1/GPa)
#
#
# Indices 1 2 3 4 5 6 
#
# 1 0.029890 -0.006160 -0.007784 0.000000 0.000000 0.000000
# 2 -0.006160 0.015137 -0.004981 0.000000 0.000000 0.000000
# 3 -0.007784 -0.004981 0.014756 0.000000 0.000000 0.000000
# 4 0.000000 0.000000 0.000000 0.058875 0.000000 0.000000
# 5 0.000000 0.000000 0.000000 0.000000 0.047481 0.000000
# 6 0.000000 0.000000 0.000000 0.000000 0.000000 0.048707
#
#
# Mechanical properties :
#
#
# Convention : Reuss Voigt Hill
#
# Bulk Modulus (GPa) = 45.59283 54.25859 49.92571
# Shear Modulus (GPa) = 19.23016 20.40063 19.81539
#
# Velocity S-wave (km/s) = 3.33926 3.43939 3.38970
# Velocity P-wave (km/s) = 6.42688 6.87274 6.65355
#
# Compressibility (1/GPa) = 0.02193327
#
# Stress axis : x y z
#
# Youngs Moduli (GPa) = 33.45555 66.06114 67.76838
#
# Poissons Ratio (x) = 0.40695 0.52751
# Poissons Ratio (y) = 0.20609 0.33757
# Poissons Ratio (z) = 0.26042 0.32906
#
# Static dielectric constant tensor:
#      x y z
#    x 3.344820 0.000000 0.000000 
#    y 0.000000 3.182880 0.000000 
#    z 0.000000 0.000000 3.471290 
# 
# 
# High freq. dielectric constant tensor:
#      x y z
#    x 1.673050 0.000000 0.000000 
#    y 0.000000 1.642390 0.000000 
#    z 0.000000 0.000000 1.669200 
# 
# From -- ./inp_files/68222.got.cif
#   From: 2010.03.12/outbox.cif.g09.slc.cpg/sg65_35_cif.got.tgz:68222.got - 2010.04.10 20:52:16.
