data_PCOD8268724
_publ_section_title
;
Structure prediction by ZEFSAII (Michael W. Deem and Ramdas Pophale) SiO2 
 PCOD8268724
Probable space group: C M M M
;
_chemical_formula_sum "Si O2"
_cell_formula_units_Z 104
_cell_length_a 8.964623
_cell_length_b 28.906678
_cell_length_c 20.142890
_cell_angle_alpha 90.000000
_cell_angle_beta 90.000000
_cell_angle_gamma 90.000000
_cell_volume 5219.777562
_symmetry_space_group_name_H-M "C M M M"
_symmetry_group_IT_number 65
_symmetry_cell_setting 'orthorhombic'
loop_
_space_group_symop_operation_xyz
x,y,z
-x,-y,z
x,-y,-z
-x,y,-z
-x,-y,-z
x,y,-z
-x,y,z
x,-y,z
1/2+x,1/2+y,z
1/2-x,1/2-y,z
1/2+x,1/2-y,-z
1/2-x,1/2+y,-z
1/2-x,1/2-y,-z
1/2+x,1/2+y,-z
1/2-x,1/2+y,z
1/2+x,1/2-y,z
loop_
_atom_site_type_symbol
_atom_site_label
_atom_site_fract_x
_atom_site_fract_y
_atom_site_fract_z
Si Si1 0.176921 0.860999 0.874405
Si Si2 0.671746 0.794992 0.380446
Si Si3 0.827885 0.393998 0.574688
Si Si4 0.169512 0.053613 0.690507
Si Si5 0.176477 0.296954 0.771720
Si Si6 0.675614 0.946911 0.827148
Si Si7 0.175617 0.800227 0.000000
O O1 0.250831 0.839943 0.808916
O O2 0.241543 0.913357 0.879976
O O3 0.000000 0.863100 0.868058
O O4 0.227259 0.830061 0.936723
O O5 0.500000 0.783277 0.383117
O O6 0.750000 0.750000 0.411219
O O7 0.712879 0.839732 0.423395
O O8 0.721550 0.803870 0.304672
O O9 0.799327 0.412019 0.500000
O O10 0.723171 0.420897 0.624715
O O11 0.000000 0.401404 0.595648
O O12 0.271489 0.066449 0.753164
O O13 0.000000 0.068200 0.706882
O O14 0.181753 0.000000 0.673936
O O15 0.250000 0.250000 0.799928
O O16 0.000000 0.295507 0.783954
O O17 0.500000 0.938920 0.831560
O O18 0.718602 0.000000 0.844059
O O19 0.250000 0.750000 0.000000
O O20 0.000000 0.792190 0.000000
#
# Coordination Sequence:
#
# PCOD8268724 Si02
#       7
#    16  16  16  16  16  16   8
#     4  11  22  37  58  84 115 151 191 232 277 327
#     4   9  19  34  51  73 102 135 175 224 274 326
#     4  10  21  36  53  75 106 145 187 228 274 333
#     4  10  21  37  58  84 112 142 179 227 281 334
#     4  10  19  32  52  79 109 141 182 233 286 336
#     4  10  21  38  61  88 115 144 182 228 280 337
#     4  10  24  42  59  84 119 159 198 233 271 322
#
# _framework density 19.924219999999998
#
# number of rings (size 3 to 8) (size 9 to 14) (size 15 to 20)
#    0.000    2.000    0.000    3.231    0.000    7.692 
#    0.000    1.923    0.000    2.308    0.000    0.000 
#    0.000    0.000    0.000    0.000    0.000    0.000 
#
# Total GULP energy -644915.060554 kJ/mol
# GULP energy per Si atom -12402.212703 kJ/mol
# Density = 1.987887 g / cm^3
# Si number density = 19.924220 Si / 1000 Ang^3
#
#
#
# Elastic Constant Matrix: (Units=GPa)
#
#
# Indices 1 2 3 4 5 6 
#
# 1 78.3232 45.6480 30.4523 0.0000 0.0000 0.0000
# 2 45.6480 106.0281 45.8519 0.0000 0.0000 0.0000
# 3 30.4523 45.8519 65.8800 0.0000 0.0000 0.0000
# 4 0.0000 0.0000 0.0000 42.8891 0.0000 0.0000
# 5 0.0000 0.0000 0.0000 0.0000 23.2942 0.0000
# 6 0.0000 0.0000 0.0000 0.0000 0.0000 40.8026
#
#
#
# Elastic Compliance Matrix: (Units=1/GPa)
#
#
# Indices 1 2 3 4 5 6 
#
# 1 0.017800 -0.005873 -0.004140 0.000000 0.000000 0.000000
# 2 -0.005873 0.015430 -0.008025 0.000000 0.000000 0.000000
# 3 -0.004140 -0.008025 0.022678 0.000000 0.000000 0.000000
# 4 0.000000 0.000000 0.000000 0.023316 0.000000 0.000000
# 5 0.000000 0.000000 0.000000 0.000000 0.042929 0.000000
# 6 0.000000 0.000000 0.000000 0.000000 0.000000 0.024508
#
#
# Mechanical properties :
#
#
# Convention : Reuss Voigt Hill
#
# Bulk Modulus (GPa) = 50.42225 54.90399 52.66312
# Shear Modulus (GPa) = 26.40634 29.94912 28.17773
#
# Velocity S-wave (km/s) = 3.64447 3.88126 3.76472
# Velocity P-wave (km/s) = 6.56289 6.90665 6.73696
#
# Compressibility (1/GPa) = 0.01983251
#
# Stress axis : x y z
#
# Youngs Moduli (GPa) = 56.17885 64.80825 44.09567
#
# Poissons Ratio (x) = 0.38062 0.18258
# Poissons Ratio (y) = 0.32994 0.35385
# Poissons Ratio (z) = 0.23261 0.52005
#
# Static dielectric constant tensor:
#      x y z
#    x 3.618830 0.000000 0.000000 
#    y 0.000000 3.866270 0.000000 
#    z 0.000000 0.000000 3.499840 
# 
# 
# High freq. dielectric constant tensor:
#      x y z
#    x 1.779430 0.000000 0.000000 
#    y 0.000000 1.789100 0.000000 
#    z 0.000000 0.000000 1.761140 
# 
# From -- ./inp_files/60429.got.cif
#   From: 2010.03.12/outbox.cif.g09.slc.cpg/sg65_31_cif.got.tgz:60429.got - 2010.04.10 20:52:16.
