data_PCOD8268296
_publ_section_title
;
Structure prediction by ZEFSAII (Michael W. Deem and Ramdas Pophale) SiO2 
 PCOD8268296
Probable space group: C M M M
;
_chemical_formula_sum "Si O2"
_cell_formula_units_Z 104
_cell_length_a 29.479785
_cell_length_b 9.460812
_cell_length_c 20.073417
_cell_angle_alpha 90.000000
_cell_angle_beta 90.000000
_cell_angle_gamma 90.000000
_cell_volume 5598.530274
_symmetry_space_group_name_H-M "C M M M"
_symmetry_group_IT_number 65
_symmetry_cell_setting 'orthorhombic'
loop_
_space_group_symop_operation_xyz
x,y,z
-x,-y,z
x,-y,-z
-x,y,-z
-x,-y,-z
x,y,-z
-x,y,z
x,-y,z
1/2+x,1/2+y,z
1/2-x,1/2-y,z
1/2+x,1/2-y,-z
1/2-x,1/2+y,-z
1/2-x,1/2-y,-z
1/2+x,1/2+y,-z
1/2-x,1/2+y,z
1/2+x,1/2-y,z
loop_
_atom_site_type_symbol
_atom_site_label
_atom_site_fract_x
_atom_site_fract_y
_atom_site_fract_z
Si Si1 0.289535 0.845149 0.402759
Si Si2 0.289378 0.155819 0.750771
Si Si3 0.596273 0.331852 0.073140
Si Si4 0.500000 0.651514 0.922649
Si Si5 0.609153 0.164153 0.423676
Si Si6 0.052194 0.163402 0.317880
Si Si7 0.872485 0.836838 0.786939
O O1 0.250000 0.750000 0.436142
O O2 0.277402 0.863422 0.325826
O O3 0.339402 0.777506 0.414343
O O4 0.288678 0.000000 0.436946
O O5 0.250000 0.250000 0.785948
O O6 0.337044 0.234609 0.752689
O O7 0.291769 0.000000 0.784764
O O8 0.589944 0.500000 0.069848
O O9 0.546822 0.264624 0.092137
O O10 0.628435 0.292289 0.134683
O O11 0.613934 0.277643 0.000000
O O12 0.500000 0.500000 0.883439
O O13 0.500000 0.617273 0.000000
O O14 0.593762 0.184961 0.500000
O O15 0.574365 0.248480 0.377551
O O16 0.607601 0.000000 0.402335
O O17 0.078994 0.188806 0.248408
O O18 0.000000 0.211060 0.307081
O O19 0.054850 0.000000 0.338778
O O20 0.857489 0.000000 0.778687
#
# Coordination Sequence:
#
# PCOD8268296 Si02
#       7
#    16  16  16   8  16  16  16
#     4   9  18  32  51  76 104 131 160 201 253 308
#     4  10  19  33  54  78 105 134 168 211 260 310
#     4   8  14  24  41  69 104 138 171 210 255 303
#     4   7  10  18  34  60  95 131 164 199 242 292
#     4  10  21  38  57  76 101 135 176 218 259 307
#     4  10  22  37  52  75 107 139 174 217 260 302
#     4  10  19  31  52  79 107 138 173 212 257 306
#
# _framework density 18.576304
#
# number of rings (size 3 to 8) (size 9 to 14) (size 15 to 20)
#    0.000    2.692    1.538    1.385    1.077    2.462 
#    0.000    1.538    0.000    0.923    0.000    0.000 
#    0.000    1.846    0.000    0.000    0.000    0.000 
#
# Total GULP energy -644186.907976 kJ/mol
# GULP energy per Si atom -12388.209769 kJ/mol
# Density = 1.853402 g / cm^3
# Si number density = 18.576304 Si / 1000 Ang^3
#
#
#
# Elastic Constant Matrix: (Units=GPa)
#
#
# Indices 1 2 3 4 5 6 
#
# 1 118.0139 55.4112 27.5658 0.0000 0.0000 0.0000
# 2 55.4112 77.4736 31.8248 0.0000 0.0000 0.0000
# 3 27.5658 31.8248 81.0613 0.0000 0.0000 0.0000
# 4 0.0000 0.0000 0.0000 0.0017 0.0000 0.0000
# 5 0.0000 0.0000 0.0000 0.0000 4.5405 0.0000
# 6 0.0000 0.0000 0.0000 0.0000 0.0000 24.2262
#
#
#
# Elastic Compliance Matrix: (Units=1/GPa)
#
#
# Indices 1 2 3 4 5 6 
#
# 1 0.012813 -0.008793 -0.000905 0.000000 0.000000 0.000000
# 2 -0.008793 0.021423 -0.005421 0.000000 0.000000 0.000000
# 3 -0.000905 -0.005421 0.014772 0.000000 0.000000 0.000000
# 4 0.000000 0.000000 0.000000581.219033 0.000000 0.000000
# 5 0.000000 0.000000 0.000000 0.000000 0.220240 0.000000
# 6 0.000000 0.000000 0.000000 0.000000 0.000000 0.041278
#
#
# Mechanical properties :
#
#
# Convention : Reuss Voigt Hill
#
# Bulk Modulus (GPa) = 53.27207 56.23914 54.75561
# Shear Modulus (GPa) = 0.00860 16.53682 8.27271
#
# Velocity S-wave (km/s) = 0.06810 2.98688 2.11259
# Velocity P-wave (km/s) = 5.36152 6.49889 5.95741
#
# Compressibility (1/GPa) = 0.01877156
#
# Stress axis : x y z
#
# Youngs Moduli (GPa) = 78.04297 46.67868 67.69382
#
# Poissons Ratio (x) = 0.41043 0.06129
# Poissons Ratio (y) = 0.68620 0.36695
# Poissons Ratio (z) = 0.07066 0.25303
#
# Static dielectric constant tensor:
#      x y z
#    x 3.447340 0.000000 0.000000 
#    y 0.000000 3.352500 0.000000 
#    z 0.000000 0.000000 3.363950 
# 
# 
# High freq. dielectric constant tensor:
#      x y z
#    x 1.715340 0.000000 0.000000 
#    y 0.000000 1.688460 0.000000 
#    z 0.000000 0.000000 1.708690 
# 
# From -- ./inp_files/66422.got.cif
#   From: 2010.03.12/outbox.cif.g09.slc.cpg/sg65_34_cif.got.tgz:66422.got - 2010.04.10 20:52:16.
