data_PCOD8268323
_publ_section_title
;
Structure prediction by ZEFSAII (Michael W. Deem and Ramdas Pophale) SiO2 
 PCOD8268323
Probable space group: C M M M
;
_chemical_formula_sum "Si O2"
_cell_formula_units_Z 60
_cell_length_a 25.355530
_cell_length_b 10.533860
_cell_length_c 11.545915
_cell_angle_alpha 90.000000
_cell_angle_beta 90.000000
_cell_angle_gamma 90.000000
_cell_volume 3083.816948
_symmetry_space_group_name_H-M "C M M M"
_symmetry_group_IT_number 65
_symmetry_cell_setting 'orthorhombic'
loop_
_space_group_symop_operation_xyz
x,y,z
-x,-y,z
x,-y,-z
-x,y,-z
-x,-y,-z
x,y,-z
-x,y,z
x,-y,z
1/2+x,1/2+y,z
1/2-x,1/2-y,z
1/2+x,1/2-y,-z
1/2-x,1/2+y,-z
1/2-x,1/2-y,-z
1/2+x,1/2+y,-z
1/2-x,1/2+y,z
1/2+x,1/2-y,z
loop_
_atom_site_type_symbol
_atom_site_label
_atom_site_fract_x
_atom_site_fract_y
_atom_site_fract_z
Si Si1 0.894071 0.747241 0.750547
Si Si2 0.000000 0.859180 0.208122
Si Si3 0.612677 0.136718 0.000000
Si Si4 0.000000 0.327601 0.000000
Si Si5 0.208017 0.854902 0.635897
Si Si6 0.061254 0.500000 0.637521
O O1 0.945473 0.834362 0.724236
O O2 0.846676 0.825953 0.697310
O O3 0.905420 0.616988 0.684964
O O4 0.877786 0.721387 0.885170
O O5 0.000000 0.000000 0.158318
O O6 0.000000 0.759132 0.109335
O O7 0.552054 0.088488 0.000000
O O8 0.644105 0.000000 0.000000
O O9 0.199455 0.839713 0.500000
O O10 0.250000 0.750000 0.680384
O O11 0.226135 0.000000 0.666028
O O12 0.062250 0.500000 0.500000
O O13 0.000000 0.500000 0.682093
#
# Coordination Sequence:
#
# PCOD8268323 Si02
#       6
#    16   8   8   4  16   8
#     4  11  21  37  58  87 121 159 197 251 300 359
#     4  10  19  32  52  79 114 157 195 238 296 354
#     4  10  19  31  54  85 119 158 200 242 299 356
#     4   8  18  28  48  74 112 153 201 244 280 346
#     4  10  23  43  66  91 118 155 203 254 306 360
#     4  11  22  35  55  87 123 160 203 246 298 357
#
# _framework density 19.456408
#
# number of rings (size 3 to 8) (size 9 to 14) (size 15 to 20)
#    0.000    1.733    2.667    2.000    1.867    0.000 
#    0.000    2.667    0.000    3.200    0.000    0.000 
#    0.000    0.000    0.000    0.000    0.000    0.000 
#
# Total GULP energy -371654.544840 kJ/mol
# GULP energy per Si atom -12388.484828 kJ/mol
# Density = 1.941212 g / cm^3
# Si number density = 19.456408 Si / 1000 Ang^3
#
#
#
# Elastic Constant Matrix: (Units=GPa)
#
#
# Indices 1 2 3 4 5 6 
#
# 1 113.9280 50.7331 32.4341 0.0000 0.0000 0.0000
# 2 50.7331 141.3880 33.5923 0.0000 0.0000 0.0000
# 3 32.4341 33.5923 62.8818 0.0000 0.0000 0.0000
# 4 0.0000 0.0000 0.0000 22.0961 0.0000 0.0000
# 5 0.0000 0.0000 0.0000 0.0000 24.4732 0.0000
# 6 0.0000 0.0000 0.0000 0.0000 0.0000 26.0833
#
#
#
# Elastic Compliance Matrix: (Units=1/GPa)
#
#
# Indices 1 2 3 4 5 6 
#
# 1 0.011343 -0.003070 -0.004211 0.000000 0.000000 0.000000
# 2 -0.003070 0.008932 -0.003188 0.000000 0.000000 0.000000
# 3 -0.004211 -0.003188 0.019778 0.000000 0.000000 0.000000
# 4 0.000000 0.000000 0.000000 0.045257 0.000000 0.000000
# 5 0.000000 0.000000 0.000000 0.000000 0.040861 0.000000
# 6 0.000000 0.000000 0.000000 0.000000 0.000000 0.038339
#
#
# Mechanical properties :
#
#
# Convention : Reuss Voigt Hill
#
# Bulk Modulus (GPa) = 52.31373 61.30189 56.80781
# Shear Modulus (GPa) = 26.06627 27.95973 27.01300
#
# Velocity S-wave (km/s) = 3.66420 3.79495 3.73015
# Velocity P-wave (km/s) = 6.69685 7.12586 6.91468
#
# Compressibility (1/GPa) = 0.01911544
#
# Stress axis : x y z
#
# Youngs Moduli (GPa) = 88.15814 111.96104 50.56144
#
# Poissons Ratio (x) = 0.34369 0.21291
# Poissons Ratio (y) = 0.27062 0.16119
# Poissons Ratio (z) = 0.37122 0.35694
#
# Static dielectric constant tensor:
#      x y z
#    x 3.726430 0.000000 0.000000 
#    y 0.000000 3.648150 0.000000 
#    z 0.000000 0.000000 3.497600 
# 
# 
# High freq. dielectric constant tensor:
#      x y z
#    x 1.742000 0.000000 0.000000 
#    y 0.000000 1.775060 0.000000 
#    z 0.000000 0.000000 1.746820 
# 
# From -- ./inp_files/21960.got.cif
#   From: 2010.03.12/outbox.cif.g09.slc.cpg/sg65_11_cif.got.tgz:21960.got - 2010.04.10 20:52:16.
