data_PCOD8268410
_publ_section_title
;
Structure prediction by ZEFSAII (Michael W. Deem and Ramdas Pophale) SiO2 
 PCOD8268410
Probable space group: C M M M
;
_chemical_formula_sum "Si O2"
_cell_formula_units_Z 96
_cell_length_a 24.468844
_cell_length_b 15.169141
_cell_length_c 13.225885
_cell_angle_alpha 90.000000
_cell_angle_beta 90.000000
_cell_angle_gamma 90.000000
_cell_volume 4909.069521
_symmetry_space_group_name_H-M "C M M M"
_symmetry_group_IT_number 65
_symmetry_cell_setting 'orthorhombic'
loop_
_space_group_symop_operation_xyz
x,y,z
-x,-y,z
x,-y,-z
-x,y,-z
-x,-y,-z
x,y,-z
-x,y,z
x,-y,z
1/2+x,1/2+y,z
1/2-x,1/2-y,z
1/2+x,1/2-y,-z
1/2-x,1/2+y,-z
1/2-x,1/2-y,-z
1/2+x,1/2+y,-z
1/2-x,1/2+y,z
1/2+x,1/2-y,z
loop_
_atom_site_type_symbol
_atom_site_label
_atom_site_fract_x
_atom_site_fract_y
_atom_site_fract_z
Si Si1 0.223558 0.000000 0.380940
Si Si2 0.348074 0.000000 0.380642
Si Si3 0.437335 0.253679 0.118166
Si Si4 0.638466 0.162096 0.745018
Si Si5 0.806104 0.803699 0.382417
Si Si6 0.355445 0.595880 0.880697
Si Si7 0.261080 0.851818 0.887888
O O1 0.195357 0.907076 0.347341
O O2 0.225237 0.000000 0.500000
O O3 0.285592 0.000000 0.343686
O O4 0.376261 0.087340 0.336237
O O5 0.355529 0.000000 0.500000
O O6 0.500000 0.273181 0.144792
O O7 0.414512 0.171934 0.182890
O O8 0.400952 0.335861 0.155426
O O9 0.429798 0.232916 0.000000
O O10 0.649534 0.254202 0.686519
O O11 0.688702 0.129416 0.814223
O O12 0.822433 0.796861 0.500000
O O13 0.750000 0.750000 0.363581
O O14 0.376595 0.500000 0.847149
O O15 0.294170 0.609318 0.836669
O O16 0.348896 0.604825 0.000000
O O17 0.250000 0.750000 0.900406
O O18 0.273365 0.891870 0.000000
#
# Coordination Sequence:
#
# PCOD8268410 Si02
#       7
#     8   8  16  16  16  16  16
#     4   9  18  32  50  80 119 156 188 224 282 355
#     4  11  24  38  56  84 117 145 186 246 301 363
#     4  10  22  41  61  81 112 156 203 248 291 343
#     4  12  22  36  58  86 113 157 198 235 298 354
#     4  10  19  33  53  80 117 153 189 233 288 353
#     4   9  18  32  52  81 119 156 191 235 286 342
#     4  10  19  32  49  79 121 155 188 231 284 346
#
# _framework density 19.555641000000001
#
# number of rings (size 3 to 8) (size 9 to 14) (size 15 to 20)
#    0.000    1.833    3.333    1.500    1.167    0.333 
#    1.500    3.333    0.000    3.500    0.000    0.000 
#    0.000    2.000    0.000    0.000    0.000    0.000 
#
# Total GULP energy -594894.725241 kJ/mol
# GULP energy per Si atom -12393.640109 kJ/mol
# Density = 1.951113 g / cm^3
# Si number density = 19.555641 Si / 1000 Ang^3
#
#
#
# Elastic Constant Matrix: (Units=GPa)
#
#
# Indices 1 2 3 4 5 6 
#
# 1 95.4826 34.6630 44.0909 0.0000 0.0000 0.0000
# 2 34.6630 123.7775 39.9392 0.0000 0.0000 0.0000
# 3 44.0909 39.9392 88.5085 0.0000 0.0000 0.0000
# 4 0.0000 0.0000 0.0000 44.4805 0.0000 0.0000
# 5 0.0000 0.0000 0.0000 0.0000 21.3942 0.0000
# 6 0.0000 0.0000 0.0000 0.0000 0.0000 5.4190
#
#
#
# Elastic Compliance Matrix: (Units=1/GPa)
#
#
# Indices 1 2 3 4 5 6 
#
# 1 0.013995 -0.001954 -0.006090 0.000000 0.000000 0.000000
# 2 -0.001954 0.009729 -0.003417 0.000000 0.000000 0.000000
# 3 -0.006090 -0.003417 0.015874 0.000000 0.000000 0.000000
# 4 0.000000 0.000000 0.000000 0.022482 0.000000 0.000000
# 5 0.000000 0.000000 0.000000 0.000000 0.046742 0.000000
# 6 0.000000 0.000000 0.000000 0.000000 0.000000 0.184537
#
#
# Mechanical properties :
#
#
# Convention : Reuss Voigt Hill
#
# Bulk Modulus (GPa) = 59.96584 60.57275 60.26929
# Shear Modulus (GPa) = 15.53581 26.86376 21.19979
#
# Velocity S-wave (km/s) = 2.82164 3.71038 3.29610
# Velocity P-wave (km/s) = 6.43011 7.02835 6.73588
#
# Compressibility (1/GPa) = 0.01667616
#
# Stress axis : x y z
#
# Youngs Moduli (GPa) = 71.45647 102.78887 62.99744
#
# Poissons Ratio (x) = 0.20086 0.38363
# Poissons Ratio (y) = 0.13963 0.21524
# Poissons Ratio (z) = 0.43514 0.35119
#
# Static dielectric constant tensor:
#      x y z
#    x 3.268870 0.000000 0.000000 
#    y 0.000000 3.717380 0.000000 
#    z 0.000000 0.000000 3.776880 
# 
# 
# High freq. dielectric constant tensor:
#      x y z
#    x 1.701390 0.000000 0.000000 
#    y 0.000000 1.764280 0.000000 
#    z 0.000000 0.000000 1.779780 
# 
# From -- ./inp_files/45658.got.cif
#   From: 2010.03.12/outbox.cif.g09.slc.cpg/sg65_23_cif.got.tgz:45658.got - 2010.04.10 20:52:16.
