data_PCOD8268623
_publ_section_title
;
Structure prediction by ZEFSAII (Michael W. Deem and Ramdas Pophale) SiO2 
 PCOD8268623
Probable space group: C M M M
;
_chemical_formula_sum "Si O2"
_cell_formula_units_Z 80
_cell_length_a 27.850450
_cell_length_b 17.582273
_cell_length_c 9.117222
_cell_angle_alpha 90.000000
_cell_angle_beta 90.000000
_cell_angle_gamma 90.000000
_cell_volume 4464.468526
_symmetry_space_group_name_H-M "C M M M"
_symmetry_group_IT_number 65
_symmetry_cell_setting 'orthorhombic'
loop_
_space_group_symop_operation_xyz
x,y,z
-x,-y,z
x,-y,-z
-x,y,-z
-x,-y,-z
x,y,-z
-x,y,z
x,-y,z
1/2+x,1/2+y,z
1/2-x,1/2-y,z
1/2+x,1/2-y,-z
1/2-x,1/2+y,-z
1/2-x,1/2-y,-z
1/2+x,1/2+y,-z
1/2-x,1/2+y,z
1/2+x,1/2-y,z
loop_
_atom_site_type_symbol
_atom_site_label
_atom_site_fract_x
_atom_site_fract_y
_atom_site_fract_z
Si Si1 0.443228 0.583269 0.336480
Si Si2 0.444634 0.731541 0.828301
Si Si3 0.358458 0.213546 0.327398
Si Si4 0.711533 0.316479 0.835184
Si Si5 0.216943 0.586934 0.669859
O O1 0.424423 0.604272 0.500000
O O2 0.500000 0.578413 0.339549
O O3 0.422782 0.500000 0.289054
O O4 0.427306 0.647536 0.221767
O O5 0.500000 0.747027 0.785387
O O6 0.411448 0.793154 0.744551
O O7 0.436321 0.739222 0.000000
O O8 0.363193 0.223838 0.500000
O O9 0.333461 0.288779 0.260582
O O10 0.329096 0.137590 0.285530
O O11 0.750000 0.250000 0.837205
O O12 0.735884 0.390206 0.761583
O O13 0.694622 0.336667 0.000000
O O14 0.229490 0.600018 0.500000
O O15 0.203666 0.500000 0.704498
#
# Coordination Sequence:
#
# PCOD8268623 Si02
#       5
#    16  16  16  16  16
#     4   8  14  26  44  64  86 114 150 192 237 285
#     4  10  20  32  47  69  98 132 170 212 253 292
#     4  10  19  32  52  74  98 131 167 203 245 292
#     4   9  17  30  49  73 100 127 155 190 235 289
#     4   9  18  33  53  77 103 129 160 200 246 296
#
# _framework density 17.919266
#
# number of rings (size 3 to 8) (size 9 to 14) (size 15 to 20)
#    0.000    2.800    0.000    2.400    0.000    5.200 
#    0.000    3.000    0.000    6.600    0.000    4.200 
#    0.000    0.000    0.000    0.000    0.000    0.000 
#
# Total GULP energy -495837.416228 kJ/mol
# GULP energy per Si atom -12395.935406 kJ/mol
# Density = 1.787848 g / cm^3
# Si number density = 17.919266 Si / 1000 Ang^3
#
#
#
# Elastic Constant Matrix: (Units=GPa)
#
#
# Indices 1 2 3 4 5 6 
#
# 1 88.0591 44.3824 52.7349 0.0000 0.0000 0.0000
# 2 44.3824 89.2257 43.0143 0.0000 0.0000 0.0000
# 3 52.7349 43.0143 101.5473 0.0000 0.0000 0.0000
# 4 0.0000 0.0000 0.0000 20.6257 0.0000 0.0000
# 5 0.0000 0.0000 0.0000 0.0000 30.9327 0.0000
# 6 0.0000 0.0000 0.0000 0.0000 0.0000 19.8097
#
#
#
# Elastic Compliance Matrix: (Units=1/GPa)
#
#
# Indices 1 2 3 4 5 6 
#
# 1 0.018577 -0.005768 -0.007204 0.000000 0.000000 0.000000
# 2 -0.005768 0.015874 -0.003729 0.000000 0.000000 0.000000
# 3 -0.007204 -0.003729 0.015168 0.000000 0.000000 0.000000
# 4 0.000000 0.000000 0.000000 0.048483 0.000000 0.000000
# 5 0.000000 0.000000 0.000000 0.000000 0.032328 0.000000
# 6 0.000000 0.000000 0.000000 0.000000 0.000000 0.050480
#
#
# Mechanical properties :
#
#
# Convention : Reuss Voigt Hill
#
# Bulk Modulus (GPa) = 61.65922 62.12170 61.89046
# Shear Modulus (GPa) = 22.75633 23.52035 23.13834
#
# Velocity S-wave (km/s) = 3.56748 3.62688 3.59730
# Velocity P-wave (km/s) = 7.17310 7.23061 7.20192
#
# Compressibility (1/GPa) = 0.01621817
#
# Stress axis : x y z
#
# Youngs Moduli (GPa) = 53.82922 62.99584 65.92626
#
# Poissons Ratio (x) = 0.36333 0.47496
# Poissons Ratio (y) = 0.31046 0.24583
# Poissons Ratio (z) = 0.38780 0.23491
#
# Static dielectric constant tensor:
#      x y z
#    x 3.268610 0.000000 0.000000 
#    y 0.000000 3.272020 0.000000 
#    z 0.000000 0.000000 3.421660 
# 
# 
# High freq. dielectric constant tensor:
#      x y z
#    x 1.679780 0.000000 0.000000 
#    y 0.000000 1.667140 0.000000 
#    z 0.000000 0.000000 1.700400 
# 
# From -- ./inp_files/9629.got.cif
#   From: 2010.03.12/outbox.cif.g09.slc.cpg/sg65_5_cif.got.tgz:9629.got - 2010.04.10 20:52:16.
