data_PCOD8268981
_publ_section_title
;
Structure prediction by ZEFSAII (Michael W. Deem and Ramdas Pophale) SiO2 
 PCOD8268981
Probable space group: C M M M
;
_chemical_formula_sum "Si O2"
_cell_formula_units_Z 104
_cell_length_a 25.394223
_cell_length_b 9.388481
_cell_length_c 22.946309
_cell_angle_alpha 90.000000
_cell_angle_beta 90.000000
_cell_angle_gamma 90.000000
_cell_volume 5470.702501
_symmetry_space_group_name_H-M "C M M M"
_symmetry_group_IT_number 65
_symmetry_cell_setting 'orthorhombic'
loop_
_space_group_symop_operation_xyz
x,y,z
-x,-y,z
x,-y,-z
-x,y,-z
-x,-y,-z
x,y,-z
-x,y,z
x,-y,z
1/2+x,1/2+y,z
1/2-x,1/2-y,z
1/2+x,1/2-y,-z
1/2-x,1/2+y,-z
1/2-x,1/2-y,-z
1/2+x,1/2+y,-z
1/2-x,1/2+y,z
1/2+x,1/2-y,z
loop_
_atom_site_type_symbol
_atom_site_label
_atom_site_fract_x
_atom_site_fract_y
_atom_site_fract_z
Si Si1 0.114024 0.836297 0.189289
Si Si2 0.000000 0.170598 0.636389
Si Si3 0.901543 0.161009 0.064085
Si Si4 0.299696 0.837381 0.606204
Si Si5 0.000000 0.347038 0.932621
Si Si6 0.086609 0.664356 0.433235
Si Si7 0.199038 0.334418 0.257424
Si Si8 0.000000 0.833562 0.231357
O O1 0.135060 0.824650 0.121525
O O2 0.147795 0.729533 0.227386
O O3 0.052808 0.786818 0.196580
O O4 0.120948 0.000000 0.210790
O O5 0.948099 0.232339 0.606025
O O6 0.000000 0.227023 0.702793
O O7 0.000000 0.000000 0.630805
O O8 0.948938 0.259557 0.083243
O O9 0.922673 0.000000 0.059684
O O10 0.876533 0.203099 0.000000
O O11 0.250000 0.750000 0.582010
O O12 0.352556 0.789330 0.573317
O O13 0.308396 0.810161 0.674345
O O14 0.286552 0.000000 0.592698
O O15 0.000000 0.500000 0.899507
O O16 0.000000 0.378053 0.000000
O O17 0.069191 0.682423 0.500000
O O18 0.079174 0.500000 0.413075
O O19 0.205057 0.500000 0.241042
O O20 0.250000 0.250000 0.234265
O O21 0.000000 0.000000 0.237541
#
# Coordination Sequence:
#
# PCOD8268981 Si02
#       8
#    16   8  16  16   8  16  16   8
#     4  10  19  33  53  76 104 136 171 210 253 305
#     4  11  22  35  52  74 102 137 179 220 252 290
#     4   9  17  29  46  68  96 132 169 204 248 305
#     4   9  19  35  55  79 105 133 166 207 257 309
#     4   9  16  25  39  61  90 125 164 203 241 285
#     4  10  21  37  55  75 103 139 174 208 252 305
#     4  10  20  35  55  78 103 132 169 212 257 304
#     4   9  19  33  50  76 108 139 168 206 259 306
#
# _framework density 19.010356000000002
#
# number of rings (size 3 to 8) (size 9 to 14) (size 15 to 20)
#    0.000    2.385    0.000    2.538    0.000    5.538 
#    0.000    1.154    0.000    0.462    0.000    0.000 
#    0.000    0.000    0.000    0.000    0.000    0.000 
#
# Total GULP energy -644363.604623 kJ/mol
# GULP energy per Si atom -12391.607781 kJ/mol
# Density = 1.896709 g / cm^3
# Si number density = 19.010356 Si / 1000 Ang^3
#
#
#
# Elastic Constant Matrix: (Units=GPa)
#
#
# Indices 1 2 3 4 5 6 
#
# 1 81.7602 34.2569 32.0270 0.0000 0.0000 0.0000
# 2 34.2569 77.6199 29.9261 0.0000 0.0000 0.0000
# 3 32.0270 29.9261 88.6441 0.0000 0.0000 0.0000
# 4 0.0000 0.0000 0.0000 19.8962 0.0000 0.0000
# 5 0.0000 0.0000 0.0000 0.0000 6.7031 0.0000
# 6 0.0000 0.0000 0.0000 0.0000 0.0000 41.5111
#
#
#
# Elastic Compliance Matrix: (Units=1/GPa)
#
#
# Indices 1 2 3 4 5 6 
#
# 1 0.016117 -0.005596 -0.003934 0.000000 0.000000 0.000000
# 2 -0.005596 0.016754 -0.003634 0.000000 0.000000 0.000000
# 3 -0.003934 -0.003634 0.013929 0.000000 0.000000 0.000000
# 4 0.000000 0.000000 0.000000 0.050261 0.000000 0.000000
# 5 0.000000 0.000000 0.000000 0.000000 0.149186 0.000000
# 6 0.000000 0.000000 0.000000 0.000000 0.000000 0.024090
#
#
# Mechanical properties :
#
#
# Convention : Reuss Voigt Hill
#
# Bulk Modulus (GPa) = 48.84792 48.93827 48.89309
# Shear Modulus (GPa) = 16.47505 23.74301 20.10903
#
# Velocity S-wave (km/s) = 2.94706 3.53788 3.25590
# Velocity P-wave (km/s) = 6.10995 6.51826 6.31740
#
# Compressibility (1/GPa) = 0.02047170
#
# Stress axis : x y z
#
# Youngs Moduli (GPa) = 62.04798 59.68585 71.79168
#
# Poissons Ratio (x) = 0.33402 0.28240
# Poissons Ratio (y) = 0.34724 0.26091
# Poissons Ratio (z) = 0.24407 0.21692
#
# Static dielectric constant tensor:
#      x y z
#    x 3.351920 0.000000 0.000000 
#    y 0.000000 3.628750 0.000000 
#    z 0.000000 0.000000 3.650570 
# 
# 
# High freq. dielectric constant tensor:
#      x y z
#    x 1.713930 0.000000 0.000000 
#    y 0.000000 1.734160 0.000000 
#    z 0.000000 0.000000 1.747360 
# 
# From -- ./inp_files/75860.got.cif
#   From: 2010.03.12/outbox.cif.g09.slc.cpg/sg65_38_cif.got.tgz:75860.got - 2010.04.10 20:52:16.
