data_PCOD8268852
_publ_section_title
;
Structure prediction by ZEFSAII (Michael W. Deem and Ramdas Pophale) SiO2 
 PCOD8268852
Probable space group: C M M M
;
_chemical_formula_sum "Si O2"
_cell_formula_units_Z 88
_cell_length_a 30.706534
_cell_length_b 9.185989
_cell_length_c 17.310232
_cell_angle_alpha 90.000000
_cell_angle_beta 90.000000
_cell_angle_gamma 90.000000
_cell_volume 4882.695125
_symmetry_space_group_name_H-M "C M M M"
_symmetry_group_IT_number 65
_symmetry_cell_setting 'orthorhombic'
loop_
_space_group_symop_operation_xyz
x,y,z
-x,-y,z
x,-y,-z
-x,y,-z
-x,-y,-z
x,y,-z
-x,y,z
x,-y,z
1/2+x,1/2+y,z
1/2-x,1/2-y,z
1/2+x,1/2-y,-z
1/2-x,1/2+y,-z
1/2-x,1/2-y,-z
1/2+x,1/2+y,-z
1/2-x,1/2+y,z
1/2+x,1/2-y,z
loop_
_atom_site_type_symbol
_atom_site_label
_atom_site_fract_x
_atom_site_fract_y
_atom_site_fract_z
Si Si1 0.188979 0.664036 0.586682
Si Si2 0.112701 0.171653 0.781242
Si Si3 0.950363 0.842351 0.500000
Si Si4 0.291263 0.329613 0.737985
Si Si5 0.909084 0.664764 0.369871
Si Si6 0.951399 0.827361 0.913869
O O1 0.204016 0.708750 0.500000
O O2 0.204900 0.500000 0.606886
O O3 0.207591 0.777264 0.648753
O O4 0.137172 0.669110 0.588523
O O5 0.164376 0.210747 0.784164
O O6 0.090503 0.256954 0.712167
O O7 0.087394 0.226895 0.857754
O O8 0.106773 0.000000 0.767547
O O9 0.941778 0.750581 0.423646
O O10 0.000000 0.880879 0.500000
O O11 0.925201 0.000000 0.500000
O O12 0.282837 0.500000 0.739015
O O13 0.250000 0.250000 0.778734
O O14 0.925374 0.500000 0.358446
O O15 0.000000 0.775041 0.887192
O O16 0.951013 0.000000 0.915416
O O17 0.941661 0.766955 0.000000
#
# Coordination Sequence:
#
# PCOD8268852 Si02
#       6
#    16  16   8  16  16  16
#     4   9  17  31  49  67  89 120 158 203 254 305
#     4   9  18  32  51  77 104 132 167 206 250 303
#     4  11  23  35  47  65  92 129 172 217 259 295
#     4  10  20  32  46  67  95 130 169 210 251 294
#     4  10  19  33  50  69  94 128 168 208 252 304
#     4   8  14  27  51  82 110 132 157 197 250 305
#
# _framework density 18.022832999999999
#
# number of rings (size 3 to 8) (size 9 to 14) (size 15 to 20)
#    0.000    2.636    0.909    1.909    0.000    3.636 
#    0.000    1.818    0.000    1.091    0.000    1.273 
#    0.000    0.000    0.000    0.000    0.000    0.545 
#
# Total GULP energy -545321.070586 kJ/mol
# GULP energy per Si atom -12393.660695 kJ/mol
# Density = 1.798181 g / cm^3
# Si number density = 18.022833 Si / 1000 Ang^3
#
#
#
# Elastic Constant Matrix: (Units=GPa)
#
#
# Indices 1 2 3 4 5 6 
#
# 1 112.5069 44.6348 69.6822 0.0000 0.0000 0.0000
# 2 44.6348 77.9995 41.6731 0.0000 0.0000 0.0000
# 3 69.6822 41.6731 110.2589 0.0000 0.0000 0.0000
# 4 0.0000 0.0000 0.0000 172.8889 0.0000 0.0000
# 5 0.0000 0.0000 0.0000 0.0000 -0.9085 0.0000
# 6 0.0000 0.0000 0.0000 0.0000 0.0000 22.2672
#
#
#
# Elastic Compliance Matrix: (Units=1/GPa)
#
#
# Indices 1 2 3 4 5 6 
#
# 1 0.015850 -0.004659 -0.008256 0.000000 0.000000 0.000000
# 2 -0.004659 0.017434 -0.003645 0.000000 0.000000 0.000000
# 3 -0.008256 -0.003645 0.015665 0.000000 0.000000 0.000000
# 4 0.000000 0.000000 0.000000 0.005784 0.000000 0.000000
# 5 0.000000 0.000000 0.000000 0.000000 -1.100691 0.000000
# 6 0.000000 0.000000 0.000000 0.000000 0.000000 0.044909
#
#
# Mechanical properties :
#
#
# Convention : Reuss Voigt Hill
#
# Bulk Modulus (GPa) = 63.17526 68.08284 65.62905
# Shear Modulus (GPa) = -5.19399 48.50118 21.65359
#
# Velocity S-wave (km/s) = -1.69946 5.19321 3.46996
# Velocity P-wave (km/s) = 5.59269 8.59169 7.24897
#
# Compressibility (1/GPa) = 0.01582898
#
# Stress axis : x y z
#
# Youngs Moduli (GPa) = 63.09000 57.35883 63.83660
#
# Poissons Ratio (x) = 0.26725 0.52705
# Poissons Ratio (y) = 0.29395 0.23267
# Poissons Ratio (z) = 0.52089 0.20906
#
# Static dielectric constant tensor:
#      x y z
#    x 3.492590 0.000000 0.000000 
#    y 0.000000 3.260410 0.000000 
#    z 0.000000 0.000000 3.348460 
# 
# 
# High freq. dielectric constant tensor:
#      x y z
#    x 1.701280 0.000000 0.000000 
#    y 0.000000 1.687750 0.000000 
#    z 0.000000 0.000000 1.669640 
# 
# From -- ./inp_files/50309.got.cif
#   From: 2010.03.12/outbox.cif.g09.slc.cpg/sg65_26_cif.got.tgz:50309.got - 2010.04.10 20:52:16.
