data_PCOD8268923
_publ_section_title
;
Structure prediction by ZEFSAII (Michael W. Deem and Ramdas Pophale) SiO2 
 PCOD8268923
Probable space group: C M M M
;
_chemical_formula_sum "Si O2"
_cell_formula_units_Z 88
_cell_length_a 29.451292
_cell_length_b 8.549527
_cell_length_c 17.666140
_cell_angle_alpha 90.000000
_cell_angle_beta 90.000000
_cell_angle_gamma 90.000000
_cell_volume 4448.238940
_symmetry_space_group_name_H-M "C M M M"
_symmetry_group_IT_number 65
_symmetry_cell_setting 'orthorhombic'
loop_
_space_group_symop_operation_xyz
x,y,z
-x,-y,z
x,-y,-z
-x,y,-z
-x,-y,-z
x,y,-z
-x,y,z
x,-y,z
1/2+x,1/2+y,z
1/2-x,1/2-y,z
1/2+x,1/2-y,-z
1/2-x,1/2+y,-z
1/2-x,1/2-y,-z
1/2+x,1/2+y,-z
1/2-x,1/2+y,z
1/2+x,1/2-y,z
loop_
_atom_site_type_symbol
_atom_site_label
_atom_site_fract_x
_atom_site_fract_y
_atom_site_fract_z
Si Si1 0.896185 0.685513 0.352750
Si Si2 0.664704 0.684330 0.841139
Si Si3 0.927830 0.321312 0.805056
Si Si4 0.052096 0.686832 0.500000
Si Si5 0.201555 0.818282 0.000000
Si Si6 0.000000 0.181611 0.914678
Si Si7 0.796794 0.313523 0.301793
O O1 0.894930 0.500000 0.354765
O O2 0.929093 0.737584 0.282648
O O3 0.920210 0.752998 0.427725
O O4 0.843267 0.742301 0.345332
O O5 0.652611 0.500000 0.834934
O O6 0.624060 0.801851 0.825559
O O7 0.676547 0.737301 0.925174
O O8 0.703429 0.731168 0.780959
O O9 0.943948 0.500000 0.811370
O O10 0.956545 0.222975 0.864602
O O11 0.051868 0.500000 0.500000
O O12 0.000000 0.748642 0.500000
O O13 0.250000 0.750000 0.000000
O O14 0.206879 0.000000 0.000000
O O15 0.000000 0.000000 0.928570
O O16 0.000000 0.259472 0.000000
O O17 0.795030 0.500000 0.295871
O O18 0.750000 0.250000 0.341555
#
# Coordination Sequence:
#
# PCOD8268923 Si02
#       7
#    16  16  16   8   8   8  16
#     4   8  17  32  51  82 117 144 178 228 278 333
#     4  10  20  35  53  75 105 142 181 224 276 334
#     4  10  21  37  57  82 111 143 182 232 281 331
#     4   9  16  28  53  84 114 148 180 220 281 340
#     4  10  22  34  48  71 100 133 172 222 269 318
#     4  11  25  41  57  78 107 146 192 239 283 335
#     4  10  19  33  52  77 109 144 186 232 277 330
#
# _framework density 19.783110000000001
#
# number of rings (size 3 to 8) (size 9 to 14) (size 15 to 20)
#    0.000    2.364    0.000    3.545    2.545    3.636 
#    0.000    0.455    0.000    0.000    0.000   22.909 
#    0.000    0.000    0.000    0.000    0.000    0.000 
#
# Total GULP energy -545084.890672 kJ/mol
# GULP energy per Si atom -12388.292970 kJ/mol
# Density = 1.973808 g / cm^3
# Si number density = 19.783110 Si / 1000 Ang^3
#
#
#
# Elastic Constant Matrix: (Units=GPa)
#
#
# Indices 1 2 3 4 5 6 
#
# 1 110.6559 17.6383 68.7417 0.0000 0.0000 0.0000
# 2 17.6383 30.4970 26.5296 0.0000 0.0000 0.0000
# 3 68.7417 26.5296 167.6741 0.0000 0.0000 0.0000
# 4 0.0000 0.0000 0.0000 12.6502 0.0000 0.0000
# 5 0.0000 0.0000 0.0000 0.0000 41.3042 0.0000
# 6 0.0000 0.0000 0.0000 0.0000 0.0000 28.3679
#
#
#
# Elastic Compliance Matrix: (Units=1/GPa)
#
#
# Indices 1 2 3 4 5 6 
#
# 1 0.012386 -0.003185 -0.004574 0.000000 0.000000 0.000000
# 2 -0.003185 0.038842 -0.004840 0.000000 0.000000 0.000000
# 3 -0.004574 -0.004840 0.008605 0.000000 0.000000 0.000000
# 4 0.000000 0.000000 0.000000 0.079050 0.000000 0.000000
# 5 0.000000 0.000000 0.000000 0.000000 0.024211 0.000000
# 6 0.000000 0.000000 0.000000 0.000000 0.000000 0.035251
#
#
# Mechanical properties :
#
#
# Convention : Reuss Voigt Hill
#
# Bulk Modulus (GPa) = 28.87176 59.40512 44.13844
# Shear Modulus (GPa) = 21.26862 29.52563 25.39712
#
# Velocity S-wave (km/s) = 3.28241 3.86744 3.58687
# Velocity P-wave (km/s) = 5.38437 7.07362 6.28600
#
# Compressibility (1/GPa) = 0.03463592
#
# Stress axis : x y z
#
# Youngs Moduli (GPa) = 80.73518 25.74510 116.21137
#
# Poissons Ratio (x) = 0.08199 0.53156
# Poissons Ratio (y) = 0.25711 0.56247
# Poissons Ratio (z) = 0.36929 0.12461
#
# Static dielectric constant tensor:
#      x y z
#    x 3.902790 0.000000 0.000000 
#    y 0.000000 3.222870 0.000000 
#    z 0.000000 0.000000 4.717510 
# 
# 
# High freq. dielectric constant tensor:
#      x y z
#    x 1.778720 0.000000 0.000000 
#    y 0.000000 1.745250 0.000000 
#    z 0.000000 0.000000 1.768750 
# 
# From -- ./inp_files/58081.got.cif
#   From: 2010.03.12/outbox.cif.g09.slc.cpg/sg65_30_cif.got.tgz:58081.got - 2010.04.10 20:52:16.
