data_PCOD8268854
_publ_section_title
;
Structure prediction by ZEFSAII (Michael W. Deem and Ramdas Pophale) SiO2 
 PCOD8268854
Probable space group: C M M M
;
_chemical_formula_sum "Si O2"
_cell_formula_units_Z 104
_cell_length_a 23.106149
_cell_length_b 13.991654
_cell_length_c 18.781066
_cell_angle_alpha 90.000000
_cell_angle_beta 90.000000
_cell_angle_gamma 90.000000
_cell_volume 6071.791717
_symmetry_space_group_name_H-M "C M M M"
_symmetry_group_IT_number 65
_symmetry_cell_setting 'orthorhombic'
loop_
_space_group_symop_operation_xyz
x,y,z
-x,-y,z
x,-y,-z
-x,y,-z
-x,-y,-z
x,y,-z
-x,y,z
x,-y,z
1/2+x,1/2+y,z
1/2-x,1/2-y,z
1/2+x,1/2-y,-z
1/2-x,1/2+y,-z
1/2-x,1/2-y,-z
1/2+x,1/2+y,-z
1/2-x,1/2+y,z
1/2+x,1/2-y,z
loop_
_atom_site_type_symbol
_atom_site_label
_atom_site_fract_x
_atom_site_fract_y
_atom_site_fract_z
Si Si1 0.065317 0.267206 0.417915
Si Si2 0.655125 0.390374 0.580072
Si Si3 0.250000 0.750000 0.825106
Si Si4 0.936216 0.388378 0.830969
Si Si5 0.870837 0.612112 0.693274
Si Si6 0.671316 0.110199 0.917208
Si Si7 0.762995 0.888706 0.291568
O O1 0.065617 0.297031 0.500000
O O2 0.095998 0.165780 0.405225
O O3 0.100780 0.348457 0.377926
O O4 0.000000 0.259483 0.388626
O O5 0.678828 0.370178 0.500000
O O6 0.638324 0.500000 0.590024
O O7 0.704100 0.359683 0.636230
O O8 0.291062 0.814069 0.874090
O O9 0.214209 0.824320 0.774559
O O10 0.944219 0.500000 0.818525
O O11 0.904014 0.344565 0.761885
O O12 0.896206 0.369503 0.900036
O O13 0.000000 0.341349 0.841635
O O14 0.877941 0.500000 0.690267
O O15 0.803744 0.639956 0.697524
O O16 0.686781 0.000000 0.895085
O O17 0.682410 0.126541 0.000000
O O18 0.771359 0.000000 0.272945
#
# Coordination Sequence:
#
# PCOD8268854 Si02
#       7
#    16  16   8  16  16  16  16
#     4  10  21  34  48  70  99 132 171 212 252 297
#     4   9  19  35  52  72  98 129 169 216 260 297
#     4  12  19  32  53  74 104 140 166 200 253 300
#     4   9  17  31  51  72  97 132 167 200 242 290
#     4  10  19  33  50  71 100 134 165 200 249 302
#     4  10  21  35  51  76 107 135 168 207 246 298
#     4  10  20  33  53  77 101 131 169 210 252 299
#
# _framework density 17.128388000000001
#
# number of rings (size 3 to 8) (size 9 to 14) (size 15 to 20)
#    0.000    2.154    1.538    2.077    0.000    2.462 
#    0.000    7.308    0.000    0.000    0.000    0.000 
#    0.000    1.846    0.000    7.538    0.000    0.615 
#
# Total GULP energy -644576.746162 kJ/mol
# GULP energy per Si atom -12395.706657 kJ/mol
# Density = 1.708940 g / cm^3
# Si number density = 17.128388 Si / 1000 Ang^3
#
#
#
# Elastic Constant Matrix: (Units=GPa)
#
#
# Indices 1 2 3 4 5 6 
#
# 1 98.1260 43.9391 49.8023 0.0000 0.0000 0.0000
# 2 43.9391 58.7900 48.0992 0.0000 0.0000 0.0000
# 3 49.8023 48.0992 97.3883 0.0000 0.0000 0.0000
# 4 0.0000 0.0000 0.0000 31.7121 0.0000 0.0000
# 5 0.0000 0.0000 0.0000 0.0000 26.3536 0.0000
# 6 0.0000 0.0000 0.0000 0.0000 0.0000 19.5311
#
#
#
# Elastic Compliance Matrix: (Units=1/GPa)
#
#
# Indices 1 2 3 4 5 6 
#
# 1 0.016134 -0.008908 -0.003851 0.000000 0.000000 0.000000
# 2 -0.008908 0.033461 -0.011971 0.000000 0.000000 0.000000
# 3 -0.003851 -0.011971 0.018150 0.000000 0.000000 0.000000
# 4 0.000000 0.000000 0.000000 0.031534 0.000000 0.000000
# 5 0.000000 0.000000 0.000000 0.000000 0.037945 0.000000
# 6 0.000000 0.000000 0.000000 0.000000 0.000000 0.051200
#
#
# Mechanical properties :
#
#
# Convention : Reuss Voigt Hill
#
# Bulk Modulus (GPa) = 54.68780 59.77617 57.23199
# Shear Modulus (GPa) = 20.49339 23.01693 21.75516
#
# Velocity S-wave (km/s) = 3.46274 3.66975 3.56774
# Velocity P-wave (km/s) = 6.92711 7.27535 7.10337
#
# Compressibility (1/GPa) = 0.01828561
#
# Stress axis : x y z
#
# Youngs Moduli (GPa) = 61.97943 29.88513 55.09613
#
# Poissons Ratio (x) = 0.26621 0.21219
# Poissons Ratio (y) = 0.55210 0.65956
# Poissons Ratio (z) = 0.23870 0.35776
#
# Static dielectric constant tensor:
#      x y z
#    x 3.299240 0.000000 0.000000 
#    y 0.000000 3.150250 0.000000 
#    z 0.000000 0.000000 3.322280 
# 
# 
# High freq. dielectric constant tensor:
#      x y z
#    x 1.654980 0.000000 0.000000 
#    y 0.000000 1.648310 0.000000 
#    z 0.000000 0.000000 1.664560 
# 
# From -- ./inp_files/55872.got.cif
#   From: 2010.03.12/outbox.cif.g09.slc.cpg/sg65_28_cif.got.tgz:55872.got - 2010.04.10 20:52:16.
