data_PCOD8268693
_publ_section_title
;
Structure prediction by ZEFSAII (Michael W. Deem and Ramdas Pophale) SiO2 
 PCOD8268693
Probable space group: C M M M
;
_chemical_formula_sum "Si O2"
_cell_formula_units_Z 120
_cell_length_a 8.831251
_cell_length_b 26.609057
_cell_length_c 27.622371
_cell_angle_alpha 90.000000
_cell_angle_beta 90.000000
_cell_angle_gamma 90.000000
_cell_volume 6491.015800
_symmetry_space_group_name_H-M "C M M M"
_symmetry_group_IT_number 65
_symmetry_cell_setting 'orthorhombic'
loop_
_space_group_symop_operation_xyz
x,y,z
-x,-y,z
x,-y,-z
-x,y,-z
-x,-y,-z
x,y,-z
-x,y,z
x,-y,z
1/2+x,1/2+y,z
1/2-x,1/2-y,z
1/2+x,1/2-y,-z
1/2-x,1/2+y,-z
1/2-x,1/2-y,-z
1/2+x,1/2+y,-z
1/2-x,1/2+y,z
1/2+x,1/2-y,z
loop_
_atom_site_type_symbol
_atom_site_label
_atom_site_fract_x
_atom_site_fract_y
_atom_site_fract_z
Si Si1 0.827447 0.943907 0.795447
Si Si2 0.324616 0.200182 0.770070
Si Si3 0.678690 0.398726 0.606526
Si Si4 0.825864 0.603154 0.708315
Si Si5 0.322784 0.648305 0.141716
Si Si6 0.822348 0.302836 0.054970
Si Si7 0.322306 0.197605 0.443851
Si Si8 0.679844 0.500000 0.554620
O O1 0.720537 0.936977 0.749028
O O2 0.781531 0.907318 0.839273
O O3 0.000000 0.932904 0.779191
O O4 0.806982 0.000000 0.815385
O O5 0.500000 0.207942 0.781643
O O6 0.250000 0.250000 0.747872
O O7 0.298068 0.158344 0.729559
O O8 0.240845 0.188384 0.820222
O O9 0.500000 0.392943 0.599754
O O10 0.718969 0.404301 0.662543
O O11 0.756944 0.349367 0.585207
O O12 0.739791 0.449268 0.580357
O O13 0.000000 0.594586 0.693630
O O14 0.500000 0.656992 0.135523
O O15 0.243313 0.654212 0.089817
O O16 0.750000 0.250000 0.069963
O O17 0.000000 0.298344 0.062054
O O18 0.779095 0.317273 0.000000
O O19 0.282617 0.189314 0.500000
O O20 0.500000 0.200731 0.434311
O O21 0.250000 0.250000 0.425389
O O22 0.500000 0.500000 0.555861
O O23 0.742270 0.500000 0.500000
#
# Coordination Sequence:
#
# PCOD8268693 Si02
#       8
#    16  16  16  16  16  16  16   8
#     4   9  19  36  57  78 102 134 176 222 267 319
#     4  10  20  34  52  73 103 140 177 216 258 312
#     4  11  22  37  59  84 112 146 183 225 273 327
#     4  10  22  37  52  77 109 140 176 217 266 319
#     4  10  19  32  52  77 104 136 175 219 266 315
#     4  10  20  33  50  74 106 142 178 217 261 312
#     4  10  21  38  60  85 112 143 181 225 272 324
#     4   9  20  38  59  83 109 141 181 221 266 323
#
# _framework density 18.487090999999999
#
# number of rings (size 3 to 8) (size 9 to 14) (size 15 to 20)
#    0.000    2.067    0.000    3.200    0.933    5.067 
#    0.000    2.333    0.000    2.800    0.000    2.800 
#    0.000    0.000    0.000    0.000    0.000    0.000 
#
# Total GULP energy -744183.078357 kJ/mol
# GULP energy per Si atom -12403.051306 kJ/mol
# Density = 1.844501 g / cm^3
# Si number density = 18.487091 Si / 1000 Ang^3
#
#
#
# Elastic Constant Matrix: (Units=GPa)
#
#
# Indices 1 2 3 4 5 6 
#
# 1 70.1880 39.7558 40.6554 0.0000 0.0000 0.0000
# 2 39.7558 130.0012 58.6341 0.0000 0.0000 0.0000
# 3 40.6554 58.6341 113.1397 0.0000 0.0000 0.0000
# 4 0.0000 0.0000 0.0000 17.9858 0.0000 0.0000
# 5 0.0000 0.0000 0.0000 0.0000 34.0798 0.0000
# 6 0.0000 0.0000 0.0000 0.0000 0.0000 27.1486
#
#
#
# Elastic Compliance Matrix: (Units=1/GPa)
#
#
# Indices 1 2 3 4 5 6 
#
# 1 0.019204 -0.003602 -0.005034 0.000000 0.000000 0.000000
# 2 -0.003602 0.010714 -0.004258 0.000000 0.000000 0.000000
# 3 -0.005034 -0.004258 0.012854 0.000000 0.000000 0.000000
# 4 0.000000 0.000000 0.000000 0.055599 0.000000 0.000000
# 5 0.000000 0.000000 0.000000 0.000000 0.029343 0.000000
# 6 0.000000 0.000000 0.000000 0.000000 0.000000 0.036834
#
#
# Mechanical properties :
#
#
# Convention : Reuss Voigt Hill
#
# Bulk Modulus (GPa) = 58.87991 65.71328 62.29660
# Shear Modulus (GPa) = 25.51038 27.46175 26.48607
#
# Velocity S-wave (km/s) = 3.71873 3.85834 3.78918
# Velocity P-wave (km/s) = 7.09627 7.44793 7.27423
#
# Compressibility (1/GPa) = 0.01698372
#
# Stress axis : x y z
#
# Youngs Moduli (GPa) = 52.07374 93.33185 77.79536
#
# Poissons Ratio (x) = 0.33621 0.39160
# Poissons Ratio (y) = 0.18759 0.33127
# Poissons Ratio (z) = 0.26212 0.39743
#
# Static dielectric constant tensor:
#      x y z
#    x 3.465740 0.000000 0.000000 
#    y 0.000000 3.453370 0.000000 
#    z 0.000000 0.000000 3.350310 
# 
# 
# High freq. dielectric constant tensor:
#      x y z
#    x 1.724730 0.000000 0.000000 
#    y 0.000000 1.717500 0.000000 
#    z 0.000000 0.000000 1.709930 
# 
# From -- ./inp_files/73943.got.cif
#   From: 2010.03.12/outbox.cif.g09.slc.cpg/sg65_37_cif.got.tgz:73943.got - 2010.04.10 20:52:16.
