data_PCOD8268052
_publ_section_title
;
Structure prediction by ZEFSAII (Michael W. Deem and Ramdas Pophale) SiO2 
 PCOD8268052
Probable space group: C M M M
;
_chemical_formula_sum "Si O2"
_cell_formula_units_Z 88
_cell_length_a 19.696882
_cell_length_b 9.104762
_cell_length_c 27.682058
_cell_angle_alpha 90.000000
_cell_angle_beta 90.000000
_cell_angle_gamma 90.000000
_cell_volume 4964.373574
_symmetry_space_group_name_H-M "C M M M"
_symmetry_group_IT_number 65
_symmetry_cell_setting 'orthorhombic'
loop_
_space_group_symop_operation_xyz
x,y,z
-x,-y,z
x,-y,-z
-x,y,-z
-x,-y,-z
x,y,-z
-x,y,z
x,-y,z
1/2+x,1/2+y,z
1/2-x,1/2-y,z
1/2+x,1/2-y,-z
1/2-x,1/2+y,-z
1/2-x,1/2-y,-z
1/2+x,1/2+y,-z
1/2-x,1/2+y,z
1/2+x,1/2-y,z
loop_
_atom_site_type_symbol
_atom_site_label
_atom_site_fract_x
_atom_site_fract_y
_atom_site_fract_z
Si Si1 0.575292 0.326037 0.082261
Si Si2 0.680755 0.172024 0.259301
Si Si3 0.920804 0.168056 0.191220
Si Si4 0.681430 0.172503 0.369605
Si Si5 0.575432 0.174403 0.553472
Si Si6 0.323296 0.324834 0.000000
O O1 0.500000 0.263653 0.068515
O O2 0.570860 0.500000 0.078945
O O3 0.594655 0.279104 0.136601
O O4 0.633805 0.268797 0.046366
O O5 0.750000 0.250000 0.242935
O O6 0.619054 0.226610 0.226992
O O7 0.662482 0.211682 0.314548
O O8 0.690762 0.000000 0.251831
O O9 0.000000 0.184206 0.202741
O O10 0.897294 0.000000 0.198600
O O11 0.750000 0.250000 0.385664
O O12 0.623767 0.237833 0.404804
O O13 0.691089 0.000000 0.376545
O O14 0.601024 0.222443 0.500000
O O15 0.500000 0.237311 0.562503
O O16 0.573579 0.000000 0.556738
O O17 0.250000 0.250000 0.000000
O O18 0.313707 0.500000 0.000000
#
# Coordination Sequence:
#
# PCOD8268052 Si02
#       6
#    16  16  16  16  16   8
#     4   8  15  30  52  73  92 121 160 195 227 271
#     4  10  20  33  49  69  96 129 163 199 239 283
#     4   9  18  33  52  74  99 125 157 198 241 285
#     4   9  18  31  47  68  93 121 154 192 231 274
#     4   8  14  26  45  68  92 118 150 188 229 273
#     4  10  19  31  49  73  99 124 154 192 232 276
#
# _framework density 17.726305
#
# number of rings (size 3 to 8) (size 9 to 14) (size 15 to 20)
#    0.000    3.091    0.000    2.455    0.000    4.000 
#    0.000    4.545    0.000    2.727    0.000    1.273 
#    0.000    0.000    0.000    0.000    0.000    0.000 
#
# Total GULP energy -545428.936988 kJ/mol
# GULP energy per Si atom -12396.112204 kJ/mol
# Density = 1.768596 g / cm^3
# Si number density = 17.726305 Si / 1000 Ang^3
#
#
#
# Elastic Constant Matrix: (Units=GPa)
#
#
# Indices 1 2 3 4 5 6 
#
# 1 129.4650 35.3451 92.0203 0.0000 0.0000 0.0000
# 2 35.3451 35.4000 31.9532 0.0000 0.0000 0.0000
# 3 92.0203 31.9532 122.5613 0.0000 0.0000 0.0000
# 4 0.0000 0.0000 0.0000 16.3623 0.0000 0.0000
# 5 0.0000 0.0000 0.0000 0.0000 32.9396 0.0000
# 6 0.0000 0.0000 0.0000 0.0000 0.0000 29.2287
#
#
#
# Elastic Compliance Matrix: (Units=1/GPa)
#
#
# Indices 1 2 3 4 5 6 
#
# 1 0.017982 -0.007542 -0.011534 0.000000 0.000000 0.000000
# 2 -0.007542 0.040106 -0.004793 0.000000 0.000000 0.000000
# 3 -0.011534 -0.004793 0.018069 0.000000 0.000000 0.000000
# 4 0.000000 0.000000 0.000000 0.061116 0.000000 0.000000
# 5 0.000000 0.000000 0.000000 0.000000 0.030359 0.000000
# 6 0.000000 0.000000 0.000000 0.000000 0.000000 0.034213
#
#
# Mechanical properties :
#
#
# Convention : Reuss Voigt Hill
#
# Bulk Modulus (GPa) = 35.19093 67.34037 51.26565
# Shear Modulus (GPa) = 19.30089 24.24664 21.77377
#
# Velocity S-wave (km/s) = 3.30332 3.70244 3.50856
# Velocity P-wave (km/s) = 5.86896 7.50658 6.73771
#
# Compressibility (1/GPa) = 0.02841641
#
# Stress axis : x y z
#
# Youngs Moduli (GPa) = 55.61268 24.93417 55.34376
#
# Poissons Ratio (x) = 0.18806 0.63835
# Poissons Ratio (y) = 0.41945 0.26527
# Poissons Ratio (z) = 0.64145 0.11951
#
# Static dielectric constant tensor:
#      x y z
#    x 3.453620 0.000000 0.000000 
#    y 0.000000 2.893610 0.000000 
#    z 0.000000 0.000000 3.558020 
# 
# 
# High freq. dielectric constant tensor:
#      x y z
#    x 1.687950 0.000000 0.000000 
#    y 0.000000 1.645400 0.000000 
#    z 0.000000 0.000000 1.694630 
# 
# From -- ./inp_files/76589.got.cif
#   From: 2010.03.12/outbox.cif.g09.slc.cpg/sg65_39_cif.got.tgz:76589.got - 2010.04.10 20:52:16.
