data_PCOD8268155
_publ_section_title
;
Structure prediction by ZEFSAII (Michael W. Deem and Ramdas Pophale) SiO2 
 PCOD8268155
Probable space group: C M M M
;
_chemical_formula_sum "Si O2"
_cell_formula_units_Z 96
_cell_length_a 18.728320
_cell_length_b 9.034091
_cell_length_c 30.968089
_cell_angle_alpha 90.000000
_cell_angle_beta 90.000000
_cell_angle_gamma 90.000000
_cell_volume 5239.594633
_symmetry_space_group_name_H-M "C M M M"
_symmetry_group_IT_number 65
_symmetry_cell_setting 'orthorhombic'
loop_
_space_group_symop_operation_xyz
x,y,z
-x,-y,z
x,-y,-z
-x,y,-z
-x,-y,-z
x,y,-z
-x,y,z
x,-y,z
1/2+x,1/2+y,z
1/2-x,1/2-y,z
1/2+x,1/2-y,-z
1/2-x,1/2+y,-z
1/2-x,1/2-y,-z
1/2+x,1/2+y,-z
1/2-x,1/2+y,z
1/2+x,1/2-y,z
loop_
_atom_site_type_symbol
_atom_site_label
_atom_site_fract_x
_atom_site_fract_y
_atom_site_fract_z
Si Si1 0.915799 0.830472 0.288226
Si Si2 0.918322 0.170031 0.949917
Si Si3 0.175174 0.671779 0.454441
Si Si4 0.825920 0.325713 0.880525
Si Si5 0.173181 0.674787 0.360730
Si Si6 0.917746 0.328065 0.798267
O O1 0.881377 0.738033 0.326420
O O2 0.890087 0.765382 0.242505
O O3 0.000000 0.812999 0.292925
O O4 0.891022 0.000000 0.291022
O O5 0.866013 0.274921 0.923536
O O6 0.000000 0.214615 0.940167
O O7 0.905075 0.000000 0.936797
O O8 0.900777 0.194111 0.000000
O O9 0.132964 0.711094 0.500000
O O10 0.192138 0.500000 0.453605
O O11 0.250000 0.750000 0.456093
O O12 0.138723 0.712648 0.408446
O O13 0.815186 0.500000 0.882831
O O14 0.750000 0.250000 0.876782
O O15 0.872183 0.277371 0.839270
O O16 0.181872 0.500000 0.353607
O O17 0.250000 0.750000 0.354984
O O18 0.906825 0.500000 0.787439
O O19 0.000000 0.292309 0.808783
#
# Coordination Sequence:
#
# PCOD8268155 Si02
#       6
#    16  16  16  16  16  16
#     4  10  21  36  54  76 102 134 172 212 255 306
#     4   9  19  37  60  84 110 142 180 220 261 307
#     4   8  14  25  42  66  95 126 162 203 247 297
#     4  11  23  37  55  81 112 144 176 214 261 309
#     4  10  19  31  50  75 103 134 167 208 257 305
#     4   9  19  37  58  77  99 131 173 217 260 309
#
# _framework density 18.322028
#
# number of rings (size 3 to 8) (size 9 to 14) (size 15 to 20)
#    0.000    2.500    0.000    2.500    0.000    5.333 
#    0.000    4.167    0.000    0.500    0.000    3.500 
#    0.000    0.000    0.000    0.000    0.000    0.000 
#
# Total GULP energy -594880.745509 kJ/mol
# GULP energy per Si atom -12393.348865 kJ/mol
# Density = 1.828033 g / cm^3
# Si number density = 18.322028 Si / 1000 Ang^3
#
#
#
# Elastic Constant Matrix: (Units=GPa)
#
#
# Indices 1 2 3 4 5 6 
#
# 1 67.2975 40.6426 63.0215 0.0000 0.0000 0.0000
# 2 40.6426 82.8519 65.4108 0.0000 0.0000 0.0000
# 3 63.0215 65.4108 151.1281 0.0000 0.0000 0.0000
# 4 0.0000 0.0000 0.0000 25.6808 0.0000 0.0000
# 5 0.0000 0.0000 0.0000 0.0000 68.8416 0.0000
# 6 0.0000 0.0000 0.0000 0.0000 0.0000 10.2609
#
#
#
# Elastic Compliance Matrix: (Units=1/GPa)
#
#
# Indices 1 2 3 4 5 6 
#
# 1 0.026496 -0.006493 -0.008239 0.000000 0.000000 0.000000
# 2 -0.006493 0.019926 -0.005917 0.000000 0.000000 0.000000
# 3 -0.008239 -0.005917 0.012613 0.000000 0.000000 0.000000
# 4 0.000000 0.000000 0.000000 0.038940 0.000000 0.000000
# 5 0.000000 0.000000 0.000000 0.000000 0.014526 0.000000
# 6 0.000000 0.000000 0.000000 0.000000 0.000000 0.097457
#
#
# Mechanical properties :
#
#
# Convention : Reuss Voigt Hill
#
# Bulk Modulus (GPa) = 56.37481 71.04748 63.71114
# Shear Modulus (GPa) = 19.44255 29.77017 24.60636
#
# Velocity S-wave (km/s) = 3.26107 4.03529 3.66866
# Velocity P-wave (km/s) = 6.70933 7.78285 7.26594
#
# Compressibility (1/GPa) = 0.01773842
#
# Stress axis : x y z
#
# Youngs Moduli (GPa) = 37.74166 50.18558 79.28132
#
# Poissons Ratio (x) = 0.32586 0.65317
# Poissons Ratio (y) = 0.24506 0.46908
# Poissons Ratio (z) = 0.31094 0.29693
#
# Static dielectric constant tensor:
#      x y z
#    x 3.092360 0.000000 0.000000 
#    y 0.000000 3.429710 0.000000 
#    z 0.000000 0.000000 3.850810 
# 
# 
# High freq. dielectric constant tensor:
#      x y z
#    x 1.678660 0.000000 0.000000 
#    y 0.000000 1.717360 0.000000 
#    z 0.000000 0.000000 1.734210 
# 
# From -- ./inp_files/73116.got.cif
#   From: 2010.03.12/outbox.cif.g09.slc.cpg/sg65_37_cif.got.tgz:73116.got - 2010.04.10 20:52:16.
