data_PCOD8268033
_publ_section_title
;
Structure prediction by ZEFSAII (Michael W. Deem and Ramdas Pophale) SiO2 
 PCOD8268033
Probable space group: C M M M
;
_chemical_formula_sum "Si O2"
_cell_formula_units_Z 80
_cell_length_a 18.416330
_cell_length_b 8.886841
_cell_length_c 25.732072
_cell_angle_alpha 90.000000
_cell_angle_beta 90.000000
_cell_angle_gamma 90.000000
_cell_volume 4211.388010
_symmetry_space_group_name_H-M "C M M M"
_symmetry_group_IT_number 65
_symmetry_cell_setting 'orthorhombic'
loop_
_space_group_symop_operation_xyz
x,y,z
-x,-y,z
x,-y,-z
-x,y,-z
-x,-y,-z
x,y,-z
-x,y,z
x,-y,z
1/2+x,1/2+y,z
1/2-x,1/2-y,z
1/2+x,1/2-y,-z
1/2-x,1/2+y,-z
1/2-x,1/2-y,-z
1/2+x,1/2+y,-z
1/2-x,1/2+y,z
1/2+x,1/2-y,z
loop_
_atom_site_type_symbol
_atom_site_label
_atom_site_fract_x
_atom_site_fract_y
_atom_site_fract_z
Si Si1 0.084786 0.325784 0.688671
Si Si2 0.918740 0.321352 0.000000
Si Si3 0.581607 0.321145 0.500000
Si Si4 0.172073 0.678851 0.098645
Si Si5 0.419746 0.821770 0.805382
Si Si6 0.328364 0.677630 0.401241
O O1 0.103705 0.500000 0.678683
O O2 0.105614 0.277623 0.747412
O O3 0.132780 0.222267 0.651960
O O4 0.000000 0.295741 0.678271
O O5 0.877400 0.263961 0.051180
O O6 0.922310 0.500000 0.000000
O O7 0.000000 0.253902 0.000000
O O8 0.578514 0.500000 0.500000
O O9 0.500000 0.254365 0.500000
O O10 0.623294 0.261949 0.449094
O O11 0.179294 0.500000 0.098874
O O12 0.250000 0.750000 0.091717
O O13 0.136695 0.740434 0.152153
O O14 0.500000 0.754602 0.816551
O O15 0.425003 0.000000 0.809718
O O16 0.319315 0.500000 0.403234
O O17 0.250000 0.750000 0.405379
#
# Coordination Sequence:
#
# PCOD8268033 Si02
#       6
#    16   8   8  16  16  16
#     4   9  18  34  55  78 104 134 171 213 255 302
#     4   9  17  30  51  75  94 121 168 214 244 285
#     4   9  19  36  57  79 102 131 168 209 254 304
#     4  10  19  31  49  73 101 130 162 203 250 298
#     4   8  15  30  52  74  97 130 170 208 245 289
#     4  11  22  36  55  78 107 139 171 209 253 302
#
# _framework density 18.996112
#
# number of rings (size 3 to 8) (size 9 to 14) (size 15 to 20)
#    0.000    2.600    0.000    3.600    0.000    4.400 
#    0.000    4.500    0.000    7.800    0.000    0.000 
#    0.000    0.000    0.000    0.000    0.000    0.000 
#
# Total GULP energy -495975.794325 kJ/mol
# GULP energy per Si atom -12399.394858 kJ/mol
# Density = 1.895288 g / cm^3
# Si number density = 18.996112 Si / 1000 Ang^3
#
#
#
# Elastic Constant Matrix: (Units=GPa)
#
#
# Indices 1 2 3 4 5 6 
#
# 1 164.6188 35.2890 103.6343 0.0000 0.0000 0.0000
# 2 35.2890 35.4680 32.0988 0.0000 0.0000 0.0000
# 3 103.6343 32.0988 169.5445 0.0000 0.0000 0.0000
# 4 0.0000 0.0000 0.0000 15.4285 0.0000 0.0000
# 5 0.0000 0.0000 0.0000 0.0000 23.7326 0.0000
# 6 0.0000 0.0000 0.0000 0.0000 0.0000 11.8098
#
#
#
# Elastic Compliance Matrix: (Units=1/GPa)
#
#
# Indices 1 2 3 4 5 6 
#
# 1 0.010762 -0.005737 -0.005492 0.000000 0.000000 0.000000
# 2 -0.005737 0.037083 -0.003514 0.000000 0.000000 0.000000
# 3 -0.005492 -0.003514 0.009920 0.000000 0.000000 0.000000
# 4 0.000000 0.000000 0.000000 0.064815 0.000000 0.000000
# 5 0.000000 0.000000 0.000000 0.000000 0.042136 0.000000
# 6 0.000000 0.000000 0.000000 0.000000 0.000000 0.084675
#
#
# Mechanical properties :
#
#
# Convention : Reuss Voigt Hill
#
# Bulk Modulus (GPa) = 35.36196 79.07506 57.21851
# Shear Modulus (GPa) = 17.34278 23.43478 20.38878
#
# Velocity S-wave (km/s) = 3.02481 3.51616 3.27970
# Velocity P-wave (km/s) = 5.55473 7.62902 6.67297
#
# Compressibility (1/GPa) = 0.02827898
#
# Stress axis : x y z
#
# Youngs Moduli (GPa) = 92.91905 26.96670 100.80199
#
# Poissons Ratio (x) = 0.15472 0.55362
# Poissons Ratio (y) = 0.53311 0.35419
# Poissons Ratio (z) = 0.51032 0.09475
#
# Static dielectric constant tensor:
#      x y z
#    x 3.599970 0.000000 0.000000 
#    y 0.000000 3.008870 0.000000 
#    z 0.000000 0.000000 3.796700 
# 
# 
# High freq. dielectric constant tensor:
#      x y z
#    x 1.746570 0.000000 0.000000 
#    y 0.000000 1.692270 0.000000 
#    z 0.000000 0.000000 1.756740 
# 
# From -- ./inp_files/70781.got.cif
#   From: 2010.03.12/outbox.cif.g09.slc.cpg/sg65_36_cif.got.tgz:70781.got - 2010.04.10 20:52:16.
