data_PCOD8268070
_publ_section_title
;
Structure prediction by ZEFSAII (Michael W. Deem and Ramdas Pophale) SiO2 
 PCOD8268070
Probable space group: C M M M
;
_chemical_formula_sum "Si O2"
_cell_formula_units_Z 120
_cell_length_a 29.051907
_cell_length_b 9.056220
_cell_length_c 25.687313
_cell_angle_alpha 90.000000
_cell_angle_beta 90.000000
_cell_angle_gamma 90.000000
_cell_volume 6758.343898
_symmetry_space_group_name_H-M "C M M M"
_symmetry_group_IT_number 65
_symmetry_cell_setting 'orthorhombic'
loop_
_space_group_symop_operation_xyz
x,y,z
-x,-y,z
x,-y,-z
-x,y,-z
-x,-y,-z
x,y,-z
-x,y,z
x,-y,z
1/2+x,1/2+y,z
1/2-x,1/2-y,z
1/2+x,1/2-y,-z
1/2-x,1/2+y,-z
1/2-x,1/2-y,-z
1/2+x,1/2+y,-z
1/2-x,1/2+y,z
1/2+x,1/2-y,z
loop_
_atom_site_type_symbol
_atom_site_label
_atom_site_fract_x
_atom_site_fract_y
_atom_site_fract_z
Si Si1 0.052970 0.828062 0.099596
Si Si2 0.296933 0.674433 0.864059
Si Si3 0.054661 0.665591 0.500000
Si Si4 0.552937 0.830740 0.794205
Si Si5 0.447423 0.671868 0.602449
Si Si6 0.634824 0.170380 0.058517
Si Si7 0.106609 0.171289 0.294470
Si Si8 0.204504 0.830084 0.254578
O O1 0.064978 0.772461 0.157297
O O2 0.082980 0.734319 0.058963
O O3 0.000000 0.798787 0.085541
O O4 0.065544 0.000000 0.096125
O O5 0.292752 0.500000 0.871171
O O6 0.250000 0.750000 0.882770
O O7 0.336810 0.733663 0.900781
O O8 0.307900 0.720041 0.804406
O O9 0.073943 0.500000 0.500000
O O10 0.072533 0.745598 0.551931
O O11 0.000000 0.670696 0.500000
O O12 0.500000 0.813372 0.778133
O O13 0.582767 0.778073 0.746132
O O14 0.564929 0.000000 0.808004
O O15 0.500000 0.720453 0.616028
O O16 0.446146 0.500000 0.589775
O O17 0.413279 0.713151 0.649278
O O18 0.635114 0.000000 0.075671
O O19 0.654439 0.187828 0.000000
O O20 0.161373 0.202662 0.292400
O O21 0.096100 0.000000 0.280828
O O22 0.250000 0.750000 0.276124
O O23 0.217504 0.000000 0.254172
#
# Coordination Sequence:
#
# PCOD8268070 Si02
#       8
#    16  16   8  16  16  16  16  16
#     4  10  21  37  56  75  97 130 170 207 244 292
#     4  10  20  36  58  80 103 132 165 202 246 300
#     4   9  17  29  45  65  94 133 174 215 252 289
#     4  10  20  32  48  73 104 135 165 199 243 296
#     4   9  17  29  46  69  99 136 174 209 247 292
#     4  11  24  39  55  77 103 129 160 202 252 303
#     4  10  19  31  49  74 103 134 169 208 249 295
#     4   9  19  34  52  75 100 127 161 199 242 293
#
# _framework density 17.755828999999999
#
# number of rings (size 3 to 8) (size 9 to 14) (size 15 to 20)
#    0.000    2.200    0.000    3.000    0.000    7.200 
#    0.000    2.667    0.000    0.000    0.000    0.467 
#    0.000    0.000    0.000    0.000    0.000    0.000 
#
# Total GULP energy -744086.357904 kJ/mol
# GULP energy per Si atom -12401.439298 kJ/mol
# Density = 1.771542 g / cm^3
# Si number density = 17.755829 Si / 1000 Ang^3
#
#
#
# Elastic Constant Matrix: (Units=GPa)
#
#
# Indices 1 2 3 4 5 6 
#
# 1 90.1290 39.7499 50.1954 0.0000 0.0000 0.0000
# 2 39.7499 73.3867 32.6300 0.0000 0.0000 0.0000
# 3 50.1954 32.6300 77.3899 0.0000 0.0000 0.0000
# 4 0.0000 0.0000 0.0000 23.1594 0.0000 0.0000
# 5 0.0000 0.0000 0.0000 0.0000 20.2311 0.0000
# 6 0.0000 0.0000 0.0000 0.0000 0.0000 30.5988
#
#
#
# Elastic Compliance Matrix: (Units=1/GPa)
#
#
# Indices 1 2 3 4 5 6 
#
# 1 0.019313 -0.006020 -0.009988 0.000000 0.000000 0.000000
# 2 -0.006020 0.018647 -0.003958 0.000000 0.000000 0.000000
# 3 -0.009988 -0.003958 0.021069 0.000000 0.000000 0.000000
# 4 0.000000 0.000000 0.000000 0.043179 0.000000 0.000000
# 5 0.000000 0.000000 0.000000 0.000000 0.049429 0.000000
# 6 0.000000 0.000000 0.000000 0.000000 0.000000 0.032681
#
#
# Mechanical properties :
#
#
# Convention : Reuss Voigt Hill
#
# Bulk Modulus (GPa) = 52.36427 54.00624 53.18525
# Shear Modulus (GPa) = 21.68126 22.68657 22.18391
#
# Velocity S-wave (km/s) = 3.49818 3.57837 3.53850
# Velocity P-wave (km/s) = 6.77287 6.89602 6.83472
#
# Compressibility (1/GPa) = 0.01909699
#
# Stress axis : x y z
#
# Youngs Moduli (GPa) = 51.77894 53.62875 47.46382
#
# Poissons Ratio (x) = 0.32283 0.47408
# Poissons Ratio (y) = 0.31170 0.18784
# Poissons Ratio (z) = 0.51718 0.21224
#
# Static dielectric constant tensor:
#      x y z
#    x 3.302760 0.000000 0.000000 
#    y 0.000000 3.366200 0.000000 
#    z 0.000000 0.000000 3.191240 
# 
# 
# High freq. dielectric constant tensor:
#      x y z
#    x 1.675750 0.000000 0.000000 
#    y 0.000000 1.696350 0.000000 
#    z 0.000000 0.000000 1.668950 
# 
# From -- ./inp_files/76146.got.cif
#   From: 2010.03.12/outbox.cif.g09.slc.cpg/sg65_39_cif.got.tgz:76146.got - 2010.04.10 20:52:16.
