data_PCOD8268848
_publ_section_title
;
Structure prediction by ZEFSAII (Michael W. Deem and Ramdas Pophale) SiO2 
 PCOD8268848
Probable space group: C M M M
;
_chemical_formula_sum "Si O2"
_cell_formula_units_Z 72
_cell_length_a 14.777934
_cell_length_b 34.896880
_cell_length_c 9.107699
_cell_angle_alpha 90.000000
_cell_angle_beta 90.000000
_cell_angle_gamma 90.000000
_cell_volume 4696.874887
_symmetry_space_group_name_H-M "C M M M"
_symmetry_group_IT_number 65
_symmetry_cell_setting 'orthorhombic'
loop_
_space_group_symop_operation_xyz
x,y,z
-x,-y,z
x,-y,-z
-x,y,-z
-x,-y,-z
x,y,-z
-x,y,z
x,-y,z
1/2+x,1/2+y,z
1/2-x,1/2-y,z
1/2+x,1/2-y,-z
1/2-x,1/2+y,-z
1/2-x,1/2-y,-z
1/2+x,1/2+y,-z
1/2-x,1/2+y,z
1/2+x,1/2-y,z
loop_
_atom_site_type_symbol
_atom_site_label
_atom_site_fract_x
_atom_site_fract_y
_atom_site_fract_z
Si Si1 0.500000 0.724740 0.660764
Si Si2 0.672914 0.844005 0.172122
Si Si3 0.000000 0.314437 0.663343
Si Si4 0.392413 0.000000 0.665316
Si Si5 0.396689 0.074331 0.830667
Si Si6 0.802751 0.788622 0.324267
O O1 0.500000 0.705603 0.500000
O O2 0.500000 0.769708 0.641764
O O3 0.405993 0.712346 0.738361
O O4 0.586591 0.825204 0.244579
O O5 0.668487 0.889624 0.200057
O O6 0.760620 0.826244 0.249627
O O7 0.673458 0.834552 0.000000
O O8 0.000000 0.333621 0.500000
O O9 0.355806 0.038402 0.742442
O O10 0.500000 0.000000 0.676292
O O11 0.356686 0.000000 0.500000
O O12 0.500000 0.084491 0.781797
O O13 0.396257 0.062730 0.000000
O O14 0.798908 0.792401 0.500000
O O15 0.750000 0.750000 0.275393
#
# Coordination Sequence:
#
# PCOD8268848 Si02
#       6
#     8  16   8   8  16  16
#     4   9  18  33  49  65  88 119 158 197 235 282
#     4  11  21  32  45  69  96 121 158 199 234 273
#     4  11  19  31  49  66  88 123 160 196 236 278
#     4   9  17  27  41  65  89 112 151 192 219 257
#     4   9  17  30  44  59  88 126 152 178 226 279
#     4  10  19  33  50  67  89 122 160 195 235 280
#
# _framework density 15.329342
#
# number of rings (size 3 to 8) (size 9 to 14) (size 15 to 20)
#    0.000    2.111    3.333    1.333    0.000    3.556 
#    0.000    0.556    0.000    0.000    0.000    0.000 
#    0.000    0.889    0.000   10.000    0.000    4.444 
#
# Total GULP energy -446218.438713 kJ/mol
# GULP energy per Si atom -12394.956631 kJ/mol
# Density = 1.529445 g / cm^3
# Si number density = 15.329342 Si / 1000 Ang^3
#
#
#
# Elastic Constant Matrix: (Units=GPa)
#
#
# Indices 1 2 3 4 5 6 
#
# 1 107.7168 48.6067 36.1941 0.0000 0.0000 0.0000
# 2 48.6067 101.5797 49.2810 0.0000 0.0000 0.0000
# 3 36.1941 49.2810 63.3664 0.0000 0.0000 0.0000
# 4 0.0000 0.0000 0.0000 23.0203 0.0000 0.0000
# 5 0.0000 0.0000 0.0000 0.0000 24.5517 0.0000
# 6 0.0000 0.0000 0.0000 0.0000 0.0000 25.2942
#
#
#
# Elastic Compliance Matrix: (Units=1/GPa)
#
#
# Indices 1 2 3 4 5 6 
#
# 1 0.012434 -0.004021 -0.003974 0.000000 0.000000 0.000000
# 2 -0.004021 0.017110 -0.011010 0.000000 0.000000 0.000000
# 3 -0.003974 -0.011010 0.026614 0.000000 0.000000 0.000000
# 4 0.000000 0.000000 0.000000 0.043440 0.000000 0.000000
# 5 0.000000 0.000000 0.000000 0.000000 0.040730 0.000000
# 6 0.000000 0.000000 0.000000 0.000000 0.000000 0.039535
#
#
# Mechanical properties :
#
#
# Convention : Reuss Voigt Hill
#
# Bulk Modulus (GPa) = 55.10754 60.09183 57.59968
# Shear Modulus (GPa) = 22.32909 23.81197 23.07053
#
# Velocity S-wave (km/s) = 3.82071 3.94554 3.88363
# Velocity P-wave (km/s) = 7.44922 7.74868 7.60043
#
# Compressibility (1/GPa) = 0.01814634
#
# Stress axis : x y z
#
# Youngs Moduli (GPa) = 80.42637 58.44477 37.57433
#
# Poissons Ratio (x) = 0.23503 0.14934
# Poissons Ratio (y) = 0.32343 0.41369
# Poissons Ratio (z) = 0.31965 0.64347
#
# Static dielectric constant tensor:
#      x y z
#    x 2.530240 0.000000 0.000000 
#    y 0.000000 2.957730 0.000000 
#    z 0.000000 0.000000 2.980890 
# 
# 
# High freq. dielectric constant tensor:
#      x y z
#    x 1.552910 0.000000 0.000000 
#    y 0.000000 1.579820 0.000000 
#    z 0.000000 0.000000 1.588070 
# 
# From -- ./inp_files/7733.got.cif
#   From: 2010.03.12/outbox.cif.g09.slc.cpg/sg65_4_cif.got.tgz:7733.got - 2010.04.10 20:52:16.
