data_PCOD8268245
_publ_section_title
;
Structure prediction by ZEFSAII (Michael W. Deem and Ramdas Pophale) SiO2 
 PCOD8268245
Probable space group: C M M M
;
_chemical_formula_sum "Si O2"
_cell_formula_units_Z 64
_cell_length_a 14.638415
_cell_length_b 14.449489
_cell_length_c 15.607293
_cell_angle_alpha 90.000000
_cell_angle_beta 90.000000
_cell_angle_gamma 90.000000
_cell_volume 3301.217416
_symmetry_space_group_name_H-M "C M M M"
_symmetry_group_IT_number 65
_symmetry_cell_setting 'orthorhombic'
loop_
_space_group_symop_operation_xyz
x,y,z
-x,-y,z
x,-y,-z
-x,y,-z
-x,-y,-z
x,y,-z
-x,y,z
x,-y,z
1/2+x,1/2+y,z
1/2-x,1/2-y,z
1/2+x,1/2-y,-z
1/2-x,1/2+y,-z
1/2-x,1/2-y,-z
1/2+x,1/2+y,-z
1/2-x,1/2+y,z
1/2+x,1/2-y,z
loop_
_atom_site_type_symbol
_atom_site_label
_atom_site_fract_x
_atom_site_fract_y
_atom_site_fract_z
Si Si1 0.399460 0.102955 0.677898
Si Si2 0.103673 0.208768 0.403702
Si Si3 0.103061 0.890064 0.094146
Si Si4 0.790607 0.106391 0.255999
O O1 0.500000 0.112168 0.722282
O O2 0.389606 0.179887 0.604312
O O3 0.319323 0.117652 0.748112
O O4 0.388907 0.000000 0.636822
O O5 0.133411 0.182258 0.500000
O O6 0.171440 0.160144 0.337997
O O7 0.000000 0.175517 0.385667
O O8 0.169001 0.850233 0.168353
O O9 0.000000 0.857814 0.114844
O O10 0.108611 0.000000 0.092802
O O11 0.132783 0.852451 0.000000
O O12 0.820665 0.000000 0.265512
#
# Coordination Sequence:
#
# PCOD8268245 Si02
#       4
#    16  16  16  16
#     4   9  19  35  52  69  92 129 176 216 245 277
#     4  10  21  35  51  73 101 132 165 203 248 298
#     4   8  14  26  46  73 103 132 162 197 239 291
#     4  10  19  31  51  77 104 133 162 198 247 300
#
# _framework density 19.386787000000002
#
# number of rings (size 3 to 8) (size 9 to 14) (size 15 to 20)
#    0.000    2.750    0.000    2.250    0.000    4.500 
#    0.000    6.250    0.000    3.750    0.000    8.750 
#    0.000    0.000    0.000    0.000    0.000    0.500 
#
# Total GULP energy -396495.974765 kJ/mol
# GULP energy per Si atom -12390.499211 kJ/mol
# Density = 1.934266 g / cm^3
# Si number density = 19.386787 Si / 1000 Ang^3
#
#
#
# Elastic Constant Matrix: (Units=GPa)
#
#
# Indices 1 2 3 4 5 6 
#
# 1 138.5007 32.0017 85.0170 0.0000 0.0000 0.0000
# 2 32.0017 58.1328 34.0207 0.0000 0.0000 0.0000
# 3 85.0170 34.0207 145.1002 0.0000 0.0000 0.0000
# 4 0.0000 0.0000 0.0000 9.7944 0.0000 0.0000
# 5 0.0000 0.0000 0.0000 0.0000 18.0093 0.0000
# 6 0.0000 0.0000 0.0000 0.0000 0.0000 22.0848
#
#
#
# Elastic Compliance Matrix: (Units=1/GPa)
#
#
# Indices 1 2 3 4 5 6 
#
# 1 0.011657 -0.002805 -0.006173 0.000000 0.000000 0.000000
# 2 -0.002805 0.020613 -0.003189 0.000000 0.000000 0.000000
# 3 -0.006173 -0.003189 0.011256 0.000000 0.000000 0.000000
# 4 0.000000 0.000000 0.000000 0.102099 0.000000 0.000000
# 5 0.000000 0.000000 0.000000 0.000000 0.055527 0.000000
# 6 0.000000 0.000000 0.000000 0.000000 0.000000 0.045280
#
#
# Mechanical properties :
#
#
# Convention : Reuss Voigt Hill
#
# Bulk Modulus (GPa) = 52.10439 71.53473 61.81956
# Shear Modulus (GPa) = 18.03994 22.69067 20.36531
#
# Velocity S-wave (km/s) = 3.05376 3.42485 3.24462
# Velocity P-wave (km/s) = 6.27444 7.25385 6.78184
#
# Compressibility (1/GPa) = 0.01919224
#
# Stress axis : x y z
#
# Youngs Moduli (GPa) = 85.78381 48.51399 88.83990
#
# Poissons Ratio (x) = 0.13608 0.54837
# Poissons Ratio (y) = 0.24062 0.28335
# Poissons Ratio (z) = 0.52950 0.15473
#
# Static dielectric constant tensor:
#      x y z
#    x 3.852200 0.000000 0.000000 
#    y 0.000000 3.432260 0.000000 
#    z 0.000000 0.000000 3.538890 
# 
# 
# High freq. dielectric constant tensor:
#      x y z
#    x 1.767000 0.000000 0.000000 
#    y 0.000000 1.735200 0.000000 
#    z 0.000000 0.000000 1.725010 
# 
# From -- ./inp_files/23903.got.cif
#   From: 2010.03.12/outbox.cif.g09.slc.cpg/sg65_12_cif.got.tgz:23903.got - 2010.04.10 20:52:16.
