data_PCOD8268799
_publ_section_title
;
Structure prediction by ZEFSAII (Michael W. Deem and Ramdas Pophale) SiO2 
 PCOD8268799
Probable space group: C M M M
;
_chemical_formula_sum "Si O2"
_cell_formula_units_Z 72
_cell_length_a 19.134028
_cell_length_b 14.772457
_cell_length_c 14.389199
_cell_angle_alpha 90.000000
_cell_angle_beta 90.000000
_cell_angle_gamma 90.000000
_cell_volume 4067.202150
_symmetry_space_group_name_H-M "C M M M"
_symmetry_group_IT_number 65
_symmetry_cell_setting 'orthorhombic'
loop_
_space_group_symop_operation_xyz
x,y,z
-x,-y,z
x,-y,-z
-x,y,-z
-x,-y,-z
x,y,-z
-x,y,z
x,-y,z
1/2+x,1/2+y,z
1/2-x,1/2-y,z
1/2+x,1/2-y,-z
1/2-x,1/2+y,-z
1/2-x,1/2-y,-z
1/2+x,1/2+y,-z
1/2-x,1/2+y,z
1/2+x,1/2-y,z
loop_
_atom_site_type_symbol
_atom_site_label
_atom_site_fract_x
_atom_site_fract_y
_atom_site_fract_z
Si Si1 0.335798 0.000000 0.900683
Si Si2 0.737079 0.500000 0.607238
Si Si3 0.920305 0.304441 0.728452
Si Si4 0.314872 0.194043 0.105375
Si Si5 0.883249 0.500000 0.707006
Si Si6 0.182021 0.195162 0.607937
O O1 0.288214 0.089859 0.894476
O O2 0.391797 0.000000 0.818600
O O3 0.376686 0.000000 0.000000
O O4 0.763037 0.500000 0.500000
O O5 0.803569 0.500000 0.673941
O O6 0.691053 0.588548 0.628574
O O7 0.881840 0.298313 0.828003
O O8 0.918093 0.404398 0.678006
O O9 0.885969 0.231146 0.660514
O O10 0.000000 0.276266 0.744387
O O11 0.250000 0.250000 0.146117
O O12 0.334296 0.225689 0.000000
O O13 0.169724 0.213976 0.500000
O O14 0.250000 0.250000 0.643102
#
# Coordination Sequence:
#
# PCOD8268799 Si02
#       6
#     8   8  16  16   8  16
#     4   8  16  29  47  74 102 130 166 210 259 301
#     4  10  20  35  58  82  99 130 182 229 261 301
#     4  11  22  34  51  79 114 145 172 211 269 327
#     4   9  18  33  53  76 103 138 181 221 256 301
#     4  10  19  32  54  77 107 139 172 218 264 313
#     4  10  20  36  57  78 103 136 177 222 264 309
#
# _framework density 17.702587000000001
#
# number of rings (size 3 to 8) (size 9 to 14) (size 15 to 20)
#    0.000    2.222    2.222    1.000    3.111    0.889 
#    0.000    0.556    0.000   10.667    0.000    0.000 
#    0.000    6.222    0.000    0.000    0.000    0.000 
#
# Total GULP energy -446064.042693 kJ/mol
# GULP energy per Si atom -12390.667853 kJ/mol
# Density = 1.766230 g / cm^3
# Si number density = 17.702587 Si / 1000 Ang^3
#
#
#
# Elastic Constant Matrix: (Units=GPa)
#
#
# Indices 1 2 3 4 5 6 
#
# 1 131.0627 58.6559 49.5503 0.0000 0.0000 0.0000
# 2 58.6559 120.9207 40.1079 0.0000 0.0000 0.0000
# 3 49.5503 40.1079 73.4808 0.0000 0.0000 0.0000
# 4 0.0000 0.0000 0.0000 23.8939 0.0000 0.0000
# 5 0.0000 0.0000 0.0000 0.0000 16.9968 0.0000
# 6 0.0000 0.0000 0.0000 0.0000 0.0000 16.0984
#
#
#
# Elastic Compliance Matrix: (Units=1/GPa)
#
#
# Indices 1 2 3 4 5 6 
#
# 1 0.011421 -0.003646 -0.005712 0.000000 0.000000 0.000000
# 2 -0.003646 0.011262 -0.003689 0.000000 0.000000 0.000000
# 3 -0.005712 -0.003689 0.019474 0.000000 0.000000 0.000000
# 4 0.000000 0.000000 0.000000 0.041852 0.000000 0.000000
# 5 0.000000 0.000000 0.000000 0.000000 0.058834 0.000000
# 6 0.000000 0.000000 0.000000 0.000000 0.000000 0.062118
#
#
# Mechanical properties :
#
#
# Convention : Reuss Voigt Hill
#
# Bulk Modulus (GPa) = 62.24766 69.12139 65.68453
# Shear Modulus (GPa) = 21.14996 23.20783 22.17889
#
# Velocity S-wave (km/s) = 3.46025 3.62468 3.54342
# Velocity P-wave (km/s) = 7.15568 7.52652 7.34344
#
# Compressibility (1/GPa) = 0.01606486
#
# Stress axis : x y z
#
# Youngs Moduli (GPa) = 87.55948 88.79632 51.35086
#
# Poissons Ratio (x) = 0.32371 0.29329
# Poissons Ratio (y) = 0.31920 0.18942
# Poissons Ratio (z) = 0.50010 0.32754
#
# Static dielectric constant tensor:
#      x y z
#    x 2.852120 0.000000 0.000000 
#    y 0.000000 3.601570 0.000000 
#    z 0.000000 0.000000 3.442580 
# 
# 
# High freq. dielectric constant tensor:
#      x y z
#    x 1.637330 0.000000 0.000000 
#    y 0.000000 1.696760 0.000000 
#    z 0.000000 0.000000 1.695140 
# 
# From -- ./inp_files/39874.got.cif
#   From: 2010.03.12/outbox.cif.g09.slc.cpg/sg65_20_cif.got.tgz:39874.got - 2010.04.10 20:52:16.
