data_PCOD8268267
_publ_section_title
;
Structure prediction by ZEFSAII (Michael W. Deem and Ramdas Pophale) SiO2 
 PCOD8268267
Probable space group: C M M M
;
_chemical_formula_sum "Si O2"
_cell_formula_units_Z 104
_cell_length_a 26.625162
_cell_length_b 24.108076
_cell_length_c 8.874631
_cell_angle_alpha 90.000000
_cell_angle_beta 90.000000
_cell_angle_gamma 90.000000
_cell_volume 5696.460828
_symmetry_space_group_name_H-M "C M M M"
_symmetry_group_IT_number 65
_symmetry_cell_setting 'orthorhombic'
loop_
_space_group_symop_operation_xyz
x,y,z
-x,-y,z
x,-y,-z
-x,y,-z
-x,-y,-z
x,y,-z
-x,y,z
x,-y,z
1/2+x,1/2+y,z
1/2-x,1/2-y,z
1/2+x,1/2-y,-z
1/2-x,1/2+y,-z
1/2-x,1/2-y,-z
1/2+x,1/2+y,-z
1/2-x,1/2+y,z
1/2+x,1/2-y,z
loop_
_atom_site_type_symbol
_atom_site_label
_atom_site_fract_x
_atom_site_fract_y
_atom_site_fract_z
Si Si1 0.500000 0.565589 0.164829
Si Si2 0.626074 0.063425 0.679527
Si Si3 0.392016 0.435736 0.822659
Si Si4 0.211934 0.358361 0.674353
Si Si5 0.822915 0.151295 0.321269
Si Si6 0.441802 0.153377 0.823027
Si Si7 0.367166 0.765633 0.324673
O O1 0.500000 0.500000 0.143594
O O2 0.447320 0.582314 0.243799
O O3 0.500000 0.593272 0.000000
O O4 0.622593 0.068096 0.500000
O O5 0.678536 0.090429 0.738592
O O6 0.579631 0.097696 0.746730
O O7 0.623230 0.000000 0.735034
O O8 0.381811 0.500000 0.792837
O O9 0.350806 0.403829 0.728393
O O10 0.388669 0.422166 0.000000
O O11 0.220605 0.369972 0.500000
O O12 0.266836 0.352764 0.750330
O O13 0.182668 0.301497 0.702549
O O14 0.819732 0.155949 0.500000
O O15 0.853530 0.204758 0.260868
O O16 0.500000 0.158635 0.779463
O O17 0.414013 0.208799 0.765106
O O18 0.433637 0.148296 0.000000
O O19 0.382054 0.764800 0.500000
#
# Coordination Sequence:
#
# PCOD8268267 Si02
#       7
#     8  16  16  16  16  16  16
#     4   7  12  28  51  65  79 117 165 195 220 267
#     4   9  18  33  54  79 104 135 175 210 245 298
#     4   9  18  33  51  70  95 129 167 202 239 291
#     4   8  15  30  52  74  99 131 166 203 244 294
#     4  10  19  31  51  79 103 126 161 207 255 298
#     4  10  21  36  53  74 102 136 172 212 259 304
#     4   9  18  34  54  74  97 130 170 208 248 298
#
# _framework density 18.256948999999999
#
# number of rings (size 3 to 8) (size 9 to 14) (size 15 to 20)
#    0.000    3.000    0.000    2.769    0.000    5.231 
#    1.385    6.538    0.000    6.000    0.000    0.000 
#    0.000    0.000    0.000    0.000    0.000    0.000 
#
# Total GULP energy -644416.204345 kJ/mol
# GULP energy per Si atom -12392.619314 kJ/mol
# Density = 1.821540 g / cm^3
# Si number density = 18.256949 Si / 1000 Ang^3
#
#
#
# Elastic Constant Matrix: (Units=GPa)
#
#
# Indices 1 2 3 4 5 6 
#
# 1 141.4110 63.8513 29.6450 0.0000 0.0000 0.0000
# 2 63.8513 95.2964 23.3662 0.0000 0.0000 0.0000
# 3 29.6450 23.3662 25.7126 0.0000 0.0000 0.0000
# 4 0.0000 0.0000 0.0000 17.5423 0.0000 0.0000
# 5 0.0000 0.0000 0.0000 0.0000 12.7292 0.0000
# 6 0.0000 0.0000 0.0000 0.0000 0.0000 19.8679
#
#
#
# Elastic Compliance Matrix: (Units=1/GPa)
#
#
# Indices 1 2 3 4 5 6 
#
# 1 0.011257 -0.005610 -0.007880 0.000000 0.000000 0.000000
# 2 -0.005610 0.016298 -0.008343 0.000000 0.000000 0.000000
# 3 -0.007880 -0.008343 0.055558 0.000000 0.000000 0.000000
# 4 0.000000 0.000000 0.000000 0.057005 0.000000 0.000000
# 5 0.000000 0.000000 0.000000 0.000000 0.078560 0.000000
# 6 0.000000 0.000000 0.000000 0.000000 0.000000 0.050332
#
#
# Mechanical properties :
#
#
# Convention : Reuss Voigt Hill
#
# Bulk Modulus (GPa) = 25.35049 55.12722 40.23886
# Shear Modulus (GPa) = 15.34568 19.73172 17.53870
#
# Velocity S-wave (km/s) = 2.90235 3.29109 3.10281
# Velocity P-wave (km/s) = 5.01468 6.68599 5.90972
#
# Compressibility (1/GPa) = 0.03944697
#
# Stress axis : x y z
#
# Youngs Moduli (GPa) = 88.83614 61.35677 17.99926
#
# Poissons Ratio (x) = 0.34422 0.14183
# Poissons Ratio (y) = 0.49838 0.15016
# Poissons Ratio (z) = 0.70003 0.51188
#
# Static dielectric constant tensor:
#      x y z
#    x 3.623790 0.000000 0.000000 
#    y 0.000000 3.416830 0.000000 
#    z 0.000000 0.000000 3.003420 
# 
# 
# High freq. dielectric constant tensor:
#      x y z
#    x 1.719290 0.000000 0.000000 
#    y 0.000000 1.702740 0.000000 
#    z 0.000000 0.000000 1.671460 
# 
# From -- ./inp_files/16517.got.cif
#   From: 2010.03.12/outbox.cif.g09.slc.cpg/sg65_9_cif.got.tgz:16517.got - 2010.04.10 20:52:16.
