data_PCOD8268305
_publ_section_title
;
Structure prediction by ZEFSAII (Michael W. Deem and Ramdas Pophale) SiO2 
 PCOD8268305
Probable space group: C M M M
;
_chemical_formula_sum "Si O2"
_cell_formula_units_Z 96
_cell_length_a 14.270995
_cell_length_b 23.659299
_cell_length_c 14.833460
_cell_angle_alpha 90.000000
_cell_angle_beta 90.000000
_cell_angle_gamma 90.000000
_cell_volume 5008.395211
_symmetry_space_group_name_H-M "C M M M"
_symmetry_group_IT_number 65
_symmetry_cell_setting 'orthorhombic'
loop_
_space_group_symop_operation_xyz
x,y,z
-x,-y,z
x,-y,-z
-x,y,-z
-x,-y,-z
x,y,-z
-x,y,z
x,-y,z
1/2+x,1/2+y,z
1/2-x,1/2-y,z
1/2+x,1/2-y,-z
1/2-x,1/2+y,-z
1/2-x,1/2-y,-z
1/2+x,1/2+y,-z
1/2-x,1/2+y,z
1/2+x,1/2-y,z
loop_
_atom_site_type_symbol
_atom_site_label
_atom_site_fract_x
_atom_site_fract_y
_atom_site_fract_z
Si Si1 0.107574 0.565816 0.500000
Si Si2 0.387976 0.935541 0.000000
Si Si3 0.895349 0.164791 0.730311
Si Si4 0.603724 0.232838 0.599153
Si Si5 0.708978 0.871881 0.343860
Si Si6 0.641808 0.262102 0.898249
Si Si7 0.603423 0.138346 0.161037
O O1 0.095084 0.500000 0.500000
O O2 0.169884 0.581149 0.587866
O O3 0.000000 0.592081 0.500000
O O4 0.347838 0.900094 0.084403
O O5 0.500000 0.934568 0.000000
O O6 0.349803 0.000000 0.000000
O O7 0.884500 0.221998 0.675905
O O8 0.819225 0.122310 0.684833
O O9 0.878833 0.183408 0.834616
O O10 0.000000 0.138424 0.720463
O O11 0.612890 0.260722 0.500000
O O12 0.500000 0.204326 0.609098
O O13 0.686838 0.187845 0.609175
O O14 0.656704 0.875195 0.250772
O O15 0.750000 0.250000 0.898129
O O16 0.594673 0.204672 0.862874
O O17 0.606272 0.275952 0.000000
O O18 0.500000 0.114891 0.175847
#
# Coordination Sequence:
#
# PCOD8268305 Si02
#       7
#     8   8  16  16  16  16  16
#     4  11  26  46  68  93 117 145 188 242 300 361
#     4   9  20  36  53  78 109 145 190 237 288 350
#     4  11  23  36  52  83 121 158 201 238 279 343
#     4  10  19  31  52  81 114 152 186 227 281 342
#     4  12  22  37  58  83 115 153 191 237 290 347
#     4  11  20  33  53  81 120 165 205 243 292 353
#     4  11  20  32  54  81 113 154 192 235 294 354
#
# _framework density 19.167816999999999
#
# number of rings (size 3 to 8) (size 9 to 14) (size 15 to 20)
#    0.000    1.167    5.000    2.500    1.167    2.333 
#    0.000    1.667    0.000    1.000    0.000    0.000 
#    0.000    0.667    0.000    0.000    0.000    0.000 
#
# Total GULP energy -594707.749258 kJ/mol
# GULP energy per Si atom -12389.744776 kJ/mol
# Density = 1.912419 g / cm^3
# Si number density = 19.167817 Si / 1000 Ang^3
#
#
#
# Elastic Constant Matrix: (Units=GPa)
#
#
# Indices 1 2 3 4 5 6 
#
# 1 118.8609 16.0094 41.9803 0.0000 0.0000 0.0000
# 2 16.0094 43.2635 22.0827 0.0000 0.0000 0.0000
# 3 41.9803 22.0827 130.3094 0.0000 0.0000 0.0000
# 4 0.0000 0.0000 0.0000 88.5235 0.0000 0.0000
# 5 0.0000 0.0000 0.0000 0.0000 37.4771 0.0000
# 6 0.0000 0.0000 0.0000 0.0000 0.0000 6.8710
#
#
#
# Elastic Compliance Matrix: (Units=1/GPa)
#
#
# Indices 1 2 3 4 5 6 
#
# 1 0.009677 -0.002178 -0.002749 0.000000 0.000000 0.000000
# 2 -0.002178 0.025793 -0.003669 0.000000 0.000000 0.000000
# 3 -0.002749 -0.003669 0.009181 0.000000 0.000000 0.000000
# 4 0.000000 0.000000 0.000000 0.011296 0.000000 0.000000
# 5 0.000000 0.000000 0.000000 0.000000 0.026683 0.000000
# 6 0.000000 0.000000 0.000000 0.000000 0.000000 0.145539
#
#
# Mechanical properties :
#
#
# Convention : Reuss Voigt Hill
#
# Bulk Modulus (GPa) = 36.41681 50.28649 43.35165
# Shear Modulus (GPa) = 19.64519 40.73175 30.18847
#
# Velocity S-wave (km/s) = 3.20489 4.61478 3.97288
# Velocity P-wave (km/s) = 5.72147 7.39505 6.61143
#
# Compressibility (1/GPa) = 0.02745985
#
# Stress axis : x y z
#
# Youngs Moduli (GPa) = 103.33450 38.77011 108.91688
#
# Poissons Ratio (x) = 0.08445 0.29936
# Poissons Ratio (y) = 0.22507 0.39965
# Poissons Ratio (z) = 0.28402 0.14226
#
# Static dielectric constant tensor:
#      x y z
#    x 3.352470 0.000000 0.000000 
#    y 0.000000 3.111070 0.000000 
#    z 0.000000 0.000000 7.152140 
# 
# 
# High freq. dielectric constant tensor:
#      x y z
#    x 1.745930 0.000000 0.000000 
#    y 0.000000 1.676710 0.000000 
#    z 0.000000 0.000000 1.773030 
# 
# From -- ./inp_files/41002.got.cif
#   From: 2010.03.12/outbox.cif.g09.slc.cpg/sg65_21_cif.got.tgz:41002.got - 2010.04.10 20:52:16.
