data_PCOD8268577
_publ_section_title
;
Structure prediction by ZEFSAII (Michael W. Deem and Ramdas Pophale) SiO2 
 PCOD8268577
Probable space group: C M M M
;
_chemical_formula_sum "Si O2"
_cell_formula_units_Z 104
_cell_length_a 18.198603
_cell_length_b 14.967447
_cell_length_c 19.548027
_cell_angle_alpha 90.000000
_cell_angle_beta 90.000000
_cell_angle_gamma 90.000000
_cell_volume 5324.621117
_symmetry_space_group_name_H-M "C M M M"
_symmetry_group_IT_number 65
_symmetry_cell_setting 'orthorhombic'
loop_
_space_group_symop_operation_xyz
x,y,z
-x,-y,z
x,-y,-z
-x,y,-z
-x,-y,-z
x,y,-z
-x,y,z
x,-y,z
1/2+x,1/2+y,z
1/2-x,1/2-y,z
1/2+x,1/2-y,-z
1/2-x,1/2+y,-z
1/2-x,1/2-y,-z
1/2+x,1/2+y,-z
1/2-x,1/2+y,z
1/2+x,1/2-y,z
loop_
_atom_site_type_symbol
_atom_site_label
_atom_site_fract_x
_atom_site_fract_y
_atom_site_fract_z
Si Si1 0.183785 0.901494 0.690178
Si Si2 0.916106 0.779463 0.921430
Si Si3 0.709040 0.157285 0.576606
Si Si4 0.914047 0.902051 0.500000
Si Si5 0.301069 0.601819 0.845417
Si Si6 0.655022 0.900704 0.079055
Si Si7 0.413121 0.727002 0.378731
O O1 0.249734 0.900464 0.634097
O O2 0.216966 0.887891 0.765222
O O3 0.122923 0.821862 0.686435
O O4 0.146438 0.000000 0.684296
O O5 0.868087 0.837046 0.869508
O O6 0.907266 0.673210 0.906649
O O7 0.000000 0.805047 0.907558
O O8 0.893821 0.800629 0.000000
O O9 0.707897 0.112512 0.500000
O O10 0.750000 0.250000 0.571688
O O11 0.625094 0.178537 0.602049
O O12 0.889270 0.846397 0.565039
O O13 0.000000 0.914577 0.500000
O O14 0.875875 0.000000 0.500000
O O15 0.321181 0.500000 0.864374
O O16 0.227567 0.632884 0.882752
O O17 0.629364 0.000000 0.104226
O O18 0.675493 0.905116 0.000000
O O19 0.500000 0.742618 0.371229
#
# Coordination Sequence:
#
# PCOD8268577 Si02
#       7
#    16  16  16   8  16  16  16
#     4  10  22  36  52  76 105 139 177 219 267 316
#     4  10  21  35  54  83 115 145 178 219 271 328
#     4   9  18  33  51  73 102 133 168 211 262 317
#     4   9  16  26  43  68  97 127 157 197 250 305
#     4  10  21  37  54  75 107 146 188 229 268 318
#     4   9  18  34  58  83 106 139 183 229 272 315
#     4  10  19  32  51  76 103 132 168 212 262 319
#
# _framework density 19.531905999999999
#
# number of rings (size 3 to 8) (size 9 to 14) (size 15 to 20)
#    0.000    2.385    0.769    1.385    1.077    8.308 
#    0.000    3.846    0.000    0.462    0.000    3.231 
#    0.000    0.000    0.000    0.000    0.000    0.000 
#
# Total GULP energy -644407.033101 kJ/mol
# GULP energy per Si atom -12392.442944 kJ/mol
# Density = 1.948745 g / cm^3
# Si number density = 19.531906 Si / 1000 Ang^3
#
#
#
# Elastic Constant Matrix: (Units=GPa)
#
#
# Indices 1 2 3 4 5 6 
#
# 1 85.8884 24.3500 29.8094 0.0000 0.0000 0.0000
# 2 24.3500 53.2900 30.8954 0.0000 0.0000 0.0000
# 3 29.8094 30.8954 77.9066 0.0000 0.0000 0.0000
# 4 0.0000 0.0000 0.0000 26.4130 0.0000 0.0000
# 5 0.0000 0.0000 0.0000 0.0000 12.1271 0.0000
# 6 0.0000 0.0000 0.0000 0.0000 0.0000 23.6199
#
#
#
# Elastic Compliance Matrix: (Units=1/GPa)
#
#
# Indices 1 2 3 4 5 6 
#
# 1 0.014153 -0.004321 -0.003702 0.000000 0.000000 0.000000
# 2 -0.004321 0.025687 -0.008533 0.000000 0.000000 0.000000
# 3 -0.003702 -0.008533 0.017636 0.000000 0.000000 0.000000
# 4 0.000000 0.000000 0.000000 0.037860 0.000000 0.000000
# 5 0.000000 0.000000 0.000000 0.000000 0.082460 0.000000
# 6 0.000000 0.000000 0.000000 0.000000 0.000000 0.042337
#
#
# Mechanical properties :
#
#
# Convention : Reuss Voigt Hill
#
# Bulk Modulus (GPa) = 41.04387 43.02162 42.03275
# Shear Modulus (GPa) = 19.13024 21.23402 20.18213
#
# Velocity S-wave (km/s) = 3.13299 3.30077 3.21797
# Velocity P-wave (km/s) = 5.84353 6.04987 5.94759
#
# Compressibility (1/GPa) = 0.02436417
#
# Stress axis : x y z
#
# Youngs Moduli (GPa) = 70.65767 38.93043 56.70094
#
# Poissons Ratio (x) = 0.16821 0.20990
# Poissons Ratio (y) = 0.30529 0.48385
# Poissons Ratio (z) = 0.26156 0.33221
#
# Static dielectric constant tensor:
#      x y z
#    x 3.515300 0.000000 0.000000 
#    y 0.000000 3.760630 0.000000 
#    z 0.000000 0.000000 3.666760 
# 
# 
# High freq. dielectric constant tensor:
#      x y z
#    x 1.744580 0.000000 0.000000 
#    y 0.000000 1.750230 0.000000 
#    z 0.000000 0.000000 1.758740 
# 
# From -- ./inp_files/63807.got.cif
#   From: 2010.03.12/outbox.cif.g09.slc.cpg/sg65_32_cif.got.tgz:63807.got - 2010.04.10 20:52:16.
