data_PCOD8268312
_publ_section_title
;
Structure prediction by ZEFSAII (Michael W. Deem and Ramdas Pophale) SiO2 
 PCOD8268312
Probable space group: C M M M
;
_chemical_formula_sum "Si O2"
_cell_formula_units_Z 88
_cell_length_a 28.948898
_cell_length_b 18.166061
_cell_length_c 9.138448
_cell_angle_alpha 90.000000
_cell_angle_beta 90.000000
_cell_angle_gamma 90.000000
_cell_volume 4805.795088
_symmetry_space_group_name_H-M "C M M M"
_symmetry_group_IT_number 65
_symmetry_cell_setting 'orthorhombic'
loop_
_space_group_symop_operation_xyz
x,y,z
-x,-y,z
x,-y,-z
-x,y,-z
-x,-y,-z
x,y,-z
-x,y,z
x,-y,z
1/2+x,1/2+y,z
1/2-x,1/2-y,z
1/2+x,1/2-y,-z
1/2-x,1/2+y,-z
1/2-x,1/2-y,-z
1/2+x,1/2+y,-z
1/2-x,1/2+y,z
1/2+x,1/2-y,z
loop_
_atom_site_type_symbol
_atom_site_label
_atom_site_fract_x
_atom_site_fract_y
_atom_site_fract_z
Si Si1 0.785660 0.913295 0.165026
Si Si2 0.115332 0.131056 0.828351
Si Si3 0.052099 0.000000 0.825146
Si Si4 0.448450 0.918030 0.173737
Si Si5 0.217309 0.319012 0.330763
Si Si6 0.621338 0.204336 0.827586
O O1 0.833334 0.882711 0.235693
O O2 0.742469 0.889896 0.263652
O O3 0.788430 0.000000 0.163885
O O4 0.778689 0.882678 0.000000
O O5 0.078177 0.073043 0.764008
O O6 0.100241 0.214787 0.792745
O O7 0.118597 0.116207 0.000000
O O8 0.000000 0.000000 0.762665
O O9 0.050909 0.000000 0.000000
O O10 0.500000 0.902715 0.234513
O O11 0.413878 0.856503 0.236740
O O12 0.432120 0.000000 0.222179
O O13 0.449349 0.912965 0.000000
O O14 0.207370 0.333377 0.500000
O O15 0.250000 0.250000 0.302868
O O16 0.169627 0.305588 0.250425
O O17 0.629187 0.194335 0.000000
#
# Coordination Sequence:
#
# PCOD8268312 Si02
#       6
#    16  16   8  16  16  16
#     4  10  19  33  54  74  98 135 178 214 252 308
#     4   9  16  27  44  69  98 131 168 207 251 303
#     4   9  16  26  42  70 109 139 161 207 272 319
#     4   8  15  29  49  75 106 133 160 203 256 306
#     4  11  23  36  50  73 106 139 174 216 264 309
#     4  10  19  31  53  78 102 134 174 214 255 308
#
# _framework density 18.311226000000001
#
# number of rings (size 3 to 8) (size 9 to 14) (size 15 to 20)
#    0.000    2.455    2.727    1.091    0.000    2.545 
#    0.000    5.455    0.000    0.545    0.000    1.273 
#    0.000    3.636    0.000    0.000    0.000    0.000 
#
# Total GULP energy -545475.230202 kJ/mol
# GULP energy per Si atom -12397.164323 kJ/mol
# Density = 1.826955 g / cm^3
# Si number density = 18.311226 Si / 1000 Ang^3
#
#
#
# Elastic Constant Matrix: (Units=GPa)
#
#
# Indices 1 2 3 4 5 6 
#
# 1 133.5921 80.8541 34.3472 0.0000 0.0000 0.0000
# 2 80.8541 136.5789 32.9084 0.0000 0.0000 0.0000
# 3 34.3472 32.9084 34.7597 0.0000 0.0000 0.0000
# 4 0.0000 0.0000 0.0000 10.5175 0.0000 0.0000
# 5 0.0000 0.0000 0.0000 0.0000 0.7591 0.0000
# 6 0.0000 0.0000 0.0000 0.0000 0.0000 36.8913
#
#
#
# Elastic Compliance Matrix: (Units=1/GPa)
#
#
# Indices 1 2 3 4 5 6 
#
# 1 0.012905 -0.005917 -0.007150 0.000000 0.000000 0.000000
# 2 -0.005917 0.012198 -0.005702 0.000000 0.000000 0.000000
# 3 -0.007150 -0.005702 0.041232 0.000000 0.000000 0.000000
# 4 0.000000 0.000000 0.000000 0.095079 0.000000 0.000000
# 5 0.000000 0.000000 0.000000 0.000000 1.317268 0.000000
# 6 0.000000 0.000000 0.000000 0.000000 0.000000 0.027107
#
#
# Mechanical properties :
#
#
# Convention : Reuss Voigt Hill
#
# Bulk Modulus (GPa) = 34.72478 66.79444 50.75961
# Shear Modulus (GPa) = 3.21973 20.08833 11.65403
#
# Velocity S-wave (km/s) = 1.32746 3.31577 2.52552
# Velocity P-wave (km/s) = 4.62108 7.15651 6.02370
#
# Compressibility (1/GPa) = 0.02879788
#
# Stress axis : x y z
#
# Youngs Moduli (GPa) = 77.49045 81.97784 24.25274
#
# Poissons Ratio (x) = 0.48505 0.17341
# Poissons Ratio (y) = 0.45850 0.13829
# Poissons Ratio (z) = 0.55405 0.46745
#
# Static dielectric constant tensor:
#      x y z
#    x 3.657190 0.000000 0.000000 
#    y 0.000000 3.649320 0.000000 
#    z 0.000000 0.000000 2.887850 
# 
# 
# High freq. dielectric constant tensor:
#      x y z
#    x 1.711570 0.000000 0.000000 
#    y 0.000000 1.723300 0.000000 
#    z 0.000000 0.000000 1.650240 
# 
# From -- ./inp_files/12227.got.cif
#   From: 2010.03.12/outbox.cif.g09.slc.cpg/sg65_7_cif.got.tgz:12227.got - 2010.04.10 20:52:16.
