data_PCOD8268342
_publ_section_title
;
Structure prediction by ZEFSAII (Michael W. Deem and Ramdas Pophale) SiO2 
 PCOD8268342
Probable space group: C M M M
;
_chemical_formula_sum "Si O2"
_cell_formula_units_Z 80
_cell_length_a 23.348568
_cell_length_b 26.108612
_cell_length_c 8.804381
_cell_angle_alpha 90.000000
_cell_angle_beta 90.000000
_cell_angle_gamma 90.000000
_cell_volume 5367.139235
_symmetry_space_group_name_H-M "C M M M"
_symmetry_group_IT_number 65
_symmetry_cell_setting 'orthorhombic'
loop_
_space_group_symop_operation_xyz
x,y,z
-x,-y,z
x,-y,-z
-x,y,-z
-x,-y,-z
x,y,-z
-x,y,z
x,-y,z
1/2+x,1/2+y,z
1/2-x,1/2-y,z
1/2+x,1/2-y,-z
1/2-x,1/2+y,-z
1/2-x,1/2-y,-z
1/2+x,1/2+y,-z
1/2-x,1/2+y,z
1/2+x,1/2-y,z
loop_
_atom_site_type_symbol
_atom_site_label
_atom_site_fract_x
_atom_site_fract_y
_atom_site_fract_z
Si Si1 0.114131 0.940586 0.824236
Si Si2 0.000000 0.101548 0.320691
Si Si3 0.791244 0.701591 0.667771
Si Si4 0.616962 0.261964 0.178588
Si Si5 0.316259 0.355950 0.319960
Si Si6 0.500000 0.720227 0.320482
O O1 0.055135 0.926337 0.744704
O O2 0.167017 0.910757 0.747705
O O3 0.127170 0.000000 0.800635
O O4 0.109565 0.925686 0.000000
O O5 0.000000 0.095347 0.500000
O O6 0.000000 0.160762 0.272417
O O7 0.816772 0.690721 0.500000
O O8 0.750000 0.750000 0.659224
O O9 0.843161 0.712699 0.782934
O O10 0.750608 0.654582 0.722079
O O11 0.641968 0.313568 0.249962
O O12 0.554900 0.251779 0.249381
O O13 0.612577 0.268582 0.000000
O O14 0.325673 0.354685 0.500000
O O15 0.500000 0.727450 0.500000
#
# Coordination Sequence:
#
# PCOD8268342 Si02
#       6
#    16   8  16  16  16   8
#     4  11  23  35  47  64  86 112 145 190 236 268
#     4  11  22  34  49  62  79 114 154 189 227 267
#     4   8  16  30  46  63  85 110 139 174 213 260
#     4  11  20  29  45  67  88 111 142 179 220 262
#     4  10  19  32  48  64  83 112 146 180 218 262
#     4  11  21  32  46  63  87 118 150 184 221 259
#
# _framework density 14.905519
#
# number of rings (size 3 to 8) (size 9 to 14) (size 15 to 20)
#    0.000    1.800    2.000    5.100    0.000    8.000 
#    0.000    0.000    0.000    0.000    0.000    0.000 
#    0.000    0.000    0.000    0.900    0.000   16.800 
#
# Total GULP energy -495977.119159 kJ/mol
# GULP energy per Si atom -12399.427979 kJ/mol
# Density = 1.487159 g / cm^3
# Si number density = 14.905519 Si / 1000 Ang^3
#
#
#
# Elastic Constant Matrix: (Units=GPa)
#
#
# Indices 1 2 3 4 5 6 
#
# 1 99.4838 49.0890 52.8769 0.0000 0.0000 0.0000
# 2 49.0890 59.0844 36.6103 0.0000 0.0000 0.0000
# 3 52.8769 36.6103 96.6132 0.0000 0.0000 0.0000
# 4 0.0000 0.0000 0.0000 20.3473 0.0000 0.0000
# 5 0.0000 0.0000 0.0000 0.0000 4.0120 0.0000
# 6 0.0000 0.0000 0.0000 0.0000 0.0000 20.7602
#
#
#
# Elastic Compliance Matrix: (Units=1/GPa)
#
#
# Indices 1 2 3 4 5 6 
#
# 1 0.019277 -0.012387 -0.005856 0.000000 0.000000 0.000000
# 2 -0.012387 0.030078 -0.004618 0.000000 0.000000 0.000000
# 3 -0.005856 -0.004618 0.015306 0.000000 0.000000 0.000000
# 4 0.000000 0.000000 0.000000 0.049146 0.000000 0.000000
# 5 0.000000 0.000000 0.000000 0.000000 0.249252 0.000000
# 6 0.000000 0.000000 0.000000 0.000000 0.000000 0.048169
#
#
# Mechanical properties :
#
#
# Convention : Reuss Voigt Hill
#
# Bulk Modulus (GPa) = 52.80552 59.14823 55.97688
# Shear Modulus (GPa) = 10.79298 16.79758 13.79528
#
# Velocity S-wave (km/s) = 2.69382 3.36063 3.04553
# Velocity P-wave (km/s) = 6.72155 7.40450 7.07128
#
# Compressibility (1/GPa) = 0.01893741
#
# Stress axis : x y z
#
# Youngs Moduli (GPa) = 51.87576 33.24702 65.33464
#
# Poissons Ratio (x) = 0.41183 0.38263
# Poissons Ratio (y) = 0.64258 0.30173
# Poissons Ratio (z) = 0.30381 0.15354
#
# Static dielectric constant tensor:
#      x y z
#    x 3.045320 0.000000 0.000000 
#    y 0.000000 2.803920 0.000000 
#    z 0.000000 0.000000 3.013480 
# 
# 
# High freq. dielectric constant tensor:
#      x y z
#    x 1.563040 0.000000 0.000000 
#    y 0.000000 1.527850 0.000000 
#    z 0.000000 0.000000 1.588010 
# 
# From -- ./inp_files/12120.got.cif
#   From: 2010.03.12/outbox.cif.g09.slc.cpg/sg65_7_cif.got.tgz:12120.got - 2010.04.10 20:52:16.
