data_PCOD8268040
_publ_section_title
;
Structure prediction by ZEFSAII (Michael W. Deem and Ramdas Pophale) SiO2 
 PCOD8268040
Probable space group: C M M M
;
_chemical_formula_sum "Si O2"
_cell_formula_units_Z 72
_cell_length_a 8.667728
_cell_length_b 18.133838
_cell_length_c 23.364069
_cell_angle_alpha 90.000000
_cell_angle_beta 90.000000
_cell_angle_gamma 90.000000
_cell_volume 3672.345099
_symmetry_space_group_name_H-M "C M M M"
_symmetry_group_IT_number 65
_symmetry_cell_setting 'orthorhombic'
loop_
_space_group_symop_operation_xyz
x,y,z
-x,-y,z
x,-y,-z
-x,y,-z
-x,-y,-z
x,y,-z
-x,y,z
x,-y,z
1/2+x,1/2+y,z
1/2-x,1/2-y,z
1/2+x,1/2-y,-z
1/2-x,1/2+y,-z
1/2-x,1/2-y,-z
1/2+x,1/2+y,-z
1/2-x,1/2+y,z
1/2+x,1/2-y,z
loop_
_atom_site_type_symbol
_atom_site_label
_atom_site_fract_x
_atom_site_fract_y
_atom_site_fract_z
Si Si1 0.683279 0.169955 0.328589
Si Si2 0.316645 0.917296 0.563149
Si Si3 0.821734 0.912916 0.000000
Si Si4 0.817039 0.331070 0.893049
Si Si5 0.816662 0.417250 0.781955
O O1 0.500000 0.174256 0.329471
O O2 0.750000 0.250000 0.318710
O O3 0.749355 0.136832 0.388136
O O4 0.742341 0.118447 0.277061
O O5 0.263132 0.889813 0.500000
O O6 0.500000 0.918678 0.566431
O O7 0.254187 0.000000 0.574092
O O8 0.739475 0.881297 0.055498
O O9 0.000000 0.889287 0.000000
O O10 0.800448 0.000000 0.000000
O O11 0.750000 0.250000 0.898992
O O12 0.755593 0.368103 0.834568
O O13 0.000000 0.326355 0.894272
O O14 0.748999 0.500000 0.786848
O O15 0.000000 0.420178 0.782874
#
# Coordination Sequence:
#
# PCOD8268040 Si02
#       5
#    16  16   8  16  16
#     4  10  19  31  49  73 102 133 166 208 256 305
#     4   8  14  26  46  71  96 126 169 215 252 291
#     4  11  24  41  60  83 111 141 176 217 260 307
#     4  11  22  37  58  82 110 141 175 215 260 311
#     4   9  18  33  54  78 101 131 174 218 257 301
#
# _framework density 19.606000000000002
#
# number of rings (size 3 to 8) (size 9 to 14) (size 15 to 20)
#    0.000    2.333    0.000    4.000    0.000    4.889 
#    0.000    1.111    0.000    5.333    0.000    1.556 
#    0.000    0.000    0.000    0.000    0.000    0.000 
#
# Total GULP energy -446380.341889 kJ/mol
# GULP energy per Si atom -12399.453941 kJ/mol
# Density = 1.956138 g / cm^3
# Si number density = 19.606000 Si / 1000 Ang^3
#
#
#
# Elastic Constant Matrix: (Units=GPa)
#
#
# Indices 1 2 3 4 5 6 
#
# 1 37.8429 25.7434 28.9991 0.0000 0.0000 0.0000
# 2 25.7434 120.3309 60.7631 0.0000 0.0000 0.0000
# 3 28.9991 60.7631 164.8018 0.0000 0.0000 0.0000
# 4 0.0000 0.0000 0.0000 34.7833 0.0000 0.0000
# 5 0.0000 0.0000 0.0000 0.0000 -17.9657 0.0000
# 6 0.0000 0.0000 0.0000 0.0000 0.0000 23.9774
#
#
#
# Elastic Compliance Matrix: (Units=1/GPa)
#
#
# Indices 1 2 3 4 5 6 
#
# 1 0.032866 -0.005051 -0.003921 0.000000 0.000000 0.000000
# 2 -0.005051 0.010988 -0.003162 0.000000 0.000000 0.000000
# 3 -0.003921 -0.003162 0.007924 0.000000 0.000000 0.000000
# 4 0.000000 0.000000 0.000000 0.028749 0.000000 0.000000
# 5 0.000000 0.000000 0.000000 0.000000 -0.055662 0.000000
# 6 0.000000 0.000000 0.000000 0.000000 0.000000 0.041706
#
#
# Mechanical properties :
#
#
# Convention : Reuss Voigt Hill
#
# Bulk Modulus (GPa) = 36.35246 61.55408 48.95327
# Shear Modulus (GPa) = 49.99493 21.99033 35.99263
#
# Velocity S-wave (km/s) = 5.05521 3.35268 4.28927
# Velocity P-wave (km/s) = 7.25640 6.81550 7.03940
#
# Compressibility (1/GPa) = 0.02750846
#
# Stress axis : x y z
#
# Youngs Moduli (GPa) = 30.42678 91.00787 126.20187
#
# Poissons Ratio (x) = 0.45972 0.49480
# Poissons Ratio (y) = 0.15370 0.39911
# Poissons Ratio (z) = 0.11929 0.28781
#
# Static dielectric constant tensor:
#      x y z
#    x 3.144240 0.000000 0.000000 
#    y 0.000000 3.707960 0.000000 
#    z 0.000000 0.000000 4.012440 
# 
# 
# High freq. dielectric constant tensor:
#      x y z
#    x 1.717240 0.000000 0.000000 
#    y 0.000000 1.775110 0.000000 
#    z 0.000000 0.000000 1.786450 
# 
# From -- ./inp_files/67030.got.cif
#   From: 2010.03.12/outbox.cif.g09.slc.cpg/sg65_34_cif.got.tgz:67030.got - 2010.04.10 20:52:16.
