data_PCOD8268299
_publ_section_title
;
Structure prediction by ZEFSAII (Michael W. Deem and Ramdas Pophale) SiO2 
 PCOD8268299
Probable space group: C M M M
;
_chemical_formula_sum "Si O2"
_cell_formula_units_Z 120
_cell_length_a 21.550521
_cell_length_b 13.919155
_cell_length_c 22.121692
_cell_angle_alpha 90.000000
_cell_angle_beta 90.000000
_cell_angle_gamma 90.000000
_cell_volume 6635.734273
_symmetry_space_group_name_H-M "C M M M"
_symmetry_group_IT_number 65
_symmetry_cell_setting 'orthorhombic'
loop_
_space_group_symop_operation_xyz
x,y,z
-x,-y,z
x,-y,-z
-x,y,-z
-x,-y,-z
x,y,-z
-x,y,z
x,-y,z
1/2+x,1/2+y,z
1/2-x,1/2-y,z
1/2+x,1/2-y,-z
1/2-x,1/2+y,-z
1/2-x,1/2-y,-z
1/2+x,1/2+y,-z
1/2-x,1/2+y,z
1/2+x,1/2-y,z
loop_
_atom_site_type_symbol
_atom_site_label
_atom_site_fract_x
_atom_site_fract_y
_atom_site_fract_z
Si Si1 0.781947 0.612120 0.799585
Si Si2 0.373012 0.199191 0.432079
Si Si3 0.000000 0.392499 0.571677
Si Si4 0.359137 0.394048 0.614988
Si Si5 0.153512 0.797253 0.831470
Si Si6 0.429041 0.611057 0.070192
Si Si7 0.221234 0.608573 0.340761
Si Si8 0.571325 0.391615 0.264031
O O1 0.797527 0.500000 0.812450
O O2 0.829588 0.683687 0.833501
O O3 0.713454 0.635102 0.823770
O O4 0.788070 0.637656 0.728726
O O5 0.360071 0.159452 0.500000
O O6 0.438118 0.160761 0.405602
O O7 0.374166 0.315043 0.435814
O O8 0.319005 0.172241 0.385953
O O9 0.000000 0.500000 0.598220
O O10 0.000000 0.392971 0.500000
O O11 0.361946 0.500000 0.585068
O O12 0.292811 0.375645 0.645119
O O13 0.410716 0.383102 0.666288
O O14 0.118466 0.822356 0.893384
O O15 0.108652 0.815467 0.775228
O O16 0.500000 0.636545 0.087705
O O17 0.416164 0.500000 0.085730
O O18 0.417374 0.631378 0.000000
O O19 0.200032 0.500000 0.351825
O O20 0.500000 0.364902 0.257327
O O21 0.584878 0.500000 0.240578
#
# Coordination Sequence:
#
# PCOD8268299 Si02
#       8
#    16  16   8  16  16  16  16  16
#     4  10  21  35  52  79 111 145 181 224 277 325
#     4  11  23  37  56  79 102 135 178 222 271 330
#     4   9  20  40  59  75  95 123 170 224 266 313
#     4  10  21  35  52  77 109 139 169 214 270 330
#     4  11  19  31  57  82 108 149 185 223 267 319
#     4   9  18  33  55  86 121 151 184 230 274 309
#     4  10  20  36  57  78 106 138 174 224 279 327
#     4  10  19  31  52  81 106 134 177 224 269 322
#
# _framework density 18.083905999999999
#
# number of rings (size 3 to 8) (size 9 to 14) (size 15 to 20)
#    0.000    1.933    1.333    3.600    2.800    3.200 
#    0.000    2.667    0.000    4.000    0.000    0.933 
#    0.000    0.000    0.000    0.000    0.000    0.000 
#
# Total GULP energy -743920.918273 kJ/mol
# GULP energy per Si atom -12398.681971 kJ/mol
# Density = 1.804275 g / cm^3
# Si number density = 18.083906 Si / 1000 Ang^3
#
#
#
# Elastic Constant Matrix: (Units=GPa)
#
#
# Indices 1 2 3 4 5 6 
#
# 1 82.1976 57.1086 35.1147 0.0000 0.0000 0.0000
# 2 57.1086 126.9400 38.9047 0.0000 0.0000 0.0000
# 3 35.1147 38.9047 69.3861 0.0000 0.0000 0.0000
# 4 0.0000 0.0000 0.0000 24.6943 0.0000 0.0000
# 5 0.0000 0.0000 0.0000 0.0000 22.9497 0.0000
# 6 0.0000 0.0000 0.0000 0.0000 0.0000 16.1932
#
#
#
# Elastic Compliance Matrix: (Units=1/GPa)
#
#
# Indices 1 2 3 4 5 6 
#
# 1 0.019567 -0.006965 -0.005997 0.000000 0.000000 0.000000
# 2 -0.006965 0.011992 -0.003199 0.000000 0.000000 0.000000
# 3 -0.005997 -0.003199 0.019241 0.000000 0.000000 0.000000
# 4 0.000000 0.000000 0.000000 0.040495 0.000000 0.000000
# 5 0.000000 0.000000 0.000000 0.000000 0.043573 0.000000
# 6 0.000000 0.000000 0.000000 0.000000 0.000000 0.061754
#
#
# Mechanical properties :
#
#
# Convention : Reuss Voigt Hill
#
# Bulk Modulus (GPa) = 54.12036 60.08662 57.10349
# Shear Modulus (GPa) = 21.26732 22.59384 21.93058
#
# Velocity S-wave (km/s) = 3.43306 3.53851 3.48618
# Velocity P-wave (km/s) = 6.76068 7.07060 6.91738
#
# Compressibility (1/GPa) = 0.01847734
#
# Stress axis : x y z
#
# Youngs Moduli (GPa) = 51.10729 83.39237 51.97318
#
# Poissons Ratio (x) = 0.58081 0.31169
# Poissons Ratio (y) = 0.35595 0.16626
# Poissons Ratio (z) = 0.30649 0.26676
#
# Static dielectric constant tensor:
#      x y z
#    x 3.378590 0.000000 0.000000 
#    y 0.000000 3.494730 0.000000 
#    z 0.000000 0.000000 3.062940 
# 
# 
# High freq. dielectric constant tensor:
#      x y z
#    x 1.703480 0.000000 0.000000 
#    y 0.000000 1.700760 0.000000 
#    z 0.000000 0.000000 1.676180 
# 
# From -- ./inp_files/64754.got.cif
#   From: 2010.03.12/outbox.cif.g09.slc.cpg/sg65_33_cif.got.tgz:64754.got - 2010.04.10 20:52:16.
