data_PCOD8268123
_publ_section_title
;
Structure prediction by ZEFSAII (Michael W. Deem and Ramdas Pophale) SiO2 
 PCOD8268123
Probable space group: C M M M
;
_chemical_formula_sum "Si O2"
_cell_formula_units_Z 104
_cell_length_a 8.035552
_cell_length_b 29.333477
_cell_length_c 24.659150
_cell_angle_alpha 90.000000
_cell_angle_beta 90.000000
_cell_angle_gamma 90.000000
_cell_volume 5812.425009
_symmetry_space_group_name_H-M "C M M M"
_symmetry_group_IT_number 65
_symmetry_cell_setting 'orthorhombic'
loop_
_space_group_symop_operation_xyz
x,y,z
-x,-y,z
x,-y,-z
-x,y,-z
-x,-y,-z
x,y,-z
-x,y,z
x,-y,z
1/2+x,1/2+y,z
1/2-x,1/2-y,z
1/2+x,1/2-y,-z
1/2-x,1/2+y,-z
1/2-x,1/2-y,-z
1/2+x,1/2+y,-z
1/2-x,1/2+y,z
1/2+x,1/2-y,z
loop_
_atom_site_type_symbol
_atom_site_label
_atom_site_fract_x
_atom_site_fract_y
_atom_site_fract_z
Si Si1 0.500000 0.445945 0.439419
Si Si2 0.800356 0.895520 0.263494
Si Si3 0.310437 0.298259 0.234390
Si Si4 0.695042 0.797437 0.886778
Si Si5 0.811229 0.553120 0.631865
Si Si6 0.303517 0.890435 0.060655
Si Si7 0.193855 0.949584 0.158916
O O1 0.500000 0.500000 0.442170
O O2 0.500000 0.425193 0.500000
O O3 0.669962 0.429131 0.410025
O O4 0.731939 0.843266 0.262301
O O5 0.709563 0.920151 0.312475
O O6 0.735483 0.918997 0.207932
O O7 0.000000 0.899043 0.269386
O O8 0.500000 0.301211 0.248978
O O9 0.250000 0.250000 0.258757
O O10 0.287590 0.301025 0.170237
O O11 0.500000 0.798051 0.875477
O O12 0.750000 0.750000 0.915397
O O13 0.752757 0.839158 0.924263
O O14 0.781947 0.500000 0.644064
O O15 0.000000 0.561292 0.609313
O O16 0.500000 0.894488 0.064077
O O17 0.225659 0.926823 0.100993
O O18 0.239142 0.900952 0.000000
O O19 0.000000 0.954715 0.167691
O O20 0.276543 0.000000 0.159984
#
# Coordination Sequence:
#
# PCOD8268123 Si02
#       7
#     8  16  16  16  16  16  16
#     4   9  18  34  54  76 114 160 193 231 273 305
#     4  10  19  33  53  74 105 142 171 213 268 319
#     4  10  19  31  50  74 101 133 165 200 256 320
#     4  10  19  32  51  71  94 121 156 199 251 313
#     4  10  20  32  51  81 113 150 193 230 269 315
#     4  10  22  38  52  68  93 124 160 206 260 314
#     4  10  21  36  54  74  95 125 165 207 256 312
#
# _framework density 17.892704999999999
#
# number of rings (size 3 to 8) (size 9 to 14) (size 15 to 20)
#    0.000    2.077    2.308    2.308    0.000    4.615 
#    0.000    3.077    0.000    0.000    0.000    0.000 
#    0.000    0.615    0.308    0.000    0.000    0.000 
#
# Total GULP energy -644558.979073 kJ/mol
# GULP energy per Si atom -12395.364982 kJ/mol
# Density = 1.785198 g / cm^3
# Si number density = 17.892705 Si / 1000 Ang^3
#
#
#
# Elastic Constant Matrix: (Units=GPa)
#
#
# Indices 1 2 3 4 5 6 
#
# 1 57.0804 35.0292 32.1467 0.0000 0.0000 0.0000
# 2 35.0292 128.7750 49.7301 0.0000 0.0000 0.0000
# 3 32.1467 49.7301 104.2751 0.0000 0.0000 0.0000
# 4 0.0000 0.0000 0.0000 98.7729 0.0000 0.0000
# 5 0.0000 0.0000 0.0000 0.0000 18.3279 0.0000
# 6 0.0000 0.0000 0.0000 0.0000 0.0000 22.6822
#
#
#
# Elastic Compliance Matrix: (Units=1/GPa)
#
#
# Indices 1 2 3 4 5 6 
#
# 1 0.023001 -0.004313 -0.005034 0.000000 0.000000 0.000000
# 2 -0.004313 0.010327 -0.003596 0.000000 0.000000 0.000000
# 3 -0.005034 -0.003596 0.012857 0.000000 0.000000 0.000000
# 4 0.000000 0.000000 0.000000 0.010124 0.000000 0.000000
# 5 0.000000 0.000000 0.000000 0.000000 0.054561 0.000000
# 6 0.000000 0.000000 0.000000 0.000000 0.000000 0.044087
#
#
# Mechanical properties :
#
#
# Convention : Reuss Voigt Hill
#
# Bulk Modulus (GPa) = 49.26095 58.21585 53.73840
# Shear Modulus (GPa) = 26.65113 39.50492 33.07803
#
# Velocity S-wave (km/s) = 3.86359 4.70390 4.30430
# Velocity P-wave (km/s) = 6.89160 7.88093 7.40281
#
# Compressibility (1/GPa) = 0.02030005
#
# Stress axis : x y z
#
# Youngs Moduli (GPa) = 43.47662 96.83226 77.77998
#
# Poissons Ratio (x) = 0.41760 0.39156
# Poissons Ratio (y) = 0.18750 0.27967
# Poissons Ratio (z) = 0.21887 0.34817
#
# Static dielectric constant tensor:
#      x y z
#    x 3.310260 0.000000 0.000000 
#    y 0.000000 2.453960 0.000000 
#    z 0.000000 0.000000 3.170090 
# 
# 
# High freq. dielectric constant tensor:
#      x y z
#    x 1.693680 0.000000 0.000000 
#    y 0.000000 1.692600 0.000000 
#    z 0.000000 0.000000 1.656510 
# 
# From -- ./inp_files/68517.got.cif
#   From: 2010.03.12/outbox.cif.g09.slc.cpg/sg65_35_cif.got.tgz:68517.got - 2010.04.10 20:52:16.
