data_PCOD8268185
_publ_section_title
;
Structure prediction by ZEFSAII (Michael W. Deem and Ramdas Pophale) SiO2 
 PCOD8268185
Probable space group: C M M M
;
_chemical_formula_sum "Si O2"
_cell_formula_units_Z 80
_cell_length_a 18.437895
_cell_length_b 14.845911
_cell_length_c 16.909213
_cell_angle_alpha 90.000000
_cell_angle_beta 90.000000
_cell_angle_gamma 90.000000
_cell_volume 4628.514035
_symmetry_space_group_name_H-M "C M M M"
_symmetry_group_IT_number 65
_symmetry_cell_setting 'orthorhombic'
loop_
_space_group_symop_operation_xyz
x,y,z
-x,-y,z
x,-y,-z
-x,y,-z
-x,-y,-z
x,y,-z
-x,y,z
x,-y,z
1/2+x,1/2+y,z
1/2-x,1/2-y,z
1/2+x,1/2-y,-z
1/2-x,1/2+y,-z
1/2-x,1/2-y,-z
1/2+x,1/2+y,-z
1/2-x,1/2+y,z
1/2+x,1/2-y,z
loop_
_atom_site_type_symbol
_atom_site_label
_atom_site_fract_x
_atom_site_fract_y
_atom_site_fract_z
Si Si1 0.794054 0.604140 0.835411
Si Si2 0.079139 0.802705 0.000000
Si Si3 0.228671 0.894665 0.000000
Si Si4 0.081222 0.106489 0.586352
Si Si5 0.851208 0.104107 0.746226
Si Si6 0.919482 0.265261 0.168241
O O1 0.816410 0.500000 0.843473
O O2 0.732311 0.617556 0.769453
O O3 0.862332 0.659993 0.802651
O O4 0.766334 0.643618 0.920256
O O5 0.143300 0.875007 0.000000
O O6 0.084397 0.735980 0.926099
O O7 0.000000 0.852371 0.000000
O O8 0.237511 0.000000 0.000000
O O9 0.106466 0.144110 0.500000
O O10 0.136987 0.135925 0.655253
O O11 0.000000 0.142490 0.605780
O O12 0.078814 0.000000 0.581984
O O13 0.901589 0.165175 0.801230
O O14 0.874829 0.000000 0.759159
O O15 0.000000 0.292616 0.197497
#
# Coordination Sequence:
#
# PCOD8268185 Si02
#       6
#    16   8   8  16  16  16
#     4  10  21  35  52  71  93 129 173 210 245 284
#     4  10  21  32  46  72 100 129 163 201 247 294
#     4  10  19  34  52  70  94 132 170 203 246 289
#     4   8  14  26  45  70 102 135 159 185 231 291
#     4  10  19  31  50  77 103 127 159 196 239 297
#     4  11  22  34  50  71  98 132 166 206 250 287
#
# _framework density 17.284165000000002
#
# number of rings (size 3 to 8) (size 9 to 14) (size 15 to 20)
#    0.000    2.200    2.000    2.400    0.000    2.600 
#    0.000    2.000    0.000    6.000    0.000    0.000 
#    0.000    0.000    0.000   12.000    0.000    0.200 
#
# Total GULP energy -495778.950508 kJ/mol
# GULP energy per Si atom -12394.473763 kJ/mol
# Density = 1.724483 g / cm^3
# Si number density = 17.284165 Si / 1000 Ang^3
#
#
#
# Elastic Constant Matrix: (Units=GPa)
#
#
# Indices 1 2 3 4 5 6 
#
# 1 131.2450 51.5274 50.8474 0.0000 0.0000 0.0000
# 2 51.5274 53.9674 33.1018 0.0000 0.0000 0.0000
# 3 50.8474 33.1018 102.7542 0.0000 0.0000 0.0000
# 4 0.0000 0.0000 0.0000 7.3258 0.0000 0.0000
# 5 0.0000 0.0000 0.0000 0.0000 15.9116 0.0000
# 6 0.0000 0.0000 0.0000 0.0000 0.0000 24.4154
#
#
#
# Elastic Compliance Matrix: (Units=1/GPa)
#
#
# Indices 1 2 3 4 5 6 
#
# 1 0.012894 -0.010465 -0.003009 0.000000 0.000000 0.000000
# 2 -0.010465 0.031587 -0.004997 0.000000 0.000000 0.000000
# 3 -0.003009 -0.004997 0.012831 0.000000 0.000000 0.000000
# 4 0.000000 0.000000 0.000000 0.136504 0.000000 0.000000
# 5 0.000000 0.000000 0.000000 0.000000 0.062847 0.000000
# 6 0.000000 0.000000 0.000000 0.000000 0.000000 0.040958
#
#
# Mechanical properties :
#
#
# Convention : Reuss Voigt Hill
#
# Bulk Modulus (GPa) = 49.09454 62.10220 55.59837
# Shear Modulus (GPa) = 14.64765 19.69657 17.17211
#
# Velocity S-wave (km/s) = 2.91428 3.37942 3.15543
# Velocity P-wave (km/s) = 6.30793 7.15789 6.74631
#
# Compressibility (1/GPa) = 0.02036886
#
# Stress axis : x y z
#
# Youngs Moduli (GPa) = 77.55664 31.65900 77.93789
#
# Poissons Ratio (x) = 0.33132 0.23453
# Poissons Ratio (y) = 0.81164 0.38945
# Poissons Ratio (z) = 0.23338 0.15820
#
# Static dielectric constant tensor:
#      x y z
#    x 3.270020 0.000000 0.000000 
#    y 0.000000 2.887680 0.000000 
#    z 0.000000 0.000000 3.602690 
# 
# 
# High freq. dielectric constant tensor:
#      x y z
#    x 1.664200 0.000000 0.000000 
#    y 0.000000 1.634320 0.000000 
#    z 0.000000 0.000000 1.658460 
# 
# From -- ./inp_files/52924.got.cif
#   From: 2010.03.12/outbox.cif.g09.slc.cpg/sg65_27_cif.got.tgz:52924.got - 2010.04.10 20:52:16.
