data_PCOD8268057
_publ_section_title
;
Structure prediction by ZEFSAII (Michael W. Deem and Ramdas Pophale) SiO2 
 PCOD8268057
Probable space group: C M M M
;
_chemical_formula_sum "Si O2"
_cell_formula_units_Z 80
_cell_length_a 18.263783
_cell_length_b 16.022209
_cell_length_c 14.027444
_cell_angle_alpha 90.000000
_cell_angle_beta 90.000000
_cell_angle_gamma 90.000000
_cell_volume 4104.796909
_symmetry_space_group_name_H-M "C M M M"
_symmetry_group_IT_number 65
_symmetry_cell_setting 'orthorhombic'
loop_
_space_group_symop_operation_xyz
x,y,z
-x,-y,z
x,-y,-z
-x,y,-z
-x,-y,-z
x,y,-z
-x,y,z
x,-y,z
1/2+x,1/2+y,z
1/2-x,1/2-y,z
1/2+x,1/2-y,-z
1/2-x,1/2+y,-z
1/2-x,1/2-y,-z
1/2+x,1/2+y,-z
1/2-x,1/2+y,z
1/2+x,1/2-y,z
loop_
_atom_site_type_symbol
_atom_site_label
_atom_site_fract_x
_atom_site_fract_y
_atom_site_fract_z
Si Si1 0.278630 0.344067 0.202692
Si Si2 0.776525 0.655865 0.396383
Si Si3 0.083090 0.401134 0.699721
Si Si4 0.582370 0.403147 0.109949
Si Si5 0.644050 0.904046 0.103389
O O1 0.250000 0.250000 0.206679
O O2 0.268201 0.385715 0.308308
O O3 0.363198 0.347348 0.173146
O O4 0.230425 0.393855 0.125633
O O5 0.762840 0.612289 0.500000
O O6 0.750000 0.750000 0.405561
O O7 0.863240 0.648448 0.371613
O O8 0.099563 0.500000 0.693317
O O9 0.096697 0.367921 0.808402
O O10 0.000000 0.380838 0.670156
O O11 0.500000 0.383362 0.143926
O O12 0.600630 0.500000 0.125896
O O13 0.591783 0.378934 0.000000
O O14 0.624738 0.000000 0.092336
O O15 0.626269 0.860890 0.000000
#
# Coordination Sequence:
#
# PCOD8268057 Si02
#       5
#    16  16  16  16  16
#     4  10  19  31  49  73  99 126 162 208 251 288
#     4   9  19  36  53  69  94 130 169 203 241 295
#     4   9  18  32  51  77 104 127 158 203 249 288
#     4   9  18  33  53  75  99 131 168 200 234 283
#     4   9  17  29  46  69 100 138 170 193 228 287
#
# _framework density 19.489393
#
# number of rings (size 3 to 8) (size 9 to 14) (size 15 to 20)
#    0.000    2.800    0.000    1.800    0.000    5.200 
#    0.000   12.000    0.000    1.800    0.000    1.400 
#    0.000    0.000    0.000    0.000    0.000    0.000 
#
# Total GULP energy -495561.084058 kJ/mol
# GULP energy per Si atom -12389.027101 kJ/mol
# Density = 1.944503 g / cm^3
# Si number density = 19.489393 Si / 1000 Ang^3
#
#
#
# Elastic Constant Matrix: (Units=GPa)
#
#
# Indices 1 2 3 4 5 6 
#
# 1 147.0555 36.8066 56.6000 0.0000 0.0000 0.0000
# 2 36.8066 33.6660 27.0558 0.0000 0.0000 0.0000
# 3 56.6000 27.0558 137.7203 0.0000 0.0000 0.0000
# 4 0.0000 0.0000 0.0000 53.9557 0.0000 0.0000
# 5 0.0000 0.0000 0.0000 0.0000 13.3290 0.0000
# 6 0.0000 0.0000 0.0000 0.0000 0.0000 31.6038
#
#
#
# Elastic Compliance Matrix: (Units=1/GPa)
#
#
# Indices 1 2 3 4 5 6 
#
# 1 0.009948 -0.009014 -0.002318 0.000000 0.000000 0.000000
# 2 -0.009014 0.043439 -0.004829 0.000000 0.000000 0.000000
# 3 -0.002318 -0.004829 0.009162 0.000000 0.000000 0.000000
# 4 0.000000 0.000000 0.000000 0.018534 0.000000 0.000000
# 5 0.000000 0.000000 0.000000 0.000000 0.075025 0.000000
# 6 0.000000 0.000000 0.000000 0.000000 0.000000 0.031642
#
#
# Mechanical properties :
#
#
# Convention : Reuss Voigt Hill
#
# Bulk Modulus (GPa) = 33.08162 62.15184 47.61673
# Shear Modulus (GPa) = 21.72518 32.97632 27.35075
#
# Velocity S-wave (km/s) = 3.34236 4.11787 3.75022
# Velocity P-wave (km/s) = 5.64856 7.38705 6.57551
#
# Compressibility (1/GPa) = 0.03022827
#
# Stress axis : x y z
#
# Youngs Moduli (GPa) = 100.52012 23.02065 109.14170
#
# Poissons Ratio (x) = 0.20750 0.25296
# Poissons Ratio (y) = 0.90605 0.52709
# Poissons Ratio (z) = 0.23298 0.11118
#
# Static dielectric constant tensor:
#      x y z
#    x 3.516140 0.000000 0.000000 
#    y 0.000000 3.206900 0.000000 
#    z 0.000000 0.000000 4.180230 
# 
# 
# High freq. dielectric constant tensor:
#      x y z
#    x 1.748900 0.000000 0.000000 
#    y 0.000000 1.725980 0.000000 
#    z 0.000000 0.000000 1.762890 
# 
# From -- ./inp_files/42335.got.cif
#   From: 2010.03.12/outbox.cif.g09.slc.cpg/sg65_22_cif.got.tgz:42335.got - 2010.04.10 20:52:16.
