data_PCOD8268843
_publ_section_title
;
Structure prediction by ZEFSAII (Michael W. Deem and Ramdas Pophale) SiO2 
 PCOD8268843
Probable space group: C M M M
;
_chemical_formula_sum "Si O2"
_cell_formula_units_Z 96
_cell_length_a 9.421313
_cell_length_b 25.549049
_cell_length_c 27.345225
_cell_angle_alpha 90.000000
_cell_angle_beta 90.000000
_cell_angle_gamma 90.000000
_cell_volume 6582.148448
_symmetry_space_group_name_H-M "C M M M"
_symmetry_group_IT_number 65
_symmetry_cell_setting 'orthorhombic'
loop_
_space_group_symop_operation_xyz
x,y,z
-x,-y,z
x,-y,-z
-x,y,-z
-x,-y,-z
x,y,-z
-x,y,z
x,-y,z
1/2+x,1/2+y,z
1/2-x,1/2-y,z
1/2+x,1/2-y,-z
1/2-x,1/2+y,-z
1/2-x,1/2-y,-z
1/2+x,1/2+y,-z
1/2-x,1/2+y,z
1/2+x,1/2-y,z
loop_
_atom_site_type_symbol
_atom_site_label
_atom_site_fract_x
_atom_site_fract_y
_atom_site_fract_z
Si Si1 0.835037 0.907075 0.106227
Si Si2 0.668433 0.442704 0.500000
Si Si3 0.335547 0.700103 0.056193
Si Si4 0.839799 0.562397 0.695267
Si Si5 0.837979 0.060443 0.786714
Si Si6 0.840186 0.937288 0.395089
Si Si7 0.664998 0.000000 0.057712
O O1 0.790771 0.850011 0.087642
O O2 0.806589 0.907460 0.164172
O O3 0.000000 0.919829 0.094702
O O4 0.737981 0.948699 0.079109
O O5 0.740042 0.500000 0.500000
O O6 0.500000 0.449065 0.500000
O O7 0.711291 0.414659 0.551483
O O8 0.500000 0.713140 0.062474
O O9 0.250000 0.750000 0.076124
O O10 0.296309 0.688293 0.000000
O O11 0.833746 0.500000 0.694548
O O12 0.760779 0.583095 0.743714
O O13 0.762882 0.584835 0.646917
O O14 0.000000 0.583485 0.695843
O O15 0.000000 0.066934 0.769421
O O16 0.803530 0.000000 0.798035
O O17 0.000000 0.918481 0.383161
O O18 0.836219 0.000000 0.397234
O O19 0.500000 0.000000 0.072631
O O20 0.685630 0.000000 0.000000
#
# Coordination Sequence:
#
# PCOD8268843 Si02
#       7
#    16   8  16  16  16  16   8
#     4  10  19  33  50  66  83 109 142 171 199 240
#     4   7  10  16  27  41  55  73 105 149 192 227
#     4   9  18  32  50  69  87 108 134 165 201 240
#     4   9  16  23  31  45  66  91 118 149 189 234
#     4   9  16  27  41  56  73  96 128 162 194 230
#     4   8  12  19  30  42  56  79 112 150 189 228
#     4  11  23  33  43  65  93 115 133 160 203 248
#
# _framework density 14.584902
#
# number of rings (size 3 to 8) (size 9 to 14) (size 15 to 20)
#    0.000    3.000    0.833    2.250    0.000    4.667 
#    0.000    2.083    0.000    2.500    0.000    0.000 
#    0.000    0.000    0.000    0.000    0.000    0.000 
#
# Total GULP energy -594922.123673 kJ/mol
# GULP energy per Si atom -12394.210910 kJ/mol
# Density = 1.455171 g / cm^3
# Si number density = 14.584902 Si / 1000 Ang^3
#
#
#
# Elastic Constant Matrix: (Units=GPa)
#
#
# Indices 1 2 3 4 5 6 
#
# 1 88.2667 37.5062 66.5812 0.0000 0.0000 0.0000
# 2 37.5062 57.8746 45.0441 0.0000 0.0000 0.0000
# 3 66.5812 45.0441 126.3413 0.0000 0.0000 0.0000
# 4 0.0000 0.0000 0.0000 19.5443 0.0000 0.0000
# 5 0.0000 0.0000 0.0000 0.0000 16.6186 0.0000
# 6 0.0000 0.0000 0.0000 0.0000 0.0000 14.7266
#
#
#
# Elastic Compliance Matrix: (Units=1/GPa)
#
#
# Indices 1 2 3 4 5 6 
#
# 1 0.020557 -0.006769 -0.008420 0.000000 0.000000 0.000000
# 2 -0.006769 0.026143 -0.005754 0.000000 0.000000 0.000000
# 3 -0.008420 -0.005754 0.014404 0.000000 0.000000 0.000000
# 4 0.000000 0.000000 0.000000 0.051166 0.000000 0.000000
# 5 0.000000 0.000000 0.000000 0.000000 0.060174 0.000000
# 6 0.000000 0.000000 0.000000 0.000000 0.000000 0.067904
#
#
# Mechanical properties :
#
#
# Convention : Reuss Voigt Hill
#
# Bulk Modulus (GPa) = 52.03202 63.41619 57.72410
# Shear Modulus (GPa) = 17.32266 18.40132 17.86199
#
# Velocity S-wave (km/s) = 3.45006 3.55585 3.50335
# Velocity P-wave (km/s) = 7.18493 7.77392 7.48522
#
# Compressibility (1/GPa) = 0.01921893
#
# Stress axis : x y z
#
# Youngs Moduli (GPa) = 48.64537 38.25053 69.42594
#
# Poissons Ratio (x) = 0.25891 0.58458
# Poissons Ratio (y) = 0.32926 0.39946
# Poissons Ratio (z) = 0.40960 0.22009
#
# Static dielectric constant tensor:
#      x y z
#    x 2.870370 0.000000 0.000000 
#    y 0.000000 2.569980 0.000000 
#    z 0.000000 0.000000 3.129090 
# 
# 
# High freq. dielectric constant tensor:
#      x y z
#    x 1.556160 0.000000 0.000000 
#    y 0.000000 1.483800 0.000000 
#    z 0.000000 0.000000 1.572030 
# 
# From -- ./inp_files/73520.got.cif
#   From: 2010.03.12/outbox.cif.g09.slc.cpg/sg65_37_cif.got.tgz:73520.got - 2010.04.10 20:52:16.
