data_PCOD8268209
_publ_section_title
;
Structure prediction by ZEFSAII (Michael W. Deem and Ramdas Pophale) SiO2 
 PCOD8268209
Probable space group: C M M M
;
_chemical_formula_sum "Si O2"
_cell_formula_units_Z 76
_cell_length_a 13.976671
_cell_length_b 23.551244
_cell_length_c 11.424963
_cell_angle_alpha 90.000000
_cell_angle_beta 90.000000
_cell_angle_gamma 90.000000
_cell_volume 3760.732095
_symmetry_space_group_name_H-M "C M M M"
_symmetry_group_IT_number 65
_symmetry_cell_setting 'orthorhombic'
loop_
_space_group_symop_operation_xyz
x,y,z
-x,-y,z
x,-y,-z
-x,y,-z
-x,-y,-z
x,y,-z
-x,y,z
x,-y,z
1/2+x,1/2+y,z
1/2-x,1/2-y,z
1/2+x,1/2-y,-z
1/2-x,1/2+y,-z
1/2-x,1/2-y,-z
1/2+x,1/2+y,-z
1/2-x,1/2+y,z
1/2+x,1/2-y,z
loop_
_atom_site_type_symbol
_atom_site_label
_atom_site_fract_x
_atom_site_fract_y
_atom_site_fract_z
Si Si1 0.385501 0.500000 0.763838
Si Si2 0.736403 0.119576 0.000000
Si Si3 0.228915 0.000000 0.000000
Si Si4 0.891258 0.655621 0.637221
Si Si5 0.612793 0.227192 0.000000
Si Si6 0.708068 0.385070 0.745077
Si Si7 0.610704 0.273627 0.754348
O O1 0.500000 0.500000 0.760675
O O2 0.344650 0.500000 0.893211
O O3 0.345491 0.557596 0.701635
O O4 0.648704 0.162515 0.000000
O O5 0.801829 0.124603 0.115396
O O6 0.699758 0.053943 0.000000
O O7 0.877103 0.648354 0.500000
O O8 0.818880 0.612849 0.703370
O O9 0.867334 0.720151 0.672282
O O10 0.000000 0.640374 0.675085
O O11 0.651060 0.260122 0.114646
O O12 0.500000 0.221807 0.000000
O O13 0.659282 0.328229 0.693226
O O14 0.500000 0.287435 0.763730
#
# Coordination Sequence:
#
# PCOD8268209 Si02
#       7
#     8   8   4  16   8  16  16
#     4  10  21  38  58  84 116 151 189 229 269 323
#     4  10  19  31  51  80 115 150 190 224 267 327
#     4   8  19  34  51  80 116 160 191 216 260 328
#     4  10  22  39  58  82 111 143 184 232 284 342
#     4  10  19  31  50  81 121 152 180 228 283 328
#     4  11  21  35  58  82 114 151 189 228 275 327
#     4  10  20  33  53  84 117 150 184 225 277 335
#
# _framework density 20.208832999999998
#
# number of rings (size 3 to 8) (size 9 to 14) (size 15 to 20)
#    0.000    1.895    2.105    2.053    0.000    2.526 
#    0.000    4.474    0.000    7.579    0.000    0.000 
#    0.000    0.000    0.000    0.000    0.000    0.000 
#
# Total GULP energy -470960.841569 kJ/mol
# GULP energy per Si atom -12393.706357 kJ/mol
# Density = 2.016284 g / cm^3
# Si number density = 20.208833 Si / 1000 Ang^3
#
#
#
# Elastic Constant Matrix: (Units=GPa)
#
#
# Indices 1 2 3 4 5 6 
#
# 1 108.6885 80.2694 25.7344 0.0000 0.0000 0.0000
# 2 80.2694 153.5923 10.6137 0.0000 0.0000 0.0000
# 3 25.7344 10.6137 48.2110 0.0000 0.0000 0.0000
# 4 0.0000 0.0000 0.0000 -7.7902 0.0000 0.0000
# 5 0.0000 0.0000 0.0000 0.0000 9.8307 0.0000
# 6 0.0000 0.0000 0.0000 0.0000 0.0000 34.5930
#
#
#
# Elastic Compliance Matrix: (Units=1/GPa)
#
#
# Indices 1 2 3 4 5 6 
#
# 1 0.017195 -0.008481 -0.007312 0.000000 0.000000 0.000000
# 2 -0.008481 0.010795 0.002151 0.000000 0.000000 0.000000
# 3 -0.007312 0.002151 0.024171 0.000000 0.000000 0.000000
# 4 0.000000 0.000000 0.000000 -0.128366 0.000000 0.000000
# 5 0.000000 0.000000 0.000000 0.000000 0.101722 0.000000
# 6 0.000000 0.000000 0.000000 0.000000 0.000000 0.028908
#
#
# Mechanical properties :
#
#
# Convention : Reuss Voigt Hill
#
# Bulk Modulus (GPa) = 40.19722 60.41408 50.30565
# Shear Modulus (GPa) = 55.55431 20.25165 37.90298
#
# Velocity S-wave (km/s) = 5.24879 3.16906 4.33548
# Velocity P-wave (km/s) = 7.52776 6.58410 7.07169
#
# Compressibility (1/GPa) = 0.02487734
#
# Stress axis : x y z
#
# Youngs Moduli (GPa) = 58.15490 92.63917 41.37107
#
# Poissons Ratio (x) = 0.78570 0.30249
# Poissons Ratio (y) = 0.49323 -0.08898
# Poissons Ratio (z) = 0.42520 -0.19925
#
# Static dielectric constant tensor:
#      x y z
#    x 3.594510 0.000000 0.000000 
#    y 0.000000 3.945140 0.000000 
#    z 0.000000 0.000000 3.569840 
# 
# 
# High freq. dielectric constant tensor:
#      x y z
#    x 1.786320 0.000000 0.000000 
#    y 0.000000 1.788800 0.000000 
#    z 0.000000 0.000000 1.766500 
# 
# From -- ./inp_files/24752.got.cif
#   From: 2010.03.12/outbox.cif.g09.slc.cpg/sg65_13_cif.got.tgz:24752.got - 2010.04.10 20:52:16.
