data_PCOD8268484
_publ_section_title
;
Structure prediction by ZEFSAII (Michael W. Deem and Ramdas Pophale) SiO2 
 PCOD8268484
Probable space group: C M M M
;
_chemical_formula_sum "Si O2"
_cell_formula_units_Z 88
_cell_length_a 19.328770
_cell_length_b 21.504426
_cell_length_c 12.836392
_cell_angle_alpha 90.000000
_cell_angle_beta 90.000000
_cell_angle_gamma 90.000000
_cell_volume 5335.499017
_symmetry_space_group_name_H-M "C M M M"
_symmetry_group_IT_number 65
_symmetry_cell_setting 'orthorhombic'
loop_
_space_group_symop_operation_xyz
x,y,z
-x,-y,z
x,-y,-z
-x,y,-z
-x,-y,-z
x,y,-z
-x,y,z
x,-y,z
1/2+x,1/2+y,z
1/2-x,1/2-y,z
1/2+x,1/2-y,-z
1/2-x,1/2+y,-z
1/2-x,1/2-y,-z
1/2+x,1/2+y,-z
1/2-x,1/2+y,z
1/2+x,1/2-y,z
loop_
_atom_site_type_symbol
_atom_site_label
_atom_site_fract_x
_atom_site_fract_y
_atom_site_fract_z
Si Si1 0.212738 0.074312 0.000000
Si Si2 0.834673 0.385286 0.384139
Si Si3 0.727548 0.150491 0.819805
Si Si4 0.641043 0.734667 0.178758
Si Si5 0.421444 0.661566 0.000000
Si Si6 0.079477 0.738558 0.386894
Si Si7 0.076442 0.500000 0.376669
O O1 0.259232 0.094256 0.900259
O O2 0.136030 0.106218 0.000000
O O3 0.202453 0.000000 0.000000
O O4 0.803181 0.399887 0.500000
O O5 0.774128 0.374969 0.299104
O O6 0.884042 0.327095 0.393517
O O7 0.881406 0.440402 0.338906
O O8 0.657523 0.191563 0.841516
O O9 0.789344 0.197435 0.834916
O O10 0.613164 0.721177 0.295185
O O11 0.585632 0.707359 0.098663
O O12 0.500000 0.633769 0.000000
O O13 0.088143 0.772356 0.500000
O O14 0.000000 0.726522 0.360523
O O15 0.069250 0.500000 0.500000
O O16 0.000000 0.500000 0.325568
#
# Coordination Sequence:
#
# PCOD8268484 Si02
#       7
#     8  16  16  16   8  16   8
#     4  10  21  34  49  67  89 120 151 186 231 275
#     4   9  17  27  42  64  89 118 149 183 217 254
#     4   9  18  31  47  67  91 117 149 184 222 271
#     4   9  17  30  47  68  92 116 146 185 225 266
#     4  10  19  32  51  71  90 113 148 191 230 272
#     4   9  16  26  41  64  94 122 147 176 216 266
#     4   9  16  26  40  59  85 117 151 183 212 244
#
# _framework density 16.493303000000001
#
# number of rings (size 3 to 8) (size 9 to 14) (size 15 to 20)
#    0.000    2.818    0.000    1.636    1.273    5.273 
#    0.000    3.636    0.000    0.000    0.000    0.636 
#    0.000    0.000    0.000   19.273    0.000    0.364 
#
# Total GULP energy -545105.685532 kJ/mol
# GULP energy per Si atom -12388.765580 kJ/mol
# Density = 1.645576 g / cm^3
# Si number density = 16.493303 Si / 1000 Ang^3
#
#
#
# Elastic Constant Matrix: (Units=GPa)
#
#
# Indices 1 2 3 4 5 6 
#
# 1 49.5083 17.4604 22.8566 0.0000 0.0000 0.0000
# 2 17.4604 61.2153 50.6450 0.0000 0.0000 0.0000
# 3 22.8566 50.6450 82.9028 0.0000 0.0000 0.0000
# 4 0.0000 0.0000 0.0000 15.4432 0.0000 0.0000
# 5 0.0000 0.0000 0.0000 0.0000 20.7269 0.0000
# 6 0.0000 0.0000 0.0000 0.0000 0.0000 7.7453
#
#
#
# Elastic Compliance Matrix: (Units=1/GPa)
#
#
# Indices 1 2 3 4 5 6 
#
# 1 0.023363 -0.002699 -0.004793 0.000000 0.000000 0.000000
# 2 -0.002699 0.033341 -0.019624 0.000000 0.000000 0.000000
# 3 -0.004793 -0.019624 0.025372 0.000000 0.000000 0.000000
# 4 0.000000 0.000000 0.000000 0.064753 0.000000 0.000000
# 5 0.000000 0.000000 0.000000 0.000000 0.048246 0.000000
# 6 0.000000 0.000000 0.000000 0.000000 0.000000 0.129111
#
#
# Mechanical properties :
#
#
# Convention : Reuss Voigt Hill
#
# Bulk Modulus (GPa) = 35.91262 41.72782 38.82022
# Shear Modulus (GPa) = 12.89664 15.62738 14.26201
#
# Velocity S-wave (km/s) = 2.79934 3.08149 2.94379
# Velocity P-wave (km/s) = 5.68064 6.16567 5.92812
#
# Compressibility (1/GPa) = 0.02784536
#
# Stress axis : x y z
#
# Youngs Moduli (GPa) = 42.80270 29.99334 39.41406
#
# Poissons Ratio (x) = 0.08095 0.18890
# Poissons Ratio (y) = 0.11551 0.77345
# Poissons Ratio (z) = 0.20514 0.58858
#
# Static dielectric constant tensor:
#      x y z
#    x 3.124410 0.000000 0.000000 
#    y 0.000000 2.968210 0.000000 
#    z 0.000000 0.000000 8.606270 
# 
# 
# High freq. dielectric constant tensor:
#      x y z
#    x 1.619640 0.000000 0.000000 
#    y 0.000000 1.609220 0.000000 
#    z 0.000000 0.000000 1.642050 
# 
# From -- ./inp_files/26868.got.cif
#   From: 2010.03.12/outbox.cif.g09.slc.cpg/sg65_14_cif.got.tgz:26868.got - 2010.04.10 20:52:16.
