data_PCOD8268477
_publ_section_title
;
Structure prediction by ZEFSAII (Michael W. Deem and Ramdas Pophale) SiO2 
 PCOD8268477
Probable space group: C M M M
;
_chemical_formula_sum "Si O2"
_cell_formula_units_Z 104
_cell_length_a 26.893998
_cell_length_b 13.055646
_cell_length_c 15.770706
_cell_angle_alpha 90.000000
_cell_angle_beta 90.000000
_cell_angle_gamma 90.000000
_cell_volume 5537.386909
_symmetry_space_group_name_H-M "C M M M"
_symmetry_group_IT_number 65
_symmetry_cell_setting 'orthorhombic'
loop_
_space_group_symop_operation_xyz
x,y,z
-x,-y,z
x,-y,-z
-x,y,-z
-x,-y,-z
x,y,-z
-x,y,z
x,-y,z
1/2+x,1/2+y,z
1/2-x,1/2-y,z
1/2+x,1/2-y,-z
1/2-x,1/2+y,-z
1/2-x,1/2-y,-z
1/2+x,1/2+y,-z
1/2-x,1/2+y,z
1/2+x,1/2-y,z
loop_
_atom_site_type_symbol
_atom_site_label
_atom_site_fract_x
_atom_site_fract_y
_atom_site_fract_z
Si Si1 0.609156 0.116860 0.271334
Si Si2 0.055346 0.718871 0.597163
Si Si3 0.646719 0.619470 0.901725
Si Si4 0.807535 0.230031 0.254542
Si Si5 0.136457 0.880753 0.596973
Si Si6 0.941168 0.611551 0.000000
Si Si7 0.942504 0.757099 0.146969
O O1 0.589867 0.125213 0.367653
O O2 0.664624 0.159678 0.257197
O O3 0.569564 0.199848 0.233922
O O4 0.605564 0.000000 0.237771
O O5 0.050042 0.692449 0.500000
O O6 0.083335 0.827100 0.612152
O O7 0.000000 0.725714 0.637784
O O8 0.656585 0.500000 0.892115
O O9 0.683412 0.678397 0.837471
O O10 0.590047 0.641935 0.871261
O O11 0.655376 0.653521 0.000000
O O12 0.750000 0.250000 0.265598
O O13 0.824267 0.160308 0.333857
O O14 0.155501 0.860376 0.500000
O O15 0.128253 0.000000 0.613480
O O16 0.923208 0.671814 0.081577
O O17 0.915738 0.500000 0.000000
O O18 0.000000 0.600950 0.000000
O O19 0.000000 0.787710 0.137781
#
# Coordination Sequence:
#
# PCOD8268477 Si02
#       7
#    16  16  16  16  16   8  16
#     4  10  21  35  51  74 104 139 180 225 269 313
#     4   9  18  32  50  76 111 148 182 214 251 303
#     4  10  21  37  57  81 109 140 175 220 270 321
#     4  10  22  39  59  79 104 137 177 227 277 330
#     4   9  18  34  57  85 114 141 173 216 266 320
#     4   9  16  26  43  67  96 133 171 204 240 287
#     4  10  19  32  50  76 108 141 176 214 256 311
#
# _framework density 18.781421999999999
#
# number of rings (size 3 to 8) (size 9 to 14) (size 15 to 20)
#    0.000    2.385    0.769    1.385    0.000    4.615 
#    0.000    3.077    0.000    5.538    0.000    0.000 
#    0.000    0.000    0.000    0.000    0.000    0.000 
#
# Total GULP energy -644364.376449 kJ/mol
# GULP energy per Si atom -12391.622624 kJ/mol
# Density = 1.873867 g / cm^3
# Si number density = 18.781422 Si / 1000 Ang^3
#
#
#
# Elastic Constant Matrix: (Units=GPa)
#
#
# Indices 1 2 3 4 5 6 
#
# 1 117.4431 30.8967 44.7158 0.0000 0.0000 0.0000
# 2 30.8967 82.0610 39.3041 0.0000 0.0000 0.0000
# 3 44.7158 39.3041 90.1210 0.0000 0.0000 0.0000
# 4 0.0000 0.0000 0.0000 23.2165 0.0000 0.0000
# 5 0.0000 0.0000 0.0000 0.0000 19.8903 0.0000
# 6 0.0000 0.0000 0.0000 0.0000 0.0000 15.4612
#
#
#
# Elastic Compliance Matrix: (Units=1/GPa)
#
#
# Indices 1 2 3 4 5 6 
#
# 1 0.010723 -0.001882 -0.004500 0.000000 0.000000 0.000000
# 2 -0.001882 0.015734 -0.005928 0.000000 0.000000 0.000000
# 3 -0.004500 -0.005928 0.015914 0.000000 0.000000 0.000000
# 4 0.000000 0.000000 0.000000 0.043073 0.000000 0.000000
# 5 0.000000 0.000000 0.000000 0.000000 0.050276 0.000000
# 6 0.000000 0.000000 0.000000 0.000000 0.000000 0.064678
#
#
# Mechanical properties :
#
#
# Convention : Reuss Voigt Hill
#
# Bulk Modulus (GPa) = 56.33349 57.71759 57.02554
# Shear Modulus (GPa) = 21.65109 23.36084 22.50596
#
# Velocity S-wave (km/s) = 3.39896 3.53062 3.46542
# Velocity P-wave (km/s) = 6.74265 6.88609 6.81475
#
# Compressibility (1/GPa) = 0.01775143
#
# Stress axis : x y z
#
# Youngs Moduli (GPa) = 93.25623 63.55634 62.83675
#
# Poissons Ratio (x) = 0.11962 0.28275
# Poissons Ratio (y) = 0.17552 0.37251
# Poissons Ratio (z) = 0.41962 0.37677
#
# Static dielectric constant tensor:
#      x y z
#    x 3.199190 0.000000 0.000000 
#    y 0.000000 3.375610 0.000000 
#    z 0.000000 0.000000 3.716980 
# 
# 
# High freq. dielectric constant tensor:
#      x y z
#    x 1.704770 0.000000 0.000000 
#    y 0.000000 1.720790 0.000000 
#    z 0.000000 0.000000 1.751020 
# 
# From -- ./inp_files/57540.got.cif
#   From: 2010.03.12/outbox.cif.g09.slc.cpg/sg65_29_cif.got.tgz:57540.got - 2010.04.10 20:52:16.
