data_PCOD8268999
_publ_section_title
;
Structure prediction by ZEFSAII (Michael W. Deem and Ramdas Pophale) SiO2 
 PCOD8268999
Probable space group: C M M M
;
_chemical_formula_sum "Si O2"
_cell_formula_units_Z 128
_cell_length_a 18.204866
_cell_length_b 20.781652
_cell_length_c 18.868899
_cell_angle_alpha 90.000000
_cell_angle_beta 90.000000
_cell_angle_gamma 90.000000
_cell_volume 7138.617536
_symmetry_space_group_name_H-M "C M M M"
_symmetry_group_IT_number 65
_symmetry_cell_setting 'orthorhombic'
loop_
_space_group_symop_operation_xyz
x,y,z
-x,-y,z
x,-y,-z
-x,y,-z
-x,-y,-z
x,y,-z
-x,y,z
x,-y,z
1/2+x,1/2+y,z
1/2-x,1/2-y,z
1/2+x,1/2-y,-z
1/2-x,1/2+y,-z
1/2-x,1/2-y,-z
1/2+x,1/2+y,-z
1/2-x,1/2+y,z
1/2+x,1/2-y,z
loop_
_atom_site_type_symbol
_atom_site_label
_atom_site_fract_x
_atom_site_fract_y
_atom_site_fract_z
Si Si1 0.581940 0.730607 0.579842
Si Si2 0.303006 0.190991 0.917521
Si Si3 0.685967 0.801466 0.673490
Si Si4 0.421269 0.629380 0.823512
Si Si5 0.221019 0.073249 0.145450
Si Si6 0.078782 0.898867 0.663694
Si Si7 0.913219 0.276360 0.805485
Si Si8 0.235230 0.070066 0.687362
O O1 0.599309 0.706934 0.500000
O O2 0.500000 0.760271 0.583854
O O3 0.641403 0.783390 0.602648
O O4 0.588616 0.673031 0.635422
O O5 0.250000 0.250000 0.893263
O O6 0.269536 0.121263 0.900612
O O7 0.380672 0.192899 0.876996
O O8 0.320272 0.196557 0.000000
O O9 0.750000 0.750000 0.690342
O O10 0.629540 0.806276 0.738721
O O11 0.718267 0.871805 0.654692
O O12 0.500000 0.627969 0.863292
O O13 0.363968 0.590091 0.871782
O O14 0.429906 0.597380 0.747408
O O15 0.394707 0.701537 0.810052
O O16 0.230448 0.085397 0.229141
O O17 0.239373 0.000000 0.123606
O O18 0.155056 0.935547 0.648259
O O19 0.000000 0.926975 0.632523
O O20 0.000000 0.291046 0.798800
O O21 0.272931 0.000000 0.675430
#
# Coordination Sequence:
#
# PCOD8268999 Si02
#       8
#    16  16  16  16  16  16  16  16
#     4  10  20  33  52  82 114 142 182 229 269 316
#     4  11  22  36  55  79 108 140 179 223 269 321
#     4  12  19  33  58  82 108 142 178 227 273 321
#     4   9  16  28  50  80 110 138 172 213 263 321
#     4  10  19  33  53  77 108 142 176 215 267 321
#     4   9  16  30  49  75 110 144 173 210 267 324
#     4  11  20  33  57  81 105 138 177 221 272 322
#     4  10  20  32  51  81 109 138 177 226 273 321
#
# _framework density 17.930643
#
# number of rings (size 3 to 8) (size 9 to 14) (size 15 to 20)
#    0.000    1.750    5.000    1.500    0.000    1.250 
#    0.000    2.500    0.000    4.500    0.000    4.375 
#    0.000    0.000    0.000    0.000    0.000    0.000 
#
# Total GULP energy -792973.561733 kJ/mol
# GULP energy per Si atom -12390.211902 kJ/mol
# Density = 1.788983 g / cm^3
# Si number density = 17.930643 Si / 1000 Ang^3
#
#
#
# Elastic Constant Matrix: (Units=GPa)
#
#
# Indices 1 2 3 4 5 6 
#
# 1 100.6125 41.0273 32.8780 0.0000 0.0000 0.0000
# 2 41.0273 98.9443 5.4215 0.0000 0.0000 0.0000
# 3 32.8780 5.4215 44.4440 0.0000 0.0000 0.0000
# 4 0.0000 0.0000 0.0000 8.4641 0.0000 0.0000
# 5 0.0000 0.0000 0.0000 0.0000 13.1327 0.0000
# 6 0.0000 0.0000 0.0000 0.0000 0.0000 15.3150
#
#
#
# Elastic Compliance Matrix: (Units=1/GPa)
#
#
# Indices 1 2 3 4 5 6 
#
# 1 0.016039 -0.006041 -0.011128 0.000000 0.000000 0.000000
# 2 -0.006041 0.012450 0.002950 0.000000 0.000000 0.000000
# 3 -0.011128 0.002950 0.030372 0.000000 0.000000 0.000000
# 4 0.000000 0.000000 0.000000 0.118146 0.000000 0.000000
# 5 0.000000 0.000000 0.000000 0.000000 0.076146 0.000000
# 6 0.000000 0.000000 0.000000 0.000000 0.000000 0.065296
#
#
# Mechanical properties :
#
#
# Convention : Reuss Voigt Hill
#
# Bulk Modulus (GPa) = 32.86919 44.73936 38.80427
# Shear Modulus (GPa) = 14.00452 18.36062 16.18257
#
# Velocity S-wave (km/s) = 2.79774 3.20344 3.00744
# Velocity P-wave (km/s) = 5.36727 6.21998 5.80929
#
# Compressibility (1/GPa) = 0.03042362
#
# Stress axis : x y z
#
# Youngs Moduli (GPa) = 62.34892 80.32226 32.92460
#
# Poissons Ratio (x) = 0.48521 0.36638
# Poissons Ratio (y) = 0.37663 -0.09713
# Poissons Ratio (z) = 0.69382 -0.23695
#
# Static dielectric constant tensor:
#      x y z
#    x 3.634400 0.000000 0.000000 
#    y 0.000000 3.171100 0.000000 
#    z 0.000000 0.000000 3.049310 
# 
# 
# High freq. dielectric constant tensor:
#      x y z
#    x 1.698960 0.000000 0.000000 
#    y 0.000000 1.675730 0.000000 
#    z 0.000000 0.000000 1.661060 
# 
# From -- ./inp_files/64105.got.cif
#   From: 2010.03.12/outbox.cif.g09.slc.cpg/sg65_33_cif.got.tgz:64105.got - 2010.04.10 20:52:16.
