data_PCOD8268716
_publ_section_title
;
Structure prediction by ZEFSAII (Michael W. Deem and Ramdas Pophale) SiO2 
 PCOD8268716
Probable space group: C M M M
;
_chemical_formula_sum "Si O2"
_cell_formula_units_Z 120
_cell_length_a 26.967659
_cell_length_b 8.538833
_cell_length_c 27.780654
_cell_angle_alpha 90.000000
_cell_angle_beta 90.000000
_cell_angle_gamma 90.000000
_cell_volume 6397.116109
_symmetry_space_group_name_H-M "C M M M"
_symmetry_group_IT_number 65
_symmetry_cell_setting 'orthorhombic'
loop_
_space_group_symop_operation_xyz
x,y,z
-x,-y,z
x,-y,-z
-x,y,-z
-x,-y,-z
x,y,-z
-x,y,z
x,-y,z
1/2+x,1/2+y,z
1/2-x,1/2-y,z
1/2+x,1/2-y,-z
1/2-x,1/2+y,-z
1/2-x,1/2-y,-z
1/2+x,1/2+y,-z
1/2-x,1/2+y,z
1/2+x,1/2-y,z
loop_
_atom_site_type_symbol
_atom_site_label
_atom_site_fract_x
_atom_site_fract_y
_atom_site_fract_z
Si Si1 0.500000 0.313900 0.445323
Si Si2 0.303636 0.316172 0.054637
Si Si3 0.600371 0.316937 0.604639
Si Si4 0.648613 0.814678 0.855523
Si Si5 0.392222 0.183253 0.292413
Si Si6 0.446488 0.815182 0.802275
Si Si7 0.302311 0.815488 0.554777
Si Si8 0.302611 0.685132 0.765021
O O1 0.500000 0.500000 0.442048
O O2 0.500000 0.253881 0.500000
O O3 0.449578 0.249016 0.420513
O O4 0.303215 0.500000 0.063311
O O5 0.250000 0.250000 0.067577
O O6 0.343360 0.235096 0.089420
O O7 0.318444 0.273287 0.000000
O O8 0.604762 0.500000 0.594764
O O9 0.595157 0.283656 0.660949
O O10 0.650490 0.239096 0.585189
O O11 0.594117 0.753065 0.840160
O O12 0.688048 0.731564 0.820635
O O13 0.654043 0.000000 0.849126
O O14 0.432786 0.229366 0.252350
O O15 0.339160 0.228061 0.271265
O O16 0.393050 0.000000 0.305187
O O17 0.500000 0.740010 0.814603
O O18 0.448915 0.000000 0.806927
O O19 0.309382 0.756134 0.500000
O O20 0.250000 0.750000 0.575583
O O21 0.299372 0.000000 0.557781
O O22 0.306381 0.500000 0.758611
O O23 0.250000 0.750000 0.749114
#
# Coordination Sequence:
#
# PCOD8268716 Si02
#       8
#     8  16  16  16  16  16  16  16
#     4   9  20  38  59  83 113 149 185 223 270 325
#     4  10  20  33  50  74 106 142 180 222 269 320
#     4  11  22  37  58  84 114 148 184 223 271 327
#     4  10  19  32  52  78 107 139 179 222 268 320
#     4  10  21  36  54  79 109 139 176 218 267 318
#     4   8  16  32  54  77 101 133 172 217 264 312
#     4  10  21  38  60  85 111 141 180 225 272 324
#     4  11  21  35  54  76 107 143 181 220 264 318
#
# _framework density 18.758451999999998
#
# number of rings (size 3 to 8) (size 9 to 14) (size 15 to 20)
#    0.000    2.067    0.000    4.800    0.933    2.667 
#    0.000    3.667    0.000   10.800    0.000    2.800 
#    0.000    0.000    0.000    0.000    0.000    0.000 
#
# Total GULP energy -743987.942134 kJ/mol
# GULP energy per Si atom -12399.799036 kJ/mol
# Density = 1.871576 g / cm^3
# Si number density = 18.758452 Si / 1000 Ang^3
#
#
#
# Elastic Constant Matrix: (Units=GPa)
#
#
# Indices 1 2 3 4 5 6 
#
# 1 134.5853 18.9423 51.3850 0.0000 0.0000 0.0000
# 2 18.9423 43.0946 10.8034 0.0000 0.0000 0.0000
# 3 51.3850 10.8034 105.7802 0.0000 0.0000 0.0000
# 4 0.0000 0.0000 0.0000 30.4761 0.0000 0.0000
# 5 0.0000 0.0000 0.0000 0.0000 5.2619 0.0000
# 6 0.0000 0.0000 0.0000 0.0000 0.0000 18.0000
#
#
#
# Elastic Compliance Matrix: (Units=1/GPa)
#
#
# Indices 1 2 3 4 5 6 
#
# 1 0.009510 -0.003101 -0.004303 0.000000 0.000000 0.000000
# 2 -0.003101 0.024826 -0.001029 0.000000 0.000000 0.000000
# 3 -0.004303 -0.001029 0.011649 0.000000 0.000000 0.000000
# 4 0.000000 0.000000 0.000000 0.032813 0.000000 0.000000
# 5 0.000000 0.000000 0.000000 0.000000 0.190046 0.000000
# 6 0.000000 0.000000 0.000000 0.000000 0.000000 0.055556
#
#
# Mechanical properties :
#
#
# Convention : Reuss Voigt Hill
#
# Bulk Modulus (GPa) = 34.34271 49.52462 41.93366
# Shear Modulus (GPa) = 14.24623 24.23621 19.24122
#
# Velocity S-wave (km/s) = 2.75881 3.59836 3.20619
# Velocity P-wave (km/s) = 5.33813 6.61232 6.00910
#
# Compressibility (1/GPa) = 0.02911826
#
# Stress axis : x y z
#
# Youngs Moduli (GPa) = 105.15787 40.28053 85.84583
#
# Poissons Ratio (x) = 0.12492 0.36937
# Poissons Ratio (y) = 0.32612 0.08833
# Poissons Ratio (z) = 0.45246 0.04145
#
# Static dielectric constant tensor:
#      x y z
#    x 3.753190 0.000000 0.000000 
#    y 0.000000 3.346020 0.000000 
#    z 0.000000 0.000000 3.452580 
# 
# 
# High freq. dielectric constant tensor:
#      x y z
#    x 1.732160 0.000000 0.000000 
#    y 0.000000 1.723840 0.000000 
#    z 0.000000 0.000000 1.723390 
# 
# From -- ./inp_files/76143.got.cif
#   From: 2010.03.12/outbox.cif.g09.slc.cpg/sg65_39_cif.got.tgz:76143.got - 2010.04.10 20:52:16.
