data_PCOD8268403
_publ_section_title
;
Structure prediction by ZEFSAII (Michael W. Deem and Ramdas Pophale) SiO2 
 PCOD8268403
Probable space group: C M M M
;
_chemical_formula_sum "Si O2"
_cell_formula_units_Z 76
_cell_length_a 23.318794
_cell_length_b 15.525949
_cell_length_c 12.624139
_cell_angle_alpha 90.000000
_cell_angle_beta 90.000000
_cell_angle_gamma 90.000000
_cell_volume 4570.524159
_symmetry_space_group_name_H-M "C M M M"
_symmetry_group_IT_number 65
_symmetry_cell_setting 'orthorhombic'
loop_
_space_group_symop_operation_xyz
x,y,z
-x,-y,z
x,-y,-z
-x,y,-z
-x,-y,-z
x,y,-z
-x,y,z
x,-y,z
1/2+x,1/2+y,z
1/2-x,1/2-y,z
1/2+x,1/2-y,-z
1/2-x,1/2+y,-z
1/2-x,1/2-y,-z
1/2+x,1/2+y,-z
1/2-x,1/2+y,z
1/2+x,1/2-y,z
loop_
_atom_site_type_symbol
_atom_site_label
_atom_site_fract_x
_atom_site_fract_y
_atom_site_fract_z
Si Si1 0.799134 0.000000 0.229463
Si Si2 0.500000 0.825959 0.374203
Si Si3 0.701090 0.500000 0.000000
Si Si4 0.880348 0.599341 0.624035
Si Si5 0.717598 0.161330 0.000000
Si Si6 0.500000 0.634041 0.625556
Si Si7 0.407147 0.500000 0.625295
Si Si8 0.284238 0.161574 0.229605
O O1 0.831824 0.000000 0.113552
O O2 0.845998 0.000000 0.320245
O O3 0.760065 0.916192 0.244255
O O4 0.500000 0.822140 0.500000
O O5 0.443701 0.876134 0.334753
O O6 0.500000 0.729637 0.325602
O O7 0.738302 0.584591 0.000000
O O8 0.874075 0.618637 0.500000
O O9 0.869103 0.500000 0.650594
O O10 0.833957 0.657642 0.683521
O O11 0.750000 0.250000 0.000000
O O12 0.684284 0.156413 0.887183
O O13 0.500000 0.637100 0.500000
O O14 0.442754 0.584121 0.662231
O O15 0.396943 0.500000 0.500000
O O16 0.250000 0.250000 0.245403
#
# Coordination Sequence:
#
# PCOD8268403 Si02
#       8
#     8   8   4  16   8   8   8  16
#     4  10  19  32  49  74 101 129 156 196 244 289
#     4   9  18  32  52  68  88 128 171 200 231 280
#     4   8  16  30  48  67  94 127 166 190 222 290
#     4  10  20  34  49  71 101 130 162 200 241 288
#     4   8  16  32  50  69  94 126 166 201 232 282
#     4   8  16  32  48  68  91 124 168 199 227 283
#     4   9  18  30  48  70  99 127 154 195 243 284
#     4  10  20  33  51  75 101 130 162 199 245 292
#
# _framework density 16.62829
#
# number of rings (size 3 to 8) (size 9 to 14) (size 15 to 20)
#    0.000    2.737    1.053    0.947    2.947    2.526 
#    0.000    0.000    0.000    1.895    0.000    2.947 
#    0.000    0.000    0.000    0.000    0.000    0.000 
#
# Total GULP energy -470781.569171 kJ/mol
# GULP energy per Si atom -12388.988662 kJ/mol
# Density = 1.659044 g / cm^3
# Si number density = 16.628290 Si / 1000 Ang^3
#
#
#
# Elastic Constant Matrix: (Units=GPa)
#
#
# Indices 1 2 3 4 5 6 
#
# 1 101.9938 38.7508 56.9023 0.0000 0.0000 0.0000
# 2 38.7508 106.0179 34.3327 0.0000 0.0000 0.0000
# 3 56.9023 34.3327 77.3986 0.0000 0.0000 0.0000
# 4 0.0000 0.0000 0.0000 19.2494 0.0000 0.0000
# 5 0.0000 0.0000 0.0000 0.0000 1.0730 0.0000
# 6 0.0000 0.0000 0.0000 0.0000 0.0000 25.2782
#
#
#
# Elastic Compliance Matrix: (Units=1/GPa)
#
#
# Indices 1 2 3 4 5 6 
#
# 1 0.017197 -0.002559 -0.011508 0.000000 0.000000 0.000000
# 2 -0.002559 0.011395 -0.003173 0.000000 0.000000 0.000000
# 3 -0.011508 -0.003173 0.022788 0.000000 0.000000 0.000000
# 4 0.000000 0.000000 0.000000 0.051950 0.000000 0.000000
# 5 0.000000 0.000000 0.000000 0.000000 0.931939 0.000000
# 6 0.000000 0.000000 0.000000 0.000000 0.000000 0.039560
#
#
# Mechanical properties :
#
#
# Convention : Reuss Voigt Hill
#
# Bulk Modulus (GPa) = 59.17162 60.59798 59.88480
# Shear Modulus (GPa) = 4.48454 19.48175 11.98314
#
# Velocity S-wave (km/s) = 1.64402 3.42658 2.68740
# Velocity P-wave (km/s) = 6.26625 7.22337 6.76177
#
# Compressibility (1/GPa) = 0.01689999
#
# Stress axis : x y z
#
# Youngs Moduli (GPa) = 58.14972 87.75459 43.88233
#
# Poissons Ratio (x) = 0.22457 0.50499
# Poissons Ratio (y) = 0.14881 0.13926
# Poissons Ratio (z) = 0.66918 0.27849
#
# Static dielectric constant tensor:
#      x y z
#    x 2.881910 0.000000 0.000000 
#    y 0.000000 3.547270 0.000000 
#    z 0.000000 0.000000 3.323420 
# 
# 
# High freq. dielectric constant tensor:
#      x y z
#    x 1.610540 0.000000 0.000000 
#    y 0.000000 1.663050 0.000000 
#    z 0.000000 0.000000 1.625300 
# 
# From -- ./inp_files/42451.got.cif
#   From: 2010.03.12/outbox.cif.g09.slc.cpg/sg65_22_cif.got.tgz:42451.got - 2010.04.10 20:52:16.
