data_PCOD8268486
_publ_section_title
;
Structure prediction by ZEFSAII (Michael W. Deem and Ramdas Pophale) SiO2 
 PCOD8268486
Probable space group: C M M M
;
_chemical_formula_sum "Si O2"
_cell_formula_units_Z 104
_cell_length_a 33.156805
_cell_length_b 16.722270
_cell_length_c 9.343991
_cell_angle_alpha 90.000000
_cell_angle_beta 90.000000
_cell_angle_gamma 90.000000
_cell_volume 5180.841643
_symmetry_space_group_name_H-M "C M M M"
_symmetry_group_IT_number 65
_symmetry_cell_setting 'orthorhombic'
loop_
_space_group_symop_operation_xyz
x,y,z
-x,-y,z
x,-y,-z
-x,y,-z
-x,-y,-z
x,y,-z
-x,y,z
x,-y,z
1/2+x,1/2+y,z
1/2-x,1/2-y,z
1/2+x,1/2-y,-z
1/2-x,1/2+y,-z
1/2-x,1/2-y,-z
1/2+x,1/2+y,-z
1/2-x,1/2+y,z
1/2+x,1/2-y,z
loop_
_atom_site_type_symbol
_atom_site_label
_atom_site_fract_x
_atom_site_fract_y
_atom_site_fract_z
Si Si1 0.544261 0.904796 0.158531
Si Si2 0.183573 0.641187 0.835538
Si Si3 0.760075 0.156996 0.338834
Si Si4 0.663176 0.674089 0.835750
Si Si5 0.000000 0.094923 0.336210
Si Si6 0.113405 0.409919 0.654318
Si Si7 0.420789 0.593223 0.166578
O O1 0.500000 0.879736 0.212639
O O2 0.576573 0.865094 0.265561
O O3 0.548396 0.000000 0.151826
O O4 0.552212 0.869922 0.000000
O O5 0.226038 0.619948 0.762698
O O6 0.167312 0.731067 0.818282
O O7 0.152049 0.586135 0.754468
O O8 0.186908 0.616042 0.000000
O O9 0.759091 0.121212 0.500000
O O10 0.750000 0.250000 0.344721
O O11 0.803169 0.135674 0.268090
O O12 0.618943 0.643778 0.788040
O O13 0.671761 0.648605 0.000000
O O14 0.959335 0.125243 0.256364
O O15 0.000000 0.125989 0.500000
O O16 0.000000 0.000000 0.330123
O O17 0.121943 0.367991 0.500000
O O18 0.099620 0.500000 0.625916
O O19 0.412050 0.500000 0.198701
O O20 0.430765 0.606466 0.000000
#
# Coordination Sequence:
#
# PCOD8268486 Si02
#       7
#    16  16  16  16   8  16  16
#     4   8  14  26  45  67  89 115 150 190 230 276
#     4  10  19  32  51  71  95 127 165 205 245 291
#     4   9  17  30  49  72  96 126 164 202 244 292
#     4   9  18  32  51  75  99 125 163 205 244 287
#     4   9  17  29  47  73 103 133 166 201 238 287
#     4  10  20  32  47  69  96 124 157 199 245 293
#     4   9  17  31  52  76 102 132 165 201 242 289
#
# _framework density 20.07396
#
# number of rings (size 3 to 8) (size 9 to 14) (size 15 to 20)
#    0.000    2.846    0.000    2.077    0.000    5.231 
#    0.000    2.308    1.692    2.769    0.000    0.000 
#    0.000    0.000    0.000    0.000    0.000    0.000 
#
# Total GULP energy -644440.263331 kJ/mol
# GULP energy per Si atom -12393.081987 kJ/mol
# Density = 2.002827 g / cm^3
# Si number density = 20.073960 Si / 1000 Ang^3
#
#
#
# Elastic Constant Matrix: (Units=GPa)
#
#
# Indices 1 2 3 4 5 6 
#
# 1 185.3503 15.4786 105.8060 0.0000 0.0000 0.0000
# 2 15.4786 13.3046 11.7582 0.0000 0.0000 0.0000
# 3 105.8060 11.7582 167.0752 0.0000 0.0000 0.0000
# 4 0.0000 0.0000 0.0000 13.7213 0.0000 0.0000
# 5 0.0000 0.0000 0.0000 0.0000 15.5408 0.0000
# 6 0.0000 0.0000 0.0000 0.0000 0.0000 26.4411
#
#
#
# Elastic Compliance Matrix: (Units=1/GPa)
#
#
# Indices 1 2 3 4 5 6 
#
# 1 0.008836 -0.005688 -0.005195 0.000000 0.000000 0.000000
# 2 -0.005688 0.083809 -0.002296 0.000000 0.000000 0.000000
# 3 -0.005195 -0.002296 0.009437 0.000000 0.000000 0.000000
# 4 0.000000 0.000000 0.000000 0.072879 0.000000 0.000000
# 5 0.000000 0.000000 0.000000 0.000000 0.064347 0.000000
# 6 0.000000 0.000000 0.000000 0.000000 0.000000 0.037820
#
#
# Mechanical properties :
#
#
# Convention : Reuss Voigt Hill
#
# Bulk Modulus (GPa) = 13.20611 70.20176 41.70394
# Shear Modulus (GPa) = 15.21018 26.65313 20.93165
#
# Velocity S-wave (km/s) = 2.75563 3.64778 3.23263
# Velocity P-wave (km/s) = 4.08873 7.26562 5.89521
#
# Compressibility (1/GPa) = 0.07572253
#
# Stress axis : x y z
#
# Youngs Moduli (GPa) = 113.17417 11.93196 105.96551
#
# Poissons Ratio (x) = 0.06787 0.55053
# Poissons Ratio (y) = 0.64376 0.24329
# Poissons Ratio (z) = 0.58798 0.02739
#
# Static dielectric constant tensor:
#      x y z
#    x 3.800500 0.000000 0.000000 
#    y 0.000000 3.072140 0.000000 
#    z 0.000000 0.000000 4.028380 
# 
# 
# High freq. dielectric constant tensor:
#      x y z
#    x 1.795400 0.000000 0.000000 
#    y 0.000000 1.723630 0.000000 
#    z 0.000000 0.000000 1.792300 
# 
# From -- ./inp_files/18680.got.cif
#   From: 2010.03.12/outbox.cif.g09.slc.cpg/sg65_10_cif.got.tgz:18680.got - 2010.04.10 20:52:16.
