data_PCOD8268073
_publ_section_title
;
Structure prediction by ZEFSAII (Michael W. Deem and Ramdas Pophale) SiO2 
 PCOD8268073
Probable space group: C M M M
;
_chemical_formula_sum "Si O2"
_cell_formula_units_Z 72
_cell_length_a 18.081724
_cell_length_b 17.744193
_cell_length_c 11.819843
_cell_angle_alpha 90.000000
_cell_angle_beta 90.000000
_cell_angle_gamma 90.000000
_cell_volume 3792.344624
_symmetry_space_group_name_H-M "C M M M"
_symmetry_group_IT_number 65
_symmetry_cell_setting 'orthorhombic'
loop_
_space_group_symop_operation_xyz
x,y,z
-x,-y,z
x,-y,-z
-x,y,-z
-x,-y,-z
x,y,-z
-x,y,z
x,-y,z
1/2+x,1/2+y,z
1/2-x,1/2-y,z
1/2+x,1/2-y,-z
1/2-x,1/2+y,-z
1/2-x,1/2-y,-z
1/2+x,1/2+y,-z
1/2-x,1/2+y,z
1/2+x,1/2-y,z
loop_
_atom_site_type_symbol
_atom_site_label
_atom_site_fract_x
_atom_site_fract_y
_atom_site_fract_z
Si Si1 0.912235 0.000000 0.374162
Si Si2 0.669717 0.087742 0.000000
Si Si3 0.412949 0.780578 0.625711
Si Si4 0.912105 0.859278 0.229566
Si Si5 0.657543 0.589327 0.000000
Si Si6 0.413890 0.913891 0.217859
O O1 0.883760 0.073189 0.308702
O O2 0.878150 0.000000 0.500000
O O3 0.000000 0.000000 0.381082
O O4 0.755778 0.105328 0.000000
O O5 0.631725 0.120714 0.887376
O O6 0.651751 0.000000 0.000000
O O7 0.377737 0.772695 0.500000
O O8 0.500000 0.768745 0.615707
O O9 0.382453 0.716983 0.711354
O O10 0.393917 0.863386 0.673386
O O11 0.876346 0.869025 0.107482
O O12 0.000000 0.859914 0.214539
O O13 0.638870 0.500000 0.000000
O O14 0.500000 0.907628 0.186514
O O15 0.391621 0.000000 0.246566
#
# Coordination Sequence:
#
# PCOD8268073 Si02
#       6
#     8   8  16  16   8  16
#     4   9  16  27  47  71  95 130 173 210 244 289
#     4   9  19  34  53  76 102 133 165 211 260 308
#     4   9  18  32  51  78 108 133 164 212 260 300
#     4  10  19  31  49  74 105 137 172 211 251 295
#     4  11  21  34  51  74 103 139 175 216 258 295
#     4   9  17  32  56  81 102 129 165 206 255 314
#
# _framework density 18.985616
#
# number of rings (size 3 to 8) (size 9 to 14) (size 15 to 20)
#    0.000    2.556    1.111    1.333    0.000    5.778 
#    0.000    7.778    0.000    4.000    0.000    0.000 
#    0.000    0.000    0.000    0.000    0.000    0.000 
#
# Total GULP energy -446337.291566 kJ/mol
# GULP energy per Si atom -12398.258099 kJ/mol
# Density = 1.894240 g / cm^3
# Si number density = 18.985616 Si / 1000 Ang^3
#
#
#
# Elastic Constant Matrix: (Units=GPa)
#
#
# Indices 1 2 3 4 5 6 
#
# 1 40.6216 26.5961 40.9731 0.0000 0.0000 0.0000
# 2 26.5961 125.5498 82.6477 0.0000 0.0000 0.0000
# 3 40.9731 82.6477 193.2083 0.0000 0.0000 0.0000
# 4 0.0000 0.0000 0.0000 32.2248 0.0000 0.0000
# 5 0.0000 0.0000 0.0000 0.0000 -2.7028 0.0000
# 6 0.0000 0.0000 0.0000 0.0000 0.0000 12.4196
#
#
#
# Elastic Compliance Matrix: (Units=1/GPa)
#
#
# Indices 1 2 3 4 5 6 
#
# 1 0.032237 -0.003241 -0.005450 0.000000 0.000000 0.000000
# 2 -0.003241 0.011413 -0.004195 0.000000 0.000000 0.000000
# 3 -0.005450 -0.004195 0.008126 0.000000 0.000000 0.000000
# 4 0.000000 0.000000 0.000000 0.031032 0.000000 0.000000
# 5 0.000000 0.000000 0.000000 0.000000 -0.369982 0.000000
# 6 0.000000 0.000000 0.000000 0.000000 0.000000 0.080518
#
#
# Mechanical properties :
#
#
# Convention : Reuss Voigt Hill
#
# Bulk Modulus (GPa) = 38.45606 73.31260 55.88433
# Shear Modulus (GPa) = -29.03318 22.33250 -3.35034
#
# Velocity S-wave (km/s) = -3.91477 3.43342 -1.32985
# Velocity P-wave (km/s) = 0.36677 7.37675 5.20970
#
# Compressibility (1/GPa) = 0.02600370
#
# Stress axis : x y z
#
# Youngs Moduli (GPa) = 31.02061 87.62031 123.06492
#
# Poissons Ratio (x) = 0.28401 0.67068
# Poissons Ratio (y) = 0.10055 0.51621
# Poissons Ratio (z) = 0.16906 0.36754
#
# Static dielectric constant tensor:
#      x y z
#    x 3.039060 0.000000 0.000000 
#    y 0.000000 3.529290 0.000000 
#    z 0.000000 0.000000 3.693370 
# 
# 
# High freq. dielectric constant tensor:
#      x y z
#    x 1.689120 0.000000 0.000000 
#    y 0.000000 1.738140 0.000000 
#    z 0.000000 0.000000 1.750880 
# 
# From -- ./inp_files/26375.got.cif
#   From: 2010.03.12/outbox.cif.g09.slc.cpg/sg65_14_cif.got.tgz:26375.got - 2010.04.10 20:52:16.
