data_PCOD8268814
_publ_section_title
;
Structure prediction by ZEFSAII (Michael W. Deem and Ramdas Pophale) SiO2 
 PCOD8268814
Probable space group: C M M M
;
_chemical_formula_sum "Si O2"
_cell_formula_units_Z 104
_cell_length_a 26.480406
_cell_length_b 23.526603
_cell_length_c 9.058432
_cell_angle_alpha 90.000000
_cell_angle_beta 90.000000
_cell_angle_gamma 90.000000
_cell_volume 5643.348779
_symmetry_space_group_name_H-M "C M M M"
_symmetry_group_IT_number 65
_symmetry_cell_setting 'orthorhombic'
loop_
_space_group_symop_operation_xyz
x,y,z
-x,-y,z
x,-y,-z
-x,y,-z
-x,-y,-z
x,y,-z
-x,y,z
x,-y,z
1/2+x,1/2+y,z
1/2-x,1/2-y,z
1/2+x,1/2-y,-z
1/2-x,1/2+y,-z
1/2-x,1/2-y,-z
1/2+x,1/2+y,-z
1/2-x,1/2+y,z
1/2+x,1/2-y,z
loop_
_atom_site_type_symbol
_atom_site_label
_atom_site_fract_x
_atom_site_fract_y
_atom_site_fract_z
Si Si1 0.122680 0.564958 0.173555
Si Si2 0.000000 0.932267 0.833877
Si Si3 0.401620 0.567364 0.666908
Si Si4 0.324193 0.359140 0.174517
Si Si5 0.788329 0.355889 0.172441
Si Si6 0.634578 0.237104 0.825885
Si Si7 0.441125 0.159401 0.326816
O O1 0.119198 0.500000 0.226996
O O2 0.179005 0.587933 0.210405
O O3 0.080876 0.601475 0.258204
O O4 0.111926 0.570874 0.000000
O O5 0.049192 0.908681 0.750731
O O6 0.000000 0.000000 0.834115
O O7 0.000000 0.908110 0.000000
O O8 0.403241 0.590105 0.500000
O O9 0.400691 0.500000 0.671248
O O10 0.351765 0.588638 0.748357
O O11 0.267529 0.358408 0.242342
O O12 0.353830 0.301726 0.216423
O O13 0.324055 0.369280 0.000000
O O14 0.818155 0.300609 0.230570
O O15 0.780124 0.348816 0.000000
O O16 0.584419 0.215427 0.743648
O O17 0.626360 0.228699 0.000000
O O18 0.430437 0.158896 0.500000
O O19 0.500000 0.162141 0.289808
#
# Coordination Sequence:
#
# PCOD8268814 Si02
#       7
#    16   8  16  16  16  16  16
#     4   9  18  33  54  80 107 138 177 217 261 314
#     4   9  17  33  57  77  93 121 165 211 250 293
#     4  10  21  36  52  73 105 141 171 204 254 311
#     4  10  19  32  54  82 105 132 173 218 259 305
#     4   8  15  30  53  78 105 134 168 214 264 307
#     4   9  18  34  55  78 102 132 172 218 265 312
#     4  10  21  36  53  74 103 140 178 217 264 316
#
# _framework density 18.428773
#
# number of rings (size 3 to 8) (size 9 to 14) (size 15 to 20)
#    0.000    2.692    0.000    2.538    0.000    6.769 
#    1.385    6.154    0.000    4.615    0.000    0.000 
#    0.000    0.000    0.000    0.000    0.000    0.000 
#
# Total GULP energy -644756.561771 kJ/mol
# GULP energy per Si atom -12399.164649 kJ/mol
# Density = 1.838683 g / cm^3
# Si number density = 18.428773 Si / 1000 Ang^3
#
#
#
# Elastic Constant Matrix: (Units=GPa)
#
#
# Indices 1 2 3 4 5 6 
#
# 1 147.1828 43.1680 59.8418 0.0000 0.0000 0.0000
# 2 43.1680 47.2370 33.2266 0.0000 0.0000 0.0000
# 3 59.8418 33.2266 72.9136 0.0000 0.0000 0.0000
# 4 0.0000 0.0000 0.0000 18.4899 0.0000 0.0000
# 5 0.0000 0.0000 0.0000 0.0000 6.6694 0.0000
# 6 0.0000 0.0000 0.0000 0.0000 0.0000 19.6333
#
#
#
# Elastic Compliance Matrix: (Units=1/GPa)
#
#
# Indices 1 2 3 4 5 6 
#
# 1 0.011087 -0.005492 -0.006597 0.000000 0.000000 0.000000
# 2 -0.005492 0.033877 -0.010930 0.000000 0.000000 0.000000
# 3 -0.006597 -0.010930 0.024110 0.000000 0.000000 0.000000
# 4 0.000000 0.000000 0.000000 0.054084 0.000000 0.000000
# 5 0.000000 0.000000 0.000000 0.000000 0.149939 0.000000
# 6 0.000000 0.000000 0.000000 0.000000 0.000000 0.050934
#
#
# Mechanical properties :
#
#
# Convention : Reuss Voigt Hill
#
# Bulk Modulus (GPa) = 43.41031 59.97845 51.69438
# Shear Modulus (GPa) = 13.23635 17.69833 15.46734
#
# Velocity S-wave (km/s) = 2.68291 3.10234 2.90022
# Velocity P-wave (km/s) = 5.76231 6.74162 6.27111
#
# Compressibility (1/GPa) = 0.02303600
#
# Stress axis : x y z
#
# Youngs Moduli (GPa) = 90.19439 29.51842 41.47650
#
# Poissons Ratio (x) = 0.16211 0.27361
# Poissons Ratio (y) = 0.49534 0.45336
# Poissons Ratio (z) = 0.59500 0.32265
#
# Static dielectric constant tensor:
#      x y z
#    x 3.553620 0.000000 0.000000 
#    y 0.000000 3.325690 0.000000 
#    z 0.000000 0.000000 3.250750 
# 
# 
# High freq. dielectric constant tensor:
#      x y z
#    x 1.722480 0.000000 0.000000 
#    y 0.000000 1.705150 0.000000 
#    z 0.000000 0.000000 1.696970 
# 
# From -- ./inp_files/14760.got.cif
#   From: 2010.03.12/outbox.cif.g09.slc.cpg/sg65_8_cif.got.tgz:14760.got - 2010.04.10 20:52:16.
