data_PCOD8268006
_publ_section_title
;
Structure prediction by ZEFSAII (Michael W. Deem and Ramdas Pophale) SiO2 
 PCOD8268006
Probable space group: C M M M
;
_chemical_formula_sum "Si O2"
_cell_formula_units_Z 104
_cell_length_a 28.810520
_cell_length_b 9.005192
_cell_length_c 24.761338
_cell_angle_alpha 90.000000
_cell_angle_beta 90.000000
_cell_angle_gamma 90.000000
_cell_volume 6424.187119
_symmetry_space_group_name_H-M "C M M M"
_symmetry_group_IT_number 65
_symmetry_cell_setting 'orthorhombic'
loop_
_space_group_symop_operation_xyz
x,y,z
-x,-y,z
x,-y,-z
-x,y,-z
-x,-y,-z
x,y,-z
-x,y,z
x,-y,z
1/2+x,1/2+y,z
1/2-x,1/2-y,z
1/2+x,1/2-y,-z
1/2-x,1/2+y,-z
1/2-x,1/2-y,-z
1/2+x,1/2+y,-z
1/2-x,1/2+y,z
1/2+x,1/2-y,z
loop_
_atom_site_type_symbol
_atom_site_label
_atom_site_fract_x
_atom_site_fract_y
_atom_site_fract_z
Si Si1 0.947078 0.324586 0.844054
Si Si2 0.000000 0.324595 0.438073
Si Si3 0.448925 0.332555 0.647846
Si Si4 0.606143 0.327859 0.061043
Si Si5 0.795088 0.672864 0.779484
Si Si6 0.894420 0.328630 0.738227
Si Si7 0.795859 0.174771 0.893640
O O1 0.943000 0.500000 0.847076
O O2 0.926391 0.263048 0.899260
O O3 0.918353 0.264518 0.792499
O O4 0.000000 0.271318 0.838090
O O5 0.953854 0.257685 0.408801
O O6 0.000000 0.500000 0.431657
O O7 0.000000 0.274185 0.500000
O O8 0.500000 0.330339 0.676445
O O9 0.433070 0.500000 0.634986
O O10 0.411158 0.259269 0.686151
O O11 0.597479 0.500000 0.073021
O O12 0.660364 0.289329 0.068716
O O13 0.592324 0.285782 0.000000
O O14 0.785145 0.500000 0.790501
O O15 0.750000 0.750000 0.752081
O O16 0.839125 0.693507 0.740688
O O17 0.805778 0.753405 0.835634
O O18 0.908331 0.500000 0.731111
O O19 0.750000 0.250000 0.919683
O O20 0.787504 0.000000 0.887118
#
# Coordination Sequence:
#
# PCOD8268006 Si02
#       7
#    16   8  16  16  16  16  16
#     4  10  21  36  53  72  92 120 156 196 244 292
#     4   9  17  31  51  73 105 149 186 213 246 285
#     4   9  19  30  45  74 105 137 174 211 247 283
#     4  10  22  38  52  68  91 119 152 193 244 299
#     4  10  19  31  49  72  96 125 158 193 243 299
#     4  10  19  32  51  71  98 131 163 201 246 297
#     4  10  19  32  51  71  92 117 147 188 238 297
#
# _framework density 16.188818000000001
#
# number of rings (size 3 to 8) (size 9 to 14) (size 15 to 20)
#    0.462    1.769    1.538    2.769    0.000    4.923 
#    0.000    1.538    0.000    0.000    0.000    0.000 
#    0.000    0.615    0.000    2.000    0.000    2.462 
#
# Total GULP energy -644629.777654 kJ/mol
# GULP energy per Si atom -12396.726493 kJ/mol
# Density = 1.615197 g / cm^3
# Si number density = 16.188818 Si / 1000 Ang^3
#
#
#
# Elastic Constant Matrix: (Units=GPa)
#
#
# Indices 1 2 3 4 5 6 
#
# 1 91.9644 41.9877 46.2800 0.0000 0.0000 0.0000
# 2 41.9877 80.3195 42.0002 0.0000 0.0000 0.0000
# 3 46.2800 42.0002 96.9272 0.0000 0.0000 0.0000
# 4 0.0000 0.0000 0.0000 20.2133 0.0000 0.0000
# 5 0.0000 0.0000 0.0000 0.0000 16.9403 0.0000
# 6 0.0000 0.0000 0.0000 0.0000 0.0000 28.2291
#
#
#
# Elastic Compliance Matrix: (Units=1/GPa)
#
#
# Indices 1 2 3 4 5 6 
#
# 1 0.016097 -0.005684 -0.005223 0.000000 0.000000 0.000000
# 2 -0.005684 0.018105 -0.005131 0.000000 0.000000 0.000000
# 3 -0.005223 -0.005131 0.015034 0.000000 0.000000 0.000000
# 4 0.000000 0.000000 0.000000 0.049472 0.000000 0.000000
# 5 0.000000 0.000000 0.000000 0.000000 0.059031 0.000000
# 6 0.000000 0.000000 0.000000 0.000000 0.000000 0.035424
#
#
# Mechanical properties :
#
#
# Convention : Reuss Voigt Hill
#
# Bulk Modulus (GPa) = 58.27470 58.86078 58.56774
# Shear Modulus (GPa) = 21.64876 22.33943 21.99409
#
# Velocity S-wave (km/s) = 3.66083 3.71877 3.68991
# Velocity P-wave (km/s) = 7.34465 7.40789 7.37634
#
# Compressibility (1/GPa) = 0.01716010
#
# Stress axis : x y z
#
# Youngs Moduli (GPa) = 62.12251 55.23421 66.51425
#
# Poissons Ratio (x) = 0.31394 0.34741
# Poissons Ratio (y) = 0.35309 0.34130
# Poissons Ratio (z) = 0.32447 0.28342
#
# Static dielectric constant tensor:
#      x y z
#    x 3.160950 0.000000 0.000000 
#    y 0.000000 3.102800 0.000000 
#    z 0.000000 0.000000 2.772750 
# 
# 
# High freq. dielectric constant tensor:
#      x y z
#    x 1.618930 0.000000 0.000000 
#    y 0.000000 1.632700 0.000000 
#    z 0.000000 0.000000 1.588300 
# 
# From -- ./inp_files/75999.got.cif
#   From: 2010.03.12/outbox.cif.g09.slc.cpg/sg65_38_cif.got.tgz:75999.got - 2010.04.10 20:52:16.
