data_PCOD8268922
_publ_section_title
;
Structure prediction by ZEFSAII (Michael W. Deem and Ramdas Pophale) SiO2 
 PCOD8268922
Probable space group: C M M M
;
_chemical_formula_sum "Si O2"
_cell_formula_units_Z 104
_cell_length_a 28.345186
_cell_length_b 9.083509
_cell_length_c 22.867599
_cell_angle_alpha 90.000000
_cell_angle_beta 90.000000
_cell_angle_gamma 90.000000
_cell_volume 5887.806517
_symmetry_space_group_name_H-M "C M M M"
_symmetry_group_IT_number 65
_symmetry_cell_setting 'orthorhombic'
loop_
_space_group_symop_operation_xyz
x,y,z
-x,-y,z
x,-y,-z
-x,y,-z
-x,-y,-z
x,y,-z
-x,y,z
x,-y,z
1/2+x,1/2+y,z
1/2-x,1/2-y,z
1/2+x,1/2-y,-z
1/2-x,1/2+y,-z
1/2-x,1/2-y,-z
1/2+x,1/2+y,-z
1/2-x,1/2+y,z
1/2+x,1/2-y,z
loop_
_atom_site_type_symbol
_atom_site_label
_atom_site_fract_x
_atom_site_fract_y
_atom_site_fract_z
Si Si1 0.946367 0.175252 0.000000
Si Si2 0.112243 0.326893 0.337078
Si Si3 0.054500 0.168000 0.567450
Si Si4 0.702361 0.326630 0.295114
Si Si5 0.397002 0.325460 0.117188
Si Si6 0.445344 0.169315 0.223156
Si Si7 0.297057 0.671738 0.839966
O O1 0.918494 0.234969 0.943394
O O2 0.000000 0.236373 0.000000
O O3 0.947136 0.000000 0.000000
O O4 0.122184 0.500000 0.338522
O O5 0.085707 0.280346 0.395708
O O6 0.161079 0.239594 0.334379
O O7 0.081064 0.280322 0.281558
O O8 0.068114 0.189692 0.500000
O O9 0.000000 0.207382 0.577676
O O10 0.064435 0.000000 0.586818
O O11 0.705965 0.500000 0.305149
O O12 0.750000 0.250000 0.316888
O O13 0.693132 0.286480 0.227332
O O14 0.399674 0.500000 0.120444
O O15 0.428506 0.265950 0.169361
O O16 0.342470 0.274040 0.123068
O O17 0.500000 0.199029 0.234205
O O18 0.434817 0.000000 0.208364
O O19 0.288400 0.500000 0.847543
O O20 0.250000 0.750000 0.863987
#
# Coordination Sequence:
#
# PCOD8268922 Si02
#       7
#     8  16  16  16  16  16  16
#     4   9  18  32  52  75  99 131 173 219 262 309
#     4  11  21  33  52  79 110 141 175 217 266 317
#     4   9  19  36  56  78 107 145 186 224 262 308
#     4  10  19  33  52  77 107 138 175 215 264 320
#     4  10  19  34  53  75  99 131 174 217 260 310
#     4  10  21  34  48  72 106 138 168 210 262 310
#     4   9  18  31  50  74 101 131 166 209 259 313
#
# _framework density 17.663623999999999
#
# number of rings (size 3 to 8) (size 9 to 14) (size 15 to 20)
#    0.000    2.231    1.538    2.308    0.000    4.000 
#    0.000    1.538    0.000    1.846    0.000    0.000 
#    0.000    0.000    0.000    0.000    0.000    0.000 
#
# Total GULP energy -644929.610059 kJ/mol
# GULP energy per Si atom -12402.492501 kJ/mol
# Density = 1.762342 g / cm^3
# Si number density = 17.663624 Si / 1000 Ang^3
#
#
#
# Elastic Constant Matrix: (Units=GPa)
#
#
# Indices 1 2 3 4 5 6 
#
# 1 129.1806 45.4796 57.2539 0.0000 0.0000 0.0000
# 2 45.4796 56.0079 34.8413 0.0000 0.0000 0.0000
# 3 57.2539 34.8413 91.7362 0.0000 0.0000 0.0000
# 4 0.0000 0.0000 0.0000 21.4113 0.0000 0.0000
# 5 0.0000 0.0000 0.0000 0.0000 27.7195 0.0000
# 6 0.0000 0.0000 0.0000 0.0000 0.0000 32.3818
#
#
#
# Elastic Compliance Matrix: (Units=1/GPa)
#
#
# Indices 1 2 3 4 5 6 
#
# 1 0.012457 -0.006912 -0.005149 0.000000 0.000000 0.000000
# 2 -0.006912 0.027213 -0.006022 0.000000 0.000000 0.000000
# 3 -0.005149 -0.006022 0.016402 0.000000 0.000000 0.000000
# 4 0.000000 0.000000 0.000000 0.046704 0.000000 0.000000
# 5 0.000000 0.000000 0.000000 0.000000 0.036076 0.000000
# 6 0.000000 0.000000 0.000000 0.000000 0.000000 0.030882
#
#
# Mechanical properties :
#
#
# Convention : Reuss Voigt Hill
#
# Bulk Modulus (GPa) = 50.23681 61.34158 55.78920
# Shear Modulus (GPa) = 23.52563 25.59251 24.55907
#
# Velocity S-wave (km/s) = 3.65344 3.81055 3.73282
# Velocity P-wave (km/s) = 6.80436 7.35958 7.08741
#
# Compressibility (1/GPa) = 0.01990572
#
# Stress axis : x y z
#
# Youngs Moduli (GPa) = 80.27797 36.74694 60.96950
#
# Poissons Ratio (x) = 0.25399 0.31395
# Poissons Ratio (y) = 0.55487 0.36714
# Poissons Ratio (z) = 0.41338 0.22128
#
# Static dielectric constant tensor:
#      x y z
#    x 3.426640 0.000000 0.000000 
#    y 0.000000 3.199850 0.000000 
#    z 0.000000 0.000000 3.174050 
# 
# 
# High freq. dielectric constant tensor:
#      x y z
#    x 1.694030 0.000000 0.000000 
#    y 0.000000 1.675890 0.000000 
#    z 0.000000 0.000000 1.664540 
# 
# From -- ./inp_files/60916.got.cif
#   From: 2010.03.12/outbox.cif.g09.slc.cpg/sg65_31_cif.got.tgz:60916.got - 2010.04.10 20:52:16.
