data_PCOD8268453
_publ_section_title
;
Structure prediction by ZEFSAII (Michael W. Deem and Ramdas Pophale) SiO2 
 PCOD8268453
Probable space group: C M M M
;
_chemical_formula_sum "Si O2"
_cell_formula_units_Z 72
_cell_length_a 7.787968
_cell_length_b 20.116482
_cell_length_c 24.299172
_cell_angle_alpha 90.000000
_cell_angle_beta 90.000000
_cell_angle_gamma 90.000000
_cell_volume 3806.866670
_symmetry_space_group_name_H-M "C M M M"
_symmetry_group_IT_number 65
_symmetry_cell_setting 'orthorhombic'
loop_
_space_group_symop_operation_xyz
x,y,z
-x,-y,z
x,-y,-z
-x,y,-z
-x,-y,-z
x,y,-z
-x,y,z
x,-y,z
1/2+x,1/2+y,z
1/2-x,1/2-y,z
1/2+x,1/2-y,-z
1/2-x,1/2+y,-z
1/2-x,1/2-y,-z
1/2+x,1/2+y,-z
1/2-x,1/2+y,z
1/2+x,1/2-y,z
loop_
_atom_site_type_symbol
_atom_site_label
_atom_site_fract_x
_atom_site_fract_y
_atom_site_fract_z
Si Si1 0.692790 0.576400 0.862094
Si Si2 0.202186 0.676586 0.228062
Si Si3 0.500000 0.921315 0.938822
Si Si4 0.298150 0.177665 0.351885
Si Si5 0.204405 0.574301 0.561159
O O1 0.500000 0.582338 0.886502
O O2 0.734166 0.500000 0.846048
O O3 0.704622 0.620853 0.807757
O O4 0.828668 0.602846 0.907215
O O5 0.250000 0.750000 0.206028
O O6 0.274766 0.668127 0.290166
O O7 0.000000 0.665193 0.224636
O O8 0.500000 0.000000 0.943549
O O9 0.500000 0.889711 0.000000
O O10 0.500000 0.168749 0.349953
O O11 0.250000 0.250000 0.374797
O O12 0.215509 0.123956 0.393499
O O13 0.268948 0.594460 0.500000
O O14 0.267522 0.500000 0.575439
O O15 0.000000 0.577365 0.562448
#
# Coordination Sequence:
#
# PCOD8268453 Si02
#       5
#    16  16   8  16  16
#     4  10  20  34  54  82 111 140 179 221 262 314
#     4  10  19  32  50  73 102 138 176 217 268 322
#     4   9  18  34  56  82 112 144 178 218 262 307
#     4   9  18  30  46  69  96 125 163 208 254 307
#     4   8  14  26  44  66  92 124 165 209 253 303
#
# _framework density 18.913193
#
# number of rings (size 3 to 8) (size 9 to 14) (size 15 to 20)
#    0.000    2.778    1.111    1.333    0.000    2.667 
#    0.000    4.444    0.000    1.333    0.000    1.556 
#    0.000    0.000    0.000    0.000    0.000    0.000 
#
# Total GULP energy -446287.895948 kJ/mol
# GULP energy per Si atom -12396.885999 kJ/mol
# Density = 1.887015 g / cm^3
# Si number density = 18.913193 Si / 1000 Ang^3
#
#
#
# Elastic Constant Matrix: (Units=GPa)
#
#
# Indices 1 2 3 4 5 6 
#
# 1 71.5256 24.4820 33.7699 0.0000 0.0000 0.0000
# 2 24.4820 109.3286 82.0258 0.0000 0.0000 0.0000
# 3 33.7699 82.0258 130.4569 0.0000 0.0000 0.0000
# 4 0.0000 0.0000 0.0000 18.2227 0.0000 0.0000
# 5 0.0000 0.0000 0.0000 0.0000 9.8275 0.0000
# 6 0.0000 0.0000 0.0000 0.0000 0.0000 22.4572
#
#
#
# Elastic Compliance Matrix: (Units=1/GPa)
#
#
# Indices 1 2 3 4 5 6 
#
# 1 0.015974 -0.000899 -0.003570 0.000000 0.000000 0.000000
# 2 -0.000899 0.017365 -0.010686 0.000000 0.000000 0.000000
# 3 -0.003570 -0.010686 0.015308 0.000000 0.000000 0.000000
# 4 0.000000 0.000000 0.000000 0.054877 0.000000 0.000000
# 5 0.000000 0.000000 0.000000 0.000000 0.101755 0.000000
# 6 0.000000 0.000000 0.000000 0.000000 0.000000 0.044529
#
#
# Mechanical properties :
#
#
# Convention : Reuss Voigt Hill
#
# Bulk Modulus (GPa) = 54.52974 65.76293 60.14634
# Shear Modulus (GPa) = 17.46843 21.50371 19.48607
#
# Velocity S-wave (km/s) = 3.04239 3.37555 3.21329
# Velocity P-wave (km/s) = 6.42150 7.07382 6.75554
#
# Compressibility (1/GPa) = 0.01833862
#
# Stress axis : x y z
#
# Youngs Moduli (GPa) = 62.60123 57.58604 65.32364
#
# Poissons Ratio (x) = 0.05175 0.23321
# Poissons Ratio (y) = 0.05625 0.69805
# Poissons Ratio (z) = 0.22349 0.61536
#
# Static dielectric constant tensor:
#      x y z
#    x 3.315250 0.000000 0.000000 
#    y 0.000000 3.480180 0.000000 
#    z 0.000000 0.000000 3.696230 
# 
# 
# High freq. dielectric constant tensor:
#      x y z
#    x 1.726780 0.000000 0.000000 
#    y 0.000000 1.721910 0.000000 
#    z 0.000000 0.000000 1.724710 
# 
# From -- ./inp_files/67205.got.cif
#   From: 2010.03.12/outbox.cif.g09.slc.cpg/sg65_34_cif.got.tgz:67205.got - 2010.04.10 20:52:16.
