data_PCOD8268215
_publ_section_title
;
Structure prediction by ZEFSAII (Michael W. Deem and Ramdas Pophale) SiO2 
 PCOD8268215
Probable space group: C M M M
;
_chemical_formula_sum "Si O2"
_cell_formula_units_Z 72
_cell_length_a 20.409075
_cell_length_b 20.169322
_cell_length_c 9.495833
_cell_angle_alpha 90.000000
_cell_angle_beta 90.000000
_cell_angle_gamma 90.000000
_cell_volume 3908.838159
_symmetry_space_group_name_H-M "C M M M"
_symmetry_group_IT_number 65
_symmetry_cell_setting 'orthorhombic'
loop_
_space_group_symop_operation_xyz
x,y,z
-x,-y,z
x,-y,-z
-x,y,-z
-x,-y,-z
x,y,-z
-x,y,z
x,-y,z
1/2+x,1/2+y,z
1/2-x,1/2-y,z
1/2+x,1/2-y,-z
1/2-x,1/2+y,-z
1/2-x,1/2-y,-z
1/2+x,1/2+y,-z
1/2-x,1/2+y,z
1/2+x,1/2-y,z
loop_
_atom_site_type_symbol
_atom_site_label
_atom_site_fract_x
_atom_site_fract_y
_atom_site_fract_z
Si Si1 0.500000 0.630650 0.167734
Si Si2 0.743585 0.322429 0.839810
Si Si3 0.577239 0.000000 0.660164
Si Si4 0.000000 0.278195 0.165816
Si Si5 0.862314 0.925566 0.831977
Si Si6 0.611974 0.875998 0.840122
O O1 0.500000 0.704921 0.232715
O O2 0.435107 0.592994 0.221648
O O3 0.500000 0.632659 0.000000
O O4 0.750000 0.250000 0.764785
O O5 0.689796 0.371817 0.769545
O O6 0.813311 0.356207 0.832768
O O7 0.720416 0.310117 0.000000
O O8 0.605195 0.063467 0.736521
O O9 0.500000 0.000000 0.670254
O O10 0.601956 0.000000 0.500000
O O11 0.065254 0.316874 0.214556
O O12 0.000000 0.269807 0.000000
O O13 0.845324 0.000000 0.777851
O O14 0.858872 0.924551 0.000000
O O15 0.592170 0.895982 0.000000
#
# Coordination Sequence:
#
# PCOD8268215 Si02
#       6
#     8  16   8   8  16  16
#     4   9  15  24  38  56  89 127 160 195 238 290
#     4   9  17  28  43  67  99 131 164 205 252 297
#     4  11  23  37  51  71 101 134 169 212 260 303
#     4   9  16  26  42  66  88 117 159 200 236 284
#     4   9  16  24  35  55  86 127 166 195 235 294
#     4  10  19  31  51  74  99 130 168 207 249 298
#
# _framework density 18.419796000000002
#
# number of rings (size 3 to 8) (size 9 to 14) (size 15 to 20)
#    0.000    2.556    1.111    2.000    1.556    7.111 
#    0.000    0.000    0.000    0.667    0.000    0.000 
#    0.000    0.000    0.000    1.000    0.000    3.111 
#
# Total GULP energy -446209.710906 kJ/mol
# GULP energy per Si atom -12394.714192 kJ/mol
# Density = 1.837787 g / cm^3
# Si number density = 18.419796 Si / 1000 Ang^3
#
#
#
# Elastic Constant Matrix: (Units=GPa)
#
#
# Indices 1 2 3 4 5 6 
#
# 1 123.2198 65.5776 10.1755 0.0000 0.0000 0.0000
# 2 65.5776 182.0071 28.6923 0.0000 0.0000 0.0000
# 3 10.1755 28.6923 35.2794 0.0000 0.0000 0.0000
# 4 0.0000 0.0000 0.0000 -6.8185 0.0000 0.0000
# 5 0.0000 0.0000 0.0000 0.0000 22.7654 0.0000
# 6 0.0000 0.0000 0.0000 0.0000 0.0000 37.0886
#
#
#
# Elastic Compliance Matrix: (Units=1/GPa)
#
#
# Indices 1 2 3 4 5 6 
#
# 1 0.010041 -0.003626 0.000053 0.000000 0.000000 0.000000
# 2 -0.003626 0.007612 -0.005145 0.000000 0.000000 0.000000
# 3 0.000053 -0.005145 0.032514 0.000000 0.000000 0.000000
# 4 0.000000 0.000000 0.000000 -0.146660 0.000000 0.000000
# 5 0.000000 0.000000 0.000000 0.000000 0.043926 0.000000
# 6 0.000000 0.000000 0.000000 0.000000 0.000000 0.026962
#
#
# Mechanical properties :
#
#
# Convention : Reuss Voigt Hill
#
# Bulk Modulus (GPa) = 30.55195 61.04411 45.79803
# Shear Modulus (GPa) = 1823.47347 26.34450 924.90898
#
# Velocity S-wave (km/s) = 31.49765 3.78594 22.43252
# Velocity P-wave (km/s) = 36.59816 7.23350 26.37943
#
# Compressibility (1/GPa) = 0.03273114
#
# Stress axis : x y z
#
# Youngs Moduli (GPa) = 99.59118 131.37414 30.75598
#
# Poissons Ratio (x) = 0.47639 -0.00163
# Poissons Ratio (y) = 0.36114 0.15823
# Poissons Ratio (z) = -0.00528 0.67588
#
# Static dielectric constant tensor:
#      x y z
#    x 3.488790 0.000000 0.000000 
#    y 0.000000 3.786560 0.000000 
#    z 0.000000 0.000000 2.701050 
# 
# 
# High freq. dielectric constant tensor:
#      x y z
#    x 1.730460 0.000000 0.000000 
#    y 0.000000 1.736480 0.000000 
#    z 0.000000 0.000000 1.616500 
# 
# From -- ./inp_files/11334.got.cif
#   From: 2010.03.12/outbox.cif.g09.slc.cpg/sg65_6_cif.got.tgz:11334.got - 2010.04.10 20:52:16.
