data_PCOD8268266
_publ_section_title
;
Structure prediction by ZEFSAII (Michael W. Deem and Ramdas Pophale) SiO2 
 PCOD8268266
Probable space group: C M M M
;
_chemical_formula_sum "Si O2"
_cell_formula_units_Z 88
_cell_length_a 17.788998
_cell_length_b 10.865759
_cell_length_c 25.728597
_cell_angle_alpha 90.000000
_cell_angle_beta 90.000000
_cell_angle_gamma 90.000000
_cell_volume 4973.105345
_symmetry_space_group_name_H-M "C M M M"
_symmetry_group_IT_number 65
_symmetry_cell_setting 'orthorhombic'
loop_
_space_group_symop_operation_xyz
x,y,z
-x,-y,z
x,-y,-z
-x,y,-z
-x,-y,-z
x,y,-z
-x,y,z
x,-y,z
1/2+x,1/2+y,z
1/2-x,1/2-y,z
1/2+x,1/2-y,-z
1/2-x,1/2+y,-z
1/2-x,1/2-y,-z
1/2+x,1/2+y,-z
1/2-x,1/2+y,z
1/2+x,1/2-y,z
loop_
_atom_site_type_symbol
_atom_site_label
_atom_site_fract_x
_atom_site_fract_y
_atom_site_fract_z
Si Si1 0.185529 0.147639 0.596937
Si Si2 0.086831 0.142868 0.192348
Si Si3 0.161635 0.253995 0.095275
Si Si4 0.918580 0.859562 0.000000
Si Si5 0.417514 0.645236 0.692115
Si Si6 0.917234 0.143346 0.500000
Si Si7 0.587173 0.000000 0.061531
O O1 0.250000 0.250000 0.590620
O O2 0.145587 0.182429 0.650943
O O3 0.128168 0.180379 0.551180
O O4 0.209932 0.000000 0.594969
O O5 0.140527 0.213101 0.152998
O O6 0.104350 0.193818 0.250419
O O7 0.000000 0.166622 0.177816
O O8 0.106418 0.000000 0.188556
O O9 0.250000 0.250000 0.088481
O O10 0.127194 0.166299 0.051803
O O11 0.129208 0.387716 0.087208
O O12 0.000000 0.787525 0.000000
O O13 0.938349 0.000000 0.000000
O O14 0.500000 0.697965 0.675964
O O15 0.424918 0.500000 0.695046
O O16 0.000000 0.207549 0.500000
O O17 0.930677 0.000000 0.500000
O O18 0.500000 0.000000 0.076990
O O19 0.598915 0.000000 0.000000
#
# Coordination Sequence:
#
# PCOD8268266 Si02
#       7
#    16  16  16   8  16   8   8
#     4  10  19  31  51  78 111 145 177 223 274 326
#     4   9  18  35  58  79 103 133 173 222 268 317
#     4  12  25  36  57  81 111 137 171 220 265 313
#     4  11  23  39  61  81 101 131 169 213 263 319
#     4   8  15  30  54  79  99 133 180 222 261 310
#     4   9  17  30  51  79 106 139 190 240 268 305
#     4  11  24  42  60  76 106 152 184 203 255 341
#
# _framework density 17.695181999999999
#
# number of rings (size 3 to 8) (size 9 to 14) (size 15 to 20)
#    0.000    2.091    0.909    4.364    2.545    4.364 
#    0.000    0.000    2.000    2.727    0.000    0.000 
#    0.000    0.000    0.000    0.000    0.000    0.000 
#
# Total GULP energy -545303.421240 kJ/mol
# GULP energy per Si atom -12393.259574 kJ/mol
# Density = 1.765491 g / cm^3
# Si number density = 17.695182 Si / 1000 Ang^3
#
#
#
# Elastic Constant Matrix: (Units=GPa)
#
#
# Indices 1 2 3 4 5 6 
#
# 1 151.5645 54.6743 75.2595 0.0000 0.0000 0.0000
# 2 54.6743 71.3676 34.6553 0.0000 0.0000 0.0000
# 3 75.2595 34.6553 128.8470 0.0000 0.0000 0.0000
# 4 0.0000 0.0000 0.0000 -12.4976 0.0000 0.0000
# 5 0.0000 0.0000 0.0000 0.0000 31.7675 0.0000
# 6 0.0000 0.0000 0.0000 0.0000 0.0000 23.0769
#
#
#
# Elastic Compliance Matrix: (Units=1/GPa)
#
#
# Indices 1 2 3 4 5 6 
#
# 1 0.011300 -0.006271 -0.004914 0.000000 0.000000 0.000000
# 2 -0.006271 0.019597 -0.001608 0.000000 0.000000 0.000000
# 3 -0.004914 -0.001608 0.011064 0.000000 0.000000 0.000000
# 4 0.000000 0.000000 0.000000 -0.080015 0.000000 0.000000
# 5 0.000000 0.000000 0.000000 0.000000 0.031479 0.000000
# 6 0.000000 0.000000 0.000000 0.000000 0.000000 0.043333
#
#
# Mechanical properties :
#
#
# Convention : Reuss Voigt Hill
#
# Bulk Modulus (GPa) = 61.06715 75.66192 68.36453
# Shear Modulus (GPa) = 73.74595 20.94869 47.34732
#
# Velocity S-wave (km/s) = 6.46268 3.44447 5.17835
# Velocity P-wave (km/s) = 9.50125 7.65966 8.62972
#
# Compressibility (1/GPa) = 0.01637542
#
# Stress axis : x y z
#
# Youngs Moduli (GPa) = 88.49762 51.02880 90.38567
#
# Poissons Ratio (x) = 0.31999 0.44412
# Poissons Ratio (y) = 0.55494 0.14535
# Poissons Ratio (z) = 0.43484 0.08206
#
# Static dielectric constant tensor:
#      x y z
#    x 3.446920 0.000000 0.000000 
#    y 0.000000 3.059470 0.000000 
#    z 0.000000 0.000000 3.858200 
# 
# 
# High freq. dielectric constant tensor:
#      x y z
#    x 1.688480 0.000000 0.000000 
#    y 0.000000 1.653380 0.000000 
#    z 0.000000 0.000000 1.699160 
# 
# From -- ./inp_files/74797.got.cif
#   From: 2010.03.12/outbox.cif.g09.slc.cpg/sg65_38_cif.got.tgz:74797.got - 2010.04.10 20:52:16.
