data_PCOD8268268
_publ_section_title
;
Structure prediction by ZEFSAII (Michael W. Deem and Ramdas Pophale) SiO2 
 PCOD8268268
Probable space group: C M M M
;
_chemical_formula_sum "Si O2"
_cell_formula_units_Z 104
_cell_length_a 20.766849
_cell_length_b 28.596813
_cell_length_c 9.208834
_cell_angle_alpha 90.000000
_cell_angle_beta 90.000000
_cell_angle_gamma 90.000000
_cell_volume 5468.810626
_symmetry_space_group_name_H-M "C M M M"
_symmetry_group_IT_number 65
_symmetry_cell_setting 'orthorhombic'
loop_
_space_group_symop_operation_xyz
x,y,z
-x,-y,z
x,-y,-z
-x,y,-z
-x,-y,-z
x,y,-z
-x,y,z
x,-y,z
1/2+x,1/2+y,z
1/2-x,1/2-y,z
1/2+x,1/2-y,-z
1/2-x,1/2+y,-z
1/2-x,1/2-y,-z
1/2+x,1/2+y,-z
1/2-x,1/2+y,z
1/2+x,1/2-y,z
loop_
_atom_site_type_symbol
_atom_site_label
_atom_site_fract_x
_atom_site_fract_y
_atom_site_fract_z
Si Si1 0.326528 0.199022 0.331275
Si Si2 0.819695 0.807027 0.331961
Si Si3 0.123538 0.110372 0.829229
Si Si4 0.751137 0.945958 0.835384
Si Si5 0.500000 0.553341 0.172979
Si Si6 0.072068 0.363790 0.167041
Si Si7 0.123647 0.553619 0.329684
O O1 0.337044 0.186971 0.500000
O O2 0.254369 0.184540 0.282873
O O3 0.338333 0.253577 0.302335
O O4 0.377716 0.171658 0.236215
O O5 0.826969 0.819386 0.500000
O O6 0.870005 0.838774 0.243445
O O7 0.186377 0.081617 0.784580
O O8 0.062195 0.081679 0.769653
O O9 0.117215 0.117766 0.000000
O O10 0.694258 0.932139 0.726636
O O11 0.769038 0.000000 0.823353
O O12 0.730801 0.933043 0.000000
O O13 0.500000 0.500000 0.234173
O O14 0.500000 0.551023 0.000000
O O15 0.072715 0.413751 0.248405
O O16 0.000000 0.343285 0.182809
O O17 0.090584 0.371589 0.000000
O O18 0.120678 0.562982 0.500000
O O19 0.107431 0.500000 0.291274
#
# Coordination Sequence:
#
# PCOD8268268 Si02
#       7
#    16  16  16  16   8  16  16
#     4   9  19  38  61  82 106 140 179 218 266 325
#     4   9  19  36  58  83 109 136 172 222 275 323
#     4  10  19  31  51  79 106 141 184 226 272 322
#     4   9  17  30  50  77 107 138 177 225 273 318
#     4   9  18  34  53  73 105 149 193 231 268 321
#     4  11  24  39  55  79 110 143 177 216 264 312
#     4  10  21  36  55  80 108 140 179 220 262 313
#
# _framework density 19.016932000000001
#
# number of rings (size 3 to 8) (size 9 to 14) (size 15 to 20)
#    0.000    2.385    0.000    3.231    0.000    8.615 
#    1.385    3.462    0.000    1.846    0.000    0.000 
#    0.000    0.000    0.000    0.000    0.000    0.000 
#
# Total GULP energy -644838.943732 kJ/mol
# GULP energy per Si atom -12400.748918 kJ/mol
# Density = 1.897365 g / cm^3
# Si number density = 19.016932 Si / 1000 Ang^3
#
#
#
# Elastic Constant Matrix: (Units=GPa)
#
#
# Indices 1 2 3 4 5 6 
#
# 1 96.9167 62.9298 49.5019 0.0000 0.0000 0.0000
# 2 62.9298 102.0225 48.4631 0.0000 0.0000 0.0000
# 3 49.5019 48.4631 79.9042 0.0000 0.0000 0.0000
# 4 0.0000 0.0000 0.0000 35.4667 0.0000 0.0000
# 5 0.0000 0.0000 0.0000 0.0000 18.8284 0.0000
# 6 0.0000 0.0000 0.0000 0.0000 0.0000 31.2448
#
#
#
# Elastic Compliance Matrix: (Units=1/GPa)
#
#
# Indices 1 2 3 4 5 6 
#
# 1 0.019478 -0.008825 -0.006714 0.000000 0.000000 0.000000
# 2 -0.008825 0.017767 -0.005309 0.000000 0.000000 0.000000
# 3 -0.006714 -0.005309 0.019895 0.000000 0.000000 0.000000
# 4 0.000000 0.000000 0.000000 0.028195 0.000000 0.000000
# 5 0.000000 0.000000 0.000000 0.000000 0.053111 0.000000
# 6 0.000000 0.000000 0.000000 0.000000 0.000000 0.032005
#
#
# Mechanical properties :
#
#
# Convention : Reuss Voigt Hill
#
# Bulk Modulus (GPa) = 64.75344 66.73699 65.74522
# Shear Modulus (GPa) = 23.01020 24.97123 23.99072
#
# Velocity S-wave (km/s) = 3.48226 3.62761 3.55568
# Velocity P-wave (km/s) = 7.09172 7.26056 7.17664
#
# Compressibility (1/GPa) = 0.01544319
#
# Stress axis : x y z
#
# Youngs Moduli (GPa) = 51.34073 56.28443 50.26514
#
# Poissons Ratio (x) = 0.49670 0.33750
# Poissons Ratio (y) = 0.45307 0.26685
# Poissons Ratio (z) = 0.34472 0.29880
#
# Static dielectric constant tensor:
#      x y z
#    x 3.435200 0.000000 0.000000 
#    y 0.000000 3.563620 0.000000 
#    z 0.000000 0.000000 3.330480 
# 
# 
# High freq. dielectric constant tensor:
#      x y z
#    x 1.732960 0.000000 0.000000 
#    y 0.000000 1.747720 0.000000 
#    z 0.000000 0.000000 1.726890 
# 
# From -- ./inp_files/12769.got.cif
#   From: 2010.03.12/outbox.cif.g09.slc.cpg/sg65_7_cif.got.tgz:12769.got - 2010.04.10 20:52:16.
