data_PCOD8268480
_publ_section_title
;
Structure prediction by ZEFSAII (Michael W. Deem and Ramdas Pophale) SiO2 
 PCOD8268480
Probable space group: C M M M
;
_chemical_formula_sum "Si O2"
_cell_formula_units_Z 88
_cell_length_a 14.373459
_cell_length_b 18.568079
_cell_length_c 17.860027
_cell_angle_alpha 90.000000
_cell_angle_beta 90.000000
_cell_angle_gamma 90.000000
_cell_volume 4766.618353
_symmetry_space_group_name_H-M "C M M M"
_symmetry_group_IT_number 65
_symmetry_cell_setting 'orthorhombic'
loop_
_space_group_symop_operation_xyz
x,y,z
-x,-y,z
x,-y,-z
-x,y,-z
-x,-y,-z
x,y,-z
-x,y,z
x,-y,z
1/2+x,1/2+y,z
1/2-x,1/2-y,z
1/2+x,1/2-y,-z
1/2-x,1/2+y,-z
1/2-x,1/2-y,-z
1/2+x,1/2+y,-z
1/2-x,1/2+y,z
1/2+x,1/2-y,z
loop_
_atom_site_type_symbol
_atom_site_label
_atom_site_fract_x
_atom_site_fract_y
_atom_site_fract_z
Si Si1 0.604069 0.914756 0.917355
Si Si2 0.783398 0.583242 0.776514
Si Si3 0.651925 0.289936 0.586159
Si Si4 0.610806 0.080412 0.500000
Si Si5 0.601611 0.151633 0.648350
Si Si6 0.393792 0.417474 0.690739
O O1 0.500000 0.888349 0.893458
O O2 0.683080 0.889551 0.858321
O O3 0.603718 0.000000 0.921524
O O4 0.628954 0.883716 0.000000
O O5 0.813137 0.500000 0.763609
O O6 0.834073 0.634715 0.718002
O O7 0.672185 0.592814 0.764393
O O8 0.620075 0.297067 0.500000
O O9 0.750000 0.250000 0.594090
O O10 0.585627 0.236707 0.633808
O O11 0.645181 0.368521 0.623297
O O12 0.500000 0.085727 0.500000
O O13 0.650752 0.119087 0.573674
O O14 0.648456 0.000000 0.500000
O O15 0.500000 0.116470 0.662348
O O16 0.500000 0.397870 0.712786
O O17 0.387248 0.500000 0.662683
#
# Coordination Sequence:
#
# PCOD8268480 Si02
#       6
#    16  16  16   8  16  16
#     4   8  14  26  47  77 112 146 176 211 262 324
#     4  10  19  32  50  76 109 142 178 221 266 317
#     4  11  22  38  56  75 101 137 181 234 286 330
#     4   9  18  30  43  66 102 138 169 200 247 318
#     4  11  20  31  49  74 101 136 173 213 272 331
#     4  10  22  39  57  76 101 141 191 236 275 316
#
# _framework density 18.461725999999999
#
# number of rings (size 3 to 8) (size 9 to 14) (size 15 to 20)
#    0.000    2.091    2.727    2.182    0.000    3.273 
#    0.000    0.909    0.000    0.545    0.000    6.364 
#    0.000    2.909    0.000    0.182    0.000    0.000 
#
# Total GULP energy -545221.627285 kJ/mol
# GULP energy per Si atom -12391.400620 kJ/mol
# Density = 1.841971 g / cm^3
# Si number density = 18.461726 Si / 1000 Ang^3
#
#
#
# Elastic Constant Matrix: (Units=GPa)
#
#
# Indices 1 2 3 4 5 6 
#
# 1 114.1894 28.1169 65.5672 0.0000 0.0000 0.0000
# 2 28.1169 74.3036 39.5563 0.0000 0.0000 0.0000
# 3 65.5672 39.5563 136.2205 0.0000 0.0000 0.0000
# 4 0.0000 0.0000 0.0000 13.9408 0.0000 0.0000
# 5 0.0000 0.0000 0.0000 0.0000 18.6874 0.0000
# 6 0.0000 0.0000 0.0000 0.0000 0.0000 18.5467
#
#
#
# Elastic Compliance Matrix: (Units=1/GPa)
#
#
# Indices 1 2 3 4 5 6 
#
# 1 0.012297 -0.001777 -0.005403 0.000000 0.000000 0.000000
# 2 -0.001777 0.016176 -0.003842 0.000000 0.000000 0.000000
# 3 -0.005403 -0.003842 0.011057 0.000000 0.000000 0.000000
# 4 0.000000 0.000000 0.000000 0.071732 0.000000 0.000000
# 5 0.000000 0.000000 0.000000 0.000000 0.053512 0.000000
# 6 0.000000 0.000000 0.000000 0.000000 0.000000 0.053918
#
#
# Mechanical properties :
#
#
# Convention : Reuss Voigt Hill
#
# Bulk Modulus (GPa) = 57.18637 65.68824 61.43730
# Shear Modulus (GPa) = 20.27856 22.99984 21.63920
#
# Velocity S-wave (km/s) = 3.31782 3.53344 3.42733
# Velocity P-wave (km/s) = 6.76167 7.23221 7.00089
#
# Compressibility (1/GPa) = 0.01748668
#
# Stress axis : x y z
#
# Youngs Moduli (GPa) = 81.31821 61.81992 90.43751
#
# Poissons Ratio (x) = 0.10985 0.48864
# Poissons Ratio (y) = 0.14450 0.34746
# Poissons Ratio (z) = 0.43937 0.23751
#
# Static dielectric constant tensor:
#      x y z
#    x 3.566480 0.000000 0.000000 
#    y 0.000000 3.369320 0.000000 
#    z 0.000000 0.000000 3.489310 
# 
# 
# High freq. dielectric constant tensor:
#      x y z
#    x 1.719390 0.000000 0.000000 
#    y 0.000000 1.695560 0.000000 
#    z 0.000000 0.000000 1.689270 
# 
# From -- ./inp_files/53009.got.cif
#   From: 2010.03.12/outbox.cif.g09.slc.cpg/sg65_27_cif.got.tgz:53009.got - 2010.04.10 20:52:16.
