data_PCOD8268616
_publ_section_title
;
Structure prediction by ZEFSAII (Michael W. Deem and Ramdas Pophale) SiO2 
 PCOD8268616
Probable space group: C M M M
;
_chemical_formula_sum "Si O2"
_cell_formula_units_Z 104
_cell_length_a 21.950598
_cell_length_b 27.839524
_cell_length_c 9.463592
_cell_angle_alpha 90.000000
_cell_angle_beta 90.000000
_cell_angle_gamma 90.000000
_cell_volume 5783.146181
_symmetry_space_group_name_H-M "C M M M"
_symmetry_group_IT_number 65
_symmetry_cell_setting 'orthorhombic'
loop_
_space_group_symop_operation_xyz
x,y,z
-x,-y,z
x,-y,-z
-x,y,-z
-x,-y,-z
x,y,-z
-x,y,z
x,-y,z
1/2+x,1/2+y,z
1/2-x,1/2-y,z
1/2+x,1/2-y,-z
1/2-x,1/2+y,-z
1/2-x,1/2-y,-z
1/2+x,1/2+y,-z
1/2-x,1/2+y,z
1/2+x,1/2-y,z
loop_
_atom_site_type_symbol
_atom_site_label
_atom_site_fract_x
_atom_site_fract_y
_atom_site_fract_z
Si Si1 0.928379 0.186045 0.837631
Si Si2 0.215261 0.500000 0.343792
Si Si3 0.570444 0.225913 0.656353
Si Si4 0.140244 0.000000 0.340283
Si Si5 0.217630 0.586568 0.841802
Si Si6 0.904760 0.633631 0.839303
Si Si7 0.643773 0.407754 0.165025
Si Si8 0.500000 0.945824 0.834533
O O1 0.901354 0.230144 0.746199
O O2 0.894820 0.138001 0.786328
O O3 0.000000 0.178305 0.816112
O O4 0.912634 0.197363 0.000000
O O5 0.187228 0.500000 0.500000
O O6 0.287615 0.500000 0.345866
O O7 0.191974 0.453441 0.263066
O O8 0.600840 0.223372 0.500000
O O9 0.500000 0.237135 0.639117
O O10 0.577648 0.176021 0.735920
O O11 0.118923 0.047290 0.255601
O O12 0.113187 0.000000 0.500000
O O13 0.168512 0.629047 0.831121
O O14 0.285345 0.604220 0.801342
O O15 0.218917 0.564852 0.000000
O O16 0.939876 0.584931 0.790576
O O17 0.924639 0.646452 0.000000
O O18 0.633956 0.419630 0.000000
O O19 0.500000 0.000000 0.764789
O O20 0.500000 0.953788 0.000000
#
# Coordination Sequence:
#
# PCOD8268616 Si02
#       8
#    16   8  16   8  16  16  16   8
#     4   9  18  33  55  77  96 123 164 206 247 294
#     4   9  17  29  45  67  95 131 169 201 235 282
#     4  10  20  34  52  73  98 127 162 205 250 294
#     4   9  17  29  48  72 100 135 168 194 232 292
#     4   9  18  30  48  72  97 127 164 203 244 289
#     4  10  19  32  52  73  97 130 167 203 244 294
#     4   9  17  32  51  74 102 129 161 206 247 285
#     4   9  18  30  47  73 101 127 161 206 245 280
#
# _framework density 17.983291999999999
#
# number of rings (size 3 to 8) (size 9 to 14) (size 15 to 20)
#    0.000    2.692    0.769    0.923    1.077    3.692 
#    0.000    1.154    0.000    7.385    0.000    0.000 
#    0.000    0.000    0.000    0.000    0.000    0.000 
#
# Total GULP energy -644545.636438 kJ/mol
# GULP energy per Si atom -12395.108393 kJ/mol
# Density = 1.794236 g / cm^3
# Si number density = 17.983292 Si / 1000 Ang^3
#
#
#
# Elastic Constant Matrix: (Units=GPa)
#
#
# Indices 1 2 3 4 5 6 
#
# 1 45.0892 37.5582 23.9338 0.0000 0.0000 0.0000
# 2 37.5582 148.3055 71.8475 0.0000 0.0000 0.0000
# 3 23.9338 71.8475 102.9963 0.0000 0.0000 0.0000
# 4 0.0000 0.0000 0.0000 -17.4675 0.0000 0.0000
# 5 0.0000 0.0000 0.0000 0.0000 13.6820 0.0000
# 6 0.0000 0.0000 0.0000 0.0000 0.0000 19.0474
#
#
#
# Elastic Compliance Matrix: (Units=1/GPa)
#
#
# Indices 1 2 3 4 5 6 
#
# 1 0.028494 -0.006054 -0.002398 0.000000 0.000000 0.000000
# 2 -0.006054 0.011471 -0.006595 0.000000 0.000000 0.000000
# 3 -0.002398 -0.006595 0.014867 0.000000 0.000000 0.000000
# 4 0.000000 0.000000 0.000000 -0.057249 0.000000 0.000000
# 5 0.000000 0.000000 0.000000 0.000000 0.073089 0.000000
# 6 0.000000 0.000000 0.000000 0.000000 0.000000 0.052501
#
#
# Mechanical properties :
#
#
# Convention : Reuss Voigt Hill
#
# Bulk Modulus (GPa) = 40.42464 62.56334 51.49399
# Shear Modulus (GPa) = 30.95721 13.92248 22.43984
#
# Velocity S-wave (km/s) = 4.15353 2.78544 3.53628
# Velocity P-wave (km/s) = 6.74761 6.72385 6.73574
#
# Compressibility (1/GPa) = 0.02473739
#
# Stress axis : x y z
#
# Youngs Moduli (GPa) = 35.09469 87.17526 67.26372
#
# Poissons Ratio (x) = 0.52780 0.16130
# Poissons Ratio (y) = 0.21248 0.44361
# Poissons Ratio (z) = 0.08416 0.57493
#
# Static dielectric constant tensor:
#      x y z
#    x 3.169780 0.000000 0.000000 
#    y 0.000000 3.285130 0.000000 
#    z 0.000000 0.000000 3.496140 
# 
# 
# High freq. dielectric constant tensor:
#      x y z
#    x 1.671780 0.000000 0.000000 
#    y 0.000000 1.690820 0.000000 
#    z 0.000000 0.000000 1.690510 
# 
# From -- ./inp_files/12873.got.cif
#   From: 2010.03.12/outbox.cif.g09.slc.cpg/sg65_7_cif.got.tgz:12873.got - 2010.04.10 20:52:16.
