data_PCOD8268450
_publ_section_title
;
Structure prediction by ZEFSAII (Michael W. Deem and Ramdas Pophale) SiO2 
 PCOD8268450
Probable space group: C M M M
;
_chemical_formula_sum "Si O2"
_cell_formula_units_Z 120
_cell_length_a 9.152232
_cell_length_b 27.440203
_cell_length_c 26.029644
_cell_angle_alpha 90.000000
_cell_angle_beta 90.000000
_cell_angle_gamma 90.000000
_cell_volume 6537.061471
_symmetry_space_group_name_H-M "C M M M"
_symmetry_group_IT_number 65
_symmetry_cell_setting 'orthorhombic'
loop_
_space_group_symop_operation_xyz
x,y,z
-x,-y,z
x,-y,-z
-x,y,-z
-x,-y,-z
x,y,-z
-x,y,z
x,-y,z
1/2+x,1/2+y,z
1/2-x,1/2-y,z
1/2+x,1/2-y,-z
1/2-x,1/2+y,-z
1/2-x,1/2-y,-z
1/2+x,1/2+y,-z
1/2-x,1/2+y,z
1/2+x,1/2-y,z
loop_
_atom_site_type_symbol
_atom_site_label
_atom_site_fract_x
_atom_site_fract_y
_atom_site_fract_z
Si Si1 0.338158 0.204877 0.276554
Si Si2 0.828111 0.700324 0.440694
Si Si3 0.172526 0.862265 0.205011
Si Si4 0.338370 0.123001 0.639222
Si Si5 0.672124 0.443785 0.713595
Si Si6 0.328210 0.800842 0.000000
Si Si7 0.841229 0.053236 0.060344
Si Si8 0.330901 0.863786 0.901712
O O1 0.500000 0.220827 0.258156
O O2 0.250000 0.250000 0.300569
O O3 0.244982 0.185339 0.229069
O O4 0.352361 0.163835 0.318328
O O5 0.791188 0.690805 0.500000
O O6 0.750000 0.750000 0.421629
O O7 0.772198 0.651704 0.410404
O O8 0.000000 0.707385 0.430496
O O9 0.218437 0.911795 0.236182
O O10 0.228631 0.859645 0.147346
O O11 0.000000 0.856540 0.206006
O O12 0.500000 0.101866 0.626607
O O13 0.239994 0.078797 0.661027
O O14 0.500000 0.441746 0.705905
O O15 0.724877 0.500000 0.720905
O O16 0.250000 0.750000 0.000000
O O17 0.280284 0.828248 0.052174
O O18 0.500000 0.793383 0.000000
O O19 0.699198 0.082159 0.078290
O O20 0.000000 0.075906 0.077330
O O21 0.828107 0.000000 0.085544
O O22 0.837585 0.048899 0.000000
O O23 0.500000 0.856883 0.887115
#
# Coordination Sequence:
#
# PCOD8268450 Si02
#       8
#    16  16  16  16  16   8  16  16
#     4  10  19  32  50  73 101 132 167 210 256 307
#     4   9  17  29  46  72 108 146 182 221 265 312
#     4  10  21  36  54  77 103 134 168 207 257 310
#     4   9  18  31  49  75 104 136 175 217 260 310
#     4   9  19  36  56  77 102 133 172 218 265 313
#     4  10  24  42  59  78 101 133 172 211 247 292
#     4   9  18  33  54  79 103 129 162 196 235 290
#     4  11  22  38  56  79 108 135 166 208 255 304
#
# _framework density 18.356871999999999
#
# number of rings (size 3 to 8) (size 9 to 14) (size 15 to 20)
#    0.000    2.400    0.667    2.000    0.000    4.267 
#    0.000    3.333    0.000    0.400    0.000    2.800 
#    0.000    0.000    0.000    0.000    0.000    0.000 
#
# Total GULP energy -743460.985211 kJ/mol
# GULP energy per Si atom -12391.016420 kJ/mol
# Density = 1.831509 g / cm^3
# Si number density = 18.356872 Si / 1000 Ang^3
#
#
#
# Elastic Constant Matrix: (Units=GPa)
#
#
# Indices 1 2 3 4 5 6 
#
# 1 68.1366 35.9941 32.4568 0.0000 0.0000 0.0000
# 2 35.9941 69.5603 37.0898 0.0000 0.0000 0.0000
# 3 32.4568 37.0898 89.9540 0.0000 0.0000 0.0000
# 4 0.0000 0.0000 0.0000 56.7733 0.0000 0.0000
# 5 0.0000 0.0000 0.0000 0.0000 26.8332 0.0000
# 6 0.0000 0.0000 0.0000 0.0000 0.0000 37.3496
#
#
#
# Elastic Compliance Matrix: (Units=1/GPa)
#
#
# Indices 1 2 3 4 5 6 
#
# 1 0.021275 -0.008864 -0.004021 0.000000 0.000000 0.000000
# 2 -0.008864 0.022121 -0.005922 0.000000 0.000000 0.000000
# 3 -0.004021 -0.005922 0.015010 0.000000 0.000000 0.000000
# 4 0.000000 0.000000 0.000000 0.017614 0.000000 0.000000
# 5 0.000000 0.000000 0.000000 0.000000 0.037267 0.000000
# 6 0.000000 0.000000 0.000000 0.000000 0.000000 0.026774
#
#
# Mechanical properties :
#
#
# Convention : Reuss Voigt Hill
#
# Bulk Modulus (GPa) = 48.10261 48.74803 48.42532
# Shear Modulus (GPa) = 27.08468 32.33190 29.70829
#
# Velocity S-wave (km/s) = 3.84533 4.20133 4.02727
# Velocity P-wave (km/s) = 6.78059 7.08155 6.93270
#
# Compressibility (1/GPa) = 0.02078889
#
# Stress axis : x y z
#
# Youngs Moduli (GPa) = 47.00420 45.20636 66.62381
#
# Poissons Ratio (x) = 0.40073 0.26791
# Poissons Ratio (y) = 0.41667 0.39457
# Poissons Ratio (z) = 0.18902 0.26773
#
# Static dielectric constant tensor:
#      x y z
#    x 3.459850 0.000000 0.000000 
#    y 0.000000 4.714070 0.000000 
#    z 0.000000 0.000000 3.630270 
# 
# 
# High freq. dielectric constant tensor:
#      x y z
#    x 1.712750 0.000000 0.000000 
#    y 0.000000 1.701650 0.000000 
#    z 0.000000 0.000000 1.703850 
# 
# From -- ./inp_files/73892.got.cif
#   From: 2010.03.12/outbox.cif.g09.slc.cpg/sg65_37_cif.got.tgz:73892.got - 2010.04.10 20:52:16.
