data_PCOD8268030
_publ_section_title
;
Structure prediction by ZEFSAII (Michael W. Deem and Ramdas Pophale) SiO2 
 PCOD8268030
Probable space group: C M M M
;
_chemical_formula_sum "Si O2"
_cell_formula_units_Z 72
_cell_length_a 18.912311
_cell_length_b 8.831900
_cell_length_c 23.081140
_cell_angle_alpha 90.000000
_cell_angle_beta 90.000000
_cell_angle_gamma 90.000000
_cell_volume 3855.280656
_symmetry_space_group_name_H-M "C M M M"
_symmetry_group_IT_number 65
_symmetry_cell_setting 'orthorhombic'
loop_
_space_group_symop_operation_xyz
x,y,z
-x,-y,z
x,-y,-z
-x,y,-z
-x,-y,-z
x,y,-z
-x,y,z
x,-y,z
1/2+x,1/2+y,z
1/2-x,1/2-y,z
1/2+x,1/2-y,-z
1/2-x,1/2+y,-z
1/2-x,1/2-y,-z
1/2+x,1/2+y,-z
1/2-x,1/2+y,z
1/2+x,1/2-y,z
loop_
_atom_site_type_symbol
_atom_site_label
_atom_site_fract_x
_atom_site_fract_y
_atom_site_fract_z
Si Si1 0.579101 0.679936 0.064357
Si Si2 0.826515 0.319684 0.500000
Si Si3 0.578092 0.179311 0.604037
Si Si4 0.082674 0.325055 0.734231
Si Si5 0.673493 0.321431 0.168487
O O1 0.500000 0.740885 0.077973
O O2 0.578073 0.500000 0.067219
O O3 0.633737 0.744883 0.111603
O O4 0.602571 0.733718 0.000000
O O5 0.821571 0.500000 0.500000
O O6 0.750000 0.250000 0.500000
O O7 0.866992 0.257639 0.556883
O O8 0.500000 0.246736 0.591232
O O9 0.602508 0.223878 0.668715
O O10 0.573245 0.000000 0.599365
O O11 0.102247 0.500000 0.745311
O O12 0.128183 0.218918 0.775344
O O13 0.000000 0.297325 0.745915
O O14 0.681719 0.500000 0.164684
O O15 0.750000 0.250000 0.172730
#
# Coordination Sequence:
#
# PCOD8268030 Si02
#       5
#    16   8  16  16  16
#     4   8  15  30  52  75  97 124 162 207 251 295
#     4  10  19  31  49  73 101 130 162 200 242 290
#     4   8  15  30  53  76  95 123 165 206 242 286
#     4   9  18  34  55  77 101 129 164 208 255 300
#     4  11  22  34  50  74 104 137 171 205 246 296
#
# _framework density 18.675682999999999
#
# number of rings (size 3 to 8) (size 9 to 14) (size 15 to 20)
#    0.000    2.889    0.000    3.667    0.000    4.000 
#    0.000    3.333    0.000    4.667    0.000    7.778 
#    0.000    0.000    0.000    0.000    0.000    0.000 
#
# Total GULP energy -446274.938226 kJ/mol
# GULP energy per Si atom -12396.526062 kJ/mol
# Density = 1.863318 g / cm^3
# Si number density = 18.675683 Si / 1000 Ang^3
#
#
#
# Elastic Constant Matrix: (Units=GPa)
#
#
# Indices 1 2 3 4 5 6 
#
# 1 122.0083 28.4615 93.1523 0.0000 0.0000 0.0000
# 2 28.4615 31.7452 28.8027 0.0000 0.0000 0.0000
# 3 93.1523 28.8027 162.2118 0.0000 0.0000 0.0000
# 4 0.0000 0.0000 0.0000 20.6359 0.0000 0.0000
# 5 0.0000 0.0000 0.0000 0.0000 14.8781 0.0000
# 6 0.0000 0.0000 0.0000 0.0000 0.0000 15.8606
#
#
#
# Elastic Compliance Matrix: (Units=1/GPa)
#
#
# Indices 1 2 3 4 5 6 
#
# 1 0.015828 -0.007085 -0.007832 0.000000 0.000000 0.000000
# 2 -0.007085 0.040722 -0.003162 0.000000 0.000000 0.000000
# 3 -0.007832 -0.003162 0.011224 0.000000 0.000000 0.000000
# 4 0.000000 0.000000 0.000000 0.048459 0.000000 0.000000
# 5 0.000000 0.000000 0.000000 0.000000 0.067213 0.000000
# 6 0.000000 0.000000 0.000000 0.000000 0.000000 0.063049
#
#
# Mechanical properties :
#
#
# Convention : Reuss Voigt Hill
#
# Bulk Modulus (GPa) = 31.62915 68.53313 50.08114
# Shear Modulus (GPa) = 17.05369 21.31150 19.18260
#
# Velocity S-wave (km/s) = 3.02511 3.38174 3.20838
# Velocity P-wave (km/s) = 5.40135 7.21279 6.37177
#
# Compressibility (1/GPa) = 0.03161641
#
# Stress axis : x y z
#
# Youngs Moduli (GPa) = 63.17790 24.55674 89.09840
#
# Poissons Ratio (x) = 0.17400 0.69778
# Poissons Ratio (y) = 0.44764 0.28171
# Poissons Ratio (z) = 0.49478 0.07764
#
# Static dielectric constant tensor:
#      x y z
#    x 3.535100 0.000000 0.000000 
#    y 0.000000 2.945990 0.000000 
#    z 0.000000 0.000000 3.822900 
# 
# 
# High freq. dielectric constant tensor:
#      x y z
#    x 1.724850 0.000000 0.000000 
#    y 0.000000 1.677590 0.000000 
#    z 0.000000 0.000000 1.742250 
# 
# From -- ./inp_files/70345.got.cif
#   From: 2010.03.12/outbox.cif.g09.slc.cpg/sg65_36_cif.got.tgz:70345.got - 2010.04.10 20:52:16.
