data_PCOD8268721
_publ_section_title
;
Structure prediction by ZEFSAII (Michael W. Deem and Ramdas Pophale) SiO2 
 PCOD8268721
Probable space group: C M M M
;
_chemical_formula_sum "Si O2"
_cell_formula_units_Z 104
_cell_length_a 23.012158
_cell_length_b 9.216530
_cell_length_c 25.639298
_cell_angle_alpha 90.000000
_cell_angle_beta 90.000000
_cell_angle_gamma 90.000000
_cell_volume 5437.896262
_symmetry_space_group_name_H-M "C M M M"
_symmetry_group_IT_number 65
_symmetry_cell_setting 'orthorhombic'
loop_
_space_group_symop_operation_xyz
x,y,z
-x,-y,z
x,-y,-z
-x,y,-z
-x,-y,-z
x,y,-z
-x,y,z
x,-y,z
1/2+x,1/2+y,z
1/2-x,1/2-y,z
1/2+x,1/2-y,-z
1/2-x,1/2+y,-z
1/2-x,1/2-y,-z
1/2+x,1/2+y,-z
1/2-x,1/2+y,z
1/2+x,1/2-y,z
loop_
_atom_site_type_symbol
_atom_site_label
_atom_site_fract_x
_atom_site_fract_y
_atom_site_fract_z
Si Si1 0.194257 0.669462 0.811141
Si Si2 0.190388 0.668638 0.000000
Si Si3 0.889472 0.333109 0.904832
Si Si4 0.649825 0.162416 0.443320
Si Si5 0.750000 0.250000 0.372480
Si Si6 0.158106 0.164076 0.291327
Si Si7 0.932617 0.327708 0.644439
Si Si8 0.500000 0.328195 0.060096
O O1 0.208631 0.500000 0.802963
O O2 0.250000 0.750000 0.836445
O O3 0.139155 0.690395 0.848526
O O4 0.182376 0.742898 0.756058
O O5 0.250000 0.750000 0.000000
O O6 0.155358 0.715944 0.050986
O O7 0.204364 0.500000 0.000000
O O8 0.908277 0.500000 0.913129
O O9 0.944959 0.231243 0.908796
O O10 0.655929 0.243087 0.500000
O O11 0.709720 0.156024 0.410826
O O12 0.597259 0.229924 0.409112
O O13 0.631441 0.000000 0.455237
O O14 0.792853 0.155050 0.336460
O O15 0.098806 0.243028 0.308782
O O16 0.143660 0.000000 0.274007
O O17 0.923140 0.500000 0.652353
O O18 0.000000 0.285551 0.643701
O O19 0.500000 0.500000 0.062724
O O20 0.500000 0.273579 0.000000
#
# Coordination Sequence:
#
# PCOD8268721 Si02
#       8
#    16   8  16  16   8  16  16   8
#     4  11  23  39  61  89 120 153 191 236 290 345
#     4  10  20  35  58  87 119 154 194 234 285 344
#     4  10  22  40  62  87 118 159 198 236 288 350
#     4   9  17  29  49  79 111 143 183 233 285 340
#     4  10  19  32  52  78 114 149 190 226 286 344
#     4  11  22  36  58  83 111 150 193 239 289 341
#     4   9  19  36  56  78 108 147 192 240 288 343
#     4  11  23  39  63  93 121 155 199 247 290 335
#
# _framework density 19.125043999999999
#
# number of rings (size 3 to 8) (size 9 to 14) (size 15 to 20)
#    0.000    1.923    1.538    2.308    0.000    4.000 
#    1.385    1.538    0.000    4.154    0.000    4.308 
#    0.000    0.000    0.000    0.000    0.000    0.000 
#
# Total GULP energy -644630.397190 kJ/mol
# GULP energy per Si atom -12396.738408 kJ/mol
# Density = 1.908151 g / cm^3
# Si number density = 19.125044 Si / 1000 Ang^3
#
#
#
# Elastic Constant Matrix: (Units=GPa)
#
#
# Indices 1 2 3 4 5 6 
#
# 1 146.2018 53.4896 44.5156 0.0000 0.0000 0.0000
# 2 53.4896 92.8223 40.2341 0.0000 0.0000 0.0000
# 3 44.5156 40.2341 90.3070 0.0000 0.0000 0.0000
# 4 0.0000 0.0000 0.0000 18.2935 0.0000 0.0000
# 5 0.0000 0.0000 0.0000 0.0000 21.7509 0.0000
# 6 0.0000 0.0000 0.0000 0.0000 0.0000 32.8697
#
#
#
# Elastic Compliance Matrix: (Units=1/GPa)
#
#
# Indices 1 2 3 4 5 6 
#
# 1 0.009163 -0.004118 -0.002682 0.000000 0.000000 0.000000
# 2 -0.004118 0.015202 -0.004743 0.000000 0.000000 0.000000
# 3 -0.002682 -0.004743 0.014509 0.000000 0.000000 0.000000
# 4 0.000000 0.000000 0.000000 0.054664 0.000000 0.000000
# 5 0.000000 0.000000 0.000000 0.000000 0.045975 0.000000
# 6 0.000000 0.000000 0.000000 0.000000 0.000000 0.030423
#
#
# Mechanical properties :
#
#
# Convention : Reuss Voigt Hill
#
# Bulk Modulus (GPa) = 63.34068 67.31219 65.32643
# Shear Modulus (GPa) = 25.21624 27.32229 26.26926
#
# Velocity S-wave (km/s) = 3.63505 3.78380 3.71017
# Velocity P-wave (km/s) = 7.12806 7.37304 7.25159
#
# Compressibility (1/GPa) = 0.01578764
#
# Stress axis : x y z
#
# Youngs Moduli (GPa) = 109.13405 65.78071 68.92395
#
# Poissons Ratio (x) = 0.27086 0.18487
# Poissons Ratio (y) = 0.44937 0.32692
# Poissons Ratio (z) = 0.29273 0.31201
#
# Static dielectric constant tensor:
#      x y z
#    x 3.454630 0.000000 0.000000 
#    y 0.000000 3.339670 0.000000 
#    z 0.000000 0.000000 3.721440 
# 
# 
# High freq. dielectric constant tensor:
#      x y z
#    x 1.745300 0.000000 0.000000 
#    y 0.000000 1.728240 0.000000 
#    z 0.000000 0.000000 1.749480 
# 
# From -- ./inp_files/75581.got.cif
#   From: 2010.03.12/outbox.cif.g09.slc.cpg/sg65_38_cif.got.tgz:75581.got - 2010.04.10 20:52:16.
