data_PCOD8268389
_publ_section_title
;
Structure prediction by ZEFSAII (Michael W. Deem and Ramdas Pophale) SiO2 
 PCOD8268389
Probable space group: C M M M
;
_chemical_formula_sum "Si O2"
_cell_formula_units_Z 104
_cell_length_a 27.051377
_cell_length_b 9.087583
_cell_length_c 21.339841
_cell_angle_alpha 90.000000
_cell_angle_beta 90.000000
_cell_angle_gamma 90.000000
_cell_volume 5246.007977
_symmetry_space_group_name_H-M "C M M M"
_symmetry_group_IT_number 65
_symmetry_cell_setting 'orthorhombic'
loop_
_space_group_symop_operation_xyz
x,y,z
-x,-y,z
x,-y,-z
-x,y,-z
-x,-y,-z
x,y,-z
-x,y,z
x,-y,z
1/2+x,1/2+y,z
1/2-x,1/2-y,z
1/2+x,1/2-y,-z
1/2-x,1/2+y,-z
1/2-x,1/2-y,-z
1/2+x,1/2+y,-z
1/2-x,1/2+y,z
1/2+x,1/2-y,z
loop_
_atom_site_type_symbol
_atom_site_label
_atom_site_fract_x
_atom_site_fract_y
_atom_site_fract_z
Si Si1 0.345271 0.823745 0.622140
Si Si2 0.292861 0.842334 0.928592
Si Si3 0.554155 0.828616 0.316537
Si Si4 0.607697 0.331781 0.067584
Si Si5 0.303576 0.677763 0.500000
Si Si6 0.700258 0.674220 0.741416
Si Si7 0.904077 0.832116 0.797130
O O1 0.402715 0.782879 0.635589
O O2 0.333064 0.737217 0.559429
O O3 0.311030 0.757610 0.676345
O O4 0.336774 0.000000 0.615926
O O5 0.250000 0.750000 0.893578
O O6 0.344807 0.765869 0.926446
O O7 0.296974 0.000000 0.894245
O O8 0.276272 0.867235 0.000000
O O9 0.500000 0.779633 0.342369
O O10 0.562047 0.762127 0.247954
O O11 0.556030 0.000000 0.305416
O O12 0.625376 0.500000 0.068723
O O13 0.576911 0.300595 0.131181
O O14 0.580313 0.299003 0.000000
O O15 0.300306 0.500000 0.500000
O O16 0.250000 0.750000 0.500000
O O17 0.707943 0.500000 0.729783
O O18 0.750000 0.750000 0.768710
O O19 0.654718 0.703989 0.789394
O O20 0.913136 0.000000 0.778330
#
# Coordination Sequence:
#
# PCOD8268389 Si02
#       7
#    16  16  16  16   8  16  16
#     4  10  20  36  57  82 112 145 183 223 264 310
#     4   9  16  25  37  54  78 112 155 198 241 293
#     4   9  19  37  61  85 107 135 174 222 273 321
#     4   9  17  30  46  64  91 126 163 207 261 320
#     4  12  24  38  57  84 121 161 196 223 253 296
#     4  10  19  32  49  71 102 138 178 222 267 314
#     4   9  19  33  50  75 102 131 171 218 268 324
#
# _framework density 19.824598999999999
#
# number of rings (size 3 to 8) (size 9 to 14) (size 15 to 20)
#    0.000    2.462    0.000    2.538    0.000    4.615 
#    0.000    1.923    0.000    2.769    0.000    3.231 
#    0.000    0.000    0.000    0.000    0.000    0.000 
#
# Total GULP energy -644249.193820 kJ/mol
# GULP energy per Si atom -12389.407573 kJ/mol
# Density = 1.977948 g / cm^3
# Si number density = 19.824599 Si / 1000 Ang^3
#
#
#
# Elastic Constant Matrix: (Units=GPa)
#
#
# Indices 1 2 3 4 5 6 
#
# 1 89.2991 33.5447 32.5971 0.0000 0.0000 0.0000
# 2 33.5447 82.1650 41.7479 0.0000 0.0000 0.0000
# 3 32.5971 41.7479 122.8226 0.0000 0.0000 0.0000
# 4 0.0000 0.0000 0.0000 19.3728 0.0000 0.0000
# 5 0.0000 0.0000 0.0000 0.0000 59.3069 0.0000
# 6 0.0000 0.0000 0.0000 0.0000 0.0000 22.0778
#
#
#
# Elastic Compliance Matrix: (Units=1/GPa)
#
#
# Indices 1 2 3 4 5 6 
#
# 1 0.013657 -0.004513 -0.002090 0.000000 0.000000 0.000000
# 2 -0.004513 0.016203 -0.004310 0.000000 0.000000 0.000000
# 3 -0.002090 -0.004310 0.010161 0.000000 0.000000 0.000000
# 4 0.000000 0.000000 0.000000 0.051619 0.000000 0.000000
# 5 0.000000 0.000000 0.000000 0.000000 0.016861 0.000000
# 6 0.000000 0.000000 0.000000 0.000000 0.000000 0.045294
#
#
# Mechanical properties :
#
#
# Convention : Reuss Voigt Hill
#
# Bulk Modulus (GPa) = 54.96179 56.67401 55.81790
# Shear Modulus (GPa) = 27.51981 32.57798 30.04890
#
# Velocity S-wave (km/s) = 3.72985 4.05818 3.89747
# Velocity P-wave (km/s) = 6.80685 7.11394 6.96209
#
# Compressibility (1/GPa) = 0.01819446
#
# Stress axis : x y z
#
# Youngs Moduli (GPa) = 73.22349 61.71710 98.41100
#
# Poissons Ratio (x) = 0.27855 0.20572
# Poissons Ratio (y) = 0.33049 0.42411
# Poissons Ratio (z) = 0.15307 0.26598
#
# Static dielectric constant tensor:
#      x y z
#    x 3.846430 0.000000 0.000000 
#    y 0.000000 3.814310 0.000000 
#    z 0.000000 0.000000 3.772320 
# 
# 
# High freq. dielectric constant tensor:
#      x y z
#    x 1.745750 0.000000 0.000000 
#    y 0.000000 1.782710 0.000000 
#    z 0.000000 0.000000 1.768310 
# 
# From -- ./inp_files/65854.got.cif
#   From: 2010.03.12/outbox.cif.g09.slc.cpg/sg65_33_cif.got.tgz:65854.got - 2010.04.10 20:52:16.
