data_PCOD8268230
_publ_section_title
;
Structure prediction by ZEFSAII (Michael W. Deem and Ramdas Pophale) SiO2 
 PCOD8268230
Probable space group: C M M M
;
_chemical_formula_sum "Si O2"
_cell_formula_units_Z 112
_cell_length_a 14.128746
_cell_length_b 14.053158
_cell_length_c 29.301039
_cell_angle_alpha 90.000000
_cell_angle_beta 90.000000
_cell_angle_gamma 90.000000
_cell_volume 5817.823844
_symmetry_space_group_name_H-M "C M M M"
_symmetry_group_IT_number 65
_symmetry_cell_setting 'orthorhombic'
loop_
_space_group_symop_operation_xyz
x,y,z
-x,-y,z
x,-y,-z
-x,y,-z
-x,-y,-z
x,y,-z
-x,y,z
x,-y,z
1/2+x,1/2+y,z
1/2-x,1/2-y,z
1/2+x,1/2-y,-z
1/2-x,1/2+y,-z
1/2-x,1/2-y,-z
1/2+x,1/2+y,-z
1/2-x,1/2+y,z
1/2+x,1/2-y,z
loop_
_atom_site_type_symbol
_atom_site_label
_atom_site_fract_x
_atom_site_fract_y
_atom_site_fract_z
Si Si1 0.894746 0.112418 0.322839
Si Si2 0.706851 0.391330 0.135207
Si Si3 0.719349 0.387515 0.589199
Si Si4 0.391332 0.220876 0.552437
Si Si5 0.609469 0.610038 0.776901
Si Si6 0.607711 0.703518 0.949424
Si Si7 0.603883 0.105130 0.094397
O O1 0.814824 0.139412 0.359677
O O2 0.866314 0.155008 0.272992
O O3 0.000000 0.150381 0.337247
O O4 0.902418 0.000000 0.318133
O O5 0.672549 0.500000 0.133760
O O6 0.667880 0.341550 0.181479
O O7 0.670685 0.343280 0.089186
O O8 0.820336 0.379931 0.135096
O O9 0.710943 0.500000 0.578803
O O10 0.649550 0.328540 0.555856
O O11 0.827410 0.351876 0.582448
O O12 0.385222 0.188625 0.500000
O O13 0.500000 0.216571 0.569661
O O14 0.500000 0.624778 0.788158
O O15 0.637772 0.500000 0.775174
O O16 0.500000 0.669486 0.942768
O O17 0.616021 0.817808 0.945546
O O18 0.643947 0.674922 0.000000
O O19 0.500000 0.115028 0.117170
O O20 0.617703 0.000000 0.072507
#
# Coordination Sequence:
#
# PCOD8268230 Si02
#       7
#    16  16  16  16  16  16  16
#     4   8  14  26  48  78 105 130 167 216 266 311
#     4  10  19  31  51  76 102 132 161 195 245 307
#     4  10  19  33  56  81 106 141 186 235 280 324
#     4  10  22  37  52  76 113 153 189 228 275 329
#     4   8  14  26  46  74 105 132 161 200 249 308
#     4  10  21  35  51  72  98 127 159 201 252 304
#     4   9  19  35  52  68  89 124 169 210 245 284
#
# _framework density 19.251185
#
# number of rings (size 3 to 8) (size 9 to 14) (size 15 to 20)
#    0.000    2.714    0.000    3.000    0.000    4.857 
#    0.000    5.000    6.286    0.857    0.000    4.000 
#    0.000    0.000    0.000    0.000    0.000    0.000 
#
# Total GULP energy -693809.606498 kJ/mol
# GULP energy per Si atom -12389.457259 kJ/mol
# Density = 1.920737 g / cm^3
# Si number density = 19.251185 Si / 1000 Ang^3
#
#
#
# Elastic Constant Matrix: (Units=GPa)
#
#
# Indices 1 2 3 4 5 6 
#
# 1 129.8210 33.5218 70.3395 0.0000 0.0000 0.0000
# 2 33.5218 64.4477 29.6591 0.0000 0.0000 0.0000
# 3 70.3395 29.6591 129.0046 0.0000 0.0000 0.0000
# 4 0.0000 0.0000 0.0000 13.1421 0.0000 0.0000
# 5 0.0000 0.0000 0.0000 0.0000 25.9981 0.0000
# 6 0.0000 0.0000 0.0000 0.0000 0.0000 21.0520
#
#
#
# Elastic Compliance Matrix: (Units=1/GPa)
#
#
# Indices 1 2 3 4 5 6 
#
# 1 0.011595 -0.003491 -0.005520 0.000000 0.000000 0.000000
# 2 -0.003491 0.018403 -0.002328 0.000000 0.000000 0.000000
# 3 -0.005520 -0.002328 0.011296 0.000000 0.000000 0.000000
# 4 0.000000 0.000000 0.000000 0.076091 0.000000 0.000000
# 5 0.000000 0.000000 0.000000 0.000000 0.038464 0.000000
# 6 0.000000 0.000000 0.000000 0.000000 0.000000 0.047501
#
#
# Mechanical properties :
#
#
# Convention : Reuss Voigt Hill
#
# Bulk Modulus (GPa) = 53.71008 65.59046 59.65027
# Shear Modulus (GPa) = 21.53002 24.68864 23.10933
#
# Velocity S-wave (km/s) = 3.34784 3.58501 3.46845
# Velocity P-wave (km/s) = 6.55013 7.16109 6.86242
#
# Compressibility (1/GPa) = 0.01861848
#
# Stress axis : x y z
#
# Youngs Moduli (GPa) = 86.24489 54.33779 88.52438
#
# Poissons Ratio (x) = 0.18968 0.48861
# Poissons Ratio (y) = 0.30107 0.20606
# Poissons Ratio (z) = 0.47603 0.12648
#
# Static dielectric constant tensor:
#      x y z
#    x 3.707590 0.000000 0.000000 
#    y 0.000000 3.356300 0.000000 
#    z 0.000000 0.000000 3.697230 
# 
# 
# High freq. dielectric constant tensor:
#      x y z
#    x 1.753360 0.000000 0.000000 
#    y 0.000000 1.720880 0.000000 
#    z 0.000000 0.000000 1.738700 
# 
# From -- ./inp_files/74863.got.cif
#   From: 2010.03.12/outbox.cif.g09.slc.cpg/sg65_38_cif.got.tgz:74863.got - 2010.04.10 20:52:16.
