data_PCOD8268102
_publ_section_title
;
Structure prediction by ZEFSAII (Michael W. Deem and Ramdas Pophale) SiO2 
 PCOD8268102
Probable space group: C M M M
;
_chemical_formula_sum "Si O2"
_cell_formula_units_Z 104
_cell_length_a 25.275268
_cell_length_b 16.153547
_cell_length_c 14.424490
_cell_angle_alpha 90.000000
_cell_angle_beta 90.000000
_cell_angle_gamma 90.000000
_cell_volume 5889.306211
_symmetry_space_group_name_H-M "C M M M"
_symmetry_group_IT_number 65
_symmetry_cell_setting 'orthorhombic'
loop_
_space_group_symop_operation_xyz
x,y,z
-x,-y,z
x,-y,-z
-x,y,-z
-x,-y,-z
x,y,-z
-x,y,z
x,-y,z
1/2+x,1/2+y,z
1/2-x,1/2-y,z
1/2+x,1/2-y,-z
1/2-x,1/2+y,-z
1/2-x,1/2-y,-z
1/2+x,1/2+y,-z
1/2-x,1/2+y,z
1/2+x,1/2-y,z
loop_
_atom_site_type_symbol
_atom_site_label
_atom_site_fract_x
_atom_site_fract_y
_atom_site_fract_z
Si Si1 0.772814 0.402727 0.897922
Si Si2 0.748186 0.345413 0.294496
Si Si3 0.606915 0.098308 0.100059
Si Si4 0.939182 0.000000 0.609830
Si Si5 0.441978 0.097744 0.286818
Si Si6 0.855632 0.136535 0.391364
Si Si7 0.351147 0.172284 0.607443
O O1 0.769111 0.500000 0.879930
O O2 0.741324 0.357043 0.816021
O O3 0.832855 0.371544 0.892767
O O4 0.749131 0.380592 0.000000
O O5 0.750000 0.250000 0.323614
O O6 0.699065 0.392741 0.342518
O O7 0.805088 0.375161 0.333997
O O8 0.575423 0.136257 0.187117
O O9 0.605097 0.000000 0.103087
O O10 0.583431 0.128272 0.000000
O O11 0.905951 0.918472 0.642881
O O12 0.943660 0.000000 0.500000
O O13 0.000000 0.000000 0.650352
O O14 0.500000 0.132291 0.309782
O O15 0.404739 0.123909 0.370963
O O16 0.442151 0.000000 0.278616
O O17 0.847841 0.123153 0.500000
O O18 0.863381 0.232542 0.364711
O O19 0.336304 0.165001 0.500000
#
# Coordination Sequence:
#
# PCOD8268102 Si02
#       7
#    16  16  16   8  16  16  16
#     4   9  17  29  47  70  97 128 159 194 239 290
#     4  10  19  31  50  73 100 130 161 199 242 290
#     4   8  14  27  46  65  87 119 159 201 244 282
#     4   9  18  34  54  76 101 123 154 208 262 303
#     4  10  20  32  46  68  97 129 172 213 236 275
#     4   9  19  34  52  76 100 124 160 203 250 302
#     4  10  20  34  49  66  97 138 171 201 246 295
#
# _framework density 17.659125
#
# number of rings (size 3 to 8) (size 9 to 14) (size 15 to 20)
#    0.000    2.692    1.538    1.385    1.077    3.692 
#    0.000    3.846    0.000    0.000    0.000    0.000 
#    0.000    1.231    0.000    0.000    0.000    0.154 
#
# Total GULP energy -644329.532710 kJ/mol
# GULP energy per Si atom -12390.952552 kJ/mol
# Density = 1.761893 g / cm^3
# Si number density = 17.659125 Si / 1000 Ang^3
#
#
#
# Elastic Constant Matrix: (Units=GPa)
#
#
# Indices 1 2 3 4 5 6 
#
# 1 120.0928 26.9533 38.8109 0.0000 0.0000 0.0000
# 2 26.9533 24.1538 15.2310 0.0000 0.0000 0.0000
# 3 38.8109 15.2310 78.5860 0.0000 0.0000 0.0000
# 4 0.0000 0.0000 0.0000 20.9918 0.0000 0.0000
# 5 0.0000 0.0000 0.0000 0.0000 25.0143 0.0000
# 6 0.0000 0.0000 0.0000 0.0000 0.0000 20.7422
#
#
#
# Elastic Compliance Matrix: (Units=1/GPa)
#
#
# Indices 1 2 3 4 5 6 
#
# 1 0.012031 -0.011027 -0.003805 0.000000 0.000000 0.000000
# 2 -0.011027 0.057271 -0.005654 0.000000 0.000000 0.000000
# 3 -0.003805 -0.005654 0.015700 0.000000 0.000000 0.000000
# 4 0.000000 0.000000 0.000000 0.047638 0.000000 0.000000
# 5 0.000000 0.000000 0.000000 0.000000 0.039977 0.000000
# 6 0.000000 0.000000 0.000000 0.000000 0.000000 0.048211
#
#
# Mechanical properties :
#
#
# Convention : Reuss Voigt Hill
#
# Bulk Modulus (GPa) = 22.71110 42.75812 32.73461
# Shear Modulus (GPa) = 18.08473 22.80551 20.44512
#
# Velocity S-wave (km/s) = 3.20363 3.59754 3.40629
# Velocity P-wave (km/s) = 5.15491 6.44376 5.83503
#
# Compressibility (1/GPa) = 0.04403132
#
# Stress axis : x y z
#
# Youngs Moduli (GPa) = 83.11686 17.46070 63.69499
#
# Poissons Ratio (x) = 0.19253 0.24234
# Poissons Ratio (y) = 0.91649 0.36015
# Poissons Ratio (z) = 0.31624 0.09873
#
# Static dielectric constant tensor:
#      x y z
#    x 3.418930 0.000000 0.000000 
#    y 0.000000 2.987020 0.000000 
#    z 0.000000 0.000000 3.343300 
# 
# 
# High freq. dielectric constant tensor:
#      x y z
#    x 1.671880 0.000000 0.000000 
#    y 0.000000 1.646520 0.000000 
#    z 0.000000 0.000000 1.680460 
# 
# From -- ./inp_files/43071.got.cif
#   From: 2010.03.12/outbox.cif.g09.slc.cpg/sg65_22_cif.got.tgz:43071.got - 2010.04.10 20:52:16.
