data_PCOD8268250
_publ_section_title
;
Structure prediction by ZEFSAII (Michael W. Deem and Ramdas Pophale) SiO2 
 PCOD8268250
Probable space group: C M M M
;
_chemical_formula_sum "Si O2"
_cell_formula_units_Z 72
_cell_length_a 8.792816
_cell_length_b 17.771900
_cell_length_c 23.325327
_cell_angle_alpha 90.000000
_cell_angle_beta 90.000000
_cell_angle_gamma 90.000000
_cell_volume 3644.933312
_symmetry_space_group_name_H-M "C M M M"
_symmetry_group_IT_number 65
_symmetry_cell_setting 'orthorhombic'
loop_
_space_group_symop_operation_xyz
x,y,z
-x,-y,z
x,-y,-z
-x,y,-z
-x,-y,-z
x,y,-z
-x,y,z
x,-y,z
1/2+x,1/2+y,z
1/2-x,1/2-y,z
1/2+x,1/2-y,-z
1/2-x,1/2+y,-z
1/2-x,1/2-y,-z
1/2+x,1/2+y,-z
1/2-x,1/2+y,z
1/2+x,1/2-y,z
loop_
_atom_site_type_symbol
_atom_site_label
_atom_site_fract_x
_atom_site_fract_y
_atom_site_fract_z
Si Si1 0.320667 0.168750 0.105139
Si Si2 0.828507 0.088807 0.000000
Si Si3 0.677623 0.668481 0.325679
Si Si4 0.323230 0.413039 0.209415
Si Si5 0.678328 0.831983 0.562036
O O1 0.500000 0.175312 0.100211
O O2 0.250000 0.250000 0.095997
O O3 0.277393 0.135963 0.166761
O O4 0.259087 0.114168 0.056382
O O5 0.000000 0.121617 0.000000
O O6 0.832937 0.000000 0.000000
O O7 0.500000 0.679996 0.333997
O O8 0.750000 0.750000 0.314221
O O9 0.715482 0.613514 0.273375
O O10 0.745238 0.627561 0.383027
O O11 0.500000 0.400011 0.194682
O O12 0.278355 0.500000 0.203502
O O13 0.710754 0.872023 0.500000
O O14 0.500000 0.825613 0.572830
O O15 0.750000 0.750000 0.560125
#
# Coordination Sequence:
#
# PCOD8268250 Si02
#       5
#    16   8  16  16  16
#     4  12  25  41  63  90 119 151 191 235 278 327
#     4  11  24  43  66  91 123 159 190 227 278 329
#     4  10  19  31  51  77 105 139 178 223 273 327
#     4  10  22  40  59  81 112 148 186 230 282 336
#     4   9  16  26  43  69 101 135 172 218 271 325
#
# _framework density 19.753446
#
# number of rings (size 3 to 8) (size 9 to 14) (size 15 to 20)
#    0.000    1.667    0.000    6.667    0.000    8.889 
#    0.000    0.000    0.000    0.667    0.000    4.667 
#    0.000    0.000    0.000    0.000    0.000    0.000 
#
# Total GULP energy -446336.240582 kJ/mol
# GULP energy per Si atom -12398.228905 kJ/mol
# Density = 1.970849 g / cm^3
# Si number density = 19.753446 Si / 1000 Ang^3
#
#
#
# Elastic Constant Matrix: (Units=GPa)
#
#
# Indices 1 2 3 4 5 6 
#
# 1 141.2866 32.3192 65.7102 0.0000 0.0000 0.0000
# 2 32.3192 60.2450 24.3062 0.0000 0.0000 0.0000
# 3 65.7102 24.3062 137.5344 0.0000 0.0000 0.0000
# 4 0.0000 0.0000 0.0000 9.7660 0.0000 0.0000
# 5 0.0000 0.0000 0.0000 0.0000 77.2766 0.0000
# 6 0.0000 0.0000 0.0000 0.0000 0.0000 21.3176
#
#
#
# Elastic Compliance Matrix: (Units=1/GPa)
#
#
# Indices 1 2 3 4 5 6 
#
# 1 0.009782 -0.003620 -0.004034 0.000000 0.000000 0.000000
# 2 -0.003620 0.019213 -0.001666 0.000000 0.000000 0.000000
# 3 -0.004034 -0.001666 0.009493 0.000000 0.000000 0.000000
# 4 0.000000 0.000000 0.000000 0.102396 0.000000 0.000000
# 5 0.000000 0.000000 0.000000 0.000000 0.012941 0.000000
# 6 0.000000 0.000000 0.000000 0.000000 0.000000 0.046909
#
#
# Mechanical properties :
#
#
# Convention : Reuss Voigt Hill
#
# Bulk Modulus (GPa) = 50.38311 64.85971 57.62141
# Shear Modulus (GPa) = 22.12496 36.12075 29.12286
#
# Velocity S-wave (km/s) = 3.35035 4.28083 3.84385
# Velocity P-wave (km/s) = 6.36615 7.57231 6.99528
#
# Compressibility (1/GPa) = 0.01984792
#
# Stress axis : x y z
#
# Youngs Moduli (GPa) = 102.22886 52.04786 105.34587
#
# Poissons Ratio (x) = 0.18842 0.42494
# Poissons Ratio (y) = 0.37009 0.17549
# Poissons Ratio (z) = 0.41237 0.08670
#
# Static dielectric constant tensor:
#      x y z
#    x 3.973170 0.000000 0.000000 
#    y 0.000000 3.313530 0.000000 
#    z 0.000000 0.000000 4.305070 
# 
# 
# High freq. dielectric constant tensor:
#      x y z
#    x 1.782070 0.000000 0.000000 
#    y 0.000000 1.737390 0.000000 
#    z 0.000000 0.000000 1.798870 
# 
# From -- ./inp_files/67065.got.cif
#   From: 2010.03.12/outbox.cif.g09.slc.cpg/sg65_34_cif.got.tgz:67065.got - 2010.04.10 20:52:16.
