data_PCOD8268525
_publ_section_title
;
Structure prediction by ZEFSAII (Michael W. Deem and Ramdas Pophale) SiO2 
 PCOD8268525
Probable space group: C M M M
;
_chemical_formula_sum "Si O2"
_cell_formula_units_Z 104
_cell_length_a 8.634455
_cell_length_b 19.990595
_cell_length_c 33.223126
_cell_angle_alpha 90.000000
_cell_angle_beta 90.000000
_cell_angle_gamma 90.000000
_cell_volume 5734.573776
_symmetry_space_group_name_H-M "C M M M"
_symmetry_group_IT_number 65
_symmetry_cell_setting 'orthorhombic'
loop_
_space_group_symop_operation_xyz
x,y,z
-x,-y,z
x,-y,-z
-x,y,-z
-x,-y,-z
x,y,-z
-x,y,z
x,-y,z
1/2+x,1/2+y,z
1/2-x,1/2-y,z
1/2+x,1/2-y,-z
1/2-x,1/2+y,-z
1/2-x,1/2-y,-z
1/2+x,1/2+y,-z
1/2-x,1/2+y,z
1/2+x,1/2-y,z
loop_
_atom_site_type_symbol
_atom_site_label
_atom_site_fract_x
_atom_site_fract_y
_atom_site_fract_z
Si Si1 0.315861 0.321689 0.610117
Si Si2 0.684076 0.425366 0.455236
Si Si3 0.681505 0.820830 0.304185
Si Si4 0.183737 0.926084 0.152307
Si Si5 0.679284 0.422149 0.243281
Si Si6 0.316291 0.323798 0.086963
Si Si7 0.681187 0.322296 0.000000
O O1 0.500000 0.319294 0.610177
O O2 0.250000 0.250000 0.597733
O O3 0.248994 0.374344 0.577739
O O4 0.258179 0.343606 0.654017
O O5 0.740516 0.404221 0.500000
O O6 0.500000 0.424663 0.453853
O O7 0.744554 0.500000 0.445114
O O8 0.500000 0.812065 0.310719
O O9 0.750000 0.750000 0.289391
O O10 0.713710 0.877673 0.271577
O O11 0.229454 0.905443 0.197575
O O12 0.254502 0.872878 0.120803
O O13 0.000000 0.928454 0.148616
O O14 0.250195 0.000000 0.142373
O O15 0.500000 0.403927 0.250491
O O16 0.708528 0.500000 0.252795
O O17 0.500000 0.319059 0.091233
O O18 0.250000 0.250000 0.093460
O O19 0.268902 0.355427 0.042806
O O20 0.750000 0.250000 0.000000
O O21 0.500000 0.314332 0.000000
#
# Coordination Sequence:
#
# PCOD8268525 Si02
#       7
#    16  16  16  16  16  16   8
#     4  10  19  32  51  74 100 130 162 197 240 288
#     4   8  15  29  49  73  99 127 162 201 236 274
#     4  11  22  36  53  73 100 130 162 203 247 290
#     4   8  15  29  48  68  92 122 153 188 231 279
#     4   9  18  34  54  73  95 126 162 197 239 293
#     4   9  16  27  44  66  91 119 154 191 229 273
#     4   8  14  24  39  61  89 119 149 186 228 270
#
# _framework density 18.135611999999998
#
# number of rings (size 3 to 8) (size 9 to 14) (size 15 to 20)
#    0.000    2.923    0.000    4.154    0.000    1.846 
#    0.000    4.231    0.000    6.462    0.000    4.308 
#    0.000    6.154    0.000    0.000    0.000    0.000 
#
# Total GULP energy -644408.834840 kJ/mol
# GULP energy per Si atom -12392.477593 kJ/mol
# Density = 1.809433 g / cm^3
# Si number density = 18.135612 Si / 1000 Ang^3
#
#
#
# Elastic Constant Matrix: (Units=GPa)
#
#
# Indices 1 2 3 4 5 6 
#
# 1 43.5532 23.6525 27.2449 0.0000 0.0000 0.0000
# 2 23.6525 109.3777 98.6280 0.0000 0.0000 0.0000
# 3 27.2449 98.6280 152.5646 0.0000 0.0000 0.0000
# 4 0.0000 0.0000 0.0000 32.2938 0.0000 0.0000
# 5 0.0000 0.0000 0.0000 0.0000 17.0700 0.0000
# 6 0.0000 0.0000 0.0000 0.0000 0.0000 23.2932
#
#
#
# Elastic Compliance Matrix: (Units=1/GPa)
#
#
# Indices 1 2 3 4 5 6 
#
# 1 0.026393 -0.003494 -0.002454 0.000000 0.000000 0.000000
# 2 -0.003494 0.022384 -0.013846 0.000000 0.000000 0.000000
# 3 -0.002454 -0.013846 0.015944 0.000000 0.000000 0.000000
# 4 0.000000 0.000000 0.000000 0.030966 0.000000 0.000000
# 5 0.000000 0.000000 0.000000 0.000000 0.058582 0.000000
# 6 0.000000 0.000000 0.000000 0.000000 0.000000 0.042931
#
#
# Mechanical properties :
#
#
# Convention : Reuss Voigt Hill
#
# Bulk Modulus (GPa) = 39.79115 67.17180 53.48147
# Shear Modulus (GPa) = 20.39423 24.92942 22.66183
#
# Velocity S-wave (km/s) = 3.35706 3.71160 3.53877
# Velocity P-wave (km/s) = 6.08399 7.44896 6.80081
#
# Compressibility (1/GPa) = 0.02513122
#
# Stress axis : x y z
#
# Youngs Moduli (GPa) = 37.88826 44.67520 62.71909
#
# Poissons Ratio (x) = 0.15611 0.15393
# Poissons Ratio (y) = 0.13239 0.86843
# Poissons Ratio (z) = 0.09299 0.61859
#
# Static dielectric constant tensor:
#      x y z
#    x 3.082910 0.000000 0.000000 
#    y 0.000000 3.455190 0.000000 
#    z 0.000000 0.000000 3.800610 
# 
# 
# High freq. dielectric constant tensor:
#      x y z
#    x 1.673340 0.000000 0.000000 
#    y 0.000000 1.692640 0.000000 
#    z 0.000000 0.000000 1.716370 
# 
# From -- ./inp_files/76876.got.cif
#   From: 2010.03.12/outbox.cif.g09.slc.cpg/sg65_39_cif.got.tgz:76876.got - 2010.04.10 20:52:16.
