data_PCOD8268447
_publ_section_title
;
Structure prediction by ZEFSAII (Michael W. Deem and Ramdas Pophale) SiO2 
 PCOD8268447
Probable space group: C M M M
;
_chemical_formula_sum "Si O2"
_cell_formula_units_Z 88
_cell_length_a 8.908990
_cell_length_b 27.376354
_cell_length_c 21.114401
_cell_angle_alpha 90.000000
_cell_angle_beta 90.000000
_cell_angle_gamma 90.000000
_cell_volume 5149.710852
_symmetry_space_group_name_H-M "C M M M"
_symmetry_group_IT_number 65
_symmetry_cell_setting 'orthorhombic'
loop_
_space_group_symop_operation_xyz
x,y,z
-x,-y,z
x,-y,-z
-x,y,-z
-x,-y,-z
x,y,-z
-x,y,z
x,-y,z
1/2+x,1/2+y,z
1/2-x,1/2-y,z
1/2+x,1/2-y,-z
1/2-x,1/2+y,-z
1/2-x,1/2-y,-z
1/2+x,1/2+y,-z
1/2-x,1/2+y,z
1/2+x,1/2-y,z
loop_
_atom_site_type_symbol
_atom_site_label
_atom_site_fract_x
_atom_site_fract_y
_atom_site_fract_z
Si Si1 0.177836 0.557035 0.000000
Si Si2 0.323960 0.140555 0.309781
Si Si3 0.323788 0.801371 0.570522
Si Si4 0.675301 0.445536 0.752258
Si Si5 0.822928 0.891079 0.119445
Si Si6 0.178159 0.302713 0.184141
O O1 0.247864 0.583126 0.939702
O O2 0.222509 0.500000 0.000000
O O3 0.000000 0.564011 0.000000
O O4 0.500000 0.132893 0.309883
O O5 0.264871 0.160668 0.377081
O O6 0.250389 0.087790 0.301131
O O7 0.276563 0.177595 0.253762
O O8 0.280759 0.820224 0.500000
O O9 0.500000 0.793767 0.577370
O O10 0.250000 0.750000 0.585247
O O11 0.500000 0.445089 0.739776
O O12 0.741337 0.500000 0.746401
O O13 0.714127 0.425730 0.821550
O O14 0.747981 0.838249 0.130918
O O15 0.000000 0.884439 0.108413
O O16 0.250000 0.250000 0.174575
O O17 0.000000 0.299844 0.175226
#
# Coordination Sequence:
#
# PCOD8268447 Si02
#       6
#     8  16  16  16  16  16
#     4  11  23  37  54  77 104 131 159 195 239 285
#     4   9  18  30  46  70  97 126 160 198 239 284
#     4   9  17  29  45  67  96 127 159 195 235 281
#     4   9  18  32  50  72  96 122 156 199 242 283
#     4  10  20  35  54  75  99 128 162 198 239 286
#     4  10  19  32  50  73 101 130 162 199 240 286
#
# _framework density 17.088338
#
# number of rings (size 3 to 8) (size 9 to 14) (size 15 to 20)
#    0.000    2.455    0.000    2.455    0.000    4.000 
#    0.000    0.455    0.000    0.545    0.000    3.818 
#    0.000    0.000    0.000    0.000    0.000    0.000 
#
# Total GULP energy -545616.136124 kJ/mol
# GULP energy per Si atom -12400.366730 kJ/mol
# Density = 1.704944 g / cm^3
# Si number density = 17.088338 Si / 1000 Ang^3
#
#
#
# Elastic Constant Matrix: (Units=GPa)
#
#
# Indices 1 2 3 4 5 6 
#
# 1 56.7843 56.7640 46.8103 0.0000 0.0000 0.0000
# 2 56.7640 168.8092 84.6491 0.0000 0.0000 0.0000
# 3 46.8103 84.6491 124.8133 0.0000 0.0000 0.0000
# 4 0.0000 0.0000 0.0000 24.2087 0.0000 0.0000
# 5 0.0000 0.0000 0.0000 0.0000 23.3317 0.0000
# 6 0.0000 0.0000 0.0000 0.0000 0.0000 32.5827
#
#
#
# Elastic Compliance Matrix: (Units=1/GPa)
#
#
# Indices 1 2 3 4 5 6 
#
# 1 0.029753 -0.006682 -0.006627 0.000000 0.000000 0.000000
# 2 -0.006682 0.010477 -0.004600 0.000000 0.000000 0.000000
# 3 -0.006627 -0.004600 0.013617 0.000000 0.000000 0.000000
# 4 0.000000 0.000000 0.000000 0.041307 0.000000 0.000000
# 5 0.000000 0.000000 0.000000 0.000000 0.042860 0.000000
# 6 0.000000 0.000000 0.000000 0.000000 0.000000 0.030691
#
#
# Mechanical properties :
#
#
# Convention : Reuss Voigt Hill
#
# Bulk Modulus (GPa) = 55.46297 80.76149 68.11223
# Shear Modulus (GPa) = 23.74931 26.83686 25.29308
#
# Velocity S-wave (km/s) = 3.73204 3.96722 3.85143
# Velocity P-wave (km/s) = 7.14828 8.26734 7.72809
#
# Compressibility (1/GPa) = 0.01803005
#
# Stress axis : x y z
#
# Youngs Moduli (GPa) = 33.61034 95.44568 73.43757
#
# Poissons Ratio (x) = 0.63773 0.48668
# Poissons Ratio (y) = 0.22457 0.33780
# Poissons Ratio (z) = 0.22274 0.43903
#
# Static dielectric constant tensor:
#      x y z
#    x 3.216580 0.000000 0.000000 
#    y 0.000000 3.282230 0.000000 
#    z 0.000000 0.000000 3.333550 
# 
# 
# High freq. dielectric constant tensor:
#      x y z
#    x 1.664540 0.000000 0.000000 
#    y 0.000000 1.658790 0.000000 
#    z 0.000000 0.000000 1.651790 
# 
# From -- ./inp_files/59790.got.cif
#   From: 2010.03.12/outbox.cif.g09.slc.cpg/sg65_30_cif.got.tgz:59790.got - 2010.04.10 20:52:16.
