data_PCOD8268615
_publ_section_title
;
Structure prediction by ZEFSAII (Michael W. Deem and Ramdas Pophale) SiO2 
 PCOD8268615
Probable space group: C M M M
;
_chemical_formula_sum "Si O2"
_cell_formula_units_Z 72
_cell_length_a 29.080026
_cell_length_b 13.955609
_cell_length_c 9.211836
_cell_angle_alpha 90.000000
_cell_angle_beta 90.000000
_cell_angle_gamma 90.000000
_cell_volume 3738.434545
_symmetry_space_group_name_H-M "C M M M"
_symmetry_group_IT_number 65
_symmetry_cell_setting 'orthorhombic'
loop_
_space_group_symop_operation_xyz
x,y,z
-x,-y,z
x,-y,-z
-x,y,-z
-x,-y,-z
x,y,-z
-x,y,z
x,-y,z
1/2+x,1/2+y,z
1/2-x,1/2-y,z
1/2+x,1/2-y,-z
1/2-x,1/2+y,-z
1/2-x,1/2-y,-z
1/2+x,1/2+y,-z
1/2-x,1/2+y,z
1/2+x,1/2-y,z
loop_
_atom_site_type_symbol
_atom_site_label
_atom_site_fract_x
_atom_site_fract_y
_atom_site_fract_z
Si Si1 0.000000 0.108265 0.827535
Si Si2 0.263768 0.886833 0.161359
Si Si3 0.678011 0.386479 0.662524
Si Si4 0.406035 0.299112 0.171995
Si Si5 0.135139 0.604916 0.828070
O O1 0.955193 0.164343 0.770408
O O2 0.000000 0.000000 0.765735
O O3 0.000000 0.106150 0.000000
O O4 0.223470 0.841713 0.260777
O O5 0.314191 0.864061 0.229450
O O6 0.257759 0.000000 0.152714
O O7 0.258662 0.842745 0.000000
O O8 0.674379 0.344243 0.500000
O O9 0.682364 0.500000 0.657025
O O10 0.632969 0.361293 0.753055
O O11 0.401321 0.186748 0.216300
O O12 0.401102 0.313333 0.000000
O O13 0.120246 0.500000 0.765423
O O14 0.139264 0.596215 0.000000
#
# Coordination Sequence:
#
# PCOD8268615 Si02
#       5
#     8  16  16  16  16
#     4   9  18  32  50  74 100 123 155 201 246 287
#     4   8  14  27  47  68  93 128 164 195 233 284
#     4  10  20  32  46  69 101 131 161 201 244 285
#     4  10  19  32  52  73  94 126 165 201 241 290
#     4   8  15  29  49  73  99 126 160 201 239 279
#
# _framework density 19.259397
#
# number of rings (size 3 to 8) (size 9 to 14) (size 15 to 20)
#    0.000    3.000    0.000    2.667    0.000    3.111 
#    0.000    6.667    0.000    7.333    0.000    0.000 
#    0.000    1.778    0.000    0.000    0.000    0.000 
#
# Total GULP energy -446186.460362 kJ/mol
# GULP energy per Si atom -12394.068343 kJ/mol
# Density = 1.921556 g / cm^3
# Si number density = 19.259397 Si / 1000 Ang^3
#
#
#
# Elastic Constant Matrix: (Units=GPa)
#
#
# Indices 1 2 3 4 5 6 
#
# 1 159.6327 72.8233 36.1600 0.0000 0.0000 0.0000
# 2 72.8233 90.3900 19.0396 0.0000 0.0000 0.0000
# 3 36.1600 19.0396 52.8087 0.0000 0.0000 0.0000
# 4 0.0000 0.0000 0.0000 9.5073 0.0000 0.0000
# 5 0.0000 0.0000 0.0000 0.0000 -7.3398 0.0000
# 6 0.0000 0.0000 0.0000 0.0000 0.0000 32.3988
#
#
#
# Elastic Compliance Matrix: (Units=1/GPa)
#
#
# Indices 1 2 3 4 5 6 
#
# 1 0.010860 -0.007774 -0.004634 0.000000 0.000000 0.000000
# 2 -0.007774 0.017537 -0.001000 0.000000 0.000000 0.000000
# 3 -0.004634 -0.001000 0.022470 0.000000 0.000000 0.000000
# 4 0.000000 0.000000 0.000000 0.105182 0.000000 0.000000
# 5 0.000000 0.000000 0.000000 0.000000 -0.136243 0.000000
# 6 0.000000 0.000000 0.000000 0.000000 0.000000 0.030865
#
#
# Mechanical properties :
#
#
# Convention : Reuss Voigt Hill
#
# Bulk Modulus (GPa) = 41.57608 62.09747 51.83677
# Shear Modulus (GPa) = 58.47784 18.56716 38.52250
#
# Velocity S-wave (km/s) = 5.51627 3.10830 4.47720
# Velocity P-wave (km/s) = 7.88711 6.72270 7.32807
#
# Compressibility (1/GPa) = 0.02405229
#
# Stress axis : x y z
#
# Youngs Moduli (GPa) = 92.07866 57.02358 44.50450
#
# Poissons Ratio (x) = 0.44328 0.20622
# Poissons Ratio (y) = 0.71578 0.04449
# Poissons Ratio (z) = 0.42667 0.05701
#
# Static dielectric constant tensor:
#      x y z
#    x 3.591400 0.000000 0.000000 
#    y 0.000000 3.690310 0.000000 
#    z 0.000000 0.000000 3.317350 
# 
# 
# High freq. dielectric constant tensor:
#      x y z
#    x 1.738280 0.000000 0.000000 
#    y 0.000000 1.756910 0.000000 
#    z 0.000000 0.000000 1.701520 
# 
# From -- ./inp_files/7214.got.cif
#   From: 2010.03.12/outbox.cif.g09.slc.cpg/sg65_4_cif.got.tgz:7214.got - 2010.04.10 20:52:16.
