data_PCOD8268522
_publ_section_title
;
Structure prediction by ZEFSAII (Michael W. Deem and Ramdas Pophale) SiO2 
 PCOD8268522
Probable space group: C M M M
;
_chemical_formula_sum "Si O2"
_cell_formula_units_Z 104
_cell_length_a 8.954738
_cell_length_b 25.983276
_cell_length_c 22.987221
_cell_angle_alpha 90.000000
_cell_angle_beta 90.000000
_cell_angle_gamma 90.000000
_cell_volume 5348.515532
_symmetry_space_group_name_H-M "C M M M"
_symmetry_group_IT_number 65
_symmetry_cell_setting 'orthorhombic'
loop_
_space_group_symop_operation_xyz
x,y,z
-x,-y,z
x,-y,-z
-x,y,-z
-x,-y,-z
x,y,-z
-x,y,z
x,-y,z
1/2+x,1/2+y,z
1/2-x,1/2-y,z
1/2+x,1/2-y,-z
1/2-x,1/2+y,-z
1/2-x,1/2-y,-z
1/2+x,1/2+y,-z
1/2-x,1/2+y,z
1/2+x,1/2-y,z
loop_
_atom_site_type_symbol
_atom_site_label
_atom_site_fract_x
_atom_site_fract_y
_atom_site_fract_z
Si Si1 0.327109 0.406532 0.935621
Si Si2 0.677163 0.303871 0.648644
Si Si3 0.822758 0.340685 0.233157
Si Si4 0.830810 0.500000 0.430854
Si Si5 0.672159 0.056458 0.824685
Si Si6 0.825190 0.897216 0.566574
Si Si7 0.674184 0.299465 0.879519
O O1 0.500000 0.420305 0.933294
O O2 0.249798 0.441258 0.887284
O O3 0.300251 0.346497 0.922997
O O4 0.262813 0.418753 0.000000
O O5 0.500000 0.297096 0.652110
O O6 0.750000 0.250000 0.629260
O O7 0.738751 0.321532 0.710297
O O8 0.724832 0.346838 0.601816
O O9 0.773409 0.400055 0.220625
O O10 0.765444 0.306672 0.180064
O O11 0.000000 0.334330 0.241222
O O12 0.817716 0.500000 0.500000
O O13 0.753434 0.448096 0.406885
O O14 0.000000 0.500000 0.408616
O O15 0.500000 0.065927 0.837679
O O16 0.703082 0.000000 0.797354
O O17 0.776312 0.888025 0.500000
O O18 0.000000 0.907043 0.571937
O O19 0.500000 0.291040 0.865810
O O20 0.750000 0.250000 0.910036
#
# Coordination Sequence:
#
# PCOD8268522 Si02
#       7
#    16  16  16   8  16  16  16
#     4   9  19  34  50  72 103 136 170 209 255 311
#     4  11  23  38  57  82 113 146 186 229 274 328
#     4  10  20  36  56  76 103 137 176 218 268 323
#     4   9  17  31  55  85 113 143 183 229 270 313
#     4   9  19  36  56  77 102 133 171 215 264 316
#     4   9  19  37  59  82 113 153 190 226 274 330
#     4  10  19  32  51  73  99 132 172 215 262 311
#
# _framework density 19.444645999999999
#
# number of rings (size 3 to 8) (size 9 to 14) (size 15 to 20)
#    0.000    2.385    0.000    2.077    0.000    4.923 
#    1.385    1.538    0.000    0.000    0.000    0.000 
#    0.000    0.000    0.000    0.000    0.000    0.000 
#
# Total GULP energy -644742.840955 kJ/mol
# GULP energy per Si atom -12398.900788 kJ/mol
# Density = 1.940039 g / cm^3
# Si number density = 19.444646 Si / 1000 Ang^3
#
#
#
# Elastic Constant Matrix: (Units=GPa)
#
#
# Indices 1 2 3 4 5 6 
#
# 1 62.2220 44.0844 18.3952 0.0000 0.0000 0.0000
# 2 44.0844 136.8608 28.4747 0.0000 0.0000 0.0000
# 3 18.3952 28.4747 53.8560 0.0000 0.0000 0.0000
# 4 0.0000 0.0000 0.0000 52.7149 0.0000 0.0000
# 5 0.0000 0.0000 0.0000 0.0000 20.4141 0.0000
# 6 0.0000 0.0000 0.0000 0.0000 0.0000 30.8802
#
#
#
# Elastic Compliance Matrix: (Units=1/GPa)
#
#
# Indices 1 2 3 4 5 6 
#
# 1 0.021623 -0.006099 -0.004161 0.000000 0.000000 0.000000
# 2 -0.006099 0.009930 -0.003167 0.000000 0.000000 0.000000
# 3 -0.004161 -0.003167 0.021664 0.000000 0.000000 0.000000
# 4 0.000000 0.000000 0.000000 0.018970 0.000000 0.000000
# 5 0.000000 0.000000 0.000000 0.000000 0.048986 0.000000
# 6 0.000000 0.000000 0.000000 0.000000 0.000000 0.032383
#
#
# Mechanical properties :
#
#
# Convention : Reuss Voigt Hill
#
# Bulk Modulus (GPa) = 37.93246 48.31639 43.12443
# Shear Modulus (GPa) = 26.42742 31.60082 29.01412
#
# Velocity S-wave (km/s) = 3.69061 4.03571 3.86701
# Velocity P-wave (km/s) = 6.14093 6.82774 6.49343
#
# Compressibility (1/GPa) = 0.02636265
#
# Stress axis : x y z
#
# Youngs Moduli (GPa) = 46.24718 100.70221 46.16027
#
# Poissons Ratio (x) = 0.61421 0.19206
# Poissons Ratio (y) = 0.28208 0.14619
# Poissons Ratio (z) = 0.19242 0.31893
#
# Static dielectric constant tensor:
#      x y z
#    x 3.557890 0.000000 0.000000 
#    y 0.000000 3.862970 0.000000 
#    z 0.000000 0.000000 3.446940 
# 
# 
# High freq. dielectric constant tensor:
#      x y z
#    x 1.758560 0.000000 0.000000 
#    y 0.000000 1.773190 0.000000 
#    z 0.000000 0.000000 1.735080 
# 
# From -- ./inp_files/65858.got.cif
#   From: 2010.03.12/outbox.cif.g09.slc.cpg/sg65_33_cif.got.tgz:65858.got - 2010.04.10 20:52:16.
