data_PCOD8268812
_publ_section_title
;
Structure prediction by ZEFSAII (Michael W. Deem and Ramdas Pophale) SiO2 
 PCOD8268812
Probable space group: C M M M
;
_chemical_formula_sum "Si O2"
_cell_formula_units_Z 120
_cell_length_a 18.530899
_cell_length_b 19.408176
_cell_length_c 18.809724
_cell_angle_alpha 90.000000
_cell_angle_beta 90.000000
_cell_angle_gamma 90.000000
_cell_volume 6764.935091
_symmetry_space_group_name_H-M "C M M M"
_symmetry_group_IT_number 65
_symmetry_cell_setting 'orthorhombic'
loop_
_space_group_symop_operation_xyz
x,y,z
-x,-y,z
x,-y,-z
-x,y,-z
-x,-y,-z
x,y,-z
-x,y,z
x,-y,z
1/2+x,1/2+y,z
1/2-x,1/2-y,z
1/2+x,1/2-y,-z
1/2-x,1/2+y,-z
1/2-x,1/2-y,-z
1/2+x,1/2+y,-z
1/2-x,1/2+y,z
1/2+x,1/2-y,z
loop_
_atom_site_type_symbol
_atom_site_label
_atom_site_fract_x
_atom_site_fract_y
_atom_site_fract_z
Si Si1 0.211045 0.822610 0.665909
Si Si2 0.415989 0.000000 0.578719
Si Si3 0.640575 0.134254 0.649515
Si Si4 0.917355 0.771835 0.583320
Si Si5 0.682603 0.298350 0.823447
Si Si6 0.877043 0.578542 0.919555
Si Si7 0.207878 0.076885 0.917916
Si Si8 0.081305 0.677418 0.798111
O O1 0.250000 0.750000 0.655769
O O2 0.272617 0.875356 0.638328
O O3 0.136582 0.826260 0.621405
O O4 0.193937 0.835085 0.747994
O O5 0.395566 0.064878 0.625363
O O6 0.500000 0.000000 0.567149
O O7 0.379197 0.000000 0.500000
O O8 0.605167 0.194684 0.603314
O O9 0.628349 0.148038 0.733159
O O10 0.908665 0.781988 0.500000
O O11 0.000000 0.785970 0.607177
O O12 0.750000 0.250000 0.846057
O O13 0.668014 0.361242 0.877238
O O14 0.611675 0.251165 0.822399
O O15 0.901736 0.500000 0.907949
O O16 0.792541 0.586351 0.905481
O O17 0.919470 0.625599 0.864307
O O18 0.895886 0.601810 0.000000
O O19 0.184642 0.000000 0.891256
O O20 0.187537 0.084152 0.000000
O O21 0.000000 0.688196 0.771223
#
# Coordination Sequence:
#
# PCOD8268812 Si02
#       8
#    16   8  16  16  16  16  16  16
#     4   9  18  33  51  75 104 137 177 221 269 317
#     4  11  24  38  52  74 110 154 192 222 260 323
#     4  11  21  36  52  76 108 147 188 226 263 319
#     4  10  19  32  54  81 108 138 172 218 275 325
#     4  11  18  35  54  79 109 140 180 232 277 321
#     4   9  19  35  52  74 108 148 187 223 264 323
#     4   9  18  33  56  83 108 142 186 228 275 330
#     4  12  23  34  53  80 110 145 183 229 282 332
#
# _framework density 17.738530000000001
#
# number of rings (size 3 to 8) (size 9 to 14) (size 15 to 20)
#    0.000    1.800    5.333    2.400    0.933    5.333 
#    1.200    0.667    0.000    0.400    0.000    1.400 
#    0.000    1.600    0.000    0.000    0.000    0.000 
#
# Total GULP energy -743814.521175 kJ/mol
# GULP energy per Si atom -12396.908686 kJ/mol
# Density = 1.769816 g / cm^3
# Si number density = 17.738530 Si / 1000 Ang^3
#
#
#
# Elastic Constant Matrix: (Units=GPa)
#
#
# Indices 1 2 3 4 5 6 
#
# 1 106.0042 36.8854 39.0393 0.0000 0.0000 0.0000
# 2 36.8854 86.9043 48.4175 0.0000 0.0000 0.0000
# 3 39.0393 48.4175 82.1341 0.0000 0.0000 0.0000
# 4 0.0000 0.0000 0.0000 44.4749 0.0000 0.0000
# 5 0.0000 0.0000 0.0000 0.0000 21.0206 0.0000
# 6 0.0000 0.0000 0.0000 0.0000 0.0000 18.5720
#
#
#
# Elastic Compliance Matrix: (Units=1/GPa)
#
#
# Indices 1 2 3 4 5 6 
#
# 1 0.011883 -0.002825 -0.003983 0.000000 0.000000 0.000000
# 2 -0.002825 0.017806 -0.009154 0.000000 0.000000 0.000000
# 3 -0.003983 -0.009154 0.019465 0.000000 0.000000 0.000000
# 4 0.000000 0.000000 0.000000 0.022485 0.000000 0.000000
# 5 0.000000 0.000000 0.000000 0.000000 0.047572 0.000000
# 6 0.000000 0.000000 0.000000 0.000000 0.000000 0.053844
#
#
# Mechanical properties :
#
#
# Convention : Reuss Voigt Hill
#
# Bulk Modulus (GPa) = 58.03674 58.19192 58.11433
# Shear Modulus (GPa) = 23.72799 26.86020 25.29410
#
# Velocity S-wave (km/s) = 3.66136 3.89553 3.78026
# Velocity P-wave (km/s) = 7.11780 7.28767 7.20323
#
# Compressibility (1/GPa) = 0.01723046
#
# Stress axis : x y z
#
# Youngs Moduli (GPa) = 84.15116 56.16197 51.37530
#
# Poissons Ratio (x) = 0.15863 0.20464
# Poissons Ratio (y) = 0.23769 0.47028
# Poissons Ratio (z) = 0.33520 0.51409
#
# Static dielectric constant tensor:
#      x y z
#    x 3.431680 0.000000 0.000000 
#    y 0.000000 3.259620 0.000000 
#    z 0.000000 0.000000 3.352180 
# 
# 
# High freq. dielectric constant tensor:
#      x y z
#    x 1.674880 0.000000 0.000000 
#    y 0.000000 1.658390 0.000000 
#    z 0.000000 0.000000 1.693830 
# 
# From -- ./inp_files/54987.got.cif
#   From: 2010.03.12/outbox.cif.g09.slc.cpg/sg65_28_cif.got.tgz:54987.got - 2010.04.10 20:52:16.
