data_PCOD8268583
_publ_section_title
;
Structure prediction by ZEFSAII (Michael W. Deem and Ramdas Pophale) SiO2 
 PCOD8268583
Probable space group: C M M M
;
_chemical_formula_sum "Si O2"
_cell_formula_units_Z 120
_cell_length_a 26.185874
_cell_length_b 9.193922
_cell_length_c 26.986745
_cell_angle_alpha 90.000000
_cell_angle_beta 90.000000
_cell_angle_gamma 90.000000
_cell_volume 6497.082690
_symmetry_space_group_name_H-M "C M M M"
_symmetry_group_IT_number 65
_symmetry_cell_setting 'orthorhombic'
loop_
_space_group_symop_operation_xyz
x,y,z
-x,-y,z
x,-y,-z
-x,y,-z
-x,-y,-z
x,y,-z
-x,y,z
x,-y,z
1/2+x,1/2+y,z
1/2-x,1/2-y,z
1/2+x,1/2-y,-z
1/2-x,1/2+y,-z
1/2-x,1/2-y,-z
1/2+x,1/2+y,-z
1/2-x,1/2+y,z
1/2+x,1/2-y,z
loop_
_atom_site_type_symbol
_atom_site_label
_atom_site_fract_x
_atom_site_fract_y
_atom_site_fract_z
Si Si1 0.797589 0.161574 0.557495
Si Si2 0.802691 0.327146 0.203771
Si Si3 0.441911 0.658717 0.776373
Si Si4 0.880793 0.332021 0.290673
Si Si5 0.057909 0.333083 0.058216
Si Si6 0.500000 0.827810 0.556355
Si Si7 0.125176 0.827340 0.866367
Si Si8 0.390734 0.827824 0.402291
O O1 0.786213 0.143516 0.500000
O O2 0.750000 0.250000 0.582045
O O3 0.850935 0.246373 0.562646
O O4 0.800597 0.000000 0.581814
O O5 0.797118 0.500000 0.196395
O O6 0.750000 0.250000 0.215393
O O7 0.835416 0.288819 0.253098
O O8 0.824015 0.255754 0.152665
O O9 0.500000 0.651904 0.789841
O O10 0.419477 0.500000 0.763600
O O11 0.432559 0.759579 0.729146
O O12 0.416061 0.718685 0.825621
O O13 0.891792 0.500000 0.290251
O O14 0.873203 0.280728 0.347004
O O15 0.065699 0.500000 0.074728
O O16 0.102031 0.234145 0.082672
O O17 0.000000 0.282866 0.072282
O O18 0.065949 0.316584 0.000000
O O19 0.500000 0.766112 0.500000
O O20 0.551383 0.775060 0.584993
O O21 0.500000 0.000000 0.554711
O O22 0.135261 0.000000 0.871504
O O23 0.385779 0.000000 0.410981
#
# Coordination Sequence:
#
# PCOD8268583 Si02
#       8
#    16  16  16  16  16   8  16  16
#     4  10  21  37  57  80 104 132 168 213 265 319
#     4  10  20  36  55  76 102 135 175 219 270 324
#     4   9  18  31  47  69 100 136 171 210 254 303
#     4   9  20  34  50  75 103 133 170 212 257 308
#     4   9  18  32  50  75 110 149 185 223 269 319
#     4   9  18  32  53  79 107 145 187 225 266 315
#     4  10  19  32  51  76 104 136 178 223 266 314
#     4  10  20  35  55  80 109 142 181 222 266 319
#
# _framework density 18.469826999999999
#
# number of rings (size 3 to 8) (size 9 to 14) (size 15 to 20)
#    0.000    2.467    0.000    2.400    0.933    4.800 
#    0.000    2.333    0.000    1.600    0.000    0.000 
#    0.000    0.000    0.000    0.000    0.000    0.000 
#
# Total GULP energy -743622.157449 kJ/mol
# GULP energy per Si atom -12393.702624 kJ/mol
# Density = 1.842779 g / cm^3
# Si number density = 18.469827 Si / 1000 Ang^3
#
#
#
# Elastic Constant Matrix: (Units=GPa)
#
#
# Indices 1 2 3 4 5 6 
#
# 1 104.4328 47.8214 29.7843 0.0000 0.0000 0.0000
# 2 47.8214 71.1099 36.2249 0.0000 0.0000 0.0000
# 3 29.7843 36.2249 68.6342 0.0000 0.0000 0.0000
# 4 0.0000 0.0000 0.0000 22.7296 0.0000 0.0000
# 5 0.0000 0.0000 0.0000 0.0000 20.5304 0.0000
# 6 0.0000 0.0000 0.0000 0.0000 0.0000 32.5263
#
#
#
# Elastic Compliance Matrix: (Units=1/GPa)
#
#
# Indices 1 2 3 4 5 6 
#
# 1 0.013950 -0.008613 -0.001508 0.000000 0.000000 0.000000
# 2 -0.008613 0.024552 -0.009221 0.000000 0.000000 0.000000
# 3 -0.001508 -0.009221 0.020091 0.000000 0.000000 0.000000
# 4 0.000000 0.000000 0.000000 0.043995 0.000000 0.000000
# 5 0.000000 0.000000 0.000000 0.000000 0.048708 0.000000
# 6 0.000000 0.000000 0.000000 0.000000 0.000000 0.030744
#
#
# Mechanical properties :
#
#
# Convention : Reuss Voigt Hill
#
# Bulk Modulus (GPa) = 50.22665 52.42645 51.32655
# Shear Modulus (GPa) = 21.99149 23.84702 22.91925
#
# Velocity S-wave (km/s) = 3.45435 3.59713 3.52647
# Velocity P-wave (km/s) = 6.56986 6.76011 6.66566
#
# Compressibility (1/GPa) = 0.01990975
#
# Stress axis : x y z
#
# Youngs Moduli (GPa) = 71.68689 40.72927 49.77350
#
# Poissons Ratio (x) = 0.35080 0.07504
# Poissons Ratio (y) = 0.61744 0.45896
# Poissons Ratio (z) = 0.10807 0.37556
#
# Static dielectric constant tensor:
#      x y z
#    x 3.421530 0.000000 0.000000 
#    y 0.000000 3.510420 0.000000 
#    z 0.000000 0.000000 3.387680 
# 
# 
# High freq. dielectric constant tensor:
#      x y z
#    x 1.711410 0.000000 0.000000 
#    y 0.000000 1.714750 0.000000 
#    z 0.000000 0.000000 1.704040 
# 
# From -- ./inp_files/76161.got.cif
#   From: 2010.03.12/outbox.cif.g09.slc.cpg/sg65_39_cif.got.tgz:76161.got - 2010.04.10 20:52:16.
