data_PCOD8268166
_publ_section_title
;
Structure prediction by ZEFSAII (Michael W. Deem and Ramdas Pophale) SiO2 
 PCOD8268166
Probable space group: C M M M
;
_chemical_formula_sum "Si O2"
_cell_formula_units_Z 80
_cell_length_a 8.868349
_cell_length_b 25.991691
_cell_length_c 19.572647
_cell_angle_alpha 90.000000
_cell_angle_beta 90.000000
_cell_angle_gamma 90.000000
_cell_volume 4511.561424
_symmetry_space_group_name_H-M "C M M M"
_symmetry_group_IT_number 65
_symmetry_cell_setting 'orthorhombic'
loop_
_space_group_symop_operation_xyz
x,y,z
-x,-y,z
x,-y,-z
-x,y,-z
-x,-y,-z
x,y,-z
-x,y,z
x,-y,z
1/2+x,1/2+y,z
1/2-x,1/2-y,z
1/2+x,1/2-y,-z
1/2-x,1/2+y,-z
1/2-x,1/2-y,-z
1/2+x,1/2+y,-z
1/2-x,1/2+y,z
1/2+x,1/2-y,z
loop_
_atom_site_type_symbol
_atom_site_label
_atom_site_fract_x
_atom_site_fract_y
_atom_site_fract_z
Si Si1 0.677724 0.697233 0.922625
Si Si2 0.321112 0.105074 0.325539
Si Si3 0.677279 0.802383 0.577646
Si Si4 0.835764 0.000000 0.170212
Si Si5 0.681230 0.390417 0.179735
Si Si6 0.667398 0.500000 0.667947
O O1 0.500000 0.702955 0.917896
O O2 0.750000 0.750000 0.896288
O O3 0.736440 0.652023 0.873844
O O4 0.729682 0.684984 0.000000
O O5 0.500000 0.100289 0.319306
O O6 0.269295 0.149276 0.377721
O O7 0.253344 0.121387 0.252669
O O8 0.257092 0.051191 0.354514
O O9 0.731027 0.812203 0.500000
O O10 0.500000 0.795494 0.582206
O O11 0.750000 0.750000 0.606736
O O12 0.756283 0.945846 0.150637
O O13 0.849711 0.000000 0.251397
O O14 0.000000 0.000000 0.135297
O O15 0.500000 0.392491 0.187525
O O16 0.500000 0.500000 0.634609
#
# Coordination Sequence:
#
# PCOD8268166 Si02
#       6
#    16  16  16   8  16   8
#     4   9  18  32  48  66  91 125 162 197 235 281
#     4  10  19  31  50  75  99 124 159 200 240 284
#     4   9  19  35  52  70  95 128 163 199 241 287
#     4   7  12  25  44  64  86 114 144 177 222 270
#     4   9  17  30  48  69  94 123 156 194 236 283
#     4   9  17  31  50  71  98 130 160 192 236 286
#
# _framework density 17.732219000000001
#
# number of rings (size 3 to 8) (size 9 to 14) (size 15 to 20)
#    0.000    3.000    0.000    2.100    0.000    3.200 
#    0.000    5.000    0.000    6.000    0.000    0.000 
#    0.000    8.000    0.000    0.000    0.000    0.000 
#
# Total GULP energy -495737.983142 kJ/mol
# GULP energy per Si atom -12393.449579 kJ/mol
# Density = 1.769186 g / cm^3
# Si number density = 17.732219 Si / 1000 Ang^3
#
#
#
# Elastic Constant Matrix: (Units=GPa)
#
#
# Indices 1 2 3 4 5 6 
#
# 1 44.0150 45.0010 26.9986 0.0000 0.0000 0.0000
# 2 45.0010 204.2114 88.0300 0.0000 0.0000 0.0000
# 3 26.9986 88.0300 76.7915 0.0000 0.0000 0.0000
# 4 0.0000 0.0000 0.0000 15.5597 0.0000 0.0000
# 5 0.0000 0.0000 0.0000 0.0000 21.0540 0.0000
# 6 0.0000 0.0000 0.0000 0.0000 0.0000 30.8667
#
#
#
# Elastic Compliance Matrix: (Units=1/GPa)
#
#
# Indices 1 2 3 4 5 6 
#
# 1 0.030664 -0.004171 -0.005999 0.000000 0.000000 0.000000
# 2 -0.004171 0.010248 -0.010281 0.000000 0.000000 0.000000
# 3 -0.005999 -0.010281 0.026918 0.000000 0.000000 0.000000
# 4 0.000000 0.000000 0.000000 0.064269 0.000000 0.000000
# 5 0.000000 0.000000 0.000000 0.000000 0.047497 0.000000
# 6 0.000000 0.000000 0.000000 0.000000 0.000000 0.032397
#
#
# Mechanical properties :
#
#
# Convention : Reuss Voigt Hill
#
# Bulk Modulus (GPa) = 37.13888 71.67523 54.40706
# Shear Modulus (GPa) = 19.09331 24.49531 21.79431
#
# Velocity S-wave (km/s) = 3.28496 3.72075 3.50963
# Velocity P-wave (km/s) = 5.94792 7.67902 6.86823
#
# Compressibility (1/GPa) = 0.02692596
#
# Stress axis : x y z
#
# Youngs Moduli (GPa) = 32.61150 97.57922 37.15034
#
# Poissons Ratio (x) = 0.40701 0.22288
# Poissons Ratio (y) = 0.13603 0.38196
# Poissons Ratio (z) = 0.19565 1.00325
#
# Static dielectric constant tensor:
#      x y z
#    x 3.159150 0.000000 0.000000 
#    y 0.000000 3.758610 0.000000 
#    z 0.000000 0.000000 3.140740 
# 
# 
# High freq. dielectric constant tensor:
#      x y z
#    x 1.672510 0.000000 0.000000 
#    y 0.000000 1.705530 0.000000 
#    z 0.000000 0.000000 1.656750 
# 
# From -- ./inp_files/49947.got.cif
#   From: 2010.03.12/outbox.cif.g09.slc.cpg/sg65_25_cif.got.tgz:49947.got - 2010.04.10 20:52:16.
