data_PCOD8268705
_publ_section_title
;
Structure prediction by ZEFSAII (Michael W. Deem and Ramdas Pophale) SiO2 
 PCOD8268705
Probable space group: C M M M
;
_chemical_formula_sum "Si O2"
_cell_formula_units_Z 112
_cell_length_a 18.165799
_cell_length_b 23.934460
_cell_length_c 14.078001
_cell_angle_alpha 90.000000
_cell_angle_beta 90.000000
_cell_angle_gamma 90.000000
_cell_volume 6120.954198
_symmetry_space_group_name_H-M "C M M M"
_symmetry_group_IT_number 65
_symmetry_cell_setting 'orthorhombic'
loop_
_space_group_symop_operation_xyz
x,y,z
-x,-y,z
x,-y,-z
-x,y,-z
-x,-y,-z
x,y,-z
-x,y,z
x,-y,z
1/2+x,1/2+y,z
1/2-x,1/2-y,z
1/2+x,1/2-y,-z
1/2-x,1/2+y,-z
1/2-x,1/2-y,-z
1/2+x,1/2+y,-z
1/2-x,1/2+y,z
1/2+x,1/2-y,z
loop_
_atom_site_type_symbol
_atom_site_label
_atom_site_fract_x
_atom_site_fract_y
_atom_site_fract_z
Si Si1 0.084770 0.353924 0.388676
Si Si2 0.915563 0.170394 0.392536
Si Si3 0.866263 0.561786 0.104979
Si Si4 0.417365 0.816975 0.892578
Si Si5 0.163221 0.259961 0.720256
Si Si6 0.662073 0.438109 0.609171
Si Si7 0.308414 0.937238 0.700091
O O1 0.088598 0.363689 0.500000
O O2 0.136347 0.301856 0.361989
O O3 0.117628 0.407533 0.335903
O O4 0.000000 0.344444 0.355485
O O5 0.888021 0.185837 0.500000
O O6 0.872168 0.201112 0.308517
O O7 0.905776 0.103939 0.375310
O O8 0.000000 0.186705 0.382847
O O9 0.906162 0.500000 0.115054
O O10 0.918803 0.615415 0.120577
O O11 0.803412 0.565527 0.185278
O O12 0.829932 0.565634 0.000000
O O13 0.500000 0.796086 0.872395
O O14 0.362858 0.784431 0.821717
O O15 0.393080 0.801781 0.000000
O O16 0.250000 0.250000 0.722890
O O17 0.683845 0.442816 0.500000
O O18 0.641445 0.500000 0.649051
O O19 0.732994 0.410869 0.661284
O O20 0.313522 0.000000 0.661365
#
# Coordination Sequence:
#
# PCOD8268705 Si02
#       7
#    16  16  16  16  16  16  16
#     4  11  23  37  53  75 106 143 183 224 263 311
#     4  10  21  36  55  79 106 138 179 226 274 324
#     4   9  18  32  53  82 111 139 175 218 262 309
#     4  10  21  38  59  81 109 143 177 218 267 317
#     4  12  24  37  56  78 105 140 181 222 273 320
#     4   9  18  33  54  80 109 139 175 219 269 326
#     4  10  19  32  52  77 109 146 179 215 261 318
#
# _framework density 18.297801
#
# number of rings (size 3 to 8) (size 9 to 14) (size 15 to 20)
#    0.000    1.857    1.429    3.000    0.000    5.429 
#    0.000    5.000    0.000    0.000    0.000    0.000 
#    0.000    0.000    0.000    8.571    0.000    0.286 
#
# Total GULP energy -693872.625742 kJ/mol
# GULP energy per Si atom -12390.582603 kJ/mol
# Density = 1.825615 g / cm^3
# Si number density = 18.297801 Si / 1000 Ang^3
#
#
#
# Elastic Constant Matrix: (Units=GPa)
#
#
# Indices 1 2 3 4 5 6 
#
# 1 93.6424 44.7032 38.4062 0.0000 0.0000 0.0000
# 2 44.7032 94.8108 40.4407 0.0000 0.0000 0.0000
# 3 38.4062 40.4407 96.1119 0.0000 0.0000 0.0000
# 4 0.0000 0.0000 0.0000 27.6491 0.0000 0.0000
# 5 0.0000 0.0000 0.0000 0.0000 19.7643 0.0000
# 6 0.0000 0.0000 0.0000 0.0000 0.0000 25.9736
#
#
#
# Elastic Compliance Matrix: (Units=1/GPa)
#
#
# Indices 1 2 3 4 5 6 
#
# 1 0.014744 -0.005410 -0.003616 0.000000 0.000000 0.000000
# 2 -0.005410 0.014839 -0.004082 0.000000 0.000000 0.000000
# 3 -0.003616 -0.004082 0.013567 0.000000 0.000000 0.000000
# 4 0.000000 0.000000 0.000000 0.036168 0.000000 0.000000
# 5 0.000000 0.000000 0.000000 0.000000 0.050596 0.000000
# 6 0.000000 0.000000 0.000000 0.000000 0.000000 0.038501
#
#
# Mechanical properties :
#
#
# Convention : Reuss Voigt Hill
#
# Bulk Modulus (GPa) = 59.04725 59.07394 59.06060
# Shear Modulus (GPa) = 24.96568 25.41173 25.18870
#
# Velocity S-wave (km/s) = 3.69780 3.73068 3.71428
# Velocity P-wave (km/s) = 7.11139 7.13528 7.12334
#
# Compressibility (1/GPa) = 0.01693559
#
# Stress axis : x y z
#
# Youngs Moduli (GPa) = 67.82276 67.38903 73.70861
#
# Poissons Ratio (x) = 0.36456 0.26650
# Poissons Ratio (y) = 0.36690 0.30089
# Poissons Ratio (z) = 0.24522 0.27509
#
# Static dielectric constant tensor:
#      x y z
#    x 3.203610 0.000000 0.000000 
#    y 0.000000 3.558130 0.000000 
#    z 0.000000 0.000000 3.532160 
# 
# 
# High freq. dielectric constant tensor:
#      x y z
#    x 1.682760 0.000000 0.000000 
#    y 0.000000 1.716070 0.000000 
#    z 0.000000 0.000000 1.710740 
# 
# From -- ./inp_files/40792.got.cif
#   From: 2010.03.12/outbox.cif.g09.slc.cpg/sg65_21_cif.got.tgz:40792.got - 2010.04.10 20:52:16.
