data_PCOD8268108
_publ_section_title
;
Structure prediction by ZEFSAII (Michael W. Deem and Ramdas Pophale) SiO2 
 PCOD8268108
Probable space group: C M M M
;
_chemical_formula_sum "Si O2"
_cell_formula_units_Z 104
_cell_length_a 26.124929
_cell_length_b 9.128796
_cell_length_c 22.932941
_cell_angle_alpha 90.000000
_cell_angle_beta 90.000000
_cell_angle_gamma 90.000000
_cell_volume 5469.257545
_symmetry_space_group_name_H-M "C M M M"
_symmetry_group_IT_number 65
_symmetry_cell_setting 'orthorhombic'
loop_
_space_group_symop_operation_xyz
x,y,z
-x,-y,z
x,-y,-z
-x,y,-z
-x,-y,-z
x,y,-z
-x,y,z
x,-y,z
1/2+x,1/2+y,z
1/2-x,1/2-y,z
1/2+x,1/2-y,-z
1/2-x,1/2+y,-z
1/2-x,1/2-y,-z
1/2+x,1/2+y,-z
1/2-x,1/2+y,z
1/2+x,1/2-y,z
loop_
_atom_site_type_symbol
_atom_site_label
_atom_site_fract_x
_atom_site_fract_y
_atom_site_fract_z
Si Si1 0.111200 0.170122 0.430802
Si Si2 0.555919 0.831326 0.826912
Si Si3 0.303987 0.173464 0.642792
Si Si4 0.405282 0.329186 0.934915
Si Si5 0.500000 0.331986 0.568441
Si Si6 0.840725 0.671593 0.229296
Si Si7 0.798700 0.829242 0.879305
O O1 0.115299 0.185440 0.500000
O O2 0.154935 0.269977 0.403469
O O3 0.054847 0.231183 0.408716
O O4 0.118422 0.000000 0.412649
O O5 0.500000 0.799215 0.798998
O O6 0.558726 0.748523 0.888374
O O7 0.599649 0.783408 0.781056
O O8 0.562818 0.000000 0.842597
O O9 0.250000 0.250000 0.630443
O O10 0.324694 0.218282 0.706237
O O11 0.297420 0.000000 0.635961
O O12 0.416585 0.500000 0.930346
O O13 0.346220 0.295073 0.920942
O O14 0.417370 0.271419 0.000000
O O15 0.500000 0.500000 0.585838
O O16 0.500000 0.311840 0.500000
O O17 0.831731 0.500000 0.218331
O O18 0.806269 0.762795 0.184996
O O19 0.750000 0.750000 0.908394
O O20 0.787966 0.000000 0.872632
#
# Coordination Sequence:
#
# PCOD8268108 Si02
#       7
#    16  16  16  16   8  16  16
#     4   9  18  35  59  84 111 145 182 220 264 315
#     4   9  18  34  55  76 100 131 167 209 256 308
#     4  11  23  37  54  79 109 144 182 223 269 320
#     4   9  19  34  49  69 100 134 167 205 251 304
#     4   7  12  28  55  81 105 137 175 211 252 305
#     4   9  19  36  54  74 100 133 172 211 258 312
#     4  10  19  31  50  73  96 128 167 209 256 305
#
# _framework density 19.015378999999999
#
# number of rings (size 3 to 8) (size 9 to 14) (size 15 to 20)
#    0.000    2.692    0.000    2.308    0.000    4.923 
#    1.385    1.923    0.000    1.385    0.000    0.000 
#    0.000    0.000    0.000    0.000    0.000    0.000 
#
# Total GULP energy -644508.557572 kJ/mol
# GULP energy per Si atom -12394.395338 kJ/mol
# Density = 1.897210 g / cm^3
# Si number density = 19.015379 Si / 1000 Ang^3
#
#
#
# Elastic Constant Matrix: (Units=GPa)
#
#
# Indices 1 2 3 4 5 6 
#
# 1 139.1167 36.8336 31.3117 0.0000 0.0000 0.0000
# 2 36.8336 51.0574 20.7482 0.0000 0.0000 0.0000
# 3 31.3117 20.7482 54.6147 0.0000 0.0000 0.0000
# 4 0.0000 0.0000 0.0000 26.4712 0.0000 0.0000
# 5 0.0000 0.0000 0.0000 0.0000 17.6633 0.0000
# 6 0.0000 0.0000 0.0000 0.0000 0.0000 25.8488
#
#
#
# Elastic Compliance Matrix: (Units=1/GPa)
#
#
# Indices 1 2 3 4 5 6 
#
# 1 0.009367 -0.005410 -0.003315 0.000000 0.000000 0.000000
# 2 -0.005410 0.026286 -0.006884 0.000000 0.000000 0.000000
# 3 -0.003315 -0.006884 0.022826 0.000000 0.000000 0.000000
# 4 0.000000 0.000000 0.000000 0.037777 0.000000 0.000000
# 5 0.000000 0.000000 0.000000 0.000000 0.056615 0.000000
# 6 0.000000 0.000000 0.000000 0.000000 0.000000 0.038686
#
#
# Mechanical properties :
#
#
# Convention : Reuss Voigt Hill
#
# Bulk Modulus (GPa) = 36.68360 46.95288 41.81824
# Shear Modulus (GPa) = 21.56446 24.38968 22.97707
#
# Velocity S-wave (km/s) = 3.37122 3.58527 3.47989
# Velocity P-wave (km/s) = 5.87256 6.47182 6.17946
#
# Compressibility (1/GPa) = 0.02726014
#
# Stress axis : x y z
#
# Youngs Moduli (GPa) = 106.76058 38.04234 43.80980
#
# Poissons Ratio (x) = 0.20582 0.14522
# Poissons Ratio (y) = 0.57761 0.30161
# Poissons Ratio (z) = 0.35389 0.26190
#
# Static dielectric constant tensor:
#      x y z
#    x 3.875840 0.000000 0.000000 
#    y 0.000000 3.376380 0.000000 
#    z 0.000000 0.000000 3.304860 
# 
# 
# High freq. dielectric constant tensor:
#      x y z
#    x 1.759180 0.000000 0.000000 
#    y 0.000000 1.727110 0.000000 
#    z 0.000000 0.000000 1.716030 
# 
# From -- ./inp_files/65867.got.cif
#   From: 2010.03.12/outbox.cif.g09.slc.cpg/sg65_33_cif.got.tgz:65867.got - 2010.04.10 20:52:16.
