data_PCOD8268400
_publ_section_title
;
Structure prediction by ZEFSAII (Michael W. Deem and Ramdas Pophale) SiO2 
 PCOD8268400
Probable space group: C M M M
;
_chemical_formula_sum "Si O2"
_cell_formula_units_Z 120
_cell_length_a 18.052447
_cell_length_b 19.506677
_cell_length_c 19.353482
_cell_angle_alpha 90.000000
_cell_angle_beta 90.000000
_cell_angle_gamma 90.000000
_cell_volume 6815.198102
_symmetry_space_group_name_H-M "C M M M"
_symmetry_group_IT_number 65
_symmetry_cell_setting 'orthorhombic'
loop_
_space_group_symop_operation_xyz
x,y,z
-x,-y,z
x,-y,-z
-x,y,-z
-x,-y,-z
x,y,-z
-x,y,z
x,-y,z
1/2+x,1/2+y,z
1/2-x,1/2-y,z
1/2+x,1/2-y,-z
1/2-x,1/2+y,-z
1/2-x,1/2-y,-z
1/2+x,1/2+y,-z
1/2-x,1/2+y,z
1/2+x,1/2-y,z
loop_
_atom_site_type_symbol
_atom_site_label
_atom_site_fract_x
_atom_site_fract_y
_atom_site_fract_z
Si Si1 0.342308 0.578009 0.183305
Si Si2 0.917016 0.081520 0.676252
Si Si3 0.355977 0.918308 0.343621
Si Si4 0.500000 0.081757 0.577882
Si Si5 0.914142 0.666895 0.920387
Si Si6 0.416329 0.675639 0.080114
Si Si7 0.331926 0.922015 0.808828
Si Si8 0.211064 0.081818 0.578077
O O1 0.366129 0.500000 0.166511
O O2 0.385655 0.606311 0.250143
O O3 0.360800 0.625780 0.119036
O O4 0.255807 0.582588 0.196917
O O5 0.863468 0.108966 0.615487
O O6 0.000000 0.110761 0.664941
O O7 0.917533 0.000000 0.674995
O O8 0.427389 0.889735 0.383769
O O9 0.362298 0.893407 0.264272
O O10 0.282561 0.889273 0.381131
O O11 0.352695 0.000000 0.344969
O O12 0.500000 0.109892 0.500000
O O13 0.500000 0.000000 0.578426
O O14 0.895168 0.745812 0.905179
O O15 0.862544 0.621773 0.871912
O O16 0.000000 0.651606 0.904482
O O17 0.896321 0.648893 0.000000
O O18 0.500000 0.661223 0.104767
O O19 0.407939 0.659027 0.000000
O O20 0.357806 0.000000 0.821129
O O21 0.211885 0.110282 0.500000
O O22 0.212854 0.000000 0.578119
#
# Coordination Sequence:
#
# PCOD8268400 Si02
#       8
#    16  16  16   8  16  16  16  16
#     4  10  19  32  49  73 103 134 165 202 248 298
#     4   9  16  26  40  61  92 128 164 201 243 290
#     4   9  16  27  40  61  94 129 164 203 248 294
#     4   9  16  24  38  62  91 127 169 207 247 298
#     4   9  20  38  55  72  97 129 165 207 253 298
#     4   9  19  36  55  74  98 128 162 204 252 299
#     4  10  20  32  49  72 101 135 170 206 247 296
#     4   9  15  24  39  58  88 130 165 196 241 293
#
# _framework density 17.607706
#
# number of rings (size 3 to 8) (size 9 to 14) (size 15 to 20)
#    0.000    2.733    1.333    1.600    0.933    4.533 
#    0.000    5.333    0.000    0.000    0.000    0.000 
#    0.000    3.200    0.267    0.000    0.000    0.000 
#
# Total GULP energy -743899.880463 kJ/mol
# GULP energy per Si atom -12398.331341 kJ/mol
# Density = 1.756763 g / cm^3
# Si number density = 17.607706 Si / 1000 Ang^3
#
#
#
# Elastic Constant Matrix: (Units=GPa)
#
#
# Indices 1 2 3 4 5 6 
#
# 1 112.4155 25.0642 63.8382 0.0000 0.0000 0.0000
# 2 25.0642 34.6908 41.3592 0.0000 0.0000 0.0000
# 3 63.8382 41.3592 128.4429 0.0000 0.0000 0.0000
# 4 0.0000 0.0000 0.0000 -1.6966 0.0000 0.0000
# 5 0.0000 0.0000 0.0000 0.0000 39.3065 0.0000
# 6 0.0000 0.0000 0.0000 0.0000 0.0000 18.5416
#
#
#
# Elastic Compliance Matrix: (Units=1/GPa)
#
#
# Indices 1 2 3 4 5 6 
#
# 1 0.012541 -0.002645 -0.005381 0.000000 0.000000 0.000000
# 2 -0.002645 0.047346 -0.013931 0.000000 0.000000 0.000000
# 3 -0.005381 -0.013931 0.014946 0.000000 0.000000 0.000000
# 4 0.000000 0.000000 0.000000 -0.589403 0.000000 0.000000
# 5 0.000000 0.000000 0.000000 0.000000 0.025441 0.000000
# 6 0.000000 0.000000 0.000000 0.000000 0.000000 0.053933
#
#
# Mechanical properties :
#
#
# Convention : Reuss Voigt Hill
#
# Bulk Modulus (GPa) = 32.34339 59.56361 45.95350
# Shear Modulus (GPa) = -13.12423 20.91613 3.89595
#
# Velocity S-wave (km/s) = -2.73311 3.45033 1.48911
# Velocity P-wave (km/s) = 2.90671 7.05511 5.39553
#
# Compressibility (1/GPa) = 0.03091822
#
# Stress axis : x y z
#
# Youngs Moduli (GPa) = 79.73605 21.12105 66.90719
#
# Poissons Ratio (x) = 0.05587 0.36006
# Poissons Ratio (y) = 0.21092 0.93208
# Poissons Ratio (z) = 0.42910 0.29424
#
# Static dielectric constant tensor:
#      x y z
#    x 3.389750 0.000000 0.000000 
#    y 0.000000 2.734820 0.000000 
#    z 0.000000 0.000000 3.368900 
# 
# 
# High freq. dielectric constant tensor:
#      x y z
#    x 1.691260 0.000000 0.000000 
#    y 0.000000 1.616830 0.000000 
#    z 0.000000 0.000000 1.692680 
# 
# From -- ./inp_files/54950.got.cif
#   From: 2010.03.12/outbox.cif.g09.slc.cpg/sg65_28_cif.got.tgz:54950.got - 2010.04.10 20:52:16.
