data_PCOD8268941
_publ_section_title
;
Structure prediction by ZEFSAII (Michael W. Deem and Ramdas Pophale) SiO2 
 PCOD8268941
Probable space group: C M M M
;
_chemical_formula_sum "Si O2"
_cell_formula_units_Z 120
_cell_length_a 8.910451
_cell_length_b 28.205186
_cell_length_c 28.465119
_cell_angle_alpha 90.000000
_cell_angle_beta 90.000000
_cell_angle_gamma 90.000000
_cell_volume 7153.880117
_symmetry_space_group_name_H-M "C M M M"
_symmetry_group_IT_number 65
_symmetry_cell_setting 'orthorhombic'
loop_
_space_group_symop_operation_xyz
x,y,z
-x,-y,z
x,-y,-z
-x,y,-z
-x,-y,-z
x,y,-z
-x,y,z
x,-y,z
1/2+x,1/2+y,z
1/2-x,1/2-y,z
1/2+x,1/2-y,-z
1/2-x,1/2+y,-z
1/2-x,1/2-y,-z
1/2+x,1/2+y,-z
1/2-x,1/2+y,z
1/2+x,1/2-y,z
loop_
_atom_site_type_symbol
_atom_site_label
_atom_site_fract_x
_atom_site_fract_y
_atom_site_fract_z
Si Si1 0.673784 0.443891 0.500000
Si Si2 0.830084 0.443707 0.948858
Si Si3 0.822617 0.105012 0.764834
Si Si4 0.322459 0.553932 0.856322
Si Si5 0.324316 0.298066 0.723581
Si Si6 0.177628 0.607230 0.413168
Si Si7 0.672552 0.444532 0.670591
Si Si8 0.176788 0.201137 0.385375
O O1 0.691510 0.500000 0.500000
O O2 0.500000 0.428777 0.500000
O O3 0.754059 0.424110 0.454246
O O4 0.820196 0.500000 0.948913
O O5 0.731797 0.423589 0.905798
O O6 0.000000 0.426679 0.941288
O O7 0.771574 0.425162 0.000000
O O8 0.754794 0.085210 0.813631
O O9 0.759862 0.157601 0.753465
O O10 0.779404 0.068738 0.723387
O O11 0.000000 0.107959 0.769185
O O12 0.500000 0.554994 0.855575
O O13 0.264052 0.500000 0.850332
O O14 0.500000 0.292439 0.730423
O O15 0.250000 0.250000 0.742510
O O16 0.284526 0.307429 0.669274
O O17 0.218040 0.582855 0.364089
O O18 0.248390 0.659547 0.415651
O O19 0.000000 0.610714 0.418848
O O20 0.500000 0.428814 0.660842
O O21 0.692655 0.500000 0.663058
O O22 0.250000 0.250000 0.402814
O O23 0.000000 0.202414 0.394640
#
# Coordination Sequence:
#
# PCOD8268941 Si02
#       8
#     8  16  16  16  16  16  16  16
#     4  11  25  45  66  83 102 135 175 211 251 299
#     4   8  14  25  39  54  78 117 160 197 237 285
#     4   9  16  29  46  68  96 128 161 197 241 288
#     4   9  16  25  40  63  90 121 159 201 240 278
#     4   9  17  30  49  70  96 126 161 200 238 283
#     4  12  24  38  57  82 110 136 165 206 253 296
#     4  10  19  33  53  73  97 134 175 206 237 289
#     4  10  19  35  58  83 108 135 169 205 246 295
#
# _framework density 16.774114000000001
#
# number of rings (size 3 to 8) (size 9 to 14) (size 15 to 20)
#    0.000    2.333    1.333    3.000    0.000    4.800 
#    0.000    3.000    0.000    1.600    0.000    0.000 
#    0.000    0.533    0.000    1.200    0.000    2.133 
#
# Total GULP energy -743878.411792 kJ/mol
# GULP energy per Si atom -12397.973530 kJ/mol
# Density = 1.673594 g / cm^3
# Si number density = 16.774114 Si / 1000 Ang^3
#
#
#
# Elastic Constant Matrix: (Units=GPa)
#
#
# Indices 1 2 3 4 5 6 
#
# 1 66.5287 39.1515 33.7054 0.0000 0.0000 0.0000
# 2 39.1515 90.6737 36.9476 0.0000 0.0000 0.0000
# 3 33.7054 36.9476 90.3746 0.0000 0.0000 0.0000
# 4 0.0000 0.0000 0.0000 13.2809 0.0000 0.0000
# 5 0.0000 0.0000 0.0000 0.0000 -82.1815 0.0000
# 6 0.0000 0.0000 0.0000 0.0000 0.0000 23.5787
#
#
#
# Elastic Compliance Matrix: (Units=1/GPa)
#
#
# Indices 1 2 3 4 5 6 
#
# 1 0.022007 -0.007389 -0.005187 0.000000 0.000000 0.000000
# 2 -0.007389 0.015714 -0.003669 0.000000 0.000000 0.000000
# 3 -0.005187 -0.003669 0.014499 0.000000 0.000000 0.000000
# 4 0.000000 0.000000 0.000000 0.075296 0.000000 0.000000
# 5 0.000000 0.000000 0.000000 0.000000 -0.012168 0.000000
# 6 0.000000 0.000000 0.000000 0.000000 0.000000 0.042411
#
#
# Mechanical properties :
#
#
# Convention : Reuss Voigt Hill
#
# Bulk Modulus (GPa) = 50.67963 51.90957 51.29460
# Shear Modulus (GPa) = 25.40327 0.12045 12.76186
#
# Velocity S-wave (km/s) = 3.89579 0.26826 2.76126
# Velocity P-wave (km/s) = 7.10738 5.57758 6.38844
#
# Compressibility (1/GPa) = 0.01973179
#
# Stress axis : x y z
#
# Youngs Moduli (GPa) = 45.43971 63.63833 68.96876
#
# Poissons Ratio (x) = 0.47021 0.35773
# Poissons Ratio (y) = 0.33575 0.25302
# Poissons Ratio (z) = 0.23569 0.23346
#
# Static dielectric constant tensor:
#      x y z
#    x 3.034470 0.000000 0.000000 
#    y 0.000000 3.197280 0.000000 
#    z 0.000000 0.000000 3.495810 
# 
# 
# High freq. dielectric constant tensor:
#      x y z
#    x 1.633460 0.000000 0.000000 
#    y 0.000000 1.631710 0.000000 
#    z 0.000000 0.000000 1.638430 
# 
# From -- ./inp_files/73991.got.cif
#   From: 2010.03.12/outbox.cif.g09.slc.cpg/sg65_37_cif.got.tgz:73991.got - 2010.04.10 20:52:16.
