data_PCOD8268173
_publ_section_title
;
Structure prediction by ZEFSAII (Michael W. Deem and Ramdas Pophale) SiO2 
 PCOD8268173
Probable space group: C M M M
;
_chemical_formula_sum "Si O2"
_cell_formula_units_Z 88
_cell_length_a 18.192062
_cell_length_b 9.215153
_cell_length_c 28.747155
_cell_angle_alpha 90.000000
_cell_angle_beta 90.000000
_cell_angle_gamma 90.000000
_cell_volume 4819.248805
_symmetry_space_group_name_H-M "C M M M"
_symmetry_group_IT_number 65
_symmetry_cell_setting 'orthorhombic'
loop_
_space_group_symop_operation_xyz
x,y,z
-x,-y,z
x,-y,-z
-x,y,-z
-x,-y,-z
x,y,-z
-x,y,z
x,-y,z
1/2+x,1/2+y,z
1/2-x,1/2-y,z
1/2+x,1/2-y,-z
1/2-x,1/2+y,-z
1/2-x,1/2-y,-z
1/2+x,1/2+y,-z
1/2-x,1/2+y,z
1/2+x,1/2-y,z
loop_
_atom_site_type_symbol
_atom_site_label
_atom_site_fract_x
_atom_site_fract_y
_atom_site_fract_z
Si Si1 0.414986 0.330587 0.409734
Si Si2 0.085611 0.832882 0.772389
Si Si3 0.912557 0.336075 0.500000
Si Si4 0.328140 0.171168 0.849759
Si Si5 0.826589 0.829814 0.680715
Si Si6 0.174712 0.667190 0.049081
O O1 0.500000 0.293180 0.400488
O O2 0.404631 0.500000 0.419754
O O3 0.383063 0.244542 0.454065
O O4 0.369853 0.278167 0.365008
O O5 0.113229 0.731912 0.813821
O O6 0.125497 0.785904 0.725169
O O7 0.000000 0.805339 0.764808
O O8 0.102134 0.000000 0.784821
O O9 0.882666 0.500000 0.500000
O O10 0.000000 0.330275 0.500000
O O11 0.250000 0.250000 0.843038
O O12 0.363472 0.204409 0.901399
O O13 0.316743 0.000000 0.841354
O O14 0.750000 0.750000 0.683987
O O15 0.811870 0.000000 0.679157
O O16 0.195841 0.500000 0.050086
O O17 0.250000 0.750000 0.047145
O O18 0.130385 0.701796 0.000000
#
# Coordination Sequence:
#
# PCOD8268173 Si02
#       6
#    16  16   8  16  16  16
#     4   9  17  32  54  76  99 131 170 205 238 284
#     4  10  21  37  55  74  99 132 169 210 256 304
#     4   9  17  29  48  77 108 133 161 201 246 287
#     4  10  19  31  50  76 104 133 167 207 251 300
#     4  10  21  36  54  76 101 130 165 205 250 299
#     4   8  14  25  42  66  96 128 162 201 244 290
#
# _framework density 18.260107999999999
#
# number of rings (size 3 to 8) (size 9 to 14) (size 15 to 20)
#    0.000    2.636    0.000    1.909    0.000    7.273 
#    0.000    0.455    0.000    3.818    0.000    3.818 
#    0.000    0.000    0.000    0.000    0.000    0.000 
#
# Total GULP energy -545240.202734 kJ/mol
# GULP energy per Si atom -12391.822789 kJ/mol
# Density = 1.821855 g / cm^3
# Si number density = 18.260108 Si / 1000 Ang^3
#
#
#
# Elastic Constant Matrix: (Units=GPa)
#
#
# Indices 1 2 3 4 5 6 
#
# 1 82.6794 39.3748 69.1066 0.0000 0.0000 0.0000
# 2 39.3748 66.4802 71.0919 0.0000 0.0000 0.0000
# 3 69.1066 71.0919 202.2451 0.0000 0.0000 0.0000
# 4 0.0000 0.0000 0.0000 25.0521 0.0000 0.0000
# 5 0.0000 0.0000 0.0000 0.0000 -47.9587 0.0000
# 6 0.0000 0.0000 0.0000 0.0000 0.0000 24.5259
#
#
#
# Elastic Compliance Matrix: (Units=1/GPa)
#
#
# Indices 1 2 3 4 5 6 
#
# 1 0.018663 -0.006784 -0.003992 0.000000 0.000000 0.000000
# 2 -0.006784 0.026568 -0.007021 0.000000 0.000000 0.000000
# 3 -0.003992 -0.007021 0.008777 0.000000 0.000000 0.000000
# 4 0.000000 0.000000 0.000000 0.039917 0.000000 0.000000
# 5 0.000000 0.000000 0.000000 0.000000 -0.020851 0.000000
# 6 0.000000 0.000000 0.000000 0.000000 0.000000 0.040773
#
#
# Mechanical properties :
#
#
# Convention : Reuss Voigt Hill
#
# Bulk Modulus (GPa) = 54.31078 78.95015 66.63046
# Shear Modulus (GPa) = 32.13807 11.77928 21.95868
#
# Velocity S-wave (km/s) = 4.19980 2.54260 3.47154
# Velocity P-wave (km/s) = 7.30241 7.20764 7.25518
#
# Compressibility (1/GPa) = 0.01841255
#
# Stress axis : x y z
#
# Youngs Moduli (GPa) = 53.58277 37.63892 113.94001
#
# Poissons Ratio (x) = 0.25536 0.45487
# Poissons Ratio (y) = 0.36353 0.79996
# Poissons Ratio (z) = 0.21391 0.26426
#
# Static dielectric constant tensor:
#      x y z
#    x 2.962080 0.000000 0.000000 
#    y 0.000000 3.351150 0.000000 
#    z 0.000000 0.000000 4.009040 
# 
# 
# High freq. dielectric constant tensor:
#      x y z
#    x 1.665570 0.000000 0.000000 
#    y 0.000000 1.707300 0.000000 
#    z 0.000000 0.000000 1.737400 
# 
# From -- ./inp_files/77818.got.cif
#   From: 2010.03.12/outbox.cif.g09.slc.cpg/sg65_39_cif.got.tgz:77818.got - 2010.04.10 20:52:16.
