data_PCOD8268386
_publ_section_title
;
Structure prediction by ZEFSAII (Michael W. Deem and Ramdas Pophale) SiO2 
 PCOD8268386
Probable space group: C M M M
;
_chemical_formula_sum "Si O2"
_cell_formula_units_Z 112
_cell_length_a 28.898495
_cell_length_b 17.495417
_cell_length_c 12.854353
_cell_angle_alpha 90.000000
_cell_angle_beta 90.000000
_cell_angle_gamma 90.000000
_cell_volume 6499.048025
_symmetry_space_group_name_H-M "C M M M"
_symmetry_group_IT_number 65
_symmetry_cell_setting 'orthorhombic'
loop_
_space_group_symop_operation_xyz
x,y,z
-x,-y,z
x,-y,-z
-x,y,-z
-x,-y,-z
x,y,-z
-x,y,z
x,-y,z
1/2+x,1/2+y,z
1/2-x,1/2-y,z
1/2+x,1/2-y,-z
1/2-x,1/2+y,-z
1/2-x,1/2-y,-z
1/2+x,1/2+y,-z
1/2-x,1/2+y,z
1/2+x,1/2-y,z
loop_
_atom_site_type_symbol
_atom_site_label
_atom_site_fract_x
_atom_site_fract_y
_atom_site_fract_z
Si Si1 0.683762 0.589764 0.379255
Si Si2 0.281506 0.912529 0.711978
Si Si3 0.126304 0.637409 0.381334
Si Si4 0.552584 0.084924 0.222770
Si Si5 0.202220 0.292693 0.884312
Si Si6 0.869277 0.788055 0.742669
Si Si7 0.053433 0.740597 0.117997
O O1 0.677885 0.611458 0.500000
O O2 0.676960 0.500000 0.361415
O O3 0.734590 0.617687 0.342626
O O4 0.644877 0.632142 0.310353
O O5 0.323661 0.901665 0.632226
O O6 0.292594 0.869701 0.818793
O O7 0.275323 0.000000 0.742505
O O8 0.111387 0.633171 0.500000
O O9 0.087258 0.591761 0.319001
O O10 0.129010 0.725482 0.347907
O O11 0.500000 0.095525 0.263262
O O12 0.564293 0.150539 0.138439
O O13 0.558798 0.000000 0.172962
O O14 0.250000 0.250000 0.891089
O O15 0.166445 0.235190 0.832012
O O16 0.184715 0.314455 0.000000
O O17 0.918719 0.794271 0.801098
O O18 0.000000 0.759369 0.136573
O O19 0.068119 0.758786 0.000000
#
# Coordination Sequence:
#
# PCOD8268386 Si02
#       7
#    16  16  16  16  16  16  16
#     4  10  20  34  53  75  99 127 159 200 250 298
#     4  10  20  33  48  71 100 130 168 211 247 287
#     4  10  20  31  47  69  96 133 173 208 246 291
#     4   9  18  31  46  69 101 133 169 210 247 286
#     4  10  19  32  49  70  98 133 165 196 238 289
#     4  10  19  34  52  74  99 128 161 204 243 292
#     4   9  18  33  54  77  99 127 163 202 245 288
#
# _framework density 17.233291999999999
#
# number of rings (size 3 to 8) (size 9 to 14) (size 15 to 20)
#    0.000    2.286    1.429    1.714    0.000    2.571 
#    0.000    4.286    0.000    8.571    0.000    2.000 
#    0.000    0.000    0.000    0.000    0.000    0.000 
#
# Total GULP energy -694347.422242 kJ/mol
# GULP energy per Si atom -12399.061111 kJ/mol
# Density = 1.719407 g / cm^3
# Si number density = 17.233292 Si / 1000 Ang^3
#
#
#
# Elastic Constant Matrix: (Units=GPa)
#
#
# Indices 1 2 3 4 5 6 
#
# 1 88.4326 32.6666 43.3193 0.0000 0.0000 0.0000
# 2 32.6666 57.7471 36.7249 0.0000 0.0000 0.0000
# 3 43.3193 36.7249 115.1762 0.0000 0.0000 0.0000
# 4 0.0000 0.0000 0.0000 23.9495 0.0000 0.0000
# 5 0.0000 0.0000 0.0000 0.0000 24.4640 0.0000
# 6 0.0000 0.0000 0.0000 0.0000 0.0000 24.2282
#
#
#
# Elastic Compliance Matrix: (Units=1/GPa)
#
#
# Indices 1 2 3 4 5 6 
#
# 1 0.015524 -0.006357 -0.003811 0.000000 0.000000 0.000000
# 2 -0.006357 0.024325 -0.005365 0.000000 0.000000 0.000000
# 3 -0.003811 -0.005365 0.011827 0.000000 0.000000 0.000000
# 4 0.000000 0.000000 0.000000 0.041754 0.000000 0.000000
# 5 0.000000 0.000000 0.000000 0.000000 0.040876 0.000000
# 6 0.000000 0.000000 0.000000 0.000000 0.000000 0.041274
#
#
# Mechanical properties :
#
#
# Convention : Reuss Voigt Hill
#
# Bulk Modulus (GPa) = 48.52680 54.08639 51.30659
# Shear Modulus (GPa) = 23.41724 24.43801 23.92763
#
# Velocity S-wave (km/s) = 3.69024 3.76981 3.73024
# Velocity P-wave (km/s) = 6.81007 7.09941 6.95624
#
# Compressibility (1/GPa) = 0.02060717
#
# Stress axis : x y z
#
# Youngs Moduli (GPa) = 64.41831 41.10954 84.55482
#
# Poissons Ratio (x) = 0.26135 0.32228
# Poissons Ratio (y) = 0.40954 0.45365
# Poissons Ratio (z) = 0.24553 0.22056
#
# Static dielectric constant tensor:
#      x y z
#    x 4.055830 0.000000 0.000000 
#    y 0.000000 2.999490 0.000000 
#    z 0.000000 0.000000 3.241880 
# 
# 
# High freq. dielectric constant tensor:
#      x y z
#    x 1.670070 0.000000 0.000000 
#    y 0.000000 1.644870 0.000000 
#    z 0.000000 0.000000 1.664410 
# 
# From -- ./inp_files/25581.got.cif
#   From: 2010.03.12/outbox.cif.g09.slc.cpg/sg65_13_cif.got.tgz:25581.got - 2010.04.10 20:52:16.
