data_PCOD8268199
_publ_section_title
;
Structure prediction by ZEFSAII (Michael W. Deem and Ramdas Pophale) SiO2 
 PCOD8268199
Probable space group: C M M M
;
_chemical_formula_sum "Si O2"
_cell_formula_units_Z 72
_cell_length_a 7.734560
_cell_length_b 18.089985
_cell_length_c 24.896347
_cell_angle_alpha 90.000000
_cell_angle_beta 90.000000
_cell_angle_gamma 90.000000
_cell_volume 3483.448931
_symmetry_space_group_name_H-M "C M M M"
_symmetry_group_IT_number 65
_symmetry_cell_setting 'orthorhombic'
loop_
_space_group_symop_operation_xyz
x,y,z
-x,-y,z
x,-y,-z
-x,y,-z
-x,-y,-z
x,y,-z
-x,y,z
x,-y,z
1/2+x,1/2+y,z
1/2-x,1/2-y,z
1/2+x,1/2-y,-z
1/2-x,1/2+y,-z
1/2-x,1/2-y,-z
1/2+x,1/2+y,-z
1/2-x,1/2+y,z
1/2+x,1/2-y,z
loop_
_atom_site_type_symbol
_atom_site_label
_atom_site_fract_x
_atom_site_fract_y
_atom_site_fract_z
Si Si1 0.203225 0.334929 0.943372
Si Si2 0.500000 0.585171 0.436690
Si Si3 0.703750 0.835388 0.172831
Si Si4 0.694558 0.834299 0.377098
Si Si5 0.303458 0.583361 0.723373
O O1 0.250000 0.250000 0.944745
O O2 0.271778 0.365459 0.885915
O O3 0.000000 0.344968 0.943102
O O4 0.275756 0.371101 0.000000
O O5 0.500000 0.500000 0.418818
O O6 0.500000 0.594842 0.500000
O O7 0.674861 0.621921 0.415137
O O8 0.500000 0.846081 0.178723
O O9 0.750000 0.750000 0.181167
O O10 0.798389 0.884225 0.216939
O O11 0.500000 0.840404 0.400666
O O12 0.750000 0.750000 0.373345
O O13 0.691522 0.867600 0.317163
O O14 0.500000 0.584788 0.702441
O O15 0.230822 0.500000 0.724013
#
# Coordination Sequence:
#
# PCOD8268199 Si02
#       5
#    16   8  16  16  16
#     4   8  14  25  42  66  98 135 178 232 293 355
#     4  11  26  48  72 104 145 181 220 270 321 378
#     4  10  19  31  50  78 109 144 189 241 299 369
#     4  12  24  44  71 102 134 175 221 271 324 379
#     4  11  23  39  59  83 118 158 201 256 316 379
#
# _framework density 20.669170000000001
#
# number of rings (size 3 to 8) (size 9 to 14) (size 15 to 20)
#    0.000    1.667    2.222    2.667    0.000    4.889 
#    0.000    1.111    0.000    0.667    0.000    4.667 
#    0.000    0.000    0.000    0.000    0.000    0.000 
#
# Total GULP energy -446062.955170 kJ/mol
# GULP energy per Si atom -12390.637644 kJ/mol
# Density = 2.062213 g / cm^3
# Si number density = 20.669170 Si / 1000 Ang^3
#
#
#
# Elastic Constant Matrix: (Units=GPa)
#
#
# Indices 1 2 3 4 5 6 
#
# 1 103.2557 41.3181 34.1968 0.0000 0.0000 0.0000
# 2 41.3181 129.5231 65.2309 0.0000 0.0000 0.0000
# 3 34.1968 65.2309 125.8410 0.0000 0.0000 0.0000
# 4 0.0000 0.0000 0.0000 24.6501 0.0000 0.0000
# 5 0.0000 0.0000 0.0000 0.0000 19.6281 0.0000
# 6 0.0000 0.0000 0.0000 0.0000 0.0000 23.0579
#
#
#
# Elastic Compliance Matrix: (Units=1/GPa)
#
#
# Indices 1 2 3 4 5 6 
#
# 1 0.011345 -0.002796 -0.001633 0.000000 0.000000 0.000000
# 2 -0.002796 0.011138 -0.005013 0.000000 0.000000 0.000000
# 3 -0.001633 -0.005013 0.010989 0.000000 0.000000 0.000000
# 4 0.000000 0.000000 0.000000 0.040568 0.000000 0.000000
# 5 0.000000 0.000000 0.000000 0.000000 0.050947 0.000000
# 6 0.000000 0.000000 0.000000 0.000000 0.000000 0.043369
#
#
# Mechanical properties :
#
#
# Convention : Reuss Voigt Hill
#
# Bulk Modulus (GPa) = 68.56286 71.12348 69.84317
# Shear Modulus (GPa) = 26.02767 27.99214 27.00990
#
# Velocity S-wave (km/s) = 3.55244 3.68407 3.61885
# Velocity P-wave (km/s) = 7.07602 7.25132 7.16420
#
# Compressibility (1/GPa) = 0.01458516
#
# Stress axis : x y z
#
# Youngs Moduli (GPa) = 88.14757 89.78673 90.99931
#
# Poissons Ratio (x) = 0.25108 0.14863
# Poissons Ratio (y) = 0.24649 0.45621
# Poissons Ratio (z) = 0.14397 0.45013
#
# Static dielectric constant tensor:
#      x y z
#    x 3.813000 0.000000 0.000000 
#    y 0.000000 3.523050 0.000000 
#    z 0.000000 0.000000 4.258620 
# 
# 
# High freq. dielectric constant tensor:
#      x y z
#    x 1.810220 0.000000 0.000000 
#    y 0.000000 1.775440 0.000000 
#    z 0.000000 0.000000 1.830310 
# 
# From -- ./inp_files/72693.got.cif
#   From: 2010.03.12/outbox.cif.g09.slc.cpg/sg65_37_cif.got.tgz:72693.got - 2010.04.10 20:52:16.
