data_PCOD8268098
_publ_section_title
;
Structure prediction by ZEFSAII (Michael W. Deem and Ramdas Pophale) SiO2 
 PCOD8268098
Probable space group: C M M M
;
_chemical_formula_sum "Si O2"
_cell_formula_units_Z 128
_cell_length_a 16.315851
_cell_length_b 18.946932
_cell_length_c 22.474805
_cell_angle_alpha 90.000000
_cell_angle_beta 90.000000
_cell_angle_gamma 90.000000
_cell_volume 6947.756023
_symmetry_space_group_name_H-M "C M M M"
_symmetry_group_IT_number 65
_symmetry_cell_setting 'orthorhombic'
loop_
_space_group_symop_operation_xyz
x,y,z
-x,-y,z
x,-y,-z
-x,y,-z
-x,-y,-z
x,y,-z
-x,y,z
x,-y,z
1/2+x,1/2+y,z
1/2-x,1/2-y,z
1/2+x,1/2-y,-z
1/2-x,1/2+y,-z
1/2-x,1/2-y,-z
1/2+x,1/2+y,-z
1/2-x,1/2+y,z
1/2+x,1/2-y,z
loop_
_atom_site_type_symbol
_atom_site_label
_atom_site_fract_x
_atom_site_fract_y
_atom_site_fract_z
Si Si1 0.905152 0.822540 0.164397
Si Si2 0.748205 0.915847 0.371019
Si Si3 0.822212 0.421912 0.849771
Si Si4 0.820967 0.077181 0.244600
Si Si5 0.904529 0.325100 0.641376
Si Si6 0.724840 0.669205 0.067311
Si Si7 0.167197 0.206243 0.433356
Si Si8 0.593748 0.185664 0.224530
O O1 0.894406 0.873283 0.221938
O O2 0.856506 0.846595 0.105745
O O3 0.865613 0.748124 0.185791
O O4 0.000000 0.818737 0.146452
O O5 0.775184 0.897392 0.303916
O O6 0.656026 0.886121 0.384615
O O7 0.814395 0.873697 0.411372
O O8 0.749963 0.000000 0.384719
O O9 0.850932 0.500000 0.868545
O O10 0.743590 0.423978 0.808267
O O11 0.800805 0.377575 0.908754
O O12 0.894546 0.387028 0.811081
O O13 0.858853 0.000000 0.255691
O O14 0.896544 0.249804 0.607684
O O15 0.871994 0.316276 0.708736
O O16 0.000000 0.349933 0.637578
O O17 0.750000 0.750000 0.070366
O O18 0.705831 0.645856 0.000000
O O19 0.130978 0.201572 0.500000
O O20 0.250000 0.250000 0.431935
O O21 0.500000 0.205377 0.230140
#
# Coordination Sequence:
#
# PCOD8268098 Si02
#       8
#    16  16  16  16  16  16  16  16
#     4  10  20  33  52  77 105 137 175 222 272 319
#     4  10  19  33  54  80 111 145 181 227 277 325
#     4  10  19  33  52  75 104 138 173 210 257 316
#     4   9  18  31  50  76 105 139 175 212 266 327
#     4  10  20  33  54  83 113 143 178 227 282 332
#     4  10  20  35  55  77 101 136 180 222 264 313
#     4   9  19  35  53  75 105 147 192 224 259 316
#     4  10  19  31  49  78 109 137 172 214 267 324
#
# _framework density 18.423214000000002
#
# number of rings (size 3 to 8) (size 9 to 14) (size 15 to 20)
#    0.000    2.250    2.500    0.750    0.000    1.750 
#    0.000    1.250    0.000    1.500    0.000    8.750 
#    0.000    0.000    0.000    0.000    0.000    0.000 
#
# Total GULP energy -793164.717706 kJ/mol
# GULP energy per Si atom -12393.198714 kJ/mol
# Density = 1.838128 g / cm^3
# Si number density = 18.423214 Si / 1000 Ang^3
#
#
#
# Elastic Constant Matrix: (Units=GPa)
#
#
# Indices 1 2 3 4 5 6 
#
# 1 43.5549 21.5453 26.9155 0.0000 0.0000 0.0000
# 2 21.5453 116.5779 55.1724 0.0000 0.0000 0.0000
# 3 26.9155 55.1724 102.0471 0.0000 0.0000 0.0000
# 4 0.0000 0.0000 0.0000 20.3125 0.0000 0.0000
# 5 0.0000 0.0000 0.0000 0.0000 12.5075 0.0000
# 6 0.0000 0.0000 0.0000 0.0000 0.0000 20.4098
#
#
#
# Elastic Compliance Matrix: (Units=1/GPa)
#
#
# Indices 1 2 3 4 5 6 
#
# 1 0.027861 -0.002246 -0.006134 0.000000 0.000000 0.000000
# 2 -0.002246 0.011709 -0.005738 0.000000 0.000000 0.000000
# 3 -0.006134 -0.005738 0.014520 0.000000 0.000000 0.000000
# 4 0.000000 0.000000 0.000000 0.049231 0.000000 0.000000
# 5 0.000000 0.000000 0.000000 0.000000 0.079952 0.000000
# 6 0.000000 0.000000 0.000000 0.000000 0.000000 0.048996
#
#
# Mechanical properties :
#
#
# Convention : Reuss Voigt Hill
#
# Bulk Modulus (GPa) = 38.68010 52.16072 45.42041
# Shear Modulus (GPa) = 18.57889 21.21574 19.89732
#
# Velocity S-wave (km/s) = 3.17906 3.39717 3.28992
# Velocity P-wave (km/s) = 5.87504 6.61526 6.25611
#
# Compressibility (1/GPa) = 0.02585309
#
# Stress axis : x y z
#
# Youngs Moduli (GPa) = 35.89200 85.40715 68.87246
#
# Poissons Ratio (x) = 0.19183 0.42248
# Poissons Ratio (y) = 0.08062 0.39519
# Poissons Ratio (z) = 0.22017 0.49006
#
# Static dielectric constant tensor:
#      x y z
#    x 3.073200 0.000000 0.000000 
#    y 0.000000 3.634980 0.000000 
#    z 0.000000 0.000000 3.499580 
# 
# 
# High freq. dielectric constant tensor:
#      x y z
#    x 1.689270 0.000000 0.000000 
#    y 0.000000 1.715180 0.000000 
#    z 0.000000 0.000000 1.709120 
# 
# From -- ./inp_files/70654.got.cif
#   From: 2010.03.12/outbox.cif.g09.slc.cpg/sg65_36_cif.got.tgz:70654.got - 2010.04.10 20:52:16.
