data_PCOD8268792
_publ_section_title
;
Structure prediction by ZEFSAII (Michael W. Deem and Ramdas Pophale) SiO2 
 PCOD8268792
Probable space group: C M M M
;
_chemical_formula_sum "Si O2"
_cell_formula_units_Z 72
_cell_length_a 21.147809
_cell_length_b 17.411835
_cell_length_c 9.820326
_cell_angle_alpha 90.000000
_cell_angle_beta 90.000000
_cell_angle_gamma 90.000000
_cell_volume 3616.061661
_symmetry_space_group_name_H-M "C M M M"
_symmetry_group_IT_number 65
_symmetry_cell_setting 'orthorhombic'
loop_
_space_group_symop_operation_xyz
x,y,z
-x,-y,z
x,-y,-z
-x,y,-z
-x,-y,-z
x,y,-z
-x,y,z
x,-y,z
1/2+x,1/2+y,z
1/2-x,1/2-y,z
1/2+x,1/2-y,-z
1/2-x,1/2+y,-z
1/2-x,1/2-y,-z
1/2+x,1/2+y,-z
1/2-x,1/2+y,z
1/2+x,1/2-y,z
loop_
_atom_site_type_symbol
_atom_site_label
_atom_site_fract_x
_atom_site_fract_y
_atom_site_fract_z
Si Si1 0.927341 0.412743 0.745318
Si Si2 0.723260 0.586493 0.000000
Si Si3 0.886297 0.912943 0.793775
Si Si4 0.067690 0.201957 0.000000
Si Si5 0.642692 0.145975 0.000000
Si Si6 0.924064 0.135496 0.500000
Si Si7 0.574154 0.186761 0.500000
O O1 0.921785 0.500000 0.692695
O O2 0.898794 0.355229 0.632859
O O3 0.000000 0.392932 0.782333
O O4 0.883417 0.400730 0.873456
O O5 0.682572 0.600761 0.137978
O O6 0.749825 0.500000 0.000000
O O7 0.781410 0.645310 0.000000
O O8 0.931754 0.851357 0.865613
O O9 0.889895 0.901120 0.631366
O O10 0.908132 0.000000 0.826657
O O11 0.122743 0.264789 0.000000
O O12 0.000000 0.245028 0.000000
O O13 0.907230 0.224874 0.500000
O O14 0.000000 0.119940 0.500000
O O15 0.500000 0.173196 0.500000
#
# Coordination Sequence:
#
# PCOD8268792 Si02
#       7
#    16   8  16   8   8   8   8
#     4  10  19  32  53  82 115 151 193 242 291 339
#     4   9  21  42  61  79 112 158 198 235 283 338
#     4  10  22  39  59  84 114 150 193 235 282 347
#     4  11  22  36  57  86 121 155 184 232 299 349
#     4  12  22  35  58  85 113 148 198 245 283 333
#     4  11  21  35  60  91 118 143 179 237 300 349
#     4   9  19  35  52  77 116 152 178 217 288 362
#
# _framework density 19.911163999999999
#
# number of rings (size 3 to 8) (size 9 to 14) (size 15 to 20)
#    0.000    1.778    0.000    5.667    0.000    8.444 
#    0.000    1.111    0.000    5.333    0.000    0.000 
#    0.000    0.000    0.000    0.000    0.000    0.000 
#
# Total GULP energy -446304.997533 kJ/mol
# GULP energy per Si atom -12397.361043 kJ/mol
# Density = 1.986585 g / cm^3
# Si number density = 19.911164 Si / 1000 Ang^3
#
#
#
# Elastic Constant Matrix: (Units=GPa)
#
#
# Indices 1 2 3 4 5 6 
#
# 1 108.6226 45.6862 50.5883 0.0000 0.0000 0.0000
# 2 45.6862 118.1466 36.1516 0.0000 0.0000 0.0000
# 3 50.5883 36.1516 140.5749 0.0000 0.0000 0.0000
# 4 0.0000 0.0000 0.0000 40.5433 0.0000 0.0000
# 5 0.0000 0.0000 0.0000 0.0000 33.7388 0.0000
# 6 0.0000 0.0000 0.0000 0.0000 0.0000 26.7344
#
#
#
# Elastic Compliance Matrix: (Units=1/GPa)
#
#
# Indices 1 2 3 4 5 6 
#
# 1 0.012406 -0.003724 -0.003507 0.000000 0.000000 0.000000
# 2 -0.003724 0.010305 -0.001310 0.000000 0.000000 0.000000
# 3 -0.003507 -0.001310 0.008712 0.000000 0.000000 0.000000
# 4 0.000000 0.000000 0.000000 0.024665 0.000000 0.000000
# 5 0.000000 0.000000 0.000000 0.000000 0.029639 0.000000
# 6 0.000000 0.000000 0.000000 0.000000 0.000000 0.037405
#
#
# Mechanical properties :
#
#
# Convention : Reuss Voigt Hill
#
# Bulk Modulus (GPa) = 69.72710 70.24404 69.98557
# Shear Modulus (GPa) = 34.48404 35.86450 35.17427
#
# Velocity S-wave (km/s) = 4.16612 4.24869 4.20761
# Velocity P-wave (km/s) = 7.63133 7.70868 7.67010
#
# Compressibility (1/GPa) = 0.01434163
#
# Stress axis : x y z
#
# Youngs Moduli (GPa) = 80.60809 97.04044 114.77823
#
# Poissons Ratio (x) = 0.36139 0.40249
# Poissons Ratio (y) = 0.30020 0.15035
# Poissons Ratio (z) = 0.28267 0.12712
#
# Static dielectric constant tensor:
#      x y z
#    x 3.263890 0.000000 0.000000 
#    y 0.000000 3.751860 0.000000 
#    z 0.000000 0.000000 3.781210 
# 
# 
# High freq. dielectric constant tensor:
#      x y z
#    x 1.739210 0.000000 0.000000 
#    y 0.000000 1.795060 0.000000 
#    z 0.000000 0.000000 1.783110 
# 
# From -- ./inp_files/13669.got.cif
#   From: 2010.03.12/outbox.cif.g09.slc.cpg/sg65_7_cif.got.tgz:13669.got - 2010.04.10 20:52:16.
