data_PCOD8268274
_publ_section_title
;
Structure prediction by ZEFSAII (Michael W. Deem and Ramdas Pophale) SiO2 
 PCOD8268274
Probable space group: C M M M
;
_chemical_formula_sum "Si O2"
_cell_formula_units_Z 88
_cell_length_a 16.140276
_cell_length_b 10.837463
_cell_length_c 26.643704
_cell_angle_alpha 90.000000
_cell_angle_beta 90.000000
_cell_angle_gamma 90.000000
_cell_volume 4660.507217
_symmetry_space_group_name_H-M "C M M M"
_symmetry_group_IT_number 65
_symmetry_cell_setting 'orthorhombic'
loop_
_space_group_symop_operation_xyz
x,y,z
-x,-y,z
x,-y,-z
-x,y,-z
-x,-y,-z
x,y,-z
-x,y,z
x,-y,z
1/2+x,1/2+y,z
1/2-x,1/2-y,z
1/2+x,1/2-y,-z
1/2-x,1/2+y,-z
1/2-x,1/2-y,-z
1/2+x,1/2+y,-z
1/2-x,1/2+y,z
1/2+x,1/2-y,z
loop_
_atom_site_type_symbol
_atom_site_label
_atom_site_fract_x
_atom_site_fract_y
_atom_site_fract_z
Si Si1 0.317953 0.355839 0.000000
Si Si2 0.814242 0.856422 0.799951
Si Si3 0.594736 0.359844 0.300806
Si Si4 0.909566 0.856395 0.102656
Si Si5 0.655011 0.757703 0.394190
Si Si6 0.097249 0.500000 0.443596
Si Si7 0.500000 0.641509 0.554136
O O1 0.250000 0.250000 0.000000
O O2 0.372256 0.328199 0.951423
O O3 0.285430 0.500000 0.000000
O O4 0.750000 0.750000 0.784805
O O5 0.884690 0.849244 0.757815
O O6 0.850819 0.808934 0.852897
O O7 0.779927 0.000000 0.803014
O O8 0.500000 0.319971 0.308379
O O9 0.609302 0.500000 0.319180
O O10 0.652100 0.269402 0.334408
O O11 0.000000 0.792063 0.105750
O O12 0.921231 0.000000 0.111034
O O13 0.750000 0.750000 0.413611
O O14 0.625795 0.891043 0.408648
O O15 0.586746 0.666706 0.418061
O O16 0.136751 0.500000 0.500000
O O17 0.000000 0.500000 0.449390
O O18 0.500000 0.500000 0.542772
O O19 0.500000 0.713330 0.500000
#
# Coordination Sequence:
#
# PCOD8268274 Si02
#       7
#     8  16  16  16  16   8   8
#     4  10  19  31  51  79 111 150 190 242 294 342
#     4  10  20  35  56  85 114 149 189 239 292 349
#     4  10  20  38  63  85 112 148 193 242 289 339
#     4   9  17  31  53  80 110 146 198 244 285 336
#     4  12  25  41  64  92 120 153 196 240 291 350
#     4  11  24  44  64  85 123 163 191 233 293 356
#     4  11  24  43  65  89 119 154 195 242 286 339
#
# _framework density 18.882065999999998
#
# number of rings (size 3 to 8) (size 9 to 14) (size 15 to 20)
#    0.000    1.636    1.818    3.000    2.545    4.727 
#    1.636    0.000    0.000    3.818    0.000    0.000 
#    0.000    0.000    0.000    0.000    0.000    0.000 
#
# Total GULP energy -545150.450620 kJ/mol
# GULP energy per Si atom -12389.782969 kJ/mol
# Density = 1.883909 g / cm^3
# Si number density = 18.882066 Si / 1000 Ang^3
#
#
#
# Elastic Constant Matrix: (Units=GPa)
#
#
# Indices 1 2 3 4 5 6 
#
# 1 115.5014 38.5521 31.9063 0.0000 0.0000 0.0000
# 2 38.5521 91.4487 34.3135 0.0000 0.0000 0.0000
# 3 31.9063 34.3135 121.7854 0.0000 0.0000 0.0000
# 4 0.0000 0.0000 0.0000-1119.3585 0.0000 0.0000
# 5 0.0000 0.0000 0.0000 0.0000 6.7480 0.0000
# 6 0.0000 0.0000 0.0000 0.0000 0.0000 22.5358
#
#
#
# Elastic Compliance Matrix: (Units=1/GPa)
#
#
# Indices 1 2 3 4 5 6 
#
# 1 0.010367 -0.003748 -0.001660 0.000000 0.000000 0.000000
# 2 -0.003748 0.013583 -0.002845 0.000000 0.000000 0.000000
# 3 -0.001660 -0.002845 0.009448 0.000000 0.000000 0.000000
# 4 0.000000 0.000000 0.000000 -0.000893 0.000000 0.000000
# 5 0.000000 0.000000 0.000000 0.000000 0.148193 0.000000
# 6 0.000000 0.000000 0.000000 0.000000 0.000000 0.044374
#
#
# Mechanical properties :
#
#
# Convention : Reuss Voigt Hill
#
# Bulk Modulus (GPa) = 59.20047 59.80882 59.50464
# Shear Modulus (GPa) = 20.22594 -203.08404 -91.42905
#
# Velocity S-wave (km/s) = 3.27643 -10.38207 -6.96608
# Velocity P-wave (km/s) = 6.76270 10.58172 5.75494
#
# Compressibility (1/GPa) = 0.01689176
#
# Stress axis : x y z
#
# Youngs Moduli (GPa) = 96.45607 73.62395 105.84545
#
# Poissons Ratio (x) = 0.27592 0.17573
# Poissons Ratio (y) = 0.36148 0.30114
# Poissons Ratio (z) = 0.16014 0.20947
#
# Static dielectric constant tensor:
#      x y z
#    x 2.605280 0.000000 0.000000 
#    y 0.000000 3.449260 0.000000 
#    z 0.000000 0.000000 3.456670 
# 
# 
# High freq. dielectric constant tensor:
#      x y z
#    x 1.730710 0.000000 0.000000 
#    y 0.000000 1.713960 0.000000 
#    z 0.000000 0.000000 1.753640 
# 
# From -- ./inp_files/74823.got.cif
#   From: 2010.03.12/outbox.cif.g09.slc.cpg/sg65_38_cif.got.tgz:74823.got - 2010.04.10 20:52:16.
