data_PCOD8268932
_publ_section_title
;
Structure prediction by ZEFSAII (Michael W. Deem and Ramdas Pophale) SiO2 
 PCOD8268932
Probable space group: C M M M
;
_chemical_formula_sum "Si O2"
_cell_formula_units_Z 80
_cell_length_a 24.210861
_cell_length_b 19.889729
_cell_length_c 9.366157
_cell_angle_alpha 90.000000
_cell_angle_beta 90.000000
_cell_angle_gamma 90.000000
_cell_volume 4510.249152
_symmetry_space_group_name_H-M "C M M M"
_symmetry_group_IT_number 65
_symmetry_cell_setting 'orthorhombic'
loop_
_space_group_symop_operation_xyz
x,y,z
-x,-y,z
x,-y,-z
-x,y,-z
-x,-y,-z
x,y,-z
-x,y,z
x,-y,z
1/2+x,1/2+y,z
1/2-x,1/2-y,z
1/2+x,1/2-y,-z
1/2-x,1/2+y,-z
1/2-x,1/2-y,-z
1/2+x,1/2+y,-z
1/2-x,1/2+y,z
1/2+x,1/2-y,z
loop_
_atom_site_type_symbol
_atom_site_label
_atom_site_fract_x
_atom_site_fract_y
_atom_site_fract_z
Si Si1 0.000000 0.576419 0.667445
Si Si2 0.786659 0.000000 0.844334
Si Si3 0.340330 0.000000 0.843332
Si Si4 0.939484 0.000000 0.332407
Si Si5 0.812852 0.751400 0.331735
Si Si6 0.118022 0.623908 0.669262
Si Si7 0.651666 0.602736 0.667635
O O1 0.053244 0.620581 0.712781
O O2 0.000000 0.500000 0.735054
O O3 0.000000 0.565828 0.500000
O O4 0.800387 0.933712 0.754261
O O5 0.723238 0.000000 0.875004
O O6 0.817020 0.000000 0.000000
O O7 0.353320 0.935933 0.750001
O O8 0.370316 0.000000 0.000000
O O9 0.906416 0.067746 0.287665
O O10 0.947532 0.000000 0.500000
O O11 0.000000 0.000000 0.258219
O O12 0.807464 0.744827 0.500000
O O13 0.750000 0.750000 0.267457
O O14 0.852064 0.691610 0.274541
O O15 0.845638 0.819209 0.289322
O O16 0.125691 0.615018 0.500000
O O17 0.663065 0.592476 0.500000
#
# Coordination Sequence:
#
# PCOD8268932 Si02
#       7
#     8   8   8   8  16  16  16
#     4   9  16  30  50  74 100 125 166 209 241 288
#     4  10  20  32  48  72 100 129 163 207 252 296
#     4  11  22  33  47  73 101 126 168 211 249 298
#     4   8  14  26  45  69  98 125 154 196 240 282
#     4   9  17  29  47  74 101 125 161 203 242 290
#     4  10  19  33  53  72  98 134 166 203 247 292
#     4   9  17  31  50  72  98 129 164 200 243 296
#
# _framework density 17.737379000000001
#
# number of rings (size 3 to 8) (size 9 to 14) (size 15 to 20)
#    0.000    2.600    1.000    2.400    0.000    3.200 
#    1.800    2.000    0.000    8.400    0.000    0.000 
#    0.000    0.000    0.000    0.000    0.000    0.000 
#
# Total GULP energy -495606.833045 kJ/mol
# GULP energy per Si atom -12390.170826 kJ/mol
# Density = 1.769701 g / cm^3
# Si number density = 17.737379 Si / 1000 Ang^3
#
#
#
# Elastic Constant Matrix: (Units=GPa)
#
#
# Indices 1 2 3 4 5 6 
#
# 1 141.0786 81.0874 20.2717 0.0000 0.0000 0.0000
# 2 81.0874 175.5443 34.6038 0.0000 0.0000 0.0000
# 3 20.2717 34.6038 45.2249 0.0000 0.0000 0.0000
# 4 0.0000 0.0000 0.0000 -2.8607 0.0000 0.0000
# 5 0.0000 0.0000 0.0000 0.0000 8.7250 0.0000
# 6 0.0000 0.0000 0.0000 0.0000 0.0000 0.6871
#
#
#
# Elastic Compliance Matrix: (Units=1/GPa)
#
#
# Indices 1 2 3 4 5 6 
#
# 1 0.009695 -0.004265 -0.001082 0.000000 0.000000 0.000000
# 2 -0.004265 0.008585 -0.004657 0.000000 0.000000 0.000000
# 3 -0.001082 -0.004657 0.026160 0.000000 0.000000 0.000000
# 4 0.000000 0.000000 0.000000 -0.349566 0.000000 0.000000
# 5 0.000000 0.000000 0.000000 0.000000 0.114613 0.000000
# 6 0.000000 0.000000 0.000000 0.000000 0.000000 1.455328
#
#
# Mechanical properties :
#
#
# Convention : Reuss Voigt Hill
#
# Bulk Modulus (GPa) = 40.93089 70.41928 55.67509
# Shear Modulus (GPa) = 3.86708 16.36929 10.11819
#
# Velocity S-wave (km/s) = 1.47815 3.04117 2.39099
# Velocity P-wave (km/s) = 5.10288 7.21934 6.25133
#
# Compressibility (1/GPa) = 0.02443143
#
# Stress axis : x y z
#
# Youngs Moduli (GPa) = 103.14409 116.48747 38.22631
#
# Poissons Ratio (x) = 0.49682 0.04138
# Poissons Ratio (y) = 0.43991 0.17801
# Poissons Ratio (z) = 0.11164 0.54245
#
# Static dielectric constant tensor:
#      x y z
#    x 3.613720 0.000000 0.000000 
#    y 0.000000 3.493730 0.000000 
#    z 0.000000 0.000000 2.966480 
# 
# 
# High freq. dielectric constant tensor:
#      x y z
#    x 1.688670 0.000000 0.000000 
#    y 0.000000 1.687870 0.000000 
#    z 0.000000 0.000000 1.644550 
# 
# From -- ./inp_files/13905.got.cif
#   From: 2010.03.12/outbox.cif.g09.slc.cpg/sg65_7_cif.got.tgz:13905.got - 2010.04.10 20:52:16.
