data_PCOD8268295
_publ_section_title
;
Structure prediction by ZEFSAII (Michael W. Deem and Ramdas Pophale) SiO2 
 PCOD8268295
Probable space group: C M M M
;
_chemical_formula_sum "Si O2"
_cell_formula_units_Z 120
_cell_length_a 20.520783
_cell_length_b 18.847177
_cell_length_c 17.601883
_cell_angle_alpha 90.000000
_cell_angle_beta 90.000000
_cell_angle_gamma 90.000000
_cell_volume 6807.683664
_symmetry_space_group_name_H-M "C M M M"
_symmetry_group_IT_number 65
_symmetry_cell_setting 'orthorhombic'
loop_
_space_group_symop_operation_xyz
x,y,z
-x,-y,z
x,-y,-z
-x,y,-z
-x,-y,-z
x,y,-z
-x,y,z
x,-y,z
1/2+x,1/2+y,z
1/2-x,1/2-y,z
1/2+x,1/2-y,-z
1/2-x,1/2+y,-z
1/2-x,1/2-y,-z
1/2+x,1/2+y,-z
1/2-x,1/2+y,z
1/2+x,1/2-y,z
loop_
_atom_site_type_symbol
_atom_site_label
_atom_site_fract_x
_atom_site_fract_y
_atom_site_fract_z
Si Si1 0.927048 0.259708 0.415853
Si Si2 0.199799 0.079369 0.292038
Si Si3 0.384866 0.341910 0.181166
Si Si4 0.794032 0.186660 0.415246
Si Si5 0.825013 0.581081 0.813861
Si Si6 0.000000 0.084772 0.090177
Si Si7 0.424929 0.809556 0.749682
Si Si8 0.759193 0.828715 0.088813
O O1 0.921527 0.298199 0.500000
O O2 0.871477 0.200385 0.412578
O O3 0.915953 0.309458 0.342246
O O4 0.000000 0.225797 0.408785
O O5 0.135956 0.117261 0.257537
O O6 0.220504 0.115703 0.370117
O O7 0.263179 0.084211 0.240455
O O8 0.178913 0.000000 0.309854
O O9 0.440750 0.380720 0.135028
O O10 0.400821 0.261665 0.207208
O O11 0.326289 0.353837 0.123461
O O12 0.768668 0.173417 0.500000
O O13 0.750000 0.250000 0.379361
O O14 0.845792 0.500000 0.831159
O O15 0.886180 0.622163 0.778822
O O16 0.801887 0.620786 0.890441
O O17 0.000000 0.000000 0.099576
O O18 0.000000 0.104946 0.000000
O O19 0.500000 0.820499 0.771353
O O20 0.750000 0.750000 0.121776
O O21 0.766682 0.828917 0.000000
#
# Coordination Sequence:
#
# PCOD8268295 Si02
#       8
#    16  16  16  16  16   8  16  16
#     4   9  18  32  51  79 111 143 187 233 273 323
#     4  10  21  34  53  79 109 145 179 225 280 330
#     4  11  20  35  56  84 108 140 187 227 265 332
#     4  10  19  31  52  79 106 143 187 229 276 330
#     4  10  22  38  56  83 114 143 182 233 285 336
#     4  11  24  40  56  78 116 152 176 221 282 330
#     4  11  20  34  59  85 108 148 189 229 278 329
#     4  10  20  35  59  85 108 141 183 226 272 325
#
# _framework density 17.627141999999999
#
# number of rings (size 3 to 8) (size 9 to 14) (size 15 to 20)
#    0.000    1.800    3.333    1.600    0.000    1.333 
#    0.000    0.000    0.000    1.200    0.000    4.667 
#    0.000    0.000    0.000    0.000    0.000    0.000 
#
# Total GULP energy -743433.855273 kJ/mol
# GULP energy per Si atom -12390.564255 kJ/mol
# Density = 1.758702 g / cm^3
# Si number density = 17.627142 Si / 1000 Ang^3
#
#
#
# Elastic Constant Matrix: (Units=GPa)
#
#
# Indices 1 2 3 4 5 6 
#
# 1 76.1357 38.9154 29.2224 0.0000 0.0000 0.0000
# 2 38.9154 131.3767 47.7217 0.0000 0.0000 0.0000
# 3 29.2224 47.7217 78.8744 0.0000 0.0000 0.0000
# 4 0.0000 0.0000 0.0000 17.0446 0.0000 0.0000
# 5 0.0000 0.0000 0.0000 0.0000 26.8673 0.0000
# 6 0.0000 0.0000 0.0000 0.0000 0.0000 25.1112
#
#
#
# Elastic Compliance Matrix: (Units=1/GPa)
#
#
# Indices 1 2 3 4 5 6 
#
# 1 0.016418 -0.003401 -0.004025 0.000000 0.000000 0.000000
# 2 -0.003401 0.010460 -0.005069 0.000000 0.000000 0.000000
# 3 -0.004025 -0.005069 0.017236 0.000000 0.000000 0.000000
# 4 0.000000 0.000000 0.000000 0.058670 0.000000 0.000000
# 5 0.000000 0.000000 0.000000 0.000000 0.037220 0.000000
# 6 0.000000 0.000000 0.000000 0.000000 0.000000 0.039823
#
#
# Mechanical properties :
#
#
# Convention : Reuss Voigt Hill
#
# Bulk Modulus (GPa) = 52.28785 57.56729 54.92757
# Shear Modulus (GPa) = 23.67523 25.17311 24.42417
#
# Velocity S-wave (km/s) = 3.66883 3.78311 3.72640
# Velocity P-wave (km/s) = 6.90469 7.19804 7.05289
#
# Compressibility (1/GPa) = 0.01912490
#
# Stress axis : x y z
#
# Youngs Moduli (GPa) = 60.90999 95.59905 58.01694
#
# Poissons Ratio (x) = 0.32514 0.23351
# Poissons Ratio (y) = 0.20716 0.29408
# Poissons Ratio (z) = 0.24515 0.48457
#
# Static dielectric constant tensor:
#      x y z
#    x 3.846540 0.000000 0.000000 
#    y 0.000000 3.271830 0.000000 
#    z 0.000000 0.000000 3.456010 
# 
# 
# High freq. dielectric constant tensor:
#      x y z
#    x 1.690900 0.000000 0.000000 
#    y 0.000000 1.658960 0.000000 
#    z 0.000000 0.000000 1.690460 
# 
# From -- ./inp_files/56123.got.cif
#   From: 2010.03.12/outbox.cif.g09.slc.cpg/sg65_29_cif.got.tgz:56123.got - 2010.04.10 20:52:16.
