data_PCOD8268606
_publ_section_title
;
Structure prediction by ZEFSAII (Michael W. Deem and Ramdas Pophale) SiO2 
 PCOD8268606
Probable space group: C M M M
;
_chemical_formula_sum "Si O2"
_cell_formula_units_Z 104
_cell_length_a 30.251143
_cell_length_b 20.462159
_cell_length_c 9.068731
_cell_angle_alpha 90.000000
_cell_angle_beta 90.000000
_cell_angle_gamma 90.000000
_cell_volume 5613.578025
_symmetry_space_group_name_H-M "C M M M"
_symmetry_group_IT_number 65
_symmetry_cell_setting 'orthorhombic'
loop_
_space_group_symop_operation_xyz
x,y,z
-x,-y,z
x,-y,-z
-x,y,-z
-x,-y,-z
x,y,-z
-x,y,z
x,-y,z
1/2+x,1/2+y,z
1/2-x,1/2-y,z
1/2+x,1/2-y,-z
1/2-x,1/2+y,-z
1/2-x,1/2-y,-z
1/2+x,1/2+y,-z
1/2-x,1/2+y,z
1/2+x,1/2-y,z
loop_
_atom_site_type_symbol
_atom_site_label
_atom_site_fract_x
_atom_site_fract_y
_atom_site_fract_z
Si Si1 0.050435 0.244075 0.173808
Si Si2 0.703545 0.784457 0.825340
Si Si3 0.775353 0.571898 0.826326
Si Si4 0.447107 0.000000 0.834160
Si Si5 0.814103 0.071997 0.665260
Si Si6 0.131214 0.196134 0.671815
Si Si7 0.052136 0.624611 0.664441
O O1 0.083362 0.193437 0.250267
O O2 0.064806 0.313932 0.237237
O O3 0.000000 0.226420 0.216252
O O4 0.057084 0.245189 0.000000
O O5 0.750000 0.750000 0.779228
O O6 0.700485 0.861212 0.773755
O O7 0.663580 0.749330 0.743015
O O8 0.696740 0.777861 0.000000
O O9 0.793305 0.500000 0.766472
O O10 0.724883 0.580680 0.780494
O O11 0.776999 0.570036 0.000000
O O12 0.427803 0.937798 0.747903
O O13 0.500000 0.000000 0.838903
O O14 0.428067 0.000000 0.000000
O O15 0.795217 0.083408 0.500000
O O16 0.851737 0.123617 0.701936
O O17 0.835411 0.000000 0.679358
O O18 0.126001 0.212539 0.500000
O O19 0.072487 0.630728 0.500000
O O20 0.000000 0.616271 0.652312
#
# Coordination Sequence:
#
# PCOD8268606 Si02
#       7
#    16  16  16   8  16  16  16
#     4  10  21  37  56  76 100 132 173 223 277 331
#     4  10  19  32  51  78 112 145 178 219 265 313
#     4   9  17  30  50  75 105 144 184 218 256 306
#     4   9  15  23  39  65  95 125 159 199 249 309
#     4   9  18  32  50  76 109 141 174 214 260 313
#     4  11  22  34  54  81 108 140 178 221 268 322
#     4   9  16  27  45  69  95 122 156 203 257 309
#
# _framework density 18.526509000000001
#
# number of rings (size 3 to 8) (size 9 to 14) (size 15 to 20)
#    0.000    2.385    1.538    1.615    0.000    5.231 
#    0.000    0.000    1.692    0.462    0.000    3.231 
#    0.000    0.000    0.000    0.000    0.000    0.000 
#
# Total GULP energy -644439.764945 kJ/mol
# GULP energy per Si atom -12393.072403 kJ/mol
# Density = 1.848434 g / cm^3
# Si number density = 18.526509 Si / 1000 Ang^3
#
#
#
# Elastic Constant Matrix: (Units=GPa)
#
#
# Indices 1 2 3 4 5 6 
#
# 1 68.0776 42.2502 32.4312 0.0000 0.0000 0.0000
# 2 42.2502 130.7432 38.5747 0.0000 0.0000 0.0000
# 3 32.4312 38.5747 59.4191 0.0000 0.0000 0.0000
# 4 0.0000 0.0000 0.0000 25.2905 0.0000 0.0000
# 5 0.0000 0.0000 0.0000 0.0000 23.3850 0.0000
# 6 0.0000 0.0000 0.0000 0.0000 0.0000 15.2395
#
#
#
# Elastic Compliance Matrix: (Units=1/GPa)
#
#
# Indices 1 2 3 4 5 6 
#
# 1 0.021680 -0.004347 -0.009011 0.000000 0.000000 0.000000
# 2 -0.004347 0.010332 -0.004335 0.000000 0.000000 0.000000
# 3 -0.009011 -0.004335 0.024562 0.000000 0.000000 0.000000
# 4 0.000000 0.000000 0.000000 0.039541 0.000000 0.000000
# 5 0.000000 0.000000 0.000000 0.000000 0.042762 0.000000
# 6 0.000000 0.000000 0.000000 0.000000 0.000000 0.065619
#
#
# Mechanical properties :
#
#
# Convention : Reuss Voigt Hill
#
# Bulk Modulus (GPa) = 47.19615 53.86134 50.52875
# Shear Modulus (GPa) = 20.24746 22.44859 21.34802
#
# Velocity S-wave (km/s) = 3.30948 3.48473 3.39823
# Velocity P-wave (km/s) = 6.33512 6.73252 6.53684
#
# Compressibility (1/GPa) = 0.02118817
#
# Stress axis : x y z
#
# Youngs Moduli (GPa) = 46.12615 96.78243 40.71353
#
# Poissons Ratio (x) = 0.42075 0.36685
# Poissons Ratio (y) = 0.20053 0.17649
# Poissons Ratio (z) = 0.41562 0.41955
#
# Static dielectric constant tensor:
#      x y z
#    x 3.103650 0.000000 0.000000 
#    y 0.000000 3.845940 0.000000 
#    z 0.000000 0.000000 3.501150 
# 
# 
# High freq. dielectric constant tensor:
#      x y z
#    x 1.679630 0.000000 0.000000 
#    y 0.000000 1.725280 0.000000 
#    z 0.000000 0.000000 1.725730 
# 
# From -- ./inp_files/16439.got.cif
#   From: 2010.03.12/outbox.cif.g09.slc.cpg/sg65_9_cif.got.tgz:16439.got - 2010.04.10 20:52:16.
