data_PCOD8268559
_publ_section_title
;
Structure prediction by ZEFSAII (Michael W. Deem and Ramdas Pophale) SiO2 
 PCOD8268559
Probable space group: C M M M
;
_chemical_formula_sum "Si O2"
_cell_formula_units_Z 88
_cell_length_a 34.543941
_cell_length_b 9.510343
_cell_length_c 14.880333
_cell_angle_alpha 90.000000
_cell_angle_beta 90.000000
_cell_angle_gamma 90.000000
_cell_volume 4888.557344
_symmetry_space_group_name_H-M "C M M M"
_symmetry_group_IT_number 65
_symmetry_cell_setting 'orthorhombic'
loop_
_space_group_symop_operation_xyz
x,y,z
-x,-y,z
x,-y,-z
-x,y,-z
-x,-y,-z
x,y,-z
-x,y,z
x,-y,z
1/2+x,1/2+y,z
1/2-x,1/2-y,z
1/2+x,1/2-y,-z
1/2-x,1/2+y,-z
1/2-x,1/2-y,-z
1/2+x,1/2+y,-z
1/2-x,1/2+y,z
1/2+x,1/2-y,z
loop_
_atom_site_type_symbol
_atom_site_label
_atom_site_fract_x
_atom_site_fract_y
_atom_site_fract_z
Si Si1 0.153025 0.665314 0.254219
Si Si2 0.954871 0.846356 0.901776
Si Si3 0.433310 0.167164 0.737071
Si Si4 0.788585 0.335431 0.896774
Si Si5 0.713796 0.837184 0.397569
Si Si6 0.500000 0.167160 0.397269
O O1 0.148651 0.500000 0.245860
O O2 0.110324 0.728135 0.271744
O O3 0.175475 0.718779 0.164567
O O4 0.176827 0.710435 0.341578
O O5 0.947038 0.722760 0.832499
O O6 0.000000 0.861293 0.912751
O O7 0.938405 0.000000 0.870563
O O8 0.937064 0.806995 0.000000
O O9 0.461434 0.220337 0.656048
O O10 0.434691 0.000000 0.739891
O O11 0.780071 0.500000 0.878921
O O12 0.750000 0.250000 0.870671
O O13 0.800211 0.307489 0.000000
O O14 0.704322 0.800271 0.500000
O O15 0.750000 0.750000 0.361322
O O16 0.723684 0.000000 0.383402
O O17 0.500000 0.226823 0.500000
O O18 0.500000 0.000000 0.400831
#
# Coordination Sequence:
#
# PCOD8268559 Si02
#       6
#    16  16  16  16  16   8
#     4   9  18  30  46  70  98 125 155 195 242 286
#     4   9  18  33  52  72  97 129 159 193 244 297
#     4  10  19  32  51  75 100 128 167 209 245 289
#     4   9  17  30  47  66  91 125 160 192 229 275
#     4   9  17  30  48  69  93 123 158 196 240 290
#     4   9  18  32  50  73 100 128 161 205 252 291
#
# _framework density 18.001221000000001
#
# number of rings (size 3 to 8) (size 9 to 14) (size 15 to 20)
#    0.000    2.818    0.909    1.091    0.000    1.818 
#    0.000    8.182    0.000    3.273    0.000    0.000 
#    0.000    0.000    0.000    0.000    0.000    0.000 
#
# Total GULP energy -545208.688203 kJ/mol
# GULP energy per Si atom -12391.106550 kJ/mol
# Density = 1.796025 g / cm^3
# Si number density = 18.001221 Si / 1000 Ang^3
#
#
#
# Elastic Constant Matrix: (Units=GPa)
#
#
# Indices 1 2 3 4 5 6 
#
# 1 144.3545 27.1534 77.4933 0.0000 0.0000 0.0000
# 2 27.1534 26.0976 27.0521 0.0000 0.0000 0.0000
# 3 77.4933 27.0521 123.2758 0.0000 0.0000 0.0000
# 4 0.0000 0.0000 0.0000 13.6081 0.0000 0.0000
# 5 0.0000 0.0000 0.0000 0.0000 18.4964 0.0000
# 6 0.0000 0.0000 0.0000 0.0000 0.0000 19.2127
#
#
#
# Elastic Compliance Matrix: (Units=1/GPa)
#
#
# Indices 1 2 3 4 5 6 
#
# 1 0.011046 -0.005560 -0.005723 0.000000 0.000000 0.000000
# 2 -0.005560 0.052399 -0.008004 0.000000 0.000000 0.000000
# 3 -0.005723 -0.008004 0.013466 0.000000 0.000000 0.000000
# 4 0.000000 0.000000 0.000000 0.073486 0.000000 0.000000
# 5 0.000000 0.000000 0.000000 0.000000 0.054064 0.000000
# 6 0.000000 0.000000 0.000000 0.000000 0.000000 0.052049
#
#
# Mechanical properties :
#
#
# Convention : Reuss Voigt Hill
#
# Bulk Modulus (GPa) = 26.08460 61.90283 43.99371
# Shear Modulus (GPa) = 16.24103 21.06538 18.65321
#
# Velocity S-wave (km/s) = 3.00695 3.42456 3.22253
# Velocity P-wave (km/s) = 5.15535 7.07811 6.19182
#
# Compressibility (1/GPa) = 0.03833680
#
# Stress axis : x y z
#
# Youngs Moduli (GPa) = 90.53295 19.08448 74.26058
#
# Poissons Ratio (x) = 0.10611 0.42503
# Poissons Ratio (y) = 0.50334 0.59435
# Poissons Ratio (z) = 0.51816 0.15274
#
# Static dielectric constant tensor:
#      x y z
#    x 3.798370 0.000000 0.000000 
#    y 0.000000 3.731540 0.000000 
#    z 0.000000 0.000000 3.562120 
# 
# 
# High freq. dielectric constant tensor:
#      x y z
#    x 1.692440 0.000000 0.000000 
#    y 0.000000 1.662020 0.000000 
#    z 0.000000 0.000000 1.706620 
# 
# From -- ./inp_files/47654.got.cif
#   From: 2010.03.12/outbox.cif.g09.slc.cpg/sg65_24_cif.got.tgz:47654.got - 2010.04.10 20:52:16.
