data_PCOD8268909
_publ_section_title
;
Structure prediction by ZEFSAII (Michael W. Deem and Ramdas Pophale) SiO2 
 PCOD8268909
Probable space group: C M M M
;
_chemical_formula_sum "Si O2"
_cell_formula_units_Z 88
_cell_length_a 18.114187
_cell_length_b 24.701472
_cell_length_c 10.203348
_cell_angle_alpha 90.000000
_cell_angle_beta 90.000000
_cell_angle_gamma 90.000000
_cell_volume 4565.458299
_symmetry_space_group_name_H-M "C M M M"
_symmetry_group_IT_number 65
_symmetry_cell_setting 'orthorhombic'
loop_
_space_group_symop_operation_xyz
x,y,z
-x,-y,z
x,-y,-z
-x,y,-z
-x,-y,-z
x,y,-z
-x,y,z
x,-y,z
1/2+x,1/2+y,z
1/2-x,1/2-y,z
1/2+x,1/2-y,-z
1/2-x,1/2+y,-z
1/2-x,1/2-y,-z
1/2+x,1/2+y,-z
1/2-x,1/2+y,z
1/2+x,1/2-y,z
loop_
_atom_site_type_symbol
_atom_site_label
_atom_site_fract_x
_atom_site_fract_y
_atom_site_fract_z
Si Si1 0.414132 0.638374 0.650015
Si Si2 0.673311 0.937006 0.753674
Si Si3 0.667457 0.252584 0.655481
Si Si4 0.918680 0.348650 0.647937
Si Si5 0.336953 0.563404 0.151453
Si Si6 0.081199 0.564135 0.000000
O O1 0.393118 0.621043 0.500000
O O2 0.500000 0.652278 0.657489
O O3 0.369326 0.690904 0.695896
O O4 0.396852 0.591304 0.754692
O O5 0.638096 0.899771 0.641382
O O6 0.757890 0.924120 0.783939
O O7 0.625527 0.916017 0.875313
O O8 0.661732 0.000000 0.718980
O O9 0.670874 0.246745 0.500000
O O10 0.750000 0.250000 0.714632
O O11 0.620066 0.203084 0.717630
O O12 0.932965 0.331589 0.500000
O O13 0.000000 0.361529 0.711144
O O14 0.353451 0.500000 0.153090
O O15 0.340275 0.584093 0.000000
O O16 0.077804 0.500000 0.000000
O O17 0.000000 0.589942 0.000000
#
# Coordination Sequence:
#
# PCOD8268909 Si02
#       6
#    16  16  16  16  16   8
#     4  10  21  37  59  86 114 145 184 231 279 329
#     4  10  19  33  52  74 104 143 184 226 270 322
#     4   9  17  32  55  80 106 141 183 223 270 329
#     4  10  20  32  49  77 112 145 178 222 275 331
#     4  10  21  38  59  82 111 147 186 228 278 336
#     4   9  16  28  48  70  92 129 179 221 259 309
#
# _framework density 19.275172000000001
#
# number of rings (size 3 to 8) (size 9 to 14) (size 15 to 20)
#    0.000    2.273    0.909    2.182    0.000    6.909 
#    0.000    4.545    2.000    1.636    0.000    0.000 
#    0.000    0.000    0.000    0.000    0.000    0.000 
#
# Total GULP energy -545309.792857 kJ/mol
# GULP energy per Si atom -12393.404383 kJ/mol
# Density = 1.923130 g / cm^3
# Si number density = 19.275172 Si / 1000 Ang^3
#
#
#
# Elastic Constant Matrix: (Units=GPa)
#
#
# Indices 1 2 3 4 5 6 
#
# 1 115.3596 47.9349 33.1020 0.0000 0.0000 0.0000
# 2 47.9349 84.2467 33.8633 0.0000 0.0000 0.0000
# 3 33.1020 33.8633 51.5702 0.0000 0.0000 0.0000
# 4 0.0000 0.0000 0.0000 10.2855 0.0000 0.0000
# 5 0.0000 0.0000 0.0000 0.0000 21.5746 0.0000
# 6 0.0000 0.0000 0.0000 0.0000 0.0000 36.9433
#
#
#
# Elastic Compliance Matrix: (Units=1/GPa)
#
#
# Indices 1 2 3 4 5 6 
#
# 1 0.012042 -0.005088 -0.004389 0.000000 0.000000 0.000000
# 2 -0.005088 0.018276 -0.008735 0.000000 0.000000 0.000000
# 3 -0.004389 -0.008735 0.027944 0.000000 0.000000 0.000000
# 4 0.000000 0.000000 0.000000 0.097225 0.000000 0.000000
# 5 0.000000 0.000000 0.000000 0.000000 0.046351 0.000000
# 6 0.000000 0.000000 0.000000 0.000000 0.000000 0.027068
#
#
# Mechanical properties :
#
#
# Convention : Reuss Voigt Hill
#
# Bulk Modulus (GPa) = 45.79001 53.44189 49.61595
# Shear Modulus (GPa) = 18.34137 22.84576 20.59356
#
# Velocity S-wave (km/s) = 3.08807 3.44647 3.27218
# Velocity P-wave (km/s) = 6.04338 6.60481 6.33032
#
# Compressibility (1/GPa) = 0.02183883
#
# Stress axis : x y z
#
# Youngs Moduli (GPa) = 83.04340 54.71746 35.78591
#
# Poissons Ratio (x) = 0.27838 0.15706
# Poissons Ratio (y) = 0.42249 0.31259
# Poissons Ratio (z) = 0.36446 0.47796
#
# Static dielectric constant tensor:
#      x y z
#    x 3.785470 0.000000 0.000000 
#    y 0.000000 3.357820 0.000000 
#    z 0.000000 0.000000 3.163510 
# 
# 
# High freq. dielectric constant tensor:
#      x y z
#    x 1.766440 0.000000 0.000000 
#    y 0.000000 1.741790 0.000000 
#    z 0.000000 0.000000 1.715550 
# 
# From -- ./inp_files/26830.got.cif
#   From: 2010.03.12/outbox.cif.g09.slc.cpg/sg65_14_cif.got.tgz:26830.got - 2010.04.10 20:52:16.
