data_PCOD8268351
_publ_section_title
;
Structure prediction by ZEFSAII (Michael W. Deem and Ramdas Pophale) SiO2 
 PCOD8268351
Probable space group: C M M M
;
_chemical_formula_sum "Si O2"
_cell_formula_units_Z 88
_cell_length_a 27.335546
_cell_length_b 8.722923
_cell_length_c 21.150396
_cell_angle_alpha 90.000000
_cell_angle_beta 90.000000
_cell_angle_gamma 90.000000
_cell_volume 5043.224425
_symmetry_space_group_name_H-M "C M M M"
_symmetry_group_IT_number 65
_symmetry_cell_setting 'orthorhombic'
loop_
_space_group_symop_operation_xyz
x,y,z
-x,-y,z
x,-y,-z
-x,y,-z
-x,-y,-z
x,y,-z
-x,y,z
x,-y,z
1/2+x,1/2+y,z
1/2-x,1/2-y,z
1/2+x,1/2-y,-z
1/2-x,1/2+y,-z
1/2-x,1/2-y,-z
1/2+x,1/2+y,-z
1/2-x,1/2+y,z
1/2+x,1/2-y,z
loop_
_atom_site_type_symbol
_atom_site_label
_atom_site_fract_x
_atom_site_fract_y
_atom_site_fract_z
Si Si1 0.697908 0.820919 0.427458
Si Si2 0.146136 0.179967 0.685245
Si Si3 0.198287 0.318171 0.196757
Si Si4 0.396754 0.180140 0.873133
Si Si5 0.944175 0.316389 0.000000
Si Si6 0.555616 0.178939 0.744744
O O1 0.683958 0.788165 0.500000
O O2 0.750000 0.750000 0.410161
O O3 0.657191 0.739032 0.385023
O O4 0.699580 0.000000 0.412410
O O5 0.183228 0.259664 0.734093
O O6 0.089987 0.222984 0.698998
O O7 0.153766 0.000000 0.689870
O O8 0.201601 0.500000 0.199565
O O9 0.250000 0.250000 0.175395
O O10 0.157757 0.262438 0.145513
O O11 0.416066 0.252342 0.938689
O O12 0.434291 0.225148 0.817427
O O13 0.395433 0.000000 0.882024
O O14 0.943782 0.500000 0.000000
O O15 0.000000 0.257195 0.000000
O O16 0.500000 0.218337 0.727634
O O17 0.567588 0.000000 0.734852
#
# Coordination Sequence:
#
# PCOD8268351 Si02
#       6
#    16  16  16  16   8  16
#     4  10  20  34  52  74 101 131 161 193 233 282
#     4  11  21  32  49  73 100 128 160 198 240 284
#     4  10  19  32  48  67  94 126 162 200 241 287
#     4   8  15  26  42  67  96 124 155 195 240 286
#     4   9  14  22  41  68  95 121 153 195 242 289
#     4   9  17  31  50  71  97 128 162 200 242 286
#
# _framework density 17.449154
#
# number of rings (size 3 to 8) (size 9 to 14) (size 15 to 20)
#    0.000    2.455    0.000    4.909    0.000    3.636 
#    0.000    0.455    0.000    0.545    0.000   19.091 
#    0.000   24.000    0.000    0.000    0.000    0.000 
#
# Total GULP energy -545572.775814 kJ/mol
# GULP energy per Si atom -12399.381268 kJ/mol
# Density = 1.740944 g / cm^3
# Si number density = 17.449154 Si / 1000 Ang^3
#
#
#
# Elastic Constant Matrix: (Units=GPa)
#
#
# Indices 1 2 3 4 5 6 
#
# 1 120.8562 37.3654 62.9604 0.0000 0.0000 0.0000
# 2 37.3654 69.9361 35.2503 0.0000 0.0000 0.0000
# 3 62.9604 35.2503 113.3830 0.0000 0.0000 0.0000
# 4 0.0000 0.0000 0.0000 12.4261 0.0000 0.0000
# 5 0.0000 0.0000 0.0000 0.0000 23.1839 0.0000
# 6 0.0000 0.0000 0.0000 0.0000 0.0000 27.4255
#
#
#
# Elastic Compliance Matrix: (Units=1/GPa)
#
#
# Indices 1 2 3 4 5 6 
#
# 1 0.012418 -0.003746 -0.005731 0.000000 0.000000 0.000000
# 2 -0.003746 0.018086 -0.003543 0.000000 0.000000 0.000000
# 3 -0.005731 -0.003543 0.013103 0.000000 0.000000 0.000000
# 4 0.000000 0.000000 0.000000 0.080476 0.000000 0.000000
# 5 0.000000 0.000000 0.000000 0.000000 0.043133 0.000000
# 6 0.000000 0.000000 0.000000 0.000000 0.000000 0.036462
#
#
# Mechanical properties :
#
#
# Convention : Reuss Voigt Hill
#
# Bulk Modulus (GPa) = 56.92208 63.92530 60.42369
# Shear Modulus (GPa) = 21.22475 23.84705 22.53590
#
# Velocity S-wave (km/s) = 3.49144 3.70085 3.59767
# Velocity P-wave (km/s) = 6.99615 7.41461 7.20841
#
# Compressibility (1/GPa) = 0.01756787
#
# Stress axis : x y z
#
# Youngs Moduli (GPa) = 80.52790 55.29188 76.31596
#
# Poissons Ratio (x) = 0.20713 0.43737
# Poissons Ratio (y) = 0.30166 0.27036
# Poissons Ratio (z) = 0.46150 0.19588
#
# Static dielectric constant tensor:
#      x y z
#    x 3.358670 0.000000 0.000000 
#    y 0.000000 3.043810 0.000000 
#    z 0.000000 0.000000 3.328570 
# 
# 
# High freq. dielectric constant tensor:
#      x y z
#    x 1.673810 0.000000 0.000000 
#    y 0.000000 1.656200 0.000000 
#    z 0.000000 0.000000 1.665050 
# 
# From -- ./inp_files/65782.got.cif
#   From: 2010.03.12/outbox.cif.g09.slc.cpg/sg65_33_cif.got.tgz:65782.got - 2010.04.10 20:52:16.
