data_PCOD8268240
_publ_section_title
;
Structure prediction by ZEFSAII (Michael W. Deem and Ramdas Pophale) SiO2 
 PCOD8268240
Probable space group: C M M M
;
_chemical_formula_sum "Si O2"
_cell_formula_units_Z 80
_cell_length_a 9.395433
_cell_length_b 18.143976
_cell_length_c 25.833885
_cell_angle_alpha 90.000000
_cell_angle_beta 90.000000
_cell_angle_gamma 90.000000
_cell_volume 4403.915573
_symmetry_space_group_name_H-M "C M M M"
_symmetry_group_IT_number 65
_symmetry_cell_setting 'orthorhombic'
loop_
_space_group_symop_operation_xyz
x,y,z
-x,-y,z
x,-y,-z
-x,y,-z
-x,-y,-z
x,y,-z
-x,y,z
x,-y,z
1/2+x,1/2+y,z
1/2-x,1/2-y,z
1/2+x,1/2-y,-z
1/2-x,1/2+y,-z
1/2-x,1/2-y,-z
1/2+x,1/2+y,-z
1/2-x,1/2+y,z
1/2+x,1/2-y,z
loop_
_atom_site_type_symbol
_atom_site_label
_atom_site_fract_x
_atom_site_fract_y
_atom_site_fract_z
Si Si1 0.330914 0.326654 0.500000
Si Si2 0.665490 0.415307 0.199998
Si Si3 0.165254 0.415022 0.100564
Si Si4 0.167668 0.674509 0.000000
Si Si5 0.168591 0.917531 0.599741
Si Si6 0.331865 0.326064 0.301408
O O1 0.500000 0.312677 0.500000
O O2 0.250000 0.250000 0.500000
O O3 0.279870 0.372375 0.450132
O O4 0.500000 0.406527 0.187853
O O5 0.705116 0.500000 0.211896
O O6 0.749810 0.385257 0.150249
O O7 0.711737 0.367327 0.248968
O O8 0.201379 0.500000 0.089847
O O9 0.000000 0.403090 0.112098
O O10 0.215319 0.370612 0.050404
O O11 0.250000 0.750000 0.000000
O O12 0.000000 0.689141 0.000000
O O13 0.221452 0.876351 0.651200
O O14 0.000000 0.923392 0.599830
O O15 0.234037 0.000000 0.598326
O O16 0.500000 0.311376 0.304438
O O17 0.250000 0.250000 0.304277
#
# Coordination Sequence:
#
# PCOD8268240 Si02
#       6
#     8  16  16   8  16  16
#     4  10  19  31  51  77 103 130 162 204 250 296
#     4   9  18  33  52  73  96 125 163 203 241 284
#     4   9  18  34  55  75  96 126 163 201 241 286
#     4  10  21  35  51  73 101 130 160 196 240 290
#     4   9  17  31  52  75  97 127 170 211 243 283
#     4  10  20  33  50  72 100 132 163 200 246 293
#
# _framework density 18.165654
#
# number of rings (size 3 to 8) (size 9 to 14) (size 15 to 20)
#    0.000    2.600    0.000    1.800    0.000    7.200 
#    0.000    4.000    0.000    7.200    0.000    0.000 
#    0.000    0.000    0.000    0.000    0.000    0.000 
#
# Total GULP energy -496071.376090 kJ/mol
# GULP energy per Si atom -12401.784402 kJ/mol
# Density = 1.812431 g / cm^3
# Si number density = 18.165654 Si / 1000 Ang^3
#
#
#
# Elastic Constant Matrix: (Units=GPa)
#
#
# Indices 1 2 3 4 5 6 
#
# 1 32.6486 46.1128 51.7244 0.0000 0.0000 0.0000
# 2 46.1128 151.2383 105.9256 0.0000 0.0000 0.0000
# 3 51.7244 105.9256 199.4875 0.0000 0.0000 0.0000
# 4 0.0000 0.0000 0.0000 17.3961 0.0000 0.0000
# 5 0.0000 0.0000 0.0000 0.0000 22.4965 0.0000
# 6 0.0000 0.0000 0.0000 0.0000 0.0000 32.2760
#
#
#
# Elastic Compliance Matrix: (Units=1/GPa)
#
#
# Indices 1 2 3 4 5 6 
#
# 1 0.064199 -0.012603 -0.009954 0.000000 0.000000 0.000000
# 2 -0.012603 0.013001 -0.003636 0.000000 0.000000 0.000000
# 3 -0.009954 -0.003636 0.009524 0.000000 0.000000 0.000000
# 4 0.000000 0.000000 0.000000 0.057484 0.000000 0.000000
# 5 0.000000 0.000000 0.000000 0.000000 0.044451 0.000000
# 6 0.000000 0.000000 0.000000 0.000000 0.000000 0.030983
#
#
# Mechanical properties :
#
#
# Convention : Reuss Voigt Hill
#
# Bulk Modulus (GPa) = 29.12083 87.87777 58.49930
# Shear Modulus (GPa) = 17.63825 26.40782 22.02303
#
# Velocity S-wave (km/s) = 3.11941 3.81691 3.48565
# Velocity P-wave (km/s) = 5.38886 8.24050 6.96224
#
# Compressibility (1/GPa) = 0.03433969
#
# Stress axis : x y z
#
# Youngs Moduli (GPa) = 15.57647 76.91669 104.99417
#
# Poissons Ratio (x) = 0.96936 1.04513
# Poissons Ratio (y) = 0.19631 0.38173
# Poissons Ratio (z) = 0.15505 0.27965
#
# Static dielectric constant tensor:
#      x y z
#    x 3.074460 0.000000 0.000000 
#    y 0.000000 3.396590 0.000000 
#    z 0.000000 0.000000 3.638990 
# 
# 
# High freq. dielectric constant tensor:
#      x y z
#    x 1.672870 0.000000 0.000000 
#    y 0.000000 1.709060 0.000000 
#    z 0.000000 0.000000 1.722330 
# 
# From -- ./inp_files/68855.got.cif
#   From: 2010.03.12/outbox.cif.g09.slc.cpg/sg65_35_cif.got.tgz:68855.got - 2010.04.10 20:52:16.
