data_PCOD8268461
_publ_section_title
;
Structure prediction by ZEFSAII (Michael W. Deem and Ramdas Pophale) SiO2 
 PCOD8268461
Probable space group: C M M M
;
_chemical_formula_sum "Si O2"
_cell_formula_units_Z 128
_cell_length_a 19.900256
_cell_length_b 19.732171
_cell_length_c 19.477668
_cell_angle_alpha 90.000000
_cell_angle_beta 90.000000
_cell_angle_gamma 90.000000
_cell_volume 7648.398236
_symmetry_space_group_name_H-M "C M M M"
_symmetry_group_IT_number 65
_symmetry_cell_setting 'orthorhombic'
loop_
_space_group_symop_operation_xyz
x,y,z
-x,-y,z
x,-y,-z
-x,y,-z
-x,-y,-z
x,y,-z
-x,y,z
x,-y,z
1/2+x,1/2+y,z
1/2-x,1/2-y,z
1/2+x,1/2-y,-z
1/2-x,1/2+y,-z
1/2-x,1/2-y,-z
1/2+x,1/2+y,-z
1/2-x,1/2+y,z
1/2+x,1/2-y,z
loop_
_atom_site_type_symbol
_atom_site_label
_atom_site_fract_x
_atom_site_fract_y
_atom_site_fract_z
Si Si1 0.822482 0.281718 0.079073
Si Si2 0.424275 0.177376 0.580318
Si Si3 0.077546 0.805834 0.666611
Si Si4 0.076826 0.205720 0.177602
Si Si5 0.821191 0.077484 0.333220
Si Si6 0.193066 0.421694 0.579076
Si Si7 0.653315 0.574973 0.178940
Si Si8 0.273887 0.925128 0.921457
O O1 0.750000 0.250000 0.097423
O O2 0.878017 0.251598 0.128910
O O3 0.824743 0.363116 0.092438
O O4 0.840627 0.265188 0.000000
O O5 0.421605 0.190734 0.500000
O O6 0.500000 0.157163 0.603576
O O7 0.400668 0.246505 0.615631
O O8 0.373666 0.118014 0.602186
O O9 0.092416 0.777675 0.743008
O O10 0.118235 0.873106 0.645802
O O11 0.000000 0.826045 0.658833
O O12 0.092142 0.126231 0.167281
O O13 0.000000 0.219866 0.158051
O O14 0.754475 0.101432 0.372906
O O15 0.808940 0.084284 0.251800
O O16 0.839683 0.000000 0.353751
O O17 0.212164 0.406426 0.500000
O O18 0.176099 0.500000 0.590349
O O19 0.622037 0.500000 0.173506
O O20 0.707380 0.588770 0.120962
O O21 0.305176 0.000000 0.903644
O O22 0.250644 0.922959 0.000000
#
# Coordination Sequence:
#
# PCOD8268461 Si02
#       8
#    16  16  16  16  16  16  16  16
#     4  10  19  32  50  73  99 127 163 203 239 284
#     4   9  18  33  51  70  94 125 160 198 243 293
#     4   9  19  34  49  69  97 127 161 199 237 284
#     4  10  20  33  49  71 100 130 160 198 245 290
#     4   9  18  31  47  69  96 126 160 196 235 279
#     4   9  18  32  49  71  98 124 154 198 245 287
#     4   9  17  30  48  71  97 125 160 194 233 288
#     4   9  17  30  49  70  94 125 159 198 240 279
#
# _framework density 16.735530000000001
#
# number of rings (size 3 to 8) (size 9 to 14) (size 15 to 20)
#    0.000    2.750    1.250    0.000    0.000    3.000 
#    0.000    5.000    0.000    0.375    0.000    9.625 
#    0.000    0.000    0.000    0.000    0.000    0.000 
#
# Total GULP energy -793393.132937 kJ/mol
# GULP energy per Si atom -12396.767702 kJ/mol
# Density = 1.669744 g / cm^3
# Si number density = 16.735530 Si / 1000 Ang^3
#
#
#
# Elastic Constant Matrix: (Units=GPa)
#
#
# Indices 1 2 3 4 5 6 
#
# 1 105.0503 68.1816 51.6620 0.0000 0.0000 0.0000
# 2 68.1816 107.1078 46.4614 0.0000 0.0000 0.0000
# 3 51.6620 46.4614 50.7933 0.0000 0.0000 0.0000
# 4 0.0000 0.0000 0.0000 27.2009 0.0000 0.0000
# 5 0.0000 0.0000 0.0000 0.0000 27.4755 0.0000
# 6 0.0000 0.0000 0.0000 0.0000 0.0000 30.5289
#
#
#
# Elastic Compliance Matrix: (Units=1/GPa)
#
#
# Indices 1 2 3 4 5 6 
#
# 1 0.021869 -0.007083 -0.015764 0.000000 0.000000 0.000000
# 2 -0.007083 0.017772 -0.009052 0.000000 0.000000 0.000000
# 3 -0.015764 -0.009052 0.044001 0.000000 0.000000 0.000000
# 4 0.000000 0.000000 0.000000 0.036764 0.000000 0.000000
# 5 0.000000 0.000000 0.000000 0.000000 0.036396 0.000000
# 6 0.000000 0.000000 0.000000 0.000000 0.000000 0.032756
#
#
# Mechanical properties :
#
#
# Convention : Reuss Voigt Hill
#
# Bulk Modulus (GPa) = 50.39315 66.17350 58.28332
# Shear Modulus (GPa) = 19.23299 23.48415 21.35857
#
# Velocity S-wave (km/s) = 3.39371 3.75006 3.57633
# Velocity P-wave (km/s) = 6.74783 7.64050 7.20799
#
# Compressibility (1/GPa) = 0.01984397
#
# Stress axis : x y z
#
# Youngs Moduli (GPa) = 45.72725 56.26901 22.72657
#
# Poissons Ratio (x) = 0.39855 0.35826
# Poissons Ratio (y) = 0.32388 0.20572
# Poissons Ratio (z) = 0.72084 0.50935
#
# Static dielectric constant tensor:
#      x y z
#    x 2.982910 0.000000 0.000000 
#    y 0.000000 3.358660 0.000000 
#    z 0.000000 0.000000 3.214860 
# 
# 
# High freq. dielectric constant tensor:
#      x y z
#    x 1.621700 0.000000 0.000000 
#    y 0.000000 1.653510 0.000000 
#    z 0.000000 0.000000 1.647730 
# 
# From -- ./inp_files/64111.got.cif
#   From: 2010.03.12/outbox.cif.g09.slc.cpg/sg65_33_cif.got.tgz:64111.got - 2010.04.10 20:52:16.
