data_PCOD8268409
_publ_section_title
;
Structure prediction by ZEFSAII (Michael W. Deem and Ramdas Pophale) SiO2 
 PCOD8268409
Probable space group: C M M M
;
_chemical_formula_sum "Si O2"
_cell_formula_units_Z 88
_cell_length_a 27.699840
_cell_length_b 14.716599
_cell_length_c 12.488959
_cell_angle_alpha 90.000000
_cell_angle_beta 90.000000
_cell_angle_gamma 90.000000
_cell_volume 5091.092135
_symmetry_space_group_name_H-M "C M M M"
_symmetry_group_IT_number 65
_symmetry_cell_setting 'orthorhombic'
loop_
_space_group_symop_operation_xyz
x,y,z
-x,-y,z
x,-y,-z
-x,y,-z
-x,-y,-z
x,y,-z
-x,y,z
x,-y,z
1/2+x,1/2+y,z
1/2-x,1/2-y,z
1/2+x,1/2-y,-z
1/2-x,1/2+y,-z
1/2-x,1/2-y,-z
1/2+x,1/2+y,-z
1/2-x,1/2+y,z
1/2+x,1/2-y,z
loop_
_atom_site_type_symbol
_atom_site_label
_atom_site_fract_x
_atom_site_fract_y
_atom_site_fract_z
Si Si1 0.658394 0.500000 0.373853
Si Si2 0.234837 0.500000 0.626648
Si Si3 0.619887 0.690515 0.375517
Si Si4 0.442812 0.177481 0.278158
Si Si5 0.797912 0.309320 0.716694
Si Si6 0.133397 0.605499 0.123570
Si Si7 0.053008 0.394463 0.500000
O O1 0.665350 0.500000 0.500000
O O2 0.711601 0.500000 0.322559
O O3 0.629568 0.588402 0.336927
O O4 0.234874 0.500000 0.500000
O O5 0.209535 0.592491 0.663687
O O6 0.603690 0.695459 0.500000
O O7 0.576605 0.719986 0.294291
O O8 0.668017 0.750740 0.361060
O O9 0.500000 0.170730 0.262531
O O10 0.418064 0.125846 0.179823
O O11 0.421613 0.133826 0.389247
O O12 0.750000 0.250000 0.737889
O O13 0.824797 0.329733 0.828999
O O14 0.146964 0.500000 0.139488
O O15 0.127360 0.630577 0.000000
O O16 0.047754 0.500000 0.500000
O O17 0.000000 0.348171 0.500000
#
# Coordination Sequence:
#
# PCOD8268409 Si02
#       7
#     8   8  16  16  16  16   8
#     4   9  18  30  49  73 108 148 184 216 258 308
#     4  11  20  32  51  80 116 150 181 215 262 323
#     4  10  19  32  49  77 111 146 179 218 261 316
#     4  10  20  34  53  77 105 139 175 218 275 329
#     4  11  21  34  54  80 109 146 185 221 265 317
#     4  10  22  39  55  76 106 140 184 233 274 318
#     4   9  16  28  48  73 102 131 165 207 257 323
#
# _framework density 17.285093
#
# number of rings (size 3 to 8) (size 9 to 14) (size 15 to 20)
#    0.000    1.909    3.636    1.091    0.000    2.545 
#    0.000    1.364    0.000    1.636    0.000    5.727 
#    0.000    5.818    0.000    0.000    0.000    0.000 
#
# Total GULP energy -545303.112160 kJ/mol
# GULP energy per Si atom -12393.252549 kJ/mol
# Density = 1.724575 g / cm^3
# Si number density = 17.285093 Si / 1000 Ang^3
#
#
#
# Elastic Constant Matrix: (Units=GPa)
#
#
# Indices 1 2 3 4 5 6 
#
# 1 87.5049 31.4063 33.0688 0.0000 0.0000 0.0000
# 2 31.4063 108.8622 34.2892 0.0000 0.0000 0.0000
# 3 33.0688 34.2892 92.9676 0.0000 0.0000 0.0000
# 4 0.0000 0.0000 0.0000 18.1545 0.0000 0.0000
# 5 0.0000 0.0000 0.0000 0.0000 21.5449 0.0000
# 6 0.0000 0.0000 0.0000 0.0000 0.0000 15.9146
#
#
#
# Elastic Compliance Matrix: (Units=1/GPa)
#
#
# Indices 1 2 3 4 5 6 
#
# 1 0.013907 -0.002777 -0.003923 0.000000 0.000000 0.000000
# 2 -0.002777 0.010948 -0.003050 0.000000 0.000000 0.000000
# 3 -0.003923 -0.003050 0.013277 0.000000 0.000000 0.000000
# 4 0.000000 0.000000 0.000000 0.055083 0.000000 0.000000
# 5 0.000000 0.000000 0.000000 0.000000 0.046415 0.000000
# 6 0.000000 0.000000 0.000000 0.000000 0.000000 0.062836
#
#
# Mechanical properties :
#
#
# Convention : Reuss Voigt Hill
#
# Bulk Modulus (GPa) = 53.66958 54.09591 53.88274
# Shear Modulus (GPa) = 21.91311 23.82748 22.87029
#
# Velocity S-wave (km/s) = 3.56440 3.71684 3.64142
# Velocity P-wave (km/s) = 6.93232 7.05579 6.99432
#
# Compressibility (1/GPa) = 0.01863253
#
# Stress axis : x y z
#
# Youngs Moduli (GPa) = 71.90707 91.34349 75.31975
#
# Poissons Ratio (x) = 0.25362 0.29545
# Poissons Ratio (y) = 0.19965 0.22974
# Poissons Ratio (z) = 0.28206 0.27862
#
# Static dielectric constant tensor:
#      x y z
#    x 3.477620 0.000000 0.000000 
#    y 0.000000 3.503880 0.000000 
#    z 0.000000 0.000000 3.032870 
# 
# 
# High freq. dielectric constant tensor:
#      x y z
#    x 1.666880 0.000000 0.000000 
#    y 0.000000 1.672840 0.000000 
#    z 0.000000 0.000000 1.641490 
# 
# From -- ./inp_files/25206.got.cif
#   From: 2010.03.12/outbox.cif.g09.slc.cpg/sg65_13_cif.got.tgz:25206.got - 2010.04.10 20:52:16.
