data_PCOD8269538
_publ_section_title
;
Structure prediction by ZEFSAII (Michael W. Deem and Ramdas Pophale) SiO2 
 PCOD8269538
Probable space group: C M M M
;
_chemical_formula_sum "Si O2"
_cell_formula_units_Z 112
_cell_length_a 15.439892
_cell_length_b 23.931391
_cell_length_c 14.439863
_cell_angle_alpha 90.000000
_cell_angle_beta 90.000000
_cell_angle_gamma 90.000000
_cell_volume 5335.501834
_symmetry_space_group_name_H-M "C M M M"
_symmetry_group_IT_number 65
_symmetry_cell_setting 'orthorhombic'
loop_
_space_group_symop_operation_xyz
x,y,z
-x,-y,z
x,-y,-z
-x,y,-z
-x,-y,-z
x,y,-z
-x,y,z
x,-y,z
1/2+x,1/2+y,z
1/2-x,1/2-y,z
1/2+x,1/2-y,-z
1/2-x,1/2+y,-z
1/2-x,1/2-y,-z
1/2+x,1/2+y,-z
1/2-x,1/2+y,z
1/2+x,1/2-y,z
loop_
_atom_site_type_symbol
_atom_site_label
_atom_site_fract_x
_atom_site_fract_y
_atom_site_fract_z
Si Si1 0.093292 0.859699 0.840678
Si Si2 0.745551 0.564256 0.201860
Si Si3 0.343295 0.242469 0.105966
Si Si4 0.901948 0.623838 0.108989
Si Si5 0.405314 0.682326 0.361042
Si Si6 0.403318 0.804998 0.607751
Si Si7 0.752418 0.613032 0.601905
O O1 0.173052 0.901835 0.857839
O O2 0.103470 0.799591 0.888573
O O3 0.088782 0.851662 0.732284
O O4 0.000000 0.884345 0.874977
O O5 0.732203 0.500000 0.177129
O O6 0.839214 0.583779 0.167057
O O7 0.735718 0.570155 0.314001
O O8 0.250000 0.250000 0.156324
O O9 0.391706 0.187864 0.146807
O O10 0.327097 0.227261 0.000000
O O11 0.000000 0.604902 0.129522
O O12 0.881292 0.618388 0.000000
O O13 0.500000 0.679240 0.411603
O O14 0.383103 0.747121 0.338723
O O15 0.329063 0.653621 0.418746
O O16 0.393671 0.790155 0.500000
O O17 0.500000 0.827231 0.630718
O O18 0.335067 0.851764 0.636973
O O19 0.770641 0.584574 0.500000
#
# Coordination Sequence:
#
# PCOD8269538 Si02
#       7
#    16  16  16  16  16  16  16
#     4  10  21  36  57  85 118 157 195 238 294 354
#     4  11  25  42  60  83 115 157 207 259 300 343
#     4  10  19  34  60  94 128 157 184 227 292 362
#     4  10  22  41  66  95 124 154 191 239 295 355
#     4   9  18  30  49  80 114 147 184 230 287 353
#     4   9  17  29  47  74 107 140 174 220 283 352
#     4  10  21  36  55  78 108 150 198 245 295 346
#
# _framework density 20.991464000000001
#
# number of rings (size 3 to 8) (size 9 to 14) (size 15 to 20)
#    0.000    2.143    1.429    1.286    2.000    4.571 
#    0.000    0.714    0.000    0.000    0.000    9.000 
#    0.000    0.000    0.000    0.000    0.000    0.000 
#
# Total GULP energy -693935.393985 kJ/mol
# GULP energy per Si atom -12391.703464 kJ/mol
# Density = 2.094369 g / cm^3
# Si number density = 20.991464 Si / 1000 Ang^3
#
#
#
# Elastic Constant Matrix: (Units=GPa)
#
#
# Indices 1 2 3 4 5 6 
#
# 1 133.6720 36.3541 15.7832 0.0000 0.0000 0.0000
# 2 36.3541 99.6913 8.8861 0.0000 0.0000 0.0000
# 3 15.7832 8.8861 32.9102 0.0000 0.0000 0.0000
# 4 0.0000 0.0000 0.0000 17.0591 0.0000 0.0000
# 5 0.0000 0.0000 0.0000 0.0000 15.1106 0.0000
# 6 0.0000 0.0000 0.0000 0.0000 0.0000 11.9863
#
#
#
# Elastic Compliance Matrix: (Units=1/GPa)
#
#
# Indices 1 2 3 4 5 6 
#
# 1 0.008657 -0.002855 -0.003381 0.000000 0.000000 0.000000
# 2 -0.002855 0.011220 -0.001660 0.000000 0.000000 0.000000
# 3 -0.003381 -0.001660 0.032455 0.000000 0.000000 0.000000
# 4 0.000000 0.000000 0.000000 0.058620 0.000000 0.000000
# 5 0.000000 0.000000 0.000000 0.000000 0.066179 0.000000
# 6 0.000000 0.000000 0.000000 0.000000 0.000000 0.083429
#
#
# Mechanical properties :
#
#
# Convention : Reuss Voigt Hill
#
# Bulk Modulus (GPa) = 27.36745 43.14671 35.25708
# Shear Modulus (GPa) = 17.32912 22.51454 19.92183
#
# Velocity S-wave (km/s) = 2.87632 3.27854 3.08400
# Velocity P-wave (km/s) = 4.90884 5.91023 5.43266
#
# Compressibility (1/GPa) = 0.03653976
#
# Stress axis : x y z
#
# Youngs Moduli (GPa) = 115.51676 89.12458 30.81163
#
# Poissons Ratio (x) = 0.25449 0.10416
# Poissons Ratio (y) = 0.32986 0.05115
# Poissons Ratio (z) = 0.39052 0.14796
#
# Static dielectric constant tensor:
#      x y z
#    x 4.280040 0.000000 0.000000 
#    y 0.000000 3.350350 0.000000 
#    z 0.000000 0.000000 3.634530 
# 
# 
# High freq. dielectric constant tensor:
#      x y z
#    x 1.839070 0.000000 0.000000 
#    y 0.000000 1.773220 0.000000 
#    z 0.000000 0.000000 1.818600 
# 
# From -- ./inp_files/40797.got.cif
#   From: 2010.03.12/outbox.cif.g09.slc.cpg/sg65_21_cif.got.tgz:40797.got - 2010.04.10 20:52:16.
