data_PCOD8269577
_publ_section_title
;
Structure prediction by ZEFSAII (Michael W. Deem and Ramdas Pophale) SiO2 
 PCOD8269577
Probable space group: C M M M
;
_chemical_formula_sum "Si O2"
_cell_formula_units_Z 72
_cell_length_a 23.846168
_cell_length_b 17.848483
_cell_length_c 8.792674
_cell_angle_alpha 90.000000
_cell_angle_beta 90.000000
_cell_angle_gamma 90.000000
_cell_volume 3742.319656
_symmetry_space_group_name_H-M "C M M M"
_symmetry_group_IT_number 65
_symmetry_cell_setting 'orthorhombic'
loop_
_space_group_symop_operation_xyz
x,y,z
-x,-y,z
x,-y,-z
-x,y,-z
-x,-y,-z
x,y,-z
-x,y,z
x,-y,z
1/2+x,1/2+y,z
1/2-x,1/2-y,z
1/2+x,1/2-y,-z
1/2-x,1/2+y,-z
1/2-x,1/2-y,-z
1/2+x,1/2+y,-z
1/2-x,1/2+y,z
1/2+x,1/2-y,z
loop_
_atom_site_type_symbol
_atom_site_label
_atom_site_fract_x
_atom_site_fract_y
_atom_site_fract_z
Si Si1 0.937382 0.500000 0.180748
Si Si2 0.563589 0.290473 0.319301
Si Si3 0.123620 0.351805 0.178974
Si Si4 0.352831 0.416015 0.319157
Si Si5 0.760088 0.337553 0.325571
O O1 0.906618 0.573942 0.241234
O O2 0.000000 0.500000 0.247135
O O3 0.937628 0.500000 0.000000
O O4 0.564381 0.287348 0.500000
O O5 0.500000 0.292571 0.256641
O O6 0.595880 0.218456 0.260186
O O7 0.595774 0.364774 0.260196
O O8 0.188526 0.360783 0.220035
O O9 0.116363 0.341800 0.000000
O O10 0.352846 0.416880 0.500000
O O11 0.360237 0.500000 0.253676
O O12 0.294059 0.381563 0.262371
O O13 0.773115 0.359262 0.500000
O O14 0.750000 0.250000 0.310348
#
# Coordination Sequence:
#
# PCOD8269577 Si02
#       5
#     8  16  16  16  16
#     4   9  20  38  55  75 109 149 182 219 270 326
#     4  10  20  36  58  82 109 142 183 228 271 321
#     4  11  22  36  57  82 109 143 184 227 271 327
#     4   9  18  33  54  82 113 146 181 220 271 324
#     4  10  19  35  57  79 110 145 178 223 274 322
#
# _framework density 19.239405000000001
#
# number of rings (size 3 to 8) (size 9 to 14) (size 15 to 20)
#    0.000    2.111    2.222    1.333    1.556    2.222 
#    0.000    3.889    0.000    6.000    0.000    1.556 
#    0.000    0.000    0.000    0.000    0.000    0.000 
#
# Total GULP energy -446434.493036 kJ/mol
# GULP energy per Si atom -12400.958140 kJ/mol
# Density = 1.919562 g / cm^3
# Si number density = 19.239405 Si / 1000 Ang^3
#
#
#
# Elastic Constant Matrix: (Units=GPa)
#
#
# Indices 1 2 3 4 5 6 
#
# 1 150.7607 64.3139 11.4024 0.0000 0.0000 0.0000
# 2 64.3139 150.7953 9.6666 0.0000 0.0000 0.0000
# 3 11.4024 9.6666 8.5384 0.0000 0.0000 0.0000
# 4 0.0000 0.0000 0.0000 14.7172 0.0000 0.0000
# 5 0.0000 0.0000 0.0000 0.0000 22.8042 0.0000
# 6 0.0000 0.0000 0.0000 0.0000 0.0000 23.5045
#
#
#
# Elastic Compliance Matrix: (Units=1/GPa)
#
#
# Indices 1 2 3 4 5 6 
#
# 1 0.008573 -0.003151 -0.007882 0.000000 0.000000 0.000000
# 2 -0.003151 0.008309 -0.005198 0.000000 0.000000 0.000000
# 3 -0.007882 -0.005198 0.133529 0.000000 0.000000 0.000000
# 4 0.000000 0.000000 0.000000 0.067948 0.000000 0.000000
# 5 0.000000 0.000000 0.000000 0.000000 0.043852 0.000000
# 6 0.000000 0.000000 0.000000 0.000000 0.000000 0.042545
#
#
# Mechanical properties :
#
#
# Convention : Reuss Voigt Hill
#
# Bulk Modulus (GPa) = 8.47825 53.42891 30.95358
# Shear Modulus (GPa) = 13.27901 27.18595 20.23248
#
# Velocity S-wave (km/s) = 2.63001 3.76311 3.24638
# Velocity P-wave (km/s) = 3.69309 6.83463 5.49323
#
# Compressibility (1/GPa) = 0.11794880
#
# Stress axis : x y z
#
# Youngs Moduli (GPa) = 116.63880 120.35477 7.48902
#
# Poissons Ratio (x) = 0.37928 0.05903
# Poissons Ratio (y) = 0.36757 0.03893
# Poissons Ratio (z) = 0.91930 0.62563
#
# Static dielectric constant tensor:
#      x y z
#    x 3.865940 0.000000 0.000000 
#    y 0.000000 3.760450 0.000000 
#    z 0.000000 0.000000 3.109500 
# 
# 
# High freq. dielectric constant tensor:
#      x y z
#    x 1.764700 0.000000 0.000000 
#    y 0.000000 1.760690 0.000000 
#    z 0.000000 0.000000 1.705990 
# 
# From -- ./inp_files/7232.got.cif
#   From: 2010.03.12/outbox.cif.g09.slc.cpg/sg65_4_cif.got.tgz:7232.got - 2010.04.10 20:52:16.
