data_PCOD8269038
_publ_section_title
;
Structure prediction by ZEFSAII (Michael W. Deem and Ramdas Pophale) SiO2 
 PCOD8269038
Probable space group: C M M M
;
_chemical_formula_sum "Si O2"
_cell_formula_units_Z 88
_cell_length_a 9.024892
_cell_length_b 29.877850
_cell_length_c 17.509334
_cell_angle_alpha 90.000000
_cell_angle_beta 90.000000
_cell_angle_gamma 90.000000
_cell_volume 4721.293326
_symmetry_space_group_name_H-M "C M M M"
_symmetry_group_IT_number 65
_symmetry_cell_setting 'orthorhombic'
loop_
_space_group_symop_operation_xyz
x,y,z
-x,-y,z
x,-y,-z
-x,y,-z
-x,-y,-z
x,y,-z
-x,y,z
x,-y,z
1/2+x,1/2+y,z
1/2-x,1/2-y,z
1/2+x,1/2-y,-z
1/2-x,1/2+y,-z
1/2-x,1/2-y,-z
1/2+x,1/2+y,-z
1/2-x,1/2+y,z
1/2+x,1/2-y,z
loop_
_atom_site_type_symbol
_atom_site_label
_atom_site_fract_x
_atom_site_fract_y
_atom_site_fract_z
Si Si1 0.824935 0.949812 0.500000
Si Si2 0.834096 0.293017 0.374332
Si Si3 0.167724 0.947465 0.086649
Si Si4 0.161730 0.291338 0.806295
Si Si5 0.175827 0.388722 0.793853
Si Si6 0.323543 0.384879 0.634442
O O1 0.773564 0.923115 0.575192
O O2 0.000000 0.953488 0.500000
O O3 0.755550 0.000000 0.500000
O O4 0.750000 0.250000 0.410200
O O5 0.845626 0.286417 0.284267
O O6 0.743581 0.337843 0.394160
O O7 0.000000 0.296318 0.409042
O O8 0.284841 0.924667 0.142380
O O9 0.000000 0.933224 0.107830
O O10 0.186916 0.000000 0.096399
O O11 0.203944 0.933161 0.000000
O O12 0.250000 0.250000 0.843308
O O13 0.231078 0.340070 0.824541
O O14 0.000000 0.288293 0.843166
O O15 0.258958 0.400474 0.715585
O O16 0.000000 0.387809 0.778079
O O17 0.500000 0.379693 0.639884
#
# Coordination Sequence:
#
# PCOD8269038 Si02
#       6
#     8  16  16  16  16  16
#     4   9  20  38  56  73  96 131 176 223 268 313
#     4   9  16  28  47  73 104 134 167 208 256 309
#     4   9  19  36  56  78 104 134 170 212 259 312
#     4   8  15  26  42  67  99 132 165 202 241 287
#     4  10  20  33  51  79 110 137 170 211 255 308
#     4  10  19  33  54  77 102 135 176 219 262 308
#
# _framework density 18.638961999999999
#
# number of rings (size 3 to 8) (size 9 to 14) (size 15 to 20)
#    0.000    2.818    0.000    3.273    0.000    6.545 
#    0.000    5.000    0.000    4.364    0.000    0.000 
#    0.000    0.000    0.000    0.000    0.000    0.000 
#
# Total GULP energy -545400.862272 kJ/mol
# GULP energy per Si atom -12395.474143 kJ/mol
# Density = 1.859654 g / cm^3
# Si number density = 18.638962 Si / 1000 Ang^3
#
#
#
# Elastic Constant Matrix: (Units=GPa)
#
#
# Indices 1 2 3 4 5 6 
#
# 1 95.9282 52.3878 38.6337 0.0000 0.0000 0.0000
# 2 52.3878 126.6321 59.0509 0.0000 0.0000 0.0000
# 3 38.6337 59.0509 74.3198 0.0000 0.0000 0.0000
# 4 0.0000 0.0000 0.0000 -9.9916 0.0000 0.0000
# 5 0.0000 0.0000 0.0000 0.0000 7.4534 0.0000
# 6 0.0000 0.0000 0.0000 0.0000 0.0000 31.4473
#
#
#
# Elastic Compliance Matrix: (Units=1/GPa)
#
#
# Indices 1 2 3 4 5 6 
#
# 1 0.014297 -0.003891 -0.004341 0.000000 0.000000 0.000000
# 2 -0.003891 0.013604 -0.008786 0.000000 0.000000 0.000000
# 3 -0.004341 -0.008786 0.022693 0.000000 0.000000 0.000000
# 4 0.000000 0.000000 0.000000 -0.100084 0.000000 0.000000
# 5 0.000000 0.000000 0.000000 0.000000 0.134167 0.000000
# 6 0.000000 0.000000 0.000000 0.000000 0.000000 0.031799
#
#
# Mechanical properties :
#
#
# Convention : Reuss Voigt Hill
#
# Bulk Modulus (GPa) = 60.39230 66.33611 63.36420
# Shear Modulus (GPa) = 32.04480 15.56900 23.80690
#
# Velocity S-wave (km/s) = 4.15087 2.89328 3.57776
# Velocity P-wave (km/s) = 7.44610 6.84315 7.15098
#
# Compressibility (1/GPa) = 0.01655840
#
# Stress axis : x y z
#
# Youngs Moduli (GPa) = 69.94264 73.50960 44.06616
#
# Poissons Ratio (x) = 0.28599 0.19129
# Poissons Ratio (y) = 0.27212 0.38718
# Poissons Ratio (z) = 0.30362 0.64588
#
# Static dielectric constant tensor:
#      x y z
#    x 3.495030 0.000000 0.000000 
#    y 0.000000 3.650370 0.000000 
#    z 0.000000 0.000000 3.060980 
# 
# 
# High freq. dielectric constant tensor:
#      x y z
#    x 1.721700 0.000000 0.000000 
#    y 0.000000 1.731240 0.000000 
#    z 0.000000 0.000000 1.688810 
# 
# From -- ./inp_files/50392.got.cif
#   From: 2010.03.12/outbox.cif.g09.slc.cpg/sg65_26_cif.got.tgz:50392.got - 2010.04.10 20:52:16.
