data_PCOD8269916
_publ_section_title
;
Structure prediction by ZEFSAII (Michael W. Deem and Ramdas Pophale) SiO2 
 PCOD8269916
Probable space group: C M M M
;
_chemical_formula_sum "Si O2"
_cell_formula_units_Z 88
_cell_length_a 20.649415
_cell_length_b 17.472349
_cell_length_c 16.811210
_cell_angle_alpha 90.000000
_cell_angle_beta 90.000000
_cell_angle_gamma 90.000000
_cell_volume 6065.380095
_symmetry_space_group_name_H-M "C M M M"
_symmetry_group_IT_number 65
_symmetry_cell_setting 'orthorhombic'
loop_
_space_group_symop_operation_xyz
x,y,z
-x,-y,z
x,-y,-z
-x,y,-z
-x,-y,-z
x,y,-z
-x,y,z
x,-y,z
1/2+x,1/2+y,z
1/2-x,1/2-y,z
1/2+x,1/2-y,-z
1/2-x,1/2+y,-z
1/2-x,1/2-y,-z
1/2+x,1/2+y,-z
1/2-x,1/2+y,z
1/2+x,1/2-y,z
loop_
_atom_site_type_symbol
_atom_site_label
_atom_site_fract_x
_atom_site_fract_y
_atom_site_fract_z
Si Si1 0.924531 0.911675 0.000000
Si Si2 0.875435 0.842151 0.672309
Si Si3 0.124324 0.681195 0.592901
Si Si4 0.500000 0.410915 0.591142
Si Si5 0.246106 0.088240 0.590326
Si Si6 0.000000 0.414549 0.406070
Si Si7 0.923163 0.910009 0.827667
O O1 0.898414 0.879957 0.084842
O O2 0.000000 0.897348 0.000000
O O3 0.908200 0.000000 0.000000
O O4 0.871401 0.753374 0.650818
O O5 0.809725 0.883738 0.648126
O O6 0.884841 0.856378 0.766087
O O7 0.935821 0.877592 0.627781
O O8 0.117880 0.705696 0.500000
O O9 0.188478 0.633096 0.607880
O O10 0.063495 0.631076 0.621607
O O11 0.500000 0.500000 0.607433
O O12 0.500000 0.388280 0.500000
O O13 0.222822 0.102366 0.500000
O O14 0.261068 0.000000 0.606269
O O15 0.000000 0.500000 0.368345
O O16 0.000000 0.422501 0.500000
O O17 0.000000 0.898086 0.817438
O O18 0.906898 0.000000 0.814769
#
# Coordination Sequence:
#
# PCOD8269916 Si02
#       7
#     8  16  16   8  16   8  16
#     4   7  12  24  42  60  81 112 146 177 208 245
#     4  12  20  28  42  63  90 117 143 177 219 260
#     4  10  20  32  45  62  84 112 148 189 228 259
#     4  11  21  29  37  54  85 122 152 171 195 243
#     4  10  20  33  46  59  80 115 157 192 219 254
#     4   9  17  31  49  63  76 104 149 194 229 257
#     4   9  16  27  42  62  88 117 147 176 208 254
#
# _framework density 14.508571
#
# number of rings (size 3 to 8) (size 9 to 14) (size 15 to 20)
#    0.000    2.091    0.909    6.000    0.000    5.818 
#    0.000    0.000    0.000    0.000    0.000    2.545 
#    0.000    0.000    0.000    3.273    0.000    0.000 
#
# Total GULP energy -545365.308637 kJ/mol
# GULP energy per Si atom -12394.666105 kJ/mol
# Density = 1.447555 g / cm^3
# Si number density = 14.508571 Si / 1000 Ang^3
#
#
#
# Elastic Constant Matrix: (Units=GPa)
#
#
# Indices 1 2 3 4 5 6 
#
# 1 89.7959 40.0903 45.5396 0.0000 0.0000 0.0000
# 2 40.0903 100.7948 50.0768 0.0000 0.0000 0.0000
# 3 45.5396 50.0768 118.3864 0.0000 0.0000 0.0000
# 4 0.0000 0.0000 0.0000 16.7321 0.0000 0.0000
# 5 0.0000 0.0000 0.0000 0.0000 -15.2786 0.0000
# 6 0.0000 0.0000 0.0000 0.0000 0.0000 22.9078
#
#
#
# Elastic Compliance Matrix: (Units=1/GPa)
#
#
# Indices 1 2 3 4 5 6 
#
# 1 0.014963 -0.003915 -0.004100 0.000000 0.000000 0.000000
# 2 -0.003915 0.013585 -0.004241 0.000000 0.000000 0.000000
# 3 -0.004100 -0.004241 0.011818 0.000000 0.000000 0.000000
# 4 0.000000 0.000000 0.000000 0.059765 0.000000 0.000000
# 5 0.000000 0.000000 0.000000 0.000000 -0.065451 0.000000
# 6 0.000000 0.000000 0.000000 0.000000 0.000000 0.043653
#
#
# Mechanical properties :
#
#
# Convention : Reuss Voigt Hill
#
# Bulk Modulus (GPa) = 63.06870 64.48784 63.77827
# Shear Modulus (GPa) = 46.24080 16.42362 31.33221
#
# Velocity S-wave (km/s) = 5.65160 3.36816 4.65215
# Velocity P-wave (km/s) = 9.28180 7.72468 8.53880
#
# Compressibility (1/GPa) = 0.01585572
#
# Stress axis : x y z
#
# Youngs Moduli (GPa) = 66.82963 73.61113 84.61793
#
# Poissons Ratio (x) = 0.28815 0.34694
# Poissons Ratio (y) = 0.26161 0.35883
# Poissons Ratio (z) = 0.27401 0.31215
#
# Static dielectric constant tensor:
#      x y z
#    x 2.761230 0.000000 0.000000 
#    y 0.000000 2.879940 0.000000 
#    z 0.000000 0.000000 2.972460 
# 
# 
# High freq. dielectric constant tensor:
#      x y z
#    x 1.550160 0.000000 0.000000 
#    y 0.000000 1.547920 0.000000 
#    z 0.000000 0.000000 1.529370 
# 
# From -- ./inp_files/53261.got.cif
#   From: 2010.03.12/outbox.cif.g09.slc.cpg/sg65_27_cif.got.tgz:53261.got - 2010.04.10 20:52:16.
