data_PCOD8269327
_publ_section_title
;
Structure prediction by ZEFSAII (Michael W. Deem and Ramdas Pophale) SiO2 
 PCOD8269327
Probable space group: C M M M
;
_chemical_formula_sum "Si O2"
_cell_formula_units_Z 104
_cell_length_a 8.853642
_cell_length_b 28.812227
_cell_length_c 23.396195
_cell_angle_alpha 90.000000
_cell_angle_beta 90.000000
_cell_angle_gamma 90.000000
_cell_volume 5968.208919
_symmetry_space_group_name_H-M "C M M M"
_symmetry_group_IT_number 65
_symmetry_cell_setting 'orthorhombic'
loop_
_space_group_symop_operation_xyz
x,y,z
-x,-y,z
x,-y,-z
-x,y,-z
-x,-y,-z
x,y,-z
-x,y,z
x,-y,z
1/2+x,1/2+y,z
1/2-x,1/2-y,z
1/2+x,1/2-y,-z
1/2-x,1/2+y,-z
1/2-x,1/2-y,-z
1/2+x,1/2+y,-z
1/2-x,1/2+y,z
1/2+x,1/2-y,z
loop_
_atom_site_type_symbol
_atom_site_label
_atom_site_fract_x
_atom_site_fract_y
_atom_site_fract_z
Si Si1 0.179397 0.391563 0.936947
Si Si2 0.323641 0.945018 0.376356
Si Si3 0.322407 0.797492 0.247345
Si Si4 0.322056 0.391009 0.274807
Si Si5 0.323171 0.796767 0.884989
Si Si6 0.173904 0.445737 0.500000
Si Si7 0.178032 0.446527 0.171962
O O1 0.241826 0.340881 0.919297
O O2 0.231185 0.430015 0.891002
O O3 0.000000 0.389476 0.937931
O O4 0.242015 0.404749 0.000000
O O5 0.500000 0.932333 0.367453
O O6 0.220735 0.920438 0.330058
O O7 0.262401 0.927200 0.439072
O O8 0.302454 0.000000 0.370139
O O9 0.500000 0.796116 0.257851
O O10 0.250000 0.750000 0.271062
O O11 0.251863 0.840447 0.281475
O O12 0.279977 0.803897 0.181027
O O13 0.500000 0.385663 0.270495
O O14 0.263335 0.416569 0.218580
O O15 0.500000 0.791968 0.893218
O O16 0.250000 0.750000 0.909914
O O17 0.198981 0.500000 0.500000
O O18 0.000000 0.433162 0.500000
O O19 0.222530 0.500000 0.179143
O O20 0.000000 0.438410 0.180466
#
# Coordination Sequence:
#
# PCOD8269327 Si02
#       7
#    16  16  16  16  16   8  16
#     4   9  17  31  50  72  96 122 158 206 257 309
#     4   9  17  31  52  77 106 141 178 215 254 297
#     4  10  19  34  54  76 102 130 164 205 254 306
#     4  12  23  33  49  75 106 138 172 209 252 299
#     4   9  17  30  49  71  96 122 151 192 245 303
#     4   7  12  26  49  75 102 135 176 215 251 295
#     4  10  20  35  53  71  94 128 169 214 263 308
#
# _framework density 17.425663
#
# number of rings (size 3 to 8) (size 9 to 14) (size 15 to 20)
#    0.000    2.385    1.538    3.231    0.000    3.692 
#    0.000    1.923    0.000    2.769    0.000    1.615 
#    0.000    0.000    0.000    0.000    0.000    0.000 
#
# Total GULP energy -644547.654581 kJ/mol
# GULP energy per Si atom -12395.147203 kJ/mol
# Density = 1.738600 g / cm^3
# Si number density = 17.425663 Si / 1000 Ang^3
#
#
#
# Elastic Constant Matrix: (Units=GPa)
#
#
# Indices 1 2 3 4 5 6 
#
# 1 54.1217 39.6775 29.0697 0.0000 0.0000 0.0000
# 2 39.6775 100.7862 41.6346 0.0000 0.0000 0.0000
# 3 29.0697 41.6346 101.1005 0.0000 0.0000 0.0000
# 4 0.0000 0.0000 0.0000 7.1557 0.0000 0.0000
# 5 0.0000 0.0000 0.0000 0.0000 7.4106 0.0000
# 6 0.0000 0.0000 0.0000 0.0000 0.0000 26.2092
#
#
#
# Elastic Compliance Matrix: (Units=1/GPa)
#
#
# Indices 1 2 3 4 5 6 
#
# 1 0.027333 -0.009054 -0.004131 0.000000 0.000000 0.000000
# 2 -0.009054 0.014955 -0.003555 0.000000 0.000000 0.000000
# 3 -0.004131 -0.003555 0.012543 0.000000 0.000000 0.000000
# 4 0.000000 0.000000 0.000000 0.139748 0.000000 0.000000
# 5 0.000000 0.000000 0.000000 0.000000 0.134942 0.000000
# 6 0.000000 0.000000 0.000000 0.000000 0.000000 0.038155
#
#
# Mechanical properties :
#
#
# Convention : Reuss Voigt Hill
#
# Bulk Modulus (GPa) = 46.83596 52.97469 49.90532
# Shear Modulus (GPa) = 12.24669 17.86354 15.05511
#
# Velocity S-wave (km/s) = 2.65391 3.20524 2.94251
# Velocity P-wave (km/s) = 6.02718 6.64563 6.34395
#
# Compressibility (1/GPa) = 0.02135112
#
# Stress axis : x y z
#
# Youngs Moduli (GPa) = 36.58539 66.86644 79.72594
#
# Poissons Ratio (x) = 0.60543 0.32931
# Poissons Ratio (y) = 0.33125 0.28345
# Poissons Ratio (z) = 0.15112 0.23773
#
# Static dielectric constant tensor:
#      x y z
#    x 2.999770 0.000000 0.000000 
#    y 0.000000 3.324410 0.000000 
#    z 0.000000 0.000000 3.467650 
# 
# 
# High freq. dielectric constant tensor:
#      x y z
#    x 1.647160 0.000000 0.000000 
#    y 0.000000 1.667930 0.000000 
#    z 0.000000 0.000000 1.666260 
# 
# From -- ./inp_files/68263.got.cif
#   From: 2010.03.12/outbox.cif.g09.slc.cpg/sg65_35_cif.got.tgz:68263.got - 2010.04.10 20:52:16.
