data_PCOD8269963
_publ_section_title
;
Structure prediction by ZEFSAII (Michael W. Deem and Ramdas Pophale) SiO2 
 PCOD8269963
Probable space group: C M M M
;
_chemical_formula_sum "Si O2"
_cell_formula_units_Z 88
_cell_length_a 26.899568
_cell_length_b 9.166194
_cell_length_c 21.674739
_cell_angle_alpha 90.000000
_cell_angle_beta 90.000000
_cell_angle_gamma 90.000000
_cell_volume 5344.267976
_symmetry_space_group_name_H-M "C M M M"
_symmetry_group_IT_number 65
_symmetry_cell_setting 'orthorhombic'
loop_
_space_group_symop_operation_xyz
x,y,z
-x,-y,z
x,-y,-z
-x,y,-z
-x,-y,-z
x,y,-z
-x,y,z
x,-y,z
1/2+x,1/2+y,z
1/2-x,1/2-y,z
1/2+x,1/2-y,-z
1/2-x,1/2+y,-z
1/2-x,1/2-y,-z
1/2+x,1/2+y,-z
1/2-x,1/2+y,z
1/2+x,1/2-y,z
loop_
_atom_site_type_symbol
_atom_site_label
_atom_site_fract_x
_atom_site_fract_y
_atom_site_fract_z
Si Si1 0.399718 0.829349 0.748579
Si Si2 0.299318 0.167409 0.815630
Si Si3 0.056957 0.832252 0.861898
Si Si4 0.442348 0.669350 0.500000
Si Si5 0.058444 0.172192 0.633610
Si Si6 0.361468 0.169603 0.930248
O O1 0.342295 0.801042 0.765865
O O2 0.435280 0.751478 0.797729
O O3 0.409152 0.762112 0.681799
O O4 0.412425 0.000000 0.748572
O O5 0.250000 0.250000 0.795327
O O6 0.317918 0.218851 0.883500
O O7 0.284674 0.000000 0.817533
O O8 0.089069 0.761574 0.916667
O O9 0.000000 0.818645 0.882125
O O10 0.072692 0.000000 0.852615
O O11 0.431671 0.500000 0.500000
O O12 0.500000 0.702114 0.500000
O O13 0.422034 0.729009 0.434191
O O14 0.000000 0.205591 0.642367
O O15 0.067996 0.000000 0.641898
O O16 0.374381 0.000000 0.918747
O O17 0.343656 0.199150 0.000000
#
# Coordination Sequence:
#
# PCOD8269963 Si02
#       6
#    16  16  16   8  16  16
#     4  10  20  32  46  67  94 121 151 188 230 274
#     4   9  19  34  50  68  89 113 144 185 231 277
#     4  10  20  32  46  66  92 121 155 192 223 256
#     4   7  12  24  41  63  94 129 160 189 218 251
#     4   9  16  27  45  69  97 129 162 190 217 255
#     4   9  19  35  51  68  92 119 146 178 222 278
#
# _framework density 16.466241
#
# number of rings (size 3 to 8) (size 9 to 14) (size 15 to 20)
#    0.000    2.818    0.000    3.818    0.000    8.727 
#    0.000    2.273    0.000    1.636    0.000    0.636 
#    0.000    0.000    0.000    0.000    0.000    0.000 
#
# Total GULP energy -545358.923669 kJ/mol
# GULP energy per Si atom -12394.520992 kJ/mol
# Density = 1.642876 g / cm^3
# Si number density = 16.466241 Si / 1000 Ang^3
#
#
#
# Elastic Constant Matrix: (Units=GPa)
#
#
# Indices 1 2 3 4 5 6 
#
# 1 73.3253 40.0313 33.2693 0.0000 0.0000 0.0000
# 2 40.0313 72.6846 40.2157 0.0000 0.0000 0.0000
# 3 33.2693 40.2157 123.1094 0.0000 0.0000 0.0000
# 4 0.0000 0.0000 0.0000 25.6754 0.0000 0.0000
# 5 0.0000 0.0000 0.0000 0.0000 14.5483 0.0000
# 6 0.0000 0.0000 0.0000 0.0000 0.0000 27.4282
#
#
#
# Elastic Compliance Matrix: (Units=1/GPa)
#
#
# Indices 1 2 3 4 5 6 
#
# 1 0.019979 -0.009785 -0.002203 0.000000 0.000000 0.000000
# 2 -0.009785 0.021585 -0.004407 0.000000 0.000000 0.000000
# 3 -0.002203 -0.004407 0.010158 0.000000 0.000000 0.000000
# 4 0.000000 0.000000 0.000000 0.038948 0.000000 0.000000
# 5 0.000000 0.000000 0.000000 0.000000 0.068737 0.000000
# 6 0.000000 0.000000 0.000000 0.000000 0.000000 0.036459
#
#
# Mechanical properties :
#
#
# Convention : Reuss Voigt Hill
#
# Bulk Modulus (GPa) = 52.81738 55.12799 53.97269
# Shear Modulus (GPa) = 21.27964 23.90389 22.59176
#
# Velocity S-wave (km/s) = 3.59878 3.81424 3.70808
# Velocity P-wave (km/s) = 7.02952 7.27667 7.15416
#
# Compressibility (1/GPa) = 0.01893316
#
# Stress axis : x y z
#
# Youngs Moduli (GPa) = 50.05180 46.32750 98.44689
#
# Poissons Ratio (x) = 0.45331 0.21686
# Poissons Ratio (y) = 0.48975 0.43385
# Poissons Ratio (z) = 0.11026 0.20416
#
# Static dielectric constant tensor:
#      x y z
#    x 2.824820 0.000000 0.000000 
#    y 0.000000 3.074330 0.000000 
#    z 0.000000 0.000000 3.319160 
# 
# 
# High freq. dielectric constant tensor:
#      x y z
#    x 1.604520 0.000000 0.000000 
#    y 0.000000 1.631520 0.000000 
#    z 0.000000 0.000000 1.636670 
# 
# From -- ./inp_files/60265.got.cif
#   From: 2010.03.12/outbox.cif.g09.slc.cpg/sg65_31_cif.got.tgz:60265.got - 2010.04.10 20:52:16.
