data_PCOD8269429
_publ_section_title
;
Structure prediction by ZEFSAII (Michael W. Deem and Ramdas Pophale) SiO2 
 PCOD8269429
Probable space group: C M M M
;
_chemical_formula_sum "Si O2"
_cell_formula_units_Z 64
_cell_length_a 8.035729
_cell_length_b 17.987315
_cell_length_c 22.076060
_cell_angle_alpha 90.000000
_cell_angle_beta 90.000000
_cell_angle_gamma 90.000000
_cell_volume 3190.899956
_symmetry_space_group_name_H-M "C M M M"
_symmetry_group_IT_number 65
_symmetry_cell_setting 'orthorhombic'
loop_
_space_group_symop_operation_xyz
x,y,z
-x,-y,z
x,-y,-z
-x,y,-z
-x,-y,-z
x,y,-z
-x,y,z
x,-y,z
1/2+x,1/2+y,z
1/2-x,1/2-y,z
1/2+x,1/2-y,-z
1/2-x,1/2+y,-z
1/2-x,1/2-y,-z
1/2+x,1/2+y,-z
1/2-x,1/2+y,z
1/2+x,1/2-y,z
loop_
_atom_site_type_symbol
_atom_site_label
_atom_site_fract_x
_atom_site_fract_y
_atom_site_fract_z
Si Si1 0.183967 0.588363 0.357501
Si Si2 0.189485 0.087916 0.000000
Si Si3 0.309083 0.167977 0.883058
Si Si4 0.690272 0.416649 0.230611
Si Si5 0.000000 0.911252 0.568716
O O1 0.194987 0.500000 0.359505
O O2 0.206736 0.614408 0.287895
O O3 0.332076 0.620825 0.399503
O O4 0.000000 0.615130 0.379791
O O5 0.282816 0.116510 0.940925
O O6 0.000000 0.117010 0.000000
O O7 0.196745 0.000000 0.000000
O O8 0.500000 0.167717 0.864257
O O9 0.250000 0.250000 0.899934
O O10 0.206872 0.137302 0.826318
O O11 0.500000 0.418763 0.251652
O O12 0.749937 0.500000 0.212503
O O13 0.000000 0.882450 0.500000
O O14 0.000000 0.000000 0.571509
#
# Coordination Sequence:
#
# PCOD8269429 Si02
#       5
#    16   8  16  16   8
#     4   9  16  27  44  68  99 139 184 227 276 333
#     4  11  24  43  64  85 111 145 186 227 276 337
#     4  12  25  40  58  82 113 147 183 232 283 336
#     4  10  19  34  56  80 108 144 185 231 282 337
#     4   9  16  26  40  64 102 143 181 225 277 333
#
# _framework density 20.057039
#
# number of rings (size 3 to 8) (size 9 to 14) (size 15 to 20)
#    0.000    1.750    1.250    4.500    0.000    6.000 
#    0.000    2.500    0.000    0.000    0.000    0.000 
#    0.000    1.000    0.500    0.000    0.000    0.000 
#
# Total GULP energy -396817.220843 kJ/mol
# GULP energy per Si atom -12400.538151 kJ/mol
# Density = 2.001139 g / cm^3
# Si number density = 20.057039 Si / 1000 Ang^3
#
#
#
# Elastic Constant Matrix: (Units=GPa)
#
#
# Indices 1 2 3 4 5 6 
#
# 1 135.3103 14.9807 54.6345 0.0000 0.0000 0.0000
# 2 14.9807 46.9985 21.3794 0.0000 0.0000 0.0000
# 3 54.6345 21.3794 132.7510 0.0000 0.0000 0.0000
# 4 0.0000 0.0000 0.0000 3.0586 0.0000 0.0000
# 5 0.0000 0.0000 0.0000 0.0000 13.4758 0.0000
# 6 0.0000 0.0000 0.0000 0.0000 0.0000 19.2408
#
#
#
# Elastic Compliance Matrix: (Units=1/GPa)
#
#
# Indices 1 2 3 4 5 6 
#
# 1 0.008933 -0.001268 -0.003472 0.000000 0.000000 0.000000
# 2 -0.001268 0.023139 -0.003205 0.000000 0.000000 0.000000
# 3 -0.003472 -0.003205 0.009478 0.000000 0.000000 0.000000
# 4 0.000000 0.000000 0.000000 0.326946 0.000000 0.000000
# 5 0.000000 0.000000 0.000000 0.000000 0.074207 0.000000
# 6 0.000000 0.000000 0.000000 0.000000 0.000000 0.051973
#
#
# Mechanical properties :
#
#
# Convention : Reuss Voigt Hill
#
# Bulk Modulus (GPa) = 38.97039 55.22767 47.09903
# Shear Modulus (GPa) = 9.63171 22.09272 15.86221
#
# Velocity S-wave (km/s) = 2.19376 3.32248 2.81527
# Velocity P-wave (km/s) = 5.08810 6.50489 5.83962
#
# Compressibility (1/GPa) = 0.02566051
#
# Stress axis : x y z
#
# Youngs Moduli (GPa) = 111.94776 43.21661 105.50740
#
# Poissons Ratio (x) = 0.05479 0.36634
# Poissons Ratio (y) = 0.14193 0.33813
# Poissons Ratio (z) = 0.38870 0.13850
#
# Static dielectric constant tensor:
#      x y z
#    x 3.966060 0.000000 0.000000 
#    y 0.000000 3.212840 0.000000 
#    z 0.000000 0.000000 3.629260 
# 
# 
# High freq. dielectric constant tensor:
#      x y z
#    x 1.802540 0.000000 0.000000 
#    y 0.000000 1.730550 0.000000 
#    z 0.000000 0.000000 1.784130 
# 
# From -- ./inp_files/58774.got.cif
#   From: 2010.03.12/outbox.cif.g09.slc.cpg/sg65_30_cif.got.tgz:58774.got - 2010.04.10 20:52:16.
