data_PCOD8269251
_publ_section_title
;
Structure prediction by ZEFSAII (Michael W. Deem and Ramdas Pophale) SiO2 
 PCOD8269251
Probable space group: C M M M
;
_chemical_formula_sum "Si O2"
_cell_formula_units_Z 112
_cell_length_a 24.754318
_cell_length_b 15.396662
_cell_length_c 14.162044
_cell_angle_alpha 90.000000
_cell_angle_beta 90.000000
_cell_angle_gamma 90.000000
_cell_volume 5397.634598
_symmetry_space_group_name_H-M "C M M M"
_symmetry_group_IT_number 65
_symmetry_cell_setting 'orthorhombic'
loop_
_space_group_symop_operation_xyz
x,y,z
-x,-y,z
x,-y,-z
-x,y,-z
-x,-y,-z
x,y,-z
-x,y,z
x,-y,z
1/2+x,1/2+y,z
1/2-x,1/2-y,z
1/2+x,1/2-y,-z
1/2-x,1/2+y,-z
1/2-x,1/2-y,-z
1/2+x,1/2+y,-z
1/2-x,1/2+y,z
1/2+x,1/2-y,z
loop_
_atom_site_type_symbol
_atom_site_label
_atom_site_fract_x
_atom_site_fract_y
_atom_site_fract_z
Si Si1 0.935888 0.904620 0.105497
Si Si2 0.640506 0.094479 0.157221
Si Si3 0.375668 0.258689 0.604244
Si Si4 0.745480 0.348897 0.895098
Si Si5 0.304578 0.597175 0.704945
Si Si6 0.813333 0.405569 0.363623
Si Si7 0.436806 0.238056 0.785264
O O1 0.915179 0.831663 0.178033
O O2 0.000000 0.904726 0.104629
O O3 0.915017 0.000000 0.138813
O O4 0.914546 0.884329 0.000000
O O5 0.693775 0.114334 0.096691
O O6 0.658666 0.091467 0.263857
O O7 0.593551 0.166474 0.150061
O O8 0.617522 0.000000 0.125838
O O9 0.395499 0.291282 0.500000
O O10 0.345511 0.333390 0.662458
O O11 0.338500 0.175125 0.580664
O O12 0.425152 0.231015 0.672757
O O13 0.750000 0.250000 0.862588
O O14 0.706990 0.393979 0.817678
O O15 0.719459 0.359119 0.000000
O O16 0.327231 0.500000 0.688202
O O17 0.249982 0.611567 0.646679
O O18 0.822718 0.500000 0.413637
O O19 0.500000 0.224757 0.802461
#
# Coordination Sequence:
#
# PCOD8269251 Si02
#       7
#    16  16  16  16  16  16  16
#     4   8  15  31  56  81 100 122 161 218 282 338
#     4   9  18  33  53  79 114 153 188 224 272 332
#     4  11  23  37  54  77 108 145 187 238 289 334
#     4  10  19  33  57  87 120 156 189 225 275 335
#     4  10  20  35  55  80 113 149 184 223 272 339
#     4   8  16  33  56  79 103 134 173 220 276 337
#     4  10  21  37  57  80 108 145 191 240 286 337
#
# _framework density 20.749829999999999
#
# number of rings (size 3 to 8) (size 9 to 14) (size 15 to 20)
#    0.000    2.571    0.000    4.714    0.000    4.571 
#    0.000    2.143    0.000    0.000    0.000   10.000 
#    0.000    0.000    0.000    0.000    0.000    0.000 
#
# Total GULP energy -693837.408573 kJ/mol
# GULP energy per Si atom -12389.953725 kJ/mol
# Density = 2.070260 g / cm^3
# Si number density = 20.749830 Si / 1000 Ang^3
#
#
#
# Elastic Constant Matrix: (Units=GPa)
#
#
# Indices 1 2 3 4 5 6 
#
# 1 35.4036 28.8362 4.6117 0.0000 0.0000 0.0000
# 2 28.8362 142.8273 25.7468 0.0000 0.0000 0.0000
# 3 4.6117 25.7468 90.5074 0.0000 0.0000 0.0000
# 4 0.0000 0.0000 0.0000 -26.2954 0.0000 0.0000
# 5 0.0000 0.0000 0.0000 0.0000 23.0533 0.0000
# 6 0.0000 0.0000 0.0000 0.0000 0.0000 26.6915
#
#
#
# Elastic Compliance Matrix: (Units=1/GPa)
#
#
# Indices 1 2 3 4 5 6 
#
# 1 0.033809 -0.006868 0.000231 0.000000 0.000000 0.000000
# 2 -0.006868 0.008775 -0.002146 0.000000 0.000000 0.000000
# 3 0.000231 -0.002146 0.011648 0.000000 0.000000 0.000000
# 4 0.000000 0.000000 0.000000 -0.038030 0.000000 0.000000
# 5 0.000000 0.000000 0.000000 0.000000 0.043378 0.000000
# 6 0.000000 0.000000 0.000000 0.000000 0.000000 0.037465
#
#
# Mechanical properties :
#
#
# Convention : Reuss Voigt Hill
#
# Bulk Modulus (GPa) = 27.27329 43.01420 35.14374
# Shear Modulus (GPa) = 39.42189 18.65945 29.04067
#
# Velocity S-wave (km/s) = 4.36347 3.00202 3.74513
# Velocity P-wave (km/s) = 6.20958 5.72635 5.97285
#
# Compressibility (1/GPa) = 0.03666592
#
# Stress axis : x y z
#
# Youngs Moduli (GPa) = 29.57764 113.96140 85.85454
#
# Poissons Ratio (x) = 0.78264 -0.01982
# Poissons Ratio (y) = 0.20313 0.18427
# Poissons Ratio (z) = -0.00683 0.24459
#
# Static dielectric constant tensor:
#      x y z
#    x 3.435300 0.000000 0.000000 
#    y 0.000000 4.652630 0.000000 
#    z 0.000000 0.000000 3.691890 
# 
# 
# High freq. dielectric constant tensor:
#      x y z
#    x 1.776760 0.000000 0.000000 
#    y 0.000000 1.827480 0.000000 
#    z 0.000000 0.000000 1.805240 
# 
# From -- ./inp_files/45762.got.cif
#   From: 2010.03.12/outbox.cif.g09.slc.cpg/sg65_23_cif.got.tgz:45762.got - 2010.04.10 20:52:16.
