data_PCOD8269289
_publ_section_title
;
Structure prediction by ZEFSAII (Michael W. Deem and Ramdas Pophale) SiO2 
 PCOD8269289
Probable space group: C M M M
;
_chemical_formula_sum "Si O2"
_cell_formula_units_Z 104
_cell_length_a 18.575916
_cell_length_b 13.926748
_cell_length_c 23.501930
_cell_angle_alpha 90.000000
_cell_angle_beta 90.000000
_cell_angle_gamma 90.000000
_cell_volume 6079.998669
_symmetry_space_group_name_H-M "C M M M"
_symmetry_group_IT_number 65
_symmetry_cell_setting 'orthorhombic'
loop_
_space_group_symop_operation_xyz
x,y,z
-x,-y,z
x,-y,-z
-x,y,-z
-x,-y,-z
x,y,-z
-x,y,z
x,-y,z
1/2+x,1/2+y,z
1/2-x,1/2-y,z
1/2+x,1/2-y,-z
1/2-x,1/2+y,-z
1/2-x,1/2-y,-z
1/2+x,1/2+y,-z
1/2-x,1/2+y,z
1/2+x,1/2-y,z
loop_
_atom_site_type_symbol
_atom_site_label
_atom_site_fract_x
_atom_site_fract_y
_atom_site_fract_z
Si Si1 0.167267 0.727334 0.220743
Si Si2 0.081525 0.385590 0.000000
Si Si3 0.419299 0.886182 0.560058
Si Si4 0.324860 0.886144 0.893455
Si Si5 0.085114 0.387551 0.316288
Si Si6 0.582781 0.388625 0.831859
Si Si7 0.828293 0.887318 0.937701
O O1 0.250000 0.750000 0.233236
O O2 0.153052 0.663524 0.165018
O O3 0.132829 0.672134 0.273116
O O4 0.127426 0.829170 0.214254
O O5 0.121825 0.349420 0.943106
O O6 0.083188 0.500000 0.000000
O O7 0.000000 0.346292 0.000000
O O8 0.380276 0.852855 0.500000
O O9 0.500000 0.845618 0.557838
O O10 0.386168 0.853562 0.620699
O O11 0.421949 0.000000 0.561657
O O12 0.245434 0.849273 0.909973
O O13 0.328820 0.000000 0.884871
O O14 0.099561 0.500000 0.306207
O O15 0.000000 0.365774 0.308965
O O16 0.500000 0.362294 0.825600
O O17 0.598704 0.500000 0.819742
O O18 0.606470 0.360606 0.896002
O O19 0.820391 0.000000 0.945708
O O20 0.842016 0.840405 0.000000
#
# Coordination Sequence:
#
# PCOD8269289 Si02
#       7
#    16   8  16  16  16  16  16
#     4  12  23  34  51  73  99 132 169 202 241 296
#     4   9  18  32  51  74 100 128 155 191 244 308
#     4   7  10  20  42  72 104 135 162 189 229 282
#     4  10  19  34  53  72  96 125 157 196 242 300
#     4   9  18  32  51  78 109 134 160 200 245 290
#     4  10  22  39  54  69  92 122 162 211 254 291
#     4   9  16  31  55  73  87 114 151 197 253 304
#
# _framework density 17.105267000000001
#
# number of rings (size 3 to 8) (size 9 to 14) (size 15 to 20)
#    0.000    2.538    2.308    2.308    0.000    2.154 
#    1.385    4.231    0.000    0.462    0.000    0.000 
#    0.000    0.615    0.000    5.692    0.000    0.308 
#
# Total GULP energy -644327.212495 kJ/mol
# GULP energy per Si atom -12390.907933 kJ/mol
# Density = 1.706633 g / cm^3
# Si number density = 17.105267 Si / 1000 Ang^3
#
#
#
# Elastic Constant Matrix: (Units=GPa)
#
#
# Indices 1 2 3 4 5 6 
#
# 1 105.4158 39.0226 61.8251 0.0000 0.0000 0.0000
# 2 39.0226 53.7867 50.7491 0.0000 0.0000 0.0000
# 3 61.8251 50.7491 166.2517 0.0000 0.0000 0.0000
# 4 0.0000 0.0000 0.0000 11.9234 0.0000 0.0000
# 5 0.0000 0.0000 0.0000 0.0000 17.6985 0.0000
# 6 0.0000 0.0000 0.0000 0.0000 0.0000 15.9968
#
#
#
# Elastic Compliance Matrix: (Units=1/GPa)
#
#
# Indices 1 2 3 4 5 6 
#
# 1 0.013923 -0.007326 -0.002941 0.000000 0.000000 0.000000
# 2 -0.007326 0.029968 -0.006423 0.000000 0.000000 0.000000
# 3 -0.002941 -0.006423 0.009070 0.000000 0.000000 0.000000
# 4 0.000000 0.000000 0.000000 0.083869 0.000000 0.000000
# 5 0.000000 0.000000 0.000000 0.000000 0.056502 0.000000
# 6 0.000000 0.000000 0.000000 0.000000 0.000000 0.062513
#
#
# Mechanical properties :
#
#
# Convention : Reuss Voigt Hill
#
# Bulk Modulus (GPa) = 51.07576 69.84978 60.46277
# Shear Modulus (GPa) = 16.90605 20.71422 18.81013
#
# Velocity S-wave (km/s) = 3.14722 3.48370 3.31972
# Velocity P-wave (km/s) = 6.56743 7.55681 7.07943
#
# Compressibility (1/GPa) = 0.01957876
#
# Stress axis : x y z
#
# Youngs Moduli (GPa) = 71.82180 33.36918 110.25866
#
# Poissons Ratio (x) = 0.24447 0.32432
# Poissons Ratio (y) = 0.52618 0.70823
# Poissons Ratio (z) = 0.21126 0.21434
#
# Static dielectric constant tensor:
#      x y z
#    x 3.072360 0.000000 0.000000 
#    y 0.000000 3.034050 0.000000 
#    z 0.000000 0.000000 3.527470 
# 
# 
# High freq. dielectric constant tensor:
#      x y z
#    x 1.640110 0.000000 0.000000 
#    y 0.000000 1.644420 0.000000 
#    z 0.000000 0.000000 1.656200 
# 
# From -- ./inp_files/70538.got.cif
#   From: 2010.03.12/outbox.cif.g09.slc.cpg/sg65_36_cif.got.tgz:70538.got - 2010.04.10 20:52:16.
