data_PCOD8269250
_publ_section_title
;
Structure prediction by ZEFSAII (Michael W. Deem and Ramdas Pophale) SiO2 
 PCOD8269250
Probable space group: C M M M
;
_chemical_formula_sum "Si O2"
_cell_formula_units_Z 56
_cell_length_a 9.647599
_cell_length_b 17.220057
_cell_length_c 16.771083
_cell_angle_alpha 90.000000
_cell_angle_beta 90.000000
_cell_angle_gamma 90.000000
_cell_volume 2786.216994
_symmetry_space_group_name_H-M "C M M M"
_symmetry_group_IT_number 65
_symmetry_cell_setting 'orthorhombic'
loop_
_space_group_symop_operation_xyz
x,y,z
-x,-y,z
x,-y,-z
-x,y,-z
-x,-y,-z
x,y,-z
-x,y,z
x,-y,z
1/2+x,1/2+y,z
1/2-x,1/2-y,z
1/2+x,1/2-y,-z
1/2-x,1/2+y,-z
1/2-x,1/2-y,-z
1/2+x,1/2+y,-z
1/2-x,1/2+y,z
1/2+x,1/2-y,z
loop_
_atom_site_type_symbol
_atom_site_label
_atom_site_fract_x
_atom_site_fract_y
_atom_site_fract_z
Si Si1 0.828633 0.331367 0.000000
Si Si2 0.659420 0.591383 0.138605
Si Si3 0.746037 0.658167 0.304989
Si Si4 0.000000 0.651446 0.409597
Si Si5 0.000000 0.164889 0.587030
O O1 0.750000 0.250000 0.000000
O O2 0.771615 0.375625 0.077093
O O3 0.000000 0.325932 0.000000
O O4 0.500000 0.623732 0.127502
O O5 0.654791 0.500000 0.127839
O O6 0.721676 0.613018 0.223692
O O7 0.750000 0.750000 0.286203
O O8 0.875106 0.625170 0.353586
O O9 0.628881 0.633992 0.365559
O O10 0.000000 0.614752 0.500000
O O11 0.000000 0.743008 0.420823
O O12 0.000000 0.126734 0.500000
#
# Coordination Sequence:
#
# PCOD8269250 Si02
#       5
#     8  16  16   8   8
#     4  12  27  46  73 101 127 157 199 252 305 370
#     4  11  24  43  65  91 129 170 209 254 309 370
#     4  10  19  33  57  86 121 161 207 262 315 370
#     4   9  18  30  51  86 119 156 207 267 326 369
#     4   9  16  30  53  82 117 156 205 261 314 369
#
# _framework density 20.098936999999999
#
# number of rings (size 3 to 8) (size 9 to 14) (size 15 to 20)
#    0.000    1.714    1.429    3.429    2.000    5.714 
#    0.000    0.000    0.000    5.143    0.000    0.000 
#    0.000    0.000    0.000    0.000    0.000    0.000 
#
# Total GULP energy -346876.138623 kJ/mol
# GULP energy per Si atom -12388.433522 kJ/mol
# Density = 2.005319 g / cm^3
# Si number density = 20.098937 Si / 1000 Ang^3
#
#
#
# Elastic Constant Matrix: (Units=GPa)
#
#
# Indices 1 2 3 4 5 6 
#
# 1 204.7067 34.5820 93.5579 0.0000 0.0000 0.0000
# 2 34.5820 52.8952 35.3241 0.0000 0.0000 0.0000
# 3 93.5579 35.3241 183.4089 0.0000 0.0000 0.0000
# 4 0.0000 0.0000 0.0000 -240.9750 0.0000 0.0000
# 5 0.0000 0.0000 0.0000 0.0000 29.5329 0.0000
# 6 0.0000 0.0000 0.0000 0.0000 0.0000 19.6836
#
#
#
# Elastic Compliance Matrix: (Units=1/GPa)
#
#
# Indices 1 2 3 4 5 6 
#
# 1 0.006621 -0.002379 -0.002919 0.000000 0.000000 0.000000
# 2 -0.002379 0.022551 -0.003130 0.000000 0.000000 0.000000
# 3 -0.002919 -0.003130 0.007544 0.000000 0.000000 0.000000
# 4 0.000000 0.000000 0.000000 -0.004150 0.000000 0.000000
# 5 0.000000 0.000000 0.000000 0.000000 0.033861 0.000000
# 6 0.000000 0.000000 0.000000 0.000000 0.000000 0.050804
#
#
# Mechanical properties :
#
#
# Convention : Reuss Voigt Hill
#
# Bulk Modulus (GPa) = 50.35255 85.32653 67.83954
# Shear Modulus (GPa) = 35.53489 -19.84858 7.84316
#
# Velocity S-wave (km/s) = 4.20932 -3.14593 1.97756
# Velocity P-wave (km/s) = 6.98078 5.41753 6.24823
#
# Compressibility (1/GPa) = 0.01985997
#
# Stress axis : x y z
#
# Youngs Moduli (GPa) = 151.03037 44.34436 132.55280
#
# Poissons Ratio (x) = 0.10551 0.38696
# Poissons Ratio (y) = 0.35935 0.41483
# Poissons Ratio (z) = 0.44090 0.13878
#
# Static dielectric constant tensor:
#      x y z
#    x 4.359930 0.000000 0.000000 
#    y 0.000000 3.292290 0.000000 
#    z 0.000000 0.000000 3.920580 
# 
# 
# High freq. dielectric constant tensor:
#      x y z
#    x 1.803340 0.000000 0.000000 
#    y 0.000000 1.746940 0.000000 
#    z 0.000000 0.000000 1.808930 
# 
# From -- ./inp_files/48828.got.cif
#   From: 2010.03.12/outbox.cif.g09.slc.cpg/sg65_25_cif.got.tgz:48828.got - 2010.04.10 20:52:16.
