data_PCOD8269028
_publ_section_title
;
Structure prediction by ZEFSAII (Michael W. Deem and Ramdas Pophale) SiO2 
 PCOD8269028
Probable space group: C M M M
;
_chemical_formula_sum "Si O2"
_cell_formula_units_Z 96
_cell_length_a 23.655585
_cell_length_b 25.153780
_cell_length_c 8.913843
_cell_angle_alpha 90.000000
_cell_angle_beta 90.000000
_cell_angle_gamma 90.000000
_cell_volume 5303.980654
_symmetry_space_group_name_H-M "C M M M"
_symmetry_group_IT_number 65
_symmetry_cell_setting 'orthorhombic'
loop_
_space_group_symop_operation_xyz
x,y,z
-x,-y,z
x,-y,-z
-x,y,-z
-x,-y,-z
x,y,-z
-x,y,z
x,-y,z
1/2+x,1/2+y,z
1/2-x,1/2-y,z
1/2+x,1/2-y,-z
1/2-x,1/2+y,-z
1/2-x,1/2-y,-z
1/2+x,1/2+y,-z
1/2-x,1/2+y,z
1/2+x,1/2-y,z
loop_
_atom_site_type_symbol
_atom_site_label
_atom_site_fract_x
_atom_site_fract_y
_atom_site_fract_z
Si Si1 0.800997 0.560109 0.326684
Si Si2 0.619256 0.651541 0.677800
Si Si3 0.500000 0.693389 0.321959
Si Si4 0.621582 0.156201 0.675651
Si Si5 0.000000 0.687489 0.322898
Si Si6 0.183941 0.753085 0.825621
Si Si7 0.185233 0.061484 0.825384
O O1 0.783431 0.564795 0.500000
O O2 0.819304 0.500000 0.285671
O O3 0.853689 0.598007 0.288422
O O4 0.747231 0.578515 0.230610
O O5 0.622617 0.650713 0.500000
O O6 0.555628 0.662781 0.735102
O O7 0.660976 0.696604 0.736445
O O8 0.637158 0.594449 0.740894
O O9 0.500000 0.696629 0.500000
O O10 0.500000 0.753025 0.254137
O O11 0.626647 0.170432 0.500000
O O12 0.556207 0.156242 0.729484
O O13 0.655765 0.199399 0.768158
O O14 0.000000 0.692255 0.500000
O O15 0.250000 0.750000 0.793661
O O16 0.170271 0.760546 0.000000
O O17 0.173796 0.000000 0.788991
O O18 0.181952 0.074311 0.000000
#
# Coordination Sequence:
#
# PCOD8269028 Si02
#       7
#    16  16   8  16   8  16  16
#     4   9  18  33  54  81 109 139 179 222 263 312
#     4  11  21  36  58  80 104 137 178 219 262 313
#     4   9  18  34  55  78 104 137 176 218 263 313
#     4  10  19  33  54  76 103 141 180 218 262 313
#     4   9  16  32  53  75 104 140 179 217 261 312
#     4  11  23  35  49  75 110 139 169 217 270 319
#     4  10  21  37  56  79 109 143 175 213 266 318
#
# _framework density 18.099613999999999
#
# number of rings (size 3 to 8) (size 9 to 14) (size 15 to 20)
#    0.000    2.000    1.667    2.500    0.000    5.667 
#    0.000    3.750    0.000    5.000    0.000    0.000 
#    0.000    4.000    0.000    0.000    0.000    0.000 
#
# Total GULP energy -595295.783822 kJ/mol
# GULP energy per Si atom -12401.995496 kJ/mol
# Density = 1.805842 g / cm^3
# Si number density = 18.099614 Si / 1000 Ang^3
#
#
#
# Elastic Constant Matrix: (Units=GPa)
#
#
# Indices 1 2 3 4 5 6 
#
# 1 152.5772 79.6256 52.0892 0.0000 0.0000 0.0000
# 2 79.6256 110.2272 39.2234 0.0000 0.0000 0.0000
# 3 52.0892 39.2234 63.2164 0.0000 0.0000 0.0000
# 4 0.0000 0.0000 0.0000 25.2173 0.0000 0.0000
# 5 0.0000 0.0000 0.0000 0.0000 6.0047 0.0000
# 6 0.0000 0.0000 0.0000 0.0000 0.0000 30.3133
#
#
#
# Elastic Compliance Matrix: (Units=1/GPa)
#
#
# Indices 1 2 3 4 5 6 
#
# 1 0.011961 -0.006588 -0.005768 0.000000 0.000000 0.000000
# 2 -0.006588 0.015271 -0.004047 0.000000 0.000000 0.000000
# 3 -0.005768 -0.004047 0.023083 0.000000 0.000000 0.000000
# 4 0.000000 0.000000 0.000000 0.039655 0.000000 0.000000
# 5 0.000000 0.000000 0.000000 0.000000 0.166535 0.000000
# 6 0.000000 0.000000 0.000000 0.000000 0.000000 0.032989
#
#
# Mechanical properties :
#
#
# Convention : Reuss Voigt Hill
#
# Bulk Modulus (GPa) = 57.11396 74.21078 65.66237
# Shear Modulus (GPa) = 15.23751 22.64592 18.94172
#
# Velocity S-wave (km/s) = 2.90465 3.54104 3.23851
# Velocity P-wave (km/s) = 6.54776 7.60322 7.09514
#
# Compressibility (1/GPa) = 0.01750885
#
# Stress axis : x y z
#
# Youngs Moduli (GPa) = 83.60169 65.48252 43.32260
#
# Poissons Ratio (x) = 0.43140 0.24990
# Poissons Ratio (y) = 0.55077 0.17532
# Poissons Ratio (z) = 0.48225 0.26499
#
# Static dielectric constant tensor:
#      x y z
#    x 3.581070 0.000000 0.000000 
#    y 0.000000 3.461820 0.000000 
#    z 0.000000 0.000000 3.262990 
# 
# 
# High freq. dielectric constant tensor:
#      x y z
#    x 1.703900 0.000000 0.000000 
#    y 0.000000 1.702830 0.000000 
#    z 0.000000 0.000000 1.690510 
# 
# From -- ./inp_files/14422.got.cif
#   From: 2010.03.12/outbox.cif.g09.slc.cpg/sg65_8_cif.got.tgz:14422.got - 2010.04.10 20:52:16.
