data_PCOD8269173
_publ_section_title
;
Structure prediction by ZEFSAII (Michael W. Deem and Ramdas Pophale) SiO2 
 PCOD8269173
Probable space group: C M M M
;
_chemical_formula_sum "Si O2"
_cell_formula_units_Z 72
_cell_length_a 8.727524
_cell_length_b 18.189233
_cell_length_c 22.883632
_cell_angle_alpha 90.000000
_cell_angle_beta 90.000000
_cell_angle_gamma 90.000000
_cell_volume 3632.707187
_symmetry_space_group_name_H-M "C M M M"
_symmetry_group_IT_number 65
_symmetry_cell_setting 'orthorhombic'
loop_
_space_group_symop_operation_xyz
x,y,z
-x,-y,z
x,-y,-z
-x,y,-z
-x,-y,-z
x,y,-z
-x,y,z
x,-y,z
1/2+x,1/2+y,z
1/2-x,1/2-y,z
1/2+x,1/2-y,-z
1/2-x,1/2+y,-z
1/2-x,1/2-y,-z
1/2+x,1/2+y,-z
1/2-x,1/2+y,z
1/2+x,1/2-y,z
loop_
_atom_site_type_symbol
_atom_site_label
_atom_site_fract_x
_atom_site_fract_y
_atom_site_fract_z
Si Si1 0.817925 0.169498 0.000000
Si Si2 0.682264 0.417428 0.113075
Si Si3 0.679342 0.327519 0.432378
Si Si4 0.179043 0.585092 0.667149
Si Si5 0.181237 0.169881 0.225802
O O1 0.750000 0.250000 0.000000
O O2 0.756654 0.126524 0.056837
O O3 0.000000 0.174633 0.000000
O O4 0.500000 0.419810 0.112475
O O5 0.749119 0.500000 0.111506
O O6 0.742947 0.377951 0.171451
O O7 0.714187 0.343266 0.500000
O O8 0.500000 0.326028 0.418875
O O9 0.750000 0.250000 0.412557
O O10 0.760181 0.392325 0.396573
O O11 0.216498 0.500000 0.677328
O O12 0.267796 0.632378 0.714637
O O13 0.000000 0.601678 0.671716
O O14 0.250000 0.250000 0.220208
O O15 0.000000 0.176021 0.225047
#
# Coordination Sequence:
#
# PCOD8269173 Si02
#       5
#     8  16  16  16  16
#     4  10  19  33  55  81 111 144 182 228 274 328
#     4   9  18  33  55  82 109 142 185 230 276 327
#     4  10  21  38  61  87 115 148 186 228 274 327
#     4  11  24  40  58  82 113 148 186 230 280 331
#     4  11  22  37  58  82 111 146 186 231 278 333
#
# _framework density 19.819928000000001
#
# number of rings (size 3 to 8) (size 9 to 14) (size 15 to 20)
#    0.000    1.778    0.000    4.333    0.000    5.778 
#    0.000    3.333    0.000    4.000    0.000    0.000 
#    0.000    0.000    0.000    0.000    0.000    0.000 
#
# Total GULP energy -446581.439524 kJ/mol
# GULP energy per Si atom -12405.039987 kJ/mol
# Density = 1.977482 g / cm^3
# Si number density = 19.819928 Si / 1000 Ang^3
#
#
#
# Elastic Constant Matrix: (Units=GPa)
#
#
# Indices 1 2 3 4 5 6 
#
# 1 62.5201 46.8326 31.6967 0.0000 0.0000 0.0000
# 2 46.8326 168.3921 77.2122 0.0000 0.0000 0.0000
# 3 31.6967 77.2122 125.4857 0.0000 0.0000 0.0000
# 4 0.0000 0.0000 0.0000 43.3306 0.0000 0.0000
# 5 0.0000 0.0000 0.0000 0.0000 16.9328 0.0000
# 6 0.0000 0.0000 0.0000 0.0000 0.0000 27.7525
#
#
#
# Elastic Compliance Matrix: (Units=1/GPa)
#
#
# Indices 1 2 3 4 5 6 
#
# 1 0.020689 -0.004677 -0.002348 0.000000 0.000000 0.000000
# 2 -0.004677 0.009330 -0.004559 0.000000 0.000000 0.000000
# 3 -0.002348 -0.004559 0.011367 0.000000 0.000000 0.000000
# 4 0.000000 0.000000 0.000000 0.023078 0.000000 0.000000
# 5 0.000000 0.000000 0.000000 0.000000 0.059057 0.000000
# 6 0.000000 0.000000 0.000000 0.000000 0.000000 0.036033
#
#
# Mechanical properties :
#
#
# Convention : Reuss Voigt Hill
#
# Bulk Modulus (GPa) = 54.89297 74.20899 64.55098
# Shear Modulus (GPa) = 26.48365 30.98029 28.73197
#
# Velocity S-wave (km/s) = 3.65939 3.95788 3.81156
# Velocity P-wave (km/s) = 6.75358 7.64260 7.21180
#
# Compressibility (1/GPa) = 0.01821727
#
# Stress axis : x y z
#
# Youngs Moduli (GPa) = 48.33505 107.18177 87.97051
#
# Poissons Ratio (x) = 0.50133 0.20654
# Poissons Ratio (y) = 0.22608 0.40108
# Poissons Ratio (z) = 0.11348 0.48867
#
# Static dielectric constant tensor:
#      x y z
#    x 3.448510 0.000000 0.000000 
#    y 0.000000 3.724960 0.000000 
#    z 0.000000 0.000000 3.809470 
# 
# 
# High freq. dielectric constant tensor:
#      x y z
#    x 1.758310 0.000000 0.000000 
#    y 0.000000 1.784830 0.000000 
#    z 0.000000 0.000000 1.789770 
# 
# From -- ./inp_files/72521.got.cif
#   From: 2010.03.12/outbox.cif.g09.slc.cpg/sg65_37_cif.got.tgz:72521.got - 2010.04.10 20:52:16.
