data_PCOD8269924
_publ_section_title
;
Structure prediction by ZEFSAII (Michael W. Deem and Ramdas Pophale) SiO2 
 PCOD8269924
Probable space group: C M M M
;
_chemical_formula_sum "Si O2"
_cell_formula_units_Z 72
_cell_length_a 9.243829
_cell_length_b 34.073678
_cell_length_c 12.804805
_cell_angle_alpha 90.000000
_cell_angle_beta 90.000000
_cell_angle_gamma 90.000000
_cell_volume 4033.145473
_symmetry_space_group_name_H-M "C M M M"
_symmetry_group_IT_number 65
_symmetry_cell_setting 'orthorhombic'
loop_
_space_group_symop_operation_xyz
x,y,z
-x,-y,z
x,-y,-z
-x,y,-z
-x,-y,-z
x,y,-z
-x,y,z
x,-y,z
1/2+x,1/2+y,z
1/2-x,1/2-y,z
1/2+x,1/2-y,-z
1/2-x,1/2+y,-z
1/2-x,1/2-y,-z
1/2+x,1/2+y,-z
1/2-x,1/2+y,z
1/2+x,1/2-y,z
loop_
_atom_site_type_symbol
_atom_site_label
_atom_site_fract_x
_atom_site_fract_y
_atom_site_fract_z
Si Si1 0.837131 0.320533 0.613531
Si Si2 0.831674 0.711854 0.829442
Si Si3 0.166470 0.865394 0.114824
Si Si4 0.330584 0.603771 0.669423
Si Si5 0.327752 0.456285 0.500000
O O1 0.817116 0.300105 0.500000
O O2 0.804849 0.289317 0.704469
O O3 0.731936 0.357300 0.618536
O O4 0.000000 0.336675 0.627667
O O5 0.750000 0.750000 0.874130
O O6 0.766380 0.672912 0.880699
O O7 0.000000 0.714688 0.859366
O O8 0.208993 0.896750 0.206026
O O9 0.000000 0.852176 0.130895
O O10 0.187797 0.884922 0.000000
O O11 0.500000 0.605875 0.652426
O O12 0.272085 0.565957 0.605437
O O13 0.260623 0.500000 0.500000
O O14 0.500000 0.458785 0.500000
#
# Coordination Sequence:
#
# PCOD8269924 Si02
#       5
#    16  16  16  16   8
#     4   9  17  29  45  64  89 120 152 189 232 272
#     4  10  20  32  45  64  90 120 154 193 237 280
#     4   9  18  32  49  67  87 116 156 198 234 267
#     4   9  16  28  47  69  92 120 154 186 219 266
#     4   9  16  26  45  75 104 125 146 177 220 269
#
# _framework density 17.852070999999999
#
# number of rings (size 3 to 8) (size 9 to 14) (size 15 to 20)
#    0.000    2.778    1.111    0.667    0.000    2.222 
#    0.000    0.000    0.000    2.000    0.000    4.667 
#    0.000    0.000    0.000   11.111    0.000   11.556 
#
# Total GULP energy -446040.411708 kJ/mol
# GULP energy per Si atom -12390.011436 kJ/mol
# Density = 1.781144 g / cm^3
# Si number density = 17.852071 Si / 1000 Ang^3
#
#
#
# Elastic Constant Matrix: (Units=GPa)
#
#
# Indices 1 2 3 4 5 6 
#
# 1 42.5401 27.4878 23.8793 0.0000 0.0000 0.0000
# 2 27.4878 86.8693 39.7594 0.0000 0.0000 0.0000
# 3 23.8793 39.7594 138.6446 0.0000 0.0000 0.0000
# 4 0.0000 0.0000 0.0000 14.0695 0.0000 0.0000
# 5 0.0000 0.0000 0.0000 0.0000 15.2745 0.0000
# 6 0.0000 0.0000 0.0000 0.0000 0.0000 11.9890
#
#
#
# Elastic Compliance Matrix: (Units=1/GPa)
#
#
# Indices 1 2 3 4 5 6 
#
# 1 0.030504 -0.008343 -0.002861 0.000000 0.000000 0.000000
# 2 -0.008343 0.015532 -0.003017 0.000000 0.000000 0.000000
# 3 -0.002861 -0.003017 0.008571 0.000000 0.000000 0.000000
# 4 0.000000 0.000000 0.000000 0.071076 0.000000 0.000000
# 5 0.000000 0.000000 0.000000 0.000000 0.065468 0.000000
# 6 0.000000 0.000000 0.000000 0.000000 0.000000 0.083410
#
#
# Mechanical properties :
#
#
# Convention : Reuss Voigt Hill
#
# Bulk Modulus (GPa) = 38.21978 50.03410 44.12694
# Shear Modulus (GPa) = 16.03974 20.06178 18.05076
#
# Velocity S-wave (km/s) = 3.00072 3.35592 3.18328
# Velocity P-wave (km/s) = 5.78458 6.56537 6.18731
#
# Compressibility (1/GPa) = 0.02616446
#
# Stress axis : x y z
#
# Youngs Moduli (GPa) = 32.78245 64.38147 116.67501
#
# Poissons Ratio (x) = 0.53711 0.33385
# Poissons Ratio (y) = 0.27349 0.35205
# Poissons Ratio (z) = 0.09380 0.19426
#
# Static dielectric constant tensor:
#      x y z
#    x 3.238800 0.000000 0.000000 
#    y 0.000000 3.038490 0.000000 
#    z 0.000000 0.000000 3.727400 
# 
# 
# High freq. dielectric constant tensor:
#      x y z
#    x 1.681100 0.000000 0.000000 
#    y 0.000000 1.637410 0.000000 
#    z 0.000000 0.000000 1.711080 
# 
# From -- ./inp_files/37015.got.cif
#   From: 2010.03.12/outbox.cif.g09.slc.cpg/sg65_19_cif.got.tgz:37015.got - 2010.04.10 20:52:16.
