data_PCOD8269343
_publ_section_title
;
Structure prediction by ZEFSAII (Michael W. Deem and Ramdas Pophale) SiO2 
 PCOD8269343
Probable space group: C M M M
;
_chemical_formula_sum "Si O2"
_cell_formula_units_Z 88
_cell_length_a 17.202786
_cell_length_b 15.346210
_cell_length_c 16.526041
_cell_angle_alpha 90.000000
_cell_angle_beta 90.000000
_cell_angle_gamma 90.000000
_cell_volume 4362.834609
_symmetry_space_group_name_H-M "C M M M"
_symmetry_group_IT_number 65
_symmetry_cell_setting 'orthorhombic'
loop_
_space_group_symop_operation_xyz
x,y,z
-x,-y,z
x,-y,-z
-x,y,-z
-x,-y,-z
x,y,-z
-x,y,z
x,-y,z
1/2+x,1/2+y,z
1/2-x,1/2-y,z
1/2+x,1/2-y,-z
1/2-x,1/2+y,-z
1/2-x,1/2-y,-z
1/2+x,1/2+y,-z
1/2-x,1/2+y,z
1/2+x,1/2-y,z
loop_
_atom_site_type_symbol
_atom_site_label
_atom_site_fract_x
_atom_site_fract_y
_atom_site_fract_z
Si Si1 0.156261 0.827774 0.591415
Si Si2 0.088330 0.358860 0.410744
Si Si3 0.214059 0.595247 0.299874
Si Si4 0.176321 0.901045 0.000000
Si Si5 0.592481 0.217811 0.000000
Si Si6 0.500000 0.399099 0.410708
Si Si7 0.686212 0.101200 0.880062
O O1 0.172617 0.864802 0.500000
O O2 0.141477 0.726278 0.586570
O O3 0.228034 0.844051 0.650021
O O4 0.079518 0.870723 0.632757
O O5 0.087882 0.402194 0.500000
O O6 0.131745 0.419079 0.346089
O O7 0.000000 0.339675 0.382621
O O8 0.252711 0.500000 0.290384
O O9 0.196382 0.634453 0.211709
O O10 0.115053 0.821057 0.000000
O O11 0.229866 0.890442 0.078755
O O12 0.138526 0.000000 0.000000
O O13 0.624842 0.166579 0.078472
O O14 0.500000 0.212612 0.000000
O O15 0.500000 0.500000 0.421484
O O16 0.500000 0.352659 0.500000
O O17 0.657076 0.000000 0.885224
#
# Coordination Sequence:
#
# PCOD8269343 Si02
#       7
#    16  16  16   8   8   8  16
#     4  10  19  34  54  78 108 145 193 243 289 340
#     4  10  21  37  53  72 106 152 198 241 290 344
#     4  11  23  36  55  84 114 145 190 240 287 338
#     4   9  19  39  65  87 118 155 183 218 272 343
#     4  11  22  36  63  97 119 145 187 229 280 344
#     4   9  16  28  50  76 103 136 174 228 292 338
#     4   9  20  39  60  84 116 153 190 235 284 335
#
# _framework density 20.170370999999999
#
# number of rings (size 3 to 8) (size 9 to 14) (size 15 to 20)
#    0.000    2.091    0.909    3.545    0.000    8.545 
#    0.000    2.727    2.000    0.000    0.000    0.000 
#    0.000    0.000    0.000    0.000    0.000    0.000 
#
# Total GULP energy -545236.759370 kJ/mol
# GULP energy per Si atom -12391.744531 kJ/mol
# Density = 2.012446 g / cm^3
# Si number density = 20.170371 Si / 1000 Ang^3
#
#
#
# Elastic Constant Matrix: (Units=GPa)
#
#
# Indices 1 2 3 4 5 6 
#
# 1 128.0867 43.7162 67.4075 0.0000 0.0000 0.0000
# 2 43.7162 96.9646 30.8058 0.0000 0.0000 0.0000
# 3 67.4075 30.8058 134.0378 0.0000 0.0000 0.0000
# 4 0.0000 0.0000 0.0000 15.6903 0.0000 0.0000
# 5 0.0000 0.0000 0.0000 0.0000 8.0603 0.0000
# 6 0.0000 0.0000 0.0000 0.0000 0.0000 24.4281
#
#
#
# Elastic Compliance Matrix: (Units=1/GPa)
#
#
# Indices 1 2 3 4 5 6 
#
# 1 0.011720 -0.003680 -0.005048 0.000000 0.000000 0.000000
# 2 -0.003680 0.012281 -0.000972 0.000000 0.000000 0.000000
# 3 -0.005048 -0.000972 0.010223 0.000000 0.000000 0.000000
# 4 0.000000 0.000000 0.000000 0.063734 0.000000 0.000000
# 5 0.000000 0.000000 0.000000 0.000000 0.124065 0.000000
# 6 0.000000 0.000000 0.000000 0.000000 0.000000 0.040936
#
#
# Mechanical properties :
#
#
# Convention : Reuss Voigt Hill
#
# Bulk Modulus (GPa) = 67.46079 71.43866 69.44972
# Shear Modulus (GPa) = 17.40344 24.11305 20.75825
#
# Velocity S-wave (km/s) = 2.94057 3.46131 3.21151
# Velocity P-wave (km/s) = 6.71173 7.17417 6.94680
#
# Compressibility (1/GPa) = 0.01482342
#
# Stress axis : x y z
#
# Youngs Moduli (GPa) = 85.32519 81.42700 97.82219
#
# Poissons Ratio (x) = 0.29966 0.49382
# Poissons Ratio (y) = 0.31400 0.09507
# Poissons Ratio (z) = 0.43073 0.07913
#
# Static dielectric constant tensor:
#      x y z
#    x 41.234840 0.000000 0.000000 
#    y 0.000000 3.664410 0.000000 
#    z 0.000000 0.000000 3.723040 
# 
# 
# High freq. dielectric constant tensor:
#      x y z
#    x 1.779580 0.000000 0.000000 
#    y 0.000000 1.794700 0.000000 
#    z 0.000000 0.000000 1.765580 
# 
# From -- ./inp_files/54389.got.cif
#   From: 2010.03.12/outbox.cif.g09.slc.cpg/sg65_28_cif.got.tgz:54389.got - 2010.04.10 20:52:16.
