data_PCOD8269244
_publ_section_title
;
Structure prediction by ZEFSAII (Michael W. Deem and Ramdas Pophale) SiO2 
 PCOD8269244
Probable space group: C M M M
;
_chemical_formula_sum "Si O2"
_cell_formula_units_Z 64
_cell_length_a 24.274813
_cell_length_b 15.076997
_cell_length_c 8.906017
_cell_angle_alpha 90.000000
_cell_angle_beta 90.000000
_cell_angle_gamma 90.000000
_cell_volume 3259.524586
_symmetry_space_group_name_H-M "C M M M"
_symmetry_group_IT_number 65
_symmetry_cell_setting 'orthorhombic'
loop_
_space_group_symop_operation_xyz
x,y,z
-x,-y,z
x,-y,-z
-x,y,-z
-x,-y,-z
x,y,-z
-x,y,z
x,-y,z
1/2+x,1/2+y,z
1/2-x,1/2-y,z
1/2+x,1/2-y,-z
1/2-x,1/2+y,-z
1/2-x,1/2-y,-z
1/2+x,1/2+y,-z
1/2-x,1/2+y,z
1/2+x,1/2-y,z
loop_
_atom_site_type_symbol
_atom_site_label
_atom_site_fract_x
_atom_site_fract_y
_atom_site_fract_z
Si Si1 0.938467 0.000000 0.178176
Si Si2 0.632911 0.151422 0.678201
Si Si3 0.362256 0.658848 0.823162
Si Si4 0.935033 0.500000 0.173187
Si Si5 0.253880 0.645318 0.335135
O O1 0.907251 0.911832 0.232950
O O2 0.000000 0.000000 0.246191
O O3 0.940109 0.000000 0.000000
O O4 0.625927 0.154869 0.500000
O O5 0.623967 0.249807 0.741109
O O6 0.693683 0.112757 0.720918
O O7 0.587523 0.088075 0.748683
O O8 0.302023 0.619339 0.780281
O O9 0.363898 0.674680 0.000000
O O10 0.000000 0.500000 0.193500
O O11 0.917426 0.500000 0.000000
O O12 0.267352 0.605167 0.500000
O O13 0.250000 0.750000 0.349417
#
# Coordination Sequence:
#
# PCOD8269244 Si02
#       5
#     8  16  16   8  16
#     4   9  20  37  53  74 108 147 186 227 272 321
#     4  10  21  38  59  83 113 148 181 220 278 338
#     4  10  19  33  57  85 111 145 188 232 277 324
#     4  11  25  42  59  82 110 143 188 235 276 327
#     4   8  16  32  53  79 112 146 178 217 272 335
#
# _framework density 19.634765999999999
#
# number of rings (size 3 to 8) (size 9 to 14) (size 15 to 20)
#    0.000    2.500    0.000    3.375    0.000    8.500 
#    0.000    7.500    0.000    5.250    0.000    0.000 
#    0.000    0.000    0.000    0.000    0.000    0.000 
#
# Total GULP energy -396697.930833 kJ/mol
# GULP energy per Si atom -12396.810339 kJ/mol
# Density = 1.959008 g / cm^3
# Si number density = 19.634766 Si / 1000 Ang^3
#
#
#
# Elastic Constant Matrix: (Units=GPa)
#
#
# Indices 1 2 3 4 5 6 
#
# 1 144.3997 73.7579 64.2320 0.0000 0.0000 0.0000
# 2 73.7579 114.6044 55.1731 0.0000 0.0000 0.0000
# 3 64.2320 55.1731 99.9274 0.0000 0.0000 0.0000
# 4 0.0000 0.0000 0.0000 -114.9545 0.0000 0.0000
# 5 0.0000 0.0000 0.0000 0.0000 21.4721 0.0000
# 6 0.0000 0.0000 0.0000 0.0000 0.0000 80.3154
#
#
#
# Elastic Compliance Matrix: (Units=1/GPa)
#
#
# Indices 1 2 3 4 5 6 
#
# 1 0.011671 -0.005311 -0.004569 0.000000 0.000000 0.000000
# 2 -0.005311 0.014302 -0.004482 0.000000 0.000000 0.000000
# 3 -0.004569 -0.004482 0.015419 0.000000 0.000000 0.000000
# 4 0.000000 0.000000 0.000000 -0.008699 0.000000 0.000000
# 5 0.000000 0.000000 0.000000 0.000000 0.046572 0.000000
# 6 0.000000 0.000000 0.000000 0.000000 0.000000 0.012451
#
#
# Mechanical properties :
#
#
# Convention : Reuss Voigt Hill
#
# Bulk Modulus (GPa) = 78.95307 82.80641 80.87974
# Shear Modulus (GPa) = 40.10788 8.41783 24.26285
#
# Velocity S-wave (km/s) = 4.52452 2.07280 3.51908
# Velocity P-wave (km/s) = 8.22151 6.92774 7.60220
#
# Compressibility (1/GPa) = 0.01266575
#
# Stress axis : x y z
#
# Youngs Moduli (GPa) = 85.68464 69.92032 64.85419
#
# Poissons Ratio (x) = 0.37138 0.29633
# Poissons Ratio (y) = 0.45511 0.29071
# Poissons Ratio (z) = 0.39151 0.31342
#
# Static dielectric constant tensor:
#      x y z
#    x 4.024580 0.000000 0.000000 
#    y 0.000000 3.390360 0.000000 
#    z 0.000000 0.000000 3.538170 
# 
# 
# High freq. dielectric constant tensor:
#      x y z
#    x 1.768040 0.000000 0.000000 
#    y 0.000000 1.760780 0.000000 
#    z 0.000000 0.000000 1.758350 
# 
# From -- ./inp_files/13348.got.cif
#   From: 2010.03.12/outbox.cif.g09.slc.cpg/sg65_7_cif.got.tgz:13348.got - 2010.04.10 20:52:16.
