data_PCOD8269618
_publ_section_title
;
Structure prediction by ZEFSAII (Michael W. Deem and Ramdas Pophale) SiO2 
 PCOD8269618
Probable space group: C M M M
;
_chemical_formula_sum "Si O2"
_cell_formula_units_Z 96
_cell_length_a 14.379954
_cell_length_b 28.397987
_cell_length_c 11.944165
_cell_angle_alpha 90.000000
_cell_angle_beta 90.000000
_cell_angle_gamma 90.000000
_cell_volume 4877.540083
_symmetry_space_group_name_H-M "C M M M"
_symmetry_group_IT_number 65
_symmetry_cell_setting 'orthorhombic'
loop_
_space_group_symop_operation_xyz
x,y,z
-x,-y,z
x,-y,-z
-x,y,-z
-x,-y,-z
x,y,-z
-x,y,z
x,-y,z
1/2+x,1/2+y,z
1/2-x,1/2-y,z
1/2+x,1/2-y,-z
1/2-x,1/2+y,-z
1/2-x,1/2-y,-z
1/2+x,1/2+y,-z
1/2-x,1/2+y,z
1/2+x,1/2-y,z
loop_
_atom_site_type_symbol
_atom_site_label
_atom_site_fract_x
_atom_site_fract_y
_atom_site_fract_z
Si Si1 0.390852 0.719840 0.259274
Si Si2 0.104945 0.687460 0.872927
Si Si3 0.100547 0.555704 0.624158
Si Si4 0.609973 0.309575 0.500000
Si Si5 0.790925 0.946210 0.721155
Si Si6 0.710219 0.637952 0.128579
Si Si7 0.389609 0.583230 0.500000
O O1 0.500000 0.709764 0.252086
O O2 0.365955 0.771078 0.211857
O O3 0.354764 0.716894 0.387974
O O4 0.341431 0.681132 0.184881
O O5 0.178142 0.645014 0.857796
O O6 0.000000 0.669356 0.846758
O O7 0.110183 0.707208 0.000000
O O8 0.111994 0.577606 0.500000
O O9 0.104551 0.500000 0.613439
O O10 0.185667 0.572085 0.700107
O O11 0.000000 0.571561 0.674563
O O12 0.500000 0.310523 0.500000
O O13 0.646859 0.363167 0.500000
O O14 0.826069 0.910784 0.816742
O O15 0.851807 0.943114 0.609289
O O16 0.794517 0.000000 0.764988
O O17 0.680609 0.635771 0.000000
O O18 0.500000 0.579646 0.500000
#
# Coordination Sequence:
#
# PCOD8269618 Si02
#       7
#    16  16  16   8  16  16   8
#     4  10  19  35  59  86 114 144 180 223 276 338
#     4   9  19  37  60  83 109 145 187 228 271 326
#     4   8  14  27  49  75 100 127 165 216 270 323
#     4   9  18  33  56  83 112 144 177 217 272 334
#     4  11  22  36  56  80 109 147 190 234 282 332
#     4  11  23  37  55  80 111 147 191 237 277 324
#     4  11  21  38  59  82 111 147 190 231 276 335
#
# _framework density 19.682053
#
# number of rings (size 3 to 8) (size 9 to 14) (size 15 to 20)
#    0.000    2.167    2.500    1.750    0.000    4.000 
#    0.000    2.500    0.000    0.000    0.000    7.000 
#    0.000    0.000    0.000    0.000    0.000    0.000 
#
# Total GULP energy -594987.487352 kJ/mol
# GULP energy per Si atom -12395.572653 kJ/mol
# Density = 1.963726 g / cm^3
# Si number density = 19.682053 Si / 1000 Ang^3
#
#
#
# Elastic Constant Matrix: (Units=GPa)
#
#
# Indices 1 2 3 4 5 6 
#
# 1 60.0941 18.8207 26.4930 0.0000 0.0000 0.0000
# 2 18.8207 65.5438 44.5338 0.0000 0.0000 0.0000
# 3 26.4930 44.5338 123.4381 0.0000 0.0000 0.0000
# 4 0.0000 0.0000 0.0000 18.6267 0.0000 0.0000
# 5 0.0000 0.0000 0.0000 0.0000 20.2386 0.0000
# 6 0.0000 0.0000 0.0000 0.0000 0.0000 21.1007
#
#
#
# Elastic Compliance Matrix: (Units=1/GPa)
#
#
# Indices 1 2 3 4 5 6 
#
# 1 0.018985 -0.003554 -0.002792 0.000000 0.000000 0.000000
# 2 -0.003554 0.020877 -0.006769 0.000000 0.000000 0.000000
# 3 -0.002792 -0.006769 0.011143 0.000000 0.000000 0.000000
# 4 0.000000 0.000000 0.000000 0.053686 0.000000 0.000000
# 5 0.000000 0.000000 0.000000 0.000000 0.049410 0.000000
# 6 0.000000 0.000000 0.000000 0.000000 0.000000 0.047392
#
#
# Mechanical properties :
#
#
# Convention : Reuss Voigt Hill
#
# Bulk Modulus (GPa) = 40.36648 47.64123 44.00385
# Shear Modulus (GPa) = 21.18809 22.60844 21.89826
#
# Velocity S-wave (km/s) = 3.28459 3.39290 3.33919
# Velocity P-wave (km/s) = 5.91088 6.29341 6.10514
#
# Compressibility (1/GPa) = 0.02477303
#
# Stress axis : x y z
#
# Youngs Moduli (GPa) = 52.67396 47.90013 89.74507
#
# Poissons Ratio (x) = 0.17024 0.25060
# Poissons Ratio (y) = 0.18721 0.60749
# Poissons Ratio (z) = 0.14708 0.32424
#
# Static dielectric constant tensor:
#      x y z
#    x 3.805840 0.000000 0.000000 
#    y 0.000000 3.290580 0.000000 
#    z 0.000000 0.000000 3.679550 
# 
# 
# High freq. dielectric constant tensor:
#      x y z
#    x 1.771050 0.000000 0.000000 
#    y 0.000000 1.744560 0.000000 
#    z 0.000000 0.000000 1.760260 
# 
# From -- ./inp_files/25445.got.cif
#   From: 2010.03.12/outbox.cif.g09.slc.cpg/sg65_13_cif.got.tgz:25445.got - 2010.04.10 20:52:16.
