data_PCOD8269851
_publ_section_title
;
Structure prediction by ZEFSAII (Michael W. Deem and Ramdas Pophale) SiO2 
 PCOD8269851
Probable space group: C M M M
;
_chemical_formula_sum "Si O2"
_cell_formula_units_Z 104
_cell_length_a 30.038738
_cell_length_b 9.035344
_cell_length_c 22.680688
_cell_angle_alpha 90.000000
_cell_angle_beta 90.000000
_cell_angle_gamma 90.000000
_cell_volume 6155.773041
_symmetry_space_group_name_H-M "C M M M"
_symmetry_group_IT_number 65
_symmetry_cell_setting 'orthorhombic'
loop_
_space_group_symop_operation_xyz
x,y,z
-x,-y,z
x,-y,-z
-x,y,-z
-x,-y,-z
x,y,-z
-x,y,z
x,-y,z
1/2+x,1/2+y,z
1/2-x,1/2-y,z
1/2+x,1/2-y,-z
1/2-x,1/2+y,-z
1/2-x,1/2-y,-z
1/2+x,1/2+y,-z
1/2-x,1/2+y,z
1/2+x,1/2-y,z
loop_
_atom_site_type_symbol
_atom_site_label
_atom_site_fract_x
_atom_site_fract_y
_atom_site_fract_z
Si Si1 0.414615 0.664366 0.602332
Si Si2 0.119874 0.166654 0.733416
Si Si3 0.331896 0.169660 0.564396
Si Si4 0.500000 0.825778 0.433140
Si Si5 0.795411 0.325073 0.689278
Si Si6 0.051905 0.326436 0.180397
Si Si7 0.552695 0.334480 0.935369
O O1 0.425301 0.500000 0.578731
O O2 0.400032 0.659302 0.669132
O O3 0.376221 0.733008 0.561998
O O4 0.457418 0.766330 0.600405
O O5 0.165339 0.261285 0.730487
O O6 0.083087 0.242912 0.773857
O O7 0.129987 0.000000 0.756297
O O8 0.307951 0.190841 0.500000
O O9 0.301358 0.217054 0.619736
O O10 0.346485 0.000000 0.573322
O O11 0.500000 0.768567 0.500000
O O12 0.500000 0.000000 0.429125
O O13 0.792773 0.500000 0.698689
O O14 0.750000 0.250000 0.710823
O O15 0.058970 0.500000 0.187720
O O16 0.068199 0.279229 0.115017
O O17 0.000000 0.282912 0.191034
O O18 0.500000 0.336648 0.938007
O O19 0.570154 0.500000 0.920492
O O20 0.571028 0.284505 0.000000
#
# Coordination Sequence:
#
# PCOD8269851 Si02
#       7
#    16  16  16   8  16  16  16
#     4  10  21  34  48  67  88 115 153 198 242 282
#     4  10  21  36  52  70  95 126 162 202 245 290
#     4   9  18  33  51  70  93 120 148 182 232 293
#     4  11  23  35  47  63  85 117 154 191 236 291
#     4  10  20  35  54  74  97 123 154 194 242 296
#     4  10  20  31  46  72 103 136 172 208 246 287
#     4   8  14  26  44  66  95 134 175 209 242 280
#
# _framework density 16.894708999999999
#
# number of rings (size 3 to 8) (size 9 to 14) (size 15 to 20)
#    0.000    2.385    0.000    3.000    1.077    6.769 
#    0.000    1.538    0.000    0.000    0.000    0.000 
#    0.000    0.615    0.000    2.308    0.000    3.538 
#
# Total GULP energy -644567.619762 kJ/mol
# GULP energy per Si atom -12395.531149 kJ/mol
# Density = 1.685626 g / cm^3
# Si number density = 16.894709 Si / 1000 Ang^3
#
#
#
# Elastic Constant Matrix: (Units=GPa)
#
#
# Indices 1 2 3 4 5 6 
#
# 1 87.4960 46.7657 25.6475 0.0000 0.0000 0.0000
# 2 46.7657 96.2609 33.8152 0.0000 0.0000 0.0000
# 3 25.6475 33.8152 63.2730 0.0000 0.0000 0.0000
# 4 0.0000 0.0000 0.0000 26.8286 0.0000 0.0000
# 5 0.0000 0.0000 0.0000 0.0000 14.4098 0.0000
# 6 0.0000 0.0000 0.0000 0.0000 0.0000 27.6416
#
#
#
# Elastic Compliance Matrix: (Units=1/GPa)
#
#
# Indices 1 2 3 4 5 6 
#
# 1 0.015842 -0.006698 -0.002842 0.000000 0.000000 0.000000
# 2 -0.006698 0.015622 -0.005634 0.000000 0.000000 0.000000
# 3 -0.002842 -0.005634 0.019967 0.000000 0.000000 0.000000
# 4 0.000000 0.000000 0.000000 0.037274 0.000000 0.000000
# 5 0.000000 0.000000 0.000000 0.000000 0.069397 0.000000
# 6 0.000000 0.000000 0.000000 0.000000 0.000000 0.036177
#
#
# Mechanical properties :
#
#
# Convention : Reuss Voigt Hill
#
# Bulk Modulus (GPa) = 47.42991 51.05409 49.24200
# Shear Modulus (GPa) = 21.58389 23.16279 22.37334
#
# Velocity S-wave (km/s) = 3.57817 3.70673 3.64301
# Velocity P-wave (km/s) = 6.72353 6.97168 6.84873
#
# Compressibility (1/GPa) = 0.02108374
#
# Stress axis : x y z
#
# Youngs Moduli (GPa) = 63.12235 64.01403 50.08203
#
# Poissons Ratio (x) = 0.42878 0.14233
# Poissons Ratio (y) = 0.42281 0.28214
# Poissons Ratio (z) = 0.17939 0.36063
#
# Static dielectric constant tensor:
#      x y z
#    x 2.907430 0.000000 0.000000 
#    y 0.000000 3.406670 0.000000 
#    z 0.000000 0.000000 3.384930 
# 
# 
# High freq. dielectric constant tensor:
#      x y z
#    x 1.620210 0.000000 0.000000 
#    y 0.000000 1.666470 0.000000 
#    z 0.000000 0.000000 1.636460 
# 
# From -- ./inp_files/60873.got.cif
#   From: 2010.03.12/outbox.cif.g09.slc.cpg/sg65_31_cif.got.tgz:60873.got - 2010.04.10 20:52:16.
