data_PCOD8269855
_publ_section_title
;
Structure prediction by ZEFSAII (Michael W. Deem and Ramdas Pophale) SiO2 
 PCOD8269855
Probable space group: C M M M
;
_chemical_formula_sum "Si O2"
_cell_formula_units_Z 104
_cell_length_a 9.806866
_cell_length_b 26.069305
_cell_length_c 25.372846
_cell_angle_alpha 90.000000
_cell_angle_beta 90.000000
_cell_angle_gamma 90.000000
_cell_volume 6486.775651
_symmetry_space_group_name_H-M "C M M M"
_symmetry_group_IT_number 65
_symmetry_cell_setting 'orthorhombic'
loop_
_space_group_symop_operation_xyz
x,y,z
-x,-y,z
x,-y,-z
-x,y,-z
-x,-y,-z
x,y,-z
-x,y,z
x,-y,z
1/2+x,1/2+y,z
1/2-x,1/2-y,z
1/2+x,1/2-y,-z
1/2-x,1/2+y,-z
1/2-x,1/2-y,-z
1/2+x,1/2+y,-z
1/2-x,1/2+y,z
1/2+x,1/2-y,z
loop_
_atom_site_type_symbol
_atom_site_label
_atom_site_fract_x
_atom_site_fract_y
_atom_site_fract_z
Si Si1 0.000000 0.292413 0.937695
Si Si2 0.849539 0.938744 0.500000
Si Si3 0.344211 0.599907 0.279064
Si Si4 0.500000 0.672019 0.061431
Si Si5 0.155943 0.204778 0.225752
Si Si6 0.837572 0.057375 0.612235
Si Si7 0.344417 0.058346 0.811109
Si Si8 0.740417 0.151766 0.878161
O O1 0.000000 0.232260 0.924592
O O2 0.131515 0.318004 0.912533
O O3 0.000000 0.302260 0.000000
O O4 0.776661 0.922217 0.444457
O O5 0.000000 0.914215 0.500000
O O6 0.860210 0.000000 0.500000
O O7 0.500000 0.579938 0.272724
O O8 0.336929 0.660224 0.268796
O O9 0.289845 0.592015 0.338651
O O10 0.252220 0.568372 0.238597
O O11 0.629255 0.643105 0.085465
O O12 0.500000 0.662654 0.000000
O O13 0.250000 0.250000 0.248217
O O14 0.220173 0.186399 0.171276
O O15 0.000000 0.223109 0.216972
O O16 0.000000 0.057430 0.606843
O O17 0.784579 0.000000 0.623675
O O18 0.500000 0.067524 0.792997
O O19 0.311514 0.096094 0.859676
O O20 0.322451 0.000000 0.830685
#
# Coordination Sequence:
#
# PCOD8269855 Si02
#       8
#     8   8  16   8  16  16  16  16
#     4  11  22  36  55  77  99 127 154 183 231 282
#     4   7  10  16  30  56  88 121 149 177 225 281
#     4   9  18  30  45  71  96 120 156 197 237 276
#     4  11  22  36  55  79 103 121 148 191 237 282
#     4  10  20  31  47  68  94 123 152 187 232 283
#     4   8  12  20  36  60  92 122 148 184 230 276
#     4  10  21  36  52  70  95 128 163 193 227 274
#     4  11  21  36  53  76  99 124 153 190 231 280
#
# _framework density 16.032617999999999
#
# number of rings (size 3 to 8) (size 9 to 14) (size 15 to 20)
#    0.000    2.385    1.538    3.231    2.154    2.769 
#    0.000    0.000    0.000    2.769    0.000    1.077 
#    0.000    3.077    0.000    0.000    0.000    0.000 
#
# Total GULP energy -644499.130675 kJ/mol
# GULP energy per Si atom -12394.214051 kJ/mol
# Density = 1.599613 g / cm^3
# Si number density = 16.032618 Si / 1000 Ang^3
#
#
#
# Elastic Constant Matrix: (Units=GPa)
#
#
# Indices 1 2 3 4 5 6 
#
# 1 87.9015 39.7621 38.8182 0.0000 0.0000 0.0000
# 2 39.7621 76.4978 47.8366 0.0000 0.0000 0.0000
# 3 38.8182 47.8366 125.6597 0.0000 0.0000 0.0000
# 4 0.0000 0.0000 0.0000 13.4069 0.0000 0.0000
# 5 0.0000 0.0000 0.0000 0.0000 9.9788 0.0000
# 6 0.0000 0.0000 0.0000 0.0000 0.0000 19.6546
#
#
#
# Elastic Compliance Matrix: (Units=1/GPa)
#
#
# Indices 1 2 3 4 5 6 
#
# 1 0.015337 -0.006574 -0.002235 0.000000 0.000000 0.000000
# 2 -0.006574 0.019975 -0.005573 0.000000 0.000000 0.000000
# 3 -0.002235 -0.005573 0.010770 0.000000 0.000000 0.000000
# 4 0.000000 0.000000 0.000000 0.074588 0.000000 0.000000
# 5 0.000000 0.000000 0.000000 0.000000 0.100213 0.000000
# 6 0.000000 0.000000 0.000000 0.000000 0.000000 0.050879
#
#
# Mechanical properties :
#
#
# Convention : Reuss Voigt Hill
#
# Bulk Modulus (GPa) = 57.74755 60.32140 59.03448
# Shear Modulus (GPa) = 16.32391 19.51752 17.92071
#
# Velocity S-wave (km/s) = 3.19434 3.49286 3.34693
# Velocity P-wave (km/s) = 7.04997 7.34660 7.19981
#
# Compressibility (1/GPa) = 0.01731675
#
# Stress axis : x y z
#
# Youngs Moduli (GPa) = 65.20035 50.06381 92.84993
#
# Poissons Ratio (x) = 0.32914 0.20754
# Poissons Ratio (y) = 0.42865 0.51746
# Poissons Ratio (z) = 0.14574 0.27901
#
# Static dielectric constant tensor:
#      x y z
#    x 3.025490 0.000000 0.000000 
#    y 0.000000 2.931210 0.000000 
#    z 0.000000 0.000000 3.288340 
# 
# 
# High freq. dielectric constant tensor:
#      x y z
#    x 1.605150 0.000000 0.000000 
#    y 0.000000 1.593540 0.000000 
#    z 0.000000 0.000000 1.618630 
# 
# From -- ./inp_files/73819.got.cif
#   From: 2010.03.12/outbox.cif.g09.slc.cpg/sg65_37_cif.got.tgz:73819.got - 2010.04.10 20:52:16.
