data_PCOD8269108
_publ_section_title
;
Structure prediction by ZEFSAII (Michael W. Deem and Ramdas Pophale) SiO2 
 PCOD8269108
Probable space group: C M M M
;
_chemical_formula_sum "Si O2"
_cell_formula_units_Z 88
_cell_length_a 16.797750
_cell_length_b 30.530263
_cell_length_c 8.747491
_cell_angle_alpha 90.000000
_cell_angle_beta 90.000000
_cell_angle_gamma 90.000000
_cell_volume 4486.060882
_symmetry_space_group_name_H-M "C M M M"
_symmetry_group_IT_number 65
_symmetry_cell_setting 'orthorhombic'
loop_
_space_group_symop_operation_xyz
x,y,z
-x,-y,z
x,-y,-z
-x,y,-z
-x,-y,-z
x,y,-z
-x,y,z
x,-y,z
1/2+x,1/2+y,z
1/2-x,1/2-y,z
1/2+x,1/2-y,-z
1/2-x,1/2+y,-z
1/2-x,1/2-y,-z
1/2+x,1/2+y,-z
1/2-x,1/2+y,z
1/2+x,1/2-y,z
loop_
_atom_site_type_symbol
_atom_site_label
_atom_site_fract_x
_atom_site_fract_y
_atom_site_fract_z
Si Si1 0.000000 0.859816 0.829438
Si Si2 0.089797 0.000000 0.317983
Si Si3 0.500000 0.743197 0.172107
Si Si4 0.191443 0.627155 0.317936
Si Si5 0.832831 0.725808 0.681820
Si Si6 0.910785 0.452289 0.318253
Si Si7 0.143020 0.907213 0.681288
O O1 0.000000 0.808321 0.833041
O O2 0.075403 0.875560 0.737676
O O3 0.000000 0.879473 0.000000
O O4 0.133933 0.043263 0.255483
O O5 0.088897 0.000000 0.500000
O O6 0.000000 0.000000 0.254754
O O7 0.416785 0.756309 0.253930
O O8 0.500000 0.762615 0.000000
O O9 0.189270 0.626479 0.500000
O O10 0.170195 0.675599 0.259933
O O11 0.133993 0.589702 0.248319
O O12 0.277210 0.614035 0.254252
O O13 0.837451 0.729630 0.500000
O O14 0.750000 0.750000 0.737139
O O15 0.909003 0.449083 0.500000
O O16 0.873870 0.500000 0.270100
O O17 0.000000 0.449723 0.255808
O O18 0.141526 0.908183 0.500000
#
# Coordination Sequence:
#
# PCOD8269108 Si02
#       7
#     8   8   8  16  16  16  16
#     4  11  23  38  54  75 104 139 183 224 271 330
#     4   9  16  28  48  80 113 143 180 223 270 320
#     4  11  25  41  60  84 110 149 194 239 295 352
#     4   9  18  29  49  78 107 142 180 218 266 323
#     4  10  21  38  59  86 117 147 186 238 294 347
#     4   8  14  24  39  66 106 141 165 200 256 314
#     4  10  19  33  54  80 112 146 182 223 268 320
#
# _framework density 19.616318
#
# number of rings (size 3 to 8) (size 9 to 14) (size 15 to 20)
#    0.000    2.455    0.909    2.182    2.545    3.273 
#    0.000    1.818    0.000    0.000    0.000    0.000 
#    0.000    0.727    0.000    0.000    0.000    0.000 
#
# Total GULP energy -545136.073223 kJ/mol
# GULP energy per Si atom -12389.456210 kJ/mol
# Density = 1.957167 g / cm^3
# Si number density = 19.616318 Si / 1000 Ang^3
#
#
#
# Elastic Constant Matrix: (Units=GPa)
#
#
# Indices 1 2 3 4 5 6 
#
# 1 148.4897 70.4050 21.2744 0.0000 0.0000 0.0000
# 2 70.4050 151.8177 16.4670 0.0000 0.0000 0.0000
# 3 21.2744 16.4670 18.0257 0.0000 0.0000 0.0000
# 4 0.0000 0.0000 0.0000 10.1061 0.0000 0.0000
# 5 0.0000 0.0000 0.0000 0.0000 5.9083 0.0000
# 6 0.0000 0.0000 0.0000 0.0000 0.0000 54.4939
#
#
#
# Elastic Compliance Matrix: (Units=1/GPa)
#
#
# Indices 1 2 3 4 5 6 
#
# 1 0.009580 -0.003570 -0.008045 0.000000 0.000000 0.000000
# 2 -0.003570 0.008642 -0.003681 0.000000 0.000000 0.000000
# 3 -0.008045 -0.003681 0.068334 0.000000 0.000000 0.000000
# 4 0.000000 0.000000 0.000000 0.098950 0.000000 0.000000
# 5 0.000000 0.000000 0.000000 0.000000 0.169254 0.000000
# 6 0.000000 0.000000 0.000000 0.000000 0.000000 0.018351
#
#
# Mechanical properties :
#
#
# Convention : Reuss Voigt Hill
#
# Bulk Modulus (GPa) = 17.86884 59.40287 38.63585
# Shear Modulus (GPa) = 11.83833 28.11409 19.97621
#
# Velocity S-wave (km/s) = 2.45928 3.78987 3.19462
# Velocity P-wave (km/s) = 4.14644 7.03555 5.77460
#
# Compressibility (1/GPa) = 0.05596335
#
# Stress axis : x y z
#
# Youngs Moduli (GPa) = 104.38658 115.71814 14.63402
#
# Poissons Ratio (x) = 0.41311 0.11773
# Poissons Ratio (y) = 0.37266 0.05387
# Poissons Ratio (z) = 0.83979 0.42596
#
# Static dielectric constant tensor:
#      x y z
#    x 3.814900 0.000000 0.000000 
#    y 0.000000 4.034310 0.000000 
#    z 0.000000 0.000000 3.092960 
# 
# 
# High freq. dielectric constant tensor:
#      x y z
#    x 1.775510 0.000000 0.000000 
#    y 0.000000 1.786910 0.000000 
#    z 0.000000 0.000000 1.702240 
# 
# From -- ./inp_files/10221.got.cif
#   From: 2010.03.12/outbox.cif.g09.slc.cpg/sg65_6_cif.got.tgz:10221.got - 2010.04.10 20:52:16.
