data_PCOD8269929
_publ_section_title
;
Structure prediction by ZEFSAII (Michael W. Deem and Ramdas Pophale) SiO2 
 PCOD8269929
Probable space group: C M M M
;
_chemical_formula_sum "Si O2"
_cell_formula_units_Z 96
_cell_length_a 28.902558
_cell_length_b 13.637414
_cell_length_c 14.411958
_cell_angle_alpha 90.000000
_cell_angle_beta 90.000000
_cell_angle_gamma 90.000000
_cell_volume 5680.561866
_symmetry_space_group_name_H-M "C M M M"
_symmetry_group_IT_number 65
_symmetry_cell_setting 'orthorhombic'
loop_
_space_group_symop_operation_xyz
x,y,z
-x,-y,z
x,-y,-z
-x,y,-z
-x,-y,-z
x,y,-z
-x,y,z
x,-y,z
1/2+x,1/2+y,z
1/2-x,1/2-y,z
1/2+x,1/2-y,-z
1/2-x,1/2+y,-z
1/2-x,1/2-y,-z
1/2+x,1/2+y,-z
1/2-x,1/2+y,z
1/2+x,1/2-y,z
loop_
_atom_site_type_symbol
_atom_site_label
_atom_site_fract_x
_atom_site_fract_y
_atom_site_fract_z
Si Si1 0.719815 0.615891 0.604034
Si Si2 0.310792 0.114256 0.287926
Si Si3 0.264890 0.885261 0.900313
Si Si4 0.552825 0.387728 0.392442
Si Si5 0.338316 0.384610 0.105170
Si Si6 0.365452 0.704195 0.288078
O O1 0.715213 0.659120 0.500000
O O2 0.721859 0.500000 0.601464
O O3 0.768260 0.652190 0.648600
O O4 0.676055 0.643324 0.665838
O O5 0.299501 0.140347 0.181526
O O6 0.355838 0.180298 0.307387
O O7 0.322395 0.000000 0.304337
O O8 0.213786 0.840011 0.884530
O O9 0.255671 0.000000 0.903361
O O10 0.285346 0.849683 0.000000
O O11 0.564699 0.373727 0.500000
O O12 0.500000 0.358115 0.372036
O O13 0.561725 0.500000 0.363396
O O14 0.585382 0.317319 0.333570
O O15 0.340444 0.500000 0.128985
O O16 0.369190 0.325190 0.179480
O O17 0.356474 0.366480 0.000000
#
# Coordination Sequence:
#
# PCOD8269929 Si02
#       6
#    16  16  16  16  16  16
#     4  10  20  32  45  65  95 126 156 193 236 285
#     4  10  21  33  42  63 100 134 165 200 232 267
#     4   8  14  27  44  60  89 132 168 199 232 264
#     4   9  19  36  57  80 100 115 142 194 252 297
#     4   9  17  28  44  70 101 128 159 200 240 282
#     4  12  20  29  51  73  91 126 167 196 233 288
#
# _framework density 16.899736000000001
#
# number of rings (size 3 to 8) (size 9 to 14) (size 15 to 20)
#    0.000    2.333    1.667    4.000    0.000    4.000 
#    0.000    1.667    0.000    1.000    0.000    3.500 
#    0.000    0.000    0.000    5.667    0.000    0.167 
#
# Total GULP energy -595007.281868 kJ/mol
# GULP energy per Si atom -12395.985039 kJ/mol
# Density = 1.686127 g / cm^3
# Si number density = 16.899736 Si / 1000 Ang^3
#
#
#
# Elastic Constant Matrix: (Units=GPa)
#
#
# Indices 1 2 3 4 5 6 
#
# 1 75.9345 36.4277 41.2152 0.0000 0.0000 0.0000
# 2 36.4277 49.1228 26.1287 0.0000 0.0000 0.0000
# 3 41.2152 26.1287 97.8353 0.0000 0.0000 0.0000
# 4 0.0000 0.0000 0.0000 11.5591 0.0000 0.0000
# 5 0.0000 0.0000 0.0000 0.0000 14.4804 0.0000
# 6 0.0000 0.0000 0.0000 0.0000 0.0000 23.6985
#
#
#
# Elastic Compliance Matrix: (Units=1/GPa)
#
#
# Indices 1 2 3 4 5 6 
#
# 1 0.023127 -0.013950 -0.006017 0.000000 0.000000 0.000000
# 2 -0.013950 0.032142 -0.002707 0.000000 0.000000 0.000000
# 3 -0.006017 -0.002707 0.013479 0.000000 0.000000 0.000000
# 4 0.000000 0.000000 0.000000 0.086512 0.000000 0.000000
# 5 0.000000 0.000000 0.000000 0.000000 0.069059 0.000000
# 6 0.000000 0.000000 0.000000 0.000000 0.000000 0.042197
#
#
# Mechanical properties :
#
#
# Convention : Reuss Voigt Hill
#
# Bulk Modulus (GPa) = 42.73614 47.82621 45.28118
# Shear Modulus (GPa) = 15.64138 17.88900 16.76519
#
# Velocity S-wave (km/s) = 3.04557 3.25705 3.15308
# Velocity P-wave (km/s) = 6.14087 6.51965 6.33309
#
# Compressibility (1/GPa) = 0.02339940
#
# Stress axis : x y z
#
# Youngs Moduli (GPa) = 43.23884 31.11206 74.18805
#
# Poissons Ratio (x) = 0.43401 0.44642
# Poissons Ratio (y) = 0.60317 0.20086
# Poissons Ratio (z) = 0.26018 0.08423
#
# Static dielectric constant tensor:
#      x y z
#    x 2.712580 0.000000 0.000000 
#    y 0.000000 3.105310 0.000000 
#    z 0.000000 0.000000 4.854230 
# 
# 
# High freq. dielectric constant tensor:
#      x y z
#    x 1.587520 0.000000 0.000000 
#    y 0.000000 1.652730 0.000000 
#    z 0.000000 0.000000 1.668230 
# 
# From -- ./inp_files/41267.got.cif
#   From: 2010.03.12/outbox.cif.g09.slc.cpg/sg65_21_cif.got.tgz:41267.got - 2010.04.10 20:52:16.
