data_PCOD8269029
_publ_section_title
;
Structure prediction by ZEFSAII (Michael W. Deem and Ramdas Pophale) SiO2 
 PCOD8269029
Probable space group: C M M M
;
_chemical_formula_sum "Si O2"
_cell_formula_units_Z 104
_cell_length_a 27.663837
_cell_length_b 23.183750
_cell_length_c 8.141394
_cell_angle_alpha 90.000000
_cell_angle_beta 90.000000
_cell_angle_gamma 90.000000
_cell_volume 5221.495100
_symmetry_space_group_name_H-M "C M M M"
_symmetry_group_IT_number 65
_symmetry_cell_setting 'orthorhombic'
loop_
_space_group_symop_operation_xyz
x,y,z
-x,-y,z
x,-y,-z
-x,y,-z
-x,-y,-z
x,y,-z
-x,y,z
x,-y,z
1/2+x,1/2+y,z
1/2-x,1/2-y,z
1/2+x,1/2-y,-z
1/2-x,1/2+y,-z
1/2-x,1/2-y,-z
1/2+x,1/2+y,-z
1/2-x,1/2+y,z
1/2+x,1/2-y,z
loop_
_atom_site_type_symbol
_atom_site_label
_atom_site_fract_x
_atom_site_fract_y
_atom_site_fract_z
Si Si1 0.054023 0.568787 0.000000
Si Si2 0.378903 0.435689 0.306083
Si Si3 0.862894 0.758254 0.805849
Si Si4 0.554392 0.332760 0.693736
Si Si5 0.703197 0.639297 0.194335
Si Si6 0.609010 0.932017 0.681862
Si Si7 0.187650 0.358356 0.195777
O O1 0.077487 0.594195 0.167472
O O2 0.057338 0.500000 0.000000
O O3 0.000000 0.591669 0.000000
O O4 0.382844 0.436562 0.500000
O O5 0.389684 0.500000 0.236032
O O6 0.417685 0.389360 0.233965
O O7 0.324379 0.417959 0.255528
O O8 0.916467 0.774383 0.740782
O O9 0.825287 0.805348 0.736570
O O10 0.843783 0.696603 0.743492
O O11 0.863878 0.759283 0.000000
O O12 0.551435 0.337647 0.500000
O O13 0.500000 0.330121 0.767828
O O14 0.757662 0.643657 0.262209
O O15 0.704462 0.639606 0.000000
O O16 0.591580 0.910741 0.500000
O O17 0.664005 0.913494 0.716386
O O18 0.606110 0.000000 0.687058
O O19 0.186347 0.364676 0.000000
#
# Coordination Sequence:
#
# PCOD8269029 Si02
#       7
#     8  16  16  16  16  16  16
#     4   9  18  36  60  80 103 136 172 214 261 312
#     4   9  18  32  49  72 104 138 175 220 264 314
#     4   9  18  33  53  76 101 132 176 225 269 319
#     4   9  18  33  52  73 100 136 175 218 270 321
#     4   9  18  32  51  75 102 136 177 220 268 318
#     4  10  21  36  55  82 113 142 176 220 269 323
#     4  10  19  33  54  76 104 143 180 219 269 325
#
# _framework density 19.917666000000001
#
# number of rings (size 3 to 8) (size 9 to 14) (size 15 to 20)
#    0.000    2.692    0.769    0.462    0.000    4.923 
#    0.000    6.923    0.000    4.615    0.000    4.308 
#    0.000    0.000    0.000    0.000    0.000    0.000 
#
# Total GULP energy -644481.537270 kJ/mol
# GULP energy per Si atom -12393.875717 kJ/mol
# Density = 1.987233 g / cm^3
# Si number density = 19.917666 Si / 1000 Ang^3
#
#
#
# Elastic Constant Matrix: (Units=GPa)
#
#
# Indices 1 2 3 4 5 6 
#
# 1 164.4190 36.7435 38.5453 0.0000 0.0000 0.0000
# 2 36.7435 14.9027 14.5640 0.0000 0.0000 0.0000
# 3 38.5453 14.5640 62.8224 0.0000 0.0000 0.0000
# 4 0.0000 0.0000 0.0000 23.1879 0.0000 0.0000
# 5 0.0000 0.0000 0.0000 0.0000 22.3875 0.0000
# 6 0.0000 0.0000 0.0000 0.0000 0.0000 23.3700
#
#
#
# Elastic Compliance Matrix: (Units=1/GPa)
#
#
# Indices 1 2 3 4 5 6 
#
# 1 0.013572 -0.032742 -0.000736 0.000000 0.000000 0.000000
# 2 -0.032742 0.165750 -0.018336 0.000000 0.000000 0.000000
# 3 -0.000736 -0.018336 0.020621 0.000000 0.000000 0.000000
# 4 0.000000 0.000000 0.000000 0.043126 0.000000 0.000000
# 5 0.000000 0.000000 0.000000 0.000000 0.044668 0.000000
# 6 0.000000 0.000000 0.000000 0.000000 0.000000 0.042790
#
#
# Mechanical properties :
#
#
# Convention : Reuss Voigt Hill
#
# Bulk Modulus (GPa) = 10.38290 46.87219 28.62755
# Shear Modulus (GPa) = 10.72363 23.94182 17.33273
#
# Velocity S-wave (km/s) = 2.32286 3.47081 2.95315
# Velocity P-wave (km/s) = 3.52398 6.29651 5.10218
#
# Compressibility (1/GPa) = 0.09631218
#
# Stress axis : x y z
#
# Youngs Moduli (GPa) = 73.68243 6.03319 48.49510
#
# Poissons Ratio (x) = 0.19754 0.03572
# Poissons Ratio (y) = 2.41253 0.88922
# Poissons Ratio (z) = 0.05427 0.11063
#
# Static dielectric constant tensor:
#      x y z
#    x 3.863240 0.000000 0.000000 
#    y 0.000000 3.661230 0.000000 
#    z 0.000000 0.000000 3.588710 
# 
# 
# High freq. dielectric constant tensor:
#      x y z
#    x 1.774810 0.000000 0.000000 
#    y 0.000000 1.762590 0.000000 
#    z 0.000000 0.000000 1.764290 
# 
# From -- ./inp_files/16737.got.cif
#   From: 2010.03.12/outbox.cif.g09.slc.cpg/sg65_9_cif.got.tgz:16737.got - 2010.04.10 20:52:16.
