data_PCOD8269317
_publ_section_title
;
Structure prediction by ZEFSAII (Michael W. Deem and Ramdas Pophale) SiO2 
 PCOD8269317
Probable space group: C M M M
;
_chemical_formula_sum "Si O2"
_cell_formula_units_Z 88
_cell_length_a 27.609074
_cell_length_b 19.055852
_cell_length_c 8.867817
_cell_angle_alpha 90.000000
_cell_angle_beta 90.000000
_cell_angle_gamma 90.000000
_cell_volume 4665.486469
_symmetry_space_group_name_H-M "C M M M"
_symmetry_group_IT_number 65
_symmetry_cell_setting 'orthorhombic'
loop_
_space_group_symop_operation_xyz
x,y,z
-x,-y,z
x,-y,-z
-x,y,-z
-x,-y,-z
x,y,-z
-x,y,z
x,-y,z
1/2+x,1/2+y,z
1/2-x,1/2-y,z
1/2+x,1/2-y,-z
1/2-x,1/2+y,-z
1/2-x,1/2-y,-z
1/2+x,1/2+y,-z
1/2-x,1/2+y,z
1/2+x,1/2-y,z
loop_
_atom_site_type_symbol
_atom_site_label
_atom_site_fract_x
_atom_site_fract_y
_atom_site_fract_z
Si Si1 0.447771 0.690000 0.171338
Si Si2 0.500000 0.080311 0.664015
Si Si3 0.157132 0.172615 0.824497
Si Si4 0.319903 0.184199 0.677716
Si Si5 0.745090 0.580240 0.825298
Si Si6 0.082538 0.347458 0.828657
O O1 0.500000 0.667933 0.248739
O O2 0.397544 0.659253 0.243642
O O3 0.444454 0.773501 0.181222
O O4 0.450573 0.663983 0.000000
O O5 0.500000 0.119948 0.500000
O O6 0.452756 0.095269 0.761484
O O7 0.500000 0.000000 0.627485
O O8 0.184666 0.237908 0.747320
O O9 0.188895 0.102834 0.802928
O O10 0.151081 0.193742 0.000000
O O11 0.317469 0.192021 0.500000
O O12 0.277178 0.133006 0.729172
O O13 0.369661 0.149231 0.728266
O O14 0.750708 0.500000 0.768824
O O15 0.759853 0.586745 0.000000
O O16 0.096173 0.366591 0.000000
#
# Coordination Sequence:
#
# PCOD8269317 Si02
#       6
#    16   8  16  16  16  16
#     4   8  13  25  49  78 101 124 161 209 255 300
#     4  11  23  35  47  69 105 143 176 217 266 313
#     4   9  18  33  55  80 106 139 179 222 266 318
#     4  11  22  35  54  80 107 136 173 225 280 325
#     4  10  21  37  55  75 103 142 185 224 266 323
#     4  10  19  34  54  74  98 134 178 219 259 311
#
# _framework density 18.861913000000001
#
# number of rings (size 3 to 8) (size 9 to 14) (size 15 to 20)
#    0.000    2.273    0.909    4.091    0.000    4.727 
#    0.000    0.000    0.000    0.545    0.000    3.818 
#    0.000    0.000    0.000    6.364    0.000    8.000 
#
# Total GULP energy -545231.129108 kJ/mol
# GULP energy per Si atom -12391.616571 kJ/mol
# Density = 1.881898 g / cm^3
# Si number density = 18.861913 Si / 1000 Ang^3
#
#
#
# Elastic Constant Matrix: (Units=GPa)
#
#
# Indices 1 2 3 4 5 6 
#
# 1 120.3840 38.2245 28.4451 0.0000 0.0000 0.0000
# 2 38.2245 51.8096 24.4381 0.0000 0.0000 0.0000
# 3 28.4451 24.4381 75.2358 0.0000 0.0000 0.0000
# 4 0.0000 0.0000 0.0000 11.0390 0.0000 0.0000
# 5 0.0000 0.0000 0.0000 0.0000 12.5699 0.0000
# 6 0.0000 0.0000 0.0000 0.0000 0.0000 13.3175
#
#
#
# Elastic Compliance Matrix: (Units=1/GPa)
#
#
# Indices 1 2 3 4 5 6 
#
# 1 0.011052 -0.007302 -0.001807 0.000000 0.000000 0.000000
# 2 -0.007302 0.027618 -0.006210 0.000000 0.000000 0.000000
# 3 -0.001807 -0.006210 0.015992 0.000000 0.000000 0.000000
# 4 0.000000 0.000000 0.000000 0.090588 0.000000 0.000000
# 5 0.000000 0.000000 0.000000 0.000000 0.079555 0.000000
# 6 0.000000 0.000000 0.000000 0.000000 0.000000 0.075089
#
#
# Mechanical properties :
#
#
# Convention : Reuss Voigt Hill
#
# Bulk Modulus (GPa) = 41.62462 47.73832 44.68147
# Shear Modulus (GPa) = 14.76932 17.80673 16.28802
#
# Velocity S-wave (km/s) = 2.80129 3.07589 2.94179
# Velocity P-wave (km/s) = 5.70780 6.16272 5.93961
#
# Compressibility (1/GPa) = 0.02402424
#
# Stress axis : x y z
#
# Youngs Moduli (GPa) = 90.47974 36.20827 62.53192
#
# Poissons Ratio (x) = 0.26439 0.11298
# Poissons Ratio (y) = 0.66068 0.38833
# Poissons Ratio (z) = 0.16348 0.22486
#
# Static dielectric constant tensor:
#      x y z
#    x 4.285020 0.000000 0.000000 
#    y 0.000000 3.136390 0.000000 
#    z 0.000000 0.000000 3.292900 
# 
# 
# High freq. dielectric constant tensor:
#      x y z
#    x 1.755200 0.000000 0.000000 
#    y 0.000000 1.693710 0.000000 
#    z 0.000000 0.000000 1.710970 
# 
# From -- ./inp_files/16311.got.cif
#   From: 2010.03.12/outbox.cif.g09.slc.cpg/sg65_9_cif.got.tgz:16311.got - 2010.04.10 20:52:16.
