data_PCOD8269137
_publ_section_title
;
Structure prediction by ZEFSAII (Michael W. Deem and Ramdas Pophale) SiO2 
 PCOD8269137
Probable space group: C M M M
;
_chemical_formula_sum "Si O2"
_cell_formula_units_Z 88
_cell_length_a 8.976292
_cell_length_b 18.075186
_cell_length_c 28.334427
_cell_angle_alpha 90.000000
_cell_angle_beta 90.000000
_cell_angle_gamma 90.000000
_cell_volume 4597.208291
_symmetry_space_group_name_H-M "C M M M"
_symmetry_group_IT_number 65
_symmetry_cell_setting 'orthorhombic'
loop_
_space_group_symop_operation_xyz
x,y,z
-x,-y,z
x,-y,-z
-x,y,-z
-x,-y,-z
x,y,-z
-x,y,z
x,-y,z
1/2+x,1/2+y,z
1/2-x,1/2-y,z
1/2+x,1/2-y,-z
1/2-x,1/2+y,-z
1/2-x,1/2-y,-z
1/2+x,1/2+y,-z
1/2-x,1/2+y,z
1/2+x,1/2-y,z
loop_
_atom_site_type_symbol
_atom_site_label
_atom_site_fract_x
_atom_site_fract_y
_atom_site_fract_z
Si Si1 0.323064 0.083042 0.908224
Si Si2 0.176206 0.329466 0.816613
Si Si3 0.322960 0.829608 0.000000
Si Si4 0.671406 0.413897 0.266251
Si Si5 0.326483 0.326856 0.639981
Si Si6 0.323032 0.417162 0.447718
O O1 0.500000 0.079338 0.908458
O O2 0.265162 0.125338 0.861927
O O3 0.265643 0.126023 0.954305
O O4 0.256750 0.000000 0.908310
O O5 0.250000 0.250000 0.817050
O O6 0.221248 0.373125 0.769981
O O7 0.000000 0.319566 0.817531
O O8 0.250000 0.750000 0.000000
O O9 0.500000 0.820736 0.000000
O O10 0.500000 0.398922 0.252274
O O11 0.709876 0.500000 0.265627
O O12 0.705917 0.384180 0.318281
O O13 0.500000 0.311207 0.634132
O O14 0.250000 0.250000 0.652086
O O15 0.258437 0.361730 0.591823
O O16 0.275128 0.389336 0.500000
O O17 0.500000 0.419855 0.443445
O O18 0.260553 0.500000 0.439144
#
# Coordination Sequence:
#
# PCOD8269137 Si02
#       6
#    16  16   8  16  16  16
#     4   9  18  33  54  79 104 134 174 215 254 301
#     4  11  22  36  55  79 108 139 173 214 258 307
#     4  10  19  33  55  79 105 136 170 210 256 306
#     4  10  21  37  56  77 102 134 173 216 261 308
#     4  10  20  33  50  74 103 133 166 206 252 302
#     4   8  14  27  49  74  97 125 165 209 249 293
#
# _framework density 19.142052
#
# number of rings (size 3 to 8) (size 9 to 14) (size 15 to 20)
#    0.000    2.364    0.000    3.545    0.000    6.909 
#    0.000    0.909    0.000    4.909    0.000    1.273 
#    0.000    0.000    0.000    0.000    0.000    0.000 
#
# Total GULP energy -545631.148268 kJ/mol
# GULP energy per Si atom -12400.707915 kJ/mol
# Density = 1.909848 g / cm^3
# Si number density = 19.142052 Si / 1000 Ang^3
#
#
#
# Elastic Constant Matrix: (Units=GPa)
#
#
# Indices 1 2 3 4 5 6 
#
# 1 37.0800 38.9456 37.4499 0.0000 0.0000 0.0000
# 2 38.9456 163.4811 75.6489 0.0000 0.0000 0.0000
# 3 37.4499 75.6489 143.7301 0.0000 0.0000 0.0000
# 4 0.0000 0.0000 0.0000 34.2143 0.0000 0.0000
# 5 0.0000 0.0000 0.0000 0.0000 21.0547 0.0000
# 6 0.0000 0.0000 0.0000 0.0000 0.0000 20.9577
#
#
#
# Elastic Compliance Matrix: (Units=1/GPa)
#
#
# Indices 1 2 3 4 5 6 
#
# 1 0.041101 -0.006393 -0.007344 0.000000 0.000000 0.000000
# 2 -0.006393 0.009081 -0.003114 0.000000 0.000000 0.000000
# 3 -0.007344 -0.003114 0.010510 0.000000 0.000000 0.000000
# 4 0.000000 0.000000 0.000000 0.029228 0.000000 0.000000
# 5 0.000000 0.000000 0.000000 0.000000 0.047495 0.000000
# 6 0.000000 0.000000 0.000000 0.000000 0.000000 0.047715
#
#
# Mechanical properties :
#
#
# Convention : Reuss Voigt Hill
#
# Bulk Modulus (GPa) = 37.05125 72.04222 54.54673
# Shear Modulus (GPa) = 21.94637 28.06178 25.00408
#
# Velocity S-wave (km/s) = 3.38967 3.83296 3.61811
# Velocity P-wave (km/s) = 5.89218 7.57008 6.78321
#
# Compressibility (1/GPa) = 0.02698965
#
# Stress axis : x y z
#
# Youngs Moduli (GPa) = 24.33036 110.12382 95.14779
#
# Poissons Ratio (x) = 0.70400 0.69881
# Poissons Ratio (y) = 0.15554 0.29626
# Poissons Ratio (z) = 0.17869 0.34289
#
# Static dielectric constant tensor:
#      x y z
#    x 3.085410 0.000000 0.000000 
#    y 0.000000 3.646900 0.000000 
#    z 0.000000 0.000000 3.851050 
# 
# 
# High freq. dielectric constant tensor:
#      x y z
#    x 1.699650 0.000000 0.000000 
#    y 0.000000 1.757780 0.000000 
#    z 0.000000 0.000000 1.763850 
# 
# From -- ./inp_files/76554.got.cif
#   From: 2010.03.12/outbox.cif.g09.slc.cpg/sg65_39_cif.got.tgz:76554.got - 2010.04.10 20:52:16.
