data_PCOD8269665
_publ_section_title
;
Structure prediction by ZEFSAII (Michael W. Deem and Ramdas Pophale) SiO2 
 PCOD8269665
Probable space group: C M M M
;
_chemical_formula_sum "Si O2"
_cell_formula_units_Z 80
_cell_length_a 28.011383
_cell_length_b 14.545219
_cell_length_c 11.718214
_cell_angle_alpha 90.000000
_cell_angle_beta 90.000000
_cell_angle_gamma 90.000000
_cell_volume 4774.371854
_symmetry_space_group_name_H-M "C M M M"
_symmetry_group_IT_number 65
_symmetry_cell_setting 'orthorhombic'
loop_
_space_group_symop_operation_xyz
x,y,z
-x,-y,z
x,-y,-z
-x,y,-z
-x,-y,-z
x,y,-z
-x,y,z
x,-y,z
1/2+x,1/2+y,z
1/2-x,1/2-y,z
1/2+x,1/2-y,-z
1/2-x,1/2+y,-z
1/2-x,1/2-y,-z
1/2+x,1/2+y,-z
1/2-x,1/2+y,z
1/2+x,1/2-y,z
loop_
_atom_site_type_symbol
_atom_site_label
_atom_site_fract_x
_atom_site_fract_y
_atom_site_fract_z
Si Si1 0.626877 0.184584 0.135199
Si Si2 0.280695 0.500000 0.128754
Si Si3 0.298801 0.310221 0.748384
Si Si4 0.694393 0.264623 0.500000
Si Si5 0.054528 0.606240 0.717377
Si Si6 0.619125 0.895000 0.500000
Si Si7 0.830736 0.500000 0.125880
O O1 0.657334 0.268361 0.181809
O O2 0.572970 0.176213 0.183545
O O3 0.651868 0.092421 0.187656
O O4 0.626383 0.191727 0.000000
O O5 0.294454 0.589028 0.200418
O O6 0.224955 0.500000 0.115257
O O7 0.303217 0.500000 0.000000
O O8 0.250000 0.250000 0.762403
O O9 0.316159 0.319912 0.616788
O O10 0.750000 0.250000 0.500000
O O11 0.665979 0.168436 0.500000
O O12 0.058806 0.500000 0.757275
O O13 0.086034 0.626466 0.607123
O O14 0.000000 0.631245 0.689764
O O15 0.637540 0.000000 0.500000
O O16 0.854099 0.500000 0.000000
#
# Coordination Sequence:
#
# PCOD8269665 Si02
#       7
#    16   8  16   8  16   8   8
#     4  11  20  32  52  77 109 148 184 223 270 327
#     4  11  22  35  55  80 108 147 188 231 274 319
#     4  11  22  37  54  77 111 144 190 230 270 332
#     4  10  22  38  51  80 109 147 184 223 275 317
#     4  10  20  33  52  79 110 145 187 230 272 323
#     4  10  19  36  59  78 108 153 191 221 266 327
#     4   9  18  30  48  73 103 147 190 214 258 317
#
# _framework density 16.756131
#
# number of rings (size 3 to 8) (size 9 to 14) (size 15 to 20)
#    0.000    1.600    5.000    0.900    0.000    2.800 
#    7.200    1.000    0.000    0.000    0.000    0.700 
#    0.000    4.000    0.000    0.000    0.000    0.000 
#
# Total GULP energy -495698.337454 kJ/mol
# GULP energy per Si atom -12392.458436 kJ/mol
# Density = 1.671799 g / cm^3
# Si number density = 16.756131 Si / 1000 Ang^3
#
#
#
# Elastic Constant Matrix: (Units=GPa)
#
#
# Indices 1 2 3 4 5 6 
#
# 1 98.1492 41.1784 43.1956 0.0000 0.0000 0.0000
# 2 41.1784 104.9285 54.0391 0.0000 0.0000 0.0000
# 3 43.1956 54.0391 134.9564 0.0000 0.0000 0.0000
# 4 0.0000 0.0000 0.0000 28.1595 0.0000 0.0000
# 5 0.0000 0.0000 0.0000 0.0000 14.0403 0.0000
# 6 0.0000 0.0000 0.0000 0.0000 0.0000 4.6017
#
#
#
# Elastic Compliance Matrix: (Units=1/GPa)
#
#
# Indices 1 2 3 4 5 6 
#
# 1 0.012907 -0.003701 -0.002649 0.000000 0.000000 0.000000
# 2 -0.003701 0.013067 -0.004048 0.000000 0.000000 0.000000
# 3 -0.002649 -0.004048 0.009879 0.000000 0.000000 0.000000
# 4 0.000000 0.000000 0.000000 0.035512 0.000000 0.000000
# 5 0.000000 0.000000 0.000000 0.000000 0.071224 0.000000
# 6 0.000000 0.000000 0.000000 0.000000 0.000000 0.217313
#
#
# Mechanical properties :
#
#
# Convention : Reuss Voigt Hill
#
# Bulk Modulus (GPa) = 66.41418 68.31781 67.36599
# Shear Modulus (GPa) = 12.96287 22.66836 17.81561
#
# Velocity S-wave (km/s) = 2.78442 3.68209 3.26426
# Velocity P-wave (km/s) = 7.07525 7.67707 7.38229
#
# Compressibility (1/GPa) = 0.01505703
#
# Stress axis : x y z
#
# Youngs Moduli (GPa) = 77.47572 76.52636 101.22880
#
# Poissons Ratio (x) = 0.28322 0.26819
# Poissons Ratio (y) = 0.28673 0.40976
# Poissons Ratio (z) = 0.20526 0.30977
#
# Static dielectric constant tensor:
#      x y z
#    x 3.124300 0.000000 0.000000 
#    y 0.000000 2.986150 0.000000 
#    z 0.000000 0.000000 3.643500 
# 
# 
# High freq. dielectric constant tensor:
#      x y z
#    x 1.632220 0.000000 0.000000 
#    y 0.000000 1.614760 0.000000 
#    z 0.000000 0.000000 1.665210 
# 
# From -- ./inp_files/33587.got.cif
#   From: 2010.03.12/outbox.cif.g09.slc.cpg/sg65_17_cif.got.tgz:33587.got - 2010.04.10 20:52:16.
