data_PCOD8269633
_publ_section_title
;
Structure prediction by ZEFSAII (Michael W. Deem and Ramdas Pophale) SiO2 
 PCOD8269633
Probable space group: C M M M
;
_chemical_formula_sum "Si O2"
_cell_formula_units_Z 48
_cell_length_a 38.343758
_cell_length_b 8.774707
_cell_length_c 7.562925
_cell_angle_alpha 90.000000
_cell_angle_beta 90.000000
_cell_angle_gamma 90.000000
_cell_volume 2544.585759
_symmetry_space_group_name_H-M "C M M M"
_symmetry_group_IT_number 65
_symmetry_cell_setting 'orthorhombic'
loop_
_space_group_symop_operation_xyz
x,y,z
-x,-y,z
x,-y,-z
-x,y,-z
-x,-y,-z
x,y,-z
-x,y,z
x,-y,z
1/2+x,1/2+y,z
1/2-x,1/2-y,z
1/2+x,1/2-y,-z
1/2-x,1/2+y,-z
1/2-x,1/2-y,-z
1/2+x,1/2+y,-z
1/2-x,1/2+y,z
1/2+x,1/2-y,z
loop_
_atom_site_type_symbol
_atom_site_label
_atom_site_fract_x
_atom_site_fract_y
_atom_site_fract_z
Si Si1 0.539169 0.682053 0.000000
Si Si2 0.334008 0.322709 0.203164
Si Si3 0.410748 0.318821 0.302854
Si Si4 0.712123 0.820778 0.500000
O O1 0.559227 0.744237 0.826655
O O2 0.538681 0.500000 0.000000
O O3 0.500000 0.747939 0.000000
O O4 0.331406 0.500000 0.254499
O O5 0.373099 0.261627 0.236947
O O6 0.307693 0.229411 0.323513
O O7 0.323750 0.295118 0.000000
O O8 0.418187 0.256920 0.500000
O O9 0.411100 0.500000 0.298926
O O10 0.750000 0.750000 0.500000
O O11 0.715830 0.000000 0.500000
#
# Coordination Sequence:
#
# PCOD8269633 Si02
#       4
#     8  16  16   8
#     4   9  16  24  36  66 112 151 182 223 278 333
#     4  10  19  35  61  86 110 147 192 234 280 336
#     4   9  15  25  45  71 101 142 187 226 271 328
#     4  12  26  42  60  84 117 148 181 229 284 337
#
# _framework density 18.863581
#
# number of rings (size 3 to 8) (size 9 to 14) (size 15 to 20)
#    0.000    2.167    3.333    1.500    0.000    2.000 
#    0.000    3.333    0.000    0.000    0.000    0.000 
#    0.000    4.000    0.000    0.000    0.000    0.000 
#
# Total GULP energy -297589.279306 kJ/mol
# GULP energy per Si atom -12399.553304 kJ/mol
# Density = 1.882065 g / cm^3
# Si number density = 18.863581 Si / 1000 Ang^3
#
#
#
# Elastic Constant Matrix: (Units=GPa)
#
#
# Indices 1 2 3 4 5 6 
#
# 1 179.4504 47.1663 87.9763 0.0000 0.0000 0.0000
# 2 47.1663 54.7273 42.2824 0.0000 0.0000 0.0000
# 3 87.9763 42.2824 163.8901 0.0000 0.0000 0.0000
# 4 0.0000 0.0000 0.0000 17.8794 0.0000 0.0000
# 5 0.0000 0.0000 0.0000 0.0000 33.9490 0.0000
# 6 0.0000 0.0000 0.0000 0.0000 0.0000 14.6532
#
#
#
# Elastic Compliance Matrix: (Units=1/GPa)
#
#
# Indices 1 2 3 4 5 6 
#
# 1 0.008434 -0.004710 -0.003313 0.000000 0.000000 0.000000
# 2 -0.004710 0.025451 -0.004038 0.000000 0.000000 0.000000
# 3 -0.003313 -0.004038 0.008922 0.000000 0.000000 0.000000
# 4 0.000000 0.000000 0.000000 0.055930 0.000000 0.000000
# 5 0.000000 0.000000 0.000000 0.000000 0.029456 0.000000
# 6 0.000000 0.000000 0.000000 0.000000 0.000000 0.068244
#
#
# Mechanical properties :
#
#
# Convention : Reuss Voigt Hill
#
# Bulk Modulus (GPa) = 53.51425 83.65753 68.58589
# Shear Modulus (GPa) = 22.04707 28.00587 25.02647
#
# Velocity S-wave (km/s) = 3.42243 3.85730 3.64635
# Velocity P-wave (km/s) = 6.63687 8.01769 7.35973
#
# Compressibility (1/GPa) = 0.01868661
#
# Stress axis : x y z
#
# Youngs Moduli (GPa) = 118.56081 39.29061 112.08791
#
# Poissons Ratio (x) = 0.18506 0.37129
# Poissons Ratio (y) = 0.55841 0.45261
# Poissons Ratio (z) = 0.39273 0.15865
#
# Static dielectric constant tensor:
#      x y z
#    x 3.826350 0.000000 0.000000 
#    y 0.000000 2.873710 0.000000 
#    z 0.000000 0.000000 3.793880 
# 
# 
# High freq. dielectric constant tensor:
#      x y z
#    x 1.736850 0.000000 0.000000 
#    y 0.000000 1.669290 0.000000 
#    z 0.000000 0.000000 1.753470 
# 
# From -- ./inp_files/17538.got.cif
#   From: 2010.03.12/outbox.cif.g09.slc.cpg/sg65_9_cif.got.tgz:17538.got - 2010.04.10 20:52:16.
