data_PCOD8269741
_publ_section_title
;
Structure prediction by ZEFSAII (Michael W. Deem and Ramdas Pophale) SiO2 
 PCOD8269741
Probable space group: C M M M
;
_chemical_formula_sum "Si O2"
_cell_formula_units_Z 96
_cell_length_a 25.937983
_cell_length_b 22.136971
_cell_length_c 8.719148
_cell_angle_alpha 90.000000
_cell_angle_beta 90.000000
_cell_angle_gamma 90.000000
_cell_volume 5006.433443
_symmetry_space_group_name_H-M "C M M M"
_symmetry_group_IT_number 65
_symmetry_cell_setting 'orthorhombic'
loop_
_space_group_symop_operation_xyz
x,y,z
-x,-y,z
x,-y,-z
-x,y,-z
-x,-y,-z
x,y,-z
-x,y,z
x,-y,z
1/2+x,1/2+y,z
1/2-x,1/2-y,z
1/2+x,1/2-y,-z
1/2-x,1/2+y,-z
1/2-x,1/2-y,-z
1/2+x,1/2+y,-z
1/2-x,1/2+y,z
1/2+x,1/2-y,z
loop_
_atom_site_type_symbol
_atom_site_label
_atom_site_fract_x
_atom_site_fract_y
_atom_site_fract_z
Si Si1 0.585194 0.000000 0.682532
Si Si2 0.356293 0.657424 0.317951
Si Si3 0.944284 0.371402 0.318037
Si Si4 0.649415 0.793746 0.682946
Si Si5 0.243342 0.625566 0.682718
Si Si6 0.441217 0.568670 0.818993
Si Si7 0.299247 0.000000 0.682640
O O1 0.557605 0.939926 0.745311
O O2 0.643088 0.000000 0.744732
O O3 0.584289 0.000000 0.500000
O O4 0.358881 0.654347 0.500000
O O5 0.360296 0.726050 0.257562
O O6 0.300868 0.635904 0.255516
O O7 0.402239 0.616095 0.255768
O O8 0.937650 0.372251 0.500000
O O9 0.898044 0.332208 0.247649
O O10 0.000000 0.343736 0.271600
O O11 0.649657 0.794686 0.500000
O O12 0.703357 0.822845 0.742360
O O13 0.242343 0.626744 0.500000
O O14 0.227901 0.559980 0.747056
O O15 0.500000 0.584052 0.768393
O O16 0.427637 0.500000 0.766784
O O17 0.436111 0.573948 0.000000
O O18 0.297885 0.000000 0.500000
#
# Coordination Sequence:
#
# PCOD8269741 Si02
#       7
#     8  16  16  16  16  16   8
#     4   9  13  20  31  46  72 112 160 202 234 265
#     4  10  20  30  49  78 103 126 158 201 243 287
#     4   9  15  21  31  48  74 114 163 203 231 269
#     4   9  16  27  39  58  95 137 164 189 236 293
#     4   9  16  26  40  62  96 132 165 198 239 288
#     4   9  20  40  60  74  94 127 162 197 245 305
#     4   9  14  21  36  55  80 120 165 203 232 271
#
# _framework density 19.175326999999999
#
# number of rings (size 3 to 8) (size 9 to 14) (size 15 to 20)
#    0.000    2.833    1.667    1.250    1.167    4.333 
#    0.000    2.500    0.000    2.000    0.000    0.000 
#    0.000    0.000    0.000    0.000    0.000   10.083 
#
# Total GULP energy -594794.329102 kJ/mol
# GULP energy per Si atom -12391.548523 kJ/mol
# Density = 1.913168 g / cm^3
# Si number density = 19.175327 Si / 1000 Ang^3
#
#
#
# Elastic Constant Matrix: (Units=GPa)
#
#
# Indices 1 2 3 4 5 6 
#
# 1 176.7645 96.0692 15.2713 0.0000 0.0000 0.0000
# 2 96.0692 163.1997 15.1044 0.0000 0.0000 0.0000
# 3 15.2713 15.1044 9.3867 0.0000 0.0000 0.0000
# 4 0.0000 0.0000 0.0000 9.4390 0.0000 0.0000
# 5 0.0000 0.0000 0.0000 0.0000 9.2627 0.0000
# 6 0.0000 0.0000 0.0000 0.0000 0.0000 31.0223
#
#
#
# Elastic Compliance Matrix: (Units=1/GPa)
#
#
# Indices 1 2 3 4 5 6 
#
# 1 0.008687 -0.004472 -0.006937 0.000000 0.000000 0.000000
# 2 -0.004472 0.009501 -0.008014 0.000000 0.000000 0.000000
# 3 -0.006937 -0.008014 0.130716 0.000000 0.000000 0.000000
# 4 0.000000 0.000000 0.000000 0.105943 0.000000 0.000000
# 5 0.000000 0.000000 0.000000 0.000000 0.107960 0.000000
# 6 0.000000 0.000000 0.000000 0.000000 0.000000 0.032235
#
#
# Mechanical properties :
#
#
# Convention : Reuss Voigt Hill
#
# Bulk Modulus (GPa) = 9.08612 66.91564 38.00088
# Shear Modulus (GPa) = 10.62531 24.80519 17.71525
#
# Velocity S-wave (km/s) = 2.35652 3.60057 3.04280
# Velocity P-wave (km/s) = 3.48611 7.22897 5.67498
#
# Compressibility (1/GPa) = 0.11005792
#
# Stress axis : x y z
#
# Youngs Moduli (GPa) = 115.11730 105.24766 7.65017
#
# Poissons Ratio (x) = 0.47062 0.05307
# Poissons Ratio (y) = 0.51475 0.06131
# Poissons Ratio (z) = 0.79861 0.84348
#
# Static dielectric constant tensor:
#      x y z
#    x 3.787710 0.000000 0.000000 
#    y 0.000000 3.808720 0.000000 
#    z 0.000000 0.000000 2.675810 
# 
# 
# High freq. dielectric constant tensor:
#      x y z
#    x 1.763270 0.000000 0.000000 
#    y 0.000000 1.757800 0.000000 
#    z 0.000000 0.000000 1.657660 
# 
# From -- ./inp_files/14337.got.cif
#   From: 2010.03.12/outbox.cif.g09.slc.cpg/sg65_8_cif.got.tgz:14337.got - 2010.04.10 20:52:16.
