data_PCOD8269657
_publ_section_title
;
Structure prediction by ZEFSAII (Michael W. Deem and Ramdas Pophale) SiO2 
 PCOD8269657
Probable space group: C M M M
;
_chemical_formula_sum "Si O2"
_cell_formula_units_Z 88
_cell_length_a 27.263432
_cell_length_b 19.273496
_cell_length_c 8.592329
_cell_angle_alpha 90.000000
_cell_angle_beta 90.000000
_cell_angle_gamma 90.000000
_cell_volume 4514.939353
_symmetry_space_group_name_H-M "C M M M"
_symmetry_group_IT_number 65
_symmetry_cell_setting 'orthorhombic'
loop_
_space_group_symop_operation_xyz
x,y,z
-x,-y,z
x,-y,-z
-x,y,-z
-x,-y,-z
x,y,-z
-x,y,z
x,-y,z
1/2+x,1/2+y,z
1/2-x,1/2-y,z
1/2+x,1/2-y,-z
1/2-x,1/2+y,-z
1/2-x,1/2-y,-z
1/2+x,1/2+y,-z
1/2-x,1/2+y,z
1/2+x,1/2-y,z
loop_
_atom_site_type_symbol
_atom_site_label
_atom_site_fract_x
_atom_site_fract_y
_atom_site_fract_z
Si Si1 0.595565 0.347970 0.316402
Si Si2 0.119944 0.298594 0.182107
Si Si3 0.445131 0.076297 0.815067
Si Si4 0.693498 0.421847 0.685285
Si Si5 0.000000 0.920971 0.816122
Si Si6 0.722241 0.178103 0.674962
O O1 0.591286 0.356234 0.500000
O O2 0.600170 0.267529 0.274390
O O3 0.643605 0.387412 0.250540
O O4 0.547852 0.381157 0.241123
O O5 0.090433 0.364438 0.249946
O O6 0.176711 0.314623 0.210520
O O7 0.110840 0.286410 0.000000
O O8 0.500000 0.091257 0.754185
O O9 0.427735 0.000000 0.756515
O O10 0.444422 0.077435 0.000000
O O11 0.692468 0.419268 0.500000
O O12 0.696955 0.500000 0.749212
O O13 0.741045 0.379918 0.744838
O O14 0.000000 0.000000 0.751875
O O15 0.000000 0.920735 0.000000
O O16 0.704720 0.158531 0.500000
O O17 0.750000 0.250000 0.668856
#
# Coordination Sequence:
#
# PCOD8269657 Si02
#       6
#    16  16  16  16   8  16
#     4  11  22  39  61  86 116 155 200 240 284 344
#     4  11  22  34  56  88 118 148 189 240 294 347
#     4   8  16  33  55  78 108 148 189 227 275 340
#     4   9  18  34  58  83 107 144 195 241 281 336
#     4  11  25  43  61  87 124 157 190 241 297 344
#     4  10  19  36  56  77 109 147 187 232 286 342
#
# _framework density 19.490849000000001
#
# number of rings (size 3 to 8) (size 9 to 14) (size 15 to 20)
#    0.000    2.091    1.818    2.455    1.273    2.545 
#    0.000    0.000    0.000    3.818    0.000    5.091 
#    0.000    0.000    0.000    0.000    0.000    0.000 
#
# Total GULP energy -545589.474360 kJ/mol
# GULP energy per Si atom -12399.760781 kJ/mol
# Density = 1.944649 g / cm^3
# Si number density = 19.490849 Si / 1000 Ang^3
#
#
#
# Elastic Constant Matrix: (Units=GPa)
#
#
# Indices 1 2 3 4 5 6 
#
# 1 133.1347 81.8764 19.6836 0.0000 0.0000 0.0000
# 2 81.8764 166.1617 15.3882 0.0000 0.0000 0.0000
# 3 19.6836 15.3882 30.9423 0.0000 0.0000 0.0000
# 4 0.0000 0.0000 0.0000 14.4113 0.0000 0.0000
# 5 0.0000 0.0000 0.0000 0.0000 -79.4366 0.0000
# 6 0.0000 0.0000 0.0000 0.0000 0.0000 37.9926
#
#
#
# Elastic Compliance Matrix: (Units=1/GPa)
#
#
# Indices 1 2 3 4 5 6 
#
# 1 0.011386 -0.005178 -0.004668 0.000000 0.000000 0.000000
# 2 -0.005178 0.008664 -0.001015 0.000000 0.000000 0.000000
# 3 -0.004668 -0.001015 0.035792 0.000000 0.000000 0.000000
# 4 0.000000 0.000000 0.000000 0.069390 0.000000 0.000000
# 5 0.000000 0.000000 0.000000 0.000000 -0.012589 0.000000
# 6 0.000000 0.000000 0.000000 0.000000 0.000000 0.026321
#
#
# Mechanical properties :
#
#
# Convention : Reuss Voigt Hill
#
# Bulk Modulus (GPa) = 29.30776 62.68170 45.99473
# Shear Modulus (GPa) = 29.05985 8.81281 18.93633
#
# Velocity S-wave (km/s) = 3.86547 2.12869 3.12035
# Velocity P-wave (km/s) = 5.91539 6.18637 6.05239
#
# Compressibility (1/GPa) = 0.03412066
#
# Stress axis : x y z
#
# Youngs Moduli (GPa) = 87.82893 115.42401 27.93904
#
# Poissons Ratio (x) = 0.59767 0.13041
# Poissons Ratio (y) = 0.45478 0.02835
# Poissons Ratio (z) = 0.40997 0.11712
#
# Static dielectric constant tensor:
#      x y z
#    x 3.652920 0.000000 0.000000 
#    y 0.000000 3.920700 0.000000 
#    z 0.000000 0.000000 3.209610 
# 
# 
# High freq. dielectric constant tensor:
#      x y z
#    x 1.767270 0.000000 0.000000 
#    y 0.000000 1.775020 0.000000 
#    z 0.000000 0.000000 1.724840 
# 
# From -- ./inp_files/13957.got.cif
#   From: 2010.03.12/outbox.cif.g09.slc.cpg/sg65_7_cif.got.tgz:13957.got - 2010.04.10 20:52:16.
