data_PCOD8269426
_publ_section_title
;
Structure prediction by ZEFSAII (Michael W. Deem and Ramdas Pophale) SiO2 
 PCOD8269426
Probable space group: C M M M
;
_chemical_formula_sum "Si O2"
_cell_formula_units_Z 96
_cell_length_a 23.641568
_cell_length_b 25.003155
_cell_length_c 8.827152
_cell_angle_alpha 90.000000
_cell_angle_beta 90.000000
_cell_angle_gamma 90.000000
_cell_volume 5217.851266
_symmetry_space_group_name_H-M "C M M M"
_symmetry_group_IT_number 65
_symmetry_cell_setting 'orthorhombic'
loop_
_space_group_symop_operation_xyz
x,y,z
-x,-y,z
x,-y,-z
-x,y,-z
-x,-y,-z
x,y,-z
-x,y,z
x,-y,z
1/2+x,1/2+y,z
1/2-x,1/2-y,z
1/2+x,1/2-y,-z
1/2-x,1/2+y,-z
1/2-x,1/2-y,-z
1/2+x,1/2+y,-z
1/2-x,1/2+y,z
1/2+x,1/2-y,z
loop_
_atom_site_type_symbol
_atom_site_label
_atom_site_fract_x
_atom_site_fract_y
_atom_site_fract_z
Si Si1 0.000000 0.691830 0.820375
Si Si2 0.886377 0.152499 0.678229
Si Si3 0.000000 0.185762 0.178956
Si Si4 0.812879 0.748777 0.679529
Si Si5 0.887323 0.350365 0.321166
Si Si6 0.698281 0.438939 0.675406
Si Si7 0.185078 0.562262 0.175732
O O1 0.053718 0.660160 0.759581
O O2 0.000000 0.753066 0.759606
O O3 0.000000 0.690659 0.000000
O O4 0.897156 0.158183 0.500000
O O5 0.848109 0.200917 0.741313
O O6 0.855384 0.097086 0.719654
O O7 0.945984 0.153566 0.761893
O O8 0.000000 0.185353 0.000000
O O9 0.809073 0.752363 0.500000
O O10 0.750000 0.750000 0.750230
O O11 0.843027 0.694645 0.732216
O O12 0.896901 0.349783 0.500000
O O13 0.863093 0.407231 0.269197
O O14 0.714297 0.430835 0.500000
O O15 0.681684 0.500000 0.711931
O O16 0.752594 0.420180 0.770276
O O17 0.175730 0.500000 0.209411
O O18 0.178950 0.576183 0.000000
#
# Coordination Sequence:
#
# PCOD8269426 Si02
#       7
#     8  16   8  16  16  16  16
#     4  11  23  39  56  77 112 149 182 226 281 334
#     4  10  19  34  56  79 109 145 185 230 276 326
#     4  11  23  37  54  77 110 148 188 229 273 330
#     4   9  17  29  49  79 109 136 170 217 274 327
#     4  11  21  35  58  83 109 142 187 232 270 323
#     4   9  18  34  58  86 112 143 186 233 277 322
#     4  10  21  37  57  82 115 152 183 218 273 333
#
# _framework density 18.398377
#
# number of rings (size 3 to 8) (size 9 to 14) (size 15 to 20)
#    0.000    2.000    1.667    2.500    0.000    5.000 
#    0.000    0.833    0.000    7.500    0.000    0.000 
#    0.000    0.000    0.000    0.000    0.000    0.000 
#
# Total GULP energy -595384.791333 kJ/mol
# GULP energy per Si atom -12403.849819 kJ/mol
# Density = 1.835650 g / cm^3
# Si number density = 18.398377 Si / 1000 Ang^3
#
#
#
# Elastic Constant Matrix: (Units=GPa)
#
#
# Indices 1 2 3 4 5 6 
#
# 1 156.5200 63.4791 44.8145 0.0000 0.0000 0.0000
# 2 63.4791 94.5601 36.7038 0.0000 0.0000 0.0000
# 3 44.8145 36.7038 56.2288 0.0000 0.0000 0.0000
# 4 0.0000 0.0000 0.0000 22.9597 0.0000 0.0000
# 5 0.0000 0.0000 0.0000 0.0000 19.8395 0.0000
# 6 0.0000 0.0000 0.0000 0.0000 0.0000 29.4198
#
#
#
# Elastic Compliance Matrix: (Units=1/GPa)
#
#
# Indices 1 2 3 4 5 6 
#
# 1 0.009596 -0.004652 -0.004611 0.000000 0.000000 0.000000
# 2 -0.004652 0.016419 -0.007010 0.000000 0.000000 0.000000
# 3 -0.004611 -0.007010 0.026036 0.000000 0.000000 0.000000
# 4 0.000000 0.000000 0.000000 0.043555 0.000000 0.000000
# 5 0.000000 0.000000 0.000000 0.000000 0.050405 0.000000
# 6 0.000000 0.000000 0.000000 0.000000 0.000000 0.033991
#
#
# Mechanical properties :
#
#
# Convention : Reuss Voigt Hill
#
# Bulk Modulus (GPa) = 51.27191 66.36709 58.81950
# Shear Modulus (GPa) = 22.82595 25.26456 24.04525
#
# Velocity S-wave (km/s) = 3.52611 3.70969 3.61906
# Velocity P-wave (km/s) = 6.67128 7.38238 7.03582
#
# Compressibility (1/GPa) = 0.01950386
#
# Stress axis : x y z
#
# Youngs Moduli (GPa) = 104.21063 60.90442 38.40877
#
# Poissons Ratio (x) = 0.28332 0.17712
# Poissons Ratio (y) = 0.48478 0.26925
# Poissons Ratio (z) = 0.48056 0.42695
#
# Static dielectric constant tensor:
#      x y z
#    x 3.529850 0.000000 0.000000 
#    y 0.000000 3.451680 0.000000 
#    z 0.000000 0.000000 3.217170 
# 
# 
# High freq. dielectric constant tensor:
#      x y z
#    x 1.717010 0.000000 0.000000 
#    y 0.000000 1.714220 0.000000 
#    z 0.000000 0.000000 1.699420 
# 
# From -- ./inp_files/14367.got.cif
#   From: 2010.03.12/outbox.cif.g09.slc.cpg/sg65_8_cif.got.tgz:14367.got - 2010.04.10 20:52:16.
