data_PCOD8269059
_publ_section_title
;
Structure prediction by ZEFSAII (Michael W. Deem and Ramdas Pophale) SiO2 
 PCOD8269059
Probable space group: C M M M
;
_chemical_formula_sum "Si O2"
_cell_formula_units_Z 88
_cell_length_a 9.039565
_cell_length_b 18.758331
_cell_length_c 28.466283
_cell_angle_alpha 90.000000
_cell_angle_beta 90.000000
_cell_angle_gamma 90.000000
_cell_volume 4826.946547
_symmetry_space_group_name_H-M "C M M M"
_symmetry_group_IT_number 65
_symmetry_cell_setting 'orthorhombic'
loop_
_space_group_symop_operation_xyz
x,y,z
-x,-y,z
x,-y,-z
-x,y,-z
-x,-y,-z
x,y,-z
-x,y,z
x,-y,z
1/2+x,1/2+y,z
1/2-x,1/2-y,z
1/2+x,1/2-y,-z
1/2-x,1/2+y,-z
1/2-x,1/2-y,-z
1/2+x,1/2+y,-z
1/2-x,1/2+y,z
1/2+x,1/2-y,z
loop_
_atom_site_type_symbol
_atom_site_label
_atom_site_fract_x
_atom_site_fract_y
_atom_site_fract_z
Si Si1 0.826171 0.173391 0.284022
Si Si2 0.672939 0.178094 0.552679
Si Si3 0.673335 0.916019 0.000000
Si Si4 0.168623 0.822871 0.817861
Si Si5 0.672499 0.082031 0.638032
Si Si6 0.174787 0.827495 0.919984
O O1 0.750000 0.250000 0.290465
O O2 0.791303 0.139189 0.231854
O O3 0.764567 0.117647 0.320810
O O4 0.000000 0.183577 0.292459
O O5 0.725581 0.157328 0.500000
O O6 0.500000 0.192858 0.553658
O O7 0.750000 0.250000 0.570388
O O8 0.717510 0.114950 0.587779
O O9 0.749264 0.883113 0.954323
O O10 0.500000 0.897820 0.000000
O O11 0.702353 0.000000 0.000000
O O12 0.250000 0.750000 0.820099
O O13 0.201646 0.862094 0.867539
O O14 0.000000 0.800933 0.816050
O O15 0.500000 0.093417 0.648499
O O16 0.716753 0.000000 0.635819
O O17 0.250000 0.750000 0.925650
O O18 0.000000 0.820089 0.931060
#
# Coordination Sequence:
#
# PCOD8269059 Si02
#       6
#    16  16   8  16  16  16
#     4  10  19  33  54  78 104 134 169 208 252 300
#     4   9  18  33  53  75  98 127 165 209 255 302
#     4  11  24  39  52  71 103 139 174 211 252 299
#     4   8  16  30  50  77 103 128 162 206 251 296
#     4  10  21  35  50  72 103 137 173 211 251 298
#     4  10  19  34  57  81 104 131 167 209 253 301
#
# _framework density 18.230986000000001
#
# number of rings (size 3 to 8) (size 9 to 14) (size 15 to 20)
#    0.000    2.455    0.000    2.182    0.000    5.091 
#    0.000    2.727    0.000    5.455    0.000    3.818 
#    0.000    0.000    0.000    0.000    0.000    0.000 
#
# Total GULP energy -545174.112125 kJ/mol
# GULP energy per Si atom -12390.320730 kJ/mol
# Density = 1.818949 g / cm^3
# Si number density = 18.230986 Si / 1000 Ang^3
#
#
#
# Elastic Constant Matrix: (Units=GPa)
#
#
# Indices 1 2 3 4 5 6 
#
# 1 78.3937 55.3510 69.1110 0.0000 0.0000 0.0000
# 2 55.3510 110.2436 85.4937 0.0000 0.0000 0.0000
# 3 69.1110 85.4937 167.6320 0.0000 0.0000 0.0000
# 4 0.0000 0.0000 0.0000 -7.2721 0.0000 0.0000
# 5 0.0000 0.0000 0.0000 0.0000 28.3560 0.0000
# 6 0.0000 0.0000 0.0000 0.0000 0.0000 26.5392
#
#
#
# Elastic Compliance Matrix: (Units=1/GPa)
#
#
# Indices 1 2 3 4 5 6 
#
# 1 0.022812 -0.006882 -0.005895 0.000000 0.000000 0.000000
# 2 -0.006882 0.017082 -0.005875 0.000000 0.000000 0.000000
# 3 -0.005895 -0.005875 0.011392 0.000000 0.000000 0.000000
# 4 0.000000 0.000000 0.000000 -0.137511 0.000000 0.000000
# 5 0.000000 0.000000 0.000000 0.000000 0.035266 0.000000
# 6 0.000000 0.000000 0.000000 0.000000 0.000000 0.037680
#
#
# Mechanical properties :
#
#
# Convention : Reuss Voigt Hill
#
# Bulk Modulus (GPa) = 71.51666 86.24229 78.87947
# Shear Modulus (GPa) = 174.30423 19.27885 96.79154
#
# Velocity S-wave (km/s) = 9.78858 3.25542 7.29432
# Velocity P-wave (km/s) = 12.92549 7.84464 10.69127
#
# Compressibility (1/GPa) = 0.01398276
#
# Stress axis : x y z
#
# Youngs Moduli (GPa) = 43.83607 58.54179 87.78070
#
# Poissons Ratio (x) = 0.40287 0.51748
# Poissons Ratio (y) = 0.30167 0.51568
# Poissons Ratio (z) = 0.25842 0.34391
#
# Static dielectric constant tensor:
#      x y z
#    x 3.458870 0.000000 0.000000 
#    y 0.000000 3.068200 0.000000 
#    z 0.000000 0.000000 4.431440 
# 
# 
# High freq. dielectric constant tensor:
#      x y z
#    x 1.713910 0.000000 0.000000 
#    y 0.000000 1.669670 0.000000 
#    z 0.000000 0.000000 1.735050 
# 
# From -- ./inp_files/76513.got.cif
#   From: 2010.03.12/outbox.cif.g09.slc.cpg/sg65_39_cif.got.tgz:76513.got - 2010.04.10 20:52:16.
