data_PCOD8269413
_publ_section_title
;
Structure prediction by ZEFSAII (Michael W. Deem and Ramdas Pophale) SiO2 
 PCOD8269413
Probable space group: C M M M
;
_chemical_formula_sum "Si O2"
_cell_formula_units_Z 72
_cell_length_a 26.772810
_cell_length_b 15.504070
_cell_length_c 8.811063
_cell_angle_alpha 90.000000
_cell_angle_beta 90.000000
_cell_angle_gamma 90.000000
_cell_volume 3657.362292
_symmetry_space_group_name_H-M "C M M M"
_symmetry_group_IT_number 65
_symmetry_cell_setting 'orthorhombic'
loop_
_space_group_symop_operation_xyz
x,y,z
-x,-y,z
x,-y,-z
-x,y,-z
-x,-y,-z
x,y,-z
-x,y,z
x,-y,z
1/2+x,1/2+y,z
1/2-x,1/2-y,z
1/2+x,1/2-y,-z
1/2-x,1/2+y,-z
1/2-x,1/2-y,-z
1/2+x,1/2+y,-z
1/2-x,1/2+y,z
1/2+x,1/2-y,z
loop_
_atom_site_type_symbol
_atom_site_label
_atom_site_fract_x
_atom_site_fract_y
_atom_site_fract_z
Si Si1 0.727024 0.000000 0.680281
Si Si2 0.942081 0.668390 0.824622
Si Si3 0.394526 0.332433 0.679052
Si Si4 0.781195 0.830035 0.319479
Si Si5 0.881062 0.500000 0.178077
Si Si6 0.442945 0.500000 0.179321
O O1 0.756194 0.916998 0.744507
O O2 0.726857 0.000000 0.500000
O O3 0.670606 0.000000 0.734583
O O4 0.925697 0.748425 0.722734
O O5 0.911917 0.584145 0.772479
O O6 0.000000 0.648939 0.796294
O O7 0.931797 0.690930 0.000000
O O8 0.396746 0.346083 0.500000
O O9 0.337870 0.321923 0.737590
O O10 0.416971 0.415567 0.757573
O O11 0.779392 0.829694 0.500000
O O12 0.750000 0.750000 0.252610
O O13 0.870819 0.500000 0.000000
O O14 0.500000 0.500000 0.233652
O O15 0.438578 0.500000 0.000000
#
# Coordination Sequence:
#
# PCOD8269413 Si02
#       6
#     8  16  16  16   8   8
#     4  10  19  34  56  78 104 141 182 224 272 326
#     4  10  21  38  58  80 111 151 188 223 273 335
#     4  11  22  37  60  87 112 142 185 235 278 320
#     4   9  18  33  53  78 109 144 179 217 270 333
#     4  10  21  37  57  82 112 147 188 230 271 323
#     4  11  24  41  59  80 112 153 188 222 275 339
#
# _framework density 19.686319999999998
#
# number of rings (size 3 to 8) (size 9 to 14) (size 15 to 20)
#    0.000    1.889    0.000    4.000    0.000    9.778 
#    0.000    3.333    0.000    8.000    0.000    0.000 
#    0.000    0.000    0.000    0.000    0.000    0.000 
#
# Total GULP energy -446543.605653 kJ/mol
# GULP energy per Si atom -12403.989046 kJ/mol
# Density = 1.964151 g / cm^3
# Si number density = 19.686320 Si / 1000 Ang^3
#
#
#
# Elastic Constant Matrix: (Units=GPa)
#
#
# Indices 1 2 3 4 5 6 
#
# 1 101.4986 24.8310 19.3388 0.0000 0.0000 0.0000
# 2 24.8310 130.7022 15.6719 0.0000 0.0000 0.0000
# 3 19.3388 15.6719 29.0355 0.0000 0.0000 0.0000
# 4 0.0000 0.0000 0.0000 37.5892 0.0000 0.0000
# 5 0.0000 0.0000 0.0000 0.0000 25.0953 0.0000
# 6 0.0000 0.0000 0.0000 0.0000 0.0000 47.3149
#
#
#
# Elastic Compliance Matrix: (Units=1/GPa)
#
#
# Indices 1 2 3 4 5 6 
#
# 1 0.011504 -0.001355 -0.006931 0.000000 0.000000 0.000000
# 2 -0.001355 0.008340 -0.003599 0.000000 0.000000 0.000000
# 3 -0.006931 -0.003599 0.041000 0.000000 0.000000 0.000000
# 4 0.000000 0.000000 0.000000 0.026603 0.000000 0.000000
# 5 0.000000 0.000000 0.000000 0.000000 0.039848 0.000000
# 6 0.000000 0.000000 0.000000 0.000000 0.000000 0.021135
#
#
# Mechanical properties :
#
#
# Convention : Reuss Voigt Hill
#
# Bulk Modulus (GPa) = 26.97311 42.32441 34.64876
# Shear Modulus (GPa) = 27.09164 35.42618 31.25891
#
# Velocity S-wave (km/s) = 3.71370 4.24669 3.98911
# Velocity P-wave (km/s) = 5.66744 6.75218 6.23345
#
# Compressibility (1/GPa) = 0.03707396
#
# Stress axis : x y z
#
# Youngs Moduli (GPa) = 86.92357 119.90570 24.39031
#
# Poissons Ratio (x) = 0.16241 0.16906
# Poissons Ratio (y) = 0.11774 0.08779
# Poissons Ratio (z) = 0.60249 0.43158
#
# Static dielectric constant tensor:
#      x y z
#    x 3.828030 0.000000 0.000000 
#    y 0.000000 3.809620 0.000000 
#    z 0.000000 0.000000 3.329580 
# 
# 
# High freq. dielectric constant tensor:
#      x y z
#    x 1.786850 0.000000 0.000000 
#    y 0.000000 1.787680 0.000000 
#    z 0.000000 0.000000 1.740580 
# 
# From -- ./inp_files/7711.got.cif
#   From: 2010.03.12/outbox.cif.g09.slc.cpg/sg65_4_cif.got.tgz:7711.got - 2010.04.10 20:52:16.
