data_PCOD8269159
_publ_section_title
;
Structure prediction by ZEFSAII (Michael W. Deem and Ramdas Pophale) SiO2 
 PCOD8269159
Probable space group: C M M M
;
_chemical_formula_sum "Si O2"
_cell_formula_units_Z 80
_cell_length_a 9.104948
_cell_length_b 17.863564
_cell_length_c 25.741912
_cell_angle_alpha 90.000000
_cell_angle_beta 90.000000
_cell_angle_gamma 90.000000
_cell_volume 4186.840161
_symmetry_space_group_name_H-M "C M M M"
_symmetry_group_IT_number 65
_symmetry_cell_setting 'orthorhombic'
loop_
_space_group_symop_operation_xyz
x,y,z
-x,-y,z
x,-y,-z
-x,y,-z
-x,-y,-z
x,y,-z
-x,y,z
x,-y,z
1/2+x,1/2+y,z
1/2-x,1/2-y,z
1/2+x,1/2-y,-z
1/2-x,1/2+y,-z
1/2-x,1/2-y,-z
1/2+x,1/2+y,-z
1/2-x,1/2+y,z
1/2+x,1/2-y,z
loop_
_atom_site_type_symbol
_atom_site_label
_atom_site_fract_x
_atom_site_fract_y
_atom_site_fract_z
Si Si1 0.672304 0.671282 0.000000
Si Si2 0.669814 0.086114 0.298228
Si Si3 0.167509 0.173825 0.500000
Si Si4 0.331175 0.587577 0.896218
Si Si5 0.673124 0.170810 0.806057
Si Si6 0.672353 0.330152 0.387306
O O1 0.750000 0.750000 0.000000
O O2 0.721636 0.625871 0.050701
O O3 0.500000 0.684772 0.000000
O O4 0.500000 0.098208 0.312252
O O5 0.716481 0.135918 0.249238
O O6 0.766358 0.110119 0.347069
O O7 0.703324 0.000000 0.284915
O O8 0.250000 0.250000 0.500000
O O9 0.203475 0.133216 0.555001
O O10 0.000000 0.197236 0.500000
O O11 0.500000 0.607733 0.883363
O O12 0.309537 0.500000 0.903533
O O13 0.227962 0.614915 0.850114
O O14 0.500000 0.181369 0.811667
O O15 0.750000 0.250000 0.812698
O O16 0.500000 0.318348 0.377366
O O17 0.750000 0.250000 0.380301
#
# Coordination Sequence:
#
# PCOD8269159 Si02
#       6
#     8  16   8  16  16  16
#     4  10  21  37  57  83 115 150 187 228 272 318
#     4  10  22  39  56  77 108 143 179 223 273 322
#     4   8  16  30  49  76 107 137 173 219 267 314
#     4  10  21  38  60  85 114 148 185 226 273 324
#     4  11  23  39  59  83 111 143 181 226 274 324
#     4  10  19  33  55  81 108 140 179 222 268 320
#
# _framework density 19.107488
#
# number of rings (size 3 to 8) (size 9 to 14) (size 15 to 20)
#    0.000    2.000    0.000    3.300    0.000    9.200 
#    0.000    0.500    0.000    4.800    0.000    0.000 
#    0.000    0.000    0.000    0.000    0.000    0.000 
#
# Total GULP energy -495945.033420 kJ/mol
# GULP energy per Si atom -12398.625835 kJ/mol
# Density = 1.906400 g / cm^3
# Si number density = 19.107488 Si / 1000 Ang^3
#
#
#
# Elastic Constant Matrix: (Units=GPa)
#
#
# Indices 1 2 3 4 5 6 
#
# 1 68.6538 33.2491 58.6693 0.0000 0.0000 0.0000
# 2 33.2491 88.3047 43.2455 0.0000 0.0000 0.0000
# 3 58.6693 43.2455 145.2885 0.0000 0.0000 0.0000
# 4 0.0000 0.0000 0.0000 14.4287 0.0000 0.0000
# 5 0.0000 0.0000 0.0000 0.0000 21.7731 0.0000
# 6 0.0000 0.0000 0.0000 0.0000 0.0000 30.8026
#
#
#
# Elastic Compliance Matrix: (Units=1/GPa)
#
#
# Indices 1 2 3 4 5 6 
#
# 1 0.024005 -0.005024 -0.008198 0.000000 0.000000 0.000000
# 2 -0.005024 0.014308 -0.002230 0.000000 0.000000 0.000000
# 3 -0.008198 -0.002230 0.010857 0.000000 0.000000 0.000000
# 4 0.000000 0.000000 0.000000 0.069306 0.000000 0.000000
# 5 0.000000 0.000000 0.000000 0.000000 0.045928 0.000000
# 6 0.000000 0.000000 0.000000 0.000000 0.000000 0.032465
#
#
# Mechanical properties :
#
#
# Convention : Reuss Voigt Hill
#
# Bulk Modulus (GPa) = 54.74618 63.61944 59.18281
# Shear Modulus (GPa) = 21.38018 24.53976 22.95997
#
# Velocity S-wave (km/s) = 3.34869 3.58760 3.47020
# Velocity P-wave (km/s) = 6.60799 7.10838 6.86274
#
# Compressibility (1/GPa) = 0.01826611
#
# Stress axis : x y z
#
# Youngs Moduli (GPa) = 41.65880 69.89023 92.10481
#
# Poissons Ratio (x) = 0.35109 0.75508
# Poissons Ratio (y) = 0.20927 0.20542
# Poissons Ratio (z) = 0.34152 0.15588
#
# Static dielectric constant tensor:
#      x y z
#    x 3.531080 0.000000 0.000000 
#    y 0.000000 3.321230 0.000000 
#    z 0.000000 0.000000 4.048980 
# 
# 
# High freq. dielectric constant tensor:
#      x y z
#    x 1.745380 0.000000 0.000000 
#    y 0.000000 1.733760 0.000000 
#    z 0.000000 0.000000 1.764650 
# 
# From -- ./inp_files/72862.got.cif
#   From: 2010.03.12/outbox.cif.g09.slc.cpg/sg65_37_cif.got.tgz:72862.got - 2010.04.10 20:52:16.
