data_PCOD8269163
_publ_section_title
;
Structure prediction by ZEFSAII (Michael W. Deem and Ramdas Pophale) SiO2 
 PCOD8269163
Probable space group: C M M M
;
_chemical_formula_sum "Si O2"
_cell_formula_units_Z 68
_cell_length_a 25.408065
_cell_length_b 9.854671
_cell_length_c 15.676962
_cell_angle_alpha 90.000000
_cell_angle_beta 90.000000
_cell_angle_gamma 90.000000
_cell_volume 3925.325063
_symmetry_space_group_name_H-M "C M M M"
_symmetry_group_IT_number 65
_symmetry_cell_setting 'orthorhombic'
loop_
_space_group_symop_operation_xyz
x,y,z
-x,-y,z
x,-y,-z
-x,y,-z
-x,-y,-z
x,y,-z
-x,y,z
x,-y,z
1/2+x,1/2+y,z
1/2-x,1/2-y,z
1/2+x,1/2-y,-z
1/2-x,1/2+y,-z
1/2-x,1/2-y,-z
1/2+x,1/2+y,-z
1/2-x,1/2+y,z
1/2+x,1/2-y,z
loop_
_atom_site_type_symbol
_atom_site_label
_atom_site_fract_x
_atom_site_fract_y
_atom_site_fract_z
Si Si1 0.940181 0.766177 0.500000
Si Si2 0.349332 0.724130 0.215881
Si Si3 0.297514 0.500000 0.327196
Si Si4 0.788128 0.500000 0.209090
Si Si5 0.181855 0.000000 0.899749
Si Si6 0.144907 0.000000 0.500000
Si Si7 0.559987 0.846815 0.684709
O O1 0.894324 0.875173 0.500000
O O2 0.931758 0.676872 0.584142
O O3 0.000000 0.828165 0.500000
O O4 0.318840 0.638626 0.286729
O O5 0.322114 0.866197 0.193889
O O6 0.350714 0.633995 0.129568
O O7 0.407265 0.747477 0.254251
O O8 0.234718 0.500000 0.306751
O O9 0.313058 0.500000 0.424631
O O10 0.739544 0.500000 0.142987
O O11 0.188381 0.000000 0.000000
O O12 0.500000 0.821940 0.710657
O O13 0.578000 0.000000 0.703342
#
# Coordination Sequence:
#
# PCOD8269163 Si02
#       7
#     8  16   8   8   8   4  16
#     4  10  20  32  48  76 108 145 186 233 270 294
#     4  10  19  36  57  77 108 141 173 218 273 320
#     4  10  20  33  47  73 106 144 181 217 264 314
#     4  10  20  36  58  77 103 140 179 218 266 318
#     4  10  22  38  57  86 111 131 168 221 274 328
#     4  12  19  30  46  68 106 146 181 228 260 314
#     4  10  19  33  55  81 109 142 184 227 266 309
#
# _framework density 17.323407
#
# number of rings (size 3 to 8) (size 9 to 14) (size 15 to 20)
#    0.000    2.118    3.529    3.353    0.000    3.294 
#    0.000    5.882    0.000    1.412    0.000    1.647 
#    0.000    0.000    0.000    0.000    0.000    0.000 
#
# Total GULP energy -421334.108588 kJ/mol
# GULP energy per Si atom -12392.179664 kJ/mol
# Density = 1.728398 g / cm^3
# Si number density = 17.323407 Si / 1000 Ang^3
#
#
#
# Elastic Constant Matrix: (Units=GPa)
#
#
# Indices 1 2 3 4 5 6 
#
# 1 70.6527 42.8767 43.7162 0.0000 0.0000 0.0000
# 2 42.8767 124.5385 38.9215 0.0000 0.0000 0.0000
# 3 43.7162 38.9215 114.5412 0.0000 0.0000 0.0000
# 4 0.0000 0.0000 0.0000 18.2913 0.0000 0.0000
# 5 0.0000 0.0000 0.0000 0.0000 16.0647 0.0000
# 6 0.0000 0.0000 0.0000 0.0000 0.0000 5.2243
#
#
#
# Elastic Compliance Matrix: (Units=1/GPa)
#
#
# Indices 1 2 3 4 5 6 
#
# 1 0.021316 -0.005366 -0.006312 0.000000 0.000000 0.000000
# 2 -0.005366 0.010335 -0.001464 0.000000 0.000000 0.000000
# 3 -0.006312 -0.001464 0.011637 0.000000 0.000000 0.000000
# 4 0.000000 0.000000 0.000000 0.054671 0.000000 0.000000
# 5 0.000000 0.000000 0.000000 0.000000 0.062248 0.000000
# 6 0.000000 0.000000 0.000000 0.000000 0.000000 0.191413
#
#
# Mechanical properties :
#
#
# Convention : Reuss Voigt Hill
#
# Bulk Modulus (GPa) = 58.81077 62.30680 60.55879
# Shear Modulus (GPa) = 13.03541 20.19726 16.61634
#
# Velocity S-wave (km/s) = 2.74610 3.41822 3.10043
# Velocity P-wave (km/s) = 6.63907 7.18498 6.91741
#
# Compressibility (1/GPa) = 0.01700369
#
# Stress axis : x y z
#
# Youngs Moduli (GPa) = 46.91362 96.76305 85.93318
#
# Poissons Ratio (x) = 0.51923 0.54242
# Poissons Ratio (y) = 0.25174 0.12578
# Poissons Ratio (z) = 0.29612 0.14163
#
# Static dielectric constant tensor:
#      x y z
#    x 3.261250 0.000000 0.000000 
#    y 0.000000 3.413920 0.000000 
#    z 0.000000 0.000000 3.089090 
# 
# 
# High freq. dielectric constant tensor:
#      x y z
#    x 1.662520 0.000000 0.000000 
#    y 0.000000 1.684370 0.000000 
#    z 0.000000 0.000000 1.644050 
# 
# From -- ./inp_files/56548.got.cif
#   From: 2010.03.12/outbox.cif.g09.slc.cpg/sg65_29_cif.got.tgz:56548.got - 2010.04.10 20:52:16.
