data_PCOD8269005
_publ_section_title
;
Structure prediction by ZEFSAII (Michael W. Deem and Ramdas Pophale) SiO2 
 PCOD8269005
Probable space group: C M M M
;
_chemical_formula_sum "Si O2"
_cell_formula_units_Z 104
_cell_length_a 14.334343
_cell_length_b 20.769435
_cell_length_c 18.008520
_cell_angle_alpha 90.000000
_cell_angle_beta 90.000000
_cell_angle_gamma 90.000000
_cell_volume 5361.428236
_symmetry_space_group_name_H-M "C M M M"
_symmetry_group_IT_number 65
_symmetry_cell_setting 'orthorhombic'
loop_
_space_group_symop_operation_xyz
x,y,z
-x,-y,z
x,-y,-z
-x,y,-z
-x,-y,-z
x,y,-z
-x,y,z
x,-y,z
1/2+x,1/2+y,z
1/2-x,1/2-y,z
1/2+x,1/2-y,-z
1/2-x,1/2+y,-z
1/2-x,1/2-y,-z
1/2+x,1/2+y,-z
1/2-x,1/2+y,z
1/2+x,1/2-y,z
loop_
_atom_site_type_symbol
_atom_site_label
_atom_site_fract_x
_atom_site_fract_y
_atom_site_fract_z
Si Si1 0.389625 0.243932 0.583278
Si Si2 0.606757 0.160411 0.719181
Si Si3 0.110696 0.000000 0.581320
Si Si4 0.889662 0.872239 0.662825
Si Si5 0.762233 0.074774 0.777101
Si Si6 0.607943 0.235579 0.133607
Si Si7 0.269131 0.349752 0.915977
O O1 0.348837 0.232778 0.500000
O O2 0.500000 0.248450 0.579241
O O3 0.359252 0.186774 0.638861
O O4 0.351733 0.311173 0.616693
O O5 0.500000 0.138065 0.715614
O O6 0.664490 0.097250 0.741214
O O7 0.619174 0.218112 0.779128
O O8 0.145623 0.935805 0.620812
O O9 0.155043 0.000000 0.500000
O O10 0.000000 0.000000 0.577773
O O11 0.842560 0.878868 0.743370
O O12 0.000000 0.868374 0.674482
O O13 0.762622 0.086212 0.865727
O O14 0.779400 0.000000 0.760446
O O15 0.500000 0.231751 0.108682
O O16 0.648265 0.306104 0.117882
O O17 0.669048 0.185915 0.085203
O O18 0.292826 0.369839 0.000000
#
# Coordination Sequence:
#
# PCOD8269005 Si02
#       7
#    16  16   8  16  16  16  16
#     4   9  17  31  54  82 110 138 167 210 270 320
#     4   9  19  36  57  79 103 134 177 225 268 314
#     4   9  16  28  48  74 106 140 172 209 248 292
#     4  10  19  33  53  78 107 141 177 211 254 311
#     4  11  23  38  55  73 100 141 185 222 260 312
#     4   9  17  33  57  83 109 137 169 210 264 321
#     4  10  21  34  52  81 109 135 171 215 265 320
#
# _framework density 19.397815000000001
#
# number of rings (size 3 to 8) (size 9 to 14) (size 15 to 20)
#    0.000    2.385    0.769    2.308    0.000    7.385 
#    0.000    2.308    0.000    0.000    0.000    8.615 
#    0.000    0.000    0.000    0.000    0.000    0.000 
#
# Total GULP energy -644598.655770 kJ/mol
# GULP energy per Si atom -12396.127996 kJ/mol
# Density = 1.935367 g / cm^3
# Si number density = 19.397815 Si / 1000 Ang^3
#
#
#
# Elastic Constant Matrix: (Units=GPa)
#
#
# Indices 1 2 3 4 5 6 
#
# 1 74.7725 1.6994 21.7832 0.0000 0.0000 0.0000
# 2 1.6994 46.9714 33.0287 0.0000 0.0000 0.0000
# 3 21.7832 33.0287 137.0849 0.0000 0.0000 0.0000
# 4 0.0000 0.0000 0.0000 18.9891 0.0000 0.0000
# 5 0.0000 0.0000 0.0000 0.0000 17.2414 0.0000
# 6 0.0000 0.0000 0.0000 0.0000 0.0000 11.7706
#
#
#
# Elastic Compliance Matrix: (Units=1/GPa)
#
#
# Indices 1 2 3 4 5 6 
#
# 1 0.014087 0.001281 -0.002547 0.000000 0.000000 0.000000
# 2 0.001281 0.025749 -0.006407 0.000000 0.000000 0.000000
# 3 -0.002547 -0.006407 0.009243 0.000000 0.000000 0.000000
# 4 0.000000 0.000000 0.000000 0.052662 0.000000 0.000000
# 5 0.000000 0.000000 0.000000 0.000000 0.058000 0.000000
# 6 0.000000 0.000000 0.000000 0.000000 0.000000 0.084958
#
#
# Mechanical properties :
#
#
# Convention : Reuss Voigt Hill
#
# Bulk Modulus (GPa) = 29.64501 41.31681 35.48091
# Shear Modulus (GPa) = 18.43055 23.08805 20.75930
#
# Velocity S-wave (km/s) = 3.08577 3.45373 3.27492
# Velocity P-wave (km/s) = 5.29262 6.10330 5.71236
#
# Compressibility (1/GPa) = 0.03373248
#
# Stress axis : x y z
#
# Youngs Moduli (GPa) = 70.98827 38.83699 108.18667
#
# Poissons Ratio (x) = -0.04977 0.27557
# Poissons Ratio (y) = -0.09097 0.69320
# Poissons Ratio (z) = 0.18082 0.24884
#
# Static dielectric constant tensor:
#      x y z
#    x 3.452540 0.000000 0.000000 
#    y 0.000000 3.234640 0.000000 
#    z 0.000000 0.000000 3.770590 
# 
# 
# High freq. dielectric constant tensor:
#      x y z
#    x 1.747200 0.000000 0.000000 
#    y 0.000000 1.728170 0.000000 
#    z 0.000000 0.000000 1.762300 
# 
# From -- ./inp_files/53322.got.cif
#   From: 2010.03.12/outbox.cif.g09.slc.cpg/sg65_27_cif.got.tgz:53322.got - 2010.04.10 20:52:16.
