data_PCOD8269235
_publ_section_title
;
Structure prediction by ZEFSAII (Michael W. Deem and Ramdas Pophale) SiO2 
 PCOD8269235
Probable space group: C M M M
;
_chemical_formula_sum "Si O2"
_cell_formula_units_Z 64
_cell_length_a 23.369781
_cell_length_b 9.439126
_cell_length_c 14.730234
_cell_angle_alpha 90.000000
_cell_angle_beta 90.000000
_cell_angle_gamma 90.000000
_cell_volume 3249.346847
_symmetry_space_group_name_H-M "C M M M"
_symmetry_group_IT_number 65
_symmetry_cell_setting 'orthorhombic'
loop_
_space_group_symop_operation_xyz
x,y,z
-x,-y,z
x,-y,-z
-x,y,-z
-x,-y,-z
x,y,-z
-x,y,z
x,-y,z
1/2+x,1/2+y,z
1/2-x,1/2-y,z
1/2+x,1/2-y,-z
1/2-x,1/2+y,-z
1/2-x,1/2-y,-z
1/2+x,1/2+y,-z
1/2-x,1/2+y,z
1/2+x,1/2-y,z
loop_
_atom_site_type_symbol
_atom_site_label
_atom_site_fract_x
_atom_site_fract_y
_atom_site_fract_z
Si Si1 0.376191 0.154333 0.864768
Si Si2 0.308732 0.833919 0.500000
Si Si3 0.608289 0.160945 0.339240
Si Si4 0.808988 0.831854 0.000000
Si Si5 0.000000 0.749249 0.897837
Si Si6 0.000000 0.158072 0.699869
O O1 0.362656 0.171318 0.759066
O O2 0.344595 0.284845 0.912121
O O3 0.443664 0.153700 0.887238
O O4 0.353258 0.000000 0.897860
O O5 0.250000 0.750000 0.500000
O O6 0.344941 0.789070 0.411765
O O7 0.294698 0.000000 0.500000
O O8 0.554278 0.263396 0.342182
O O9 0.587979 0.000000 0.359471
O O10 0.750000 0.750000 0.000000
O O11 0.800385 0.000000 0.000000
O O12 0.000000 0.853993 0.810696
O O13 0.000000 0.820944 0.000000
O O14 0.000000 0.000000 0.661510
#
# Coordination Sequence:
#
# PCOD8269235 Si02
#       6
#    16   8  16   8   8   8
#     4  10  20  37  60  87 117 152 193 234 283 343
#     4  10  22  41  64  89 115 148 196 244 295 350
#     4   9  20  39  61  86 118 155 190 232 289 355
#     4  12  26  41  56  77 109 152 198 242 289 340
#     4  10  19  33  56  89 120 156 190 230 285 344
#     4  10  21  35  55  87 123 157 194 240 287 339
#
# _framework density 19.696266000000001
#
# number of rings (size 3 to 8) (size 9 to 14) (size 15 to 20)
#    0.000    2.000    1.250    1.875    0.000   10.250 
#    0.000    5.000    0.000    0.000    0.000    0.000 
#    0.000    0.000    0.000    0.000    0.000    0.000 
#
# Total GULP energy -396636.950231 kJ/mol
# GULP energy per Si atom -12394.904695 kJ/mol
# Density = 1.965144 g / cm^3
# Si number density = 19.696266 Si / 1000 Ang^3
#
#
#
# Elastic Constant Matrix: (Units=GPa)
#
#
# Indices 1 2 3 4 5 6 
#
# 1 132.8272 76.1502 76.2490 0.0000 0.0000 0.0000
# 2 76.1502 149.4195 47.1664 0.0000 0.0000 0.0000
# 3 76.2490 47.1664 139.7272 0.0000 0.0000 0.0000
# 4 0.0000 0.0000 0.0000 20.5560 0.0000 0.0000
# 5 0.0000 0.0000 0.0000 0.0000 -65.8263 0.0000
# 6 0.0000 0.0000 0.0000 0.0000 0.0000 33.1543
#
#
#
# Elastic Compliance Matrix: (Units=1/GPa)
#
#
# Indices 1 2 3 4 5 6 
#
# 1 0.013854 -0.005232 -0.005794 0.000000 0.000000 0.000000
# 2 -0.005232 0.009466 -0.000341 0.000000 0.000000 0.000000
# 3 -0.005794 -0.000341 0.010434 0.000000 0.000000 0.000000
# 4 0.000000 0.000000 0.000000 0.048648 0.000000 0.000000
# 5 0.000000 0.000000 0.000000 0.000000 -0.015192 0.000000
# 6 0.000000 0.000000 0.000000 0.000000 0.000000 0.030162
#
#
# Mechanical properties :
#
#
# Convention : Reuss Voigt Hill
#
# Bulk Modulus (GPa) = 90.73313 91.23390 90.98351
# Shear Modulus (GPa) = 40.39490 12.40405 26.39947
#
# Velocity S-wave (km/s) = 4.53359 2.51224 3.66502
# Velocity P-wave (km/s) = 8.57734 7.40514 8.01270
#
# Compressibility (1/GPa) = 0.01102133
#
# Stress axis : x y z
#
# Youngs Moduli (GPa) = 72.18185 105.63825 95.84406
#
# Poissons Ratio (x) = 0.55265 0.55533
# Poissons Ratio (y) = 0.37762 0.03265
# Poissons Ratio (z) = 0.41823 0.03598
#
# Static dielectric constant tensor:
#      x y z
#    x 3.462920 0.000000 0.000000 
#    y 0.000000 3.421680 0.000000 
#    z 0.000000 0.000000 3.792310 
# 
# 
# High freq. dielectric constant tensor:
#      x y z
#    x 1.758280 0.000000 0.000000 
#    y 0.000000 1.756630 0.000000 
#    z 0.000000 0.000000 1.775340 
# 
# From -- ./inp_files/45130.got.cif
#   From: 2010.03.12/outbox.cif.g09.slc.cpg/sg65_23_cif.got.tgz:45130.got - 2010.04.10 20:52:16.
