data_PCOD8269816
_publ_section_title
;
Structure prediction by ZEFSAII (Michael W. Deem and Ramdas Pophale) SiO2 
 PCOD8269816
Probable space group: C M M M
;
_chemical_formula_sum "Si O2"
_cell_formula_units_Z 104
_cell_length_a 21.739719
_cell_length_b 29.878588
_cell_length_c 9.266015
_cell_angle_alpha 90.000000
_cell_angle_beta 90.000000
_cell_angle_gamma 90.000000
_cell_volume 6018.759569
_symmetry_space_group_name_H-M "C M M M"
_symmetry_group_IT_number 65
_symmetry_cell_setting 'orthorhombic'
loop_
_space_group_symop_operation_xyz
x,y,z
-x,-y,z
x,-y,-z
-x,y,-z
-x,-y,-z
x,y,-z
-x,y,z
x,-y,z
1/2+x,1/2+y,z
1/2-x,1/2-y,z
1/2+x,1/2-y,-z
1/2-x,1/2+y,-z
1/2-x,1/2-y,-z
1/2+x,1/2+y,-z
1/2-x,1/2+y,z
1/2+x,1/2-y,z
loop_
_atom_site_type_symbol
_atom_site_label
_atom_site_fract_x
_atom_site_fract_y
_atom_site_fract_z
Si Si1 0.381905 0.447034 0.663774
Si Si2 0.500000 0.446686 0.163487
Si Si3 0.848502 0.377428 0.833696
Si Si4 0.332411 0.206988 0.338297
Si Si5 0.812868 0.195479 0.662475
Si Si6 0.428953 0.948613 0.667018
Si Si7 0.795755 0.111530 0.833567
O O1 0.384964 0.429011 0.500000
O O2 0.380171 0.500000 0.664948
O O3 0.440513 0.428568 0.751790
O O4 0.320380 0.430337 0.742581
O O5 0.500000 0.500000 0.162157
O O6 0.500000 0.427970 0.000000
O O7 0.865254 0.329161 0.764716
O O8 0.886904 0.416893 0.762458
O O9 0.777011 0.387740 0.810415
O O10 0.866585 0.374867 0.000000
O O11 0.357533 0.199224 0.500000
O O12 0.259820 0.201233 0.335423
O O13 0.346176 0.258203 0.288417
O O14 0.834014 0.182845 0.500000
O O15 0.829661 0.156127 0.773598
O O16 0.413755 0.939992 0.500000
O O17 0.500000 0.937791 0.699182
O O18 0.414423 0.000000 0.707719
O O19 0.813556 0.106093 0.000000
#
# Coordination Sequence:
#
# PCOD8269816 Si02
#       7
#    16   8  16  16  16  16  16
#     4  10  20  33  49  69  93 124 164 204 237 275
#     4   9  17  31  51  71  91 117 151 193 237 277
#     4  10  20  31  46  72 102 129 158 195 242 294
#     4   8  14  26  45  67  92 123 157 193 231 275
#     4   8  14  26  44  66  92 123 159 195 231 275
#     4   9  19  36  55  72  91 121 164 209 250 296
#     4  10  20  31  44  68 102 134 161 194 241 293
#
# _framework density 17.279306999999999
#
# number of rings (size 3 to 8) (size 9 to 14) (size 15 to 20)
#    0.000    2.846    0.000    3.000    0.000    5.538 
#    0.000    6.923    0.000    0.000    2.000    0.000 
#    0.000    0.000    0.000    0.000    0.000    0.000 
#
# Total GULP energy -644592.581445 kJ/mol
# GULP energy per Si atom -12396.011182 kJ/mol
# Density = 1.723998 g / cm^3
# Si number density = 17.279307 Si / 1000 Ang^3
#
#
#
# Elastic Constant Matrix: (Units=GPa)
#
#
# Indices 1 2 3 4 5 6 
#
# 1 43.1736 40.1554 49.9729 0.0000 0.0000 0.0000
# 2 40.1554 87.6489 66.4246 0.0000 0.0000 0.0000
# 3 49.9729 66.4246 141.7645 0.0000 0.0000 0.0000
# 4 0.0000 0.0000 0.0000 26.1250 0.0000 0.0000
# 5 0.0000 0.0000 0.0000 0.0000 24.1429 0.0000
# 6 0.0000 0.0000 0.0000 0.0000 0.0000 7.0823
#
#
#
# Elastic Compliance Matrix: (Units=1/GPa)
#
#
# Indices 1 2 3 4 5 6 
#
# 1 0.048544 -0.014377 -0.010376 0.000000 0.000000 0.000000
# 2 -0.014377 0.021949 -0.005216 0.000000 0.000000 0.000000
# 3 -0.010376 -0.005216 0.013156 0.000000 0.000000 0.000000
# 4 0.000000 0.000000 0.000000 0.038277 0.000000 0.000000
# 5 0.000000 0.000000 0.000000 0.000000 0.041420 0.000000
# 6 0.000000 0.000000 0.000000 0.000000 0.000000 0.141198
#
#
# Mechanical properties :
#
#
# Convention : Reuss Voigt Hill
#
# Bulk Modulus (GPa) = 42.17498 65.07696 53.62597
# Shear Modulus (GPa) = 13.42698 19.20564 16.31631
#
# Velocity S-wave (km/s) = 2.79060 3.33751 3.07623
# Velocity P-wave (km/s) = 5.90288 7.25227 6.61209
#
# Compressibility (1/GPa) = 0.02371074
#
# Stress axis : x y z
#
# Youngs Moduli (GPa) = 20.60005 45.56038 76.01294
#
# Poissons Ratio (x) = 0.65500 0.78869
# Poissons Ratio (y) = 0.29616 0.39652
# Poissons Ratio (z) = 0.21374 0.23766
#
# Static dielectric constant tensor:
#      x y z
#    x 2.884030 0.000000 0.000000 
#    y 0.000000 3.389320 0.000000 
#    z 0.000000 0.000000 3.384220 
# 
# 
# High freq. dielectric constant tensor:
#      x y z
#    x 1.626320 0.000000 0.000000 
#    y 0.000000 1.666310 0.000000 
#    z 0.000000 0.000000 1.675870 
# 
# From -- ./inp_files/12777.got.cif
#   From: 2010.03.12/outbox.cif.g09.slc.cpg/sg65_7_cif.got.tgz:12777.got - 2010.04.10 20:52:16.
