data_PCOD8269105
_publ_section_title
;
Structure prediction by ZEFSAII (Michael W. Deem and Ramdas Pophale) SiO2 
 PCOD8269105
Probable space group: C M M M
;
_chemical_formula_sum "Si O2"
_cell_formula_units_Z 96
_cell_length_a 22.436232
_cell_length_b 19.323338
_cell_length_c 11.840827
_cell_angle_alpha 90.000000
_cell_angle_beta 90.000000
_cell_angle_gamma 90.000000
_cell_volume 5133.506409
_symmetry_space_group_name_H-M "C M M M"
_symmetry_group_IT_number 65
_symmetry_cell_setting 'orthorhombic'
loop_
_space_group_symop_operation_xyz
x,y,z
-x,-y,z
x,-y,-z
-x,y,-z
-x,-y,-z
x,y,-z
-x,y,z
x,-y,z
1/2+x,1/2+y,z
1/2-x,1/2-y,z
1/2+x,1/2-y,-z
1/2-x,1/2+y,-z
1/2-x,1/2-y,-z
1/2+x,1/2+y,-z
1/2-x,1/2+y,z
1/2+x,1/2-y,z
loop_
_atom_site_type_symbol
_atom_site_label
_atom_site_fract_x
_atom_site_fract_y
_atom_site_fract_z
Si Si1 0.500000 0.419103 0.133744
Si Si2 0.429622 0.582352 0.500000
Si Si3 0.392502 0.350617 0.734094
Si Si4 0.272858 0.673468 0.133968
Si Si5 0.930441 0.279435 0.377464
Si Si6 0.931517 0.424333 0.703578
Si Si7 0.669421 0.077727 0.874710
O O1 0.500000 0.500000 0.167690
O O2 0.558555 0.383196 0.183515
O O3 0.500000 0.409079 0.000000
O O4 0.423028 0.500000 0.500000
O O5 0.500000 0.603883 0.500000
O O6 0.396971 0.611619 0.387770
O O7 0.328904 0.354559 0.794785
O O8 0.400986 0.267913 0.718146
O O9 0.250000 0.750000 0.163302
O O10 0.220084 0.624936 0.179938
O O11 0.286382 0.665227 0.000000
O O12 0.911208 0.250738 0.500000
O O13 0.912300 0.360606 0.375553
O O14 0.000000 0.271995 0.360000
O O15 0.919654 0.500000 0.645477
O O16 0.894072 0.416512 0.816389
O O17 0.000000 0.418122 0.739632
O O18 0.694228 0.000000 0.872081
O O19 0.657449 0.104923 0.000000
#
# Coordination Sequence:
#
# PCOD8269105 Si02
#       7
#     8   8  16  16  16  16  16
#     4  11  24  39  59  93 132 160 194 256 319 367
#     4  11  22  38  61  90 123 165 207 256 316 377
#     4  12  21  38  62  88 118 160 207 249 297 367
#     4  10  22  39  60  85 117 159 203 248 302 361
#     4  10  19  33  54  80 110 147 187 232 284 340
#     4   9  18  32  54  84 114 145 184 238 297 349
#     4   9  18  34  55  78 108 148 190 232 285 349
#
# _framework density 18.700668
#
# number of rings (size 3 to 8) (size 9 to 14) (size 15 to 20)
#    0.000    1.833    2.500    2.000    0.000    2.000 
#    0.000    6.250    1.833    0.000    0.000    0.000 
#    0.000    0.000    0.000    0.000    0.000    0.000 
#
# Total GULP energy -594788.588963 kJ/mol
# GULP energy per Si atom -12391.428937 kJ/mol
# Density = 1.865810 g / cm^3
# Si number density = 18.700668 Si / 1000 Ang^3
#
#
#
# Elastic Constant Matrix: (Units=GPa)
#
#
# Indices 1 2 3 4 5 6 
#
# 1 64.3576 23.7458 29.6116 0.0000 0.0000 0.0000
# 2 23.7458 100.7205 24.7892 0.0000 0.0000 0.0000
# 3 29.6116 24.7892 71.5752 0.0000 0.0000 0.0000
# 4 0.0000 0.0000 0.0000 26.9351 0.0000 0.0000
# 5 0.0000 0.0000 0.0000 0.0000 26.9434 0.0000
# 6 0.0000 0.0000 0.0000 0.0000 0.0000 27.8241
#
#
#
# Elastic Compliance Matrix: (Units=1/GPa)
#
#
# Indices 1 2 3 4 5 6 
#
# 1 0.019947 -0.002921 -0.007241 0.000000 0.000000 0.000000
# 2 -0.002921 0.011281 -0.002699 0.000000 0.000000 0.000000
# 3 -0.007241 -0.002699 0.017902 0.000000 0.000000 0.000000
# 4 0.000000 0.000000 0.000000 0.037126 0.000000 0.000000
# 5 0.000000 0.000000 0.000000 0.000000 0.037115 0.000000
# 6 0.000000 0.000000 0.000000 0.000000 0.000000 0.035940
#
#
# Mechanical properties :
#
#
# Convention : Reuss Voigt Hill
#
# Bulk Modulus (GPa) = 42.71767 43.66072 43.18919
# Shear Modulus (GPa) = 25.92880 26.90763 26.41821
#
# Velocity S-wave (km/s) = 3.72764 3.79734 3.76265
# Velocity P-wave (km/s) = 6.43580 6.52873 6.48243
#
# Compressibility (1/GPa) = 0.02340952
#
# Stress axis : x y z
#
# Youngs Moduli (GPa) = 50.13167 88.64249 55.86059
#
# Poissons Ratio (x) = 0.25889 0.40449
# Poissons Ratio (y) = 0.14642 0.15076
# Poissons Ratio (z) = 0.36300 0.23923
#
# Static dielectric constant tensor:
#      x y z
#    x 3.319510 0.000000 0.000000 
#    y 0.000000 3.955380 0.000000 
#    z 0.000000 0.000000 3.412930 
# 
# 
# High freq. dielectric constant tensor:
#      x y z
#    x 1.710140 0.000000 0.000000 
#    y 0.000000 1.751320 0.000000 
#    z 0.000000 0.000000 1.715030 
# 
# From -- ./inp_files/29059.got.cif
#   From: 2010.03.12/outbox.cif.g09.slc.cpg/sg65_15_cif.got.tgz:29059.got - 2010.04.10 20:52:16.
