data_PCOD8269022
_publ_section_title
;
Structure prediction by ZEFSAII (Michael W. Deem and Ramdas Pophale) SiO2 
 PCOD8269022
Probable space group: C M M M
;
_chemical_formula_sum "Si O2"
_cell_formula_units_Z 88
_cell_length_a 18.786715
_cell_length_b 28.885479
_cell_length_c 8.423731
_cell_angle_alpha 90.000000
_cell_angle_beta 90.000000
_cell_angle_gamma 90.000000
_cell_volume 4571.249339
_symmetry_space_group_name_H-M "C M M M"
_symmetry_group_IT_number 65
_symmetry_cell_setting 'orthorhombic'
loop_
_space_group_symop_operation_xyz
x,y,z
-x,-y,z
x,-y,-z
-x,y,-z
-x,-y,-z
x,y,-z
-x,y,z
x,-y,z
1/2+x,1/2+y,z
1/2-x,1/2-y,z
1/2+x,1/2-y,-z
1/2-x,1/2+y,-z
1/2-x,1/2-y,-z
1/2+x,1/2+y,-z
1/2-x,1/2+y,z
1/2+x,1/2-y,z
loop_
_atom_site_type_symbol
_atom_site_label
_atom_site_fract_x
_atom_site_fract_y
_atom_site_fract_z
Si Si1 0.291366 0.682713 0.810996
Si Si2 0.855576 0.722625 0.188633
Si Si3 0.850435 0.086858 0.811900
Si Si4 0.231608 0.000000 0.316384
Si Si5 0.500000 0.447782 0.189177
Si Si6 0.000000 0.426477 0.187174
Si Si7 0.114345 0.500000 0.187928
Si Si8 0.500000 0.822599 0.809781
O O1 0.210281 0.690794 0.751877
O O2 0.342146 0.724738 0.752801
O O3 0.320797 0.634782 0.738490
O O4 0.291991 0.681011 0.000000
O O5 0.930010 0.703480 0.257528
O O6 0.858249 0.721397 0.000000
O O7 0.930146 0.078454 0.746176
O O8 0.799499 0.045385 0.764430
O O9 0.851908 0.089992 0.000000
O O10 0.315466 0.000000 0.291656
O O11 0.212000 0.000000 0.500000
O O12 0.500000 0.500000 0.256187
O O13 0.500000 0.449121 0.000000
O O14 0.929599 0.454339 0.238958
O O15 0.000000 0.374869 0.259507
O O16 0.000000 0.423024 0.000000
O O17 0.131225 0.500000 0.000000
O O18 0.500000 0.822808 0.000000
#
# Coordination Sequence:
#
# PCOD8269022 Si02
#       8
#    16  16  16   8   8   8   8   8
#     4   8  15  26  42  65  94 131 163 192 240 297
#     4   8  14  24  36  62 102 129 154 196 244 290
#     4  10  19  33  54  73  95 132 170 204 247 303
#     4  12  25  36  48  74 104 130 167 214 258 306
#     4   9  16  29  47  71  96 117 156 207 246 287
#     4   8  16  29  47  76 104 134 171 208 246 294
#     4   9  18  34  53  73 103 134 172 213 246 294
#     4   9  15  21  37  65 104 138 157 192 249 298
#
# _framework density 19.250754000000001
#
# number of rings (size 3 to 8) (size 9 to 14) (size 15 to 20)
#    0.000    3.000    0.909    2.455    2.545    0.727 
#    0.000    5.455    0.000    0.000    0.000    2.545 
#    0.000    0.000    0.000    0.000    0.000    0.000 
#
# Total GULP energy -545372.983388 kJ/mol
# GULP energy per Si atom -12394.840532 kJ/mol
# Density = 1.920694 g / cm^3
# Si number density = 19.250754 Si / 1000 Ang^3
#
#
#
# Elastic Constant Matrix: (Units=GPa)
#
#
# Indices 1 2 3 4 5 6 
#
# 1 181.8476 108.7121 2.3233 0.0000 0.0000 0.0000
# 2 108.7121 194.8023 2.3792 0.0000 0.0000 0.0000
# 3 2.3233 2.3792 4.2208 0.0000 0.0000 0.0000
# 4 0.0000 0.0000 0.0000 -1.1752 0.0000 0.0000
# 5 0.0000 0.0000 0.0000 0.0000 0.7892 0.0000
# 6 0.0000 0.0000 0.0000 0.0000 0.0000 35.8143
#
#
#
# Elastic Compliance Matrix: (Units=1/GPa)
#
#
# Indices 1 2 3 4 5 6 
#
# 1 0.008268 -0.004590 -0.001964 0.000000 0.000000 0.000000
# 2 -0.004590 0.007717 -0.001823 0.000000 0.000000 0.000000
# 3 -0.001964 -0.001823 0.239030 0.000000 0.000000 0.000000
# 4 0.000000 0.000000 0.000000 -0.850885 0.000000 0.000000
# 5 0.000000 0.000000 0.000000 0.000000 1.267048 0.000000
# 6 0.000000 0.000000 0.000000 0.000000 0.000000 0.027922
#
#
# Mechanical properties :
#
#
# Convention : Reuss Voigt Hill
#
# Bulk Modulus (GPa) = 4.19709 67.52222 35.85966
# Shear Modulus (GPa) = 6.28713 24.91606 15.60159
#
# Velocity S-wave (km/s) = 1.80914 3.60153 2.84991
# Velocity P-wave (km/s) = 2.55909 7.24196 5.43115
#
# Compressibility (1/GPa) = 0.23826040
#
# Stress axis : x y z
#
# Youngs Moduli (GPa) = 120.94281 129.57802 4.18358
#
# Poissons Ratio (x) = 0.59480 0.00822
# Poissons Ratio (y) = 0.55516 0.00763
# Poissons Ratio (z) = 0.23750 0.23628
#
# Static dielectric constant tensor:
#      x y z
#    x 3.825250 0.000000 0.000000 
#    y 0.000000 3.957710 0.000000 
#    z 0.000000 0.000000 2.740580 
# 
# 
# High freq. dielectric constant tensor:
#      x y z
#    x 1.760690 0.000000 0.000000 
#    y 0.000000 1.759000 0.000000 
#    z 0.000000 0.000000 1.673870 
# 
# From -- ./inp_files/10242.got.cif
#   From: 2010.03.12/outbox.cif.g09.slc.cpg/sg65_6_cif.got.tgz:10242.got - 2010.04.10 20:52:16.
