data_PCOD8269136
_publ_section_title
;
Structure prediction by ZEFSAII (Michael W. Deem and Ramdas Pophale) SiO2 
 PCOD8269136
Probable space group: C M M M
;
_chemical_formula_sum "Si O2"
_cell_formula_units_Z 80
_cell_length_a 18.114221
_cell_length_b 8.934376
_cell_length_c 26.129607
_cell_angle_alpha 90.000000
_cell_angle_beta 90.000000
_cell_angle_gamma 90.000000
_cell_volume 4228.796297
_symmetry_space_group_name_H-M "C M M M"
_symmetry_group_IT_number 65
_symmetry_cell_setting 'orthorhombic'
loop_
_space_group_symop_operation_xyz
x,y,z
-x,-y,z
x,-y,-z
-x,y,-z
-x,-y,-z
x,y,-z
-x,y,z
x,-y,z
1/2+x,1/2+y,z
1/2-x,1/2-y,z
1/2+x,1/2-y,-z
1/2-x,1/2+y,-z
1/2-x,1/2-y,-z
1/2+x,1/2+y,-z
1/2-x,1/2+y,z
1/2+x,1/2-y,z
loop_
_atom_site_type_symbol
_atom_site_label
_atom_site_fract_x
_atom_site_fract_y
_atom_site_fract_z
Si Si1 0.670884 0.324427 0.389744
Si Si2 0.327910 0.674526 0.500000
Si Si3 0.585617 0.324985 0.290283
Si Si4 0.082844 0.322253 0.900717
Si Si5 0.829605 0.677407 0.198646
Si Si6 0.329698 0.822079 0.000000
O O1 0.684919 0.500000 0.386632
O O2 0.750000 0.250000 0.380579
O O3 0.634181 0.280370 0.445560
O O4 0.613810 0.274241 0.346179
O O5 0.314275 0.500000 0.500000
O O6 0.250000 0.750000 0.500000
O O7 0.500000 0.285234 0.286670
O O8 0.600406 0.500000 0.280274
O O9 0.628657 0.227447 0.249294
O O10 0.079245 0.500000 0.901334
O O11 0.124380 0.264752 0.850189
O O12 0.126239 0.263946 0.950411
O O13 0.000000 0.255619 0.901109
O O14 0.821016 0.500000 0.198718
O O15 0.750000 0.750000 0.196305
O O16 0.250000 0.750000 0.000000
O O17 0.321483 0.000000 0.000000
#
# Coordination Sequence:
#
# PCOD8269136 Si02
#       6
#    16   8  16  16  16   8
#     4   9  17  30  49  72  97 127 164 206 250 297
#     4   8  14  26  45  69  95 123 159 202 247 294
#     4  10  21  36  52  73 103 136 170 210 256 304
#     4   9  18  33  54  79 104 133 171 211 251 299
#     4  11  22  36  55  78 104 134 171 213 255 304
#     4  10  19  33  55  79 105 136 170 210 252 296
#
# _framework density 18.917912000000001
#
# number of rings (size 3 to 8) (size 9 to 14) (size 15 to 20)
#    0.000    2.400    0.000    2.700    0.000    4.800 
#    0.000    1.500    0.000    6.600    0.000    0.000 
#    0.000    9.600    0.000    0.000    0.000    0.000 
#
# Total GULP energy -495794.542781 kJ/mol
# GULP energy per Si atom -12394.863570 kJ/mol
# Density = 1.887485 g / cm^3
# Si number density = 18.917912 Si / 1000 Ang^3
#
#
#
# Elastic Constant Matrix: (Units=GPa)
#
#
# Indices 1 2 3 4 5 6 
#
# 1 154.2307 35.7946 91.0243 0.0000 0.0000 0.0000
# 2 35.7946 33.3993 38.4621 0.0000 0.0000 0.0000
# 3 91.0243 38.4621 193.5656 0.0000 0.0000 0.0000
# 4 0.0000 0.0000 0.0000 10.2382 0.0000 0.0000
# 5 0.0000 0.0000 0.0000 0.0000 23.1058 0.0000
# 6 0.0000 0.0000 0.0000 0.0000 0.0000 18.0018
#
#
#
# Elastic Compliance Matrix: (Units=1/GPa)
#
#
# Indices 1 2 3 4 5 6 
#
# 1 0.010075 -0.006927 -0.003362 0.000000 0.000000 0.000000
# 2 -0.006927 0.043587 -0.005404 0.000000 0.000000 0.000000
# 3 -0.003362 -0.005404 0.007821 0.000000 0.000000 0.000000
# 4 0.000000 0.000000 0.000000 0.097673 0.000000 0.000000
# 5 0.000000 0.000000 0.000000 0.000000 0.043279 0.000000
# 6 0.000000 0.000000 0.000000 0.000000 0.000000 0.055550
#
#
# Mechanical properties :
#
#
# Convention : Reuss Voigt Hill
#
# Bulk Modulus (GPa) = 33.22351 79.08419 56.15385
# Shear Modulus (GPa) = 16.69997 24.66349 20.68173
#
# Velocity S-wave (km/s) = 2.97435 3.61461 3.31000
# Velocity P-wave (km/s) = 5.42178 7.70163 6.65999
#
# Compressibility (1/GPa) = 0.03009917
#
# Stress axis : x y z
#
# Youngs Moduli (GPa) = 99.25242 22.94266 127.86610
#
# Poissons Ratio (x) = 0.15892 0.42983
# Poissons Ratio (y) = 0.68750 0.69093
# Poissons Ratio (z) = 0.33364 0.12397
#
# Static dielectric constant tensor:
#      x y z
#    x 3.450490 0.000000 0.000000 
#    y 0.000000 3.236180 0.000000 
#    z 0.000000 0.000000 4.147490 
# 
# 
# High freq. dielectric constant tensor:
#      x y z
#    x 1.727410 0.000000 0.000000 
#    y 0.000000 1.709670 0.000000 
#    z 0.000000 0.000000 1.763670 
# 
# From -- ./inp_files/75107.got.cif
#   From: 2010.03.12/outbox.cif.g09.slc.cpg/sg65_38_cif.got.tgz:75107.got - 2010.04.10 20:52:16.
