data_PCOD8269364
_publ_section_title
;
Structure prediction by ZEFSAII (Michael W. Deem and Ramdas Pophale) SiO2 
 PCOD8269364
Probable space group: C M M M
;
_chemical_formula_sum "Si O2"
_cell_formula_units_Z 72
_cell_length_a 23.045005
_cell_length_b 18.899428
_cell_length_c 9.602394
_cell_angle_alpha 90.000000
_cell_angle_beta 90.000000
_cell_angle_gamma 90.000000
_cell_volume 4182.201839
_symmetry_space_group_name_H-M "C M M M"
_symmetry_group_IT_number 65
_symmetry_cell_setting 'orthorhombic'
loop_
_space_group_symop_operation_xyz
x,y,z
-x,-y,z
x,-y,-z
-x,y,-z
-x,-y,-z
x,y,-z
-x,y,z
x,-y,z
1/2+x,1/2+y,z
1/2-x,1/2-y,z
1/2+x,1/2-y,-z
1/2-x,1/2+y,-z
1/2-x,1/2-y,-z
1/2+x,1/2+y,-z
1/2-x,1/2+y,z
1/2+x,1/2-y,z
loop_
_atom_site_type_symbol
_atom_site_label
_atom_site_fract_x
_atom_site_fract_y
_atom_site_fract_z
Si Si1 0.261460 0.167491 0.157333
Si Si2 0.133401 0.684055 0.653642
Si Si3 0.148601 0.917217 0.837636
Si Si4 0.932444 0.577461 0.500000
Si Si5 0.432474 0.676277 0.335476
O O1 0.250000 0.250000 0.169457
O O2 0.317445 0.151507 0.248883
O O3 0.206507 0.123361 0.213483
O O4 0.275155 0.144301 0.000000
O O5 0.159735 0.702479 0.500000
O O6 0.086628 0.620896 0.637648
O O7 0.101272 0.753131 0.715199
O O8 0.094182 0.889910 0.747820
O O9 0.156881 0.000000 0.809249
O O10 0.136540 0.901379 0.000000
O O11 0.903094 0.500000 0.500000
O O12 0.000000 0.569569 0.500000
O O13 0.424974 0.664108 0.500000
O O14 0.500000 0.683492 0.296175
#
# Coordination Sequence:
#
# PCOD8269364 Si02
#       5
#    16  16  16   8  16
#     4  10  19  34  55  77 105 139 173 216 268 317
#     4   9  19  32  54  82 106 133 179 215 260 314
#     4  10  22  38  54  76 108 145 180 217 266 320
#     4   9  18  34  55  80 111 141 171 214 266 318
#     4  10  20  35  55  78 106 140 179 224 267 311
#
# _framework density 17.215810999999999
#
# number of rings (size 3 to 8) (size 9 to 14) (size 15 to 20)
#    0.667    1.667    2.222    0.667    0.000    3.556 
#    0.000    2.222    0.000    2.000    0.000    1.556 
#    0.000    0.000    0.000    0.000    0.000    0.000 
#
# Total GULP energy -446251.483189 kJ/mol
# GULP energy per Si atom -12395.874533 kJ/mol
# Density = 1.717663 g / cm^3
# Si number density = 17.215811 Si / 1000 Ang^3
#
#
#
# Elastic Constant Matrix: (Units=GPa)
#
#
# Indices 1 2 3 4 5 6 
#
# 1 116.2168 44.7606 50.4293 0.0000 0.0000 0.0000
# 2 44.7606 105.8861 27.7550 0.0000 0.0000 0.0000
# 3 50.4293 27.7550 49.0271 0.0000 0.0000 0.0000
# 4 0.0000 0.0000 0.0000 22.6302 0.0000 0.0000
# 5 0.0000 0.0000 0.0000 0.0000 17.1685 0.0000
# 6 0.0000 0.0000 0.0000 0.0000 0.0000 29.6278
#
#
#
# Elastic Compliance Matrix: (Units=1/GPa)
#
#
# Indices 1 2 3 4 5 6 
#
# 1 0.016279 -0.002927 -0.015087 0.000000 0.000000 0.000000
# 2 -0.002927 0.011616 -0.003566 0.000000 0.000000 0.000000
# 3 -0.015087 -0.003566 0.037934 0.000000 0.000000 0.000000
# 4 0.000000 0.000000 0.000000 0.044189 0.000000 0.000000
# 5 0.000000 0.000000 0.000000 0.000000 0.058246 0.000000
# 6 0.000000 0.000000 0.000000 0.000000 0.000000 0.033752
#
#
# Mechanical properties :
#
#
# Convention : Reuss Voigt Hill
#
# Bulk Modulus (GPa) = 44.11195 57.44664 50.77929
# Shear Modulus (GPa) = 19.78386 23.76431 21.77408
#
# Velocity S-wave (km/s) = 3.39362 3.71937 3.56022
# Velocity P-wave (km/s) = 6.40578 7.20319 6.81616
#
# Compressibility (1/GPa) = 0.02266959
#
# Stress axis : x y z
#
# Youngs Moduli (GPa) = 61.43053 86.08903 26.36140
#
# Poissons Ratio (x) = 0.25195 0.39772
# Poissons Ratio (y) = 0.17978 0.09399
# Poissons Ratio (z) = 0.92682 0.30696
#
# Static dielectric constant tensor:
#      x y z
#    x 3.148050 0.000000 0.000000 
#    y 0.000000 3.293670 0.000000 
#    z 0.000000 0.000000 3.086520 
# 
# 
# High freq. dielectric constant tensor:
#      x y z
#    x 1.664780 0.000000 0.000000 
#    y 0.000000 1.666480 0.000000 
#    z 0.000000 0.000000 1.646070 
# 
# From -- ./inp_files/9256.got.cif
#   From: 2010.03.12/outbox.cif.g09.slc.cpg/sg65_5_cif.got.tgz:9256.got - 2010.04.10 20:52:16.
