data_PCOD8269863
_publ_section_title
;
Structure prediction by ZEFSAII (Michael W. Deem and Ramdas Pophale) SiO2 
 PCOD8269863
Probable space group: C M M M
;
_chemical_formula_sum "Si O2"
_cell_formula_units_Z 112
_cell_length_a 21.585942
_cell_length_b 17.711635
_cell_length_c 14.490898
_cell_angle_alpha 90.000000
_cell_angle_beta 90.000000
_cell_angle_gamma 90.000000
_cell_volume 5540.193827
_symmetry_space_group_name_H-M "C M M M"
_symmetry_group_IT_number 65
_symmetry_cell_setting 'orthorhombic'
loop_
_space_group_symop_operation_xyz
x,y,z
-x,-y,z
x,-y,-z
-x,y,-z
-x,-y,-z
x,y,-z
-x,y,z
x,-y,z
1/2+x,1/2+y,z
1/2-x,1/2-y,z
1/2+x,1/2-y,-z
1/2-x,1/2+y,-z
1/2-x,1/2-y,-z
1/2+x,1/2+y,-z
1/2-x,1/2+y,z
1/2+x,1/2-y,z
loop_
_atom_site_type_symbol
_atom_site_label
_atom_site_fract_x
_atom_site_fract_y
_atom_site_fract_z
Si Si1 0.850101 0.154045 0.608913
Si Si2 0.614325 0.086677 0.250000
Si Si3 0.564733 0.584895 0.250000
Si Si4 0.929625 0.299263 0.105769
Si Si5 0.739419 0.589180 0.750000
Si Si6 0.649899 0.345955 0.891087
Si Si7 0.570375 0.200737 0.394231
O O1 0.843350 0.139416 0.500000
O O2 0.898662 0.098146 0.655420
O O3 0.785044 0.134951 0.659390
O O4 0.877508 0.237008 0.631293
O O5 0.585311 0.124964 0.160281
O O6 0.687710 0.095555 0.250000
O O7 0.585311 0.124964 0.339718
O O8 0.594021 0.000000 0.250000
O O9 0.500000 0.631828 0.250000
O O10 0.545858 0.500000 0.250000
O O11 0.601338 0.598145 0.155420
O O12 0.877509 0.237008 0.131294
O O13 0.000000 0.271057 0.127984
O O14 0.923759 0.321229 0.000000
O O15 0.718683 0.500000 0.750000
O O16 0.714956 0.634951 0.840610
O O17 0.656650 0.360583 0.000000
O O18 0.576241 0.178770 0.500000
O O19 0.500000 0.228943 0.372016
#
# Coordination Sequence:
#
# PCOD8269863 Si02
#       7
#    16  16  16  16  16  16  16
#     4  10  20  36  59  82 110 150 188 228 281 332
#     4  11  24  41  60  82 113 152 188 231 289 338
#     4  10  20  31  47  78 115 148 188 233 273 326
#     4  10  22  39  60  88 116 143 184 235 284 340
#     4  10  23  39  55  83 118 151 194 238 271 322
#     4  10  20  36  59  82 110 150 188 228 281 332
#     4  10  22  39  60  88 116 143 184 235 284 340
#
# _framework density 20.215899
#
# number of rings (size 3 to 8) (size 9 to 14) (size 15 to 20)
#    0.000    1.857    0.000    4.714    0.000    9.143 
#    0.000    8.571    0.000    0.000    0.000    0.000 
#    0.000    0.000    0.000    0.000    0.000    0.000 
#
# Total GULP energy -693832.709100 kJ/mol
# GULP energy per Si atom -12389.869805 kJ/mol
# Density = 2.016989 g / cm^3
# Si number density = 20.215899 Si / 1000 Ang^3
#
#
#
# Elastic Constant Matrix: (Units=GPa)
#
#
# Indices 1 2 3 4 5 6 
#
# 1 72.6873 32.8596 35.0007 0.0000 0.0000 0.0000
# 2 32.8596 123.3349 61.0670 0.0000 0.0000 0.0000
# 3 35.0007 61.0670 142.8593 0.0000 0.0000 0.0000
# 4 0.0000 0.0000 0.0000 16.3956 0.0000 0.0000
# 5 0.0000 0.0000 0.0000 0.0000 21.0386 0.0000
# 6 0.0000 0.0000 0.0000 0.0000 0.0000 48.3876
#
#
#
# Elastic Compliance Matrix: (Units=1/GPa)
#
#
# Indices 1 2 3 4 5 6 
#
# 1 0.016443 -0.003027 -0.002735 0.000000 0.000000 0.000000
# 2 -0.003027 0.010842 -0.003893 0.000000 0.000000 0.000000
# 3 -0.002735 -0.003893 0.009334 0.000000 0.000000 0.000000
# 4 0.000000 0.000000 0.000000 0.060992 0.000000 0.000000
# 5 0.000000 0.000000 0.000000 0.000000 0.047532 0.000000
# 6 0.000000 0.000000 0.000000 0.000000 0.000000 0.020666
#
#
# Mechanical properties :
#
#
# Convention : Reuss Voigt Hill
#
# Bulk Modulus (GPa) = 57.77055 66.30402 62.03728
# Shear Modulus (GPa) = 26.19348 31.16132 28.67740
#
# Velocity S-wave (km/s) = 3.60347 3.93036 3.77046
# Velocity P-wave (km/s) = 6.77880 7.31205 7.05047
#
# Compressibility (1/GPa) = 0.01730986
#
# Stress axis : x y z
#
# Youngs Moduli (GPa) = 60.81748 92.23442 107.13540
#
# Poissons Ratio (x) = 0.27917 0.29298
# Poissons Ratio (y) = 0.18408 0.41707
# Poissons Ratio (z) = 0.16631 0.35907
#
# Static dielectric constant tensor:
#      x y z
#    x 3.774820 0.000000 0.000000 
#    y 0.000000 3.666480 0.000000 
#    z 0.000000 0.000000 3.959210 
# 
# 
# High freq. dielectric constant tensor:
#      x y z
#    x 1.799730 0.000000 0.000000 
#    y 0.000000 1.783630 0.000000 
#    z 0.000000 0.000000 1.793560 
# 
# From -- ./inp_files/45776.got.cif
#   From: 2010.03.12/outbox.cif.g09.slc.cpg/sg65_23_cif.got.tgz:45776.got - 2010.04.10 20:52:16.
