data_PCOD8269541
_publ_section_title
;
Structure prediction by ZEFSAII (Michael W. Deem and Ramdas Pophale) SiO2 
 PCOD8269541
Probable space group: C M M M
;
_chemical_formula_sum "Si O2"
_cell_formula_units_Z 84
_cell_length_a 14.382114
_cell_length_b 15.767408
_cell_length_c 21.077656
_cell_angle_alpha 90.000000
_cell_angle_beta 90.000000
_cell_angle_gamma 90.000000
_cell_volume 4779.751793
_symmetry_space_group_name_H-M "C M M M"
_symmetry_group_IT_number 65
_symmetry_cell_setting 'orthorhombic'
loop_
_space_group_symop_operation_xyz
x,y,z
-x,-y,z
x,-y,-z
-x,y,-z
-x,-y,-z
x,y,-z
-x,y,z
x,-y,z
1/2+x,1/2+y,z
1/2-x,1/2-y,z
1/2+x,1/2-y,-z
1/2-x,1/2+y,-z
1/2-x,1/2-y,-z
1/2+x,1/2+y,-z
1/2-x,1/2+y,z
1/2+x,1/2-y,z
loop_
_atom_site_type_symbol
_atom_site_label
_atom_site_fract_x
_atom_site_fract_y
_atom_site_fract_z
Si Si1 0.000000 0.319188 0.804030
Si Si2 0.107977 0.907527 0.634147
Si Si3 0.000000 0.218385 0.928706
Si Si4 0.602034 0.398758 0.500000
Si Si5 0.000000 0.500000 0.152276
Si Si6 0.658444 0.708293 0.749044
Si Si7 0.311185 0.000000 0.073360
Si Si8 0.305243 0.662933 0.886288
O O1 0.000000 0.295435 0.878814
O O2 0.000000 0.420189 0.800233
O O3 0.089998 0.283471 0.769190
O O4 0.152512 0.872102 0.567125
O O5 0.116661 0.847444 0.693889
O O6 0.000000 0.918845 0.619216
O O7 0.151124 0.000000 0.651074
O O8 0.092932 0.162120 0.918834
O O9 0.000000 0.255706 0.000000
O O10 0.596151 0.500000 0.500000
O O11 0.500000 0.356531 0.500000
O O12 0.092481 0.500000 0.110499
O O13 0.750000 0.750000 0.720234
O O14 0.681820 0.651774 0.810702
O O15 0.252415 0.083689 0.088886
O O16 0.336505 0.000000 0.000000
O O17 0.250000 0.750000 0.902114
#
# Coordination Sequence:
#
# PCOD8269541 Si02
#       8
#     8  16   8   8   4  16   8  16
#     4  10  22  38  53  75 103 132 172 223 260 310
#     4   9  16  28  51  79 107 136 169 208 256 309
#     4  10  20  37  59  76 101 140 169 208 279 332
#     4   7  12  24  43  74 110 137 160 202 258 303
#     4  12  23  38  58  76  98 135 180 226 276 305
#     4  10  19  35  52  74 106 139 173 210 257 309
#     4  12  25  39  58  81 103 133 181 226 268 332
#     4  10  23  39  54  77 109 139 173 223 273 319
#
# _framework density 17.574134999999998
#
# number of rings (size 3 to 8) (size 9 to 14) (size 15 to 20)
#    0.000    2.190    0.952    5.286    1.333    4.190 
#    1.714    1.429    0.000    0.000    0.000    0.000 
#    0.000    0.762    0.000    0.000    0.000    0.000 
#
# Total GULP energy -520412.842140 kJ/mol
# GULP energy per Si atom -12390.781956 kJ/mol
# Density = 1.753414 g / cm^3
# Si number density = 17.574135 Si / 1000 Ang^3
#
#
#
# Elastic Constant Matrix: (Units=GPa)
#
#
# Indices 1 2 3 4 5 6 
#
# 1 99.5968 40.1159 27.3887 0.0000 0.0000 0.0000
# 2 40.1159 112.4444 59.5448 0.0000 0.0000 0.0000
# 3 27.3887 59.5448 126.6596 0.0000 0.0000 0.0000
# 4 0.0000 0.0000 0.0000 3.2660 0.0000 0.0000
# 5 0.0000 0.0000 0.0000 0.0000 6.6982 0.0000
# 6 0.0000 0.0000 0.0000 0.0000 0.0000 58.6837
#
#
#
# Elastic Compliance Matrix: (Units=1/GPa)
#
#
# Indices 1 2 3 4 5 6 
#
# 1 0.011780 -0.003800 -0.000761 0.000000 0.000000 0.000000
# 2 -0.003800 0.013067 -0.005321 0.000000 0.000000 0.000000
# 3 -0.000761 -0.005321 0.010561 0.000000 0.000000 0.000000
# 4 0.000000 0.000000 0.000000 0.306182 0.000000 0.000000
# 5 0.000000 0.000000 0.000000 0.000000 0.149295 0.000000
# 6 0.000000 0.000000 0.000000 0.000000 0.000000 0.017041
#
#
# Mechanical properties :
#
#
# Convention : Reuss Voigt Hill
#
# Bulk Modulus (GPa) = 63.92101 65.86664 64.89383
# Shear Modulus (GPa) = 9.38255 27.83967 18.61111
#
# Velocity S-wave (km/s) = 2.31310 3.98443 3.25777
# Velocity P-wave (km/s) = 6.60190 7.66343 7.15239
#
# Compressibility (1/GPa) = 0.01564431
#
# Stress axis : x y z
#
# Youngs Moduli (GPa) = 84.88795 76.53012 94.68493
#
# Poissons Ratio (x) = 0.29080 0.07206
# Poissons Ratio (y) = 0.32255 0.50384
# Poissons Ratio (z) = 0.06460 0.40724
#
# Static dielectric constant tensor:
#      x y z
#    x 3.335690 0.000000 0.000000 
#    y 0.000000 3.067540 0.000000 
#    z 0.000000 0.000000 3.452010 
# 
# 
# High freq. dielectric constant tensor:
#      x y z
#    x 1.670900 0.000000 0.000000 
#    y 0.000000 1.655830 0.000000 
#    z 0.000000 0.000000 1.687560 
# 
# From -- ./inp_files/62537.got.cif
#   From: 2010.03.12/outbox.cif.g09.slc.cpg/sg65_32_cif.got.tgz:62537.got - 2010.04.10 20:52:16.
