data_PCOD8269415
_publ_section_title
;
Structure prediction by ZEFSAII (Michael W. Deem and Ramdas Pophale) SiO2 
 PCOD8269415
Probable space group: C M M M
;
_chemical_formula_sum "Si O2"
_cell_formula_units_Z 104
_cell_length_a 13.082302
_cell_length_b 20.109891
_cell_length_c 22.471190
_cell_angle_alpha 90.000000
_cell_angle_beta 90.000000
_cell_angle_gamma 90.000000
_cell_volume 5911.803073
_symmetry_space_group_name_H-M "C M M M"
_symmetry_group_IT_number 65
_symmetry_cell_setting 'orthorhombic'
loop_
_space_group_symop_operation_xyz
x,y,z
-x,-y,z
x,-y,-z
-x,y,-z
-x,-y,-z
x,y,-z
-x,y,z
x,-y,z
1/2+x,1/2+y,z
1/2-x,1/2-y,z
1/2+x,1/2-y,-z
1/2-x,1/2+y,-z
1/2-x,1/2-y,-z
1/2+x,1/2+y,-z
1/2-x,1/2+y,z
1/2+x,1/2-y,z
loop_
_atom_site_type_symbol
_atom_site_label
_atom_site_fract_x
_atom_site_fract_y
_atom_site_fract_z
Si Si1 0.810671 0.850422 0.391601
Si Si2 0.776858 0.421053 0.172367
Si Si3 0.111475 0.923175 0.500000
Si Si4 0.717117 0.177046 0.932388
Si Si5 0.500000 0.072541 0.816097
Si Si6 0.500000 0.871670 0.936575
Si Si7 0.618202 0.576458 0.275432
Si Si8 0.885480 0.711716 0.430804
O O1 0.826366 0.906245 0.440974
O O2 0.845335 0.876231 0.328030
O O3 0.878646 0.787171 0.408952
O O4 0.690127 0.833060 0.391202
O O5 0.785235 0.500000 0.157654
O O6 0.744831 0.380746 0.112853
O O7 0.888254 0.395061 0.199610
O O8 0.687552 0.406319 0.218920
O O9 0.000000 0.887372 0.500000
O O10 0.093090 0.000000 0.500000
O O11 0.750000 0.250000 0.910026
O O12 0.595026 0.177850 0.930840
O O13 0.757817 0.162970 0.000000
O O14 0.500000 0.069920 0.888124
O O15 0.500000 0.000000 0.787254
O O16 0.500000 0.909116 0.000000
O O17 0.500000 0.590935 0.259578
O O18 0.632923 0.500000 0.294883
O O19 0.852698 0.708319 0.500000
O O20 0.000000 0.684950 0.421321
#
# Coordination Sequence:
#
# PCOD8269415 Si02
#       8
#    16  16   8  16   8   8  16  16
#     4  11  19  34  53  77 103 134 172 213 256 307
#     4   9  18  34  54  76 103 135 172 213 259 312
#     4  11  20  29  49  79 101 123 165 220 264 299
#     4   9  17  31  51  76 105 135 168 210 259 309
#     4   8  14  27  50  74  96 124 161 206 251 303
#     4   8  14  25  44  70 101 130 157 198 251 303
#     4  10  21  37  55  74 102 139 176 218 263 304
#     4  10  19  34  56  78 106 138 164 204 262 316
#
# _framework density 17.591925
#
# number of rings (size 3 to 8) (size 9 to 14) (size 15 to 20)
#    0.000    2.385    1.538    2.308    0.000    1.692 
#    5.538    3.077    0.000    1.846    0.000    2.154 
#    0.000    0.000    0.000    0.000    0.000    0.000 
#
# Total GULP energy -644264.556207 kJ/mol
# GULP energy per Si atom -12389.703004 kJ/mol
# Density = 1.755189 g / cm^3
# Si number density = 17.591925 Si / 1000 Ang^3
#
#
#
# Elastic Constant Matrix: (Units=GPa)
#
#
# Indices 1 2 3 4 5 6 
#
# 1 124.4781 34.4457 56.0094 0.0000 0.0000 0.0000
# 2 34.4457 64.4211 42.2483 0.0000 0.0000 0.0000
# 3 56.0094 42.2483 96.9360 0.0000 0.0000 0.0000
# 4 0.0000 0.0000 0.0000 28.0106 0.0000 0.0000
# 5 0.0000 0.0000 0.0000 0.0000 27.5903 0.0000
# 6 0.0000 0.0000 0.0000 0.0000 0.0000 21.1518
#
#
#
# Elastic Compliance Matrix: (Units=1/GPa)
#
#
# Indices 1 2 3 4 5 6 
#
# 1 0.011120 -0.002425 -0.005368 0.000000 0.000000 0.000000
# 2 -0.002425 0.022264 -0.008302 0.000000 0.000000 0.000000
# 3 -0.005368 -0.008302 0.017036 0.000000 0.000000 0.000000
# 4 0.000000 0.000000 0.000000 0.035701 0.000000 0.000000
# 5 0.000000 0.000000 0.000000 0.000000 0.036245 0.000000
# 6 0.000000 0.000000 0.000000 0.000000 0.000000 0.047277
#
#
# Mechanical properties :
#
#
# Convention : Reuss Voigt Hill
#
# Bulk Modulus (GPa) = 54.85703 61.24913 58.05308
# Shear Modulus (GPa) = 24.04871 25.55933 24.80402
#
# Velocity S-wave (km/s) = 3.70135 3.81583 3.75903
# Velocity P-wave (km/s) = 7.03686 7.36928 7.20499
#
# Compressibility (1/GPa) = 0.01822920
#
# Stress axis : x y z
#
# Youngs Moduli (GPa) = 89.92737 44.91461 58.69853
#
# Poissons Ratio (x) = 0.10894 0.31510
# Poissons Ratio (y) = 0.21811 0.48733
# Poissons Ratio (z) = 0.48274 0.37289
#
# Static dielectric constant tensor:
#      x y z
#    x 3.498170 0.000000 0.000000 
#    y 0.000000 3.053520 0.000000 
#    z 0.000000 0.000000 3.201970 
# 
# 
# High freq. dielectric constant tensor:
#      x y z
#    x 1.690490 0.000000 0.000000 
#    y 0.000000 1.659880 0.000000 
#    z 0.000000 0.000000 1.666470 
# 
# From -- ./inp_files/53367.got.cif
#   From: 2010.03.12/outbox.cif.g09.slc.cpg/sg65_27_cif.got.tgz:53367.got - 2010.04.10 20:52:16.
