data_PCOD8269296
_publ_section_title
;
Structure prediction by ZEFSAII (Michael W. Deem and Ramdas Pophale) SiO2 
 PCOD8269296
Probable space group: C M M M
;
_chemical_formula_sum "Si O2"
_cell_formula_units_Z 104
_cell_length_a 32.433233
_cell_length_b 19.059601
_cell_length_c 9.235457
_cell_angle_alpha 90.000000
_cell_angle_beta 90.000000
_cell_angle_gamma 90.000000
_cell_volume 5709.031475
_symmetry_space_group_name_H-M "C M M M"
_symmetry_group_IT_number 65
_symmetry_cell_setting 'orthorhombic'
loop_
_space_group_symop_operation_xyz
x,y,z
-x,-y,z
x,-y,-z
-x,y,-z
-x,-y,-z
x,y,-z
-x,y,z
x,-y,z
1/2+x,1/2+y,z
1/2-x,1/2-y,z
1/2+x,1/2-y,-z
1/2-x,1/2+y,-z
1/2-x,1/2-y,-z
1/2+x,1/2+y,-z
1/2-x,1/2+y,z
1/2+x,1/2-y,z
loop_
_atom_site_type_symbol
_atom_site_label
_atom_site_fract_x
_atom_site_fract_y
_atom_site_fract_z
Si Si1 0.187557 0.416609 0.838930
Si Si2 0.235665 0.916723 0.662026
Si Si3 0.500000 0.421323 0.672023
Si Si4 0.952780 0.693778 0.666070
Si Si5 0.096157 0.579124 0.828472
Si Si6 0.654330 0.418600 0.829526
Si Si7 0.081217 0.843712 0.669359
O O1 0.190683 0.500000 0.847484
O O2 0.222456 0.385675 0.732434
O O3 0.142087 0.396070 0.780469
O O4 0.194778 0.385677 0.000000
O O5 0.230951 0.886028 0.500000
O O6 0.197089 0.893449 0.758996
O O7 0.238495 0.000000 0.656746
O O8 0.500000 0.500000 0.733098
O O9 0.500000 0.419063 0.500000
O O10 0.540726 0.382917 0.729115
O O11 0.948872 0.671103 0.500000
O O12 0.938057 0.629152 0.761762
O O13 0.924557 0.761278 0.697400
O O14 0.000000 0.712103 0.704745
O O15 0.087632 0.500000 0.773798
O O16 0.092838 0.582259 0.000000
O O17 0.645181 0.500000 0.793208
O O18 0.619214 0.370368 0.762542
O O19 0.657155 0.405884 0.000000
O O20 0.088765 0.860156 0.500000
#
# Coordination Sequence:
#
# PCOD8269296 Si02
#       7
#    16  16   8  16  16  16  16
#     4   8  14  27  47  71 101 133 164 204 253 301
#     4   9  16  26  44  72 103 135 171 208 249 301
#     4   9  16  28  51  77  96 123 166 214 259 301
#     4  10  21  37  55  76 104 136 171 214 264 315
#     4   9  19  35  55  80 107 136 172 211 253 308
#     4  10  20  32  47  72 106 140 174 214 259 303
#     4  10  19  34  53  73  99 133 175 217 258 310
#
# _framework density 18.216749
#
# number of rings (size 3 to 8) (size 9 to 14) (size 15 to 20)
#    0.000    2.692    0.769    2.308    0.000    5.538 
#    0.000    3.462    0.000    2.308    0.000    6.462 
#    0.000    0.000    0.000    0.000    0.000    0.000 
#
# Total GULP energy -644725.245475 kJ/mol
# GULP energy per Si atom -12398.562413 kJ/mol
# Density = 1.817529 g / cm^3
# Si number density = 18.216749 Si / 1000 Ang^3
#
#
#
# Elastic Constant Matrix: (Units=GPa)
#
#
# Indices 1 2 3 4 5 6 
#
# 1 90.6232 33.0153 46.0344 0.0000 0.0000 0.0000
# 2 33.0153 61.6893 31.4733 0.0000 0.0000 0.0000
# 3 46.0344 31.4733 79.0804 0.0000 0.0000 0.0000
# 4 0.0000 0.0000 0.0000 20.7794 0.0000 0.0000
# 5 0.0000 0.0000 0.0000 0.0000 34.0314 0.0000
# 6 0.0000 0.0000 0.0000 0.0000 0.0000 7.3850
#
#
#
# Elastic Compliance Matrix: (Units=1/GPa)
#
#
# Indices 1 2 3 4 5 6 
#
# 1 0.016825 -0.005029 -0.007793 0.000000 0.000000 0.000000
# 2 -0.005029 0.021843 -0.005766 0.000000 0.000000 0.000000
# 3 -0.007793 -0.005766 0.019477 0.000000 0.000000 0.000000
# 4 0.000000 0.000000 0.000000 0.048125 0.000000 0.000000
# 5 0.000000 0.000000 0.000000 0.000000 0.029385 0.000000
# 6 0.000000 0.000000 0.000000 0.000000 0.000000 0.135410
#
#
# Mechanical properties :
#
#
# Convention : Reuss Voigt Hill
#
# Bulk Modulus (GPa) = 47.68793 50.27100 48.97947
# Shear Modulus (GPa) = 15.86140 20.49714 18.17927
#
# Velocity S-wave (km/s) = 2.95397 3.35801 3.16245
# Velocity P-wave (km/s) = 6.15382 6.53383 6.34667
#
# Compressibility (1/GPa) = 0.02096967
#
# Stress axis : x y z
#
# Youngs Moduli (GPa) = 59.43384 45.78026 51.34337
#
# Poissons Ratio (x) = 0.23022 0.40012
# Poissons Ratio (y) = 0.29888 0.29605
# Poissons Ratio (z) = 0.46317 0.26398
#
# Static dielectric constant tensor:
#      x y z
#    x 3.546470 0.000000 0.000000 
#    y 0.000000 3.025570 0.000000 
#    z 0.000000 0.000000 3.312460 
# 
# 
# High freq. dielectric constant tensor:
#      x y z
#    x 1.717490 0.000000 0.000000 
#    y 0.000000 1.668710 0.000000 
#    z 0.000000 0.000000 1.696620 
# 
# From -- ./inp_files/18659.got.cif
#   From: 2010.03.12/outbox.cif.g09.slc.cpg/sg65_10_cif.got.tgz:18659.got - 2010.04.10 20:52:16.
