data_PCOD8269180
_publ_section_title
;
Structure prediction by ZEFSAII (Michael W. Deem and Ramdas Pophale) SiO2 
 PCOD8269180
Probable space group: C M M M
;
_chemical_formula_sum "Si O2"
_cell_formula_units_Z 88
_cell_length_a 28.515965
_cell_length_b 9.198174
_cell_length_c 17.847912
_cell_angle_alpha 90.000000
_cell_angle_beta 90.000000
_cell_angle_gamma 90.000000
_cell_volume 4681.414649
_symmetry_space_group_name_H-M "C M M M"
_symmetry_group_IT_number 65
_symmetry_cell_setting 'orthorhombic'
loop_
_space_group_symop_operation_xyz
x,y,z
-x,-y,z
x,-y,-z
-x,y,-z
-x,-y,-z
x,y,-z
-x,y,z
x,-y,z
1/2+x,1/2+y,z
1/2-x,1/2-y,z
1/2+x,1/2-y,-z
1/2-x,1/2+y,-z
1/2-x,1/2-y,-z
1/2+x,1/2+y,-z
1/2-x,1/2+y,z
1/2+x,1/2-y,z
loop_
_atom_site_type_symbol
_atom_site_label
_atom_site_fract_x
_atom_site_fract_y
_atom_site_fract_z
Si Si1 0.111047 0.172222 0.142819
Si Si2 0.893520 0.329440 0.414481
Si Si3 0.704384 0.167658 0.352431
Si Si4 0.703308 0.830042 0.822943
Si Si5 0.446255 0.331196 0.288670
Si Si6 0.552297 0.327801 0.000000
O O1 0.159721 0.257353 0.134960
O O2 0.084946 0.220076 0.218732
O O3 0.079298 0.224891 0.073854
O O4 0.120524 0.000000 0.140988
O O5 0.905433 0.291285 0.500000
O O6 0.895921 0.500000 0.398428
O O7 0.841352 0.272164 0.395133
O O8 0.932125 0.253717 0.363262
O O9 0.750000 0.250000 0.383276
O O10 0.696813 0.197501 0.265011
O O11 0.712714 0.000000 0.370169
O O12 0.750000 0.750000 0.852013
O O13 0.706349 0.000000 0.842603
O O14 0.500000 0.296540 0.269125
O O15 0.438512 0.500000 0.304741
O O16 0.548644 0.500000 0.000000
O O17 0.500000 0.260248 0.000000
#
# Coordination Sequence:
#
# PCOD8269180 Si02
#       6
#    16  16  16  16  16   8
#     4  10  19  34  58  85 112 143 180 221 269 324
#     4  10  21  37  54  75 106 142 181 224 270 322
#     4   9  18  32  51  76 105 137 174 217 264 315
#     4  10  19  33  55  82 112 144 181 223 268 319
#     4  10  21  36  55  79 106 138 179 225 271 321
#     4   9  18  34  58  87 116 145 180 225 274 323
#
# _framework density 18.797737999999999
#
# number of rings (size 3 to 8) (size 9 to 14) (size 15 to 20)
#    0.000    2.273    1.818    1.091    0.000    5.091 
#    0.000    2.727    0.000    2.182    0.000    0.000 
#    0.000    0.000    0.000    0.000    0.000    0.000 
#
# Total GULP energy -545733.136563 kJ/mol
# GULP energy per Si atom -12403.025831 kJ/mol
# Density = 1.875495 g / cm^3
# Si number density = 18.797738 Si / 1000 Ang^3
#
#
#
# Elastic Constant Matrix: (Units=GPa)
#
#
# Indices 1 2 3 4 5 6 
#
# 1 148.8764 55.0970 61.1842 0.0000 0.0000 0.0000
# 2 55.0970 56.3304 37.3976 0.0000 0.0000 0.0000
# 3 61.1842 37.3976 96.2539 0.0000 0.0000 0.0000
# 4 0.0000 0.0000 0.0000 19.2052 0.0000 0.0000
# 5 0.0000 0.0000 0.0000 0.0000 28.9192 0.0000
# 6 0.0000 0.0000 0.0000 0.0000 0.0000 34.9555
#
#
#
# Elastic Compliance Matrix: (Units=1/GPa)
#
#
# Indices 1 2 3 4 5 6 
#
# 1 0.011559 -0.008663 -0.003982 0.000000 0.000000 0.000000
# 2 -0.008663 0.030415 -0.006311 0.000000 0.000000 0.000000
# 3 -0.003982 -0.006311 0.015372 0.000000 0.000000 0.000000
# 4 0.000000 0.000000 0.000000 0.052069 0.000000 0.000000
# 5 0.000000 0.000000 0.000000 0.000000 0.034579 0.000000
# 6 0.000000 0.000000 0.000000 0.000000 0.000000 0.028608
#
#
# Mechanical properties :
#
#
# Convention : Reuss Voigt Hill
#
# Bulk Modulus (GPa) = 51.45122 67.64647 59.54884
# Shear Modulus (GPa) = 23.04225 26.46808 24.75517
#
# Velocity S-wave (km/s) = 3.50494 3.75647 3.63288
# Velocity P-wave (km/s) = 6.61890 7.40806 7.02457
#
# Compressibility (1/GPa) = 0.01943589
#
# Stress axis : x y z
#
# Youngs Moduli (GPa) = 86.50945 32.87847 65.05184
#
# Poissons Ratio (x) = 0.28481 0.25904
# Poissons Ratio (y) = 0.74940 0.41053
# Poissons Ratio (z) = 0.34449 0.20749
#
# Static dielectric constant tensor:
#      x y z
#    x 3.570490 0.000000 0.000000 
#    y 0.000000 3.269430 0.000000 
#    z 0.000000 0.000000 3.344320 
# 
# 
# High freq. dielectric constant tensor:
#      x y z
#    x 1.743300 0.000000 0.000000 
#    y 0.000000 1.712130 0.000000 
#    z 0.000000 0.000000 1.718230 
# 
# From -- ./inp_files/50342.got.cif
#   From: 2010.03.12/outbox.cif.g09.slc.cpg/sg65_26_cif.got.tgz:50342.got - 2010.04.10 20:52:16.
