data_PCOD8269471
_publ_section_title
;
Structure prediction by ZEFSAII (Michael W. Deem and Ramdas Pophale) SiO2 
 PCOD8269471
Probable space group: C M M M
;
_chemical_formula_sum "Si O2"
_cell_formula_units_Z 88
_cell_length_a 19.265577
_cell_length_b 8.779196
_cell_length_c 28.240991
_cell_angle_alpha 90.000000
_cell_angle_beta 90.000000
_cell_angle_gamma 90.000000
_cell_volume 4776.576063
_symmetry_space_group_name_H-M "C M M M"
_symmetry_group_IT_number 65
_symmetry_cell_setting 'orthorhombic'
loop_
_space_group_symop_operation_xyz
x,y,z
-x,-y,z
x,-y,-z
-x,y,-z
-x,-y,-z
x,y,-z
-x,y,z
x,-y,z
1/2+x,1/2+y,z
1/2-x,1/2-y,z
1/2+x,1/2-y,-z
1/2-x,1/2+y,-z
1/2-x,1/2-y,-z
1/2+x,1/2+y,-z
1/2-x,1/2+y,z
1/2+x,1/2-y,z
loop_
_atom_site_type_symbol
_atom_site_label
_atom_site_fract_x
_atom_site_fract_y
_atom_site_fract_z
Si Si1 0.577244 0.180939 0.948004
Si Si2 0.673181 0.180223 0.602880
Si Si3 0.676349 0.819978 0.239057
Si Si4 0.580712 0.679828 0.316163
Si Si5 0.676909 0.824684 0.500000
Si Si6 0.321924 0.179548 0.868606
O O1 0.500000 0.246690 0.941847
O O2 0.622502 0.249275 0.905241
O O3 0.575645 0.000000 0.944282
O O4 0.606445 0.228908 0.000000
O O5 0.750000 0.250000 0.609558
O O6 0.619029 0.255117 0.638114
O O7 0.640757 0.217461 0.550199
O O8 0.678039 0.000000 0.612483
O O9 0.750000 0.750000 0.255319
O O10 0.613937 0.752152 0.269419
O O11 0.659196 0.773755 0.185022
O O12 0.680566 0.000000 0.246399
O O13 0.500000 0.726393 0.318220
O O14 0.590460 0.500000 0.314483
O O15 0.750000 0.750000 0.500000
O O16 0.693292 0.000000 0.500000
O O17 0.250000 0.250000 0.884501
O O18 0.316512 0.000000 0.873182
#
# Coordination Sequence:
#
# PCOD8269471 Si02
#       6
#    16  16  16  16   8  16
#     4   8  14  26  45  69  97 129 165 203 241 284
#     4  10  19  34  57  82 108 137 171 209 250 297
#     4  10  20  35  55  76 100 131 168 210 255 304
#     4  11  24  39  53  73 103 136 171 211 255 303
#     4   8  16  30  51  80 107 133 167 207 247 290
#     4   9  18  31  49  74 100 126 159 201 247 295
#
# _framework density 18.423238000000001
#
# number of rings (size 3 to 8) (size 9 to 14) (size 15 to 20)
#    0.000    2.545    0.000    2.727    0.000    4.000 
#    0.000    2.273    0.000    3.273    0.000    1.273 
#    0.000    0.000    0.000    0.000    0.000    0.000 
#
# Total GULP energy -545285.454376 kJ/mol
# GULP energy per Si atom -12392.851236 kJ/mol
# Density = 1.838131 g / cm^3
# Si number density = 18.423238 Si / 1000 Ang^3
#
#
#
# Elastic Constant Matrix: (Units=GPa)
#
#
# Indices 1 2 3 4 5 6 
#
# 1 130.6736 44.9828 95.6705 0.0000 0.0000 0.0000
# 2 44.9828 54.3529 40.0261 0.0000 0.0000 0.0000
# 3 95.6705 40.0261 157.0228 0.0000 0.0000 0.0000
# 4 0.0000 0.0000 0.0000 14.5996 0.0000 0.0000
# 5 0.0000 0.0000 0.0000 0.0000 16.6336 0.0000
# 6 0.0000 0.0000 0.0000 0.0000 0.0000 25.9979
#
#
#
# Elastic Compliance Matrix: (Units=1/GPa)
#
#
# Indices 1 2 3 4 5 6 
#
# 1 0.015930 -0.007431 -0.007811 0.000000 0.000000 0.000000
# 2 -0.007431 0.026117 -0.002130 0.000000 0.000000 0.000000
# 3 -0.007811 -0.002130 0.011671 0.000000 0.000000 0.000000
# 4 0.000000 0.000000 0.000000 0.068495 0.000000 0.000000
# 5 0.000000 0.000000 0.000000 0.000000 0.060119 0.000000
# 6 0.000000 0.000000 0.000000 0.000000 0.000000 0.038465
#
#
# Mechanical properties :
#
#
# Convention : Reuss Voigt Hill
#
# Bulk Modulus (GPa) = 52.70741 78.15647 65.43194
# Shear Modulus (GPa) = 19.09384 22.20421 20.64903
#
# Velocity S-wave (km/s) = 3.22281 3.47541 3.35149
# Velocity P-wave (km/s) = 6.52073 7.65633 7.11124
#
# Compressibility (1/GPa) = 0.01897266
#
# Stress axis : x y z
#
# Youngs Moduli (GPa) = 62.77585 38.28969 85.68493
#
# Poissons Ratio (x) = 0.28454 0.66932
# Poissons Ratio (y) = 0.46650 0.18248
# Poissons Ratio (z) = 0.49036 0.08154
#
# Static dielectric constant tensor:
#      x y z
#    x 3.439530 0.000000 0.000000 
#    y 0.000000 3.283440 0.000000 
#    z 0.000000 0.000000 3.877190 
# 
# 
# High freq. dielectric constant tensor:
#      x y z
#    x 1.695630 0.000000 0.000000 
#    y 0.000000 1.704030 0.000000 
#    z 0.000000 0.000000 1.737240 
# 
# From -- ./inp_files/77943.got.cif
#   From: 2010.03.12/outbox.cif.g09.slc.cpg/sg65_39_cif.got.tgz:77943.got - 2010.04.10 20:52:16.
