data_PCOD8269158
_publ_section_title
;
Structure prediction by ZEFSAII (Michael W. Deem and Ramdas Pophale) SiO2 
 PCOD8269158
Probable space group: C M M M
;
_chemical_formula_sum "Si O2"
_cell_formula_units_Z 72
_cell_length_a 9.140491
_cell_length_b 18.355889
_cell_length_c 22.906479
_cell_angle_alpha 90.000000
_cell_angle_beta 90.000000
_cell_angle_gamma 90.000000
_cell_volume 3843.291153
_symmetry_space_group_name_H-M "C M M M"
_symmetry_group_IT_number 65
_symmetry_cell_setting 'orthorhombic'
loop_
_space_group_symop_operation_xyz
x,y,z
-x,-y,z
x,-y,-z
-x,y,-z
-x,-y,-z
x,y,-z
-x,y,z
x,-y,z
1/2+x,1/2+y,z
1/2-x,1/2-y,z
1/2+x,1/2-y,-z
1/2-x,1/2+y,-z
1/2-x,1/2-y,-z
1/2+x,1/2+y,-z
1/2-x,1/2+y,z
1/2+x,1/2-y,z
loop_
_atom_site_type_symbol
_atom_site_label
_atom_site_fract_x
_atom_site_fract_y
_atom_site_fract_z
Si Si1 0.167872 0.416605 0.567697
Si Si2 0.668492 0.584412 0.776380
Si Si3 0.666656 0.176196 0.000000
Si Si4 0.671607 0.827701 0.126650
Si Si5 0.828607 0.174151 0.338084
O O1 0.190553 0.398300 0.500000
O O2 0.211989 0.500000 0.580454
O O3 0.272314 0.363353 0.603179
O O4 0.000000 0.403108 0.585872
O O5 0.500000 0.598128 0.792826
O O6 0.703933 0.500000 0.768151
O O7 0.768211 0.614617 0.827842
O O8 0.710274 0.622928 0.716169
O O9 0.750000 0.250000 0.000000
O O10 0.702005 0.136511 0.938209
O O11 0.500000 0.199566 0.000000
O O12 0.500000 0.815659 0.137793
O O13 0.750000 0.750000 0.134392
O O14 0.750000 0.250000 0.327093
O O15 0.000000 0.188000 0.344584
#
# Coordination Sequence:
#
# PCOD8269158 Si02
#       5
#    16  16   8  16  16
#     4   9  19  37  60  85 113 144 178 218 264 314
#     4  10  22  39  56  77 107 140 177 223 271 319
#     4   8  16  30  49  76 107 137 173 217 261 310
#     4  10  19  33  55  81 108 140 178 219 265 316
#     4  11  23  38  57  81 109 142 180 223 269 316
#
# _framework density 18.733943
#
# number of rings (size 3 to 8) (size 9 to 14) (size 15 to 20)
#    0.000    2.222    0.000    3.333    0.000    7.111 
#    0.000    1.667    0.000    3.333    0.000    0.000 
#    0.000    0.000    0.000    0.000    0.000    0.000 
#
# Total GULP energy -446300.882038 kJ/mol
# GULP energy per Si atom -12397.246723 kJ/mol
# Density = 1.869130 g / cm^3
# Si number density = 18.733943 Si / 1000 Ang^3
#
#
#
# Elastic Constant Matrix: (Units=GPa)
#
#
# Indices 1 2 3 4 5 6 
#
# 1 96.7593 62.8244 70.2163 0.0000 0.0000 0.0000
# 2 62.8244 118.4678 69.2735 0.0000 0.0000 0.0000
# 3 70.2163 69.2735 124.9631 0.0000 0.0000 0.0000
# 4 0.0000 0.0000 0.0000 -36.2415 0.0000 0.0000
# 5 0.0000 0.0000 0.0000 0.0000 26.1236 0.0000
# 6 0.0000 0.0000 0.0000 0.0000 0.0000 26.5722
#
#
#
# Elastic Compliance Matrix: (Units=1/GPa)
#
#
# Indices 1 2 3 4 5 6 
#
# 1 0.019932 -0.005950 -0.007901 0.000000 0.000000 0.000000
# 2 -0.005950 0.014266 -0.004565 0.000000 0.000000 0.000000
# 3 -0.007901 -0.004565 0.014973 0.000000 0.000000 0.000000
# 4 0.000000 0.000000 0.000000 -0.027593 0.000000 0.000000
# 5 0.000000 0.000000 0.000000 0.000000 0.038280 0.000000
# 6 0.000000 0.000000 0.000000 0.000000 0.000000 0.037633
#
#
# Mechanical properties :
#
#
# Convention : Reuss Voigt Hill
#
# Bulk Modulus (GPa) = 81.05076 82.75760 81.90418
# Shear Modulus (GPa) = 36.11789 12.48261 24.30025
#
# Velocity S-wave (km/s) = 4.39559 2.58410 3.60547
# Velocity P-wave (km/s) = 8.31383 7.29209 7.81966
#
# Compressibility (1/GPa) = 0.01233795
#
# Stress axis : x y z
#
# Youngs Moduli (GPa) = 50.17094 70.09816 66.78783
#
# Poissons Ratio (x) = 0.41706 0.52772
# Poissons Ratio (y) = 0.29850 0.30489
# Poissons Ratio (z) = 0.39642 0.32000
#
# Static dielectric constant tensor:
#      x y z
#    x 3.481360 0.000000 0.000000 
#    y 0.000000 3.257010 0.000000 
#    z 0.000000 0.000000 3.904160 
# 
# 
# High freq. dielectric constant tensor:
#      x y z
#    x 1.733950 0.000000 0.000000 
#    y 0.000000 1.711380 0.000000 
#    z 0.000000 0.000000 1.745760 
# 
# From -- ./inp_files/66987.got.cif
#   From: 2010.03.12/outbox.cif.g09.slc.cpg/sg65_34_cif.got.tgz:66987.got - 2010.04.10 20:52:16.
