data_PCOD8269838
_publ_section_title
;
Structure prediction by ZEFSAII (Michael W. Deem and Ramdas Pophale) SiO2 
 PCOD8269838
Probable space group: C M M M
;
_chemical_formula_sum "Si O2"
_cell_formula_units_Z 96
_cell_length_a 27.999052
_cell_length_b 13.944469
_cell_length_c 14.417473
_cell_angle_alpha 90.000000
_cell_angle_beta 90.000000
_cell_angle_gamma 90.000000
_cell_volume 5629.041559
_symmetry_space_group_name_H-M "C M M M"
_symmetry_group_IT_number 65
_symmetry_cell_setting 'orthorhombic'
loop_
_space_group_symop_operation_xyz
x,y,z
-x,-y,z
x,-y,-z
-x,y,-z
-x,-y,-z
x,y,-z
-x,y,z
x,-y,z
1/2+x,1/2+y,z
1/2-x,1/2-y,z
1/2+x,1/2-y,-z
1/2-x,1/2+y,-z
1/2-x,1/2-y,-z
1/2+x,1/2+y,-z
1/2-x,1/2+y,z
1/2+x,1/2-y,z
loop_
_atom_site_type_symbol
_atom_site_label
_atom_site_fract_x
_atom_site_fract_y
_atom_site_fract_z
Si Si1 0.231248 0.148361 0.298449
Si Si2 0.445445 0.612281 0.305195
Si Si3 0.816971 0.394838 0.187476
Si Si4 0.199022 0.111951 0.500000
Si Si5 0.407041 0.386439 0.500000
Si Si6 0.360674 0.694855 0.196429
Si Si7 0.768673 0.387650 0.000000
Si Si8 0.661645 0.616103 0.000000
O O1 0.250000 0.250000 0.265909
O O2 0.272890 0.081294 0.257733
O O3 0.228631 0.141302 0.409357
O O4 0.179592 0.131204 0.250735
O O5 0.500000 0.634528 0.279485
O O6 0.433815 0.500000 0.295398
O O7 0.435477 0.648500 0.409710
O O8 0.412530 0.671870 0.236133
O O9 0.842836 0.500000 0.177486
O O10 0.852670 0.309041 0.216751
O O11 0.797029 0.354997 0.090344
O O12 0.146361 0.159622 0.500000
O O13 0.191715 0.000000 0.500000
O O14 0.403629 0.500000 0.500000
O O15 0.363141 0.662072 0.089958
O O16 0.715761 0.343337 0.000000
O O17 0.761427 0.500000 0.000000
O O18 0.657130 0.500000 0.000000
#
# Coordination Sequence:
#
# PCOD8269838 Si02
#       8
#    16  16  16   8   8  16   8   8
#     4  10  20  31  46  68  98 135 169 203 240 290
#     4  10  20  35  54  75  99 126 161 206 255 305
#     4  10  20  33  49  72 102 134 171 209 243 283
#     4  11  19  28  45  67  98 133 164 198 242 298
#     4   9  17  29  50  76  97 122 157 203 254 297
#     4  11  21  33  51  73  99 134 170 204 247 294
#     4   9  17  29  49  72  98 133 167 203 237 273
#     4  11  21  31  49  75 106 137 168 203 240 289
#
# _framework density 17.054413
#
# number of rings (size 3 to 8) (size 9 to 14) (size 15 to 20)
#    0.000    1.833    3.333    2.000    0.000    3.000 
#    0.000    0.417    0.000    2.000    0.000    0.000 
#    0.000    4.667    0.000    0.000    0.000    0.000 
#
# Total GULP energy -594919.367279 kJ/mol
# GULP energy per Si atom -12394.153485 kJ/mol
# Density = 1.701560 g / cm^3
# Si number density = 17.054413 Si / 1000 Ang^3
#
#
#
# Elastic Constant Matrix: (Units=GPa)
#
#
# Indices 1 2 3 4 5 6 
#
# 1 98.6214 35.9031 48.7180 0.0000 0.0000 0.0000
# 2 35.9031 74.8852 22.5131 0.0000 0.0000 0.0000
# 3 48.7180 22.5131 129.0500 0.0000 0.0000 0.0000
# 4 0.0000 0.0000 0.0000 39.9375 0.0000 0.0000
# 5 0.0000 0.0000 0.0000 0.0000 17.7395 0.0000
# 6 0.0000 0.0000 0.0000 0.0000 0.0000 19.8097
#
#
#
# Elastic Compliance Matrix: (Units=1/GPa)
#
#
# Indices 1 2 3 4 5 6 
#
# 1 0.014358 -0.005545 -0.004453 0.000000 0.000000 0.000000
# 2 -0.005545 0.016234 -0.000739 0.000000 0.000000 0.000000
# 3 -0.004453 -0.000739 0.009559 0.000000 0.000000 0.000000
# 4 0.000000 0.000000 0.000000 0.025039 0.000000 0.000000
# 5 0.000000 0.000000 0.000000 0.000000 0.056371 0.000000
# 6 0.000000 0.000000 0.000000 0.000000 0.000000 0.050480
#
#
# Mechanical properties :
#
#
# Convention : Reuss Voigt Hill
#
# Bulk Modulus (GPa) = 53.54006 57.42500 55.48253
# Shear Modulus (GPa) = 25.03222 28.52548 26.77885
#
# Velocity S-wave (km/s) = 3.83533 4.09420 3.96687
# Velocity P-wave (km/s) = 7.14666 7.48964 7.32016
#
# Compressibility (1/GPa) = 0.01867760
#
# Stress axis : x y z
#
# Youngs Moduli (GPa) = 69.64618 61.59729 104.61449
#
# Poissons Ratio (x) = 0.34157 0.46586
# Poissons Ratio (y) = 0.38620 0.07728
# Poissons Ratio (z) = 0.31014 0.04551
#
# Static dielectric constant tensor:
#      x y z
#    x 2.944090 0.000000 0.000000 
#    y 0.000000 3.056470 0.000000 
#    z 0.000000 0.000000 3.237570 
# 
# 
# High freq. dielectric constant tensor:
#      x y z
#    x 1.619770 0.000000 0.000000 
#    y 0.000000 1.646060 0.000000 
#    z 0.000000 0.000000 1.669930 
# 
# From -- ./inp_files/40749.got.cif
#   From: 2010.03.12/outbox.cif.g09.slc.cpg/sg65_21_cif.got.tgz:40749.got - 2010.04.10 20:52:16.
