data_PCOD8269702
_publ_section_title
;
Structure prediction by ZEFSAII (Michael W. Deem and Ramdas Pophale) SiO2 
 PCOD8269702
Probable space group: C M M M
;
_chemical_formula_sum "Si O2"
_cell_formula_units_Z 88
_cell_length_a 17.208373
_cell_length_b 8.238994
_cell_length_c 30.528664
_cell_angle_alpha 90.000000
_cell_angle_beta 90.000000
_cell_angle_gamma 90.000000
_cell_volume 4328.344271
_symmetry_space_group_name_H-M "C M M M"
_symmetry_group_IT_number 65
_symmetry_cell_setting 'orthorhombic'
loop_
_space_group_symop_operation_xyz
x,y,z
-x,-y,z
x,-y,-z
-x,y,-z
-x,-y,-z
x,y,-z
-x,y,z
x,-y,z
1/2+x,1/2+y,z
1/2-x,1/2-y,z
1/2+x,1/2-y,-z
1/2-x,1/2+y,-z
1/2-x,1/2-y,-z
1/2+x,1/2+y,-z
1/2-x,1/2+y,z
1/2+x,1/2-y,z
loop_
_atom_site_type_symbol
_atom_site_label
_atom_site_fract_x
_atom_site_fract_y
_atom_site_fract_z
Si Si1 0.165407 0.188722 0.915212
Si Si2 0.915423 0.744830 0.386286
Si Si3 0.590713 0.180726 0.000000
Si Si4 0.863576 0.000000 0.676475
Si Si5 0.778308 0.500000 0.614874
Si Si6 0.590520 0.184558 0.170296
Si Si7 0.138264 0.000000 0.448351
Si Si8 0.908395 0.000000 0.226463
O O1 0.250000 0.250000 0.927967
O O2 0.135737 0.296270 0.874924
O O3 0.163427 0.000000 0.902086
O O4 0.112916 0.217310 0.957396
O O5 0.836088 0.648647 0.385371
O O6 0.000000 0.653805 0.386553
O O7 0.911885 0.847592 0.341721
O O8 0.910435 0.846801 0.431067
O O9 0.500000 0.159104 0.000000
O O10 0.629433 0.000000 0.000000
O O11 0.775175 0.000000 0.658182
O O12 0.860695 0.000000 0.728573
O O13 0.725266 0.500000 0.571564
O O14 0.500000 0.204281 0.160205
O O15 0.616591 0.332148 0.202279
O O16 0.607692 0.000000 0.188722
O O17 0.144176 0.000000 0.500000
O O18 0.000000 0.000000 0.235617
#
# Coordination Sequence:
#
# PCOD8269702 Si02
#       8
#    16  16   8   8   8  16   8   8
#     4  12  24  40  62  88 125 164 205 252 307 368
#     4  10  20  36  59  85 116 154 199 252 304 359
#     4  11  24  41  62  91 121 157 208 256 304 366
#     4  10  19  38  62  84 115 156 197 243 300 373
#     4  10  21  37  58  86 121 154 197 249 315 365
#     4  10  21  40  65  93 125 161 203 252 306 368
#     4  10  20  36  57  81 115 164 209 244 297 371
#     4  10  20  38  65  92 122 161 206 252 306 370
#
# _framework density 20.331099999999999
#
# number of rings (size 3 to 8) (size 9 to 14) (size 15 to 20)
#    0.000    1.727    0.909    6.818    0.000    5.091 
#    1.636    1.818    0.000    1.636    0.000    0.000 
#    0.000    0.000    0.000    0.000    0.000    0.000 
#
# Total GULP energy -545216.842055 kJ/mol
# GULP energy per Si atom -12391.291865 kJ/mol
# Density = 2.028483 g / cm^3
# Si number density = 20.331100 Si / 1000 Ang^3
#
#
#
# Elastic Constant Matrix: (Units=GPa)
#
#
# Indices 1 2 3 4 5 6 
#
# 1 115.4509 24.1047 39.9069 0.0000 0.0000 0.0000
# 2 24.1047 129.2972 46.1929 0.0000 0.0000 0.0000
# 3 39.9069 46.1929 150.8374 0.0000 0.0000 0.0000
# 4 0.0000 0.0000 0.0000 8.8586 0.0000 0.0000
# 5 0.0000 0.0000 0.0000 0.0000 16.3686 0.0000
# 6 0.0000 0.0000 0.0000 0.0000 0.0000 33.9178
#
#
#
# Elastic Compliance Matrix: (Units=1/GPa)
#
#
# Indices 1 2 3 4 5 6 
#
# 1 0.009646 -0.000995 -0.002247 0.000000 0.000000 0.000000
# 2 -0.000995 0.008787 -0.002428 0.000000 0.000000 0.000000
# 3 -0.002247 -0.002428 0.007968 0.000000 0.000000 0.000000
# 4 0.000000 0.000000 0.000000 0.112885 0.000000 0.000000
# 5 0.000000 0.000000 0.000000 0.000000 0.061093 0.000000
# 6 0.000000 0.000000 0.000000 0.000000 0.000000 0.029483
#
#
# Mechanical properties :
#
#
# Convention : Reuss Voigt Hill
#
# Bulk Modulus (GPa) = 66.39975 68.44383 67.42179
# Shear Modulus (GPa) = 20.30683 30.85439 25.58061
#
# Velocity S-wave (km/s) = 3.16382 3.89986 3.55096
# Velocity P-wave (km/s) = 6.78796 7.34957 7.07434
#
# Compressibility (1/GPa) = 0.01506030
#
# Stress axis : x y z
#
# Youngs Moduli (GPa) = 103.66637 113.80468 125.50772
#
# Poissons Ratio (x) = 0.11329 0.28205
# Poissons Ratio (y) = 0.10320 0.30468
# Poissons Ratio (z) = 0.23296 0.27627
#
# Static dielectric constant tensor:
#      x y z
#    x 3.698220 0.000000 0.000000 
#    y 0.000000 4.129290 0.000000 
#    z 0.000000 0.000000 3.424580 
# 
# 
# High freq. dielectric constant tensor:
#      x y z
#    x 1.803080 0.000000 0.000000 
#    y 0.000000 1.805240 0.000000 
#    z 0.000000 0.000000 1.774180 
# 
# From -- ./inp_files/78039.got.cif
#   From: 2010.03.12/outbox.cif.g09.slc.cpg/sg65_40_cif.got.tgz:78039.got - 2010.04.10 20:52:16.
