data_PCOD8269036
_publ_section_title
;
Structure prediction by ZEFSAII (Michael W. Deem and Ramdas Pophale) SiO2 
 PCOD8269036
Probable space group: C M M M
;
_chemical_formula_sum "Si O2"
_cell_formula_units_Z 104
_cell_length_a 29.164524
_cell_length_b 9.358907
_cell_length_c 20.734143
_cell_angle_alpha 90.000000
_cell_angle_beta 90.000000
_cell_angle_gamma 90.000000
_cell_volume 5659.344270
_symmetry_space_group_name_H-M "C M M M"
_symmetry_group_IT_number 65
_symmetry_cell_setting 'orthorhombic'
loop_
_space_group_symop_operation_xyz
x,y,z
-x,-y,z
x,-y,-z
-x,y,-z
-x,-y,-z
x,y,-z
-x,y,z
x,-y,z
1/2+x,1/2+y,z
1/2-x,1/2-y,z
1/2+x,1/2-y,-z
1/2-x,1/2+y,-z
1/2-x,1/2-y,-z
1/2+x,1/2+y,-z
1/2-x,1/2+y,z
1/2+x,1/2-y,z
loop_
_atom_site_type_symbol
_atom_site_label
_atom_site_fract_x
_atom_site_fract_y
_atom_site_fract_z
Si Si1 0.893463 0.667769 0.126177
Si Si2 0.860712 0.333089 0.569983
Si Si3 0.704671 0.168101 0.681497
Si Si4 0.204800 0.334811 0.828507
Si Si5 0.947498 0.330734 0.000000
Si Si6 0.948890 0.662319 0.639899
Si Si7 0.447505 0.665262 0.767363
O O1 0.902035 0.500000 0.137051
O O2 0.838664 0.699953 0.125215
O O3 0.918450 0.722852 0.061464
O O4 0.915021 0.752555 0.184435
O O5 0.847495 0.264568 0.500000
O O6 0.850805 0.500000 0.566222
O O7 0.832775 0.271445 0.630983
O O8 0.914388 0.302445 0.581902
O O9 0.750000 0.250000 0.661640
O O10 0.690546 0.205986 0.755043
O O11 0.712583 0.000000 0.674103
O O12 0.218150 0.500000 0.833002
O O13 0.250000 0.250000 0.851637
O O14 0.950121 0.500000 0.000000
O O15 0.000000 0.269239 0.000000
O O16 0.941159 0.500000 0.665512
O O17 0.939143 0.770899 0.697249
O O18 0.000000 0.681891 0.612349
O O19 0.500000 0.687150 0.789249
O O20 0.433740 0.500000 0.766139
#
# Coordination Sequence:
#
# PCOD8269036 Si02
#       7
#    16  16  16  16   8  16  16
#     4  10  19  33  54  77 102 134 171 207 244 290
#     4   9  17  29  46  69  96 124 156 198 246 293
#     4   9  17  30  47  67  92 122 156 196 243 289
#     4   9  18  32  51  74  99 128 164 207 251 294
#     4   9  18  32  52  79 107 135 169 207 244 285
#     4   9  17  30  49  71  94 123 161 203 246 295
#     4  10  20  32  48  73 102 130 163 206 255 301
#
# _framework density 18.376688000000001
#
# number of rings (size 3 to 8) (size 9 to 14) (size 15 to 20)
#    0.000    2.692    0.000    1.846    0.000    5.231 
#    0.000    6.154    0.000    2.769    0.000    2.154 
#    0.000    0.000    0.000    0.000    0.000    0.000 
#
# Total GULP energy -644531.219235 kJ/mol
# GULP energy per Si atom -12394.831139 kJ/mol
# Density = 1.833486 g / cm^3
# Si number density = 18.376688 Si / 1000 Ang^3
#
#
#
# Elastic Constant Matrix: (Units=GPa)
#
#
# Indices 1 2 3 4 5 6 
#
# 1 127.7184 32.6047 63.3761 0.0000 0.0000 0.0000
# 2 32.6047 40.2704 15.9770 0.0000 0.0000 0.0000
# 3 63.3761 15.9770 70.5346 0.0000 0.0000 0.0000
# 4 0.0000 0.0000 0.0000 -6.5866 0.0000 0.0000
# 5 0.0000 0.0000 0.0000 0.0000 25.5595 0.0000
# 6 0.0000 0.0000 0.0000 0.0000 0.0000 27.5392
#
#
#
# Elastic Compliance Matrix: (Units=1/GPa)
#
#
# Indices 1 2 3 4 5 6 
#
# 1 0.016211 -0.008071 -0.012737 0.000000 0.000000 0.000000
# 2 -0.008071 0.031303 0.000162 0.000000 0.000000 0.000000
# 3 -0.012737 0.000162 0.025585 0.000000 0.000000 0.000000
# 4 0.000000 0.000000 0.000000 -0.151824 0.000000 0.000000
# 5 0.000000 0.000000 0.000000 0.000000 0.039124 0.000000
# 6 0.000000 0.000000 0.000000 0.000000 0.000000 0.036312
#
#
# Mechanical properties :
#
#
# Convention : Reuss Voigt Hill
#
# Bulk Modulus (GPa) = 31.44139 51.38211 41.41175
# Shear Modulus (GPa) = 102.86732 17.74014 60.30373
#
# Velocity S-wave (km/s) = 7.48990 3.11040 5.73468
# Velocity P-wave (km/s) = 9.58878 6.39692 8.15062
#
# Compressibility (1/GPa) = 0.03180521
#
# Stress axis : x y z
#
# Youngs Moduli (GPa) = 61.68781 31.94580 39.08497
#
# Poissons Ratio (x) = 0.25785 0.49783
# Poissons Ratio (y) = 0.49791 -0.00632
# Poissons Ratio (z) = 0.78573 -0.00517
#
# Static dielectric constant tensor:
#      x y z
#    x 3.558670 0.000000 0.000000 
#    y 0.000000 3.134590 0.000000 
#    z 0.000000 0.000000 3.508920 
# 
# 
# High freq. dielectric constant tensor:
#      x y z
#    x 1.722130 0.000000 0.000000 
#    y 0.000000 1.680890 0.000000 
#    z 0.000000 0.000000 1.700190 
# 
# From -- ./inp_files/66330.got.cif
#   From: 2010.03.12/outbox.cif.g09.slc.cpg/sg65_34_cif.got.tgz:66330.got - 2010.04.10 20:52:16.
