data_PCOD8269100
_publ_section_title
;
Structure prediction by ZEFSAII (Michael W. Deem and Ramdas Pophale) SiO2 
 PCOD8269100
Probable space group: C M M M
;
_chemical_formula_sum "Si O2"
_cell_formula_units_Z 88
_cell_length_a 18.290065
_cell_length_b 9.735717
_cell_length_c 26.288382
_cell_angle_alpha 90.000000
_cell_angle_beta 90.000000
_cell_angle_gamma 90.000000
_cell_volume 4681.090603
_symmetry_space_group_name_H-M "C M M M"
_symmetry_group_IT_number 65
_symmetry_cell_setting 'orthorhombic'
loop_
_space_group_symop_operation_xyz
x,y,z
-x,-y,z
x,-y,-z
-x,y,-z
-x,-y,-z
x,y,-z
-x,y,z
x,-y,z
1/2+x,1/2+y,z
1/2-x,1/2-y,z
1/2+x,1/2-y,-z
1/2-x,1/2+y,-z
1/2-x,1/2-y,-z
1/2+x,1/2+y,-z
1/2-x,1/2+y,z
1/2+x,1/2-y,z
loop_
_atom_site_type_symbol
_atom_site_label
_atom_site_fract_x
_atom_site_fract_y
_atom_site_fract_z
Si Si1 0.585341 0.342340 0.400394
Si Si2 0.912810 0.000000 0.942077
Si Si3 0.586318 0.753054 0.122428
Si Si4 0.821845 0.661098 0.329763
Si Si5 0.319548 0.841002 0.788275
Si Si6 0.412935 0.000000 0.943958
Si Si7 0.178321 0.842416 0.500000
O O1 0.500000 0.319181 0.411136
O O2 0.599702 0.500000 0.382497
O O3 0.610576 0.232576 0.358207
O O4 0.629318 0.308583 0.451351
O O5 0.883171 0.123962 0.908193
O O6 0.000000 0.000000 0.946039
O O7 0.881216 0.000000 0.000000
O O8 0.500000 0.749110 0.127881
O O9 0.615560 0.773272 0.179337
O O10 0.616360 0.871978 0.086792
O O11 0.811556 0.500000 0.345699
O O12 0.750000 0.750000 0.343640
O O13 0.840899 0.671862 0.270524
O O14 0.250000 0.750000 0.801509
O O15 0.305559 0.000000 0.802725
O O16 0.500000 0.000000 0.947629
O O17 0.378285 0.000000 0.000000
O O18 0.250000 0.750000 0.500000
O O19 0.204070 0.000000 0.500000
#
# Coordination Sequence:
#
# PCOD8269100 Si02
#       7
#    16   8  16  16  16   8   8
#     4  10  21  38  59  86 119 154 191 235 286 334
#     4   9  18  32  51  79 111 139 171 218 273 324
#     4  10  19  33  54  80 106 136 177 223 270 321
#     4  10  21  38  59  82 110 147 191 235 281 336
#     4  10  22  38  57  79 108 145 181 224 276 331
#     4   9  16  28  51  79 103 131 173 222 267 318
#     4  10  21  37  59  85 117 158 199 238 278 328
#
# _framework density 18.799037999999999
#
# number of rings (size 3 to 8) (size 9 to 14) (size 15 to 20)
#    0.000    2.182    0.909    1.909    1.273    7.273 
#    0.000    1.818    0.000    4.909    0.000    0.000 
#    0.000    0.000    0.000    0.000    0.000    0.000 
#
# Total GULP energy -545413.533828 kJ/mol
# GULP energy per Si atom -12395.762132 kJ/mol
# Density = 1.875625 g / cm^3
# Si number density = 18.799038 Si / 1000 Ang^3
#
#
#
# Elastic Constant Matrix: (Units=GPa)
#
#
# Indices 1 2 3 4 5 6 
#
# 1 86.5131 59.3099 55.4161 0.0000 0.0000 0.0000
# 2 59.3099 161.2201 69.6914 0.0000 0.0000 0.0000
# 3 55.4161 69.6914 106.3891 0.0000 0.0000 0.0000
# 4 0.0000 0.0000 0.0000 31.3495 0.0000 0.0000
# 5 0.0000 0.0000 0.0000 0.0000 26.4354 0.0000
# 6 0.0000 0.0000 0.0000 0.0000 0.0000 33.2790
#
#
#
# Elastic Compliance Matrix: (Units=1/GPa)
#
#
# Indices 1 2 3 4 5 6 
#
# 1 0.018844 -0.003752 -0.007358 0.000000 0.000000 0.000000
# 2 -0.003752 0.009400 -0.004203 0.000000 0.000000 0.000000
# 3 -0.007358 -0.004203 0.015985 0.000000 0.000000 0.000000
# 4 0.000000 0.000000 0.000000 0.031898 0.000000 0.000000
# 5 0.000000 0.000000 0.000000 0.000000 0.037828 0.000000
# 6 0.000000 0.000000 0.000000 0.000000 0.000000 0.030049
#
#
# Mechanical properties :
#
#
# Convention : Reuss Voigt Hill
#
# Bulk Modulus (GPa) = 73.51021 80.32858 76.91939
# Shear Modulus (GPa) = 27.90717 29.52644 28.71680
#
# Velocity S-wave (km/s) = 3.85710 3.96742 3.91265
# Velocity P-wave (km/s) = 7.68273 7.98813 7.83692
#
# Compressibility (1/GPa) = 0.01360355
#
# Stress axis : x y z
#
# Youngs Moduli (GPa) = 53.06692 106.38437 62.55675
#
# Poissons Ratio (x) = 0.39913 0.46029
# Poissons Ratio (y) = 0.19909 0.26294
# Poissons Ratio (z) = 0.39046 0.44716
#
# Static dielectric constant tensor:
#      x y z
#    x 3.148040 0.000000 0.000000 
#    y 0.000000 3.701560 0.000000 
#    z 0.000000 0.000000 3.557780 
# 
# 
# High freq. dielectric constant tensor:
#      x y z
#    x 1.703010 0.000000 0.000000 
#    y 0.000000 1.744890 0.000000 
#    z 0.000000 0.000000 1.740960 
# 
# From -- ./inp_files/71043.got.cif
#   From: 2010.03.12/outbox.cif.g09.slc.cpg/sg65_36_cif.got.tgz:71043.got - 2010.04.10 20:52:16.
