data_PCOD8269312
_publ_section_title
;
Structure prediction by ZEFSAII (Michael W. Deem and Ramdas Pophale) SiO2 
 PCOD8269312
Probable space group: C M M M
;
_chemical_formula_sum "Si O2"
_cell_formula_units_Z 80
_cell_length_a 10.053113
_cell_length_b 20.922743
_cell_length_c 21.959628
_cell_angle_alpha 90.000000
_cell_angle_beta 90.000000
_cell_angle_gamma 90.000000
_cell_volume 4618.959598
_symmetry_space_group_name_H-M "C M M M"
_symmetry_group_IT_number 65
_symmetry_cell_setting 'orthorhombic'
loop_
_space_group_symop_operation_xyz
x,y,z
-x,-y,z
x,-y,-z
-x,y,-z
-x,-y,-z
x,y,-z
-x,y,z
x,-y,z
1/2+x,1/2+y,z
1/2-x,1/2-y,z
1/2+x,1/2-y,-z
1/2-x,1/2+y,-z
1/2-x,1/2-y,-z
1/2+x,1/2+y,-z
1/2-x,1/2+y,z
1/2+x,1/2-y,z
loop_
_atom_site_type_symbol
_atom_site_label
_atom_site_fract_x
_atom_site_fract_y
_atom_site_fract_z
Si Si1 0.642493 0.198216 0.000000
Si Si2 0.853631 0.000000 0.071109
Si Si3 0.852059 0.573565 0.239553
Si Si4 0.152980 0.193222 0.571044
Si Si5 0.852840 0.397941 0.107743
Si Si6 0.153700 0.926645 0.653891
O O1 0.750000 0.250000 0.000000
O O2 0.657471 0.161390 0.936714
O O3 0.500000 0.232178 0.000000
O O4 0.772352 0.939207 0.090612
O O5 0.000000 0.000000 0.102290
O O6 0.872444 0.000000 0.000000
O O7 0.829793 0.500000 0.218715
O O8 0.837497 0.618429 0.179662
O O9 0.742867 0.593645 0.288745
O O10 0.000000 0.581903 0.267950
O O11 0.177845 0.182421 0.500000
O O12 0.250000 0.250000 0.595319
O O13 0.186701 0.124675 0.601372
O O14 0.000000 0.213138 0.584483
O O15 0.000000 0.430267 0.098261
O O16 0.000000 0.921978 0.673505
O O17 0.186644 0.000000 0.632652
#
# Coordination Sequence:
#
# PCOD8269312 Si02
#       6
#     8   8  16  16  16  16
#     4  10  22  37  54  69  91 128 168 210 253 298
#     4  11  21  29  45  79 107 121 146 199 256 295
#     4   9  17  30  50  75 101 130 164 201 243 297
#     4   9  18  33  53  76 102 135 175 215 255 300
#     4  10  19  34  54  72  94 130 167 200 245 305
#     4   9  18  32  50  75 107 138 167 206 258 308
#
# _framework density 17.319917
#
# number of rings (size 3 to 8) (size 9 to 14) (size 15 to 20)
#    0.000    2.500    2.000    0.300    0.000    3.200 
#    0.000    3.000    0.000    4.800    0.000    5.600 
#    0.000    0.000    0.000    0.000    0.000    0.000 
#
# Total GULP energy -495563.079909 kJ/mol
# GULP energy per Si atom -12389.076998 kJ/mol
# Density = 1.728050 g / cm^3
# Si number density = 17.319917 Si / 1000 Ang^3
#
#
#
# Elastic Constant Matrix: (Units=GPa)
#
#
# Indices 1 2 3 4 5 6 
#
# 1 142.3733 68.7788 55.4871 0.0000 0.0000 0.0000
# 2 68.7788 89.9746 52.7464 0.0000 0.0000 0.0000
# 3 55.4871 52.7464 91.8325 0.0000 0.0000 0.0000
# 4 0.0000 0.0000 0.0000 4.5869 0.0000 0.0000
# 5 0.0000 0.0000 0.0000 0.0000 28.2735 0.0000
# 6 0.0000 0.0000 0.0000 0.0000 0.0000 30.7815
#
#
#
# Elastic Compliance Matrix: (Units=1/GPa)
#
#
# Indices 1 2 3 4 5 6 
#
# 1 0.011625 -0.007190 -0.002895 0.000000 0.000000 0.000000
# 2 -0.007190 0.021203 -0.007834 0.000000 0.000000 0.000000
# 3 -0.002895 -0.007834 0.017138 0.000000 0.000000 0.000000
# 4 0.000000 0.000000 0.000000 0.218012 0.000000 0.000000
# 5 0.000000 0.000000 0.000000 0.000000 0.035369 0.000000
# 6 0.000000 0.000000 0.000000 0.000000 0.000000 0.032487
#
#
# Mechanical properties :
#
#
# Convention : Reuss Voigt Hill
#
# Bulk Modulus (GPa) = 70.77554 75.35610 73.06582
# Shear Modulus (GPa) = 13.28442 22.53960 17.91201
#
# Velocity S-wave (km/s) = 2.77249 3.61136 3.21936
# Velocity P-wave (km/s) = 7.15551 7.80974 7.48977
#
# Compressibility (1/GPa) = 0.01412917
#
# Stress axis : x y z
#
# Youngs Moduli (GPa) = 86.02074 47.16331 58.34904
#
# Poissons Ratio (x) = 0.33908 0.16890
# Poissons Ratio (y) = 0.61845 0.45713
# Poissons Ratio (z) = 0.24900 0.36949
#
# Static dielectric constant tensor:
#      x y z
#    x 3.043410 0.000000 0.000000 
#    y 0.000000 2.896620 0.000000 
#    z 0.000000 0.000000 3.150280 
# 
# 
# High freq. dielectric constant tensor:
#      x y z
#    x 1.685720 0.000000 0.000000 
#    y 0.000000 1.636960 0.000000 
#    z 0.000000 0.000000 1.663550 
# 
# From -- ./inp_files/59632.got.cif
#   From: 2010.03.12/outbox.cif.g09.slc.cpg/sg65_30_cif.got.tgz:59632.got - 2010.04.10 20:52:16.
