data_PCOD8269791
_publ_section_title
;
Structure prediction by ZEFSAII (Michael W. Deem and Ramdas Pophale) SiO2 
 PCOD8269791
Probable space group: C M M M
;
_chemical_formula_sum "Si O2"
_cell_formula_units_Z 104
_cell_length_a 9.122108
_cell_length_b 30.135329
_cell_length_c 22.262351
_cell_angle_alpha 90.000000
_cell_angle_beta 90.000000
_cell_angle_gamma 90.000000
_cell_volume 6119.869660
_symmetry_space_group_name_H-M "C M M M"
_symmetry_group_IT_number 65
_symmetry_cell_setting 'orthorhombic'
loop_
_space_group_symop_operation_xyz
x,y,z
-x,-y,z
x,-y,-z
-x,y,-z
-x,-y,-z
x,y,-z
-x,y,z
x,-y,z
1/2+x,1/2+y,z
1/2-x,1/2-y,z
1/2+x,1/2-y,-z
1/2-x,1/2+y,-z
1/2-x,1/2-y,-z
1/2+x,1/2+y,-z
1/2-x,1/2+y,z
1/2+x,1/2-y,z
loop_
_atom_site_type_symbol
_atom_site_label
_atom_site_fract_x
_atom_site_fract_y
_atom_site_fract_z
Si Si1 0.672931 0.951671 0.500000
Si Si2 0.331136 0.947230 0.630030
Si Si3 0.171113 0.880965 0.287232
Si Si4 0.665747 0.207006 0.710520
Si Si5 0.832973 0.448365 0.931164
Si Si6 0.670465 0.620030 0.147824
Si Si7 0.165183 0.292681 0.146427
O O1 0.500000 0.958551 0.500000
O O2 0.715186 0.928309 0.436649
O O3 0.748350 0.000000 0.500000
O O4 0.500000 0.935502 0.644210
O O5 0.227989 0.924236 0.678534
O O6 0.306770 0.000000 0.633108
O O7 0.253077 0.837303 0.312015
O O8 0.205719 0.888599 0.217404
O O9 0.000000 0.874370 0.298995
O O10 0.500000 0.207046 0.685678
O O11 0.750000 0.250000 0.684588
O O12 0.666888 0.208693 0.782028
O O13 0.802583 0.500000 0.921178
O O14 0.721603 0.422564 0.888836
O O15 0.000000 0.436681 0.913555
O O16 0.803208 0.435207 0.000000
O O17 0.500000 0.628428 0.137172
O O18 0.755331 0.663085 0.123246
O O19 0.250000 0.250000 0.120379
O O20 0.000000 0.292180 0.121459
#
# Coordination Sequence:
#
# PCOD8269791 Si02
#       7
#     8  16  16  16  16  16  16
#     4   7  12  26  47  67  86 113 154 199 235 271
#     4   9  17  30  48  68  91 122 159 196 234 277
#     4  10  20  31  43  66 100 130 156 189 230 275
#     4   9  16  27  44  65  90 121 156 192 230 272
#     4   9  19  36  55  72  90 116 154 198 239 279
#     4  10  20  32  47  69  97 127 157 190 230 276
#     4   9  16  27  45  68  94 123 154 188 227 273
#
# _framework density 16.993825999999999
#
# number of rings (size 3 to 8) (size 9 to 14) (size 15 to 20)
#    0.000    2.846    0.000    3.231    0.000    7.077 
#    0.000    4.231    0.000    1.846    0.000    0.538 
#    0.000    0.000    0.000    0.000    0.000    0.000 
#
# Total GULP energy -644612.473243 kJ/mol
# GULP energy per Si atom -12396.393716 kJ/mol
# Density = 1.695515 g / cm^3
# Si number density = 16.993826 Si / 1000 Ang^3
#
#
#
# Elastic Constant Matrix: (Units=GPa)
#
#
# Indices 1 2 3 4 5 6 
#
# 1 112.3771 57.3183 43.4561 0.0000 0.0000 0.0000
# 2 57.3183 91.2999 42.7602 0.0000 0.0000 0.0000
# 3 43.4561 42.7602 52.9478 0.0000 0.0000 0.0000
# 4 0.0000 0.0000 0.0000 1.3832 0.0000 0.0000
# 5 0.0000 0.0000 0.0000 0.0000 17.7145 0.0000
# 6 0.0000 0.0000 0.0000 0.0000 0.0000 36.6350
#
#
#
# Elastic Compliance Matrix: (Units=1/GPa)
#
#
# Indices 1 2 3 4 5 6 
#
# 1 0.014703 -0.005756 -0.007419 0.000000 0.000000 0.000000
# 2 -0.005756 0.019869 -0.011322 0.000000 0.000000 0.000000
# 3 -0.007419 -0.011322 0.034119 0.000000 0.000000 0.000000
# 4 0.000000 0.000000 0.000000 0.722973 0.000000 0.000000
# 5 0.000000 0.000000 0.000000 0.000000 0.056451 0.000000
# 6 0.000000 0.000000 0.000000 0.000000 0.000000 0.027296
#
#
# Mechanical properties :
#
#
# Convention : Reuss Voigt Hill
#
# Bulk Modulus (GPa) = 50.76777 60.41045 55.58911
# Shear Modulus (GPa) = 5.37073 18.68589 12.02831
#
# Velocity S-wave (km/s) = 1.77968 3.31957 2.66335
# Velocity P-wave (km/s) = 5.84484 7.09355 6.49925
#
# Compressibility (1/GPa) = 0.01969754
#
# Stress axis : x y z
#
# Youngs Moduli (GPa) = 68.01102 50.32888 29.30904
#
# Poissons Ratio (x) = 0.28970 0.21744
# Poissons Ratio (y) = 0.39148 0.33184
# Poissons Ratio (z) = 0.50458 0.56982
#
# Static dielectric constant tensor:
#      x y z
#    x 3.201800 0.000000 0.000000 
#    y 0.000000 3.142410 0.000000 
#    z 0.000000 0.000000 2.951130 
# 
# 
# High freq. dielectric constant tensor:
#      x y z
#    x 1.659480 0.000000 0.000000 
#    y 0.000000 1.653040 0.000000 
#    z 0.000000 0.000000 1.616780 
# 
# From -- ./inp_files/68190.got.cif
#   From: 2010.03.12/outbox.cif.g09.slc.cpg/sg65_35_cif.got.tgz:68190.got - 2010.04.10 20:52:16.
