data_PCOD8269110
_publ_section_title
;
Structure prediction by ZEFSAII (Michael W. Deem and Ramdas Pophale) SiO2 
 PCOD8269110
Probable space group: C M M M
;
_chemical_formula_sum "Si O2"
_cell_formula_units_Z 104
_cell_length_a 8.742155
_cell_length_b 28.634523
_cell_length_c 23.302820
_cell_angle_alpha 90.000000
_cell_angle_beta 90.000000
_cell_angle_gamma 90.000000
_cell_volume 5833.335238
_symmetry_space_group_name_H-M "C M M M"
_symmetry_group_IT_number 65
_symmetry_cell_setting 'orthorhombic'
loop_
_space_group_symop_operation_xyz
x,y,z
-x,-y,z
x,-y,-z
-x,y,-z
-x,-y,-z
x,y,-z
-x,y,z
x,-y,z
1/2+x,1/2+y,z
1/2-x,1/2-y,z
1/2+x,1/2-y,-z
1/2-x,1/2+y,-z
1/2-x,1/2-y,-z
1/2+x,1/2+y,-z
1/2-x,1/2+y,z
1/2+x,1/2-y,z
loop_
_atom_site_type_symbol
_atom_site_label
_atom_site_fract_x
_atom_site_fract_y
_atom_site_fract_z
Si Si1 0.678303 0.946012 0.162014
Si Si2 0.819144 0.297968 0.110891
Si Si3 0.180814 0.610684 0.274629
Si Si4 0.826690 0.055455 0.500000
Si Si5 0.680646 0.052831 0.615743
Si Si6 0.181220 0.798136 0.764581
Si Si7 0.175233 0.112548 0.935308
O O1 0.500000 0.938099 0.150010
O O2 0.730350 0.918328 0.218571
O O3 0.769954 0.927928 0.107113
O O4 0.717428 0.000000 0.171950
O O5 0.750000 0.250000 0.085474
O O6 0.750357 0.308620 0.173113
O O7 0.775717 0.340661 0.070021
O O8 0.000000 0.293079 0.115904
O O9 0.237413 0.582733 0.330316
O O10 0.268476 0.659887 0.276736
O O11 0.000000 0.619266 0.275409
O O12 0.747035 0.075291 0.557350
O O13 0.000000 0.072526 0.500000
O O14 0.809554 0.000000 0.500000
O O15 0.500000 0.053338 0.611113
O O16 0.740841 0.000000 0.624495
O O17 0.250000 0.750000 0.739718
O O18 0.000000 0.794130 0.768595
O O19 0.000000 0.125106 0.921466
O O20 0.194250 0.093565 0.000000
#
# Coordination Sequence:
#
# PCOD8269110 Si02
#       7
#    16  16  16   8  16  16  16
#     4  10  21  37  57  79 104 136 174 217 265 315
#     4  11  21  36  58  81 105 133 166 209 262 320
#     4  10  19  33  54  81 110 139 174 218 264 312
#     4   9  17  29  45  69 106 147 186 227 265 299
#     4   9  17  30  50  76 108 147 186 219 257 308
#     4  11  21  34  54  79 108 139 172 210 259 315
#     4  11  24  40  56  76 103 136 175 217 263 317
#
# _framework density 17.828565999999999
#
# number of rings (size 3 to 8) (size 9 to 14) (size 15 to 20)
#    0.000    1.769    1.538    4.846    0.000    5.538 
#    0.000    1.538    0.000    2.769    0.000    0.538 
#    0.000    0.000    0.000    0.000    0.000    0.000 
#
# Total GULP energy -644951.439560 kJ/mol
# GULP energy per Si atom -12402.912299 kJ/mol
# Density = 1.778799 g / cm^3
# Si number density = 17.828566 Si / 1000 Ang^3
#
#
#
# Elastic Constant Matrix: (Units=GPa)
#
#
# Indices 1 2 3 4 5 6 
#
# 1 94.5900 43.7460 46.3408 0.0000 0.0000 0.0000
# 2 43.7460 107.5804 58.3894 0.0000 0.0000 0.0000
# 3 46.3408 58.3894 124.0436 0.0000 0.0000 0.0000
# 4 0.0000 0.0000 0.0000 22.5318 0.0000 0.0000
# 5 0.0000 0.0000 0.0000 0.0000 21.6478 0.0000
# 6 0.0000 0.0000 0.0000 0.0000 0.0000 29.2627
#
#
#
# Elastic Compliance Matrix: (Units=1/GPa)
#
#
# Indices 1 2 3 4 5 6 
#
# 1 0.014031 -0.003842 -0.003433 0.000000 0.000000 0.000000
# 2 -0.003842 0.013537 -0.004937 0.000000 0.000000 0.000000
# 3 -0.003433 -0.004937 0.011668 0.000000 0.000000 0.000000
# 4 0.000000 0.000000 0.000000 0.044382 0.000000 0.000000
# 5 0.000000 0.000000 0.000000 0.000000 0.046194 0.000000
# 6 0.000000 0.000000 0.000000 0.000000 0.000000 0.034173
#
#
# Mechanical properties :
#
#
# Convention : Reuss Voigt Hill
#
# Bulk Modulus (GPa) = 67.51310 69.24069 68.37689
# Shear Modulus (GPa) = 25.86030 26.53764 26.19897
#
# Velocity S-wave (km/s) = 3.81267 3.86228 3.83756
# Velocity P-wave (km/s) = 7.57180 7.66882 7.62046
#
# Compressibility (1/GPa) = 0.01481194
#
# Stress axis : x y z
#
# Youngs Moduli (GPa) = 71.27194 73.87076 85.70365
#
# Poissons Ratio (x) = 0.28381 0.29424
# Poissons Ratio (y) = 0.27383 0.42310
# Poissons Ratio (z) = 0.24469 0.36469
#
# Static dielectric constant tensor:
#      x y z
#    x 3.312510 0.000000 0.000000 
#    y 0.000000 3.338310 0.000000 
#    z 0.000000 0.000000 3.280720 
# 
# 
# High freq. dielectric constant tensor:
#      x y z
#    x 1.694990 0.000000 0.000000 
#    y 0.000000 1.680990 0.000000 
#    z 0.000000 0.000000 1.675240 
# 
# From -- ./inp_files/68502.got.cif
#   From: 2010.03.12/outbox.cif.g09.slc.cpg/sg65_35_cif.got.tgz:68502.got - 2010.04.10 20:52:16.
