data_PCOD8269299
_publ_section_title
;
Structure prediction by ZEFSAII (Michael W. Deem and Ramdas Pophale) SiO2 
 PCOD8269299
Probable space group: C M M M
;
_chemical_formula_sum "Si O2"
_cell_formula_units_Z 72
_cell_length_a 17.512008
_cell_length_b 16.023053
_cell_length_c 13.986287
_cell_angle_alpha 90.000000
_cell_angle_beta 90.000000
_cell_angle_gamma 90.000000
_cell_volume 3924.493842
_symmetry_space_group_name_H-M "C M M M"
_symmetry_group_IT_number 65
_symmetry_cell_setting 'orthorhombic'
loop_
_space_group_symop_operation_xyz
x,y,z
-x,-y,z
x,-y,-z
-x,y,-z
-x,-y,-z
x,y,-z
-x,y,z
x,-y,z
1/2+x,1/2+y,z
1/2-x,1/2-y,z
1/2+x,1/2-y,-z
1/2-x,1/2+y,-z
1/2-x,1/2-y,-z
1/2+x,1/2+y,-z
1/2-x,1/2+y,z
1/2+x,1/2-y,z
loop_
_atom_site_type_symbol
_atom_site_label
_atom_site_fract_x
_atom_site_fract_y
_atom_site_fract_z
Si Si1 0.667078 0.833327 0.387277
Si Si2 0.589772 0.278484 0.756644
Si Si3 0.783669 0.096174 0.255411
Si Si4 0.416818 0.000000 0.387464
Si Si5 0.187811 0.322138 0.893485
O O1 0.675855 0.820550 0.500000
O O2 0.615194 0.759291 0.345657
O O3 0.751081 0.842375 0.339715
O O4 0.627813 0.918997 0.354471
O O5 0.500000 0.295473 0.759365
O O6 0.632891 0.367159 0.770752
O O7 0.612793 0.213336 0.840204
O O8 0.725788 0.101533 0.165090
O O9 0.792157 0.000000 0.287636
O O10 0.500000 0.000000 0.338363
O O11 0.426178 0.000000 0.500000
O O12 0.250000 0.250000 0.897265
O O13 0.165230 0.352203 0.000000
#
# Coordination Sequence:
#
# PCOD8269299 Si02
#       5
#    16  16  16   8  16
#     4  10  19  34  53  74 101 135 178 221 262 310
#     4  10  21  34  51  78 108 139 174 212 259 312
#     4  10  20  34  53  78 105 137 178 216 254 309
#     4   9  16  26  46  74  98 122 156 207 268 312
#     4   8  16  33  55  76  99 131 171 212 253 299
#
# _framework density 18.346315000000001
#
# number of rings (size 3 to 8) (size 9 to 14) (size 15 to 20)
#    0.000    2.556    1.111    2.667    0.000    4.444 
#    0.000    0.000    0.000    0.000    0.000   12.444 
#    0.000    0.000    0.000    0.000    0.000    0.000 
#
# Total GULP energy -446226.350355 kJ/mol
# GULP energy per Si atom -12395.176399 kJ/mol
# Density = 1.830456 g / cm^3
# Si number density = 18.346315 Si / 1000 Ang^3
#
#
#
# Elastic Constant Matrix: (Units=GPa)
#
#
# Indices 1 2 3 4 5 6 
#
# 1 132.7442 26.0625 33.7528 0.0000 0.0000 0.0000
# 2 26.0625 51.8874 14.5906 0.0000 0.0000 0.0000
# 3 33.7528 14.5906 130.1195 0.0000 0.0000 0.0000
# 4 0.0000 0.0000 0.0000 18.7554 0.0000 0.0000
# 5 0.0000 0.0000 0.0000 0.0000 15.1612 0.0000
# 6 0.0000 0.0000 0.0000 0.0000 0.0000 28.8030
#
#
#
# Elastic Compliance Matrix: (Units=1/GPa)
#
#
# Indices 1 2 3 4 5 6 
#
# 1 0.008763 -0.003885 -0.001838 0.000000 0.000000 0.000000
# 2 -0.003885 0.021622 -0.001417 0.000000 0.000000 0.000000
# 3 -0.001838 -0.001417 0.008321 0.000000 0.000000 0.000000
# 4 0.000000 0.000000 0.000000 0.053318 0.000000 0.000000
# 5 0.000000 0.000000 0.000000 0.000000 0.065958 0.000000
# 6 0.000000 0.000000 0.000000 0.000000 0.000000 0.034719
#
#
# Mechanical properties :
#
#
# Convention : Reuss Voigt Hill
#
# Bulk Modulus (GPa) = 40.93721 51.50700 46.22210
# Shear Modulus (GPa) = 23.24261 28.56692 25.90477
#
# Velocity S-wave (km/s) = 3.56319 3.95028 3.76172
# Velocity P-wave (km/s) = 6.26821 6.99586 6.64201
#
# Compressibility (1/GPa) = 0.02442765
#
# Stress axis : x y z
#
# Youngs Moduli (GPa) = 114.11241 46.24856 120.18114
#
# Poissons Ratio (x) = 0.17968 0.22084
# Poissons Ratio (y) = 0.44333 0.17027
# Poissons Ratio (z) = 0.20969 0.06553
#
# Static dielectric constant tensor:
#      x y z
#    x 3.320540 0.000000 0.000000 
#    y 0.000000 3.267000 0.000000 
#    z 0.000000 0.000000 3.515180 
# 
# 
# High freq. dielectric constant tensor:
#      x y z
#    x 1.699730 0.000000 0.000000 
#    y 0.000000 1.700050 0.000000 
#    z 0.000000 0.000000 1.703100 
# 
# From -- ./inp_files/39817.got.cif
#   From: 2010.03.12/outbox.cif.g09.slc.cpg/sg65_20_cif.got.tgz:39817.got - 2010.04.10 20:52:16.
