data_PCOD8269023
_publ_section_title
;
Structure prediction by ZEFSAII (Michael W. Deem and Ramdas Pophale) SiO2 
 PCOD8269023
Probable space group: C M M M
;
_chemical_formula_sum "Si O2"
_cell_formula_units_Z 72
_cell_length_a 19.190671
_cell_length_b 8.801764
_cell_length_c 23.400447
_cell_angle_alpha 90.000000
_cell_angle_beta 90.000000
_cell_angle_gamma 90.000000
_cell_volume 3952.610621
_symmetry_space_group_name_H-M "C M M M"
_symmetry_group_IT_number 65
_symmetry_cell_setting 'orthorhombic'
loop_
_space_group_symop_operation_xyz
x,y,z
-x,-y,z
x,-y,-z
-x,y,-z
-x,-y,-z
x,y,-z
-x,y,z
x,-y,z
1/2+x,1/2+y,z
1/2-x,1/2-y,z
1/2+x,1/2-y,-z
1/2-x,1/2+y,-z
1/2-x,1/2-y,-z
1/2+x,1/2+y,-z
1/2-x,1/2+y,z
1/2+x,1/2-y,z
loop_
_atom_site_type_symbol
_atom_site_label
_atom_site_fract_x
_atom_site_fract_y
_atom_site_fract_z
Si Si1 0.417267 0.827585 0.937985
Si Si2 0.921808 0.320085 0.500000
Si Si3 0.921750 0.821068 0.824667
Si Si4 0.824806 0.681278 0.396985
Si Si5 0.675596 0.318671 0.722519
O O1 0.500000 0.815429 0.937696
O O2 0.387197 0.732981 0.884532
O O3 0.392638 0.000000 0.930206
O O4 0.390123 0.766082 0.000000
O O5 0.926050 0.500000 0.500000
O O6 0.880618 0.264922 0.556060
O O7 0.000000 0.250593 0.500000
O O8 0.876880 0.762316 0.771473
O O9 0.000000 0.755451 0.817564
O O10 0.923012 0.000000 0.825625
O O11 0.818231 0.500000 0.393033
O O12 0.750000 0.750000 0.413718
O O13 0.851269 0.749290 0.337064
O O14 0.680268 0.500000 0.717724
O O15 0.750000 0.250000 0.738459
#
# Coordination Sequence:
#
# PCOD8269023 Si02
#       5
#    16   8  16  16  16
#     4   8  14  25  42  66  95 124 155 193 235 280
#     4   9  19  34  51  75 104 129 156 194 238 281
#     4   9  18  31  47  69  96 125 156 194 241 286
#     4  10  19  33  54  74  95 126 162 198 234 278
#     4  10  20  34  51  71  97 127 161 199 236 280
#
# _framework density 18.215810000000001
#
# number of rings (size 3 to 8) (size 9 to 14) (size 15 to 20)
#    0.000    2.778    0.000    3.667    0.000    3.111 
#    0.000    3.889    0.000    5.333    0.000    0.000 
#    0.000    0.000    0.000    0.000    0.000    0.000 
#
# Total GULP energy -446212.447386 kJ/mol
# GULP energy per Si atom -12394.790205 kJ/mol
# Density = 1.817435 g / cm^3
# Si number density = 18.215810 Si / 1000 Ang^3
#
#
#
# Elastic Constant Matrix: (Units=GPa)
#
#
# Indices 1 2 3 4 5 6 
#
# 1 85.2825 26.5123 93.8230 0.0000 0.0000 0.0000
# 2 26.5123 50.2011 44.1023 0.0000 0.0000 0.0000
# 3 93.8230 44.1023 199.1422 0.0000 0.0000 0.0000
# 4 0.0000 0.0000 0.0000 29.6884 0.0000 0.0000
# 5 0.0000 0.0000 0.0000 0.0000 16.4081 0.0000
# 6 0.0000 0.0000 0.0000 0.0000 0.0000 18.4428
#
#
#
# Elastic Compliance Matrix: (Units=1/GPa)
#
#
# Indices 1 2 3 4 5 6 
#
# 1 0.024835 -0.003522 -0.010921 0.000000 0.000000 0.000000
# 2 -0.003522 0.025231 -0.003928 0.000000 0.000000 0.000000
# 3 -0.010921 -0.003928 0.011037 0.000000 0.000000 0.000000
# 4 0.000000 0.000000 0.000000 0.033683 0.000000 0.000000
# 5 0.000000 0.000000 0.000000 0.000000 0.060945 0.000000
# 6 0.000000 0.000000 0.000000 0.000000 0.000000 0.054222
#
#
# Mechanical properties :
#
#
# Convention : Reuss Voigt Hill
#
# Bulk Modulus (GPa) = 41.04988 73.72232 57.38610
# Shear Modulus (GPa) = 19.62208 24.25374 21.93791
#
# Velocity S-wave (km/s) = 3.28563 3.65288 3.47412
# Velocity P-wave (km/s) = 6.08096 7.63878 6.90395
#
# Compressibility (1/GPa) = 0.02436061
#
# Stress axis : x y z
#
# Youngs Moduli (GPa) = 40.26598 39.63372 90.60756
#
# Poissons Ratio (x) = 0.13959 0.98949
# Poissons Ratio (y) = 0.14182 0.35594
# Poissons Ratio (z) = 0.43973 0.15570
#
# Static dielectric constant tensor:
#      x y z
#    x 3.283210 0.000000 0.000000 
#    y 0.000000 3.247420 0.000000 
#    z 0.000000 0.000000 3.917680 
# 
# 
# High freq. dielectric constant tensor:
#      x y z
#    x 1.672580 0.000000 0.000000 
#    y 0.000000 1.695980 0.000000 
#    z 0.000000 0.000000 1.726820 
# 
# From -- ./inp_files/70745.got.cif
#   From: 2010.03.12/outbox.cif.g09.slc.cpg/sg65_36_cif.got.tgz:70745.got - 2010.04.10 20:52:16.
