data_PCOD8269172
_publ_section_title
;
Structure prediction by ZEFSAII (Michael W. Deem and Ramdas Pophale) SiO2 
 PCOD8269172
Probable space group: C M M M
;
_chemical_formula_sum "Si O2"
_cell_formula_units_Z 64
_cell_length_a 18.006294
_cell_length_b 8.782377
_cell_length_c 20.767169
_cell_angle_alpha 90.000000
_cell_angle_beta 90.000000
_cell_angle_gamma 90.000000
_cell_volume 3284.079865
_symmetry_space_group_name_H-M "C M M M"
_symmetry_group_IT_number 65
_symmetry_cell_setting 'orthorhombic'
loop_
_space_group_symop_operation_xyz
x,y,z
-x,-y,z
x,-y,-z
-x,y,-z
-x,-y,-z
x,y,-z
-x,y,z
x,-y,z
1/2+x,1/2+y,z
1/2-x,1/2-y,z
1/2+x,1/2-y,-z
1/2-x,1/2+y,-z
1/2-x,1/2-y,-z
1/2+x,1/2+y,-z
1/2-x,1/2+y,z
1/2+x,1/2-y,z
loop_
_atom_site_type_symbol
_atom_site_label
_atom_site_fract_x
_atom_site_fract_y
_atom_site_fract_z
Si Si1 0.416467 0.181145 0.373972
Si Si2 0.168996 0.680871 0.500000
Si Si3 0.169251 0.320131 0.751461
Si Si4 0.911692 0.328163 0.000000
Si Si5 0.411984 0.325761 0.869514
O O1 0.500000 0.247408 0.373196
O O2 0.374813 0.240905 0.437488
O O3 0.372988 0.242790 0.311595
O O4 0.419133 0.000000 0.373757
O O5 0.175182 0.500000 0.500000
O O6 0.250000 0.750000 0.500000
O O7 0.176448 0.500000 0.749105
O O8 0.250000 0.250000 0.754195
O O9 0.122879 0.273989 0.813544
O O10 0.882354 0.239689 0.062763
O O11 0.880249 0.500000 0.000000
O O12 0.000000 0.329909 0.000000
O O13 0.500000 0.310837 0.864734
O O14 0.385939 0.500000 0.863368
#
# Coordination Sequence:
#
# PCOD8269172 Si02
#       5
#    16   8  16   8  16
#     4   9  18  33  55  81 106 138 183 229 270 319
#     4  10  19  33  55  81 111 144 178 220 270 324
#     4  11  22  36  54  77 108 144 183 227 276 330
#     4   9  17  31  54  83 112 143 180 221 267 321
#     4  10  20  35  56  82 111 143 181 225 272 323
#
# _framework density 19.487953999999998
#
# number of rings (size 3 to 8) (size 9 to 14) (size 15 to 20)
#    0.000    2.125    0.000    3.750    0.000    5.500 
#    0.000    1.875    0.000    4.500    0.000    0.000 
#    0.000    0.000    0.000    0.000    0.000    0.000 
#
# Total GULP energy -396885.756450 kJ/mol
# GULP energy per Si atom -12402.679889 kJ/mol
# Density = 1.944360 g / cm^3
# Si number density = 19.487954 Si / 1000 Ang^3
#
#
#
# Elastic Constant Matrix: (Units=GPa)
#
#
# Indices 1 2 3 4 5 6 
#
# 1 54.2919 25.5463 42.3816 0.0000 0.0000 0.0000
# 2 25.5463 63.3283 32.3127 0.0000 0.0000 0.0000
# 3 42.3816 32.3127 177.0977 0.0000 0.0000 0.0000
# 4 0.0000 0.0000 0.0000 14.1681 0.0000 0.0000
# 5 0.0000 0.0000 0.0000 0.0000 2.5079 0.0000
# 6 0.0000 0.0000 0.0000 0.0000 0.0000 26.0847
#
#
#
# Elastic Compliance Matrix: (Units=1/GPa)
#
#
# Indices 1 2 3 4 5 6 
#
# 1 0.025890 -0.008030 -0.004731 0.000000 0.000000 0.000000
# 2 -0.008030 0.019902 -0.001710 0.000000 0.000000 0.000000
# 3 -0.004731 -0.001710 0.007091 0.000000 0.000000 0.000000
# 4 0.000000 0.000000 0.000000 0.070581 0.000000 0.000000
# 5 0.000000 0.000000 0.000000 0.000000 0.398741 0.000000
# 6 0.000000 0.000000 0.000000 0.000000 0.000000 0.038337
#
#
# Mechanical properties :
#
#
# Convention : Reuss Voigt Hill
#
# Bulk Modulus (GPa) = 41.76704 55.02214 48.39459
# Shear Modulus (GPa) = 8.36870 21.51729 14.94300
#
# Velocity S-wave (km/s) = 2.07452 3.32645 2.77209
# Velocity P-wave (km/s) = 5.21698 6.56117 5.92730
#
# Compressibility (1/GPa) = 0.02394232
#
# Stress axis : x y z
#
# Youngs Moduli (GPa) = 38.62437 50.24516 141.03091
#
# Poissons Ratio (x) = 0.40348 0.66718
# Poissons Ratio (y) = 0.31016 0.24111
# Poissons Ratio (z) = 0.18272 0.08590
#
# Static dielectric constant tensor:
#      x y z
#    x 3.481910 0.000000 0.000000 
#    y 0.000000 3.404330 0.000000 
#    z 0.000000 0.000000 3.919810 
# 
# 
# High freq. dielectric constant tensor:
#      x y z
#    x 1.751720 0.000000 0.000000 
#    y 0.000000 1.741390 0.000000 
#    z 0.000000 0.000000 1.780200 
# 
# From -- ./inp_files/58816.got.cif
#   From: 2010.03.12/outbox.cif.g09.slc.cpg/sg65_30_cif.got.tgz:58816.got - 2010.04.10 20:52:16.
