data_PCOD8269535
_publ_section_title
;
Structure prediction by ZEFSAII (Michael W. Deem and Ramdas Pophale) SiO2 
 PCOD8269535
Probable space group: C M M M
;
_chemical_formula_sum "Si O2"
_cell_formula_units_Z 60
_cell_length_a 14.017678
_cell_length_b 18.035116
_cell_length_c 12.518525
_cell_angle_alpha 90.000000
_cell_angle_beta 90.000000
_cell_angle_gamma 90.000000
_cell_volume 3164.813923
_symmetry_space_group_name_H-M "C M M M"
_symmetry_group_IT_number 65
_symmetry_cell_setting 'orthorhombic'
loop_
_space_group_symop_operation_xyz
x,y,z
-x,-y,z
x,-y,-z
-x,y,-z
-x,-y,-z
x,y,-z
-x,y,z
x,-y,z
1/2+x,1/2+y,z
1/2-x,1/2-y,z
1/2+x,1/2-y,-z
1/2-x,1/2+y,-z
1/2-x,1/2-y,-z
1/2+x,1/2+y,-z
1/2-x,1/2+y,z
1/2+x,1/2-y,z
loop_
_atom_site_type_symbol
_atom_site_label
_atom_site_fract_x
_atom_site_fract_y
_atom_site_fract_z
Si Si1 0.295391 0.830583 0.695135
Si Si2 0.201830 0.912823 0.500000
Si Si3 0.801692 0.914438 0.123662
Si Si4 0.000000 0.840161 0.876756
Si Si5 0.000000 0.839444 0.500000
Si Si6 0.500000 0.773424 0.306389
O O1 0.250000 0.750000 0.685009
O O2 0.253174 0.882263 0.604318
O O3 0.272904 0.865567 0.810216
O O4 0.408785 0.826096 0.681178
O O5 0.091386 0.891741 0.500000
O O6 0.212199 0.000000 0.500000
O O7 0.908771 0.889785 0.151973
O O8 0.790983 0.000000 0.155302
O O9 0.778226 0.900991 0.000000
O O10 0.000000 0.764936 0.809327
O O11 0.000000 0.815977 0.000000
O O12 0.000000 0.789558 0.604684
#
# Coordination Sequence:
#
# PCOD8269535 Si02
#       6
#    16   8  16   8   4   8
#     4  12  23  41  62  88 124 160 199 246 293 358
#     4  12  25  42  65  93 121 156 197 246 305 358
#     4  10  21  38  61  90 124 160 199 248 304 355
#     4  10  19  34  60  92 123 152 194 252 307 356
#     4  12  21  40  66  92 123 146 190 254 309 354
#     4  12  24  38  61  92 119 157 201 245 295 351
#
# _framework density 18.958461
#
# number of rings (size 3 to 8) (size 9 to 14) (size 15 to 20)
#    0.000    0.800    5.333    2.600    0.000    3.200 
#    0.000    7.333    0.000    1.600    0.000    0.000 
#    0.000    0.000    0.000    0.000    0.000    0.000 
#
# Total GULP energy -372200.251653 kJ/mol
# GULP energy per Si atom -12406.675055 kJ/mol
# Density = 1.891531 g / cm^3
# Si number density = 18.958461 Si / 1000 Ang^3
#
#
#
# Elastic Constant Matrix: (Units=GPa)
#
#
# Indices 1 2 3 4 5 6 
#
# 1 159.2971 77.3052 53.0154 0.0000 0.0000 0.0000
# 2 77.3052 138.6063 67.4585 0.0000 0.0000 0.0000
# 3 53.0154 67.4585 101.8531 0.0000 0.0000 0.0000
# 4 0.0000 0.0000 0.0000 48.6751 0.0000 0.0000
# 5 0.0000 0.0000 0.0000 0.0000 66.5548 0.0000
# 6 0.0000 0.0000 0.0000 0.0000 0.0000 27.7835
#
#
#
# Elastic Compliance Matrix: (Units=1/GPa)
#
#
# Indices 1 2 3 4 5 6 
#
# 1 0.008869 -0.003984 -0.001978 0.000000 0.000000 0.000000
# 2 -0.003984 0.012436 -0.006163 0.000000 0.000000 0.000000
# 3 -0.001978 -0.006163 0.014929 0.000000 0.000000 0.000000
# 4 0.000000 0.000000 0.000000 0.020544 0.000000 0.000000
# 5 0.000000 0.000000 0.000000 0.000000 0.015025 0.000000
# 6 0.000000 0.000000 0.000000 0.000000 0.000000 0.035993
#
#
# Mechanical properties :
#
#
# Convention : Reuss Voigt Hill
#
# Bulk Modulus (GPa) = 83.43660 88.36831 85.90246
# Shear Modulus (GPa) = 36.75354 42.06785 39.41069
#
# Velocity S-wave (km/s) = 4.40777 4.71568 4.56432
# Velocity P-wave (km/s) = 8.36722 8.73859 8.55492
#
# Compressibility (1/GPa) = 0.01198515
#
# Stress axis : x y z
#
# Youngs Moduli (GPa) = 112.74920 80.41081 66.98254
#
# Poissons Ratio (x) = 0.32036 0.13248
# Poissons Ratio (y) = 0.44920 0.41280
# Poissons Ratio (z) = 0.22300 0.49556
#
# Static dielectric constant tensor:
#      x y z
#    x 3.660410 0.000000 0.000000 
#    y 0.000000 3.426330 0.000000 
#    z 0.000000 0.000000 5.620880 
# 
# 
# High freq. dielectric constant tensor:
#      x y z
#    x 1.738880 0.000000 0.000000 
#    y 0.000000 1.733590 0.000000 
#    z 0.000000 0.000000 1.755220 
# 
# From -- ./inp_files/23836.got.cif
#   From: 2010.03.12/outbox.cif.g09.slc.cpg/sg65_12_cif.got.tgz:23836.got - 2010.04.10 20:52:16.
