data_PCOD8269257
_publ_section_title
;
Structure prediction by ZEFSAII (Michael W. Deem and Ramdas Pophale) SiO2 
 PCOD8269257
Probable space group: C M M M
;
_chemical_formula_sum "Si O2"
_cell_formula_units_Z 104
_cell_length_a 17.368236
_cell_length_b 21.542322
_cell_length_c 14.225636
_cell_angle_alpha 90.000000
_cell_angle_beta 90.000000
_cell_angle_gamma 90.000000
_cell_volume 5322.552045
_symmetry_space_group_name_H-M "C M M M"
_symmetry_group_IT_number 65
_symmetry_cell_setting 'orthorhombic'
loop_
_space_group_symop_operation_xyz
x,y,z
-x,-y,z
x,-y,-z
-x,y,-z
-x,-y,-z
x,y,-z
-x,y,z
x,-y,z
1/2+x,1/2+y,z
1/2-x,1/2-y,z
1/2+x,1/2-y,-z
1/2-x,1/2+y,-z
1/2-x,1/2-y,-z
1/2+x,1/2+y,-z
1/2-x,1/2+y,z
1/2+x,1/2-y,z
loop_
_atom_site_type_symbol
_atom_site_label
_atom_site_fract_x
_atom_site_fract_y
_atom_site_fract_z
Si Si1 0.408937 0.500000 0.610475
Si Si2 0.178396 0.430283 0.607352
Si Si3 0.914921 0.684218 0.392777
Si Si4 0.837779 0.240005 0.241649
Si Si5 0.283231 0.069981 0.893150
Si Si6 0.319301 0.398700 0.726266
Si Si7 0.912469 0.332509 0.109205
O O1 0.500000 0.500000 0.613439
O O2 0.381304 0.500000 0.500000
O O3 0.379123 0.440775 0.668676
O O4 0.205371 0.434454 0.500000
O O5 0.165767 0.500000 0.647935
O O6 0.101342 0.389545 0.617452
O O7 0.243113 0.393485 0.663878
O O8 0.909883 0.705367 0.500000
O O9 0.852471 0.725089 0.339293
O O10 0.000000 0.695943 0.351555
O O11 0.750000 0.250000 0.209751
O O12 0.857887 0.167978 0.256739
O O13 0.892922 0.268485 0.161982
O O14 0.207127 0.075597 0.828289
O O15 0.353074 0.113912 0.857328
O O16 0.314951 0.000000 0.888211
O O17 0.259300 0.087261 0.000000
O O18 0.000000 0.353214 0.132806
O O19 0.902743 0.318879 0.000000
#
# Coordination Sequence:
#
# PCOD8269257 Si02
#       7
#     8  16  16  16  16  16  16
#     4  11  26  46  67  91 118 151 199 263 325 370
#     4  10  19  33  58  87 114 151 197 245 297 362
#     4  10  22  38  55  83 123 157 192 245 307 368
#     4  12  23  37  59  88 117 160 207 252 295 358
#     4  10  20  36  63  96 128 162 201 245 296 358
#     4  12  22  39  63  87 117 154 205 253 304 357
#     4  10  22  40  62  93 132 166 200 248 303 359
#
# _framework density 19.539498999999999
#
# number of rings (size 3 to 8) (size 9 to 14) (size 15 to 20)
#    0.000    1.308    4.615    0.923    0.000    4.308 
#    0.000    4.615    0.000    4.615    0.000    0.000 
#    0.000    0.000    0.000    0.000    0.000    0.000 
#
# Total GULP energy -644661.235409 kJ/mol
# GULP energy per Si atom -12397.331450 kJ/mol
# Density = 1.949503 g / cm^3
# Si number density = 19.539499 Si / 1000 Ang^3
#
#
#
# Elastic Constant Matrix: (Units=GPa)
#
#
# Indices 1 2 3 4 5 6 
#
# 1 86.3356 36.4624 44.0631 0.0000 0.0000 0.0000
# 2 36.4624 142.8288 44.3596 0.0000 0.0000 0.0000
# 3 44.0631 44.3596 100.6875 0.0000 0.0000 0.0000
# 4 0.0000 0.0000 0.0000 29.3100 0.0000 0.0000
# 5 0.0000 0.0000 0.0000 0.0000 29.1997 0.0000
# 6 0.0000 0.0000 0.0000 0.0000 0.0000 24.4046
#
#
#
# Elastic Compliance Matrix: (Units=1/GPa)
#
#
# Indices 1 2 3 4 5 6 
#
# 1 0.015457 -0.002138 -0.005823 0.000000 0.000000 0.000000
# 2 -0.002138 0.008407 -0.002768 0.000000 0.000000 0.000000
# 3 -0.005823 -0.002768 0.013699 0.000000 0.000000 0.000000
# 4 0.000000 0.000000 0.000000 0.034118 0.000000 0.000000
# 5 0.000000 0.000000 0.000000 0.000000 0.034247 0.000000
# 6 0.000000 0.000000 0.000000 0.000000 0.000000 0.040976
#
#
# Mechanical properties :
#
#
# Convention : Reuss Voigt Hill
#
# Bulk Modulus (GPa) = 62.08729 64.40245 63.24487
# Shear Modulus (GPa) = 28.78022 30.24731 29.51377
#
# Velocity S-wave (km/s) = 3.84203 3.93874 3.89069
# Velocity P-wave (km/s) = 7.17815 7.32916 7.25405
#
# Compressibility (1/GPa) = 0.01610636
#
# Stress axis : x y z
#
# Youngs Moduli (GPa) = 64.69470 118.95014 72.99549
#
# Poissons Ratio (x) = 0.25427 0.42503
# Poissons Ratio (y) = 0.13829 0.20208
# Poissons Ratio (z) = 0.37669 0.32929
#
# Static dielectric constant tensor:
#      x y z
#    x 3.462320 0.000000 0.000000 
#    y 0.000000 3.647690 0.000000 
#    z 0.000000 0.000000 3.763500 
# 
# 
# High freq. dielectric constant tensor:
#      x y z
#    x 1.742520 0.000000 0.000000 
#    y 0.000000 1.761300 0.000000 
#    z 0.000000 0.000000 1.777050 
# 
# From -- ./inp_files/42882.got.cif
#   From: 2010.03.12/outbox.cif.g09.slc.cpg/sg65_22_cif.got.tgz:42882.got - 2010.04.10 20:52:16.
