data_PCOD8269407
_publ_section_title
;
Structure prediction by ZEFSAII (Michael W. Deem and Ramdas Pophale) SiO2 
 PCOD8269407
Probable space group: C M M M
;
_chemical_formula_sum "Si O2"
_cell_formula_units_Z 80
_cell_length_a 28.624940
_cell_length_b 20.650519
_cell_length_c 7.768428
_cell_angle_alpha 90.000000
_cell_angle_beta 90.000000
_cell_angle_gamma 90.000000
_cell_volume 4592.072129
_symmetry_space_group_name_H-M "C M M M"
_symmetry_group_IT_number 65
_symmetry_cell_setting 'orthorhombic'
loop_
_space_group_symop_operation_xyz
x,y,z
-x,-y,z
x,-y,-z
-x,y,-z
-x,-y,-z
x,y,-z
-x,y,z
x,-y,z
1/2+x,1/2+y,z
1/2-x,1/2-y,z
1/2+x,1/2-y,-z
1/2-x,1/2+y,-z
1/2-x,1/2-y,-z
1/2+x,1/2+y,-z
1/2-x,1/2+y,z
1/2+x,1/2-y,z
loop_
_atom_site_type_symbol
_atom_site_label
_atom_site_fract_x
_atom_site_fract_y
_atom_site_fract_z
Si Si1 0.853856 0.094957 0.194608
Si Si2 0.248530 0.571425 0.800589
Si Si3 0.052832 0.213852 0.500000
Si Si4 0.420273 0.568801 0.500000
Si Si5 0.619242 0.261436 0.191046
Si Si6 0.290179 0.796789 0.694283
O O1 0.803095 0.069340 0.243700
O O2 0.889865 0.064787 0.327398
O O3 0.853131 0.171913 0.214390
O O4 0.867855 0.074212 0.000000
O O5 0.228011 0.500000 0.753985
O O6 0.223549 0.627702 0.694129
O O7 0.240935 0.587681 0.000000
O O8 0.050165 0.135087 0.500000
O O9 0.078010 0.242819 0.668841
O O10 0.000000 0.239719 0.500000
O O11 0.449291 0.500000 0.500000
O O12 0.659788 0.207979 0.211424
O O13 0.596816 0.254868 0.000000
O O14 0.297967 0.773087 0.500000
O O15 0.250000 0.750000 0.777925
#
# Coordination Sequence:
#
# PCOD8269407 Si02
#       6
#    16  16   8   8  16  16
#     4   9  18  31  47  69  99 134 175 217 252 292
#     4  10  20  31  44  67 103 145 182 215 251 294
#     4  10  22  39  54  74 102 125 166 227 275 318
#     4  10  20  31  49  71  94 131 172 213 266 315
#     4  10  19  34  56  77  99 133 174 214 263 311
#     4  11  21  31  50  76 108 142 178 217 255 309
#
# _framework density 17.421329
#
# number of rings (size 3 to 8) (size 9 to 14) (size 15 to 20)
#    0.000    2.000    3.000    1.200    1.400    3.000 
#    0.000    0.000    0.000    0.000    0.000    5.600 
#    0.000    1.600    0.000    4.200    0.000    0.000 
#
# Total GULP energy -495770.332470 kJ/mol
# GULP energy per Si atom -12394.258312 kJ/mol
# Density = 1.738168 g / cm^3
# Si number density = 17.421329 Si / 1000 Ang^3
#
#
#
# Elastic Constant Matrix: (Units=GPa)
#
#
# Indices 1 2 3 4 5 6 
#
# 1 88.1991 29.4046 42.4567 0.0000 0.0000 0.0000
# 2 29.4046 74.3236 15.5548 0.0000 0.0000 0.0000
# 3 42.4567 15.5548 98.3192 0.0000 0.0000 0.0000
# 4 0.0000 0.0000 0.0000 29.2377 0.0000 0.0000
# 5 0.0000 0.0000 0.0000 0.0000 13.4280 0.0000
# 6 0.0000 0.0000 0.0000 0.0000 0.0000 6.2357
#
#
#
# Elastic Compliance Matrix: (Units=1/GPa)
#
#
# Indices 1 2 3 4 5 6 
#
# 1 0.015948 -0.005035 -0.006090 0.000000 0.000000 0.000000
# 2 -0.005035 0.015505 -0.000279 0.000000 0.000000 0.000000
# 3 -0.006090 -0.000279 0.012845 0.000000 0.000000 0.000000
# 4 0.000000 0.000000 0.000000 0.034202 0.000000 0.000000
# 5 0.000000 0.000000 0.000000 0.000000 0.074471 0.000000
# 6 0.000000 0.000000 0.000000 0.000000 0.000000 0.160368
#
#
# Mechanical properties :
#
#
# Convention : Reuss Voigt Hill
#
# Bulk Modulus (GPa) = 46.53290 48.40824 47.47057
# Shear Modulus (GPa) = 14.56403 21.34199 17.95301
#
# Velocity S-wave (km/s) = 2.89448 3.50387 3.21365
# Velocity P-wave (km/s) = 6.15946 6.64955 6.40919
#
# Compressibility (1/GPa) = 0.02149017
#
# Stress axis : x y z
#
# Youngs Moduli (GPa) = 62.70253 64.49524 77.85131
#
# Poissons Ratio (x) = 0.32473 0.47414
# Poissons Ratio (y) = 0.31571 0.02170
# Poissons Ratio (z) = 0.38188 0.01798
#
# Static dielectric constant tensor:
#      x y z
#    x 2.786950 0.000000 0.000000 
#    y 0.000000 3.276470 0.000000 
#    z 0.000000 0.000000 3.383300 
# 
# 
# High freq. dielectric constant tensor:
#      x y z
#    x 1.623470 0.000000 0.000000 
#    y 0.000000 1.659010 0.000000 
#    z 0.000000 0.000000 1.686870 
# 
# From -- ./inp_files/13829.got.cif
#   From: 2010.03.12/outbox.cif.g09.slc.cpg/sg65_7_cif.got.tgz:13829.got - 2010.04.10 20:52:16.
