data_PCOD8269384
_publ_section_title
;
Structure prediction by ZEFSAII (Michael W. Deem and Ramdas Pophale) SiO2 
 PCOD8269384
Probable space group: C M M M
;
_chemical_formula_sum "Si O2"
_cell_formula_units_Z 104
_cell_length_a 23.729168
_cell_length_b 26.081065
_cell_length_c 8.534774
_cell_angle_alpha 90.000000
_cell_angle_beta 90.000000
_cell_angle_gamma 90.000000
_cell_volume 5282.017772
_symmetry_space_group_name_H-M "C M M M"
_symmetry_group_IT_number 65
_symmetry_cell_setting 'orthorhombic'
loop_
_space_group_symop_operation_xyz
x,y,z
-x,-y,z
x,-y,-z
-x,y,-z
-x,-y,-z
x,y,-z
-x,y,z
x,-y,z
1/2+x,1/2+y,z
1/2-x,1/2-y,z
1/2+x,1/2-y,-z
1/2-x,1/2+y,-z
1/2-x,1/2-y,-z
1/2+x,1/2+y,-z
1/2-x,1/2+y,z
1/2+x,1/2-y,z
loop_
_atom_site_type_symbol
_atom_site_label
_atom_site_fract_x
_atom_site_fract_y
_atom_site_fract_z
Si Si1 0.221690 0.394838 0.171393
Si Si2 0.209844 0.792586 0.825646
Si Si3 0.000000 0.321399 0.683939
Si Si4 0.934807 0.500000 0.829846
Si Si5 0.667991 0.557926 0.813734
Si Si6 0.392406 0.345005 0.317645
Si Si7 0.597901 0.108414 0.187998
Si Si8 0.500000 0.292143 0.182238
O O1 0.252482 0.341739 0.155703
O O2 0.267637 0.433210 0.251429
O O3 0.161683 0.385127 0.255738
O O4 0.206806 0.417368 0.000000
O O5 0.250000 0.750000 0.746904
O O6 0.156761 0.803734 0.715383
O O7 0.189278 0.774912 0.000000
O O8 0.056792 0.347869 0.747468
O O9 0.000000 0.327022 0.500000
O O10 0.000000 0.261509 0.726204
O O11 0.918588 0.552537 0.742171
O O12 0.000000 0.500000 0.856305
O O13 0.904354 0.500000 0.000000
O O14 0.649137 0.500000 0.772589
O O15 0.624692 0.597572 0.735225
O O16 0.667640 0.568170 0.000000
O O17 0.406561 0.345532 0.500000
O O18 0.446561 0.326973 0.223022
O O19 0.593072 0.111376 0.000000
O O20 0.500000 0.279021 0.000000
#
# Coordination Sequence:
#
# PCOD8269384 Si02
#       8
#    16  16   8   8  16  16  16   8
#     4   8  16  29  51  84 114 144 192 246 287 330
#     4   9  18  34  56  84 116 155 202 243 283 342
#     4  12  26  41  55  81 116 152 194 249 308 364
#     4   9  16  28  48  76 106 140 196 257 294 333
#     4   9  18  36  62  92 124 159 199 243 291 350
#     4  11  23  40  61  91 126 157 193 242 306 365
#     4  10  19  34  55  80 109 152 204 251 298 346
#     4  12  26  46  70  88 112 154 201 248 298 355
#
# _framework density 19.689446
#
# number of rings (size 3 to 8) (size 9 to 14) (size 15 to 20)
#    0.000    2.231    0.769    3.692    3.231    0.615 
#    0.000    4.231    0.000    2.308    0.000    0.000 
#    0.000    0.000    0.000    0.000    0.000    0.000 
#
# Total GULP energy -644286.113874 kJ/mol
# GULP energy per Si atom -12390.117574 kJ/mol
# Density = 1.964463 g / cm^3
# Si number density = 19.689446 Si / 1000 Ang^3
#
#
#
# Elastic Constant Matrix: (Units=GPa)
#
#
# Indices 1 2 3 4 5 6 
#
# 1 124.0383 50.4223 17.8137 0.0000 0.0000 0.0000
# 2 50.4223 95.8930 17.3427 0.0000 0.0000 0.0000
# 3 17.8137 17.3427 58.5416 0.0000 0.0000 0.0000
# 4 0.0000 0.0000 0.0000 -31.7108 0.0000 0.0000
# 5 0.0000 0.0000 0.0000 0.0000 8.8956 0.0000
# 6 0.0000 0.0000 0.0000 0.0000 0.0000 10.0658
#
#
#
# Elastic Compliance Matrix: (Units=1/GPa)
#
#
# Indices 1 2 3 4 5 6 
#
# 1 0.010399 -0.005173 -0.001632 0.000000 0.000000 0.000000
# 2 -0.005173 0.013592 -0.002452 0.000000 0.000000 0.000000
# 3 -0.001632 -0.002452 0.018305 0.000000 0.000000 0.000000
# 4 0.000000 0.000000 0.000000 -0.031535 0.000000 0.000000
# 5 0.000000 0.000000 0.000000 0.000000 0.112415 0.000000
# 6 0.000000 0.000000 0.000000 0.000000 0.000000 0.099346
#
#
# Mechanical properties :
#
#
# Convention : Reuss Voigt Hill
#
# Bulk Modulus (GPa) = 42.04966 49.95892 46.00429
# Shear Modulus (GPa) = 20.08324 10.30976 15.19650
#
# Velocity S-wave (km/s) = 3.19721 2.29075 2.78116
# Velocity P-wave (km/s) = 5.91881 5.69432 5.80765
#
# Compressibility (1/GPa) = 0.02378140
#
# Stress axis : x y z
#
# Youngs Moduli (GPa) = 96.16097 73.57349 54.62998
#
# Poissons Ratio (x) = 0.38059 0.08915
# Poissons Ratio (y) = 0.49744 0.13398
# Poissons Ratio (z) = 0.15693 0.18043
#
# Static dielectric constant tensor:
#      x y z
#    x 4.000100 0.000000 0.000000 
#    y 0.000000 3.778520 0.000000 
#    z 0.000000 0.000000 3.260690 
# 
# 
# High freq. dielectric constant tensor:
#      x y z
#    x 1.773030 0.000000 0.000000 
#    y 0.000000 1.774340 0.000000 
#    z 0.000000 0.000000 1.726400 
# 
# From -- ./inp_files/12458.got.cif
#   From: 2010.03.12/outbox.cif.g09.slc.cpg/sg65_7_cif.got.tgz:12458.got - 2010.04.10 20:52:16.
