data_PCOD8269420
_publ_section_title
;
Structure prediction by ZEFSAII (Michael W. Deem and Ramdas Pophale) SiO2 
 PCOD8269420
Probable space group: C M M M
;
_chemical_formula_sum "Si O2"
_cell_formula_units_Z 88
_cell_length_a 8.143457
_cell_length_b 18.571867
_cell_length_c 29.816052
_cell_angle_alpha 90.000000
_cell_angle_beta 90.000000
_cell_angle_gamma 90.000000
_cell_volume 4509.355861
_symmetry_space_group_name_H-M "C M M M"
_symmetry_group_IT_number 65
_symmetry_cell_setting 'orthorhombic'
loop_
_space_group_symop_operation_xyz
x,y,z
-x,-y,z
x,-y,-z
-x,y,-z
-x,-y,-z
x,y,-z
-x,y,z
x,-y,z
1/2+x,1/2+y,z
1/2-x,1/2-y,z
1/2+x,1/2-y,-z
1/2-x,1/2+y,-z
1/2-x,1/2-y,-z
1/2+x,1/2+y,-z
1/2-x,1/2+y,z
1/2+x,1/2-y,z
loop_
_atom_site_type_symbol
_atom_site_label
_atom_site_fract_x
_atom_site_fract_y
_atom_site_fract_z
Si Si1 0.811968 0.918969 0.302268
Si Si2 0.313828 0.914634 0.951493
Si Si3 0.687057 0.416732 0.141490
Si Si4 0.000000 0.085830 0.448920
Si Si5 0.686773 0.829605 0.221511
Si Si6 0.682323 0.085499 0.603820
O O1 0.791839 0.867191 0.260125
O O2 0.706408 0.890957 0.344456
O O3 0.000000 0.918568 0.317998
O O4 0.758376 0.000000 0.288340
O O5 0.500000 0.888633 0.944518
O O6 0.208189 0.886403 0.909303
O O7 0.304824 0.000000 0.952761
O O8 0.247678 0.885407 0.000000
O O9 0.500000 0.406563 0.156524
O O10 0.741000 0.500000 0.143859
O O11 0.800543 0.372511 0.175054
O O12 0.832289 0.116991 0.426177
O O13 0.000000 0.112371 0.500000
O O14 0.000000 0.000000 0.445440
O O15 0.500000 0.828480 0.237455
O O16 0.750000 0.750000 0.213031
O O17 0.500000 0.112744 0.588063
O O18 0.689147 0.000000 0.600551
#
# Coordination Sequence:
#
# PCOD8269420 Si02
#       6
#    16  16  16   8  16  16
#     4  10  19  34  56  79 105 138 176 220 266 315
#     4   8  14  26  46  73 103 133 167 210 255 298
#     4  10  20  34  53  78 107 138 174 213 257 312
#     4   9  16  26  40  64 102 142 176 216 266 316
#     4  12  25  39  54  74 103 138 174 219 268 320
#     4   9  16  27  44  68  98 136 179 218 262 314
#
# _framework density 19.514983000000001
#
# number of rings (size 3 to 8) (size 9 to 14) (size 15 to 20)
#    0.000    2.273    0.909    3.818    0.000    5.091 
#    0.000    3.636    0.000    0.545    0.000    0.000 
#    0.000    0.727    0.364    0.000    0.000    0.000 
#
# Total GULP energy -545397.069883 kJ/mol
# GULP energy per Si atom -12395.387952 kJ/mol
# Density = 1.947057 g / cm^3
# Si number density = 19.514983 Si / 1000 Ang^3
#
#
#
# Elastic Constant Matrix: (Units=GPa)
#
#
# Indices 1 2 3 4 5 6 
#
# 1 106.8061 18.8981 49.4606 0.0000 0.0000 0.0000
# 2 18.8981 45.6454 32.5576 0.0000 0.0000 0.0000
# 3 49.4606 32.5576 130.8691 0.0000 0.0000 0.0000
# 4 0.0000 0.0000 0.0000 -0.9471 0.0000 0.0000
# 5 0.0000 0.0000 0.0000 0.0000 31.8432 0.0000
# 6 0.0000 0.0000 0.0000 0.0000 0.0000 15.5966
#
#
#
# Elastic Compliance Matrix: (Units=1/GPa)
#
#
# Indices 1 2 3 4 5 6 
#
# 1 0.011500 -0.002020 -0.003844 0.000000 0.000000 0.000000
# 2 -0.002020 0.026989 -0.005951 0.000000 0.000000 0.000000
# 3 -0.003844 -0.005951 0.010575 0.000000 0.000000 0.000000
# 4 0.000000 0.000000 0.000000 -1.055852 0.000000 0.000000
# 5 0.000000 0.000000 0.000000 0.000000 0.031404 0.000000
# 6 0.000000 0.000000 0.000000 0.000000 0.000000 0.064116
#
#
# Mechanical properties :
#
#
# Convention : Reuss Voigt Hill
#
# Bulk Modulus (GPa) = 39.31663 53.90592 46.61127
# Shear Modulus (GPa) = -5.68724 21.45883 7.88579
#
# Velocity S-wave (km/s) = -1.70898 3.31963 2.01238
# Velocity P-wave (km/s) = 4.03689 6.50969 5.41630
#
# Compressibility (1/GPa) = 0.02543453
#
# Stress axis : x y z
#
# Youngs Moduli (GPa) = 86.95519 37.05233 94.56706
#
# Poissons Ratio (x) = 0.07483 0.36351
# Poissons Ratio (y) = 0.17561 0.56277
# Poissons Ratio (z) = 0.33425 0.22050
#
# Static dielectric constant tensor:
#      x y z
#    x 3.722610 0.000000 0.000000 
#    y 0.000000 2.971290 0.000000 
#    z 0.000000 0.000000 3.817910 
# 
# 
# High freq. dielectric constant tensor:
#      x y z
#    x 1.769820 0.000000 0.000000 
#    y 0.000000 1.689060 0.000000 
#    z 0.000000 0.000000 1.769900 
# 
# From -- ./inp_files/76631.got.cif
#   From: 2010.03.12/outbox.cif.g09.slc.cpg/sg65_39_cif.got.tgz:76631.got - 2010.04.10 20:52:16.
