data_PCOD8269239
_publ_section_title
;
Structure prediction by ZEFSAII (Michael W. Deem and Ramdas Pophale) SiO2 
 PCOD8269239
Probable space group: C M M M
;
_chemical_formula_sum "Si O2"
_cell_formula_units_Z 96
_cell_length_a 9.324512
_cell_length_b 22.923289
_cell_length_c 23.132089
_cell_angle_alpha 90.000000
_cell_angle_beta 90.000000
_cell_angle_gamma 90.000000
_cell_volume 4944.448941
_symmetry_space_group_name_H-M "C M M M"
_symmetry_group_IT_number 65
_symmetry_cell_setting 'orthorhombic'
loop_
_space_group_symop_operation_xyz
x,y,z
-x,-y,z
x,-y,-z
-x,y,-z
-x,-y,-z
x,y,-z
-x,y,z
x,-y,z
1/2+x,1/2+y,z
1/2-x,1/2-y,z
1/2+x,1/2-y,-z
1/2-x,1/2+y,-z
1/2-x,1/2-y,-z
1/2+x,1/2+y,-z
1/2-x,1/2+y,z
1/2+x,1/2-y,z
loop_
_atom_site_type_symbol
_atom_site_label
_atom_site_fract_x
_atom_site_fract_y
_atom_site_fract_z
Si Si1 0.660851 0.156506 0.664184
Si Si2 0.342955 0.651000 0.164519
Si Si3 0.668856 0.383911 0.566894
Si Si4 0.834890 0.309579 0.064190
Si Si5 0.337951 0.000000 0.431979
Si Si6 0.250000 0.750000 0.750773
Si Si7 0.836177 0.067054 0.264128
O O1 0.500000 0.142379 0.643986
O O2 0.759764 0.166967 0.606787
O O3 0.652792 0.211427 0.707663
O O4 0.727072 0.100162 0.694861
O O5 0.500000 0.652420 0.135673
O O6 0.225668 0.648342 0.113656
O O7 0.337452 0.706569 0.207834
O O8 0.319669 0.591535 0.199355
O O9 0.698476 0.368974 0.500000
O O10 0.500000 0.389435 0.578904
O O11 0.746672 0.443588 0.587045
O O12 0.750000 0.250000 0.069433
O O13 0.000000 0.296689 0.077336
O O14 0.814838 0.336934 0.000000
O O15 0.500000 0.000000 0.405314
O O16 0.351667 0.000000 0.500000
O O17 0.000000 0.076357 0.285726
O O18 0.791514 0.000000 0.263391
#
# Coordination Sequence:
#
# PCOD8269239 Si02
#       7
#    16  16  16  16   8   8  16
#     4  11  23  37  58  84 111 142 180 229 275 325
#     4  10  19  33  57  82 108 144 183 224 268 320
#     4  10  21  37  56  78 106 142 180 219 273 334
#     4  10  20  32  49  77 112 146 181 223 272 323
#     4   9  17  31  53  79 105 133 171 219 266 317
#     4  10  22  38  56  80 110 144 182 220 274 330
#     4   9  20  38  57  80 112 148 184 224 273 327
#
# _framework density 19.415711999999999
#
# number of rings (size 3 to 8) (size 9 to 14) (size 15 to 20)
#    0.000    2.083    0.833    2.250    1.167    8.000 
#    0.000    0.417    0.000    0.500    0.000    3.500 
#    0.000    0.000    0.000    0.000    0.000    0.000 
#
# Total GULP energy -594943.179480 kJ/mol
# GULP energy per Si atom -12394.649572 kJ/mol
# Density = 1.937152 g / cm^3
# Si number density = 19.415712 Si / 1000 Ang^3
#
#
#
# Elastic Constant Matrix: (Units=GPa)
#
#
# Indices 1 2 3 4 5 6 
#
# 1 150.2153 25.3988 61.7195 0.0000 0.0000 0.0000
# 2 25.3988 69.7175 29.6688 0.0000 0.0000 0.0000
# 3 61.7195 29.6688 111.9233 0.0000 0.0000 0.0000
# 4 0.0000 0.0000 0.0000 18.9976 0.0000 0.0000
# 5 0.0000 0.0000 0.0000 0.0000 31.3682 0.0000
# 6 0.0000 0.0000 0.0000 0.0000 0.0000 17.4780
#
#
#
# Elastic Compliance Matrix: (Units=1/GPa)
#
#
# Indices 1 2 3 4 5 6 
#
# 1 0.008706 -0.001272 -0.004464 0.000000 0.000000 0.000000
# 2 -0.001272 0.016353 -0.003633 0.000000 0.000000 0.000000
# 3 -0.004464 -0.003633 0.012359 0.000000 0.000000 0.000000
# 4 0.000000 0.000000 0.000000 0.052638 0.000000 0.000000
# 5 0.000000 0.000000 0.000000 0.000000 0.031879 0.000000
# 6 0.000000 0.000000 0.000000 0.000000 0.000000 0.057215
#
#
# Mechanical properties :
#
#
# Convention : Reuss Voigt Hill
#
# Bulk Modulus (GPa) = 53.53273 62.82559 58.17916
# Shear Modulus (GPa) = 24.49578 27.90670 26.20124
#
# Velocity S-wave (km/s) = 3.55582 3.79532 3.67752
# Velocity P-wave (km/s) = 6.67010 7.18570 6.93269
#
# Compressibility (1/GPa) = 0.01868016
#
# Stress axis : x y z
#
# Youngs Moduli (GPa) = 114.85968 61.14970 80.91020
#
# Poissons Ratio (x) = 0.07779 0.36117
# Poissons Ratio (y) = 0.14612 0.29398
# Poissons Ratio (z) = 0.51271 0.22218
#
# Static dielectric constant tensor:
#      x y z
#    x 3.633120 0.000000 0.000000 
#    y 0.000000 3.378750 0.000000 
#    z 0.000000 0.000000 3.787160 
# 
# 
# High freq. dielectric constant tensor:
#      x y z
#    x 1.765000 0.000000 0.000000 
#    y 0.000000 1.721330 0.000000 
#    z 0.000000 0.000000 1.762030 
# 
# From -- ./inp_files/67926.got.cif
#   From: 2010.03.12/outbox.cif.g09.slc.cpg/sg65_34_cif.got.tgz:67926.got - 2010.04.10 20:52:16.
