data_PCOD8269587
_publ_section_title
;
Structure prediction by ZEFSAII (Michael W. Deem and Ramdas Pophale) SiO2 
 PCOD8269587
Probable space group: C M M M
;
_chemical_formula_sum "Si O2"
_cell_formula_units_Z 120
_cell_length_a 8.978674
_cell_length_b 28.066443
_cell_length_c 28.161449
_cell_angle_alpha 90.000000
_cell_angle_beta 90.000000
_cell_angle_gamma 90.000000
_cell_volume 7096.669435
_symmetry_space_group_name_H-M "C M M M"
_symmetry_group_IT_number 65
_symmetry_cell_setting 'orthorhombic'
loop_
_space_group_symop_operation_xyz
x,y,z
-x,-y,z
x,-y,-z
-x,y,-z
-x,-y,-z
x,y,-z
-x,y,z
x,-y,z
1/2+x,1/2+y,z
1/2-x,1/2-y,z
1/2+x,1/2-y,-z
1/2-x,1/2+y,-z
1/2-x,1/2-y,-z
1/2+x,1/2+y,-z
1/2-x,1/2+y,z
1/2+x,1/2-y,z
loop_
_atom_site_type_symbol
_atom_site_label
_atom_site_fract_x
_atom_site_fract_y
_atom_site_fract_z
Si Si1 0.675864 0.603311 0.767066
Si Si2 0.676260 0.891969 0.413736
Si Si3 0.325486 0.055106 0.145369
Si Si4 0.676274 0.298652 0.614777
Si Si5 0.832879 0.056492 0.051984
Si Si6 0.170188 0.554795 0.681966
Si Si7 0.328583 0.443644 0.500000
Si Si8 0.325865 0.702192 0.724283
O O1 0.500000 0.600284 0.771231
O O2 0.746176 0.588310 0.816615
O O3 0.726262 0.567396 0.726111
O O4 0.728831 0.656968 0.754788
O O5 0.500000 0.887930 0.421214
O O6 0.751321 0.840218 0.416565
O O7 0.718386 0.914766 0.363336
O O8 0.745502 0.924763 0.453850
O O9 0.500000 0.061229 0.150855
O O10 0.277189 0.074155 0.093381
O O11 0.277673 0.000000 0.152923
O O12 0.500000 0.297201 0.606828
O O13 0.750000 0.250000 0.596401
O O14 0.719620 0.306922 0.669749
O O15 0.000000 0.074787 0.062861
O O16 0.831733 0.000000 0.050510
O O17 0.780429 0.075736 0.000000
O O18 0.193543 0.500000 0.668558
O O19 0.000000 0.565281 0.696528
O O20 0.316151 0.500000 0.500000
O O21 0.500000 0.426776 0.500000
O O22 0.500000 0.709825 0.728991
O O23 0.250000 0.750000 0.744335
#
# Coordination Sequence:
#
# PCOD8269587 Si02
#       8
#    16  16  16  16  16  16   8  16
#     4  11  21  33  48  71 100 132 168 206 249 297
#     4  11  22  38  60  83 107 137 171 210 256 304
#     4  10  20  31  43  64  97 136 174 211 252 297
#     4  10  19  35  57  83 111 136 169 208 252 305
#     4   8  14  26  44  64  87 121 167 214 257 300
#     4  10  21  35  51  73 101 133 169 206 244 292
#     4  11  25  43  62  83 108 139 173 213 257 299
#     4   9  19  33  51  74 100 129 165 205 248 297
#
# _framework density 16.909341000000001
#
# number of rings (size 3 to 8) (size 9 to 14) (size 15 to 20)
#    0.000    2.067    1.333    3.000    0.000    6.133 
#    0.000    1.667    0.000    0.000    0.000    0.000 
#    0.000    0.533    0.000    1.733    0.000    2.133 
#
# Total GULP energy -744077.027099 kJ/mol
# GULP energy per Si atom -12401.283785 kJ/mol
# Density = 1.687085 g / cm^3
# Si number density = 16.909341 Si / 1000 Ang^3
#
#
#
# Elastic Constant Matrix: (Units=GPa)
#
#
# Indices 1 2 3 4 5 6 
#
# 1 74.6899 38.0925 40.5698 0.0000 0.0000 0.0000
# 2 38.0925 85.2935 33.4828 0.0000 0.0000 0.0000
# 3 40.5698 33.4828 86.9089 0.0000 0.0000 0.0000
# 4 0.0000 0.0000 0.0000 14.9324 0.0000 0.0000
# 5 0.0000 0.0000 0.0000 0.0000 24.2179 0.0000
# 6 0.0000 0.0000 0.0000 0.0000 0.0000 27.8765
#
#
#
# Elastic Compliance Matrix: (Units=1/GPa)
#
#
# Indices 1 2 3 4 5 6 
#
# 1 0.020499 -0.006361 -0.007119 0.000000 0.000000 0.000000
# 2 -0.006361 0.015787 -0.003113 0.000000 0.000000 0.000000
# 3 -0.007119 -0.003113 0.016029 0.000000 0.000000 0.000000
# 4 0.000000 0.000000 0.000000 0.066968 0.000000 0.000000
# 5 0.000000 0.000000 0.000000 0.000000 0.041292 0.000000
# 6 0.000000 0.000000 0.000000 0.000000 0.000000 0.035873
#
#
# Mechanical properties :
#
#
# Convention : Reuss Voigt Hill
#
# Bulk Modulus (GPa) = 52.27286 52.35362 52.31324
# Shear Modulus (GPa) = 21.18563 22.38852 21.78707
#
# Velocity S-wave (km/s) = 3.54347 3.64267 3.59341
# Velocity P-wave (km/s) = 6.90813 6.98002 6.94417
#
# Compressibility (1/GPa) = 0.01913039
#
# Stress axis : x y z
#
# Youngs Moduli (GPa) = 48.78181 63.34364 62.38798
#
# Poissons Ratio (x) = 0.40290 0.44413
# Poissons Ratio (y) = 0.31028 0.19421
# Poissons Ratio (z) = 0.34727 0.19718
#
# Static dielectric constant tensor:
#      x y z
#    x 3.251940 0.000000 0.000000 
#    y 0.000000 3.115400 0.000000 
#    z 0.000000 0.000000 3.331200 
# 
# 
# High freq. dielectric constant tensor:
#      x y z
#    x 1.661740 0.000000 0.000000 
#    y 0.000000 1.634720 0.000000 
#    z 0.000000 0.000000 1.641600 
# 
# From -- ./inp_files/73870.got.cif
#   From: 2010.03.12/outbox.cif.g09.slc.cpg/sg65_37_cif.got.tgz:73870.got - 2010.04.10 20:52:16.
