data_PCOD8269708
_publ_section_title
;
Structure prediction by ZEFSAII (Michael W. Deem and Ramdas Pophale) SiO2 
 PCOD8269708
Probable space group: C M M M
;
_chemical_formula_sum "Si O2"
_cell_formula_units_Z 120
_cell_length_a 32.423591
_cell_length_b 13.826382
_cell_length_c 15.748533
_cell_angle_alpha 90.000000
_cell_angle_beta 90.000000
_cell_angle_gamma 90.000000
_cell_volume 7060.082383
_symmetry_space_group_name_H-M "C M M M"
_symmetry_group_IT_number 65
_symmetry_cell_setting 'orthorhombic'
loop_
_space_group_symop_operation_xyz
x,y,z
-x,-y,z
x,-y,-z
-x,y,-z
-x,-y,-z
x,y,-z
-x,y,z
x,-y,z
1/2+x,1/2+y,z
1/2-x,1/2-y,z
1/2+x,1/2-y,-z
1/2-x,1/2+y,-z
1/2-x,1/2-y,-z
1/2+x,1/2+y,-z
1/2-x,1/2+y,z
1/2+x,1/2-y,z
loop_
_atom_site_type_symbol
_atom_site_label
_atom_site_fract_x
_atom_site_fract_y
_atom_site_fract_z
Si Si1 0.594099 0.614082 0.595116
Si Si2 0.691677 0.614475 0.905153
Si Si3 0.814815 0.894716 0.402042
Si Si4 0.853785 0.606101 0.098190
Si Si5 0.227864 0.386273 0.194959
Si Si6 0.750000 0.250000 0.333990
Si Si7 0.047824 0.886292 0.760337
Si Si8 0.394702 0.298256 0.900491
O O1 0.584762 0.658202 0.500000
O O2 0.588742 0.500000 0.587701
O O3 0.640064 0.640082 0.628927
O O4 0.563772 0.654030 0.668924
O O5 0.690573 0.500000 0.905236
O O6 0.729276 0.650704 0.846844
O O7 0.648007 0.652441 0.870686
O O8 0.698890 0.654756 0.000000
O O9 0.819528 0.915210 0.500000
O O10 0.781617 0.811365 0.389571
O O11 0.803039 0.000000 0.359220
O O12 0.867246 0.500000 0.133205
O O13 0.810983 0.642156 0.138047
O O14 0.890175 0.682775 0.114899
O O15 0.843518 0.599278 0.000000
O O16 0.228895 0.500000 0.213357
O O17 0.223226 0.327115 0.281412
O O18 0.068901 0.835328 0.840972
O O19 0.000000 0.861182 0.766263
O O20 0.056609 0.000000 0.767594
O O21 0.404320 0.321435 0.000000
#
# Coordination Sequence:
#
# PCOD8269708 Si02
#       8
#    16  16  16  16  16   8  16  16
#     4   8  16  32  53  74  96 124 158 196 236 279
#     4   9  17  29  44  63  91 130 170 202 231 269
#     4   9  19  35  51  67  91 127 166 198 231 277
#     4   9  18  33  49  64  89 127 168 210 248 274
#     4  10  20  29  41  67  97 126 162 203 243 279
#     4  12  21  28  43  68  98 130 160 196 237 278
#     4  10  21  34  51  76 103 129 153 185 238 299
#     4  10  20  32  48  70  97 131 168 200 233 283
#
# _framework density 16.996967999999999
#
# number of rings (size 3 to 8) (size 9 to 14) (size 15 to 20)
#    0.000    2.533    0.000    3.000    3.733    2.933 
#    0.000    4.667    0.000    0.400    0.000    1.867 
#    0.000    0.533    0.000    1.200    0.000    0.133 
#
# Total GULP energy -743606.245879 kJ/mol
# GULP energy per Si atom -12393.437431 kJ/mol
# Density = 1.695828 g / cm^3
# Si number density = 16.996968 Si / 1000 Ang^3
#
#
#
# Elastic Constant Matrix: (Units=GPa)
#
#
# Indices 1 2 3 4 5 6 
#
# 1 104.0068 45.3352 51.4756 0.0000 0.0000 0.0000
# 2 45.3352 36.4858 27.5149 0.0000 0.0000 0.0000
# 3 51.4756 27.5149 70.1097 0.0000 0.0000 0.0000
# 4 0.0000 0.0000 0.0000 19.4946 0.0000 0.0000
# 5 0.0000 0.0000 0.0000 0.0000 28.3349 0.0000
# 6 0.0000 0.0000 0.0000 0.0000 0.0000 19.4035
#
#
#
# Elastic Compliance Matrix: (Units=1/GPa)
#
#
# Indices 1 2 3 4 5 6 
#
# 1 0.024026 -0.023508 -0.008415 0.000000 0.000000 0.000000
# 2 -0.023508 0.061930 -0.007045 0.000000 0.000000 0.000000
# 3 -0.008415 -0.007045 0.023206 0.000000 0.000000 0.000000
# 4 0.000000 0.000000 0.000000 0.051296 0.000000 0.000000
# 5 0.000000 0.000000 0.000000 0.000000 0.035292 0.000000
# 6 0.000000 0.000000 0.000000 0.000000 0.000000 0.051537
#
#
# Mechanical properties :
#
#
# Convention : Reuss Voigt Hill
#
# Bulk Modulus (GPa) = 32.02269 51.02819 41.52544
# Shear Modulus (GPa) = 14.89724 19.19838 17.04781
#
# Velocity S-wave (km/s) = 2.96373 3.36448 3.17044
# Velocity P-wave (km/s) = 5.53107 6.72161 6.15519
#
# Compressibility (1/GPa) = 0.03122786
#
# Stress axis : x y z
#
# Youngs Moduli (GPa) = 41.62138 16.14715 43.09165
#
# Poissons Ratio (x) = 0.37959 0.36260
# Poissons Ratio (y) = 0.97843 0.30359
# Poissons Ratio (z) = 0.35023 0.11376
#
# Static dielectric constant tensor:
#      x y z
#    x 3.037110 0.000000 0.000000 
#    y 0.000000 3.238160 0.000000 
#    z 0.000000 0.000000 3.217310 
# 
# 
# High freq. dielectric constant tensor:
#      x y z
#    x 1.632750 0.000000 0.000000 
#    y 0.000000 1.642500 0.000000 
#    z 0.000000 0.000000 1.652980 
# 
# From -- ./inp_files/48056.got.cif
#   From: 2010.03.12/outbox.cif.g09.slc.cpg/sg65_25_cif.got.tgz:48056.got - 2010.04.10 20:52:16.
