data_PCOD8269883
_publ_section_title
;
Structure prediction by ZEFSAII (Michael W. Deem and Ramdas Pophale) SiO2 
 PCOD8269883
Probable space group: C M M M
;
_chemical_formula_sum "Si O2"
_cell_formula_units_Z 80
_cell_length_a 10.109535
_cell_length_b 28.683185
_cell_length_c 18.835018
_cell_angle_alpha 90.000000
_cell_angle_beta 90.000000
_cell_angle_gamma 90.000000
_cell_volume 5461.659156
_symmetry_space_group_name_H-M "C M M M"
_symmetry_group_IT_number 65
_symmetry_cell_setting 'orthorhombic'
loop_
_space_group_symop_operation_xyz
x,y,z
-x,-y,z
x,-y,-z
-x,y,-z
-x,-y,-z
x,y,-z
-x,y,z
x,-y,z
1/2+x,1/2+y,z
1/2-x,1/2-y,z
1/2+x,1/2-y,-z
1/2-x,1/2+y,-z
1/2-x,1/2-y,-z
1/2+x,1/2+y,-z
1/2-x,1/2+y,z
1/2+x,1/2-y,z
loop_
_atom_site_type_symbol
_atom_site_label
_atom_site_fract_x
_atom_site_fract_y
_atom_site_fract_z
Si Si1 0.346985 0.444624 0.682805
Si Si2 0.150983 0.607988 0.416257
Si Si3 0.500000 0.055655 0.081550
Si Si4 0.746161 0.555461 0.835148
Si Si5 0.500000 0.555675 0.921367
Si Si6 0.853715 0.286713 0.415581
O O1 0.500000 0.427201 0.679455
O O2 0.345196 0.500000 0.678407
O O3 0.260286 0.425086 0.618483
O O4 0.274936 0.426938 0.754746
O O5 0.167587 0.602624 0.500000
O O6 0.181408 0.660859 0.391619
O O7 0.000000 0.594253 0.394517
O O8 0.623263 0.075085 0.126751
O O9 0.500000 0.000000 0.078910
O O10 0.500000 0.074485 0.000000
O O11 0.747658 0.500000 0.835748
O O12 0.626844 0.575370 0.881461
O O13 0.500000 0.500000 0.922059
O O14 0.500000 0.576279 0.000000
O O15 0.850759 0.284349 0.500000
O O16 0.750000 0.250000 0.382224
O O17 0.000000 0.273131 0.388172
#
# Coordination Sequence:
#
# PCOD8269883 Si02
#       6
#    16  16   8  16   8  16
#     4  10  20  32  43  56  78 110 148 186 217 245
#     4   9  19  33  46  62  82 105 139 178 213 252
#     4   9  16  24  36  56  77  95 124 167 207 245
#     4   9  16  26  37  53  75  99 131 169 206 246
#     4   9  14  22  38  54  71  97 126 161 205 245
#     4   8  14  26  44  65  86 103 122 155 201 254
#
# _framework density 14.647563999999999
#
# number of rings (size 3 to 8) (size 9 to 14) (size 15 to 20)
#    0.000    3.000    1.000    1.800    1.400    4.400 
#    0.000    4.000    0.000    0.000    0.000    0.000 
#    0.000    0.000    0.000    0.000    0.000    6.000 
#
# Total GULP energy -495688.915700 kJ/mol
# GULP energy per Si atom -12392.222892 kJ/mol
# Density = 1.461423 g / cm^3
# Si number density = 14.647564 Si / 1000 Ang^3
#
#
#
# Elastic Constant Matrix: (Units=GPa)
#
#
# Indices 1 2 3 4 5 6 
#
# 1 134.4156 29.0506 53.6715 0.0000 0.0000 0.0000
# 2 29.0506 24.1786 18.7462 0.0000 0.0000 0.0000
# 3 53.6715 18.7462 68.5546 0.0000 0.0000 0.0000
# 4 0.0000 0.0000 0.0000 0.2984 0.0000 0.0000
# 5 0.0000 0.0000 0.0000 0.0000 27.9062 0.0000
# 6 0.0000 0.0000 0.0000 0.0000 0.0000 20.5009
#
#
#
# Elastic Compliance Matrix: (Units=1/GPa)
#
#
# Indices 1 2 3 4 5 6 
#
# 1 0.012262 -0.009251 -0.007070 0.000000 0.000000 0.000000
# 2 -0.009251 0.059466 -0.009018 0.000000 0.000000 0.000000
# 3 -0.007070 -0.009018 0.022588 0.000000 0.000000 0.000000
# 4 0.000000 0.000000 0.000000 3.351281 0.000000 0.000000
# 5 0.000000 0.000000 0.000000 0.000000 0.035834 0.000000
# 6 0.000000 0.000000 0.000000 0.000000 0.000000 0.048778
#
#
# Mechanical properties :
#
#
# Convention : Reuss Voigt Hill
#
# Bulk Modulus (GPa) = 22.91621 47.78727 35.35174
# Shear Modulus (GPa) = 1.39065 18.11979 9.75522
#
# Velocity S-wave (km/s) = 0.97543 3.52099 2.58349
# Velocity P-wave (km/s) = 4.11675 7.01608 5.75209
#
# Compressibility (1/GPa) = 0.04363722
#
# Stress axis : x y z
#
# Youngs Moduli (GPa) = 81.55152 16.81624 44.27062
#
# Poissons Ratio (x) = 0.15557 0.31301
# Poissons Ratio (y) = 0.75445 0.39924
# Poissons Ratio (z) = 0.57660 0.15165
#
# Static dielectric constant tensor:
#      x y z
#    x 3.164980 0.000000 0.000000 
#    y 0.000000 2.443240 0.000000 
#    z 0.000000 0.000000 2.775940 
# 
# 
# High freq. dielectric constant tensor:
#      x y z
#    x 1.580240 0.000000 0.000000 
#    y 0.000000 1.496620 0.000000 
#    z 0.000000 0.000000 1.546380 
# 
# From -- ./inp_files/60083.got.cif
#   From: 2010.03.12/outbox.cif.g09.slc.cpg/sg65_31_cif.got.tgz:60083.got - 2010.04.10 20:52:16.
