data_PCOD8269850
_publ_section_title
;
Structure prediction by ZEFSAII (Michael W. Deem and Ramdas Pophale) SiO2 
 PCOD8269850
Probable space group: C M M M
;
_chemical_formula_sum "Si O2"
_cell_formula_units_Z 88
_cell_length_a 27.854502
_cell_length_b 17.481610
_cell_length_c 9.685272
_cell_angle_alpha 90.000000
_cell_angle_beta 90.000000
_cell_angle_gamma 90.000000
_cell_volume 4716.161270
_symmetry_space_group_name_H-M "C M M M"
_symmetry_group_IT_number 65
_symmetry_cell_setting 'orthorhombic'
loop_
_space_group_symop_operation_xyz
x,y,z
-x,-y,z
x,-y,-z
-x,y,-z
-x,-y,-z
x,y,-z
-x,y,z
x,-y,z
1/2+x,1/2+y,z
1/2-x,1/2-y,z
1/2+x,1/2-y,-z
1/2-x,1/2+y,-z
1/2-x,1/2-y,-z
1/2+x,1/2+y,-z
1/2-x,1/2+y,z
1/2+x,1/2-y,z
loop_
_atom_site_type_symbol
_atom_site_label
_atom_site_fract_x
_atom_site_fract_y
_atom_site_fract_z
Si Si1 0.553245 0.908933 0.653621
Si Si2 0.000000 0.088479 0.839317
Si Si3 0.604683 0.589807 0.163546
Si Si4 0.317314 0.676753 0.342691
Si Si5 0.866031 0.587997 0.848632
Si Si6 0.708716 0.149528 0.342961
O O1 0.564618 0.877531 0.500000
O O2 0.500000 0.883362 0.699622
O O3 0.591033 0.872493 0.761021
O O4 0.557104 0.000000 0.651294
O O5 0.051592 0.119781 0.783491
O O6 0.000000 0.000000 0.805491
O O7 0.000000 0.103619 0.000000
O O8 0.611364 0.500000 0.198382
O O9 0.644587 0.639303 0.240586
O O10 0.610225 0.602816 0.000000
O O11 0.333922 0.662576 0.500000
O O12 0.311534 0.766228 0.312234
O O13 0.265214 0.639787 0.317698
O O14 0.878540 0.500000 0.869301
O O15 0.816522 0.593568 0.765120
O O16 0.862223 0.627270 0.000000
O O17 0.696261 0.125981 0.500000
#
# Coordination Sequence:
#
# PCOD8269850 Si02
#       6
#    16   8  16  16  16  16
#     4   8  14  26  45  67  90 120 157 191 229 283
#     4   7  12  26  47  71 101 135 164 187 224 287
#     4   9  17  30  51  78 105 133 164 198 239 293
#     4   9  19  35  53  72  94 125 166 209 248 287
#     4  10  20  31  46  72 101 125 155 202 251 289
#     4   9  19  36  53  67  91 130 170 204 244 298
#
# _framework density 18.659241999999999
#
# number of rings (size 3 to 8) (size 9 to 14) (size 15 to 20)
#    0.000    3.182    0.000    3.273    0.000    4.000 
#    0.000    7.727    2.000    1.636    0.000    0.000 
#    0.000    0.000    0.000    0.000    0.000    0.000 
#
# Total GULP energy -545116.245174 kJ/mol
# GULP energy per Si atom -12389.005572 kJ/mol
# Density = 1.861677 g / cm^3
# Si number density = 18.659242 Si / 1000 Ang^3
#
#
#
# Elastic Constant Matrix: (Units=GPa)
#
#
# Indices 1 2 3 4 5 6 
#
# 1 142.7702 27.5143 77.6245 0.0000 0.0000 0.0000
# 2 27.5143 20.2784 19.8374 0.0000 0.0000 0.0000
# 3 77.6245 19.8374 113.0894 0.0000 0.0000 0.0000
# 4 0.0000 0.0000 0.0000 23.9702 0.0000 0.0000
# 5 0.0000 0.0000 0.0000 0.0000 30.2562 0.0000
# 6 0.0000 0.0000 0.0000 0.0000 0.0000 19.1712
#
#
#
# Elastic Compliance Matrix: (Units=1/GPa)
#
#
# Indices 1 2 3 4 5 6 
#
# 1 0.012822 -0.010608 -0.006940 0.000000 0.000000 0.000000
# 2 -0.010608 0.068305 -0.004700 0.000000 0.000000 0.000000
# 3 -0.006940 -0.004700 0.014431 0.000000 0.000000 0.000000
# 4 0.000000 0.000000 0.000000 0.041719 0.000000 0.000000
# 5 0.000000 0.000000 0.000000 0.000000 0.033051 0.000000
# 6 0.000000 0.000000 0.000000 0.000000 0.000000 0.052162
#
#
# Mechanical properties :
#
#
# Convention : Reuss Voigt Hill
#
# Bulk Modulus (GPa) = 19.58457 58.45448 39.01953
# Shear Modulus (GPa) = 17.60526 24.75696 21.18111
#
# Velocity S-wave (km/s) = 3.07500 3.64647 3.37286
# Velocity P-wave (km/s) = 4.80897 7.00888 6.01043
#
# Compressibility (1/GPa) = 0.05106061
#
# Stress axis : x y z
#
# Youngs Moduli (GPa) = 77.99083 14.64029 69.29610
#
# Poissons Ratio (x) = 0.15530 0.48093
# Poissons Ratio (y) = 0.82732 0.32571
# Poissons Ratio (z) = 0.54128 0.06881
#
# Static dielectric constant tensor:
#      x y z
#    x 3.703970 0.000000 0.000000 
#    y 0.000000 2.948080 0.000000 
#    z 0.000000 0.000000 3.520090 
# 
# 
# High freq. dielectric constant tensor:
#      x y z
#    x 1.740560 0.000000 0.000000 
#    y 0.000000 1.677040 0.000000 
#    z 0.000000 0.000000 1.716180 
# 
# From -- ./inp_files/13961.got.cif
#   From: 2010.03.12/outbox.cif.g09.slc.cpg/sg65_7_cif.got.tgz:13961.got - 2010.04.10 20:52:16.
