data_PCOD8269868
_publ_section_title
;
Structure prediction by ZEFSAII (Michael W. Deem and Ramdas Pophale) SiO2 
 PCOD8269868
Probable space group: C M M M
;
_chemical_formula_sum "Si O2"
_cell_formula_units_Z 88
_cell_length_a 21.397394
_cell_length_b 9.643578
_cell_length_c 24.699388
_cell_angle_alpha 90.000000
_cell_angle_beta 90.000000
_cell_angle_gamma 90.000000
_cell_volume 5096.655435
_symmetry_space_group_name_H-M "C M M M"
_symmetry_group_IT_number 65
_symmetry_cell_setting 'orthorhombic'
loop_
_space_group_symop_operation_xyz
x,y,z
-x,-y,z
x,-y,-z
-x,y,-z
-x,-y,-z
x,y,-z
-x,y,z
x,-y,z
1/2+x,1/2+y,z
1/2-x,1/2-y,z
1/2+x,1/2-y,-z
1/2-x,1/2+y,-z
1/2-x,1/2-y,-z
1/2+x,1/2+y,-z
1/2-x,1/2+y,z
1/2+x,1/2-y,z
loop_
_atom_site_type_symbol
_atom_site_label
_atom_site_fract_x
_atom_site_fract_y
_atom_site_fract_z
Si Si1 0.000000 0.836260 0.437765
Si Si2 0.606911 0.844088 0.601592
Si Si3 0.805755 0.343157 0.699319
Si Si4 0.806982 0.652730 0.500000
Si Si5 0.189631 0.338762 0.177104
Si Si6 0.926652 0.155873 0.000000
Si Si7 0.427495 0.161250 0.102220
O O1 0.057667 0.776444 0.405220
O O2 0.000000 0.784717 0.500000
O O3 0.000000 0.000000 0.434259
O O4 0.635018 0.821805 0.660996
O O5 0.655645 0.819246 0.554299
O O6 0.578454 0.000000 0.596777
O O7 0.781534 0.500000 0.696780
O O8 0.750000 0.250000 0.676741
O O9 0.823967 0.301773 0.760399
O O10 0.779320 0.500000 0.500000
O O11 0.750000 0.750000 0.500000
O O12 0.206662 0.500000 0.168579
O O13 0.250000 0.250000 0.156207
O O14 0.123785 0.302506 0.148063
O O15 0.906244 0.242729 0.947561
O O16 0.000000 0.139929 0.000000
O O17 0.896669 0.000000 0.000000
O O18 0.500000 0.192817 0.120507
O O19 0.422725 0.000000 0.085159
#
# Coordination Sequence:
#
# PCOD8269868 Si02
#       7
#     8  16  16   8  16   8  16
#     4  11  23  37  53  73  97 129 165 202 249 300
#     4  10  20  35  53  73  99 131 165 200 245 300
#     4   9  18  33  53  77 101 131 167 204 248 295
#     4  10  20  31  48  73  99 124 158 200 245 294
#     4   9  18  33  52  76 104 136 173 209 254 304
#     4   9  17  29  48  75 104 133 169 211 256 305
#     4   9  17  31  51  74 102 135 172 213 253 298
#
# _framework density 17.266224999999999
#
# number of rings (size 3 to 8) (size 9 to 14) (size 15 to 20)
#    0.000    2.545    0.909    1.091    0.000    3.636 
#    1.636    0.455    0.000    0.000    0.000    0.000 
#    0.000    0.000    0.000    0.000    0.000    0.000 
#
# Total GULP energy -545331.452065 kJ/mol
# GULP energy per Si atom -12393.896638 kJ/mol
# Density = 1.722693 g / cm^3
# Si number density = 17.266225 Si / 1000 Ang^3
#
#
#
# Elastic Constant Matrix: (Units=GPa)
#
#
# Indices 1 2 3 4 5 6 
#
# 1 105.6527 64.2013 52.2907 0.0000 0.0000 0.0000
# 2 64.2013 89.6106 48.3336 0.0000 0.0000 0.0000
# 3 52.2907 48.3336 90.9508 0.0000 0.0000 0.0000
# 4 0.0000 0.0000 0.0000 25.0303 0.0000 0.0000
# 5 0.0000 0.0000 0.0000 0.0000 12.8663 0.0000
# 6 0.0000 0.0000 0.0000 0.0000 0.0000 33.8146
#
#
#
# Elastic Compliance Matrix: (Units=1/GPa)
#
#
# Indices 1 2 3 4 5 6 
#
# 1 0.018232 -0.010385 -0.004963 0.000000 0.000000 0.000000
# 2 -0.010385 0.021559 -0.005486 0.000000 0.000000 0.000000
# 3 -0.004963 -0.005486 0.016764 0.000000 0.000000 0.000000
# 4 0.000000 0.000000 0.000000 0.039952 0.000000 0.000000
# 5 0.000000 0.000000 0.000000 0.000000 0.077723 0.000000
# 6 0.000000 0.000000 0.000000 0.000000 0.000000 0.029573
#
#
# Mechanical properties :
#
#
# Convention : Reuss Voigt Hill
#
# Bulk Modulus (GPa) = 67.17856 68.42949 67.80402
# Shear Modulus (GPa) = 19.96533 22.43479 21.20006
#
# Velocity S-wave (km/s) = 3.40416 3.60855 3.50785
# Velocity P-wave (km/s) = 7.37855 7.55515 7.46737
#
# Compressibility (1/GPa) = 0.01488570
#
# Stress axis : x y z
#
# Youngs Moduli (GPa) = 54.84780 46.38427 59.65163
#
# Poissons Ratio (x) = 0.48172 0.29607
# Poissons Ratio (y) = 0.56962 0.32726
# Poissons Ratio (z) = 0.27223 0.25447
#
# Static dielectric constant tensor:
#      x y z
#    x 2.991470 0.000000 0.000000 
#    y 0.000000 3.395650 0.000000 
#    z 0.000000 0.000000 3.167010 
# 
# 
# High freq. dielectric constant tensor:
#      x y z
#    x 1.652850 0.000000 0.000000 
#    y 0.000000 1.672580 0.000000 
#    z 0.000000 0.000000 1.665160 
# 
# From -- ./inp_files/71057.got.cif
#   From: 2010.03.12/outbox.cif.g09.slc.cpg/sg65_36_cif.got.tgz:71057.got - 2010.04.10 20:52:16.
