data_PCOD8269080
_publ_section_title
;
Structure prediction by ZEFSAII (Michael W. Deem and Ramdas Pophale) SiO2 
 PCOD8269080
Probable space group: C M M M
;
_chemical_formula_sum "Si O2"
_cell_formula_units_Z 72
_cell_length_a 19.326045
_cell_length_b 8.910940
_cell_length_c 22.908000
_cell_angle_alpha 90.000000
_cell_angle_beta 90.000000
_cell_angle_gamma 90.000000
_cell_volume 3945.060614
_symmetry_space_group_name_H-M "C M M M"
_symmetry_group_IT_number 65
_symmetry_cell_setting 'orthorhombic'
loop_
_space_group_symop_operation_xyz
x,y,z
-x,-y,z
x,-y,-z
-x,y,-z
-x,-y,-z
x,y,-z
-x,y,z
x,-y,z
1/2+x,1/2+y,z
1/2-x,1/2-y,z
1/2+x,1/2-y,-z
1/2-x,1/2+y,-z
1/2-x,1/2-y,-z
1/2+x,1/2+y,-z
1/2-x,1/2+y,z
1/2+x,1/2-y,z
loop_
_atom_site_type_symbol
_atom_site_label
_atom_site_fract_x
_atom_site_fract_y
_atom_site_fract_z
Si Si1 0.678917 0.824904 0.432165
Si Si2 0.674481 0.322923 0.126686
Si Si3 0.919321 0.675232 0.223377
Si Si4 0.918780 0.173006 0.657137
Si Si5 0.321918 0.328000 0.000000
O O1 0.665682 0.792235 0.500000
O O2 0.750000 0.750000 0.410933
O O3 0.615861 0.751621 0.397940
O O4 0.682852 0.000000 0.418358
O O5 0.680840 0.500000 0.138464
O O6 0.750000 0.250000 0.133801
O O7 0.621554 0.250854 0.171187
O O8 0.641189 0.288702 0.061813
O O9 0.902814 0.500000 0.225387
O O10 0.893495 0.747407 0.283742
O O11 0.000000 0.708066 0.213356
O O12 0.000000 0.193331 0.648558
O O13 0.896822 0.000000 0.660111
O O14 0.250000 0.250000 0.000000
O O15 0.302982 0.500000 0.000000
#
# Coordination Sequence:
#
# PCOD8269080 Si02
#       5
#    16  16  16  16   8
#     4  10  21  37  57  81 110 142 175 214 260 308
#     4  10  19  33  54  79 106 136 174 216 260 311
#     4  10  21  37  55  76 105 139 175 217 264 311
#     4  10  21  37  57  80 106 138 176 217 261 310
#     4   8  16  30  49  74 103 135 169 211 259 306
#
# _framework density 18.250671000000001
#
# number of rings (size 3 to 8) (size 9 to 14) (size 15 to 20)
#    0.000    2.222    0.000    2.667    0.000    6.222 
#    0.000    7.222    0.000    3.333    0.000    0.000 
#    0.000    0.000    0.000    0.000    0.000    0.000 
#
# Total GULP energy -446296.449570 kJ/mol
# GULP energy per Si atom -12397.123599 kJ/mol
# Density = 1.820913 g / cm^3
# Si number density = 18.250671 Si / 1000 Ang^3
#
#
#
# Elastic Constant Matrix: (Units=GPa)
#
#
# Indices 1 2 3 4 5 6 
#
# 1 54.5685 52.2898 60.2036 0.0000 0.0000 0.0000
# 2 52.2898 128.0832 78.9396 0.0000 0.0000 0.0000
# 3 60.2036 78.9396 131.2981 0.0000 0.0000 0.0000
# 4 0.0000 0.0000 0.0000 34.3155 0.0000 0.0000
# 5 0.0000 0.0000 0.0000 0.0000 -129.7257 0.0000
# 6 0.0000 0.0000 0.0000 0.0000 0.0000 33.8590
#
#
#
# Elastic Compliance Matrix: (Units=1/GPa)
#
#
# Indices 1 2 3 4 5 6 
#
# 1 0.042104 -0.008405 -0.014253 0.000000 0.000000 0.000000
# 2 -0.008405 0.014081 -0.004612 0.000000 0.000000 0.000000
# 3 -0.014253 -0.004612 0.016924 0.000000 0.000000 0.000000
# 4 0.000000 0.000000 0.000000 0.029141 0.000000 0.000000
# 5 0.000000 0.000000 0.000000 0.000000 -0.007709 0.000000
# 6 0.000000 0.000000 0.000000 0.000000 0.000000 0.029534
#
#
# Mechanical properties :
#
#
# Convention : Reuss Voigt Hill
#
# Bulk Modulus (GPa) = 53.84907 77.42399 65.63653
# Shear Modulus (GPa) = 27.05549 -4.14246 11.45652
#
# Velocity S-wave (km/s) = 3.85442 -1.50821 2.50817
# Velocity P-wave (km/s) = 7.02695 6.28345 6.66558
#
# Compressibility (1/GPa) = 0.01857042
#
# Stress axis : x y z
#
# Youngs Moduli (GPa) = 23.75084 71.01671 59.08638
#
# Poissons Ratio (x) = 0.59688 0.84213
# Poissons Ratio (y) = 0.19962 0.27252
# Poissons Ratio (z) = 0.33851 0.32754
#
# Static dielectric constant tensor:
#      x y z
#    x 3.131490 0.000000 0.000000 
#    y 0.000000 3.601530 0.000000 
#    z 0.000000 0.000000 1.440530 
# 
# 
# High freq. dielectric constant tensor:
#      x y z
#    x 1.686080 0.000000 0.000000 
#    y 0.000000 1.727820 0.000000 
#    z 0.000000 0.000000 1.723690 
# 
# From -- ./inp_files/59246.got.cif
#   From: 2010.03.12/outbox.cif.g09.slc.cpg/sg65_30_cif.got.tgz:59246.got - 2010.04.10 20:52:16.
