data_PCOD8269913
_publ_section_title
;
Structure prediction by ZEFSAII (Michael W. Deem and Ramdas Pophale) SiO2 
 PCOD8269913
Probable space group: C M M M
;
_chemical_formula_sum "Si O2"
_cell_formula_units_Z 120
_cell_length_a 9.450399
_cell_length_b 29.416019
_cell_length_c 25.488247
_cell_angle_alpha 90.000000
_cell_angle_beta 90.000000
_cell_angle_gamma 90.000000
_cell_volume 7085.557219
_symmetry_space_group_name_H-M "C M M M"
_symmetry_group_IT_number 65
_symmetry_cell_setting 'orthorhombic'
loop_
_space_group_symop_operation_xyz
x,y,z
-x,-y,z
x,-y,-z
-x,y,-z
-x,-y,-z
x,y,-z
-x,y,z
x,-y,z
1/2+x,1/2+y,z
1/2-x,1/2-y,z
1/2+x,1/2-y,-z
1/2-x,1/2+y,-z
1/2-x,1/2-y,-z
1/2+x,1/2+y,-z
1/2-x,1/2+y,z
1/2+x,1/2-y,z
loop_
_atom_site_type_symbol
_atom_site_label
_atom_site_fract_x
_atom_site_fract_y
_atom_site_fract_z
Si Si1 0.666172 0.856730 0.902613
Si Si2 0.164443 0.293782 0.310607
Si Si3 0.835970 0.448616 0.747804
Si Si4 0.831471 0.390188 0.653459
Si Si5 0.163533 0.293290 0.190334
Si Si6 0.829802 0.297863 0.000000
Si Si7 0.169125 0.450159 0.864622
Si Si8 0.168314 0.551103 0.558197
O O1 0.500000 0.858373 0.910717
O O2 0.706679 0.835282 0.846449
O O3 0.726664 0.826620 0.950058
O O4 0.724246 0.909009 0.901957
O O5 0.250000 0.250000 0.330440
O O6 0.211393 0.337103 0.345266
O O7 0.200238 0.305747 0.250199
O O8 0.000000 0.282655 0.317603
O O9 0.814091 0.500000 0.727849
O O10 0.765958 0.415365 0.704614
O O11 0.769478 0.442291 0.805792
O O12 0.000000 0.436226 0.752134
O O13 0.769421 0.413419 0.600756
O O14 0.000000 0.395267 0.654690
O O15 0.250000 0.250000 0.170692
O O16 0.000000 0.280896 0.183524
O O17 0.750000 0.250000 0.000000
O O18 0.000000 0.290208 0.000000
O O19 0.219350 0.500000 0.885672
O O20 0.000000 0.449594 0.861759
O O21 0.222227 0.565031 0.500000
O O22 0.219911 0.500000 0.571847
O O23 0.000000 0.552335 0.559311
#
# Coordination Sequence:
#
# PCOD8269913 Si02
#       8
#    16  16  16  16  16   8  16  16
#     4   9  16  26  39  55  77 104 130 157 191 229
#     4   9  17  27  39  56  77 102 131 162 194 226
#     4   8  12  17  28  49  75 100 124 151 186 229
#     4   9  14  20  32  49  71 100 130 157 189 230
#     4   9  16  26  40  57  78 102 128 159 194 231
#     4  10  20  32  45  61  81 103 128 160 197 232
#     4   8  13  21  33  50  74 102 127 150 182 227
#     4   8  13  20  30  47  73 102 127 152 187 231
#
# _framework density 16.935859000000001
#
# number of rings (size 3 to 8) (size 9 to 14) (size 15 to 20)
#    0.000    3.333    0.000    2.800    0.000    4.800 
#    0.000    0.333    0.000    2.400    0.000    0.000 
#    0.000    4.800    0.000   21.200    0.000   20.533 
#
# Total GULP energy -743388.265992 kJ/mol
# GULP energy per Si atom -12389.804433 kJ/mol
# Density = 1.689731 g / cm^3
# Si number density = 16.935859 Si / 1000 Ang^3
#
#
#
# Elastic Constant Matrix: (Units=GPa)
#
#
# Indices 1 2 3 4 5 6 
#
# 1 11.1519 21.5563 12.3439 0.0000 0.0000 0.0000
# 2 21.5563 159.4642 78.9903 0.0000 0.0000 0.0000
# 3 12.3439 78.9903 87.9809 0.0000 0.0000 0.0000
# 4 0.0000 0.0000 0.0000 27.0802 0.0000 0.0000
# 5 0.0000 0.0000 0.0000 0.0000 6.4668 0.0000
# 6 0.0000 0.0000 0.0000 0.0000 0.0000 15.7904
#
#
#
# Elastic Compliance Matrix: (Units=1/GPa)
#
#
# Indices 1 2 3 4 5 6 
#
# 1 0.122233 -0.014459 -0.004169 0.000000 0.000000 0.000000
# 2 -0.014459 0.013004 -0.009646 0.000000 0.000000 0.000000
# 3 -0.004169 -0.009646 0.020612 0.000000 0.000000 0.000000
# 4 0.000000 0.000000 0.000000 0.036927 0.000000 0.000000
# 5 0.000000 0.000000 0.000000 0.000000 0.154635 0.000000
# 6 0.000000 0.000000 0.000000 0.000000 0.000000 0.063329
#
#
# Mechanical properties :
#
#
# Convention : Reuss Voigt Hill
#
# Bulk Modulus (GPa) = 10.07032 53.81977 31.94504
# Shear Modulus (GPa) = 9.99225 19.58127 14.78676
#
# Velocity S-wave (km/s) = 2.43164 3.40399 2.95804
# Velocity P-wave (km/s) = 3.72060 6.87729 5.52901
#
# Compressibility (1/GPa) = 0.09930171
#
# Stress axis : x y z
#
# Youngs Moduli (GPa) = 8.18108 76.90034 48.51627
#
# Poissons Ratio (x) = 1.11187 0.20224
# Poissons Ratio (y) = 0.11829 0.46801
# Poissons Ratio (z) = 0.03410 0.74181
#
# Static dielectric constant tensor:
#      x y z
#    x 2.490810 0.000000 0.000000 
#    y 0.000000 3.462310 0.000000 
#    z 0.000000 0.000000 3.343120 
# 
# 
# High freq. dielectric constant tensor:
#      x y z
#    x 1.568250 0.000000 0.000000 
#    y 0.000000 1.665590 0.000000 
#    z 0.000000 0.000000 1.642460 
# 
# From -- ./inp_files/62048.got.cif
#   From: 2010.03.12/outbox.cif.g09.slc.cpg/sg65_32_cif.got.tgz:62048.got - 2010.04.10 20:52:16.
