data_PCOD8269387
_publ_section_title
;
Structure prediction by ZEFSAII (Michael W. Deem and Ramdas Pophale) SiO2 
 PCOD8269387
Probable space group: C M M M
;
_chemical_formula_sum "Si O2"
_cell_formula_units_Z 96
_cell_length_a 20.608640
_cell_length_b 22.866161
_cell_length_c 11.060770
_cell_angle_alpha 90.000000
_cell_angle_beta 90.000000
_cell_angle_gamma 90.000000
_cell_volume 5212.282567
_symmetry_space_group_name_H-M "C M M M"
_symmetry_group_IT_number 65
_symmetry_cell_setting 'orthorhombic'
loop_
_space_group_symop_operation_xyz
x,y,z
-x,-y,z
x,-y,-z
-x,y,-z
-x,-y,-z
x,y,-z
-x,y,z
x,-y,z
1/2+x,1/2+y,z
1/2-x,1/2-y,z
1/2+x,1/2-y,-z
1/2-x,1/2+y,-z
1/2-x,1/2-y,-z
1/2+x,1/2+y,-z
1/2-x,1/2+y,z
1/2+x,1/2-y,z
loop_
_atom_site_type_symbol
_atom_site_label
_atom_site_fract_x
_atom_site_fract_y
_atom_site_fract_z
Si Si1 0.316417 0.067337 0.717436
Si Si2 0.811662 0.066788 0.863663
Si Si3 0.073295 0.251425 0.731455
Si Si4 0.070011 0.864019 0.858963
Si Si5 0.721926 0.150439 0.500000
Si Si6 0.923628 0.629603 0.142520
Si Si7 0.844052 0.224878 0.500000
O O1 0.256862 0.078847 0.805056
O O2 0.304743 0.113089 0.611210
O O3 0.382794 0.078562 0.791852
O O4 0.318024 0.000000 0.670577
O O5 0.870049 0.101725 0.797264
O O6 0.832364 0.000000 0.856181
O O7 0.803905 0.088989 0.000000
O O8 0.077953 0.204940 0.839349
O O9 0.099412 0.311238 0.790228
O O10 0.113225 0.225349 0.620261
O O11 0.000000 0.261057 0.685844
O O12 0.000000 0.884521 0.804393
O O13 0.070204 0.877671 0.000000
O O14 0.799361 0.165504 0.500000
O O15 0.693563 0.214660 0.500000
O O16 0.000000 0.617309 0.161526
O O17 0.907269 0.632603 0.000000
#
# Coordination Sequence:
#
# PCOD8269387 Si02
#       7
#    16  16  16  16   8  16   8
#     4  11  22  39  58  78 109 145 185 229 274 328
#     4   9  18  32  51  76 106 141 180 223 271 324
#     4  10  19  34  55  80 110 142 179 223 275 327
#     4   9  17  30  50  77 109 143 178 218 269 329
#     4  11  23  38  56  80 107 140 182 224 271 318
#     4  10  21  37  58  83 111 143 182 230 282 334
#     4  11  21  36  58  79 108 139 179 228 263 320
#
# _framework density 18.418033999999999
#
# number of rings (size 3 to 8) (size 9 to 14) (size 15 to 20)
#    0.000    2.000    1.667    2.500    0.000    3.667 
#    0.000    2.917    0.000    5.000    0.000    0.000 
#    0.000   12.000    0.000    0.000    0.000    0.000 
#
# Total GULP energy -594812.716349 kJ/mol
# GULP energy per Si atom -12391.931591 kJ/mol
# Density = 1.837611 g / cm^3
# Si number density = 18.418034 Si / 1000 Ang^3
#
#
#
# Elastic Constant Matrix: (Units=GPa)
#
#
# Indices 1 2 3 4 5 6 
#
# 1 102.0221 50.8651 36.9657 0.0000 0.0000 0.0000
# 2 50.8651 71.8988 34.8488 0.0000 0.0000 0.0000
# 3 36.9657 34.8488 76.4380 0.0000 0.0000 0.0000
# 4 0.0000 0.0000 0.0000 45.8554 0.0000 0.0000
# 5 0.0000 0.0000 0.0000 0.0000 19.7341 0.0000
# 6 0.0000 0.0000 0.0000 0.0000 0.0000 34.1199
#
#
#
# Elastic Compliance Matrix: (Units=1/GPa)
#
#
# Indices 1 2 3 4 5 6 
#
# 1 0.015750 -0.009564 -0.003256 0.000000 0.000000 0.000000
# 2 -0.009564 0.023661 -0.006162 0.000000 0.000000 0.000000
# 3 -0.003256 -0.006162 0.017467 0.000000 0.000000 0.000000
# 4 0.000000 0.000000 0.000000 0.021808 0.000000 0.000000
# 5 0.000000 0.000000 0.000000 0.000000 0.050674 0.000000
# 6 0.000000 0.000000 0.000000 0.000000 0.000000 0.029308
#
#
# Mechanical properties :
#
#
# Convention : Reuss Voigt Hill
#
# Bulk Modulus (GPa) = 52.87451 55.07979 53.97715
# Shear Modulus (GPa) = 24.63813 28.45384 26.54599
#
# Velocity S-wave (km/s) = 3.66145 3.93477 3.80057
# Velocity P-wave (km/s) = 6.82974 7.11432 6.97348
#
# Compressibility (1/GPa) = 0.01891270
#
# Stress axis : x y z
#
# Youngs Moduli (GPa) = 63.49190 42.26301 57.25173
#
# Poissons Ratio (x) = 0.40421 0.18644
# Poissons Ratio (y) = 0.60724 0.35280
# Poissons Ratio (z) = 0.20676 0.26043
#
# Static dielectric constant tensor:
#      x y z
#    x 3.690320 0.000000 0.000000 
#    y 0.000000 3.369640 0.000000 
#    z 0.000000 0.000000 3.803150 
# 
# 
# High freq. dielectric constant tensor:
#      x y z
#    x 1.726110 0.000000 0.000000 
#    y 0.000000 1.711880 0.000000 
#    z 0.000000 0.000000 1.702130 
# 
# From -- ./inp_files/29089.got.cif
#   From: 2010.03.12/outbox.cif.g09.slc.cpg/sg65_15_cif.got.tgz:29089.got - 2010.04.10 20:52:16.
