data_PCOD8269996
_publ_section_title
;
Structure prediction by ZEFSAII (Michael W. Deem and Ramdas Pophale) SiO2 
 PCOD8269996
Probable space group: C M M M
;
_chemical_formula_sum "Si O2"
_cell_formula_units_Z 96
_cell_length_a 27.395990
_cell_length_b 8.807840
_cell_length_c 24.088878
_cell_angle_alpha 90.000000
_cell_angle_beta 90.000000
_cell_angle_gamma 90.000000
_cell_volume 5812.634134
_symmetry_space_group_name_H-M "C M M M"
_symmetry_group_IT_number 65
_symmetry_cell_setting 'orthorhombic'
loop_
_space_group_symop_operation_xyz
x,y,z
-x,-y,z
x,-y,-z
-x,y,-z
-x,-y,-z
x,y,-z
-x,y,z
x,-y,z
1/2+x,1/2+y,z
1/2-x,1/2-y,z
1/2+x,1/2-y,-z
1/2-x,1/2+y,-z
1/2-x,1/2-y,-z
1/2+x,1/2+y,-z
1/2-x,1/2+y,z
1/2+x,1/2-y,z
loop_
_atom_site_type_symbol
_atom_site_label
_atom_site_fract_x
_atom_site_fract_y
_atom_site_fract_z
Si Si1 0.555620 0.822134 0.829869
Si Si2 0.197145 0.822319 0.439856
Si Si3 0.856762 0.821499 0.228336
Si Si4 0.801685 0.822678 0.882305
Si Si5 0.611217 0.175227 0.938250
Si Si6 0.803704 0.679674 0.669785
O O1 0.500000 0.772031 0.820709
O O2 0.588273 0.728202 0.786573
O O3 0.570123 0.780228 0.893256
O O4 0.563024 0.000000 0.818582
O O5 0.170477 0.797087 0.500000
O O6 0.250000 0.750000 0.444307
O O7 0.171328 0.738635 0.387933
O O8 0.201637 0.000000 0.426450
O O9 0.821014 0.773753 0.178285
O O10 0.839718 0.730479 0.281916
O O11 0.855356 0.000000 0.240257
O O12 0.750000 0.750000 0.894480
O O13 0.839613 0.769815 0.928897
O O14 0.795477 0.000000 0.886434
O O15 0.625475 0.000000 0.931955
O O16 0.590901 0.210891 0.000000
O O17 0.798924 0.500000 0.669180
O O18 0.750000 0.750000 0.678498
#
# Coordination Sequence:
#
# PCOD8269996 Si02
#       6
#    16  16  16  16  16  16
#     4   9  18  33  52  72  93 116 143 180 228 278
#     4   9  16  26  40  59  87 124 163 198 229 262
#     4  10  20  33  48  67  91 118 152 191 229 273
#     4  10  20  32  47  65  87 118 151 185 224 265
#     4   9  18  32  49  69  92 117 146 180 218 265
#     4  11  20  29  44  66  94 127 161 195 231 270
#
# _framework density 16.515749
#
# number of rings (size 3 to 8) (size 9 to 14) (size 15 to 20)
#    0.000    2.333    0.000    4.500    0.000    5.667 
#    0.000    1.667    0.000    0.000    0.000    4.667 
#    0.000    0.667    0.000    7.000    0.000    3.000 
#
# Total GULP energy -595045.909708 kJ/mol
# GULP energy per Si atom -12396.789786 kJ/mol
# Density = 1.647816 g / cm^3
# Si number density = 16.515749 Si / 1000 Ang^3
#
#
#
# Elastic Constant Matrix: (Units=GPa)
#
#
# Indices 1 2 3 4 5 6 
#
# 1 73.2868 27.9338 33.0802 0.0000 0.0000 0.0000
# 2 27.9338 81.3927 47.2410 0.0000 0.0000 0.0000
# 3 33.0802 47.2410 121.5207 0.0000 0.0000 0.0000
# 4 0.0000 0.0000 0.0000 24.9108 0.0000 0.0000
# 5 0.0000 0.0000 0.0000 0.0000 6.9982 0.0000
# 6 0.0000 0.0000 0.0000 0.0000 0.0000 22.2840
#
#
#
# Elastic Compliance Matrix: (Units=1/GPa)
#
#
# Indices 1 2 3 4 5 6 
#
# 1 0.016481 -0.003942 -0.002954 0.000000 0.000000 0.000000
# 2 -0.003942 0.016809 -0.005461 0.000000 0.000000 0.000000
# 3 -0.002954 -0.005461 0.011156 0.000000 0.000000 0.000000
# 4 0.000000 0.000000 0.000000 0.040143 0.000000 0.000000
# 5 0.000000 0.000000 0.000000 0.000000 0.142894 0.000000
# 6 0.000000 0.000000 0.000000 0.000000 0.000000 0.044875
#
#
# Mechanical properties :
#
#
# Convention : Reuss Voigt Hill
#
# Bulk Modulus (GPa) = 50.67995 54.74559 52.71277
# Shear Modulus (GPa) = 16.46635 22.03493 19.25064
#
# Velocity S-wave (km/s) = 3.16097 3.65660 3.41778
# Velocity P-wave (km/s) = 6.63888 7.14473 6.89644
#
# Compressibility (1/GPa) = 0.01973167
#
# Stress axis : x y z
#
# Youngs Moduli (GPa) = 60.67666 59.49298 89.63534
#
# Poissons Ratio (x) = 0.23450 0.26479
# Poissons Ratio (y) = 0.23916 0.48953
# Poissons Ratio (z) = 0.17924 0.32491
#
# Static dielectric constant tensor:
#      x y z
#    x 2.789250 0.000000 0.000000 
#    y 0.000000 3.218150 0.000000 
#    z 0.000000 0.000000 3.586890 
# 
# 
# High freq. dielectric constant tensor:
#      x y z
#    x 1.592910 0.000000 0.000000 
#    y 0.000000 1.648340 0.000000 
#    z 0.000000 0.000000 1.641520 
# 
# From -- ./inp_files/65773.got.cif
#   From: 2010.03.12/outbox.cif.g09.slc.cpg/sg65_33_cif.got.tgz:65773.got - 2010.04.10 20:52:16.
