data_PCOD8269892
_publ_section_title
;
Structure prediction by ZEFSAII (Michael W. Deem and Ramdas Pophale) SiO2 
 PCOD8269892
Probable space group: C M M M
;
_chemical_formula_sum "Si O2"
_cell_formula_units_Z 96
_cell_length_a 9.097385
_cell_length_b 29.835241
_cell_length_c 25.509177
_cell_angle_alpha 90.000000
_cell_angle_beta 90.000000
_cell_angle_gamma 90.000000
_cell_volume 6923.769031
_symmetry_space_group_name_H-M "C M M M"
_symmetry_group_IT_number 65
_symmetry_cell_setting 'orthorhombic'
loop_
_space_group_symop_operation_xyz
x,y,z
-x,-y,z
x,-y,-z
-x,y,-z
-x,-y,-z
x,y,-z
-x,y,z
x,-y,z
1/2+x,1/2+y,z
1/2-x,1/2-y,z
1/2+x,1/2-y,-z
1/2-x,1/2+y,-z
1/2-x,1/2-y,-z
1/2+x,1/2+y,-z
1/2-x,1/2+y,z
1/2+x,1/2-y,z
loop_
_atom_site_type_symbol
_atom_site_label
_atom_site_fract_x
_atom_site_fract_y
_atom_site_fract_z
Si Si1 0.666280 0.206433 0.562394
Si Si2 0.829525 0.882674 0.438320
Si Si3 0.334757 0.446714 0.057672
Si Si4 0.165090 0.446485 0.842350
Si Si5 0.329980 0.947148 0.362876
Si Si6 0.665666 0.446677 0.740852
O O1 0.664956 0.208039 0.500000
O O2 0.500000 0.205595 0.584286
O O3 0.750000 0.250000 0.584789
O O4 0.752392 0.162610 0.582083
O O5 0.807851 0.888810 0.500000
O O6 0.753068 0.924954 0.411452
O O7 0.000000 0.880561 0.422870
O O8 0.500000 0.429048 0.066986
O O9 0.334391 0.500000 0.060330
O O10 0.231253 0.427144 0.103340
O O11 0.278186 0.431170 0.000000
O O12 0.167341 0.500000 0.842596
O O13 0.259536 0.427879 0.793665
O O14 0.000000 0.428319 0.836709
O O15 0.500000 0.933185 0.362995
O O16 0.258344 0.929694 0.308882
O O17 0.309967 0.000000 0.369204
O O18 0.500000 0.427885 0.737143
O O19 0.664794 0.500000 0.742293
#
# Coordination Sequence:
#
# PCOD8269892 Si02
#       6
#    16  16  16  16  16  16
#     4   9  16  27  44  64  84 103 122 145 175 212
#     4  10  20  32  45  61  80 101 125 151 181 221
#     4   8  13  20  28  38  54  76 100 126 160 204
#     4   9  15  21  30  44  60  77 100 132 169 208
#     4  10  20  32  44  57  74  96 123 156 192 227
#     4   9  16  26  39  51  63  82 110 143 178 215
#
# _framework density 13.865281
#
# number of rings (size 3 to 8) (size 9 to 14) (size 15 to 20)
#    0.000    2.833    0.000    3.000    0.000    8.667 
#    0.000    3.333    0.000    0.000    0.000    0.000 
#    0.000    0.000    0.000    0.000    0.000    0.000 
#
# Total GULP energy -595065.017669 kJ/mol
# GULP energy per Si atom -12397.187868 kJ/mol
# Density = 1.383372 g / cm^3
# Si number density = 13.865281 Si / 1000 Ang^3
#
#
#
# Elastic Constant Matrix: (Units=GPa)
#
#
# Indices 1 2 3 4 5 6 
#
# 1 134.3965 30.9177 56.1687 0.0000 0.0000 0.0000
# 2 30.9177 27.9463 25.6526 0.0000 0.0000 0.0000
# 3 56.1687 25.6526 71.9359 0.0000 0.0000 0.0000
# 4 0.0000 0.0000 0.0000 0.5698 0.0000 0.0000
# 5 0.0000 0.0000 0.0000 0.0000 26.1379 0.0000
# 6 0.0000 0.0000 0.0000 0.0000 0.0000 16.9177
#
#
#
# Elastic Compliance Matrix: (Units=1/GPa)
#
#
# Indices 1 2 3 4 5 6 
#
# 1 0.011872 -0.006876 -0.006818 0.000000 0.000000 0.000000
# 2 -0.006876 0.057178 -0.015021 0.000000 0.000000 0.000000
# 3 -0.006818 -0.015021 0.024581 0.000000 0.000000 0.000000
# 4 0.000000 0.000000 0.000000 1.755046 0.000000 0.000000
# 5 0.000000 0.000000 0.000000 0.000000 0.038259 0.000000
# 6 0.000000 0.000000 0.000000 0.000000 0.000000 0.059110
#
#
# Mechanical properties :
#
#
# Convention : Reuss Voigt Hill
#
# Bulk Modulus (GPa) = 27.62297 51.08406 39.35351
# Shear Modulus (GPa) = 2.48072 16.82772 9.65422
#
# Velocity S-wave (km/s) = 1.33905 3.48754 2.64159
# Velocity P-wave (km/s) = 4.72825 7.28974 6.14397
#
# Compressibility (1/GPa) = 0.03620176
#
# Stress axis : x y z
#
# Youngs Moduli (GPa) = 84.23314 17.48917 40.68142
#
# Poissons Ratio (x) = 0.12025 0.27735
# Poissons Ratio (y) = 0.57918 0.61108
# Poissons Ratio (z) = 0.57428 0.26271
#
# Static dielectric constant tensor:
#      x y z
#    x 2.991280 0.000000 0.000000 
#    y 0.000000 2.269700 0.000000 
#    z 0.000000 0.000000 2.787190 
# 
# 
# High freq. dielectric constant tensor:
#      x y z
#    x 1.550620 0.000000 0.000000 
#    y 0.000000 1.456420 0.000000 
#    z 0.000000 0.000000 1.519770 
# 
# From -- ./inp_files/68073.got.cif
#   From: 2010.03.12/outbox.cif.g09.slc.cpg/sg65_35_cif.got.tgz:68073.got - 2010.04.10 20:52:16.
