data_PCOD8269700
_publ_section_title
;
Structure prediction by ZEFSAII (Michael W. Deem and Ramdas Pophale) SiO2 
 PCOD8269700
Probable space group: C M M M
;
_chemical_formula_sum "Si O2"
_cell_formula_units_Z 84
_cell_length_a 30.646308
_cell_length_b 11.426702
_cell_length_c 11.761341
_cell_angle_alpha 90.000000
_cell_angle_beta 90.000000
_cell_angle_gamma 90.000000
_cell_volume 4118.659652
_symmetry_space_group_name_H-M "C M M M"
_symmetry_group_IT_number 65
_symmetry_cell_setting 'orthorhombic'
loop_
_space_group_symop_operation_xyz
x,y,z
-x,-y,z
x,-y,-z
-x,y,-z
-x,-y,-z
x,y,-z
-x,y,z
x,-y,z
1/2+x,1/2+y,z
1/2-x,1/2-y,z
1/2+x,1/2-y,-z
1/2-x,1/2+y,-z
1/2-x,1/2-y,-z
1/2+x,1/2+y,-z
1/2-x,1/2+y,z
1/2+x,1/2-y,z
loop_
_atom_site_type_symbol
_atom_site_label
_atom_site_fract_x
_atom_site_fract_y
_atom_site_fract_z
Si Si1 0.881046 0.862181 0.731555
Si Si2 0.409962 0.000000 0.500000
Si Si3 0.298098 0.799508 0.254017
Si Si4 0.203845 0.306334 0.500000
Si Si5 0.884063 0.763770 0.500000
Si Si6 0.161358 0.500000 0.130005
Si Si7 0.429968 0.000000 0.751655
Si Si8 0.951618 0.735593 0.869975
O O1 0.833906 0.803911 0.749911
O O2 0.904495 0.818770 0.613928
O O3 0.914975 0.826331 0.829247
O O4 0.874397 0.000000 0.731606
O O5 0.382541 0.120983 0.500000
O O6 0.438260 0.000000 0.384487
O O7 0.250000 0.750000 0.231832
O O8 0.300559 0.870091 0.376522
O O9 0.308933 0.887118 0.152260
O O10 0.250000 0.250000 0.500000
O O11 0.167428 0.202809 0.500000
O O12 0.121218 0.500000 0.217688
O O13 0.144985 0.500000 0.000000
O O14 0.451957 0.884729 0.800623
O O15 0.000000 0.791774 0.857451
O O16 0.940967 0.705077 0.000000
#
# Coordination Sequence:
#
# PCOD8269700 Si02
#       8
#    16   4  16   8   8   8   8  16
#     4  11  23  40  64  92 129 172 214 263 319 380
#     4  12  20  36  71 100 120 162 202 258 322 386
#     4  10  22  39  63  92 128 164 215 263 317 381
#     4   8  16  33  55  87 118 154 197 254 308 357
#     4  10  19  38  61  90 130 163 205 261 324 384
#     4  12  24  39  63  89 125 172 212 266 323 375
#     4  12  21  41  67  99 131 158 204 263 332 384
#     4  11  24  43  67  94 125 165 214 266 320 379
#
# _framework density 20.394984999999998
#
# number of rings (size 3 to 8) (size 9 to 14) (size 15 to 20)
#    0.000    1.333    3.810    2.571    1.333    2.286 
#    0.000    3.333    2.095    1.143    0.000    0.000 
#    0.000    0.000    0.000    0.000    0.000    0.000 
#
# Total GULP energy -520343.556115 kJ/mol
# GULP energy per Si atom -12389.132288 kJ/mol
# Density = 2.034856 g / cm^3
# Si number density = 20.394985 Si / 1000 Ang^3
#
#
#
# Elastic Constant Matrix: (Units=GPa)
#
#
# Indices 1 2 3 4 5 6 
#
# 1 113.5749 38.5214 45.0061 0.0000 0.0000 0.0000
# 2 38.5214 138.8555 42.4455 0.0000 0.0000 0.0000
# 3 45.0061 42.4455 142.2939 0.0000 0.0000 0.0000
# 4 0.0000 0.0000 0.0000 26.2342 0.0000 0.0000
# 5 0.0000 0.0000 0.0000 0.0000 26.5723 0.0000
# 6 0.0000 0.0000 0.0000 0.0000 0.0000 45.8876
#
#
#
# Elastic Compliance Matrix: (Units=1/GPa)
#
#
# Indices 1 2 3 4 5 6 
#
# 1 0.010599 -0.002108 -0.002724 0.000000 0.000000 0.000000
# 2 -0.002108 0.008343 -0.001822 0.000000 0.000000 0.000000
# 3 -0.002724 -0.001822 0.008433 0.000000 0.000000 0.000000
# 4 0.000000 0.000000 0.000000 0.038118 0.000000 0.000000
# 5 0.000000 0.000000 0.000000 0.000000 0.037633 0.000000
# 6 0.000000 0.000000 0.000000 0.000000 0.000000 0.021792
#
#
# Mechanical properties :
#
#
# Convention : Reuss Voigt Hill
#
# Bulk Modulus (GPa) = 71.08319 71.85228 71.46773
# Shear Modulus (GPa) = 34.98579 37.65558 36.32069
#
# Velocity S-wave (km/s) = 4.14625 4.30154 4.22461
# Velocity P-wave (km/s) = 7.60597 7.74454 7.67556
#
# Compressibility (1/GPa) = 0.01406802
#
# Stress axis : x y z
#
# Youngs Moduli (GPa) = 94.34902 119.85408 118.58619
#
# Poissons Ratio (x) = 0.25263 0.32298
# Poissons Ratio (y) = 0.19887 0.21608
# Poissons Ratio (z) = 0.25697 0.21839
#
# Static dielectric constant tensor:
#      x y z
#    x 3.694410 0.000000 0.000000 
#    y 0.000000 3.368530 0.000000 
#    z 0.000000 0.000000 4.112540 
# 
# 
# High freq. dielectric constant tensor:
#      x y z
#    x 1.795340 0.000000 0.000000 
#    y 0.000000 1.771110 0.000000 
#    z 0.000000 0.000000 1.811010 
# 
# From -- ./inp_files/23072.got.cif
#   From: 2010.03.12/outbox.cif.g09.slc.cpg/sg65_12_cif.got.tgz:23072.got - 2010.04.10 20:52:16.
