data_PCOD8269894
_publ_section_title
;
Structure prediction by ZEFSAII (Michael W. Deem and Ramdas Pophale) SiO2 
 PCOD8269894
Probable space group: C M M M
;
_chemical_formula_sum "Si O2"
_cell_formula_units_Z 88
_cell_length_a 9.019127
_cell_length_b 29.981689
_cell_length_c 22.877571
_cell_angle_alpha 90.000000
_cell_angle_beta 90.000000
_cell_angle_gamma 90.000000
_cell_volume 6186.293336
_symmetry_space_group_name_H-M "C M M M"
_symmetry_group_IT_number 65
_symmetry_cell_setting 'orthorhombic'
loop_
_space_group_symop_operation_xyz
x,y,z
-x,-y,z
x,-y,-z
-x,y,-z
-x,-y,-z
x,y,-z
-x,y,z
x,-y,z
1/2+x,1/2+y,z
1/2-x,1/2-y,z
1/2+x,1/2-y,-z
1/2-x,1/2+y,-z
1/2-x,1/2-y,-z
1/2+x,1/2+y,-z
1/2-x,1/2+y,z
1/2+x,1/2-y,z
loop_
_atom_site_type_symbol
_atom_site_label
_atom_site_fract_x
_atom_site_fract_y
_atom_site_fract_z
Si Si1 0.667431 0.446834 0.500000
Si Si2 0.828044 0.552433 0.153718
Si Si3 0.832478 0.446802 0.385029
Si Si4 0.332676 0.446924 0.729554
Si Si5 0.167426 0.706389 0.930418
Si Si6 0.172132 0.882798 0.931361
O O1 0.667954 0.500000 0.500000
O O2 0.500000 0.428532 0.500000
O O3 0.750631 0.428490 0.442682
O O4 0.803548 0.500000 0.146101
O O5 0.755379 0.570033 0.213691
O O6 0.749056 0.575400 0.099162
O O7 0.000000 0.565209 0.154776
O O8 0.831793 0.500000 0.384765
O O9 0.747935 0.428063 0.328136
O O10 0.000000 0.428586 0.384578
O O11 0.500000 0.428325 0.731597
O O12 0.332874 0.500000 0.727692
O O13 0.250000 0.750000 0.905275
O O14 0.253865 0.662756 0.908325
O O15 0.000000 0.705313 0.906085
O O16 0.167182 0.707990 0.000000
O O17 0.000000 0.881350 0.915042
O O18 0.197484 0.888913 0.000000
#
# Coordination Sequence:
#
# PCOD8269894 Si02
#       6
#     8  16  16  16  16  16
#     4   9  15  21  29  43  63  85 109 139 178 221
#     4  10  20  32  44  57  74  98 129 164 200 236
#     4   9  15  22  32  46  64  85 110 142 181 222
#     4   9  16  26  39  52  66  87 117 152 188 225
#     4   9  16  27  44  64  84 103 122 146 180 224
#     4  10  20  32  45  61  80 101 126 157 194 235
#
# _framework density 14.224997
#
# number of rings (size 3 to 8) (size 9 to 14) (size 15 to 20)
#    0.000    2.636    0.000    3.000    0.000   10.182 
#    0.000    1.818    0.000    0.000    0.000    0.000 
#    0.000    0.000    0.000    0.000    0.000    0.000 
#
# Total GULP energy -545594.933531 kJ/mol
# GULP energy per Si atom -12399.884853 kJ/mol
# Density = 1.419262 g / cm^3
# Si number density = 14.224997 Si / 1000 Ang^3
#
#
#
# Elastic Constant Matrix: (Units=GPa)
#
#
# Indices 1 2 3 4 5 6 
#
# 1 152.0668 37.1865 59.5003 0.0000 0.0000 0.0000
# 2 37.1865 33.9571 30.5232 0.0000 0.0000 0.0000
# 3 59.5003 30.5232 72.3331 0.0000 0.0000 0.0000
# 4 0.0000 0.0000 0.0000 0.6668 0.0000 0.0000
# 5 0.0000 0.0000 0.0000 0.0000 28.7522 0.0000
# 6 0.0000 0.0000 0.0000 0.0000 0.0000 18.8948
#
#
#
# Elastic Compliance Matrix: (Units=1/GPa)
#
#
# Indices 1 2 3 4 5 6 
#
# 1 0.010395 -0.005957 -0.006037 0.000000 0.000000 0.000000
# 2 -0.005957 0.050859 -0.016561 0.000000 0.000000 0.000000
# 3 -0.006037 -0.016561 0.025780 0.000000 0.000000 0.000000
# 4 0.000000 0.000000 0.000000 1.499726 0.000000 0.000000
# 5 0.000000 0.000000 0.000000 0.000000 0.034780 0.000000
# 6 0.000000 0.000000 0.000000 0.000000 0.000000 0.052925
#
#
# Mechanical properties :
#
#
# Convention : Reuss Voigt Hill
#
# Bulk Modulus (GPa) = 33.41949 56.97524 45.19736
# Shear Modulus (GPa) = 2.87101 18.40589 10.63845
#
# Velocity S-wave (km/s) = 1.42220 3.60100 2.73769
# Velocity P-wave (km/s) = 5.12263 7.57822 6.46803
#
# Compressibility (1/GPa) = 0.02992266
#
# Stress axis : x y z
#
# Youngs Moduli (GPa) = 96.20084 19.66215 38.79049
#
# Poissons Ratio (x) = 0.11713 0.23418
# Poissons Ratio (y) = 0.57307 0.64243
# Poissons Ratio (z) = 0.58076 0.32563
#
# Static dielectric constant tensor:
#      x y z
#    x 3.059410 0.000000 0.000000 
#    y 0.000000 2.361200 0.000000 
#    z 0.000000 0.000000 2.749900 
# 
# 
# High freq. dielectric constant tensor:
#      x y z
#    x 1.569830 0.000000 0.000000 
#    y 0.000000 1.477320 0.000000 
#    z 0.000000 0.000000 1.530010 
# 
# From -- ./inp_files/60279.got.cif
#   From: 2010.03.12/outbox.cif.g09.slc.cpg/sg65_31_cif.got.tgz:60279.got - 2010.04.10 20:52:16.
