data_PCOD8269890
_publ_section_title
;
Structure prediction by ZEFSAII (Michael W. Deem and Ramdas Pophale) SiO2 
 PCOD8269890
Probable space group: C M M M
;
_chemical_formula_sum "Si O2"
_cell_formula_units_Z 80
_cell_length_a 9.100698
_cell_length_b 29.854473
_cell_length_c 20.273148
_cell_angle_alpha 90.000000
_cell_angle_beta 90.000000
_cell_angle_gamma 90.000000
_cell_volume 5508.144222
_symmetry_space_group_name_H-M "C M M M"
_symmetry_group_IT_number 65
_symmetry_cell_setting 'orthorhombic'
loop_
_space_group_symop_operation_xyz
x,y,z
-x,-y,z
x,-y,-z
-x,y,-z
-x,-y,-z
x,y,-z
-x,y,z
x,-y,z
1/2+x,1/2+y,z
1/2-x,1/2-y,z
1/2+x,1/2-y,-z
1/2-x,1/2+y,-z
1/2-x,1/2-y,-z
1/2+x,1/2+y,-z
1/2-x,1/2+y,z
1/2+x,1/2-y,z
loop_
_atom_site_type_symbol
_atom_site_label
_atom_site_fract_x
_atom_site_fract_y
_atom_site_fract_z
Si Si1 0.669699 0.052802 0.327899
Si Si2 0.833827 0.706499 0.421484
Si Si3 0.164644 0.946669 0.197948
Si Si4 0.170583 0.882494 0.422499
Si Si5 0.834825 0.553265 0.927368
O O1 0.500000 0.066870 0.329950
O O2 0.737082 0.069991 0.258930
O O3 0.755836 0.075045 0.388057
O O4 0.690221 0.000000 0.335917
O O5 0.834738 0.708089 0.500000
O O6 0.750000 0.750000 0.393264
O O7 0.748537 0.662579 0.396651
O O8 0.000000 0.705822 0.393979
O O9 0.230812 0.926897 0.129818
O O10 0.000000 0.927961 0.206415
O O11 0.164335 0.000000 0.195343
O O12 0.193998 0.888875 0.500000
O O13 0.000000 0.879694 0.403851
O O14 0.835015 0.500000 0.923599
O O15 0.000000 0.571015 0.915736
O O16 0.778243 0.568584 0.000000
#
# Coordination Sequence:
#
# PCOD8269890 Si02
#       5
#    16  16  16  16  16
#     4  10  20  32  44  56  73 101 136 171 205 241
#     4   9  16  27  44  64  84 103 123 150 188 235
#     4   9  16  25  37  52  70  93 123 159 196 233
#     4  10  20  32  45  61  80 101 128 164 204 243
#     4   8  13  21  33  49  69  92 118 150 188 228
#
# _framework density 14.523948000000001
#
# number of rings (size 3 to 8) (size 9 to 14) (size 15 to 20)
#    0.000    2.800    0.000    3.000    0.000    8.000 
#    0.000    4.000    0.000    0.000    0.000    0.000 
#    0.000    0.000    0.000    0.000    0.000    1.000 
#
# Total GULP energy -495895.262093 kJ/mol
# GULP energy per Si atom -12397.381552 kJ/mol
# Density = 1.449089 g / cm^3
# Si number density = 14.523948 Si / 1000 Ang^3
#
#
#
# Elastic Constant Matrix: (Units=GPa)
#
#
# Indices 1 2 3 4 5 6 
#
# 1 133.7239 37.6089 54.5942 0.0000 0.0000 0.0000
# 2 37.6089 37.2059 29.3869 0.0000 0.0000 0.0000
# 3 54.5942 29.3869 66.0756 0.0000 0.0000 0.0000
# 4 0.0000 0.0000 0.0000 0.8224 0.0000 0.0000
# 5 0.0000 0.0000 0.0000 0.0000 25.5442 0.0000
# 6 0.0000 0.0000 0.0000 0.0000 0.0000 21.3287
#
#
#
# Elastic Compliance Matrix: (Units=1/GPa)
#
#
# Indices 1 2 3 4 5 6 
#
# 1 0.012307 -0.006796 -0.007146 0.000000 0.000000 0.000000
# 2 -0.006796 0.045184 -0.014481 0.000000 0.000000 0.000000
# 3 -0.007146 -0.014481 0.027478 0.000000 0.000000 0.000000
# 4 0.000000 0.000000 0.000000 1.215894 0.000000 0.000000
# 5 0.000000 0.000000 0.000000 0.000000 0.039148 0.000000
# 6 0.000000 0.000000 0.000000 0.000000 0.000000 0.046885
#
#
# Mechanical properties :
#
#
# Convention : Reuss Voigt Hill
#
# Bulk Modulus (GPa) = 35.55551 53.35393 44.45472
# Shear Modulus (GPa) = 3.44088 17.23345 10.33717
#
# Velocity S-wave (km/s) = 1.54086 3.44838 2.67073
# Velocity P-wave (km/s) = 5.26302 7.25741 6.33914
#
# Compressibility (1/GPa) = 0.02812504
#
# Stress axis : x y z
#
# Youngs Moduli (GPa) = 81.25608 22.13150 36.39210
#
# Poissons Ratio (x) = 0.15041 0.26005
# Poissons Ratio (y) = 0.55221 0.52698
# Poissons Ratio (z) = 0.58064 0.32048
#
# Static dielectric constant tensor:
#      x y z
#    x 3.083410 0.000000 0.000000 
#    y 0.000000 2.466760 0.000000 
#    z 0.000000 0.000000 2.818030 
# 
# 
# High freq. dielectric constant tensor:
#      x y z
#    x 1.575610 0.000000 0.000000 
#    y 0.000000 1.499020 0.000000 
#    z 0.000000 0.000000 1.537860 
# 
# From -- ./inp_files/49874.got.cif
#   From: 2010.03.12/outbox.cif.g09.slc.cpg/sg65_25_cif.got.tgz:49874.got - 2010.04.10 20:52:16.
