data_PCOD8269015
_publ_section_title
;
Structure prediction by ZEFSAII (Michael W. Deem and Ramdas Pophale) SiO2 
 PCOD8269015
Probable space group: C M M M
;
_chemical_formula_sum "Si O2"
_cell_formula_units_Z 120
_cell_length_a 27.060934
_cell_length_b 19.467158
_cell_length_c 12.793563
_cell_angle_alpha 90.000000
_cell_angle_beta 90.000000
_cell_angle_gamma 90.000000
_cell_volume 6739.642308
_symmetry_space_group_name_H-M "C M M M"
_symmetry_group_IT_number 65
_symmetry_cell_setting 'orthorhombic'
loop_
_space_group_symop_operation_xyz
x,y,z
-x,-y,z
x,-y,-z
-x,y,-z
-x,-y,-z
x,y,-z
-x,y,z
x,-y,z
1/2+x,1/2+y,z
1/2-x,1/2-y,z
1/2+x,1/2-y,-z
1/2-x,1/2+y,-z
1/2-x,1/2-y,-z
1/2+x,1/2+y,-z
1/2-x,1/2+y,z
1/2+x,1/2-y,z
loop_
_atom_site_type_symbol
_atom_site_label
_atom_site_fract_x
_atom_site_fract_y
_atom_site_fract_z
Si Si1 0.942347 0.500000 0.616187
Si Si2 0.723377 0.919008 0.295564
Si Si3 0.444063 0.143678 0.304086
Si Si4 0.056210 0.737863 0.880694
Si Si5 0.168631 0.077772 0.380392
Si Si6 0.153155 0.692370 0.382443
Si Si7 0.358076 0.687915 0.768043
Si Si8 0.262155 0.672001 0.880181
O O1 0.916954 0.500000 0.500000
O O2 0.927346 0.435103 0.686216
O O3 0.000000 0.500000 0.596276
O O4 0.773638 0.907236 0.359835
O O5 0.679329 0.880083 0.355952
O O6 0.729241 0.883171 0.182648
O O7 0.710388 0.000000 0.284730
O O8 0.500000 0.156218 0.344984
O O9 0.439062 0.166180 0.182594
O O10 0.406502 0.186090 0.376571
O O11 0.090880 0.793784 0.825090
O O12 0.000000 0.765567 0.876399
O O13 0.073048 0.724514 0.000000
O O14 0.157033 0.093757 0.500000
O O15 0.132567 0.125285 0.311584
O O16 0.155872 0.000000 0.350557
O O17 0.167547 0.715091 0.500000
O O18 0.167793 0.750540 0.298480
O O19 0.320093 0.662167 0.856195
O O20 0.250000 0.750000 0.849991
O O21 0.250920 0.656210 0.000000
#
# Coordination Sequence:
#
# PCOD8269015 Si02
#       8
#     8  16  16  16  16  16  16  16
#     4   9  16  28  45  63  89 127 168 212 257 295
#     4  10  21  35  48  72 105 135 170 211 255 303
#     4   9  19  33  47  68  97 130 174 218 257 302
#     4   9  18  34  55  76 100 130 164 209 261 305
#     4   9  18  33  53  75 104 139 167 198 247 305
#     4  11  21  31  48  73 101 136 173 212 255 298
#     4  10  19  33  53  80 103 130 169 213 246 300
#     4  10  19  34  54  73  96 130 167 207 256 302
#
# _framework density 17.805099999999999
#
# number of rings (size 3 to 8) (size 9 to 14) (size 15 to 20)
#    0.000    2.333    1.333    1.600    0.933    1.867 
#    0.000    2.333    0.000    4.800    0.000    1.867 
#    0.000    0.000    0.000    0.000    0.000    0.000 
#
# Total GULP energy -743698.550543 kJ/mol
# GULP energy per Si atom -12394.975842 kJ/mol
# Density = 1.776457 g / cm^3
# Si number density = 17.805100 Si / 1000 Ang^3
#
#
#
# Elastic Constant Matrix: (Units=GPa)
#
#
# Indices 1 2 3 4 5 6 
#
# 1 57.2340 23.5449 40.9338 0.0000 0.0000 0.0000
# 2 23.5449 87.7235 50.0478 0.0000 0.0000 0.0000
# 3 40.9338 50.0478 105.9146 0.0000 0.0000 0.0000
# 4 0.0000 0.0000 0.0000 26.6355 0.0000 0.0000
# 5 0.0000 0.0000 0.0000 0.0000 20.0507 0.0000
# 6 0.0000 0.0000 0.0000 0.0000 0.0000 23.0521
#
#
#
# Elastic Compliance Matrix: (Units=1/GPa)
#
#
# Indices 1 2 3 4 5 6 
#
# 1 0.024308 -0.001594 -0.008641 0.000000 0.000000 0.000000
# 2 -0.001594 0.015711 -0.006808 0.000000 0.000000 0.000000
# 3 -0.008641 -0.006808 0.015998 0.000000 0.000000 0.000000
# 4 0.000000 0.000000 0.000000 0.037544 0.000000 0.000000
# 5 0.000000 0.000000 0.000000 0.000000 0.049874 0.000000
# 6 0.000000 0.000000 0.000000 0.000000 0.000000 0.043380
#
#
# Mechanical properties :
#
#
# Convention : Reuss Voigt Hill
#
# Bulk Modulus (GPa) = 45.59797 53.32501 49.46149
# Shear Modulus (GPa) = 21.90939 23.03737 22.47338
#
# Velocity S-wave (km/s) = 3.51167 3.60093 3.55658
# Velocity P-wave (km/s) = 6.48903 6.87774 6.68621
#
# Compressibility (1/GPa) = 0.02193080
#
# Stress axis : x y z
#
# Youngs Moduli (GPa) = 41.13836 63.64796 62.50699
#
# Poissons Ratio (x) = 0.10147 0.54014
# Poissons Ratio (y) = 0.06559 0.42555
# Poissons Ratio (z) = 0.35549 0.43331
#
# Static dielectric constant tensor:
#      x y z
#    x 3.152630 0.000000 0.000000 
#    y 0.000000 3.361040 0.000000 
#    z 0.000000 0.000000 3.334490 
# 
# 
# High freq. dielectric constant tensor:
#      x y z
#    x 1.674610 0.000000 0.000000 
#    y 0.000000 1.677080 0.000000 
#    z 0.000000 0.000000 1.691530 
# 
# From -- ./inp_files/34274.got.cif
#   From: 2010.03.12/outbox.cif.g09.slc.cpg/sg65_18_cif.got.tgz:34274.got - 2010.04.10 20:52:16.
