data_PCOD8269637
_publ_section_title
;
Structure prediction by ZEFSAII (Michael W. Deem and Ramdas Pophale) SiO2 
 PCOD8269637
Probable space group: C M M M
;
_chemical_formula_sum "Si O2"
_cell_formula_units_Z 64
_cell_length_a 30.584009
_cell_length_b 8.713856
_cell_length_c 11.830920
_cell_angle_alpha 90.000000
_cell_angle_beta 90.000000
_cell_angle_gamma 90.000000
_cell_volume 3152.995198
_symmetry_space_group_name_H-M "C M M M"
_symmetry_group_IT_number 65
_symmetry_cell_setting 'orthorhombic'
loop_
_space_group_symop_operation_xyz
x,y,z
-x,-y,z
x,-y,-z
-x,y,-z
-x,-y,-z
x,y,-z
-x,y,z
x,-y,z
1/2+x,1/2+y,z
1/2-x,1/2-y,z
1/2+x,1/2-y,-z
1/2-x,1/2+y,-z
1/2-x,1/2-y,-z
1/2+x,1/2+y,-z
1/2-x,1/2+y,z
1/2+x,1/2-y,z
loop_
_atom_site_type_symbol
_atom_site_label
_atom_site_fract_x
_atom_site_fract_y
_atom_site_fract_z
Si Si1 0.678070 0.179817 0.000000
Si Si2 0.450317 0.676697 0.758130
Si Si3 0.414048 0.675076 0.000000
Si Si4 0.872439 0.322537 0.368645
Si Si5 0.205658 0.819404 0.233347
O O1 0.626508 0.210298 0.000000
O O2 0.700260 0.252408 0.108890
O O3 0.686792 0.000000 0.000000
O O4 0.500000 0.719138 0.727475
O O5 0.440091 0.500000 0.729058
O O6 0.419371 0.783762 0.683853
O O7 0.443477 0.707589 0.890885
O O8 0.396230 0.500000 0.000000
O O9 0.873704 0.282372 0.500000
O O10 0.861888 0.500000 0.346223
O O11 0.835227 0.221344 0.311307
O O12 0.250000 0.750000 0.287208
O O13 0.209791 0.000000 0.225913
#
# Coordination Sequence:
#
# PCOD8269637 Si02
#       5
#     8  16   8  16  16
#     4  12  23  38  63  96 132 166 203 250 308 372
#     4  10  21  38  63  94 128 166 209 257 311 374
#     4  10  19  35  61  93 127 166 204 250 310 373
#     4  11  25  44  64  89 124 166 212 263 316 370
#     4  12  25  43  67  95 127 164 206 255 311 372
#
# _framework density 20.298161
#
# number of rings (size 3 to 8) (size 9 to 14) (size 15 to 20)
#    0.000    1.000    2.500    4.875    0.000    5.000 
#    0.000    2.500    0.000    2.250    0.000    0.000 
#    0.000    0.000    0.000    0.000    0.000    0.000 
#
# Total GULP energy -397010.716445 kJ/mol
# GULP energy per Si atom -12406.584889 kJ/mol
# Density = 2.025196 g / cm^3
# Si number density = 20.298161 Si / 1000 Ang^3
#
#
#
# Elastic Constant Matrix: (Units=GPa)
#
#
# Indices 1 2 3 4 5 6 
#
# 1 133.4290 49.2461 43.9849 0.0000 0.0000 0.0000
# 2 49.2461 136.2242 56.6416 0.0000 0.0000 0.0000
# 3 43.9849 56.6416 117.5492 0.0000 0.0000 0.0000
# 4 0.0000 0.0000 0.0000 72.1817 0.0000 0.0000
# 5 0.0000 0.0000 0.0000 0.0000 5.4593 0.0000
# 6 0.0000 0.0000 0.0000 0.0000 0.0000 38.6084
#
#
#
# Elastic Compliance Matrix: (Units=1/GPa)
#
#
# Indices 1 2 3 4 5 6 
#
# 1 0.009112 -0.002346 -0.002279 0.000000 0.000000 0.000000
# 2 -0.002346 0.009784 -0.003837 0.000000 0.000000 0.000000
# 3 -0.002279 -0.003837 0.011208 0.000000 0.000000 0.000000
# 4 0.000000 0.000000 0.000000 0.013854 0.000000 0.000000
# 5 0.000000 0.000000 0.000000 0.000000 0.183173 0.000000
# 6 0.000000 0.000000 0.000000 0.000000 0.000000 0.025901
#
#
# Mechanical properties :
#
#
# Convention : Reuss Voigt Hill
#
# Bulk Modulus (GPa) = 75.86783 76.32751 76.09767
# Shear Modulus (GPa) = 18.22490 39.07187 28.64839
#
# Velocity S-wave (km/s) = 2.99968 4.39212 3.76091
# Velocity P-wave (km/s) = 7.03245 7.96278 7.51203
#
# Compressibility (1/GPa) = 0.01318082
#
# Stress axis : x y z
#
# Youngs Moduli (GPa) = 109.74679 102.20384 89.21822
#
# Poissons Ratio (x) = 0.23982 0.20331
# Poissons Ratio (y) = 0.25752 0.34230
# Poissons Ratio (z) = 0.25010 0.39212
#
# Static dielectric constant tensor:
#      x y z
#    x 3.846010 0.000000 0.000000 
#    y 0.000000 3.718020 0.000000 
#    z 0.000000 0.000000 3.698780 
# 
# 
# High freq. dielectric constant tensor:
#      x y z
#    x 1.807320 0.000000 0.000000 
#    y 0.000000 1.797150 0.000000 
#    z 0.000000 0.000000 1.791440 
# 
# From -- ./inp_files/20973.got.cif
#   From: 2010.03.12/outbox.cif.g09.slc.cpg/sg65_11_cif.got.tgz:20973.got - 2010.04.10 20:52:16.
