data_PCOD8269479
_publ_section_title
;
Structure prediction by ZEFSAII (Michael W. Deem and Ramdas Pophale) SiO2 
 PCOD8269479
Probable space group: C M M M
;
_chemical_formula_sum "Si O2"
_cell_formula_units_Z 104
_cell_length_a 9.079445
_cell_length_b 30.111047
_cell_length_c 20.395831
_cell_angle_alpha 90.000000
_cell_angle_beta 90.000000
_cell_angle_gamma 90.000000
_cell_volume 5576.048771
_symmetry_space_group_name_H-M "C M M M"
_symmetry_group_IT_number 65
_symmetry_cell_setting 'orthorhombic'
loop_
_space_group_symop_operation_xyz
x,y,z
-x,-y,z
x,-y,-z
-x,y,-z
-x,-y,-z
x,y,-z
-x,y,z
x,-y,z
1/2+x,1/2+y,z
1/2-x,1/2-y,z
1/2+x,1/2-y,-z
1/2-x,1/2+y,-z
1/2-x,1/2-y,-z
1/2+x,1/2+y,-z
1/2-x,1/2+y,z
1/2+x,1/2-y,z
loop_
_atom_site_type_symbol
_atom_site_label
_atom_site_fract_x
_atom_site_fract_y
_atom_site_fract_z
Si Si1 0.171948 0.913542 0.927300
Si Si2 0.326553 0.617326 0.209698
Si Si3 0.334909 0.707385 0.595427
Si Si4 0.824851 0.948323 0.320509
Si Si5 0.170685 0.385474 0.425019
Si Si6 0.162038 0.790623 0.748548
Si Si7 0.839528 0.500000 0.923084
O O1 0.212485 0.880772 0.868014
O O2 0.248332 0.957712 0.901665
O O3 0.000000 0.923308 0.931077
O O4 0.227398 0.897468 0.000000
O O5 0.500000 0.618454 0.220395
O O6 0.270765 0.574989 0.252151
O O7 0.255958 0.662664 0.237405
O O8 0.500000 0.703964 0.565276
O O9 0.250000 0.750000 0.564297
O O10 0.247227 0.662369 0.581268
O O11 0.349596 0.715913 0.671825
O O12 0.748976 0.922725 0.380680
O O13 0.000000 0.944572 0.329651
O O14 0.775342 0.000000 0.318969
O O15 0.183896 0.401751 0.500000
O O16 0.000000 0.380812 0.403971
O O17 0.250000 0.750000 0.781189
O O18 0.000000 0.790402 0.780815
O O19 0.000000 0.500000 0.888898
O O20 0.860003 0.500000 0.000000
#
# Coordination Sequence:
#
# PCOD8269479 Si02
#       7
#    16  16  16  16  16  16   8
#     4   9  17  29  49  75 101 136 180 218 256 309
#     4   9  17  32  54  79 107 136 171 219 267 309
#     4  10  19  34  57  83 111 141 175 217 267 323
#     4  10  21  38  59  80 103 138 182 226 271 318
#     4  11  24  40  57  78 108 144 179 220 270 320
#     4   9  17  31  52  77 104 134 168 211 262 311
#     4   9  17  29  43  63  99 139 170 207 256 307
#
# _framework density 18.651201
#
# number of rings (size 3 to 8) (size 9 to 14) (size 15 to 20)
#    0.000    2.385    1.538    1.154    1.077    3.692 
#    0.000    3.077    0.000    0.462    0.000    0.000 
#    0.000    0.000    0.000    0.000    0.000    0.000 
#
# Total GULP energy -644225.315605 kJ/mol
# GULP energy per Si atom -12388.948377 kJ/mol
# Density = 1.860875 g / cm^3
# Si number density = 18.651201 Si / 1000 Ang^3
#
#
#
# Elastic Constant Matrix: (Units=GPa)
#
#
# Indices 1 2 3 4 5 6 
#
# 1 63.9117 41.8525 32.4524 0.0000 0.0000 0.0000
# 2 41.8525 155.0767 54.5707 0.0000 0.0000 0.0000
# 3 32.4524 54.5707 90.5076 0.0000 0.0000 0.0000
# 4 0.0000 0.0000 0.0000 67.6510 0.0000 0.0000
# 5 0.0000 0.0000 0.0000 0.0000 13.0822 0.0000
# 6 0.0000 0.0000 0.0000 0.0000 0.0000 20.4419
#
#
#
# Elastic Compliance Matrix: (Units=1/GPa)
#
#
# Indices 1 2 3 4 5 6 
#
# 1 0.020742 -0.003784 -0.005156 0.000000 0.000000 0.000000
# 2 -0.003784 0.008875 -0.003995 0.000000 0.000000 0.000000
# 3 -0.005156 -0.003995 0.015306 0.000000 0.000000 0.000000
# 4 0.000000 0.000000 0.000000 0.014782 0.000000 0.000000
# 5 0.000000 0.000000 0.000000 0.000000 0.076440 0.000000
# 6 0.000000 0.000000 0.000000 0.000000 0.000000 0.048919
#
#
# Mechanical properties :
#
#
# Convention : Reuss Voigt Hill
#
# Bulk Modulus (GPa) = 52.47939 63.02746 57.75342
# Shear Modulus (GPa) = 23.01131 32.27638 27.64385
#
# Velocity S-wave (km/s) = 3.51632 4.16447 3.85404
# Velocity P-wave (km/s) = 6.68464 7.54916 7.13001
#
# Compressibility (1/GPa) = 0.01905510
#
# Stress axis : x y z
#
# Youngs Moduli (GPa) = 48.21051 112.67322 65.33359
#
# Poissons Ratio (x) = 0.42631 0.33687
# Poissons Ratio (y) = 0.18241 0.26098
# Poissons Ratio (z) = 0.24858 0.45008
#
# Static dielectric constant tensor:
#      x y z
#    x 3.599500 0.000000 0.000000 
#    y 0.000000 3.432780 0.000000 
#    z 0.000000 0.000000 3.438230 
# 
# 
# High freq. dielectric constant tensor:
#      x y z
#    x 1.710230 0.000000 0.000000 
#    y 0.000000 1.718650 0.000000 
#    z 0.000000 0.000000 1.715250 
# 
# From -- ./inp_files/60856.got.cif
#   From: 2010.03.12/outbox.cif.g09.slc.cpg/sg65_31_cif.got.tgz:60856.got - 2010.04.10 20:52:16.
