data_PCOD8269865
_publ_section_title
;
Structure prediction by ZEFSAII (Michael W. Deem and Ramdas Pophale) SiO2 
 PCOD8269865
Probable space group: C M M M
;
_chemical_formula_sum "Si O2"
_cell_formula_units_Z 80
_cell_length_a 21.545349
_cell_length_b 9.748138
_cell_length_c 22.125166
_cell_angle_alpha 90.000000
_cell_angle_beta 90.000000
_cell_angle_gamma 90.000000
_cell_volume 4646.883021
_symmetry_space_group_name_H-M "C M M M"
_symmetry_group_IT_number 65
_symmetry_cell_setting 'orthorhombic'
loop_
_space_group_symop_operation_xyz
x,y,z
-x,-y,z
x,-y,-z
-x,y,-z
-x,-y,-z
x,y,-z
-x,y,z
x,-y,z
1/2+x,1/2+y,z
1/2-x,1/2-y,z
1/2+x,1/2-y,-z
1/2-x,1/2+y,-z
1/2-x,1/2-y,-z
1/2+x,1/2+y,-z
1/2-x,1/2+y,z
1/2+x,1/2-y,z
loop_
_atom_site_type_symbol
_atom_site_label
_atom_site_fract_x
_atom_site_fract_y
_atom_site_fract_z
Si Si1 0.931068 0.837344 0.431472
Si Si2 0.193891 0.151364 0.000000
Si Si3 0.500000 0.838023 0.070362
Si Si4 0.195095 0.845379 0.779788
Si Si5 0.606778 0.654560 0.112437
Si Si6 0.689756 0.338434 0.359135
O O1 0.921112 0.786238 0.500000
O O2 0.872673 0.782871 0.392265
O O3 0.000000 0.786583 0.408627
O O4 0.930557 0.000000 0.428653
O O5 0.250000 0.250000 0.000000
O O6 0.155986 0.178168 0.939759
O O7 0.221710 0.000000 0.000000
O O8 0.557625 0.773582 0.104587
O O9 0.500000 0.000000 0.079055
O O10 0.500000 0.796040 0.000000
O O11 0.250000 0.750000 0.803605
O O12 0.135479 0.822850 0.821531
O O13 0.176494 0.810777 0.711251
O O14 0.219868 0.000000 0.785265
O O15 0.578556 0.500000 0.107302
O O16 0.702137 0.500000 0.372535
O O17 0.750000 0.250000 0.380383
#
# Coordination Sequence:
#
# PCOD8269865 Si02
#       6
#    16   8   8  16  16  16
#     4   8  14  26  45  69  98 131 167 208 248 285
#     4  10  20  31  48  71  93 118 152 192 235 282
#     4  11  23  37  53  73  95 123 158 197 242 286
#     4   9  18  32  50  73  98 127 159 195 241 288
#     4  10  20  35  52  70  95 127 159 192 237 289
#     4   9  17  30  48  73 101 129 164 203 246 293
#
# _framework density 17.215841999999999
#
# number of rings (size 3 to 8) (size 9 to 14) (size 15 to 20)
#    0.000    2.700    1.000    1.500    0.000    2.400 
#    1.800    0.000    0.000    0.600    0.000    1.400 
#    0.000    0.000    0.000    0.000    0.000    0.000 
#
# Total GULP energy -495759.692345 kJ/mol
# GULP energy per Si atom -12393.992309 kJ/mol
# Density = 1.717666 g / cm^3
# Si number density = 17.215842 Si / 1000 Ang^3
#
#
#
# Elastic Constant Matrix: (Units=GPa)
#
#
# Indices 1 2 3 4 5 6 
#
# 1 139.5564 67.6069 61.6567 0.0000 0.0000 0.0000
# 2 67.6069 73.8726 33.7854 0.0000 0.0000 0.0000
# 3 61.6567 33.7854 79.4371 0.0000 0.0000 0.0000
# 4 0.0000 0.0000 0.0000 19.0026 0.0000 0.0000
# 5 0.0000 0.0000 0.0000 0.0000 23.5756 0.0000
# 6 0.0000 0.0000 0.0000 0.0000 0.0000 34.6494
#
#
#
# Elastic Compliance Matrix: (Units=1/GPa)
#
#
# Indices 1 2 3 4 5 6 
#
# 1 0.015894 -0.011054 -0.007635 0.000000 0.000000 0.000000
# 2 -0.011054 0.024494 -0.001838 0.000000 0.000000 0.000000
# 3 -0.007635 -0.001838 0.019296 0.000000 0.000000 0.000000
# 4 0.000000 0.000000 0.000000 0.052624 0.000000 0.000000
# 5 0.000000 0.000000 0.000000 0.000000 0.042417 0.000000
# 6 0.000000 0.000000 0.000000 0.000000 0.000000 0.028861
#
#
# Mechanical properties :
#
#
# Convention : Reuss Voigt Hill
#
# Bulk Modulus (GPa) = 53.67535 68.77379 61.22457
# Shear Modulus (GPa) = 21.65932 24.10000 22.87966
#
# Velocity S-wave (km/s) = 3.55082 3.74555 3.64948
# Velocity P-wave (km/s) = 6.93229 7.66421 7.30742
#
# Compressibility (1/GPa) = 0.01863053
#
# Stress axis : x y z
#
# Youngs Moduli (GPa) = 62.91859 40.82715 51.82384
#
# Poissons Ratio (x) = 0.45129 0.39567
# Poissons Ratio (y) = 0.69548 0.09524
# Poissons Ratio (z) = 0.48037 0.07503
#
# Static dielectric constant tensor:
#      x y z
#    x 3.189730 0.000000 0.000000 
#    y 0.000000 3.113840 0.000000 
#    z 0.000000 0.000000 3.321180 
# 
# 
# High freq. dielectric constant tensor:
#      x y z
#    x 1.663230 0.000000 0.000000 
#    y 0.000000 1.644750 0.000000 
#    z 0.000000 0.000000 1.665300 
# 
# From -- ./inp_files/67342.got.cif
#   From: 2010.03.12/outbox.cif.g09.slc.cpg/sg65_34_cif.got.tgz:67342.got - 2010.04.10 20:52:16.
