data_PCOD8269512
_publ_section_title
;
Structure prediction by ZEFSAII (Michael W. Deem and Ramdas Pophale) SiO2 
 PCOD8269512
Probable space group: C M M M
;
_chemical_formula_sum "Si O2"
_cell_formula_units_Z 80
_cell_length_a 9.071312
_cell_length_b 23.719502
_cell_length_c 19.911070
_cell_angle_alpha 90.000000
_cell_angle_beta 90.000000
_cell_angle_gamma 90.000000
_cell_volume 4284.205261
_symmetry_space_group_name_H-M "C M M M"
_symmetry_group_IT_number 65
_symmetry_cell_setting 'orthorhombic'
loop_
_space_group_symop_operation_xyz
x,y,z
-x,-y,z
x,-y,-z
-x,y,-z
-x,-y,-z
x,y,-z
-x,y,z
x,-y,z
1/2+x,1/2+y,z
1/2-x,1/2-y,z
1/2+x,1/2-y,-z
1/2-x,1/2+y,-z
1/2-x,1/2-y,-z
1/2+x,1/2+y,-z
1/2-x,1/2+y,z
1/2+x,1/2-y,z
loop_
_atom_site_type_symbol
_atom_site_label
_atom_site_fract_x
_atom_site_fract_y
_atom_site_fract_z
Si Si1 0.168504 0.379149 0.318543
Si Si2 0.673487 0.190971 0.187202
Si Si3 0.171656 0.880884 0.922458
Si Si4 0.673822 0.500000 0.129503
Si Si5 0.327828 0.306930 0.577043
Si Si6 0.667240 0.000000 0.267623
O O1 0.212357 0.350683 0.248192
O O2 0.272127 0.358459 0.378346
O O3 0.195726 0.445766 0.313630
O O4 0.000000 0.364905 0.336794
O O5 0.500000 0.200168 0.178739
O O6 0.750000 0.250000 0.202767
O O7 0.736545 0.164624 0.119106
O O8 0.232686 0.943876 0.907513
O O9 0.000000 0.875977 0.902755
O O10 0.197459 0.866807 0.000000
O O11 0.500000 0.500000 0.125990
O O12 0.722129 0.500000 0.206130
O O13 0.287151 0.320038 0.500000
O O14 0.500000 0.298645 0.587536
O O15 0.250000 0.250000 0.602107
O O16 0.500000 0.000000 0.239294
#
# Coordination Sequence:
#
# PCOD8269512 Si02
#       6
#    16  16  16   8  16   8
#     4  10  21  37  59  85 114 148 186 230 276 329
#     4  11  23  38  57  81 110 145 187 233 282 335
#     4  10  21  37  57  82 112 145 184 230 280 336
#     4  10  19  34  58  85 111 143 182 228 281 332
#     4  10  21  37  59  87 118 151 188 230 275 325
#     4  10  20  37  58  84 116 146 182 229 278 328
#
# _framework density 18.673241999999998
#
# number of rings (size 3 to 8) (size 9 to 14) (size 15 to 20)
#    0.000    1.800    2.000    2.100    0.000    7.200 
#    0.000    0.500    0.000    4.800    0.000    0.000 
#    0.000    0.000    0.000    0.000    0.000    0.000 
#
# Total GULP energy -496203.595832 kJ/mol
# GULP energy per Si atom -12405.089896 kJ/mol
# Density = 1.863074 g / cm^3
# Si number density = 18.673242 Si / 1000 Ang^3
#
#
#
# Elastic Constant Matrix: (Units=GPa)
#
#
# Indices 1 2 3 4 5 6 
#
# 1 59.0407 44.2860 39.8029 0.0000 0.0000 0.0000
# 2 44.2860 131.7179 47.6533 0.0000 0.0000 0.0000
# 3 39.8029 47.6533 88.8656 0.0000 0.0000 0.0000
# 4 0.0000 0.0000 0.0000 28.2701 0.0000 0.0000
# 5 0.0000 0.0000 0.0000 0.0000 33.6794 0.0000
# 6 0.0000 0.0000 0.0000 0.0000 0.0000 27.3273
#
#
#
# Elastic Compliance Matrix: (Units=1/GPa)
#
#
# Indices 1 2 3 4 5 6 
#
# 1 0.027582 -0.005961 -0.009158 0.000000 0.000000 0.000000
# 2 -0.005961 0.010707 -0.003072 0.000000 0.000000 0.000000
# 3 -0.009158 -0.003072 0.017002 0.000000 0.000000 0.000000
# 4 0.000000 0.000000 0.000000 0.035373 0.000000 0.000000
# 5 0.000000 0.000000 0.000000 0.000000 0.029692 0.000000
# 6 0.000000 0.000000 0.000000 0.000000 0.000000 0.036593
#
#
# Mechanical properties :
#
#
# Convention : Reuss Voigt Hill
#
# Bulk Modulus (GPa) = 52.87923 60.34539 56.61231
# Shear Modulus (GPa) = 25.04577 27.71415 26.37996
#
# Velocity S-wave (km/s) = 3.66630 3.85666 3.76269
# Velocity P-wave (km/s) = 6.80456 7.22623 7.01856
#
# Compressibility (1/GPa) = 0.01891102
#
# Stress axis : x y z
#
# Youngs Moduli (GPa) = 36.25520 93.39301 58.81629
#
# Poissons Ratio (x) = 0.55667 0.53863
# Poissons Ratio (y) = 0.21610 0.18069
# Poissons Ratio (z) = 0.33202 0.28691
#
# Static dielectric constant tensor:
#      x y z
#    x 3.413270 0.000000 0.000000 
#    y 0.000000 3.567630 0.000000 
#    z 0.000000 0.000000 3.310760 
# 
# 
# High freq. dielectric constant tensor:
#      x y z
#    x 1.724590 0.000000 0.000000 
#    y 0.000000 1.732490 0.000000 
#    z 0.000000 0.000000 1.720750 
# 
# From -- ./inp_files/57318.got.cif
#   From: 2010.03.12/outbox.cif.g09.slc.cpg/sg65_29_cif.got.tgz:57318.got - 2010.04.10 20:52:16.
