data_PCOD8269060
_publ_section_title
;
Structure prediction by ZEFSAII (Michael W. Deem and Ramdas Pophale) SiO2 
 PCOD8269060
Probable space group: C M M M
;
_chemical_formula_sum "Si O2"
_cell_formula_units_Z 80
_cell_length_a 18.344091
_cell_length_b 9.089212
_cell_length_c 25.961406
_cell_angle_alpha 90.000000
_cell_angle_beta 90.000000
_cell_angle_gamma 90.000000
_cell_volume 4328.631727
_symmetry_space_group_name_H-M "C M M M"
_symmetry_group_IT_number 65
_symmetry_cell_setting 'orthorhombic'
loop_
_space_group_symop_operation_xyz
x,y,z
-x,-y,z
x,-y,-z
-x,y,-z
-x,-y,-z
x,y,-z
-x,y,z
x,-y,z
1/2+x,1/2+y,z
1/2-x,1/2-y,z
1/2+x,1/2-y,-z
1/2-x,1/2+y,-z
1/2-x,1/2-y,-z
1/2+x,1/2+y,-z
1/2-x,1/2+y,z
1/2+x,1/2-y,z
loop_
_atom_site_type_symbol
_atom_site_label
_atom_site_fract_x
_atom_site_fract_y
_atom_site_fract_z
Si Si1 0.584228 0.329141 0.698631
Si Si2 0.081933 0.174858 0.500000
Si Si3 0.328084 0.326981 0.888404
Si Si4 0.672505 0.326164 0.401993
Si Si5 0.586207 0.832891 0.199149
Si Si6 0.175594 0.832174 0.000000
O O1 0.500000 0.295078 0.686167
O O2 0.595377 0.500000 0.711573
O O3 0.631339 0.279259 0.649910
O O4 0.613037 0.236164 0.747106
O O5 0.124305 0.231583 0.550367
O O6 0.000000 0.240236 0.500000
O O7 0.077792 0.000000 0.500000
O O8 0.318557 0.500000 0.878016
O O9 0.250000 0.250000 0.883091
O O10 0.383156 0.260392 0.847737
O O11 0.364345 0.296506 0.945526
O O12 0.683689 0.500000 0.405028
O O13 0.750000 0.250000 0.404028
O O14 0.500000 0.823907 0.195525
O O15 0.614540 0.000000 0.196062
O O16 0.250000 0.750000 0.000000
O O17 0.198514 0.000000 0.000000
#
# Coordination Sequence:
#
# PCOD8269060 Si02
#       6
#    16   8  16  16  16   8
#     4   9  18  34  54  73  95 130 175 214 250 299
#     4   9  17  32  55  79 102 133 174 212 244 289
#     4  10  19  33  54  78 104 134 170 212 257 307
#     4  10  20  33  52  78 106 134 165 207 256 302
#     4  10  21  36  53  75 104 137 173 214 260 308
#     4   8  16  30  49  74 101 131 167 207 253 304
#
# _framework density 18.481589
#
# number of rings (size 3 to 8) (size 9 to 14) (size 15 to 20)
#    0.000    2.500    0.000    2.100    0.000    6.000 
#    0.000    2.500    0.000    5.400    0.000    0.000 
#    0.000    0.000    0.000    0.000    0.000    0.000 
#
# Total GULP energy -495840.416119 kJ/mol
# GULP energy per Si atom -12396.010403 kJ/mol
# Density = 1.843952 g / cm^3
# Si number density = 18.481589 Si / 1000 Ang^3
#
#
#
# Elastic Constant Matrix: (Units=GPa)
#
#
# Indices 1 2 3 4 5 6 
#
# 1 81.3694 36.6483 71.7664 0.0000 0.0000 0.0000
# 2 36.6483 77.3500 69.9606 0.0000 0.0000 0.0000
# 3 71.7664 69.9606 192.8527 0.0000 0.0000 0.0000
# 4 0.0000 0.0000 0.0000 21.6537 0.0000 0.0000
# 5 0.0000 0.0000 0.0000 0.0000 31.6581 0.0000
# 6 0.0000 0.0000 0.0000 0.0000 0.0000 30.7217
#
#
#
# Elastic Compliance Matrix: (Units=1/GPa)
#
#
# Indices 1 2 3 4 5 6 
#
# 1 0.019049 -0.003890 -0.005678 0.000000 0.000000 0.000000
# 2 -0.003890 0.020036 -0.005821 0.000000 0.000000 0.000000
# 3 -0.005678 -0.005821 0.009410 0.000000 0.000000 0.000000
# 4 0.000000 0.000000 0.000000 0.046182 0.000000 0.000000
# 5 0.000000 0.000000 0.000000 0.000000 0.031588 0.000000
# 6 0.000000 0.000000 0.000000 0.000000 0.000000 0.032550
#
#
# Mechanical properties :
#
#
# Convention : Reuss Voigt Hill
#
# Bulk Modulus (GPa) = 56.44027 78.70253 67.57140
# Shear Modulus (GPa) = 25.57574 28.35314 26.96444
#
# Velocity S-wave (km/s) = 3.72405 3.92105 3.82382
# Velocity P-wave (km/s) = 7.00688 7.94835 7.49241
#
# Compressibility (1/GPa) = 0.01771785
#
# Stress axis : x y z
#
# Youngs Moduli (GPa) = 52.49530 49.90975 106.27385
#
# Poissons Ratio (x) = 0.19417 0.60337
# Poissons Ratio (y) = 0.20423 0.61859
# Poissons Ratio (z) = 0.29804 0.29051
#
# Static dielectric constant tensor:
#      x y z
#    x 3.179390 0.000000 0.000000 
#    y 0.000000 3.380640 0.000000 
#    z 0.000000 0.000000 3.895810 
# 
# 
# High freq. dielectric constant tensor:
#      x y z
#    x 1.697720 0.000000 0.000000 
#    y 0.000000 1.709890 0.000000 
#    z 0.000000 0.000000 1.740050 
# 
# From -- ./inp_files/75113.got.cif
#   From: 2010.03.12/outbox.cif.g09.slc.cpg/sg65_38_cif.got.tgz:75113.got - 2010.04.10 20:52:16.
