data_PCOD8269582
_publ_section_title
;
Structure prediction by ZEFSAII (Michael W. Deem and Ramdas Pophale) SiO2 
 PCOD8269582
Probable space group: C M M M
;
_chemical_formula_sum "Si O2"
_cell_formula_units_Z 72
_cell_length_a 23.409367
_cell_length_b 9.439622
_cell_length_c 17.828817
_cell_angle_alpha 90.000000
_cell_angle_beta 90.000000
_cell_angle_gamma 90.000000
_cell_volume 3939.733101
_symmetry_space_group_name_H-M "C M M M"
_symmetry_group_IT_number 65
_symmetry_cell_setting 'orthorhombic'
loop_
_space_group_symop_operation_xyz
x,y,z
-x,-y,z
x,-y,-z
-x,y,-z
-x,-y,-z
x,y,-z
-x,y,z
x,-y,z
1/2+x,1/2+y,z
1/2-x,1/2-y,z
1/2+x,1/2-y,-z
1/2-x,1/2+y,-z
1/2-x,1/2-y,-z
1/2+x,1/2+y,-z
1/2-x,1/2+y,z
1/2+x,1/2-y,z
loop_
_atom_site_type_symbol
_atom_site_label
_atom_site_fract_x
_atom_site_fract_y
_atom_site_fract_z
Si Si1 0.500000 0.655729 0.779508
Si Si2 0.307745 0.835873 0.717540
Si Si3 0.389080 0.838228 0.417067
Si Si4 0.500000 0.656860 0.394709
Si Si5 0.398289 0.835931 0.839731
Si Si6 0.435191 0.166058 0.000000
O O1 0.500000 0.500000 0.818363
O O2 0.500000 0.635706 0.692459
O O3 0.444502 0.742175 0.799404
O O4 0.250000 0.750000 0.717930
O O5 0.346002 0.783241 0.647320
O O6 0.338493 0.808063 0.797791
O O7 0.292724 0.000000 0.707597
O O8 0.359962 0.830407 0.500000
O O9 0.444717 0.741960 0.420572
O O10 0.406993 0.000000 0.398015
O O11 0.500000 0.500000 0.431949
O O12 0.416027 0.000000 0.831835
O O13 0.398055 0.788591 0.927241
O O14 0.500000 0.233151 0.000000
O O15 0.443683 0.000000 0.000000
#
# Coordination Sequence:
#
# PCOD8269582 Si02
#       6
#     8  16  16   8  16   8
#     4  11  21  31  51  83 114 143 174 218 268 318
#     4  10  22  38  57  77 103 142 185 227 268 312
#     4  10  21  37  57  81 108 140 180 223 267 321
#     4  11  22  34  52  83 117 145 174 215 271 327
#     4  10  19  35  57  81 108 142 181 219 263 319
#     4   9  16  28  55  88 110 134 176 222 257 310
#
# _framework density 18.275348999999999
#
# number of rings (size 3 to 8) (size 9 to 14) (size 15 to 20)
#    0.000    1.889    3.333    1.000    0.000    4.889 
#    0.000    1.667    0.000    0.000    0.000    0.000 
#    0.000    0.000    0.000    0.000    0.000    0.000 
#
# Total GULP energy -446199.845779 kJ/mol
# GULP energy per Si atom -12394.440161 kJ/mol
# Density = 1.823375 g / cm^3
# Si number density = 18.275349 Si / 1000 Ang^3
#
#
#
# Elastic Constant Matrix: (Units=GPa)
#
#
# Indices 1 2 3 4 5 6 
#
# 1 123.7179 56.9170 64.0414 0.0000 0.0000 0.0000
# 2 56.9170 76.4631 32.0506 0.0000 0.0000 0.0000
# 3 64.0414 32.0506 148.5982 0.0000 0.0000 0.0000
# 4 0.0000 0.0000 0.0000 10.4060 0.0000 0.0000
# 5 0.0000 0.0000 0.0000 0.0000 9.4079 0.0000
# 6 0.0000 0.0000 0.0000 0.0000 0.0000 37.4966
#
#
#
# Elastic Compliance Matrix: (Units=1/GPa)
#
#
# Indices 1 2 3 4 5 6 
#
# 1 0.014408 -0.008930 -0.004284 0.000000 0.000000 0.000000
# 2 -0.008930 0.019912 -0.000446 0.000000 0.000000 0.000000
# 3 -0.004284 -0.000446 0.008672 0.000000 0.000000 0.000000
# 4 0.000000 0.000000 0.000000 0.096099 0.000000 0.000000
# 5 0.000000 0.000000 0.000000 0.000000 0.106293 0.000000
# 6 0.000000 0.000000 0.000000 0.000000 0.000000 0.026669
#
#
# Mechanical properties :
#
#
# Convention : Reuss Voigt Hill
#
# Bulk Modulus (GPa) = 63.80257 72.75524 68.27890
# Shear Modulus (GPa) = 16.41511 24.51346 20.46429
#
# Velocity S-wave (km/s) = 3.00027 3.66640 3.34993
# Velocity P-wave (km/s) = 6.85491 7.60397 7.23913
#
# Compressibility (1/GPa) = 0.01567335
#
# Stress axis : x y z
#
# Youngs Moduli (GPa) = 69.40396 50.22014 115.31464
#
# Poissons Ratio (x) = 0.44845 0.49396
# Poissons Ratio (y) = 0.61976 0.05147
# Poissons Ratio (z) = 0.29730 0.02242
#
# Static dielectric constant tensor:
#      x y z
#    x 3.104920 0.000000 0.000000 
#    y 0.000000 3.429960 0.000000 
#    z 0.000000 0.000000 3.921720 
# 
# 
# High freq. dielectric constant tensor:
#      x y z
#    x 1.681280 0.000000 0.000000 
#    y 0.000000 1.699440 0.000000 
#    z 0.000000 0.000000 1.729240 
# 
# From -- ./inp_files/49551.got.cif
#   From: 2010.03.12/outbox.cif.g09.slc.cpg/sg65_25_cif.got.tgz:49551.got - 2010.04.10 20:52:16.
