data_PCOD8269954
_publ_section_title
;
Structure prediction by ZEFSAII (Michael W. Deem and Ramdas Pophale) SiO2 
 PCOD8269954
Probable space group: C M M M
;
_chemical_formula_sum "Si O2"
_cell_formula_units_Z 80
_cell_length_a 25.274383
_cell_length_b 10.019026
_cell_length_c 20.496214
_cell_angle_alpha 90.000000
_cell_angle_beta 90.000000
_cell_angle_gamma 90.000000
_cell_volume 5190.147650
_symmetry_space_group_name_H-M "C M M M"
_symmetry_group_IT_number 65
_symmetry_cell_setting 'orthorhombic'
loop_
_space_group_symop_operation_xyz
x,y,z
-x,-y,z
x,-y,-z
-x,y,-z
-x,-y,-z
x,y,-z
-x,y,z
x,-y,z
1/2+x,1/2+y,z
1/2-x,1/2-y,z
1/2+x,1/2-y,-z
1/2-x,1/2+y,-z
1/2-x,1/2-y,-z
1/2+x,1/2+y,-z
1/2-x,1/2+y,z
1/2+x,1/2-y,z
loop_
_atom_site_type_symbol
_atom_site_label
_atom_site_fract_x
_atom_site_fract_y
_atom_site_fract_z
Si Si1 0.442412 0.342460 0.000000
Si Si2 0.936971 0.149814 0.860053
Si Si3 0.175242 0.000000 0.423579
Si Si4 0.800361 0.500000 0.424504
Si Si5 0.438318 0.844075 0.254711
Si Si6 0.440058 0.157413 0.500000
Si Si7 0.128190 0.730476 0.619848
O O1 0.413160 0.305307 0.068588
O O2 0.450316 0.500000 0.000000
O O3 0.500000 0.272030 0.000000
O O4 0.918857 0.258332 0.807197
O O5 0.000000 0.147764 0.866070
O O6 0.917226 0.000000 0.840807
O O7 0.237989 0.000000 0.418208
O O8 0.152471 0.876491 0.383708
O O9 0.158369 0.000000 0.500000
O O10 0.818532 0.500000 0.500000
O O11 0.823277 0.629583 0.389252
O O12 0.500000 0.816622 0.271394
O O13 0.401563 0.795748 0.313050
O O14 0.429204 0.000000 0.240041
O O15 0.500000 0.203919 0.500000
O O16 0.414806 0.217504 0.436015
O O17 0.433482 0.000000 0.500000
#
# Coordination Sequence:
#
# PCOD8269954 Si02
#       7
#     8  16   8   8  16   8  16
#     4   7  10  20  39  61  87 119 158 195 224 260
#     4   8  14  25  42  64  89 123 162 195 226 262
#     4  11  24  36  54  74  94 107 148 207 255 292
#     4  11  20  38  58  72  86 117 154 195 243 296
#     4  10  20  32  46  65  94 131 165 191 223 276
#     4  11  20  33  52  70  89 124 165 189 218 274
#     4  12  20  36  50  72  93 122 152 193 238 281
#
# _framework density 15.413819
#
# number of rings (size 3 to 8) (size 9 to 14) (size 15 to 20)
#    0.000    2.000    4.000    2.400    1.400    3.200 
#    0.000    2.500    0.000    3.000    0.000    0.000 
#    0.000    0.000    0.000    5.400    0.000    0.700 
#
# Total GULP energy -495733.647860 kJ/mol
# GULP energy per Si atom -12393.341196 kJ/mol
# Density = 1.537874 g / cm^3
# Si number density = 15.413819 Si / 1000 Ang^3
#
#
#
# Elastic Constant Matrix: (Units=GPa)
#
#
# Indices 1 2 3 4 5 6 
#
# 1 51.9999 33.6382 36.4012 0.0000 0.0000 0.0000
# 2 33.6382 116.2119 62.8810 0.0000 0.0000 0.0000
# 3 36.4012 62.8810 144.0427 0.0000 0.0000 0.0000
# 4 0.0000 0.0000 0.0000 60.0534 0.0000 0.0000
# 5 0.0000 0.0000 0.0000 0.0000 -32.2016 0.0000
# 6 0.0000 0.0000 0.0000 0.0000 0.0000 6.2035
#
#
#
# Elastic Compliance Matrix: (Units=1/GPa)
#
#
# Indices 1 2 3 4 5 6 
#
# 1 0.025476 -0.005094 -0.004214 0.000000 0.000000 0.000000
# 2 -0.005094 0.012285 -0.004076 0.000000 0.000000 0.000000
# 3 -0.004214 -0.004076 0.009787 0.000000 0.000000 0.000000
# 4 0.000000 0.000000 0.000000 0.016652 0.000000 0.000000
# 5 0.000000 0.000000 0.000000 0.000000 -0.031054 0.000000
# 6 0.000000 0.000000 0.000000 0.000000 0.000000 0.161200
#
#
# Mechanical properties :
#
#
# Convention : Reuss Voigt Hill
#
# Bulk Modulus (GPa) = 48.12367 64.23282 56.17825
# Shear Modulus (GPa) = 21.92609 18.76668 20.34638
#
# Velocity S-wave (km/s) = 3.77569 3.49309 3.63713
# Velocity P-wave (km/s) = 7.09202 7.61785 7.35963
#
# Compressibility (1/GPa) = 0.02077979
#
# Stress axis : x y z
#
# Youngs Moduli (GPa) = 39.25240 81.40264 102.18096
#
# Poissons Ratio (x) = 0.41465 0.43064
# Poissons Ratio (y) = 0.19994 0.41644
# Poissons Ratio (z) = 0.16543 0.33176
#
# Static dielectric constant tensor:
#      x y z
#    x 2.698250 0.000000 0.000000 
#    y 0.000000 2.964260 0.000000 
#    z 0.000000 0.000000 3.396180 
# 
# 
# High freq. dielectric constant tensor:
#      x y z
#    x 1.552010 0.000000 0.000000 
#    y 0.000000 1.593590 0.000000 
#    z 0.000000 0.000000 1.592080 
# 
# From -- ./inp_files/65714.got.cif
#   From: 2010.03.12/outbox.cif.g09.slc.cpg/sg65_33_cif.got.tgz:65714.got - 2010.04.10 20:52:16.
