data_PCOD8269671
_publ_section_title
;
Structure prediction by ZEFSAII (Michael W. Deem and Ramdas Pophale) SiO2 
 PCOD8269671
Probable space group: C M M M
;
_chemical_formula_sum "Si O2"
_cell_formula_units_Z 64
_cell_length_a 18.582461
_cell_length_b 13.347267
_cell_length_c 13.554971
_cell_angle_alpha 90.000000
_cell_angle_beta 90.000000
_cell_angle_gamma 90.000000
_cell_volume 3361.972611
_symmetry_space_group_name_H-M "C M M M"
_symmetry_group_IT_number 65
_symmetry_cell_setting 'orthorhombic'
loop_
_space_group_symop_operation_xyz
x,y,z
-x,-y,z
x,-y,-z
-x,y,-z
-x,-y,-z
x,y,-z
-x,y,z
x,-y,z
1/2+x,1/2+y,z
1/2-x,1/2-y,z
1/2+x,1/2-y,-z
1/2-x,1/2+y,-z
1/2-x,1/2-y,-z
1/2+x,1/2+y,-z
1/2-x,1/2+y,z
1/2+x,1/2-y,z
loop_
_atom_site_type_symbol
_atom_site_label
_atom_site_fract_x
_atom_site_fract_y
_atom_site_fract_z
Si Si1 0.500000 0.248238 0.387078
Si Si2 0.853614 0.303793 0.885781
Si Si3 0.500000 0.118841 0.203520
Si Si4 0.288963 0.386906 0.805409
Si Si5 0.134789 0.886262 0.390050
O O1 0.500000 0.211394 0.500000
O O2 0.500000 0.150671 0.317982
O O3 0.569376 0.314233 0.362478
O O4 0.794783 0.365474 0.823777
O O5 0.840730 0.185344 0.868849
O O6 0.931861 0.335952 0.851997
O O7 0.843444 0.329554 0.000000
O O8 0.500000 0.000000 0.196530
O O9 0.308056 0.500000 0.836696
O O10 0.301558 0.369218 0.688498
O O11 0.164694 0.862913 0.500000
O O12 0.105780 0.000000 0.384685
#
# Coordination Sequence:
#
# PCOD8269671 Si02
#       5
#     8  16   8  16  16
#     4  10  19  36  59  86 122 157 190 233 287 349
#     4  11  24  41  60  85 116 156 204 243 289 347
#     4  12  25  42  61  83 115 156 205 245 287 347
#     4  10  20  37  62  90 120 150 189 242 297 347
#     4   9  17  32  59  92 122 153 188 229 288 358
#
# _framework density 19.036442999999998
#
# number of rings (size 3 to 8) (size 9 to 14) (size 15 to 20)
#    0.000    1.750    2.500    3.000    0.000    5.750 
#    0.000    4.375    0.000    4.500    0.000    0.000 
#    0.000    0.000    0.000    0.000    0.000    0.000 
#
# Total GULP energy -396819.237883 kJ/mol
# GULP energy per Si atom -12400.601184 kJ/mol
# Density = 1.899312 g / cm^3
# Si number density = 19.036443 Si / 1000 Ang^3
#
#
#
# Elastic Constant Matrix: (Units=GPa)
#
#
# Indices 1 2 3 4 5 6 
#
# 1 143.4659 60.0189 71.4313 0.0000 0.0000 0.0000
# 2 60.0189 113.8457 43.5311 0.0000 0.0000 0.0000
# 3 71.4313 43.5311 127.5893 0.0000 0.0000 0.0000
# 4 0.0000 0.0000 0.0000 23.9685 0.0000 0.0000
# 5 0.0000 0.0000 0.0000 0.0000 28.4714 0.0000
# 6 0.0000 0.0000 0.0000 0.0000 0.0000 38.1508
#
#
#
# Elastic Compliance Matrix: (Units=1/GPa)
#
#
# Indices 1 2 3 4 5 6 
#
# 1 0.011033 -0.003973 -0.004821 0.000000 0.000000 0.000000
# 2 -0.003973 0.011532 -0.001710 0.000000 0.000000 0.000000
# 3 -0.004821 -0.001710 0.011120 0.000000 0.000000 0.000000
# 4 0.000000 0.000000 0.000000 0.041721 0.000000 0.000000
# 5 0.000000 0.000000 0.000000 0.000000 0.035123 0.000000
# 6 0.000000 0.000000 0.000000 0.000000 0.000000 0.026212
#
#
# Mechanical properties :
#
#
# Convention : Reuss Voigt Hill
#
# Bulk Modulus (GPa) = 78.88664 81.65149 80.26907
# Shear Modulus (GPa) = 30.86868 32.11278 31.49073
#
# Velocity S-wave (km/s) = 4.03123 4.11166 4.07164
# Velocity P-wave (km/s) = 7.94968 8.09483 8.02259
#
# Compressibility (1/GPa) = 0.01267642
#
# Stress axis : x y z
#
# Youngs Moduli (GPa) = 90.63801 86.71271 89.92479
#
# Poissons Ratio (x) = 0.34451 0.43355
# Poissons Ratio (y) = 0.36010 0.15380
# Poissons Ratio (z) = 0.43699 0.14831
#
# Static dielectric constant tensor:
#      x y z
#    x 3.358110 0.000000 0.000000 
#    y 0.000000 3.564340 0.000000 
#    z 0.000000 0.000000 3.654210 
# 
# 
# High freq. dielectric constant tensor:
#      x y z
#    x 1.730130 0.000000 0.000000 
#    y 0.000000 1.742590 0.000000 
#    z 0.000000 0.000000 1.750760 
# 
# From -- ./inp_files/23981.got.cif
#   From: 2010.03.12/outbox.cif.g09.slc.cpg/sg65_12_cif.got.tgz:23981.got - 2010.04.10 20:52:16.
