data_PCOD8269660
_publ_section_title
;
Structure prediction by ZEFSAII (Michael W. Deem and Ramdas Pophale) SiO2 
 PCOD8269660
Probable space group: C M M M
;
_chemical_formula_sum "Si O2"
_cell_formula_units_Z 104
_cell_length_a 32.334685
_cell_length_b 19.037340
_cell_length_c 9.090335
_cell_angle_alpha 90.000000
_cell_angle_beta 90.000000
_cell_angle_gamma 90.000000
_cell_volume 5595.704719
_symmetry_space_group_name_H-M "C M M M"
_symmetry_group_IT_number 65
_symmetry_cell_setting 'orthorhombic'
loop_
_space_group_symop_operation_xyz
x,y,z
-x,-y,z
x,-y,-z
-x,y,-z
-x,-y,-z
x,y,-z
-x,y,z
x,-y,z
1/2+x,1/2+y,z
1/2-x,1/2-y,z
1/2+x,1/2-y,-z
1/2-x,1/2+y,-z
1/2-x,1/2-y,-z
1/2+x,1/2+y,-z
1/2-x,1/2+y,z
1/2+x,1/2-y,z
loop_
_atom_site_type_symbol
_atom_site_label
_atom_site_fract_x
_atom_site_fract_y
_atom_site_fract_z
Si Si1 0.420422 0.579339 0.330533
Si Si2 0.118388 0.335624 0.824918
Si Si3 0.952285 0.580926 0.329500
Si Si4 0.855116 0.195959 0.328928
Si Si5 0.197719 0.421190 0.174910
Si Si6 0.500000 0.583640 0.834999
Si Si7 0.771427 0.175394 0.165351
O O1 0.433176 0.580666 0.500000
O O2 0.410359 0.500000 0.278355
O O3 0.380393 0.625339 0.298325
O O4 0.458988 0.612572 0.243282
O O5 0.075722 0.369242 0.770378
O O6 0.123446 0.258105 0.760853
O O7 0.156686 0.382448 0.766700
O O8 0.117743 0.330814 0.000000
O O9 0.942445 0.595254 0.500000
O O10 0.942967 0.500000 0.289899
O O11 0.000000 0.598619 0.295224
O O12 0.854219 0.216471 0.500000
O O13 0.809336 0.178665 0.275650
O O14 0.198358 0.500000 0.239030
O O15 0.238764 0.381030 0.229248
O O16 0.196871 0.421369 0.000000
O O17 0.500000 0.500000 0.825367
O O18 0.500000 0.612143 0.000000
O O19 0.750000 0.250000 0.159248
O O20 0.786121 0.154940 0.000000
#
# Coordination Sequence:
#
# PCOD8269660 Si02
#       7
#    16  16  16  16  16   8  16
#     4   9  19  37  58  79 108 147 186 223 271 335
#     4  11  21  36  57  82 114 149 190 236 278 328
#     4   9  19  37  59  83 115 153 189 230 282 335
#     4  11  23  37  56  82 111 147 187 227 280 338
#     4   9  18  33  55  82 109 141 182 226 273 325
#     4   9  17  31  55  85 111 135 172 225 274 319
#     4  10  19  36  57  77 106 144 180 221 276 334
#
# _framework density 18.585683
#
# number of rings (size 3 to 8) (size 9 to 14) (size 15 to 20)
#    0.000    2.231    1.538    2.077    0.000    4.308 
#    1.385    0.769    0.000    1.846    0.000    0.000 
#    0.000    0.000    0.000    0.000    0.000    0.000 
#
# Total GULP energy -644873.955383 kJ/mol
# GULP energy per Si atom -12401.422219 kJ/mol
# Density = 1.854338 g / cm^3
# Si number density = 18.585683 Si / 1000 Ang^3
#
#
#
# Elastic Constant Matrix: (Units=GPa)
#
#
# Indices 1 2 3 4 5 6 
#
# 1 128.9974 57.7971 59.3255 0.0000 0.0000 0.0000
# 2 57.7971 106.2022 43.9015 0.0000 0.0000 0.0000
# 3 59.3255 43.9015 77.0710 0.0000 0.0000 0.0000
# 4 0.0000 0.0000 0.0000 12.0434 0.0000 0.0000
# 5 0.0000 0.0000 0.0000 0.0000 42.4465 0.0000
# 6 0.0000 0.0000 0.0000 0.0000 0.0000 29.7667
#
#
#
# Elastic Compliance Matrix: (Units=1/GPa)
#
#
# Indices 1 2 3 4 5 6 
#
# 1 0.013117 -0.003878 -0.007888 0.000000 0.000000 0.000000
# 2 -0.003878 0.013462 -0.004684 0.000000 0.000000 0.000000
# 3 -0.007888 -0.004684 0.021715 0.000000 0.000000 0.000000
# 4 0.000000 0.000000 0.000000 0.083033 0.000000 0.000000
# 5 0.000000 0.000000 0.000000 0.000000 0.023559 0.000000
# 6 0.000000 0.000000 0.000000 0.000000 0.000000 0.033595
#
#
# Mechanical properties :
#
#
# Convention : Reuss Voigt Hill
#
# Bulk Modulus (GPa) = 64.95414 70.47986 67.71700
# Shear Modulus (GPa) = 22.07385 26.93441 24.50413
#
# Velocity S-wave (km/s) = 3.45001 3.81097 3.63497
# Velocity P-wave (km/s) = 7.13404 7.57420 7.35741
#
# Compressibility (1/GPa) = 0.01539548
#
# Stress axis : x y z
#
# Youngs Moduli (GPa) = 76.23518 74.28043 46.05155
#
# Poissons Ratio (x) = 0.28805 0.36326
# Poissons Ratio (y) = 0.29563 0.21568
# Poissons Ratio (z) = 0.60135 0.34790
#
# Static dielectric constant tensor:
#      x y z
#    x 3.391030 0.000000 0.000000 
#    y 0.000000 3.509600 0.000000 
#    z 0.000000 0.000000 3.296340 
# 
# 
# High freq. dielectric constant tensor:
#      x y z
#    x 1.729280 0.000000 0.000000 
#    y 0.000000 1.717500 0.000000 
#    z 0.000000 0.000000 1.708000 
# 
# From -- ./inp_files/18676.got.cif
#   From: 2010.03.12/outbox.cif.g09.slc.cpg/sg65_10_cif.got.tgz:18676.got - 2010.04.10 20:52:16.
