data_PCOD8269057
_publ_section_title
;
Structure prediction by ZEFSAII (Michael W. Deem and Ramdas Pophale) SiO2 
 PCOD8269057
Probable space group: C M M M
;
_chemical_formula_sum "Si O2"
_cell_formula_units_Z 96
_cell_length_a 20.122915
_cell_length_b 22.640397
_cell_length_c 12.620548
_cell_angle_alpha 90.000000
_cell_angle_beta 90.000000
_cell_angle_gamma 90.000000
_cell_volume 5749.805363
_symmetry_space_group_name_H-M "C M M M"
_symmetry_group_IT_number 65
_symmetry_cell_setting 'orthorhombic'
loop_
_space_group_symop_operation_xyz
x,y,z
-x,-y,z
x,-y,-z
-x,y,-z
-x,-y,-z
x,y,-z
-x,y,z
x,-y,z
1/2+x,1/2+y,z
1/2-x,1/2-y,z
1/2+x,1/2-y,-z
1/2-x,1/2+y,-z
1/2-x,1/2-y,-z
1/2+x,1/2+y,-z
1/2-x,1/2+y,z
1/2+x,1/2-y,z
loop_
_atom_site_type_symbol
_atom_site_label
_atom_site_fract_x
_atom_site_fract_y
_atom_site_fract_z
Si Si1 0.575632 0.202528 0.000000
Si Si2 0.379011 0.874580 0.194996
Si Si3 0.189262 0.207142 0.377906
Si Si4 0.311016 0.294758 0.000000
Si Si5 0.778811 0.000000 0.118967
Si Si6 0.076006 0.296722 0.379016
Si Si7 0.221392 0.125710 0.804909
Si Si8 0.121271 0.500000 0.881173
O O1 0.588940 0.164318 0.896280
O O2 0.619874 0.260701 0.000000
O O3 0.500000 0.224086 0.000000
O O4 0.404720 0.852974 0.308604
O O5 0.300271 0.869117 0.187109
O O6 0.403284 0.942060 0.181366
O O7 0.192167 0.187541 0.500000
O O8 0.250000 0.250000 0.348481
O O9 0.120850 0.240294 0.349542
O O10 0.194771 0.148175 0.308179
O O11 0.250000 0.250000 0.000000
O O12 0.310039 0.334901 0.103500
O O13 0.802933 0.058193 0.181660
O O14 0.700046 0.000000 0.110850
O O15 0.808621 0.000000 0.000000
O O16 0.089368 0.315958 0.500000
O O17 0.000000 0.277903 0.360327
O O18 0.091298 0.500000 0.000000
#
# Coordination Sequence:
#
# PCOD8269057 Si02
#       8
#     8  16  16   8   8  16  16   8
#     4  12  24  33  46  75 108 132 161 214 268 303
#     4  11  19  34  52  72 102 136 173 214 255 298
#     4  10  19  33  54  78 104 133 168 211 259 307
#     4  12  20  31  53  77  99 131 173 213 252 310
#     4   9  18  32  49  77 106 135 168 213 255 296
#     4  10  21  36  53  74 103 138 171 208 257 309
#     4  11  19  32  54  79 103 133 174 210 255 305
#     4   9  18  32  51  70  98 138 178 216 248 289
#
# _framework density 16.696217000000001
#
# number of rings (size 3 to 8) (size 9 to 14) (size 15 to 20)
#    0.000    1.500    5.000    2.000    0.000    0.000 
#    0.000    2.917    0.000    4.000    0.000    2.917 
#    0.000    2.667    0.000    0.000    0.000    0.000 
#
# Total GULP energy -595306.480714 kJ/mol
# GULP energy per Si atom -12402.218348 kJ/mol
# Density = 1.665822 g / cm^3
# Si number density = 16.696217 Si / 1000 Ang^3
#
#
#
# Elastic Constant Matrix: (Units=GPa)
#
#
# Indices 1 2 3 4 5 6 
#
# 1 92.1582 54.5802 33.9009 0.0000 0.0000 0.0000
# 2 54.5802 144.3505 75.9390 0.0000 0.0000 0.0000
# 3 33.9009 75.9390 109.2940 0.0000 0.0000 0.0000
# 4 0.0000 0.0000 0.0000 7.1699 0.0000 0.0000
# 5 0.0000 0.0000 0.0000 0.0000 5.9268 0.0000
# 6 0.0000 0.0000 0.0000 0.0000 0.0000 14.9215
#
#
#
# Elastic Compliance Matrix: (Units=1/GPa)
#
#
# Indices 1 2 3 4 5 6 
#
# 1 0.014058 -0.004762 -0.001052 0.000000 0.000000 0.000000
# 2 -0.004762 0.012532 -0.007230 0.000000 0.000000 0.000000
# 3 -0.001052 -0.007230 0.014499 0.000000 0.000000 0.000000
# 4 0.000000 0.000000 0.000000 0.139472 0.000000 0.000000
# 5 0.000000 0.000000 0.000000 0.000000 0.168725 0.000000
# 6 0.000000 0.000000 0.000000 0.000000 0.000000 0.067017
#
#
# Mechanical properties :
#
#
# Convention : Reuss Voigt Hill
#
# Bulk Modulus (GPa) = 66.66088 74.96031 70.81060
# Shear Modulus (GPa) = 11.17587 17.69582 14.43584
#
# Velocity S-wave (km/s) = 2.59002 3.25910 2.94363
# Velocity P-wave (km/s) = 6.99690 7.69131 7.35231
#
# Compressibility (1/GPa) = 0.01500130
#
# Stress axis : x y z
#
# Youngs Moduli (GPa) = 71.13291 79.79688 68.96814
#
# Poissons Ratio (x) = 0.38001 0.07253
# Poissons Ratio (y) = 0.33875 0.49865
# Poissons Ratio (z) = 0.07481 0.57694
#
# Static dielectric constant tensor:
#      x y z
#    x 3.053550 0.000000 0.000000 
#    y 0.000000 3.328680 0.000000 
#    z 0.000000 0.000000 3.285790 
# 
# 
# High freq. dielectric constant tensor:
#      x y z
#    x 1.623660 0.000000 0.000000 
#    y 0.000000 1.633550 0.000000 
#    z 0.000000 0.000000 1.651870 
# 
# From -- ./inp_files/29116.got.cif
#   From: 2010.03.12/outbox.cif.g09.slc.cpg/sg65_15_cif.got.tgz:29116.got - 2010.04.10 20:52:16.
