data_PCOD8269768
_publ_section_title
;
Structure prediction by ZEFSAII (Michael W. Deem and Ramdas Pophale) SiO2 
 PCOD8269768
Probable space group: C M M M
;
_chemical_formula_sum "Si O2"
_cell_formula_units_Z 104
_cell_length_a 30.009680
_cell_length_b 9.323110
_cell_length_c 28.188820
_cell_angle_alpha 90.000000
_cell_angle_beta 90.000000
_cell_angle_gamma 90.000000
_cell_volume 7886.768065
_symmetry_space_group_name_H-M "C M M M"
_symmetry_group_IT_number 65
_symmetry_cell_setting 'orthorhombic'
loop_
_space_group_symop_operation_xyz
x,y,z
-x,-y,z
x,-y,-z
-x,y,-z
-x,-y,-z
x,y,-z
-x,y,z
x,-y,z
1/2+x,1/2+y,z
1/2-x,1/2-y,z
1/2+x,1/2-y,-z
1/2-x,1/2+y,-z
1/2-x,1/2-y,-z
1/2+x,1/2+y,-z
1/2-x,1/2+y,z
1/2+x,1/2-y,z
loop_
_atom_site_type_symbol
_atom_site_label
_atom_site_fract_x
_atom_site_fract_y
_atom_site_fract_z
Si Si1 0.552080 0.166399 0.116045
Si Si2 0.946789 0.160686 0.690292
Si Si3 0.451119 0.829502 0.500000
Si Si4 0.379048 0.665882 0.055903
Si Si5 0.292460 0.162966 0.056453
Si Si6 0.052941 0.341141 0.777753
Si Si7 0.446643 0.161293 0.601659
O O1 0.500000 0.195123 0.108848
O O2 0.577265 0.269546 0.079997
O O3 0.567147 0.208069 0.169535
O O4 0.563275 0.000000 0.105709
O O5 0.927664 0.235113 0.737809
O O6 0.927936 0.238506 0.643382
O O7 0.000000 0.165456 0.690352
O O8 0.928442 0.000000 0.689759
O O9 0.500000 0.758159 0.500000
O O10 0.427380 0.785289 0.450034
O O11 0.456098 0.000000 0.500000
O O12 0.372918 0.500000 0.070122
O O13 0.336412 0.754733 0.074241
O O14 0.385188 0.683009 0.000000
O O15 0.250000 0.250000 0.076437
O O16 0.292205 0.000000 0.076280
O O17 0.290845 0.160303 0.000000
O O18 0.071665 0.500000 0.767212
O O19 0.000000 0.345239 0.775183
O O20 0.500000 0.165811 0.599472
O O21 0.430551 0.000000 0.612700
#
# Coordination Sequence:
#
# PCOD8269768 Si02
#       7
#    16  16   8  16  16  16  16
#     4   9  18  31  44  56  70  91 120 151 181 212
#     4   9  15  20  27  41  57  70  88 117 153 191
#     4   7  10  16  25  35  45  61  87 113 137 173
#     4  10  20  31  42  58  79 100 121 143 169 206
#     4   9  16  27  44  63  81  99 118 141 169 200
#     4   8  14  25  38  48  58  75 101 132 165 200
#     4   8  12  18  27  36  47  65  88 113 142 179
#
# _framework density 13.186643999999999
#
# number of rings (size 3 to 8) (size 9 to 14) (size 15 to 20)
#    0.000    3.308    0.000    3.231    0.000    5.846 
#    0.000    3.462    0.000    2.308    0.000    0.000 
#    0.000    0.000    0.000    0.000    0.000    0.000 
#
# Total GULP energy -644327.181758 kJ/mol
# GULP energy per Si atom -12390.907341 kJ/mol
# Density = 1.315663 g / cm^3
# Si number density = 13.186644 Si / 1000 Ang^3
#
#
#
# Elastic Constant Matrix: (Units=GPa)
#
#
# Indices 1 2 3 4 5 6 
#
# 1 34.3146 32.3310 25.2097 0.0000 0.0000 0.0000
# 2 32.3310 103.8617 49.5490 0.0000 0.0000 0.0000
# 3 25.2097 49.5490 64.7209 0.0000 0.0000 0.0000
# 4 0.0000 0.0000 0.0000 12.6437 0.0000 0.0000
# 5 0.0000 0.0000 0.0000 0.0000 0.1869 0.0000
# 6 0.0000 0.0000 0.0000 0.0000 0.0000 15.1106
#
#
#
# Elastic Compliance Matrix: (Units=1/GPa)
#
#
# Indices 1 2 3 4 5 6 
#
# 1 0.045622 -0.009017 -0.010867 0.000000 0.000000 0.000000
# 2 -0.009017 0.016950 -0.009465 0.000000 0.000000 0.000000
# 3 -0.010867 -0.009465 0.026930 0.000000 0.000000 0.000000
# 4 0.000000 0.000000 0.000000 0.079091 0.000000 0.000000
# 5 0.000000 0.000000 0.000000 0.000000 5.349140 0.000000
# 6 0.000000 0.000000 0.000000 0.000000 0.000000 0.066179
#
#
# Mechanical properties :
#
#
# Convention : Reuss Voigt Hill
#
# Bulk Modulus (GPa) = 32.46294 46.34184 39.40239
# Shear Modulus (GPa) = 0.88451 11.97540 6.42995
#
# Velocity S-wave (km/s) = 0.81989 3.01682 2.21059
# Velocity P-wave (km/s) = 5.05646 6.88144 6.03829
#
# Compressibility (1/GPa) = 0.03080436
#
# Stress axis : x y z
#
# Youngs Moduli (GPa) = 21.91945 58.99568 37.13391
#
# Poissons Ratio (x) = 0.53198 0.40353
# Poissons Ratio (y) = 0.19765 0.35145
# Poissons Ratio (z) = 0.23819 0.55837
#
# Static dielectric constant tensor:
#      x y z
#    x 2.151490 0.000000 0.000000 
#    y 0.000000 2.768870 0.000000 
#    z 0.000000 0.000000 2.803950 
# 
# 
# High freq. dielectric constant tensor:
#      x y z
#    x 1.427460 0.000000 0.000000 
#    y 0.000000 1.508380 0.000000 
#    z 0.000000 0.000000 1.497740 
# 
# From -- ./inp_files/78353.got.cif
#   From: 2010.03.12/outbox.cif.g09.slc.cpg/sg65_40_cif.got.tgz:78353.got - 2010.04.10 20:52:16.
