data_PCOD8269590
_publ_section_title
;
Structure prediction by ZEFSAII (Michael W. Deem and Ramdas Pophale) SiO2 
 PCOD8269590
Probable space group: C M M M
;
_chemical_formula_sum "Si O2"
_cell_formula_units_Z 88
_cell_length_a 19.061511
_cell_length_b 27.175909
_cell_length_c 8.872863
_cell_angle_alpha 90.000000
_cell_angle_beta 90.000000
_cell_angle_gamma 90.000000
_cell_volume 4596.266263
_symmetry_space_group_name_H-M "C M M M"
_symmetry_group_IT_number 65
_symmetry_cell_setting 'orthorhombic'
loop_
_space_group_symop_operation_xyz
x,y,z
-x,-y,z
x,-y,-z
-x,y,-z
-x,-y,-z
x,y,-z
-x,y,z
x,-y,z
1/2+x,1/2+y,z
1/2-x,1/2-y,z
1/2+x,1/2-y,-z
1/2-x,1/2+y,-z
1/2-x,1/2-y,-z
1/2+x,1/2+y,-z
1/2-x,1/2+y,z
1/2+x,1/2-y,z
loop_
_atom_site_type_symbol
_atom_site_label
_atom_site_fract_x
_atom_site_fract_y
_atom_site_fract_z
Si Si1 0.304704 0.619476 0.824514
Si Si2 0.921230 0.692055 0.679385
Si Si3 0.822631 0.778299 0.329166
Si Si4 0.079395 0.500000 0.679365
Si Si5 0.419370 0.442870 0.671844
Si Si6 0.160049 0.403479 0.320732
O O1 0.319410 0.675346 0.778808
O O2 0.373031 0.587912 0.786900
O O3 0.238976 0.596123 0.738416
O O4 0.288928 0.617255 0.000000
O O5 0.921509 0.689493 0.500000
O O6 0.882854 0.741803 0.732575
O O7 0.880488 0.644398 0.742494
O O8 0.000000 0.692120 0.744384
O O9 0.838942 0.795668 0.500000
O O10 0.750000 0.750000 0.325173
O O11 0.077546 0.500000 0.500000
O O12 0.119731 0.548247 0.739065
O O13 0.000000 0.500000 0.742910
O O14 0.399512 0.429432 0.500000
O O15 0.500000 0.429452 0.703125
O O16 0.405602 0.500000 0.701979
O O17 0.162897 0.402805 0.500000
#
# Coordination Sequence:
#
# PCOD8269590 Si02
#       6
#    16  16  16   8  16  16
#     4  12  25  37  55  85 122 157 191 230 283 351
#     4   9  17  31  56  85 110 141 187 243 292 335
#     4  10  19  36  58  81 109 145 193 243 291 335
#     4   9  18  32  57  91 118 143 186 247 295 330
#     4   9  20  41  67  90 112 144 190 241 289 338
#     4  10  19  35  57  84 116 151 193 236 284 338
#
# _framework density 19.145975
#
# number of rings (size 3 to 8) (size 9 to 14) (size 15 to 20)
#    0.000    2.091    1.818    2.727    1.273    4.000 
#    0.000    2.727    0.000    3.818    0.000    0.000 
#    0.000    0.000    0.000    0.000    0.000    0.000 
#
# Total GULP energy -545692.314676 kJ/mol
# GULP energy per Si atom -12402.098061 kJ/mol
# Density = 1.910240 g / cm^3
# Si number density = 19.145975 Si / 1000 Ang^3
#
#
#
# Elastic Constant Matrix: (Units=GPa)
#
#
# Indices 1 2 3 4 5 6 
#
# 1 123.4077 66.6624 23.8670 0.0000 0.0000 0.0000
# 2 66.6624 121.0726 28.6470 0.0000 0.0000 0.0000
# 3 23.8670 28.6470 36.3975 0.0000 0.0000 0.0000
# 4 0.0000 0.0000 0.0000 28.2193 0.0000 0.0000
# 5 0.0000 0.0000 0.0000 0.0000 5.7429 0.0000
# 6 0.0000 0.0000 0.0000 0.0000 0.0000 37.4208
#
#
#
# Elastic Compliance Matrix: (Units=1/GPa)
#
#
# Indices 1 2 3 4 5 6 
#
# 1 0.011835 -0.005751 -0.003234 0.000000 0.000000 0.000000
# 2 -0.005751 0.012944 -0.006417 0.000000 0.000000 0.000000
# 3 -0.003234 -0.006417 0.034646 0.000000 0.000000 0.000000
# 4 0.000000 0.000000 0.000000 0.035437 0.000000 0.000000
# 5 0.000000 0.000000 0.000000 0.000000 0.174129 0.000000
# 6 0.000000 0.000000 0.000000 0.000000 0.000000 0.026723
#
#
# Mechanical properties :
#
#
# Convention : Reuss Voigt Hill
#
# Bulk Modulus (GPa) = 34.93954 57.69231 46.31592
# Shear Modulus (GPa) = 14.87833 25.05669 19.96751
#
# Velocity S-wave (km/s) = 2.79068 3.62155 3.23291
# Velocity P-wave (km/s) = 5.35467 6.90549 6.17892
#
# Compressibility (1/GPa) = 0.02862087
#
# Stress axis : x y z
#
# Youngs Moduli (GPa) = 84.49162 77.25310 28.86370
#
# Poissons Ratio (x) = 0.44431 0.09335
# Poissons Ratio (y) = 0.48594 0.18521
# Poissons Ratio (z) = 0.27327 0.49571
#
# Static dielectric constant tensor:
#      x y z
#    x 3.674930 0.000000 0.000000 
#    y 0.000000 3.528870 0.000000 
#    z 0.000000 0.000000 3.050360 
# 
# 
# High freq. dielectric constant tensor:
#      x y z
#    x 1.758180 0.000000 0.000000 
#    y 0.000000 1.756060 0.000000 
#    z 0.000000 0.000000 1.697570 
# 
# From -- ./inp_files/11842.got.cif
#   From: 2010.03.12/outbox.cif.g09.slc.cpg/sg65_6_cif.got.tgz:11842.got - 2010.04.10 20:52:16.
