data_PCOD8269914
_publ_section_title
;
Structure prediction by ZEFSAII (Michael W. Deem and Ramdas Pophale) SiO2 
 PCOD8269914
Probable space group: C M M M
;
_chemical_formula_sum "Si O2"
_cell_formula_units_Z 80
_cell_length_a 8.836043
_cell_length_b 25.913576
_cell_length_c 19.796921
_cell_angle_alpha 90.000000
_cell_angle_beta 90.000000
_cell_angle_gamma 90.000000
_cell_volume 4532.969733
_symmetry_space_group_name_H-M "C M M M"
_symmetry_group_IT_number 65
_symmetry_cell_setting 'orthorhombic'
loop_
_space_group_symop_operation_xyz
x,y,z
-x,-y,z
x,-y,-z
-x,y,-z
-x,-y,-z
x,y,-z
-x,y,z
x,-y,z
1/2+x,1/2+y,z
1/2-x,1/2-y,z
1/2+x,1/2-y,-z
1/2-x,1/2+y,-z
1/2-x,1/2-y,-z
1/2+x,1/2+y,-z
1/2-x,1/2+y,z
1/2+x,1/2-y,z
loop_
_atom_site_type_symbol
_atom_site_label
_atom_site_fract_x
_atom_site_fract_y
_atom_site_fract_z
Si Si1 0.320438 0.195221 0.500000
Si Si2 0.320626 0.303435 0.778945
Si Si3 0.674474 0.159334 0.643283
Si Si4 0.330980 0.055772 0.706095
Si Si5 0.676123 0.000000 0.078546
Si Si6 0.824131 0.912377 0.835469
O O1 0.500000 0.196014 0.500000
O O2 0.250000 0.250000 0.500000
O O3 0.259568 0.169416 0.431190
O O4 0.500000 0.298608 0.778531
O O5 0.250000 0.250000 0.807599
O O6 0.266025 0.311371 0.701856
O O7 0.270524 0.352002 0.827049
O O8 0.500000 0.176829 0.650150
O O9 0.695761 0.098066 0.649155
O O10 0.500000 0.062402 0.737809
O O11 0.207480 0.060026 0.764670
O O12 0.313587 0.000000 0.671196
O O13 0.741281 0.054029 0.107366
O O14 0.500000 0.000000 0.094536
O O15 0.713802 0.000000 0.000000
O O16 0.000000 0.914303 0.852445
#
# Coordination Sequence:
#
# PCOD8269914 Si02
#       6
#     8  16  16  16   8  16
#     4  10  20  32  45  61  87 123 164 210 258 307
#     4  10  20  33  51  77 104 132 169 213 258 303
#     4   9  18  31  46  67  95 128 166 210 257 305
#     4   9  16  28  48  71  96 127 163 202 249 302
#     4  11  23  37  55  81 111 140 169 200 239 291
#     4  10  20  33  52  78 106 135 169 208 250 293
#
# _framework density 17.648475000000001
#
# number of rings (size 3 to 8) (size 9 to 14) (size 15 to 20)
#    0.000    2.300    1.000    2.100    0.000    5.600 
#    0.000    0.500    0.000    3.600    0.000    0.000 
#    0.000    7.200    0.000    0.000    0.000    0.000 
#
# Total GULP energy -495639.240737 kJ/mol
# GULP energy per Si atom -12390.981018 kJ/mol
# Density = 1.760831 g / cm^3
# Si number density = 17.648475 Si / 1000 Ang^3
#
#
#
# Elastic Constant Matrix: (Units=GPa)
#
#
# Indices 1 2 3 4 5 6 
#
# 1 59.8020 48.8556 39.4852 0.0000 0.0000 0.0000
# 2 48.8556 165.2131 64.1035 0.0000 0.0000 0.0000
# 3 39.4852 64.1035 98.7303 0.0000 0.0000 0.0000
# 4 0.0000 0.0000 0.0000 25.9877 0.0000 0.0000
# 5 0.0000 0.0000 0.0000 0.0000 18.1325 0.0000
# 6 0.0000 0.0000 0.0000 0.0000 0.0000 27.7675
#
#
#
# Elastic Compliance Matrix: (Units=1/GPa)
#
#
# Indices 1 2 3 4 5 6 
#
# 1 0.025221 -0.004738 -0.007010 0.000000 0.000000 0.000000
# 2 -0.004738 0.008981 -0.003936 0.000000 0.000000 0.000000
# 3 -0.007010 -0.003936 0.015488 0.000000 0.000000 0.000000
# 4 0.000000 0.000000 0.000000 0.038480 0.000000 0.000000
# 5 0.000000 0.000000 0.000000 0.000000 0.055149 0.000000
# 6 0.000000 0.000000 0.000000 0.000000 0.000000 0.036013
#
#
# Mechanical properties :
#
#
# Convention : Reuss Voigt Hill
#
# Bulk Modulus (GPa) = 54.58272 69.84821 62.21546
# Shear Modulus (GPa) = 23.06163 25.79763 24.42963
#
# Velocity S-wave (km/s) = 3.61878 3.82743 3.72457
# Velocity P-wave (km/s) = 6.96101 7.69387 7.33660
#
# Compressibility (1/GPa) = 0.01832082
#
# Stress axis : x y z
#
# Youngs Moduli (GPa) = 39.64872 111.34258 64.56577
#
# Poissons Ratio (x) = 0.52757 0.45263
# Poissons Ratio (y) = 0.18787 0.25416
# Poissons Ratio (z) = 0.27795 0.43829
#
# Static dielectric constant tensor:
#      x y z
#    x 3.311790 0.000000 0.000000 
#    y 0.000000 3.649810 0.000000 
#    z 0.000000 0.000000 3.046480 
# 
# 
# High freq. dielectric constant tensor:
#      x y z
#    x 1.683190 0.000000 0.000000 
#    y 0.000000 1.699690 0.000000 
#    z 0.000000 0.000000 1.645000 
# 
# From -- ./inp_files/49910.got.cif
#   From: 2010.03.12/outbox.cif.g09.slc.cpg/sg65_25_cif.got.tgz:49910.got - 2010.04.10 20:52:16.
