data_PCOD8269795
_publ_section_title
;
Structure prediction by ZEFSAII (Michael W. Deem and Ramdas Pophale) SiO2 
 PCOD8269795
Probable space group: C M M M
;
_chemical_formula_sum "Si O2"
_cell_formula_units_Z 104
_cell_length_a 18.033987
_cell_length_b 18.846432
_cell_length_c 18.824770
_cell_angle_alpha 90.000000
_cell_angle_beta 90.000000
_cell_angle_gamma 90.000000
_cell_volume 6398.093358
_symmetry_space_group_name_H-M "C M M M"
_symmetry_group_IT_number 65
_symmetry_cell_setting 'orthorhombic'
loop_
_space_group_symop_operation_xyz
x,y,z
-x,-y,z
x,-y,-z
-x,y,-z
-x,-y,-z
x,y,-z
-x,y,z
x,-y,z
1/2+x,1/2+y,z
1/2-x,1/2-y,z
1/2+x,1/2-y,-z
1/2-x,1/2+y,-z
1/2-x,1/2-y,-z
1/2+x,1/2+y,-z
1/2-x,1/2+y,z
1/2+x,1/2-y,z
loop_
_atom_site_type_symbol
_atom_site_label
_atom_site_fract_x
_atom_site_fract_y
_atom_site_fract_z
Si Si1 0.836820 0.081059 0.345157
Si Si2 0.587281 0.342060 0.783955
Si Si3 0.412114 0.420540 0.921849
Si Si4 0.583757 0.916282 0.500000
Si Si5 0.337990 0.080950 0.354237
Si Si6 0.585652 0.302281 0.421171
Si Si7 0.085692 0.704914 0.706070
O O1 0.865094 0.112072 0.270697
O O2 0.749425 0.088738 0.353644
O O3 0.872271 0.123485 0.410622
O O4 0.862227 0.000000 0.350594
O O5 0.500000 0.358426 0.771802
O O6 0.614673 0.364250 0.862629
O O7 0.602010 0.257629 0.772571
O O8 0.500000 0.421443 0.923864
O O9 0.383516 0.500000 0.903018
O O10 0.381887 0.397839 0.000000
O O11 0.500000 0.882872 0.500000
O O12 0.627975 0.892439 0.429435
O O13 0.577267 0.000000 0.500000
O O14 0.369432 0.131077 0.290822
O O15 0.361964 0.000000 0.338296
O O16 0.600803 0.272593 0.500000
O O17 0.500000 0.318463 0.407282
O O18 0.613807 0.244786 0.364935
O O19 0.000000 0.684685 0.702074
#
# Coordination Sequence:
#
# PCOD8269795 Si02
#       7
#    16  16  16   8  16  16  16
#     4  10  20  31  44  62  88 118 149 185 223 262
#     4   9  17  29  45  67  95 126 156 179 210 262
#     4   8  13  22  40  68  99 127 154 185 216 248
#     4   9  18  32  48  63  79 103 136 185 251 299
#     4  10  21  33  46  67  87 106 143 191 242 290
#     4   9  19  32  44  60  81 111 150 183 215 260
#     4   9  18  32  48  64  84 112 146 185 229 275
#
# _framework density 16.254842
#
# number of rings (size 3 to 8) (size 9 to 14) (size 15 to 20)
#    0.000    2.846    0.000    2.769    2.154    5.538 
#    0.000    1.538    0.000    0.000    0.000    2.154 
#    0.000    1.846    0.000    6.000    0.000    0.154 
#
# Total GULP energy -644472.362671 kJ/mol
# GULP energy per Si atom -12393.699282 kJ/mol
# Density = 1.621785 g / cm^3
# Si number density = 16.254842 Si / 1000 Ang^3
#
#
#
# Elastic Constant Matrix: (Units=GPa)
#
#
# Indices 1 2 3 4 5 6 
#
# 1 45.2461 29.2911 19.6612 0.0000 0.0000 0.0000
# 2 29.2911 91.8571 37.8053 0.0000 0.0000 0.0000
# 3 19.6612 37.8053 95.5433 0.0000 0.0000 0.0000
# 4 0.0000 0.0000 0.0000 23.2675 0.0000 0.0000
# 5 0.0000 0.0000 0.0000 0.0000 9.3274 0.0000
# 6 0.0000 0.0000 0.0000 0.0000 0.0000 23.1598
#
#
#
# Elastic Compliance Matrix: (Units=1/GPa)
#
#
# Indices 1 2 3 4 5 6 
#
# 1 0.028423 -0.007951 -0.002703 0.000000 0.000000 0.000000
# 2 -0.007951 0.015228 -0.004390 0.000000 0.000000 0.000000
# 3 -0.002703 -0.004390 0.012760 0.000000 0.000000 0.000000
# 4 0.000000 0.000000 0.000000 0.042978 0.000000 0.000000
# 5 0.000000 0.000000 0.000000 0.000000 0.107212 0.000000
# 6 0.000000 0.000000 0.000000 0.000000 0.000000 0.043178
#
#
# Mechanical properties :
#
#
# Convention : Reuss Voigt Hill
#
# Bulk Modulus (GPa) = 37.98779 45.12906 41.55842
# Shear Modulus (GPa) = 17.32255 20.87684 19.09970
#
# Velocity S-wave (km/s) = 3.26803 3.58767 3.43157
# Velocity P-wave (km/s) = 6.13684 6.70712 6.42831
#
# Compressibility (1/GPa) = 0.02632425
#
# Stress axis : x y z
#
# Youngs Moduli (GPa) = 35.18263 65.66651 78.37270
#
# Poissons Ratio (x) = 0.52212 0.21183
# Poissons Ratio (y) = 0.27974 0.34402
# Poissons Ratio (z) = 0.09509 0.28824
#
# Static dielectric constant tensor:
#      x y z
#    x 2.879550 0.000000 0.000000 
#    y 0.000000 3.209020 0.000000 
#    z 0.000000 0.000000 3.172130 
# 
# 
# High freq. dielectric constant tensor:
#      x y z
#    x 1.603670 0.000000 0.000000 
#    y 0.000000 1.627760 0.000000 
#    z 0.000000 0.000000 1.597460 
# 
# From -- ./inp_files/63923.got.cif
#   From: 2010.03.12/outbox.cif.g09.slc.cpg/sg65_32_cif.got.tgz:63923.got - 2010.04.10 20:52:16.
