data_PCOD8269390
_publ_section_title
;
Structure prediction by ZEFSAII (Michael W. Deem and Ramdas Pophale) SiO2 
 PCOD8269390
Probable space group: C M M M
;
_chemical_formula_sum "Si O2"
_cell_formula_units_Z 88
_cell_length_a 17.224983
_cell_length_b 18.572974
_cell_length_c 13.548081
_cell_angle_alpha 90.000000
_cell_angle_beta 90.000000
_cell_angle_gamma 90.000000
_cell_volume 4334.290712
_symmetry_space_group_name_H-M "C M M M"
_symmetry_group_IT_number 65
_symmetry_cell_setting 'orthorhombic'
loop_
_space_group_symop_operation_xyz
x,y,z
-x,-y,z
x,-y,-z
-x,y,-z
-x,-y,-z
x,y,-z
-x,y,z
x,-y,z
1/2+x,1/2+y,z
1/2-x,1/2-y,z
1/2+x,1/2-y,-z
1/2-x,1/2+y,-z
1/2-x,1/2-y,-z
1/2+x,1/2+y,-z
1/2-x,1/2+y,z
1/2+x,1/2-y,z
loop_
_atom_site_type_symbol
_atom_site_label
_atom_site_fract_x
_atom_site_fract_y
_atom_site_fract_z
Si Si1 0.091356 0.695186 0.698112
Si Si2 0.197590 0.417320 0.383079
Si Si3 0.649467 0.338448 0.615732
Si Si4 0.913409 0.923627 0.882439
Si Si5 0.000000 0.918169 0.617803
Si Si6 0.908412 0.770172 0.108207
O O1 0.120871 0.616509 0.667154
O O2 0.140540 0.753788 0.636356
O O3 0.109938 0.707300 0.814074
O O4 0.000000 0.702125 0.674313
O O5 0.188890 0.411131 0.500000
O O6 0.204847 0.500000 0.349805
O O7 0.271569 0.372911 0.341997
O O8 0.649887 0.351990 0.500000
O O9 0.576428 0.380620 0.663856
O O10 0.872416 0.847249 0.851776
O O11 0.000000 0.926550 0.836445
O O12 0.870955 0.000000 0.851754
O O13 0.919363 0.919998 0.000000
O O14 0.000000 0.909389 0.500000
O O15 0.000000 0.000000 0.650648
O O16 0.000000 0.782430 0.099291
O O17 0.874730 0.748658 0.000000
#
# Coordination Sequence:
#
# PCOD8269390 Si02
#       6
#    16  16  16  16   8  16
#     4  11  21  33  54  84 115 143 184 234 282 328
#     4  10  22  39  58  79 107 149 192 227 273 334
#     4  10  19  34  55  80 111 144 179 220 270 331
#     4   7   9  16  33  56  85 124 166 207 253 305
#     4   9  16  28  50  78 110 144 174 213 264 318
#     4   8  15  28  46  70 104 144 185 228 275 328
#
# _framework density 20.303207
#
# number of rings (size 3 to 8) (size 9 to 14) (size 15 to 20)
#    0.000    2.818    0.909    3.273    0.000    5.091 
#    0.000    2.727    0.000    2.727    0.000    2.545 
#    0.000    0.000    0.000    0.000    0.000    0.000 
#
# Total GULP energy -545188.082034 kJ/mol
# GULP energy per Si atom -12390.638228 kJ/mol
# Density = 2.025700 g / cm^3
# Si number density = 20.303207 Si / 1000 Ang^3
#
#
#
# Elastic Constant Matrix: (Units=GPa)
#
#
# Indices 1 2 3 4 5 6 
#
# 1 68.7641 54.7869 26.9012 0.0000 0.0000 0.0000
# 2 54.7869 113.1394 33.0077 0.0000 0.0000 0.0000
# 3 26.9012 33.0077 36.8348 0.0000 0.0000 0.0000
# 4 0.0000 0.0000 0.0000 22.1641 0.0000 0.0000
# 5 0.0000 0.0000 0.0000 0.0000 8.0557 0.0000
# 6 0.0000 0.0000 0.0000 0.0000 0.0000 28.8112
#
#
#
# Elastic Compliance Matrix: (Units=1/GPa)
#
#
# Indices 1 2 3 4 5 6 
#
# 1 0.026418 -0.009700 -0.010602 0.000000 0.000000 0.000000
# 2 -0.009700 0.015529 -0.006831 0.000000 0.000000 0.000000
# 3 -0.010602 -0.006831 0.041012 0.000000 0.000000 0.000000
# 4 0.000000 0.000000 0.000000 0.045118 0.000000 0.000000
# 5 0.000000 0.000000 0.000000 0.000000 0.124135 0.000000
# 6 0.000000 0.000000 0.000000 0.000000 0.000000 0.034709
#
#
# Mechanical properties :
#
#
# Convention : Reuss Voigt Hill
#
# Bulk Modulus (GPa) = 34.85093 49.79220 42.32156
# Shear Modulus (GPa) = 14.25511 18.74237 16.49874
#
# Velocity S-wave (km/s) = 2.65261 3.04159 2.85374
# Velocity P-wave (km/s) = 5.15600 6.07557 5.63458
#
# Compressibility (1/GPa) = 0.02869364
#
# Stress axis : x y z
#
# Youngs Moduli (GPa) = 37.85280 64.39689 24.38283
#
# Poissons Ratio (x) = 0.62464 0.25850
# Poissons Ratio (y) = 0.36716 0.16657
# Poissons Ratio (z) = 0.40130 0.43992
#
# Static dielectric constant tensor:
#      x y z
#    x 3.359840 0.000000 0.000000 
#    y 0.000000 3.733060 0.000000 
#    z 0.000000 0.000000 3.612450 
# 
# 
# High freq. dielectric constant tensor:
#      x y z
#    x 1.742100 0.000000 0.000000 
#    y 0.000000 1.787520 0.000000 
#    z 0.000000 0.000000 1.794560 
# 
# From -- ./inp_files/42503.got.cif
#   From: 2010.03.12/outbox.cif.g09.slc.cpg/sg65_22_cif.got.tgz:42503.got - 2010.04.10 20:52:16.
