data_PCOD8269825
_publ_section_title
;
Structure prediction by ZEFSAII (Michael W. Deem and Ramdas Pophale) SiO2 
 PCOD8269825
Probable space group: C M M M
;
_chemical_formula_sum "Si O2"
_cell_formula_units_Z 72
_cell_length_a 18.829176
_cell_length_b 7.870628
_cell_length_c 25.130323
_cell_angle_alpha 90.000000
_cell_angle_beta 90.000000
_cell_angle_gamma 90.000000
_cell_volume 3724.249531
_symmetry_space_group_name_H-M "C M M M"
_symmetry_group_IT_number 65
_symmetry_cell_setting 'orthorhombic'
loop_
_space_group_symop_operation_xyz
x,y,z
-x,-y,z
x,-y,-z
-x,y,-z
-x,-y,-z
x,y,-z
-x,y,z
x,-y,z
1/2+x,1/2+y,z
1/2-x,1/2-y,z
1/2+x,1/2-y,-z
1/2-x,1/2+y,-z
1/2-x,1/2-y,-z
1/2+x,1/2+y,-z
1/2-x,1/2+y,z
1/2+x,1/2-y,z
loop_
_atom_site_type_symbol
_atom_site_label
_atom_site_fract_x
_atom_site_fract_y
_atom_site_fract_z
Si Si1 0.668802 0.799792 0.156472
Si Si2 0.584298 0.688315 0.629227
Si Si3 0.420132 0.202142 0.941203
Si Si4 0.915136 0.500000 0.560080
Si Si5 0.580978 0.201271 0.256401
O O1 0.750000 0.750000 0.158550
O O2 0.632972 0.721730 0.103186
O O3 0.628779 0.726880 0.208297
O O4 0.659563 0.000000 0.155761
O O5 0.500000 0.704197 0.629692
O O6 0.608355 0.500000 0.610165
O O7 0.614991 0.831281 0.589360
O O8 0.611605 0.718961 0.689208
O O9 0.500000 0.265028 0.928633
O O10 0.418407 0.000000 0.940066
O O11 0.396677 0.266670 0.000000
O O12 0.886055 0.500000 0.500000
O O13 0.000000 0.500000 0.560772
O O14 0.500000 0.258410 0.245800
O O15 0.585717 0.000000 0.261833
#
# Coordination Sequence:
#
# PCOD8269825 Si02
#       5
#    16  16  16   8  16
#     4  10  20  31  45  68  97 127 156 199 253 304
#     4   9  16  26  42  65  92 126 167 206 248 298
#     4   8  14  27  48  71  92 119 164 212 245 286
#     4   9  16  26  40  62  98 136 165 201 248 297
#     4   9  16  29  48  65  86 122 167 210 248 294
#
# _framework density 19.332754000000001
#
# number of rings (size 3 to 8) (size 9 to 14) (size 15 to 20)
#    0.000    3.000    1.111    1.333    0.000    4.444 
#    0.000    2.222    0.000    2.000    0.000    1.556 
#    0.000    0.889    0.444    0.000    0.000    0.000 
#
# Total GULP energy -446211.591770 kJ/mol
# GULP energy per Si atom -12394.766438 kJ/mol
# Density = 1.928875 g / cm^3
# Si number density = 19.332754 Si / 1000 Ang^3
#
#
#
# Elastic Constant Matrix: (Units=GPa)
#
#
# Indices 1 2 3 4 5 6 
#
# 1 76.7930 17.8128 65.1175 0.0000 0.0000 0.0000
# 2 17.8128 73.5624 60.7718 0.0000 0.0000 0.0000
# 3 65.1175 60.7718 192.7083 0.0000 0.0000 0.0000
# 4 0.0000 0.0000 0.0000 10.0330 0.0000 0.0000
# 5 0.0000 0.0000 0.0000 0.0000 7.7439 0.0000
# 6 0.0000 0.0000 0.0000 0.0000 0.0000 15.6573
#
#
#
# Elastic Compliance Matrix: (Units=1/GPa)
#
#
# Indices 1 2 3 4 5 6 
#
# 1 0.018297 0.000916 -0.006472 0.000000 0.000000 0.000000
# 2 0.000916 0.018429 -0.006121 0.000000 0.000000 0.000000
# 3 -0.006472 -0.006121 0.009306 0.000000 0.000000 0.000000
# 4 0.000000 0.000000 0.000000 0.099671 0.000000 0.000000
# 5 0.000000 0.000000 0.000000 0.000000 0.129134 0.000000
# 6 0.000000 0.000000 0.000000 0.000000 0.000000 0.063868
#
#
# Mechanical properties :
#
#
# Convention : Reuss Voigt Hill
#
# Bulk Modulus (GPa) = 44.09443 70.05200 57.07321
# Shear Modulus (GPa) = 13.52746 19.97762 16.75254
#
# Velocity S-wave (km/s) = 2.64809 3.21807 2.94689
# Velocity P-wave (km/s) = 5.67516 7.07966 6.41596
#
# Compressibility (1/GPa) = 0.02267860
#
# Stress axis : x y z
#
# Youngs Moduli (GPa) = 54.65311 54.26237 107.45402
#
# Poissons Ratio (x) = -0.04969 0.69539
# Poissons Ratio (y) = -0.05005 0.65774
# Poissons Ratio (z) = 0.35369 0.33215
#
# Static dielectric constant tensor:
#      x y z
#    x 2.926650 0.000000 0.000000 
#    y 0.000000 3.374660 0.000000 
#    z 0.000000 0.000000 3.898510 
# 
# 
# High freq. dielectric constant tensor:
#      x y z
#    x 1.697190 0.000000 0.000000 
#    y 0.000000 1.735710 0.000000 
#    z 0.000000 0.000000 1.763270 
# 
# From -- ./inp_files/67140.got.cif
#   From: 2010.03.12/outbox.cif.g09.slc.cpg/sg65_34_cif.got.tgz:67140.got - 2010.04.10 20:52:16.
