data_PCOD8269225
_publ_section_title
;
Structure prediction by ZEFSAII (Michael W. Deem and Ramdas Pophale) SiO2 
 PCOD8269225
Probable space group: C M M M
;
_chemical_formula_sum "Si O2"
_cell_formula_units_Z 80
_cell_length_a 8.012828
_cell_length_b 27.250727
_cell_length_c 19.719619
_cell_angle_alpha 90.000000
_cell_angle_beta 90.000000
_cell_angle_gamma 90.000000
_cell_volume 4305.885064
_symmetry_space_group_name_H-M "C M M M"
_symmetry_group_IT_number 65
_symmetry_cell_setting 'orthorhombic'
loop_
_space_group_symop_operation_xyz
x,y,z
-x,-y,z
x,-y,-z
-x,y,-z
-x,-y,-z
x,y,-z
-x,y,z
x,-y,z
1/2+x,1/2+y,z
1/2-x,1/2-y,z
1/2+x,1/2-y,-z
1/2-x,1/2+y,-z
1/2-x,1/2-y,-z
1/2+x,1/2+y,-z
1/2-x,1/2+y,z
1/2+x,1/2-y,z
loop_
_atom_site_type_symbol
_atom_site_label
_atom_site_fract_x
_atom_site_fract_y
_atom_site_fract_z
Si Si1 0.191074 0.444933 0.291181
Si Si2 0.804346 0.694100 0.500000
Si Si3 0.000000 0.556156 0.919924
Si Si4 0.809373 0.899651 0.157215
Si Si5 0.695357 0.355005 0.362452
Si Si6 0.306876 0.696680 0.769306
O O1 0.237448 0.500000 0.314144
O O2 0.304383 0.429422 0.227585
O O3 0.223098 0.408990 0.354897
O O4 0.000000 0.441578 0.267021
O O5 0.750000 0.750000 0.500000
O O6 0.733408 0.667224 0.565174
O O7 0.000000 0.690294 0.500000
O O8 0.828635 0.581158 0.895040
O O9 0.000000 0.500000 0.894638
O O10 0.000000 0.560017 0.000000
O O11 0.764229 0.842652 0.172123
O O12 0.000000 0.904815 0.128450
O O13 0.500000 0.361407 0.352947
O O14 0.772618 0.320016 0.303043
O O15 0.500000 0.699004 0.756085
O O16 0.250000 0.750000 0.793473
#
# Coordination Sequence:
#
# PCOD8269225 Si02
#       6
#    16   8   8  16  16  16
#     4  10  19  33  56  84 113 145 184 232 282 333
#     4  12  24  38  55  74 103 146 184 229 285 347
#     4  11  24  40  60  88 118 153 195 233 280 343
#     4  10  21  37  57  87 120 152 190 236 287 340
#     4  10  21  36  52  78 112 143 187 232 282 339
#     4   9  19  32  54  86 112 144 186 236 287 337
#
# _framework density 18.579222999999999
#
# number of rings (size 3 to 8) (size 9 to 14) (size 15 to 20)
#    0.000    1.900    1.000    4.500    1.400    6.400 
#    0.000    1.500    0.000    3.600    0.000    0.000 
#    0.000    0.000    0.000    0.000    0.000    0.000 
#
# Total GULP energy -495905.519439 kJ/mol
# GULP energy per Si atom -12397.637986 kJ/mol
# Density = 1.853694 g / cm^3
# Si number density = 18.579223 Si / 1000 Ang^3
#
#
#
# Elastic Constant Matrix: (Units=GPa)
#
#
# Indices 1 2 3 4 5 6 
#
# 1 91.9868 52.4822 35.1279 0.0000 0.0000 0.0000
# 2 52.4822 172.5351 49.6793 0.0000 0.0000 0.0000
# 3 35.1279 49.6793 71.4088 0.0000 0.0000 0.0000
# 4 0.0000 0.0000 0.0000 28.2976 0.0000 0.0000
# 5 0.0000 0.0000 0.0000 0.0000 25.3258 0.0000
# 6 0.0000 0.0000 0.0000 0.0000 0.0000 31.0680
#
#
#
# Elastic Compliance Matrix: (Units=1/GPa)
#
#
# Indices 1 2 3 4 5 6 
#
# 1 0.014491 -0.002945 -0.005080 0.000000 0.000000 0.000000
# 2 -0.002945 0.007846 -0.004010 0.000000 0.000000 0.000000
# 3 -0.005080 -0.004010 0.019292 0.000000 0.000000 0.000000
# 4 0.000000 0.000000 0.000000 0.035339 0.000000 0.000000
# 5 0.000000 0.000000 0.000000 0.000000 0.039485 0.000000
# 6 0.000000 0.000000 0.000000 0.000000 0.000000 0.032187
#
#
# Mechanical properties :
#
#
# Convention : Reuss Voigt Hill
#
# Bulk Modulus (GPa) = 56.94610 67.83437 62.39024
# Shear Modulus (GPa) = 28.00102 30.18104 29.09103
#
# Velocity S-wave (km/s) = 3.88637 4.03482 3.96129
# Velocity P-wave (km/s) = 7.13130 7.63522 7.38756
#
# Compressibility (1/GPa) = 0.01756047
#
# Stress axis : x y z
#
# Youngs Moduli (GPa) = 69.00645 127.44596 51.83409
#
# Poissons Ratio (x) = 0.37538 0.26329
# Poissons Ratio (y) = 0.20325 0.20785
# Poissons Ratio (z) = 0.35052 0.51104
#
# Static dielectric constant tensor:
#      x y z
#    x 3.552430 0.000000 0.000000 
#    y 0.000000 3.102870 0.000000 
#    z 0.000000 0.000000 3.093960 
# 
# 
# High freq. dielectric constant tensor:
#      x y z
#    x 1.733770 0.000000 0.000000 
#    y 0.000000 1.732300 0.000000 
#    z 0.000000 0.000000 1.685630 
# 
# From -- ./inp_files/60077.got.cif
#   From: 2010.03.12/outbox.cif.g09.slc.cpg/sg65_31_cif.got.tgz:60077.got - 2010.04.10 20:52:16.
