data_PCOD8269953
_publ_section_title
;
Structure prediction by ZEFSAII (Michael W. Deem and Ramdas Pophale) SiO2 
 PCOD8269953
Probable space group: C M M M
;
_chemical_formula_sum "Si O2"
_cell_formula_units_Z 80
_cell_length_a 21.197794
_cell_length_b 15.086374
_cell_length_c 15.447611
_cell_angle_alpha 90.000000
_cell_angle_beta 90.000000
_cell_angle_gamma 90.000000
_cell_volume 4940.112759
_symmetry_space_group_name_H-M "C M M M"
_symmetry_group_IT_number 65
_symmetry_cell_setting 'orthorhombic'
loop_
_space_group_symop_operation_xyz
x,y,z
-x,-y,z
x,-y,-z
-x,y,-z
-x,-y,-z
x,y,-z
-x,y,z
x,-y,z
1/2+x,1/2+y,z
1/2-x,1/2-y,z
1/2+x,1/2-y,-z
1/2-x,1/2+y,-z
1/2-x,1/2-y,-z
1/2+x,1/2+y,-z
1/2-x,1/2+y,z
1/2+x,1/2-y,z
loop_
_atom_site_type_symbol
_atom_site_label
_atom_site_fract_x
_atom_site_fract_y
_atom_site_fract_z
Si Si1 0.634201 0.675039 0.598051
Si Si2 0.427995 0.855149 0.598616
Si Si3 0.929957 0.605015 0.095740
Si Si4 0.160273 0.398868 0.753501
Si Si5 0.250000 0.750000 0.700803
Si Si6 0.929463 0.000000 0.396313
O O1 0.653348 0.655758 0.500000
O O2 0.580143 0.749411 0.604967
O O3 0.697613 0.704036 0.643483
O O4 0.606610 0.585932 0.640487
O O5 0.413398 0.886869 0.500000
O O6 0.500000 0.879755 0.623599
O O7 0.379075 0.901580 0.663712
O O8 0.933041 0.500000 0.100421
O O9 0.883206 0.639641 0.169542
O O10 0.000000 0.643699 0.113144
O O11 0.906588 0.635084 0.000000
O O12 0.183595 0.500000 0.770885
O O13 0.218903 0.330655 0.754809
O O14 0.931758 0.000000 0.500000
O O15 0.000000 0.000000 0.358687
#
# Coordination Sequence:
#
# PCOD8269953 Si02
#       6
#    16  16  16  16   8   8
#     4   9  17  29  43  59  83 118 157 197 232 268
#     4   9  17  29  44  64  92 121 148 183 228 275
#     4   8  14  27  49  74  95 114 140 178 226 275
#     4  10  20  32  46  65  91 123 154 187 223 265
#     4  10  21  32  43  60  90 124 158 184 224 270
#     4   9  16  26  44  66  80 102 152 211 254 272
#
# _framework density 16.193961999999999
#
# number of rings (size 3 to 8) (size 9 to 14) (size 15 to 20)
#    0.000    2.900    0.000    2.100    1.400    4.800 
#    0.000    1.500    0.000    0.000    0.000    0.000 
#    0.000    0.000    0.000    2.200    0.000    0.200 
#
# Total GULP energy -495721.483561 kJ/mol
# GULP energy per Si atom -12393.037089 kJ/mol
# Density = 1.615710 g / cm^3
# Si number density = 16.193962 Si / 1000 Ang^3
#
#
#
# Elastic Constant Matrix: (Units=GPa)
#
#
# Indices 1 2 3 4 5 6 
#
# 1 95.2621 38.9434 35.2723 0.0000 0.0000 0.0000
# 2 38.9434 84.4788 19.4306 0.0000 0.0000 0.0000
# 3 35.2723 19.4306 70.7870 0.0000 0.0000 0.0000
# 4 0.0000 0.0000 0.0000 10.0262 0.0000 0.0000
# 5 0.0000 0.0000 0.0000 0.0000 9.0404 0.0000
# 6 0.0000 0.0000 0.0000 0.0000 0.0000 22.2744
#
#
#
# Elastic Compliance Matrix: (Units=1/GPa)
#
#
# Indices 1 2 3 4 5 6 
#
# 1 0.014955 -0.005529 -0.005934 0.000000 0.000000 0.000000
# 2 -0.005529 0.014679 -0.001274 0.000000 0.000000 0.000000
# 3 -0.005934 -0.001274 0.017434 0.000000 0.000000 0.000000
# 4 0.000000 0.000000 0.000000 0.099739 0.000000 0.000000
# 5 0.000000 0.000000 0.000000 0.000000 0.110614 0.000000
# 6 0.000000 0.000000 0.000000 0.000000 0.000000 0.044895
#
#
# Mechanical properties :
#
#
# Convention : Reuss Voigt Hill
#
# Bulk Modulus (GPa) = 46.31201 48.64672 47.47936
# Shear Modulus (GPa) = 14.92591 18.72697 16.82644
#
# Velocity S-wave (km/s) = 3.03924 3.40430 3.22694
# Velocity P-wave (km/s) = 6.40128 6.74964 6.57776
#
# Compressibility (1/GPa) = 0.02159267
#
# Stress axis : x y z
#
# Youngs Moduli (GPa) = 66.86787 68.12366 57.36056
#
# Poissons Ratio (x) = 0.37666 0.34039
# Poissons Ratio (y) = 0.36972 0.07309
# Poissons Ratio (z) = 0.39680 0.08681
#
# Static dielectric constant tensor:
#      x y z
#    x 3.119230 0.000000 0.000000 
#    y 0.000000 3.035730 0.000000 
#    z 0.000000 0.000000 3.031280 
# 
# 
# High freq. dielectric constant tensor:
#      x y z
#    x 1.620040 0.000000 0.000000 
#    y 0.000000 1.610100 0.000000 
#    z 0.000000 0.000000 1.592850 
# 
# From -- ./inp_files/44242.got.cif
#   From: 2010.03.12/outbox.cif.g09.slc.cpg/sg65_23_cif.got.tgz:44242.got - 2010.04.10 20:52:16.
