data_PCOD8269453
_publ_section_title
;
Structure prediction by ZEFSAII (Michael W. Deem and Ramdas Pophale) SiO2 
 PCOD8269453
Probable space group: C M M M
;
_chemical_formula_sum "Si O2"
_cell_formula_units_Z 72
_cell_length_a 15.348704
_cell_length_b 8.599282
_cell_length_c 27.021728
_cell_angle_alpha 90.000000
_cell_angle_beta 90.000000
_cell_angle_gamma 90.000000
_cell_volume 3566.539350
_symmetry_space_group_name_H-M "C M M M"
_symmetry_group_IT_number 65
_symmetry_cell_setting 'orthorhombic'
loop_
_space_group_symop_operation_xyz
x,y,z
-x,-y,z
x,-y,-z
-x,y,-z
-x,-y,-z
x,y,-z
-x,y,z
x,-y,z
1/2+x,1/2+y,z
1/2-x,1/2-y,z
1/2+x,1/2-y,-z
1/2-x,1/2+y,-z
1/2-x,1/2-y,-z
1/2+x,1/2+y,-z
1/2-x,1/2+y,z
1/2+x,1/2-y,z
loop_
_atom_site_type_symbol
_atom_site_label
_atom_site_fract_x
_atom_site_fract_y
_atom_site_fract_z
Si Si1 0.097777 0.185039 0.500000
Si Si2 0.000000 0.184623 0.669179
Si Si3 0.652351 0.183546 0.846568
Si Si4 0.159841 0.815506 0.394910
Si Si5 0.500000 0.684513 0.781865
Si Si6 0.154630 0.181961 0.946526
O O1 0.145661 0.247351 0.549157
O O2 0.000000 0.250862 0.500000
O O3 0.095201 0.000000 0.500000
O O4 0.915252 0.249830 0.640956
O O5 0.000000 0.242651 0.725406
O O6 0.000000 0.000000 0.666902
O O7 0.750000 0.250000 0.839774
O O8 0.588388 0.249735 0.805251
O O9 0.610243 0.232204 0.899936
O O10 0.656341 0.000000 0.842173
O O11 0.250000 0.750000 0.374039
O O12 0.160699 0.000000 0.394132
O O13 0.500000 0.500000 0.786871
O O14 0.250000 0.250000 0.951411
O O15 0.159052 0.000000 0.934294
O O16 0.106715 0.209636 0.000000
#
# Coordination Sequence:
#
# PCOD8269453 Si02
#       6
#     8   8  16  16   8  16
#     4   9  15  28  55  82 111 152 189 221 260 326
#     4   9  20  38  59  79 105 144 188 231 279 340
#     4  11  22  38  60  86 115 150 191 236 287 345
#     4  10  19  34  56  84 113 146 187 226 273 329
#     4  11  23  41  61  82 110 146 192 246 297 344
#     4   9  16  28  50  81 115 150 186 226 276 336
#
# _framework density 20.187636999999999
#
# number of rings (size 3 to 8) (size 9 to 14) (size 15 to 20)
#    0.000    2.111    1.111    4.667    0.000    2.222 
#    0.000    5.556    0.000    4.000    0.000    0.000 
#    0.000    0.000    0.000    0.000    0.000    0.000 
#
# Total GULP energy -446196.789214 kJ/mol
# GULP energy per Si atom -12394.355256 kJ/mol
# Density = 2.014169 g / cm^3
# Si number density = 20.187637 Si / 1000 Ang^3
#
#
#
# Elastic Constant Matrix: (Units=GPa)
#
#
# Indices 1 2 3 4 5 6 
#
# 1 137.9264 33.7303 82.3266 0.0000 0.0000 0.0000
# 2 33.7303 89.7919 49.4331 0.0000 0.0000 0.0000
# 3 82.3266 49.4331 190.2957 0.0000 0.0000 0.0000
# 4 0.0000 0.0000 0.0000 17.2852 0.0000 0.0000
# 5 0.0000 0.0000 0.0000 0.0000 3.9599 0.0000
# 6 0.0000 0.0000 0.0000 0.0000 0.0000 28.4228
#
#
#
# Elastic Compliance Matrix: (Units=1/GPa)
#
#
# Indices 1 2 3 4 5 6 
#
# 1 0.009967 -0.001599 -0.003897 0.000000 0.000000 0.000000
# 2 -0.001599 0.013252 -0.002751 0.000000 0.000000 0.000000
# 3 -0.003897 -0.002751 0.007655 0.000000 0.000000 0.000000
# 4 0.000000 0.000000 0.000000 0.057853 0.000000 0.000000
# 5 0.000000 0.000000 0.000000 0.000000 0.252530 0.000000
# 6 0.000000 0.000000 0.000000 0.000000 0.000000 0.035183
#
#
# Mechanical properties :
#
#
# Convention : Reuss Voigt Hill
#
# Bulk Modulus (GPa) = 69.53271 83.22154 76.37713
# Shear Modulus (GPa) = 12.57145 26.76853 19.66999
#
# Velocity S-wave (km/s) = 2.49816 3.64536 3.12486
# Velocity P-wave (km/s) = 6.54516 7.68321 7.13690
#
# Compressibility (1/GPa) = 0.01438172
#
# Stress axis : x y z
#
# Youngs Moduli (GPa) = 100.32960 75.46130 130.62796
#
# Poissons Ratio (x) = 0.12066 0.50902
# Poissons Ratio (y) = 0.16042 0.35932
# Poissons Ratio (z) = 0.39095 0.20757
#
# Static dielectric constant tensor:
#      x y z
#    x 3.427320 0.000000 0.000000 
#    y 0.000000 3.442570 0.000000 
#    z 0.000000 0.000000 4.235640 
# 
# 
# High freq. dielectric constant tensor:
#      x y z
#    x 1.778340 0.000000 0.000000 
#    y 0.000000 1.769000 0.000000 
#    z 0.000000 0.000000 1.799330 
# 
# From -- ./inp_files/74645.got.cif
#   From: 2010.03.12/outbox.cif.g09.slc.cpg/sg65_38_cif.got.tgz:74645.got - 2010.04.10 20:52:16.
