data_PCOD8269765
_publ_section_title
;
Structure prediction by ZEFSAII (Michael W. Deem and Ramdas Pophale) SiO2 
 PCOD8269765
Probable space group: C M M M
;
_chemical_formula_sum "Si O2"
_cell_formula_units_Z 88
_cell_length_a 30.451540
_cell_length_b 8.270398
_cell_length_c 24.457338
_cell_angle_alpha 90.000000
_cell_angle_beta 90.000000
_cell_angle_gamma 90.000000
_cell_volume 6159.491441
_symmetry_space_group_name_H-M "C M M M"
_symmetry_group_IT_number 65
_symmetry_cell_setting 'orthorhombic'
loop_
_space_group_symop_operation_xyz
x,y,z
-x,-y,z
x,-y,-z
-x,y,-z
-x,-y,-z
x,y,-z
-x,y,z
x,-y,z
1/2+x,1/2+y,z
1/2-x,1/2-y,z
1/2+x,1/2-y,-z
1/2-x,1/2+y,-z
1/2-x,1/2-y,-z
1/2+x,1/2+y,-z
1/2-x,1/2+y,z
1/2+x,1/2-y,z
loop_
_atom_site_type_symbol
_atom_site_label
_atom_site_fract_x
_atom_site_fract_y
_atom_site_fract_z
Si Si1 0.549105 0.813252 0.849697
Si Si2 0.613403 0.686338 0.937475
Si Si3 0.447797 0.500000 0.437600
Si Si4 0.051943 0.181549 0.737196
Si Si5 0.204930 0.319478 0.935130
Si Si6 0.552281 0.180602 0.374807
O O1 0.500000 0.744571 0.861488
O O2 0.578961 0.786420 0.902378
O O3 0.571316 0.731020 0.796272
O O4 0.546186 0.000000 0.836266
O O5 0.601509 0.500000 0.931719
O O6 0.663091 0.714514 0.916295
O O7 0.609045 0.746300 0.000000
O O8 0.500000 0.500000 0.432146
O O9 0.432035 0.500000 0.500000
O O10 0.429430 0.667688 0.410654
O O11 0.068688 0.294715 0.687718
O O12 0.000000 0.197848 0.741905
O O13 0.066449 0.000000 0.722974
O O14 0.198041 0.500000 0.913019
O O15 0.250000 0.250000 0.909410
O O16 0.209035 0.316482 0.000000
O O17 0.500000 0.185622 0.377592
O O18 0.568399 0.000000 0.394374
#
# Coordination Sequence:
#
# PCOD8269765 Si02
#       6
#    16  16   8  16  16  16
#     4  10  20  31  42  57  75  97 127 161 198 240
#     4  10  20  32  44  58  77 100 125 154 192 239
#     4   9  16  24  32  46  68  90 113 143 183 229
#     4   9  15  25  40  54  68  87 116 154 191 226
#     4   9  16  27  44  63  80  97 118 145 179 223
#     4   9  15  23  35  49  65  87 115 147 184 225
#
# _framework density 14.286894
#
# number of rings (size 3 to 8) (size 9 to 14) (size 15 to 20)
#    0.000    2.636    0.909    2.182    0.000    7.273 
#    0.000    3.636    0.000    0.000    0.000    0.000 
#    0.000    0.000    0.000    0.000    0.000    0.000 
#
# Total GULP energy -545256.684267 kJ/mol
# GULP energy per Si atom -12392.197370 kJ/mol
# Density = 1.425438 g / cm^3
# Si number density = 14.286894 Si / 1000 Ang^3
#
#
#
# Elastic Constant Matrix: (Units=GPa)
#
#
# Indices 1 2 3 4 5 6 
#
# 1 39.5780 11.8705 23.7163 0.0000 0.0000 0.0000
# 2 11.8705 85.5583 34.9524 0.0000 0.0000 0.0000
# 3 23.7163 34.9524 73.1974 0.0000 0.0000 0.0000
# 4 0.0000 0.0000 0.0000 19.9684 0.0000 0.0000
# 5 0.0000 0.0000 0.0000 0.0000 0.0962 0.0000
# 6 0.0000 0.0000 0.0000 0.0000 0.0000 15.1870
#
#
#
# Elastic Compliance Matrix: (Units=1/GPa)
#
#
# Indices 1 2 3 4 5 6 
#
# 1 0.031358 -0.000248 -0.010042 0.000000 0.000000 0.000000
# 2 -0.000248 0.014522 -0.006854 0.000000 0.000000 0.000000
# 3 -0.010042 -0.006854 0.020188 0.000000 0.000000 0.000000
# 4 0.000000 0.000000 0.000000 0.050079 0.000000 0.000000
# 5 0.000000 0.000000 0.000000 0.000000 10.391411 0.000000
# 6 0.000000 0.000000 0.000000 0.000000 0.000000 0.065846
#
#
# Mechanical properties :
#
#
# Convention : Reuss Voigt Hill
#
# Bulk Modulus (GPa) = 31.46578 37.71244 34.58911
# Shear Modulus (GPa) = 0.47089 15.56997 8.02043
#
# Velocity S-wave (km/s) = 0.57472 3.30481 2.37192
# Velocity P-wave (km/s) = 4.74473 6.40439 5.63598
#
# Compressibility (1/GPa) = 0.03178055
#
# Stress axis : x y z
#
# Youngs Moduli (GPa) = 31.88947 68.85883 49.53414
#
# Poissons Ratio (x) = 0.01711 0.49740
# Poissons Ratio (y) = 0.00792 0.33951
# Poissons Ratio (z) = 0.32022 0.47197
#
# Static dielectric constant tensor:
#      x y z
#    x 2.403290 0.000000 0.000000 
#    y 0.000000 3.027150 0.000000 
#    z 0.000000 0.000000 2.714750 
# 
# 
# High freq. dielectric constant tensor:
#      x y z
#    x 1.477680 0.000000 0.000000 
#    y 0.000000 1.567910 0.000000 
#    z 0.000000 0.000000 1.523740 
# 
# From -- ./inp_files/66215.got.cif
#   From: 2010.03.12/outbox.cif.g09.slc.cpg/sg65_34_cif.got.tgz:66215.got - 2010.04.10 20:52:16.
