data_PCOD8269821
_publ_section_title
;
Structure prediction by ZEFSAII (Michael W. Deem and Ramdas Pophale) SiO2 
 PCOD8269821
Probable space group: C M M M
;
_chemical_formula_sum "Si O2"
_cell_formula_units_Z 72
_cell_length_a 28.389071
_cell_length_b 16.964915
_cell_length_c 8.986049
_cell_angle_alpha 90.000000
_cell_angle_beta 90.000000
_cell_angle_gamma 90.000000
_cell_volume 4327.844533
_symmetry_space_group_name_H-M "C M M M"
_symmetry_group_IT_number 65
_symmetry_cell_setting 'orthorhombic'
loop_
_space_group_symop_operation_xyz
x,y,z
-x,-y,z
x,-y,-z
-x,y,-z
-x,-y,-z
x,y,-z
-x,y,z
x,-y,z
1/2+x,1/2+y,z
1/2-x,1/2-y,z
1/2+x,1/2-y,-z
1/2-x,1/2+y,-z
1/2-x,1/2-y,-z
1/2+x,1/2+y,-z
1/2-x,1/2+y,z
1/2+x,1/2-y,z
loop_
_atom_site_type_symbol
_atom_site_label
_atom_site_fract_x
_atom_site_fract_y
_atom_site_fract_z
Si Si1 0.444376 0.500000 0.666277
Si Si2 0.139240 0.780925 0.324070
Si Si3 0.719312 0.828373 0.664292
Si Si4 0.203193 0.908755 0.827812
Si Si5 0.053946 0.840900 0.824531
O O1 0.500000 0.500000 0.654731
O O2 0.422292 0.500000 0.500000
O O3 0.428154 0.576567 0.756668
O O4 0.133213 0.789610 0.500000
O O5 0.167307 0.700276 0.283317
O O6 0.166388 0.858107 0.265930
O O7 0.088008 0.774571 0.245827
O O8 0.716802 0.867231 0.500000
O O9 0.750000 0.750000 0.655755
O O10 0.742906 0.890003 0.777659
O O11 0.192333 0.000000 0.798393
O O12 0.198097 0.886461 0.000000
O O13 0.000000 0.821577 0.781014
O O14 0.060360 0.845169 0.000000
#
# Coordination Sequence:
#
# PCOD8269821 Si02
#       5
#     8  16  16  16  16
#     4   9  17  29  43  57  77 109 145 181 221 257
#     4  10  20  32  47  65  87 118 153 186 222 264
#     4   8  16  31  47  64  86 113 146 182 221 264
#     4  10  20  31  45  67  92 117 147 183 222 265
#     4  10  20  32  45  62  86 115 148 187 225 260
#
# _framework density 16.636457
#
# number of rings (size 3 to 8) (size 9 to 14) (size 15 to 20)
#    0.000    2.556    0.000    3.667    1.556    9.333 
#    0.000    0.000    0.000    0.000    0.000    0.000 
#    0.000    0.889    0.000    9.778    0.000    7.111 
#
# Total GULP energy -446234.964002 kJ/mol
# GULP energy per Si atom -12395.415667 kJ/mol
# Density = 1.659859 g / cm^3
# Si number density = 16.636457 Si / 1000 Ang^3
#
#
#
# Elastic Constant Matrix: (Units=GPa)
#
#
# Indices 1 2 3 4 5 6 
#
# 1 94.0032 15.8365 38.2552 0.0000 0.0000 0.0000
# 2 15.8365 17.5220 15.7803 0.0000 0.0000 0.0000
# 3 38.2552 15.7803 84.1398 0.0000 0.0000 0.0000
# 4 0.0000 0.0000 0.0000 22.0700 0.0000 0.0000
# 5 0.0000 0.0000 0.0000 0.0000 30.0266 0.0000
# 6 0.0000 0.0000 0.0000 0.0000 0.0000 24.2411
#
#
#
# Elastic Compliance Matrix: (Units=1/GPa)
#
#
# Indices 1 2 3 4 5 6 
#
# 1 0.013994 -0.008324 -0.004802 0.000000 0.000000 0.000000
# 2 -0.008324 0.073621 -0.010023 0.000000 0.000000 0.000000
# 3 -0.004802 -0.010023 0.015948 0.000000 0.000000 0.000000
# 4 0.000000 0.000000 0.000000 0.045310 0.000000 0.000000
# 5 0.000000 0.000000 0.000000 0.000000 0.033304 0.000000
# 6 0.000000 0.000000 0.000000 0.000000 0.000000 0.041252
#
#
# Mechanical properties :
#
#
# Convention : Reuss Voigt Hill
#
# Bulk Modulus (GPa) = 17.46230 37.26766 27.36498
# Shear Modulus (GPa) = 17.31214 23.65374 20.48294
#
# Velocity S-wave (km/s) = 3.22936 3.77477 3.51266
# Velocity P-wave (km/s) = 4.94208 6.43804 5.73901
#
# Compressibility (1/GPa) = 0.05726624
#
# Stress axis : x y z
#
# Youngs Moduli (GPa) = 71.45795 13.58313 62.70436
#
# Poissons Ratio (x) = 0.11306 0.30108
# Poissons Ratio (y) = 0.59480 0.62848
# Poissons Ratio (z) = 0.34311 0.13614
#
# Static dielectric constant tensor:
#      x y z
#    x 3.457110 0.000000 0.000000 
#    y 0.000000 2.918060 0.000000 
#    z 0.000000 0.000000 3.260800 
# 
# 
# High freq. dielectric constant tensor:
#      x y z
#    x 1.638400 0.000000 0.000000 
#    y 0.000000 1.585410 0.000000 
#    z 0.000000 0.000000 1.655960 
# 
# From -- ./inp_files/16199.got.cif
#   From: 2010.03.12/outbox.cif.g09.slc.cpg/sg65_9_cif.got.tgz:16199.got - 2010.04.10 20:52:16.
