data_PCOD8269394
_publ_section_title
;
Structure prediction by ZEFSAII (Michael W. Deem and Ramdas Pophale) SiO2 
 PCOD8269394
Probable space group: C M M M
;
_chemical_formula_sum "Si O2"
_cell_formula_units_Z 104
_cell_length_a 21.332612
_cell_length_b 13.810685
_cell_length_c 17.457432
_cell_angle_alpha 90.000000
_cell_angle_beta 90.000000
_cell_angle_gamma 90.000000
_cell_volume 5143.273431
_symmetry_space_group_name_H-M "C M M M"
_symmetry_group_IT_number 65
_symmetry_cell_setting 'orthorhombic'
loop_
_space_group_symop_operation_xyz
x,y,z
-x,-y,z
x,-y,-z
-x,y,-z
-x,-y,-z
x,y,-z
-x,y,z
x,-y,z
1/2+x,1/2+y,z
1/2-x,1/2-y,z
1/2+x,1/2-y,-z
1/2-x,1/2+y,-z
1/2-x,1/2-y,-z
1/2+x,1/2+y,-z
1/2-x,1/2+y,z
1/2+x,1/2-y,z
loop_
_atom_site_type_symbol
_atom_site_label
_atom_site_fract_x
_atom_site_fract_y
_atom_site_fract_z
Si Si1 0.719775 0.609124 0.868423
Si Si2 0.852883 0.614871 0.642998
Si Si3 0.861207 0.109069 0.723670
Si Si4 0.069167 0.615283 0.500000
Si Si5 0.572307 0.212039 0.225218
Si Si6 0.779579 0.115334 0.413661
Si Si7 0.654748 0.204838 0.086222
O O1 0.709406 0.500000 0.899638
O O2 0.699150 0.616401 0.779681
O O3 0.678170 0.683726 0.917606
O O4 0.792555 0.636979 0.875425
O O5 0.850084 0.500000 0.645524
O O6 0.897307 0.653886 0.575766
O O7 0.880604 0.649463 0.723427
O O8 0.784165 0.658442 0.623769
O O9 0.918226 0.175459 0.752468
O O10 0.838326 0.144854 0.639827
O O11 0.887297 0.000000 0.720951
O O12 0.068447 0.500000 0.500000
O O13 0.000000 0.659586 0.500000
O O14 0.500000 0.181781 0.236220
O O15 0.591898 0.195415 0.136812
O O16 0.789385 0.155340 0.500000
O O17 0.773245 0.000000 0.415447
O O18 0.639660 0.170423 0.000000
#
# Coordination Sequence:
#
# PCOD8269394 Si02
#       7
#    16  16  16   8  16  16  16
#     4   9  17  33  58  86 112 138 169 213 272 330
#     4  10  19  34  55  81 110 140 175 216 264 318
#     4   9  19  36  57  79 105 138 178 225 273 320
#     4   9  16  28  48  73 105 143 176 209 249 297
#     4  11  24  39  54  74 103 144 191 227 260 311
#     4   9  16  30  54  82 110 137 166 210 272 328
#     4  10  21  35  54  82 111 139 175 219 269 325
#
# _framework density 20.220585
#
# number of rings (size 3 to 8) (size 9 to 14) (size 15 to 20)
#    0.000    2.385    0.769    2.308    0.000    6.462 
#    1.385    0.769    0.000    0.000    0.000    8.615 
#    0.000    0.000    0.000    0.000    0.000    0.000 
#
# Total GULP energy -644697.070847 kJ/mol
# GULP energy per Si atom -12398.020593 kJ/mol
# Density = 2.017456 g / cm^3
# Si number density = 20.220585 Si / 1000 Ang^3
#
#
#
# Elastic Constant Matrix: (Units=GPa)
#
#
# Indices 1 2 3 4 5 6 
#
# 1 68.1203 -3.7794 31.1364 0.0000 0.0000 0.0000
# 2 -3.7794 33.0489 7.6830 0.0000 0.0000 0.0000
# 3 31.1364 7.6830 115.2803 0.0000 0.0000 0.0000
# 4 0.0000 0.0000 0.0000 20.3754 0.0000 0.0000
# 5 0.0000 0.0000 0.0000 0.0000 19.8656 0.0000
# 6 0.0000 0.0000 0.0000 0.0000 0.0000 17.5533
#
#
#
# Elastic Compliance Matrix: (Units=1/GPa)
#
#
# Indices 1 2 3 4 5 6 
#
# 1 0.017048 0.003068 -0.004809 0.000000 0.000000 0.000000
# 2 0.003068 0.031286 -0.002914 0.000000 0.000000 0.000000
# 3 -0.004809 -0.002914 0.010168 0.000000 0.000000 0.000000
# 4 0.000000 0.000000 0.000000 0.049079 0.000000 0.000000
# 5 0.000000 0.000000 0.000000 0.000000 0.050338 0.000000
# 6 0.000000 0.000000 0.000000 0.000000 0.000000 0.056969
#
#
# Mechanical properties :
#
#
# Convention : Reuss Voigt Hill
#
# Bulk Modulus (GPa) = 20.32854 31.83661 26.08258
# Shear Modulus (GPa) = 20.78173 23.65284 22.21729
#
# Velocity S-wave (km/s) = 3.20933 3.42386 3.31833
# Velocity P-wave (km/s) = 4.87938 5.60439 5.25441
#
# Compressibility (1/GPa) = 0.04919192
#
# Stress axis : x y z
#
# Youngs Moduli (GPa) = 58.65713 31.96281 98.35185
#
# Poissons Ratio (x) = -0.09805 0.47298
# Poissons Ratio (y) = -0.17993 0.28656
# Poissons Ratio (z) = 0.28208 0.09313
#
# Static dielectric constant tensor:
#      x y z
#    x 3.335060 0.000000 0.000000 
#    y 0.000000 3.658030 0.000000 
#    z 0.000000 0.000000 3.758200 
# 
# 
# High freq. dielectric constant tensor:
#      x y z
#    x 1.754440 0.000000 0.000000 
#    y 0.000000 1.786690 0.000000 
#    z 0.000000 0.000000 1.795080 
# 
# From -- ./inp_files/55837.got.cif
#   From: 2010.03.12/outbox.cif.g09.slc.cpg/sg65_28_cif.got.tgz:55837.got - 2010.04.10 20:52:16.
