data_PCOD8269804
_publ_section_title
;
Structure prediction by ZEFSAII (Michael W. Deem and Ramdas Pophale) SiO2 
 PCOD8269804
Probable space group: C M M M
;
_chemical_formula_sum "Si O2"
_cell_formula_units_Z 96
_cell_length_a 27.105711
_cell_length_b 9.292325
_cell_length_c 24.028936
_cell_angle_alpha 90.000000
_cell_angle_beta 90.000000
_cell_angle_gamma 90.000000
_cell_volume 6052.290080
_symmetry_space_group_name_H-M "C M M M"
_symmetry_group_IT_number 65
_symmetry_cell_setting 'orthorhombic'
loop_
_space_group_symop_operation_xyz
x,y,z
-x,-y,z
x,-y,-z
-x,y,-z
-x,-y,-z
x,y,-z
-x,y,z
x,-y,z
1/2+x,1/2+y,z
1/2-x,1/2-y,z
1/2+x,1/2-y,-z
1/2-x,1/2+y,-z
1/2-x,1/2-y,-z
1/2+x,1/2+y,-z
1/2-x,1/2+y,z
1/2+x,1/2-y,z
loop_
_atom_site_type_symbol
_atom_site_label
_atom_site_fract_x
_atom_site_fract_y
_atom_site_fract_z
Si Si1 0.397155 0.331215 0.672446
Si Si2 0.201029 0.835129 0.731486
Si Si3 0.201134 0.832815 0.937145
Si Si4 0.942850 0.666716 0.773051
Si Si5 0.944564 0.829258 0.560797
Si Si6 0.636351 0.331868 0.835445
O O1 0.409450 0.500000 0.680007
O O2 0.339607 0.301709 0.684112
O O3 0.431358 0.245014 0.715112
O O4 0.408909 0.274748 0.610142
O O5 0.250000 0.750000 0.716972
O O6 0.178817 0.790483 0.791224
O O7 0.216436 0.000000 0.731755
O O8 0.250000 0.750000 0.918346
O O9 0.155928 0.791771 0.896795
O O10 0.213827 0.000000 0.931709
O O11 0.185573 0.791045 0.000000
O O12 0.928000 0.500000 0.767826
O O13 0.912325 0.738891 0.823477
O O14 0.000000 0.685495 0.787716
O O15 0.926207 0.772790 0.500000
O O16 0.000000 0.772657 0.572099
O O17 0.944824 0.000000 0.560103
O O18 0.622748 0.500000 0.829729
#
# Coordination Sequence:
#
# PCOD8269804 Si02
#       6
#    16  16  16  16  16  16
#     4   9  17  29  45  65  88 114 144 177 215 259
#     4   9  17  27  40  60  84 111 143 175 209 250
#     4   9  17  29  46  69  95 120 147 180 217 259
#     4  10  20  31  44  65  90 114 143 179 218 261
#     4   8  13  22  40  66  89 108 136 176 217 254
#     4   9  18  31  46  65  88 115 147 179 213 256
#
# _framework density 15.861764000000001
#
# number of rings (size 3 to 8) (size 9 to 14) (size 15 to 20)
#    0.000    3.000    0.000    3.000    0.000    5.333 
#    0.000    0.000    0.000    1.500    0.000    5.833 
#    0.000    0.000    0.000    0.000    0.000    0.333 
#
# Total GULP energy -595035.710768 kJ/mol
# GULP energy per Si atom -12396.577308 kJ/mol
# Density = 1.582566 g / cm^3
# Si number density = 15.861764 Si / 1000 Ang^3
#
#
#
# Elastic Constant Matrix: (Units=GPa)
#
#
# Indices 1 2 3 4 5 6 
#
# 1 102.9466 49.4121 64.0439 0.0000 0.0000 0.0000
# 2 49.4121 56.1580 38.6221 0.0000 0.0000 0.0000
# 3 64.0439 38.6221 121.7753 0.0000 0.0000 0.0000
# 4 0.0000 0.0000 0.0000 11.0248 0.0000 0.0000
# 5 0.0000 0.0000 0.0000 0.0000 24.5144 0.0000
# 6 0.0000 0.0000 0.0000 0.0000 0.0000 27.8069
#
#
#
# Elastic Compliance Matrix: (Units=1/GPa)
#
#
# Indices 1 2 3 4 5 6 
#
# 1 0.020008 -0.013260 -0.006317 0.000000 0.000000 0.000000
# 2 -0.013260 0.031563 -0.003037 0.000000 0.000000 0.000000
# 3 -0.006317 -0.003037 0.012497 0.000000 0.000000 0.000000
# 4 0.000000 0.000000 0.000000 0.090705 0.000000 0.000000
# 5 0.000000 0.000000 0.000000 0.000000 0.040792 0.000000
# 6 0.000000 0.000000 0.000000 0.000000 0.000000 0.035962
#
#
# Mechanical properties :
#
#
# Convention : Reuss Voigt Hill
#
# Bulk Modulus (GPa) = 53.07780 65.00401 59.04090
# Shear Modulus (GPa) = 17.66559 21.25599 19.46079
#
# Velocity S-wave (km/s) = 3.34087 3.66468 3.50651
# Velocity P-wave (km/s) = 6.95825 7.67965 7.32783
#
# Compressibility (1/GPa) = 0.01884027
#
# Stress axis : x y z
#
# Youngs Moduli (GPa) = 49.97896 31.68293 80.01784
#
# Poissons Ratio (x) = 0.42013 0.50549
# Poissons Ratio (y) = 0.66274 0.24297
# Poissons Ratio (z) = 0.31572 0.09621
#
# Static dielectric constant tensor:
#      x y z
#    x 2.912540 0.000000 0.000000 
#    y 0.000000 2.887160 0.000000 
#    z 0.000000 0.000000 3.289600 
# 
# 
# High freq. dielectric constant tensor:
#      x y z
#    x 1.595070 0.000000 0.000000 
#    y 0.000000 1.594450 0.000000 
#    z 0.000000 0.000000 1.606000 
# 
# From -- ./inp_files/68010.got.cif
#   From: 2010.03.12/outbox.cif.g09.slc.cpg/sg65_35_cif.got.tgz:68010.got - 2010.04.10 20:52:16.
