data_PCOD8269640
_publ_section_title
;
Structure prediction by ZEFSAII (Michael W. Deem and Ramdas Pophale) SiO2 
 PCOD8269640
Probable space group: C M M M
;
_chemical_formula_sum "Si O2"
_cell_formula_units_Z 64
_cell_length_a 23.794995
_cell_length_b 16.604396
_cell_length_c 7.807415
_cell_angle_alpha 90.000000
_cell_angle_beta 90.000000
_cell_angle_gamma 90.000000
_cell_volume 3084.721532
_symmetry_space_group_name_H-M "C M M M"
_symmetry_group_IT_number 65
_symmetry_cell_setting 'orthorhombic'
loop_
_space_group_symop_operation_xyz
x,y,z
-x,-y,z
x,-y,-z
-x,y,-z
-x,-y,-z
x,y,-z
-x,y,z
x,-y,z
1/2+x,1/2+y,z
1/2-x,1/2-y,z
1/2+x,1/2-y,-z
1/2-x,1/2+y,-z
1/2-x,1/2-y,-z
1/2+x,1/2+y,-z
1/2-x,1/2+y,z
1/2+x,1/2-y,z
loop_
_atom_site_type_symbol
_atom_site_label
_atom_site_fract_x
_atom_site_fract_y
_atom_site_fract_z
Si Si1 0.237355 0.591765 0.702174
Si Si2 0.936761 0.000000 0.296344
Si Si3 0.639459 0.646115 0.296903
Si Si4 0.566213 0.092176 0.500000
Si Si5 0.872121 0.324452 0.809814
O O1 0.230315 0.600718 0.500000
O O2 0.227181 0.500000 0.760072
O O3 0.298764 0.619140 0.761998
O O4 0.192518 0.649478 0.791102
O O5 0.904579 0.079378 0.231106
O O6 0.936977 0.000000 0.500000
O O7 0.000000 0.000000 0.222383
O O8 0.637030 0.656801 0.500000
O O9 0.622862 0.728964 0.208647
O O10 0.500000 0.101365 0.500000
O O11 0.589152 0.132484 0.671277
O O12 0.586174 0.000000 0.500000
O O13 0.893243 0.348087 0.000000
#
# Coordination Sequence:
#
# PCOD8269640 Si02
#       5
#    16   8  16   8  16
#     4  10  19  35  62  93 132 173 219 272 331 393
#     4   9  18  34  61  95 129 174 227 270 316 378
#     4  10  19  37  61  95 134 176 222 270 325 385
#     4  11  26  50  73  93 125 169 212 267 336 395
#     4  12  25  41  66 101 132 167 218 272 329 394
#
# _framework density 20.747415
#
# number of rings (size 3 to 8) (size 9 to 14) (size 15 to 20)
#    0.000    1.500    3.750    1.500    0.000    7.500 
#    0.000    1.875    0.000    0.750    0.000    0.000 
#    0.000    0.000    0.000    0.000    0.000    0.000 
#
# Total GULP energy -396915.042674 kJ/mol
# GULP energy per Si atom -12403.595084 kJ/mol
# Density = 2.070019 g / cm^3
# Si number density = 20.747415 Si / 1000 Ang^3
#
#
#
# Elastic Constant Matrix: (Units=GPa)
#
#
# Indices 1 2 3 4 5 6 
#
# 1 113.7180 76.3481 43.7707 0.0000 0.0000 0.0000
# 2 76.3481 178.7235 53.4115 0.0000 0.0000 0.0000
# 3 43.7707 53.4115 102.8997 0.0000 0.0000 0.0000
# 4 0.0000 0.0000 0.0000 -4.2354 0.0000 0.0000
# 5 0.0000 0.0000 0.0000 0.0000 72.2053 0.0000
# 6 0.0000 0.0000 0.0000 0.0000 0.0000 19.8981
#
#
#
# Elastic Compliance Matrix: (Units=1/GPa)
#
#
# Indices 1 2 3 4 5 6 
#
# 1 0.013149 -0.004670 -0.003169 0.000000 0.000000 0.000000
# 2 -0.004670 0.008281 -0.002312 0.000000 0.000000 0.000000
# 3 -0.003169 -0.002312 0.012266 0.000000 0.000000 0.000000
# 4 0.000000 0.000000 0.000000 -0.236107 0.000000 0.000000
# 5 0.000000 0.000000 0.000000 0.000000 0.013849 0.000000
# 6 0.000000 0.000000 0.000000 0.000000 0.000000 0.050256
#
#
# Mechanical properties :
#
#
# Convention : Reuss Voigt Hill
#
# Bulk Modulus (GPa) = 74.65932 82.48909 78.57421
# Shear Modulus (GPa) = -44.03788 32.36100 -5.83844
#
# Velocity S-wave (km/s) = -4.61214 3.95367 -1.67934
# Velocity P-wave (km/s) = 2.77500 7.79019 5.84755
#
# Compressibility (1/GPa) = 0.01339417
#
# Stress axis : x y z
#
# Youngs Moduli (GPa) = 76.05281 120.75748 81.52388
#
# Poissons Ratio (x) = 0.56392 0.25836
# Poissons Ratio (y) = 0.35516 0.18848
# Poissons Ratio (z) = 0.24102 0.27919
#
# Static dielectric constant tensor:
#      x y z
#    x 3.850280 0.000000 0.000000 
#    y 0.000000 3.915140 0.000000 
#    z 0.000000 0.000000 3.556880 
# 
# 
# High freq. dielectric constant tensor:
#      x y z
#    x 1.809030 0.000000 0.000000 
#    y 0.000000 1.826980 0.000000 
#    z 0.000000 0.000000 1.796390 
# 
# From -- ./inp_files/13534.got.cif
#   From: 2010.03.12/outbox.cif.g09.slc.cpg/sg65_7_cif.got.tgz:13534.got - 2010.04.10 20:52:16.
