data_PCOD8269509
_publ_section_title
;
Structure prediction by ZEFSAII (Michael W. Deem and Ramdas Pophale) SiO2 
 PCOD8269509
Probable space group: C M M M
;
_chemical_formula_sum "Si O2"
_cell_formula_units_Z 80
_cell_length_a 27.953830
_cell_length_b 16.766162
_cell_length_c 8.765122
_cell_angle_alpha 90.000000
_cell_angle_beta 90.000000
_cell_angle_gamma 90.000000
_cell_volume 4108.023726
_symmetry_space_group_name_H-M "C M M M"
_symmetry_group_IT_number 65
_symmetry_cell_setting 'orthorhombic'
loop_
_space_group_symop_operation_xyz
x,y,z
-x,-y,z
x,-y,-z
-x,y,-z
-x,-y,-z
x,y,-z
-x,y,z
x,-y,z
1/2+x,1/2+y,z
1/2-x,1/2-y,z
1/2+x,1/2-y,-z
1/2-x,1/2+y,-z
1/2-x,1/2-y,-z
1/2+x,1/2+y,-z
1/2-x,1/2+y,z
1/2+x,1/2-y,z
loop_
_atom_site_type_symbol
_atom_site_label
_atom_site_fract_x
_atom_site_fract_y
_atom_site_fract_z
Si Si1 0.142206 0.262078 0.820269
Si Si2 0.215520 0.851989 0.679709
Si Si3 0.168279 0.000000 0.174727
Si Si4 0.947627 0.176765 0.326205
Si Si5 0.319587 0.908587 0.319298
Si Si6 0.075895 0.000000 0.671037
O O1 0.191912 0.226002 0.754383
O O2 0.094691 0.213686 0.774841
O O3 0.139636 0.353370 0.758331
O O4 0.145663 0.261303 0.000000
O O5 0.213623 0.839370 0.500000
O O6 0.183400 0.924239 0.730749
O O7 0.268947 0.871851 0.734390
O O8 0.111610 0.000000 0.185707
O O9 0.186138 0.000000 0.000000
O O10 0.935356 0.199721 0.500000
O O11 0.953844 0.081229 0.309478
O O12 0.000000 0.212085 0.279672
O O13 0.325152 0.905920 0.500000
O O14 0.324140 0.000000 0.261228
O O15 0.099508 0.000000 0.500000
#
# Coordination Sequence:
#
# PCOD8269509 Si02
#       6
#    16  16   8  16  16   8
#     4  12  25  38  56  87 122 154 187 235 295 344
#     4  11  21  38  60  83 114 158 201 237 277 331
#     4  12  22  31  51  85 123 159 191 233 288 336
#     4  10  21  38  61  86 113 151 198 241 282 337
#     4  10  22  41  63  85 110 149 199 242 284 339
#     4  10  19  34  58  84 115 155 194 235 279 333
#
# _framework density 19.474084999999999
#
# number of rings (size 3 to 8) (size 9 to 14) (size 15 to 20)
#    0.000    1.200    3.000    4.200    0.000    6.000 
#    0.000    0.000    0.000    2.400    0.000    4.200 
#    0.000    0.000    0.000    0.000    0.000    0.000 
#
# Total GULP energy -495711.990481 kJ/mol
# GULP energy per Si atom -12392.799762 kJ/mol
# Density = 1.942976 g / cm^3
# Si number density = 19.474085 Si / 1000 Ang^3
#
#
#
# Elastic Constant Matrix: (Units=GPa)
#
#
# Indices 1 2 3 4 5 6 
#
# 1 62.7694 45.6785 23.0611 0.0000 0.0000 0.0000
# 2 45.6785 136.4805 45.4949 0.0000 0.0000 0.0000
# 3 23.0611 45.4949 71.6649 0.0000 0.0000 0.0000
# 4 0.0000 0.0000 0.0000 4.0473 0.0000 0.0000
# 5 0.0000 0.0000 0.0000 0.0000 8.8251 0.0000
# 6 0.0000 0.0000 0.0000 0.0000 0.0000 20.8056
#
#
#
# Elastic Compliance Matrix: (Units=1/GPa)
#
#
# Indices 1 2 3 4 5 6 
#
# 1 0.021554 -0.006218 -0.002989 0.000000 0.000000 0.000000
# 2 -0.006218 0.011087 -0.005038 0.000000 0.000000 0.000000
# 3 -0.002989 -0.005038 0.018114 0.000000 0.000000 0.000000
# 4 0.000000 0.000000 0.000000 0.247077 0.000000 0.000000
# 5 0.000000 0.000000 0.000000 0.000000 0.113313 0.000000
# 6 0.000000 0.000000 0.000000 0.000000 0.000000 0.048064
#
#
# Mechanical properties :
#
#
# Convention : Reuss Voigt Hill
#
# Bulk Modulus (GPa) = 44.90999 55.48709 50.19854
# Shear Modulus (GPa) = 10.09855 17.18094 13.63975
#
# Velocity S-wave (km/s) = 2.27967 2.97349 2.64939
# Velocity P-wave (km/s) = 5.48094 6.35165 5.93229
#
# Compressibility (1/GPa) = 0.02226676
#
# Stress axis : x y z
#
# Youngs Moduli (GPa) = 46.39493 90.19299 55.20679
#
# Poissons Ratio (x) = 0.56079 0.16500
# Poissons Ratio (y) = 0.28847 0.27812
# Poissons Ratio (z) = 0.13866 0.45437
#
# Static dielectric constant tensor:
#      x y z
#    x 3.442600 0.000000 0.000000 
#    y 0.000000 3.676680 0.000000 
#    z 0.000000 0.000000 3.394590 
# 
# 
# High freq. dielectric constant tensor:
#      x y z
#    x 1.740720 0.000000 0.000000 
#    y 0.000000 1.760450 0.000000 
#    z 0.000000 0.000000 1.749640 
# 
# From -- ./inp_files/16104.got.cif
#   From: 2010.03.12/outbox.cif.g09.slc.cpg/sg65_9_cif.got.tgz:16104.got - 2010.04.10 20:52:16.
