data_PCOD8269757
_publ_section_title
;
Structure prediction by ZEFSAII (Michael W. Deem and Ramdas Pophale) SiO2 
 PCOD8269757
Probable space group: C M M M
;
_chemical_formula_sum "Si O2"
_cell_formula_units_Z 88
_cell_length_a 8.828095
_cell_length_b 28.437063
_cell_length_c 23.732971
_cell_angle_alpha 90.000000
_cell_angle_beta 90.000000
_cell_angle_gamma 90.000000
_cell_volume 5958.045928
_symmetry_space_group_name_H-M "C M M M"
_symmetry_group_IT_number 65
_symmetry_cell_setting 'orthorhombic'
loop_
_space_group_symop_operation_xyz
x,y,z
-x,-y,z
x,-y,-z
-x,y,-z
-x,-y,-z
x,y,-z
-x,y,z
x,-y,z
1/2+x,1/2+y,z
1/2-x,1/2-y,z
1/2+x,1/2-y,-z
1/2-x,1/2+y,-z
1/2-x,1/2-y,-z
1/2+x,1/2+y,-z
1/2-x,1/2+y,z
1/2+x,1/2-y,z
loop_
_atom_site_type_symbol
_atom_site_label
_atom_site_fract_x
_atom_site_fract_y
_atom_site_fract_z
Si Si1 0.829965 0.443987 0.820160
Si Si2 0.180062 0.552689 0.059652
Si Si3 0.680060 0.947481 0.500000
Si Si4 0.321604 0.701143 0.564676
Si Si5 0.175285 0.054969 0.707355
Si Si6 0.678951 0.890082 0.607383
O O1 0.832711 0.500000 0.825370
O O2 0.767645 0.423488 0.880827
O O3 0.718784 0.427989 0.770205
O O4 0.000000 0.425562 0.807117
O O5 0.245549 0.500000 0.057038
O O6 0.000000 0.550779 0.062595
O O7 0.230102 0.578135 0.000000
O O8 0.500000 0.949347 0.500000
O O9 0.740424 0.921036 0.555286
O O10 0.748245 0.000000 0.500000
O O11 0.274780 0.690694 0.500000
O O12 0.500000 0.704170 0.572006
O O13 0.250000 0.750000 0.585010
O O14 0.256182 0.660760 0.604759
O O15 0.276685 0.084248 0.664580
O O16 0.000000 0.065691 0.696612
O O17 0.212949 0.000000 0.699374
O O18 0.500000 0.883610 0.604525
#
# Coordination Sequence:
#
# PCOD8269757 Si02
#       6
#    16  16   8  16  16  16
#     4   8  13  22  36  52  70  97 134 171 206 244
#     4   7   9  14  27  48  70  90 119 164 210 244
#     4   9  18  30  44  63  84 105 132 169 208 245
#     4  10  20  34  52  71  91 109 130 160 201 249
#     4  10  20  31  41  56  81 112 144 177 212 249
#     4  11  20  32  49  66  85 107 137 172 211 253
#
# _framework density 14.769943
#
# number of rings (size 3 to 8) (size 9 to 14) (size 15 to 20)
#    0.000    2.818    0.909    3.818    0.000    2.545 
#    0.000    0.000    0.000    2.727    0.000    3.818 
#    0.000    0.000    0.000    0.000    0.000    0.909 
#
# Total GULP energy -545161.824509 kJ/mol
# GULP energy per Si atom -12390.041466 kJ/mol
# Density = 1.473633 g / cm^3
# Si number density = 14.769943 Si / 1000 Ang^3
#
#
#
# Elastic Constant Matrix: (Units=GPa)
#
#
# Indices 1 2 3 4 5 6 
#
# 1 45.7965 23.4330 22.4739 0.0000 0.0000 0.0000
# 2 23.4330 61.9839 35.3673 0.0000 0.0000 0.0000
# 3 22.4739 35.3673 116.4916 0.0000 0.0000 0.0000
# 4 0.0000 0.0000 0.0000 2.2094 0.0000 0.0000
# 5 0.0000 0.0000 0.0000 0.0000 13.1674 0.0000
# 6 0.0000 0.0000 0.0000 0.0000 0.0000 17.4565
#
#
#
# Elastic Compliance Matrix: (Units=1/GPa)
#
#
# Indices 1 2 3 4 5 6 
#
# 1 0.027718 -0.008984 -0.002620 0.000000 0.000000 0.000000
# 2 -0.008984 0.022425 -0.005075 0.000000 0.000000 0.000000
# 3 -0.002620 -0.005075 0.010631 0.000000 0.000000 0.000000
# 4 0.000000 0.000000 0.000000 0.452615 0.000000 0.000000
# 5 0.000000 0.000000 0.000000 0.000000 0.075945 0.000000
# 6 0.000000 0.000000 0.000000 0.000000 0.000000 0.057285
#
#
# Mechanical properties :
#
#
# Convention : Reuss Voigt Hill
#
# Bulk Modulus (GPa) = 36.47493 42.98004 39.72749
# Shear Modulus (GPa) = 7.25566 16.09984 11.67775
#
# Velocity S-wave (km/s) = 2.21881 3.30516 2.81489
# Velocity P-wave (km/s) = 5.59581 6.61274 6.12541
#
# Compressibility (1/GPa) = 0.02741609
#
# Stress axis : x y z
#
# Youngs Moduli (GPa) = 36.07725 44.59211 94.06791
#
# Poissons Ratio (x) = 0.40062 0.24645
# Poissons Ratio (y) = 0.32412 0.47742
# Poissons Ratio (z) = 0.09452 0.22632
#
# Static dielectric constant tensor:
#      x y z
#    x 2.685340 0.000000 0.000000 
#    y 0.000000 2.493870 0.000000 
#    z 0.000000 0.000000 3.263700 
# 
# 
# High freq. dielectric constant tensor:
#      x y z
#    x 1.553860 0.000000 0.000000 
#    y 0.000000 1.505550 0.000000 
#    z 0.000000 0.000000 1.574040 
# 
# From -- ./inp_files/60667.got.cif
#   From: 2010.03.12/outbox.cif.g09.slc.cpg/sg65_31_cif.got.tgz:60667.got - 2010.04.10 20:52:16.
