data_PCOD8269074
_publ_section_title
;
Structure prediction by ZEFSAII (Michael W. Deem and Ramdas Pophale) SiO2 
 PCOD8269074
Probable space group: C M M M
;
_chemical_formula_sum "Si O2"
_cell_formula_units_Z 112
_cell_length_a 18.590571
_cell_length_b 18.972387
_cell_length_c 17.577254
_cell_angle_alpha 90.000000
_cell_angle_beta 90.000000
_cell_angle_gamma 90.000000
_cell_volume 6199.629448
_symmetry_space_group_name_H-M "C M M M"
_symmetry_group_IT_number 65
_symmetry_cell_setting 'orthorhombic'
loop_
_space_group_symop_operation_xyz
x,y,z
-x,-y,z
x,-y,-z
-x,y,-z
-x,-y,-z
x,y,-z
-x,y,z
x,-y,z
1/2+x,1/2+y,z
1/2-x,1/2-y,z
1/2+x,1/2-y,-z
1/2-x,1/2+y,-z
1/2-x,1/2-y,-z
1/2+x,1/2+y,-z
1/2-x,1/2+y,z
1/2+x,1/2-y,z
loop_
_atom_site_type_symbol
_atom_site_label
_atom_site_fract_x
_atom_site_fract_y
_atom_site_fract_z
Si Si1 0.652125 0.419944 0.735481
Si Si2 0.915616 0.576224 0.326161
Si Si3 0.415409 0.712396 0.198369
Si Si4 0.084693 0.131702 0.415392
Si Si5 0.321609 0.205322 0.086159
Si Si6 0.915530 0.275185 0.354520
Si Si7 0.696286 0.921357 0.197602
O O1 0.633475 0.500000 0.758321
O O2 0.607186 0.369232 0.791278
O O3 0.631306 0.409713 0.646617
O O4 0.736737 0.403710 0.746477
O O5 0.896480 0.500000 0.365176
O O6 0.891943 0.644465 0.377476
O O7 0.876775 0.582918 0.245562
O O8 0.000000 0.579828 0.308594
O O9 0.500000 0.716075 0.191180
O O10 0.383660 0.747411 0.123253
O O11 0.384295 0.755103 0.271336
O O12 0.101520 0.102706 0.500000
O O13 0.107376 0.215026 0.414424
O O14 0.000000 0.122699 0.396031
O O15 0.250000 0.250000 0.090097
O O16 0.308605 0.131401 0.127519
O O17 0.344682 0.188834 0.000000
O O18 0.000000 0.273229 0.346913
O O19 0.705726 0.000000 0.163737
#
# Coordination Sequence:
#
# PCOD8269074 Si02
#       7
#    16  16  16  16  16  16  16
#     4  10  20  34  53  79 110 144 180 217 262 321
#     4   9  16  27  48  77 103 130 175 228 268 306
#     4  10  19  33  54  79 104 136 179 222 262 313
#     4   9  18  32  51  78 110 140 171 213 267 321
#     4  11  22  36  54  77 104 140 179 221 275 323
#     4   8  14  26  47  72  98 131 169 208 254 307
#     4  10  20  34  54  80 108 144 181 220 270 321
#
# _framework density 18.065594999999998
#
# number of rings (size 3 to 8) (size 9 to 14) (size 15 to 20)
#    0.000    2.429    2.857    1.286    0.000    2.000 
#    0.000    0.714    0.000    2.571    0.000    9.000 
#    0.000    0.000    0.000    0.000    0.000    0.000 
#
# Total GULP energy -693832.207487 kJ/mol
# GULP energy per Si atom -12389.860848 kJ/mol
# Density = 1.802448 g / cm^3
# Si number density = 18.065595 Si / 1000 Ang^3
#
#
#
# Elastic Constant Matrix: (Units=GPa)
#
#
# Indices 1 2 3 4 5 6 
#
# 1 59.1404 30.8015 30.8854 0.0000 0.0000 0.0000
# 2 30.8015 121.6153 35.8019 0.0000 0.0000 0.0000
# 3 30.8854 35.8019 78.6275 0.0000 0.0000 0.0000
# 4 0.0000 0.0000 0.0000 -3.4933 0.0000 0.0000
# 5 0.0000 0.0000 0.0000 0.0000 21.2559 0.0000
# 6 0.0000 0.0000 0.0000 0.0000 0.0000 22.9406
#
#
#
# Elastic Compliance Matrix: (Units=1/GPa)
#
#
# Indices 1 2 3 4 5 6 
#
# 1 0.022549 -0.003584 -0.007225 0.000000 0.000000 0.000000
# 2 -0.003584 0.010065 -0.003175 0.000000 0.000000 0.000000
# 3 -0.007225 -0.003175 0.017002 0.000000 0.000000 0.000000
# 4 0.000000 0.000000 0.000000 -0.286261 0.000000 0.000000
# 5 0.000000 0.000000 0.000000 0.000000 0.047046 0.000000
# 6 0.000000 0.000000 0.000000 0.000000 0.000000 0.043591
#
#
# Mechanical properties :
#
#
# Convention : Reuss Voigt Hill
#
# Bulk Modulus (GPa) = 46.19574 50.48453 48.34014
# Shear Modulus (GPa) = -45.11690 18.93359 -13.09165
#
# Velocity S-wave (km/s) = -5.00281 3.24087 -2.69490
# Velocity P-wave (km/s) = 2.78285 6.48152 4.13919
#
# Compressibility (1/GPa) = 0.02164702
#
# Stress axis : x y z
#
# Youngs Moduli (GPa) = 44.34812 99.35340 58.81589
#
# Poissons Ratio (x) = 0.35607 0.42497
# Poissons Ratio (y) = 0.15894 0.18675
# Poissons Ratio (z) = 0.32044 0.31547
#
# Static dielectric constant tensor:
#      x y z
#    x 3.227310 0.000000 0.000000 
#    y 0.000000 3.905660 0.000000 
#    z 0.000000 0.000000 3.105280 
# 
# 
# High freq. dielectric constant tensor:
#      x y z
#    x 1.687030 0.000000 0.000000 
#    y 0.000000 1.722570 0.000000 
#    z 0.000000 0.000000 1.660560 
# 
# From -- ./inp_files/54872.got.cif
#   From: 2010.03.12/outbox.cif.g09.slc.cpg/sg65_28_cif.got.tgz:54872.got - 2010.04.10 20:52:16.
