data_PCOD8269942
_publ_section_title
;
Structure prediction by ZEFSAII (Michael W. Deem and Ramdas Pophale) SiO2 
 PCOD8269942
Probable space group: C M M M
;
_chemical_formula_sum "Si O2"
_cell_formula_units_Z 112
_cell_length_a 14.199248
_cell_length_b 29.348856
_cell_length_c 14.686887
_cell_angle_alpha 90.000000
_cell_angle_beta 90.000000
_cell_angle_gamma 90.000000
_cell_volume 6120.491165
_symmetry_space_group_name_H-M "C M M M"
_symmetry_group_IT_number 65
_symmetry_cell_setting 'orthorhombic'
loop_
_space_group_symop_operation_xyz
x,y,z
-x,-y,z
x,-y,-z
-x,y,-z
-x,-y,-z
x,y,-z
-x,y,z
x,-y,z
1/2+x,1/2+y,z
1/2-x,1/2-y,z
1/2+x,1/2-y,-z
1/2-x,1/2+y,-z
1/2-x,1/2-y,-z
1/2+x,1/2+y,-z
1/2-x,1/2+y,z
1/2+x,1/2-y,z
loop_
_atom_site_type_symbol
_atom_site_label
_atom_site_fract_x
_atom_site_fract_y
_atom_site_fract_z
Si Si1 0.892817 0.856502 0.895653
Si Si2 0.111981 0.770341 0.782237
Si Si3 0.609014 0.948940 0.740917
Si Si4 0.607954 0.185765 0.105090
Si Si5 0.787147 0.593098 0.896759
Si Si6 0.888216 0.727841 0.600795
Si Si7 0.888360 0.625687 0.399097
O O1 0.854677 0.817389 0.827467
O O2 0.825510 0.900385 0.882790
O O3 0.000000 0.871049 0.873133
O O4 0.884937 0.838423 0.000000
O O5 0.152580 0.727454 0.838215
O O6 0.147121 0.764225 0.676964
O O7 0.000000 0.768847 0.788513
O O8 0.500000 0.938718 0.764191
O O9 0.671230 0.945873 0.832381
O O10 0.651393 0.912570 0.669285
O O11 0.620196 0.000000 0.701396
O O12 0.500000 0.176857 0.133304
O O13 0.664268 0.140596 0.129372
O O14 0.617010 0.198990 0.000000
O O15 0.810318 0.578767 0.000000
O O16 0.848590 0.740905 0.500000
O O17 0.856119 0.676680 0.629440
O O18 0.000000 0.728452 0.596691
O O19 0.849265 0.614863 0.500000
O O20 0.000000 0.622369 0.399792
#
# Coordination Sequence:
#
# PCOD8269942 Si02
#       7
#    16  16  16  16  16  16  16
#     4   9  18  32  48  65  85 113 154 201 242 273
#     4   9  15  24  40  61  87 117 149 190 231 259
#     4  10  20  32  48  72  98 121 147 180 221 275
#     4   9  16  25  39  61  88 116 146 178 213 260
#     4  10  20  32  46  64  89 122 154 185 226 277
#     4   8  13  21  36  60  88 119 154 186 217 258
#     4   8  14  26  44  66  94 127 159 188 218 255
#
# _framework density 18.299185000000001
#
# number of rings (size 3 to 8) (size 9 to 14) (size 15 to 20)
#    0.000    3.000    0.000    2.571    0.000    6.000 
#    0.000    4.286    0.000    1.286    0.000    5.000 
#    0.000    0.000    0.000    1.286    0.000    0.143 
#
# Total GULP energy -694056.462578 kJ/mol
# GULP energy per Si atom -12393.865403 kJ/mol
# Density = 1.825754 g / cm^3
# Si number density = 18.299185 Si / 1000 Ang^3
#
#
#
# Elastic Constant Matrix: (Units=GPa)
#
#
# Indices 1 2 3 4 5 6 
#
# 1 42.4846 13.8561 15.0038 0.0000 0.0000 0.0000
# 2 13.8561 45.0902 38.1754 0.0000 0.0000 0.0000
# 3 15.0038 38.1754 96.4261 0.0000 0.0000 0.0000
# 4 0.0000 0.0000 0.0000 20.3416 0.0000 0.0000
# 5 0.0000 0.0000 0.0000 0.0000 6.5087 0.0000
# 6 0.0000 0.0000 0.0000 0.0000 0.0000 16.5561
#
#
#
# Elastic Compliance Matrix: (Units=1/GPa)
#
#
# Indices 1 2 3 4 5 6 
#
# 1 0.026275 -0.006939 -0.001341 0.000000 0.000000 0.000000
# 2 -0.006939 0.035192 -0.012853 0.000000 0.000000 0.000000
# 3 -0.001341 -0.012853 0.015668 0.000000 0.000000 0.000000
# 4 0.000000 0.000000 0.000000 0.049160 0.000000 0.000000
# 5 0.000000 0.000000 0.000000 0.000000 0.153642 0.000000
# 6 0.000000 0.000000 0.000000 0.000000 0.000000 0.060401
#
#
# Mechanical properties :
#
#
# Convention : Reuss Voigt Hill
#
# Bulk Modulus (GPa) = 28.67894 35.34127 32.01011
# Shear Modulus (GPa) = 12.68309 16.47896 14.58103
#
# Velocity S-wave (km/s) = 2.63553 3.00414 2.82585
# Velocity P-wave (km/s) = 4.99676 5.60251 5.30828
#
# Compressibility (1/GPa) = 0.03486879
#
# Stress axis : x y z
#
# Youngs Moduli (GPa) = 38.05953 28.41568 63.82495
#
# Poissons Ratio (x) = 0.19716 0.08561
# Poissons Ratio (y) = 0.26408 0.82034
# Poissons Ratio (z) = 0.05105 0.36522
#
# Static dielectric constant tensor:
#      x y z
#    x 3.156290 0.000000 0.000000 
#    y 0.000000 3.101130 0.000000 
#    z 0.000000 0.000000 3.698550 
# 
# 
# High freq. dielectric constant tensor:
#      x y z
#    x 1.681140 0.000000 0.000000 
#    y 0.000000 1.671790 0.000000 
#    z 0.000000 0.000000 1.714910 
# 
# From -- ./inp_files/41048.got.cif
#   From: 2010.03.12/outbox.cif.g09.slc.cpg/sg65_21_cif.got.tgz:41048.got - 2010.04.10 20:52:16.
