data_PCOD8269958
_publ_section_title
;
Structure prediction by ZEFSAII (Michael W. Deem and Ramdas Pophale) SiO2 
 PCOD8269958
Probable space group: C M M M
;
_chemical_formula_sum "Si O2"
_cell_formula_units_Z 96
_cell_length_a 9.021673
_cell_length_b 27.490184
_cell_length_c 23.448765
_cell_angle_alpha 90.000000
_cell_angle_beta 90.000000
_cell_angle_gamma 90.000000
_cell_volume 5815.468431
_symmetry_space_group_name_H-M "C M M M"
_symmetry_group_IT_number 65
_symmetry_cell_setting 'orthorhombic'
loop_
_space_group_symop_operation_xyz
x,y,z
-x,-y,z
x,-y,-z
-x,y,-z
-x,-y,-z
x,y,-z
-x,y,z
x,-y,z
1/2+x,1/2+y,z
1/2-x,1/2-y,z
1/2+x,1/2-y,-z
1/2-x,1/2+y,-z
1/2-x,1/2-y,-z
1/2+x,1/2+y,-z
1/2-x,1/2+y,z
1/2+x,1/2-y,z
loop_
_atom_site_type_symbol
_atom_site_label
_atom_site_fract_x
_atom_site_fract_y
_atom_site_fract_z
Si Si1 0.324094 0.054337 0.563305
Si Si2 0.671284 0.944244 0.218307
Si Si3 0.826805 0.861141 0.157309
Si Si4 0.828049 0.299865 0.066240
Si Si5 0.672572 0.114555 0.669178
Si Si6 0.826417 0.198420 0.730361
O O1 0.276476 0.072129 0.500000
O O2 0.500000 0.052123 0.568426
O O3 0.263462 0.091836 0.610495
O O4 0.260966 0.000000 0.574442
O O5 0.500000 0.937851 0.201509
O O6 0.769458 0.914703 0.173100
O O7 0.700383 0.925306 0.281985
O O8 0.721701 0.000000 0.215516
O O9 0.742885 0.844192 0.100661
O O10 0.788162 0.823910 0.208056
O O11 0.000000 0.863602 0.144587
O O12 0.750000 0.250000 0.084801
O O13 0.000000 0.294861 0.081542
O O14 0.801925 0.311035 0.000000
O O15 0.500000 0.128290 0.664651
O O16 0.763374 0.163492 0.681187
O O17 0.750000 0.250000 0.724976
O O18 0.000000 0.204539 0.721183
#
# Coordination Sequence:
#
# PCOD8269958 Si02
#       6
#    16  16  16  16  16  16
#     4   8  13  22  40  68  97 121 148 184 223 264
#     4   9  17  29  46  68  94 124 156 189 226 270
#     4  10  20  32  48  70  95 123 153 187 228 272
#     4  10  20  33  50  72  97 124 153 186 225 269
#     4   9  16  27  45  68  93 121 152 186 225 269
#     4  10  20  32  46  66  91 119 151 187 228 271
#
# _framework density 16.507698000000001
#
# number of rings (size 3 to 8) (size 9 to 14) (size 15 to 20)
#    0.000    2.667    0.000    3.000    0.000    6.667 
#    0.000    0.000    0.000    3.000    0.000    4.667 
#    0.000    0.000    0.000    0.000    0.000    0.000 
#
# Total GULP energy -595243.654056 kJ/mol
# GULP energy per Si atom -12400.909459 kJ/mol
# Density = 1.647013 g / cm^3
# Si number density = 16.507698 Si / 1000 Ang^3
#
#
#
# Elastic Constant Matrix: (Units=GPa)
#
#
# Indices 1 2 3 4 5 6 
#
# 1 71.8632 56.0233 46.7358 0.0000 0.0000 0.0000
# 2 56.0233 133.2586 59.2867 0.0000 0.0000 0.0000
# 3 46.7358 59.2867 87.2984 0.0000 0.0000 0.0000
# 4 0.0000 0.0000 0.0000 28.2037 0.0000 0.0000
# 5 0.0000 0.0000 0.0000 0.0000 16.0770 0.0000
# 6 0.0000 0.0000 0.0000 0.0000 0.0000 26.7848
#
#
#
# Elastic Compliance Matrix: (Units=1/GPa)
#
#
# Indices 1 2 3 4 5 6 
#
# 1 0.024690 -0.006447 -0.008840 0.000000 0.000000 0.000000
# 2 -0.006447 0.012437 -0.004995 0.000000 0.000000 0.000000
# 3 -0.008840 -0.004995 0.019579 0.000000 0.000000 0.000000
# 4 0.000000 0.000000 0.000000 0.035456 0.000000 0.000000
# 5 0.000000 0.000000 0.000000 0.000000 0.062201 0.000000
# 6 0.000000 0.000000 0.000000 0.000000 0.000000 0.037335
#
#
# Mechanical properties :
#
#
# Convention : Reuss Voigt Hill
#
# Bulk Modulus (GPa) = 61.94467 68.50129 65.22298
# Shear Modulus (GPa) = 21.04005 22.90472 21.97238
#
# Velocity S-wave (km/s) = 3.57397 3.72898 3.65230
# Velocity P-wave (km/s) = 7.39170 7.75416 7.57510
#
# Compressibility (1/GPa) = 0.01614344
#
# Stress axis : x y z
#
# Youngs Moduli (GPa) = 40.50170 80.40649 51.07465
#
# Poissons Ratio (x) = 0.51841 0.45148
# Poissons Ratio (y) = 0.26113 0.25509
# Poissons Ratio (z) = 0.35802 0.40159
#
# Static dielectric constant tensor:
#      x y z
#    x 3.003170 0.000000 0.000000 
#    y 0.000000 3.076640 0.000000 
#    z 0.000000 0.000000 3.140530 
# 
# 
# High freq. dielectric constant tensor:
#      x y z
#    x 1.626420 0.000000 0.000000 
#    y 0.000000 1.628450 0.000000 
#    z 0.000000 0.000000 1.625910 
# 
# From -- ./inp_files/60226.got.cif
#   From: 2010.03.12/outbox.cif.g09.slc.cpg/sg65_31_cif.got.tgz:60226.got - 2010.04.10 20:52:16.
