data_PCOD8269788
_publ_section_title
;
Structure prediction by ZEFSAII (Michael W. Deem and Ramdas Pophale) SiO2 
 PCOD8269788
Probable space group: C M M M
;
_chemical_formula_sum "Si O2"
_cell_formula_units_Z 80
_cell_length_a 28.089638
_cell_length_b 18.196532
_cell_length_c 9.099063
_cell_angle_alpha 90.000000
_cell_angle_beta 90.000000
_cell_angle_gamma 90.000000
_cell_volume 4650.840438
_symmetry_space_group_name_H-M "C M M M"
_symmetry_group_IT_number 65
_symmetry_cell_setting 'orthorhombic'
loop_
_space_group_symop_operation_xyz
x,y,z
-x,-y,z
x,-y,-z
-x,y,-z
-x,-y,-z
x,y,-z
-x,y,z
x,-y,z
1/2+x,1/2+y,z
1/2-x,1/2-y,z
1/2+x,1/2-y,-z
1/2-x,1/2+y,-z
1/2-x,1/2-y,-z
1/2+x,1/2+y,-z
1/2-x,1/2+y,z
1/2+x,1/2-y,z
loop_
_atom_site_type_symbol
_atom_site_label
_atom_site_fract_x
_atom_site_fract_y
_atom_site_fract_z
Si Si1 0.097287 0.582996 0.668910
Si Si2 0.688087 0.134400 0.828214
Si Si3 0.053015 0.286290 0.172504
Si Si4 0.645913 0.710864 0.171120
Si Si5 0.290809 0.582369 0.175371
O O1 0.101351 0.607009 0.500000
O O2 0.078317 0.500000 0.684222
O O3 0.149177 0.587826 0.741350
O O4 0.059533 0.635603 0.748894
O O5 0.681015 0.220987 0.797297
O O6 0.739541 0.110147 0.768928
O O7 0.682098 0.116695 0.000000
O O8 0.092721 0.228543 0.232880
O O9 0.000000 0.255748 0.205094
O O10 0.061215 0.299842 0.000000
O O11 0.668738 0.637117 0.241684
O O12 0.641237 0.696153 0.000000
O O13 0.300884 0.500000 0.233389
O O14 0.291167 0.584642 0.000000
#
# Coordination Sequence:
#
# PCOD8269788 Si02
#       5
#    16  16  16  16  16
#     4  10  20  31  43  63  92 120 142 170 213 259
#     4   9  16  27  44  64  87 118 153 180 202 240
#     4   9  18  32  49  65  80 107 148 186 217 253
#     4   8  14  25  41  61  86 113 142 180 219 252
#     4   9  15  22  38  66  93 115 143 179 216 253
#
# _framework density 17.201193
#
# number of rings (size 3 to 8) (size 9 to 14) (size 15 to 20)
#    0.000    3.000    0.000    3.000    0.000    5.600 
#    0.000    2.000    0.000   10.200    0.000    4.200 
#    0.000    0.000    0.000    7.200    0.000    8.000 
#
# Total GULP energy -495751.280545 kJ/mol
# GULP energy per Si atom -12393.782014 kJ/mol
# Density = 1.716204 g / cm^3
# Si number density = 17.201193 Si / 1000 Ang^3
#
#
#
# Elastic Constant Matrix: (Units=GPa)
#
#
# Indices 1 2 3 4 5 6 
#
# 1 127.4369 63.1551 21.9874 0.0000 0.0000 0.0000
# 2 63.1551 95.9971 18.3798 0.0000 0.0000 0.0000
# 3 21.9874 18.3798 32.4844 0.0000 0.0000 0.0000
# 4 0.0000 0.0000 0.0000 7.4727 0.0000 0.0000
# 5 0.0000 0.0000 0.0000 0.0000 5.9889 0.0000
# 6 0.0000 0.0000 0.0000 0.0000 0.0000 14.6289
#
#
#
# Elastic Compliance Matrix: (Units=1/GPa)
#
#
# Indices 1 2 3 4 5 6 
#
# 1 0.012120 -0.007181 -0.004141 0.000000 0.000000 0.000000
# 2 -0.007181 0.015937 -0.004157 0.000000 0.000000 0.000000
# 3 -0.004141 -0.004157 0.035939 0.000000 0.000000 0.000000
# 4 0.000000 0.000000 0.000000 0.133820 0.000000 0.000000
# 5 0.000000 0.000000 0.000000 0.000000 0.166975 0.000000
# 6 0.000000 0.000000 0.000000 0.000000 0.000000 0.068358
#
#
# Mechanical properties :
#
#
# Convention : Reuss Voigt Hill
#
# Bulk Modulus (GPa) = 30.26715 51.44031 40.85373
# Shear Modulus (GPa) = 10.52369 15.77785 13.15077
#
# Velocity S-wave (km/s) = 2.47614 3.03190 2.76801
# Velocity P-wave (km/s) = 5.08028 6.49820 5.83249
#
# Compressibility (1/GPa) = 0.03303912
#
# Stress axis : x y z
#
# Youngs Moduli (GPa) = 82.50742 62.74696 27.82522
#
# Poissons Ratio (x) = 0.45058 0.11522
# Poissons Ratio (y) = 0.59247 0.11566
# Poissons Ratio (z) = 0.34164 0.26082
#
# Static dielectric constant tensor:
#      x y z
#    x 3.421210 0.000000 0.000000 
#    y 0.000000 3.348630 0.000000 
#    z 0.000000 0.000000 2.818680 
# 
# 
# High freq. dielectric constant tensor:
#      x y z
#    x 1.662330 0.000000 0.000000 
#    y 0.000000 1.653010 0.000000 
#    z 0.000000 0.000000 1.618430 
# 
# From -- ./inp_files/9611.got.cif
#   From: 2010.03.12/outbox.cif.g09.slc.cpg/sg65_5_cif.got.tgz:9611.got - 2010.04.10 20:52:16.
