data_PCOD8269919
_publ_section_title
;
Structure prediction by ZEFSAII (Michael W. Deem and Ramdas Pophale) SiO2 
 PCOD8269919
Probable space group: C M M M
;
_chemical_formula_sum "Si O2"
_cell_formula_units_Z 72
_cell_length_a 34.349881
_cell_length_b 8.921595
_cell_length_c 13.479284
_cell_angle_alpha 90.000000
_cell_angle_beta 90.000000
_cell_angle_gamma 90.000000
_cell_volume 4130.803772
_symmetry_space_group_name_H-M "C M M M"
_symmetry_group_IT_number 65
_symmetry_cell_setting 'orthorhombic'
loop_
_space_group_symop_operation_xyz
x,y,z
-x,-y,z
x,-y,-z
-x,y,-z
-x,-y,-z
x,y,-z
-x,y,z
x,-y,z
1/2+x,1/2+y,z
1/2-x,1/2-y,z
1/2+x,1/2-y,-z
1/2-x,1/2+y,-z
1/2-x,1/2-y,-z
1/2+x,1/2+y,-z
1/2-x,1/2+y,z
1/2+x,1/2-y,z
loop_
_atom_site_type_symbol
_atom_site_label
_atom_site_fract_x
_atom_site_fract_y
_atom_site_fract_z
Si Si1 0.791215 0.677165 0.887326
Si Si2 0.000000 0.667400 0.617556
Si Si3 0.421863 0.676259 0.386750
Si Si4 0.213988 0.664734 0.385894
Si Si5 0.154312 0.824308 0.727044
O O1 0.787473 0.500000 0.875042
O O2 0.750000 0.750000 0.855532
O O3 0.827321 0.736479 0.820620
O O4 0.801338 0.722347 0.000000
O O5 0.038679 0.750691 0.654832
O O6 0.000000 0.500000 0.661245
O O7 0.000000 0.666873 0.500000
O O8 0.411758 0.732190 0.500000
O O9 0.427805 0.500000 0.390528
O O10 0.389767 0.719012 0.303171
O O11 0.222486 0.641369 0.500000
O O12 0.208711 0.500000 0.335835
O O13 0.250000 0.750000 0.334025
O O14 0.177118 0.771039 0.370942
O O15 0.158895 0.000000 0.745983
#
# Coordination Sequence:
#
# PCOD8269919 Si02
#       5
#    16   8  16  16  16
#     4  10  21  37  55  73  95 125 162 205 251 297
#     4   9  17  29  47  71  98 129 164 201 237 274
#     4   9  18  32  49  70  99 134 166 195 232 282
#     4  10  20  32  45  62  89 126 163 197 233 277
#     4  11  21  32  49  72  97 125 159 200 243 288
#
# _framework density 17.430021
#
# number of rings (size 3 to 8) (size 9 to 14) (size 15 to 20)
#    0.000    2.111    0.000    3.667    0.000    6.667 
#    0.000    2.222    0.000    0.000    0.000    0.778 
#    0.000    6.222    0.000    0.000    0.000    0.000 
#
# Total GULP energy -446033.303426 kJ/mol
# GULP energy per Si atom -12389.813984 kJ/mol
# Density = 1.739035 g / cm^3
# Si number density = 17.430021 Si / 1000 Ang^3
#
#
#
# Elastic Constant Matrix: (Units=GPa)
#
#
# Indices 1 2 3 4 5 6 
#
# 1 149.1156 64.2803 48.2335 0.0000 0.0000 0.0000
# 2 64.2803 69.0582 31.7855 0.0000 0.0000 0.0000
# 3 48.2335 31.7855 83.9915 0.0000 0.0000 0.0000
# 4 0.0000 0.0000 0.0000 21.3938 0.0000 0.0000
# 5 0.0000 0.0000 0.0000 0.0000 23.7096 0.0000
# 6 0.0000 0.0000 0.0000 0.0000 0.0000 29.9469
#
#
#
# Elastic Compliance Matrix: (Units=1/GPa)
#
#
# Indices 1 2 3 4 5 6 
#
# 1 0.011867 -0.009577 -0.003190 0.000000 0.000000 0.000000
# 2 -0.009577 0.025264 -0.004061 0.000000 0.000000 0.000000
# 3 -0.003190 -0.004061 0.015275 0.000000 0.000000 0.000000
# 4 0.000000 0.000000 0.000000 0.046743 0.000000 0.000000
# 5 0.000000 0.000000 0.000000 0.000000 0.042177 0.000000
# 6 0.000000 0.000000 0.000000 0.000000 0.000000 0.033392
#
#
# Mechanical properties :
#
#
# Convention : Reuss Voigt Hill
#
# Bulk Modulus (GPa) = 53.33684 65.64042 59.48863
# Shear Modulus (GPa) = 23.29648 25.53446 24.41547
#
# Velocity S-wave (km/s) = 3.65988 3.83165 3.74675
# Velocity P-wave (km/s) = 6.96611 7.57077 7.27472
#
# Compressibility (1/GPa) = 0.01874877
#
# Stress axis : x y z
#
# Youngs Moduli (GPa) = 84.26949 39.58139 65.46701
#
# Poissons Ratio (x) = 0.37908 0.20886
# Poissons Ratio (y) = 0.80707 0.26587
# Poissons Ratio (z) = 0.26884 0.16074
#
# Static dielectric constant tensor:
#      x y z
#    x 3.275330 0.000000 0.000000 
#    y 0.000000 3.536320 0.000000 
#    z 0.000000 0.000000 3.096520 
# 
# 
# High freq. dielectric constant tensor:
#      x y z
#    x 1.662630 0.000000 0.000000 
#    y 0.000000 1.689520 0.000000 
#    z 0.000000 0.000000 1.647290 
# 
# From -- ./inp_files/36983.got.cif
#   From: 2010.03.12/outbox.cif.g09.slc.cpg/sg65_19_cif.got.tgz:36983.got - 2010.04.10 20:52:16.
