data_PCOD8269449
_publ_section_title
;
Structure prediction by ZEFSAII (Michael W. Deem and Ramdas Pophale) SiO2 
 PCOD8269449
Probable space group: C M M M
;
_chemical_formula_sum "Si O2"
_cell_formula_units_Z 96
_cell_length_a 28.855538
_cell_length_b 9.152303
_cell_length_c 20.270736
_cell_angle_alpha 90.000000
_cell_angle_beta 90.000000
_cell_angle_gamma 90.000000
_cell_volume 5353.392463
_symmetry_space_group_name_H-M "C M M M"
_symmetry_group_IT_number 65
_symmetry_cell_setting 'orthorhombic'
loop_
_space_group_symop_operation_xyz
x,y,z
-x,-y,z
x,-y,-z
-x,y,-z
-x,-y,-z
x,y,-z
-x,y,z
x,-y,z
1/2+x,1/2+y,z
1/2-x,1/2-y,z
1/2+x,1/2-y,-z
1/2-x,1/2+y,-z
1/2-x,1/2-y,-z
1/2+x,1/2+y,-z
1/2-x,1/2+y,z
1/2+x,1/2-y,z
loop_
_atom_site_type_symbol
_atom_site_label
_atom_site_fract_x
_atom_site_fract_y
_atom_site_fract_z
Si Si1 0.605952 0.827311 0.187719
Si Si2 0.447340 0.330306 0.075423
Si Si3 0.945520 0.330641 0.319002
Si Si4 0.795040 0.667993 0.231997
Si Si5 0.112923 0.167418 0.574653
Si Si6 0.203675 0.670709 0.613630
O O1 0.586855 0.759653 0.121069
O O2 0.576866 0.773333 0.250989
O O3 0.659144 0.775581 0.194817
O O4 0.602278 0.000000 0.182276
O O5 0.500000 0.279653 0.088443
O O6 0.442017 0.500000 0.091840
O O7 0.433550 0.298441 0.000000
O O8 0.932509 0.500000 0.330958
O O9 0.926170 0.237137 0.379307
O O10 0.000000 0.306114 0.314222
O O11 0.786217 0.500000 0.217486
O O12 0.750000 0.750000 0.204355
O O13 0.802892 0.697506 0.308941
O O14 0.094108 0.175108 0.500000
O O15 0.160412 0.257317 0.577537
O O16 0.121961 0.000000 0.596193
O O17 0.206439 0.500000 0.595876
O O18 0.250000 0.750000 0.587961
#
# Coordination Sequence:
#
# PCOD8269449 Si02
#       6
#    16  16  16  16  16  16
#     4  10  19  34  56  83 111 139 175 220 266 313
#     4   9  19  35  53  78 114 150 182 217 260 312
#     4  10  21  38  58  79 105 138 177 223 275 328
#     4   9  18  32  52  79 109 137 170 214 263 313
#     4  11  24  39  54  75 105 141 181 225 273 324
#     4  10  19  35  57  80 107 138 174 219 271 326
#
# _framework density 17.932554
#
# number of rings (size 3 to 8) (size 9 to 14) (size 15 to 20)
#    0.000    2.167    1.667    2.000    0.000    5.667 
#    0.000    2.500    0.000    0.500    0.000    0.000 
#    0.000    0.000    0.000    0.000    0.000    0.000 
#
# Total GULP energy -595319.619149 kJ/mol
# GULP energy per Si atom -12402.492066 kJ/mol
# Density = 1.789174 g / cm^3
# Si number density = 17.932554 Si / 1000 Ang^3
#
#
#
# Elastic Constant Matrix: (Units=GPa)
#
#
# Indices 1 2 3 4 5 6 
#
# 1 124.3753 54.5228 63.0566 0.0000 0.0000 0.0000
# 2 54.5228 78.4154 44.7403 0.0000 0.0000 0.0000
# 3 63.0566 44.7403 87.7832 0.0000 0.0000 0.0000
# 4 0.0000 0.0000 0.0000 30.8568 0.0000 0.0000
# 5 0.0000 0.0000 0.0000 0.0000 29.0480 0.0000
# 6 0.0000 0.0000 0.0000 0.0000 0.0000 35.1663
#
#
#
# Elastic Compliance Matrix: (Units=1/GPa)
#
#
# Indices 1 2 3 4 5 6 
#
# 1 0.014271 -0.005744 -0.007324 0.000000 0.000000 0.000000
# 2 -0.005744 0.020294 -0.006217 0.000000 0.000000 0.000000
# 3 -0.007324 -0.006217 0.019821 0.000000 0.000000 0.000000
# 4 0.000000 0.000000 0.000000 0.032408 0.000000 0.000000
# 5 0.000000 0.000000 0.000000 0.000000 0.034426 0.000000
# 6 0.000000 0.000000 0.000000 0.000000 0.000000 0.028436
#
#
# Mechanical properties :
#
#
# Convention : Reuss Voigt Hill
#
# Bulk Modulus (GPa) = 63.22566 68.35702 65.79134
# Shear Modulus (GPa) = 25.84012 27.56452 26.70232
#
# Velocity S-wave (km/s) = 3.80012 3.92487 3.86300
# Velocity P-wave (km/s) = 7.38841 7.66428 7.52761
#
# Compressibility (1/GPa) = 0.01581636
#
# Stress axis : x y z
#
# Youngs Moduli (GPa) = 70.07027 49.27638 50.45176
#
# Poissons Ratio (x) = 0.28306 0.36949
# Poissons Ratio (y) = 0.40251 0.31364
# Poissons Ratio (z) = 0.51317 0.30634
#
# Static dielectric constant tensor:
#      x y z
#    x 3.411470 0.000000 0.000000 
#    y 0.000000 3.339140 0.000000 
#    z 0.000000 0.000000 3.168790 
# 
# 
# High freq. dielectric constant tensor:
#      x y z
#    x 1.700460 0.000000 0.000000 
#    y 0.000000 1.694670 0.000000 
#    z 0.000000 0.000000 1.678660 
# 
# From -- ./inp_files/60161.got.cif
#   From: 2010.03.12/outbox.cif.g09.slc.cpg/sg65_31_cif.got.tgz:60161.got - 2010.04.10 20:52:16.
