data_PCOD8269812
_publ_section_title
;
Structure prediction by ZEFSAII (Michael W. Deem and Ramdas Pophale) SiO2 
 PCOD8269812
Probable space group: C M M M
;
_chemical_formula_sum "Si O2"
_cell_formula_units_Z 104
_cell_length_a 29.439717
_cell_length_b 9.022839
_cell_length_c 22.602821
_cell_angle_alpha 90.000000
_cell_angle_beta 90.000000
_cell_angle_gamma 90.000000
_cell_volume 6003.983425
_symmetry_space_group_name_H-M "C M M M"
_symmetry_group_IT_number 65
_symmetry_cell_setting 'orthorhombic'
loop_
_space_group_symop_operation_xyz
x,y,z
-x,-y,z
x,-y,-z
-x,y,-z
-x,-y,-z
x,y,-z
-x,y,z
x,-y,z
1/2+x,1/2+y,z
1/2-x,1/2-y,z
1/2+x,1/2-y,-z
1/2-x,1/2+y,-z
1/2-x,1/2-y,-z
1/2+x,1/2+y,-z
1/2-x,1/2+y,z
1/2+x,1/2-y,z
loop_
_atom_site_type_symbol
_atom_site_label
_atom_site_fract_x
_atom_site_fract_y
_atom_site_fract_z
Si Si1 0.294334 0.332489 0.406685
Si Si2 0.446019 0.166649 0.934997
Si Si3 0.885864 0.674287 0.406259
Si Si4 0.946154 0.168064 0.179383
Si Si5 0.794082 0.833435 0.734003
Si Si6 0.553473 0.673100 0.500000
Si Si7 0.384786 0.826984 0.731143
O O1 0.296073 0.500000 0.431461
O O2 0.250000 0.250000 0.432476
O O3 0.338501 0.243757 0.428623
O O4 0.292083 0.333750 0.336369
O O5 0.500000 0.168448 0.934056
O O6 0.427047 0.273170 0.883607
O O7 0.428471 0.000000 0.922998
O O8 0.429081 0.220966 0.000000
O O9 0.884897 0.500000 0.419387
O O10 0.926719 0.750439 0.441379
O O11 0.893736 0.709070 0.337409
O O12 0.927407 0.265972 0.232838
O O13 0.000000 0.181571 0.181867
O O14 0.929677 0.000000 0.187081
O O15 0.750000 0.750000 0.759900
O O16 0.839224 0.750044 0.755349
O O17 0.794639 0.000000 0.759107
O O18 0.565854 0.500000 0.500000
O O19 0.500000 0.699781 0.500000
O O20 0.379241 0.000000 0.741913
#
# Coordination Sequence:
#
# PCOD8269812 Si02
#       7
#    16  16  16  16  16   8  16
#     4   9  16  28  49  76 104 130 154 183 226 282
#     4   8  14  26  44  64  88 122 162 200 238 282
#     4  10  21  37  56  76  97 123 158 199 242 288
#     4  10  20  31  44  66  97 131 165 202 243 286
#     4   9  16  27  45  69  97 127 158 192 232 281
#     4  11  25  43  60  75  92 119 157 201 247 293
#     4  10  20  33  50  72  98 128 161 198 241 287
#
# _framework density 17.321833000000002
#
# number of rings (size 3 to 8) (size 9 to 14) (size 15 to 20)
#    0.000    2.538    0.000    3.000    0.000    8.000 
#    0.000    5.000    0.000    0.000    0.000    0.000 
#    0.000    0.615    0.000    2.308    0.000    3.538 
#
# Total GULP energy -644769.645577 kJ/mol
# GULP energy per Si atom -12399.416261 kJ/mol
# Density = 1.728241 g / cm^3
# Si number density = 17.321833 Si / 1000 Ang^3
#
#
#
# Elastic Constant Matrix: (Units=GPa)
#
#
# Indices 1 2 3 4 5 6 
#
# 1 78.3858 55.5176 37.4618 0.0000 0.0000 0.0000
# 2 55.5176 136.6333 49.8295 0.0000 0.0000 0.0000
# 3 37.4618 49.8295 75.6248 0.0000 0.0000 0.0000
# 4 0.0000 0.0000 0.0000 23.5647 0.0000 0.0000
# 5 0.0000 0.0000 0.0000 0.0000 -0.1110 0.0000
# 6 0.0000 0.0000 0.0000 0.0000 0.0000 32.8737
#
#
#
# Elastic Compliance Matrix: (Units=1/GPa)
#
#
# Indices 1 2 3 4 5 6 
#
# 1 0.019736 -0.005863 -0.005914 0.000000 0.000000 0.000000
# 2 -0.005863 0.011375 -0.004591 0.000000 0.000000 0.000000
# 3 -0.005914 -0.004591 0.019178 0.000000 0.000000 0.000000
# 4 0.000000 0.000000 0.000000 0.042436 0.000000 0.000000
# 5 0.000000 0.000000 0.000000 0.000000 -9.012363 0.000000
# 6 0.000000 0.000000 0.000000 0.000000 0.000000 0.030419
#
#
# Mechanical properties :
#
#
# Convention : Reuss Voigt Hill
#
# Bulk Modulus (GPa) = 56.96609 64.02907 60.49758
# Shear Modulus (GPa) = -0.56493 21.12117 10.27812
#
# Velocity S-wave (km/s) = -0.57170 3.49569 2.43855
# Velocity P-wave (km/s) = 5.70285 7.30327 6.55211
#
# Compressibility (1/GPa) = 0.01755430
#
# Stress axis : x y z
#
# Youngs Moduli (GPa) = 50.66934 87.90958 52.14393
#
# Poissons Ratio (x) = 0.51537 0.30836
# Poissons Ratio (y) = 0.29705 0.23940
# Poissons Ratio (z) = 0.29964 0.40361
#
# Static dielectric constant tensor:
#      x y z
#    x 3.085160 0.000000 0.000000 
#    y 0.000000 3.461420 0.000000 
#    z 0.000000 0.000000 3.113070 
# 
# 
# High freq. dielectric constant tensor:
#      x y z
#    x 1.647800 0.000000 0.000000 
#    y 0.000000 1.686970 0.000000 
#    z 0.000000 0.000000 1.642210 
# 
# From -- ./inp_files/71848.got.cif
#   From: 2010.03.12/outbox.cif.g09.slc.cpg/sg65_36_cif.got.tgz:71848.got - 2010.04.10 20:52:16.
