data_PCOD8269391
_publ_section_title
;
Structure prediction by ZEFSAII (Michael W. Deem and Ramdas Pophale) SiO2 
 PCOD8269391
Probable space group: C M M M
;
_chemical_formula_sum "Si O2"
_cell_formula_units_Z 76
_cell_length_a 30.804295
_cell_length_b 12.098232
_cell_length_c 10.994126
_cell_angle_alpha 90.000000
_cell_angle_beta 90.000000
_cell_angle_gamma 90.000000
_cell_volume 4097.263475
_symmetry_space_group_name_H-M "C M M M"
_symmetry_group_IT_number 65
_symmetry_cell_setting 'orthorhombic'
loop_
_space_group_symop_operation_xyz
x,y,z
-x,-y,z
x,-y,-z
-x,y,-z
-x,-y,-z
x,y,-z
-x,y,z
x,-y,z
1/2+x,1/2+y,z
1/2-x,1/2-y,z
1/2+x,1/2-y,-z
1/2-x,1/2+y,-z
1/2-x,1/2-y,-z
1/2+x,1/2+y,-z
1/2-x,1/2+y,z
1/2+x,1/2-y,z
loop_
_atom_site_type_symbol
_atom_site_label
_atom_site_fract_x
_atom_site_fract_y
_atom_site_fract_z
Si Si1 0.873018 0.377504 0.357866
Si Si2 0.118875 0.000000 0.000000
Si Si3 0.701132 0.284891 0.642020
Si Si4 0.427207 0.500000 0.640931
Si Si5 0.451719 0.313736 0.000000
Si Si6 0.951844 0.762025 0.265406
Si Si7 0.835469 0.000000 0.744703
O O1 0.867296 0.391403 0.500000
O O2 0.874062 0.500000 0.297430
O O3 0.831720 0.309251 0.308195
O O4 0.917484 0.312679 0.334729
O O5 0.087953 0.103930 0.000000
O O6 0.149362 0.000000 0.116755
O O7 0.692787 0.309503 0.500000
O O8 0.750000 0.250000 0.666870
O O9 0.693788 0.393706 0.720726
O O10 0.441094 0.500000 0.500000
O O11 0.445678 0.607786 0.707944
O O12 0.375394 0.500000 0.650716
O O13 0.447054 0.239659 0.121113
O O14 0.500000 0.370041 0.000000
O O15 0.000000 0.727573 0.309634
#
# Coordination Sequence:
#
# PCOD8269391 Si02
#       7
#    16   4  16   8   8  16   8
#     4  10  21  37  55  80 114 150 190 234 286 349
#     4  12  19  34  58  82 116 158 184 230 289 334
#     4  10  21  37  60  88 116 145 183 237 290 340
#     4  12  21  33  54  83 118 144 178 231 283 340
#     4  10  19  34  55  80 111 151 200 241 273 326
#     4  11  22  36  55  81 114 151 192 235 282 334
#     4  12  22  36  60  89 115 148 190 231 287 340
#
# _framework density 18.548967000000001
#
# number of rings (size 3 to 8) (size 9 to 14) (size 15 to 20)
#    0.000    1.263    4.211    2.053    1.474    4.211 
#    0.000    2.105    0.000    1.895    0.000    0.000 
#    0.000    0.000    0.000    0.000    0.000    0.000 
#
# Total GULP energy -471186.007386 kJ/mol
# GULP energy per Si atom -12399.631773 kJ/mol
# Density = 1.850675 g / cm^3
# Si number density = 18.548967 Si / 1000 Ang^3
#
#
#
# Elastic Constant Matrix: (Units=GPa)
#
#
# Indices 1 2 3 4 5 6 
#
# 1 141.7579 64.4243 20.7927 0.0000 0.0000 0.0000
# 2 64.4243 134.8310 21.1272 0.0000 0.0000 0.0000
# 3 20.7927 21.1272 62.6234 0.0000 0.0000 0.0000
# 4 0.0000 0.0000 0.0000 15.0595 0.0000 0.0000
# 5 0.0000 0.0000 0.0000 0.0000 24.3304 0.0000
# 6 0.0000 0.0000 0.0000 0.0000 0.0000 11.9886
#
#
#
# Elastic Compliance Matrix: (Units=1/GPa)
#
#
# Indices 1 2 3 4 5 6 
#
# 1 0.009170 -0.004123 -0.001654 0.000000 0.000000 0.000000
# 2 -0.004123 0.009684 -0.001898 0.000000 0.000000 0.000000
# 3 -0.001654 -0.001898 0.017158 0.000000 0.000000 0.000000
# 4 0.000000 0.000000 0.000000 0.066403 0.000000 0.000000
# 5 0.000000 0.000000 0.000000 0.000000 0.041101 0.000000
# 6 0.000000 0.000000 0.000000 0.000000 0.000000 0.083413
#
#
# Mechanical properties :
#
#
# Convention : Reuss Voigt Hill
#
# Bulk Modulus (GPa) = 48.39627 61.32232 54.85929
# Shear Modulus (GPa) = 20.06687 25.80022 22.93354
#
# Velocity S-wave (km/s) = 3.29269 3.73356 3.52003
# Velocity P-wave (km/s) = 6.37209 7.19148 6.79415
#
# Compressibility (1/GPa) = 0.02066275
#
# Stress axis : x y z
#
# Youngs Moduli (GPa) = 109.04544 103.26320 58.28169
#
# Poissons Ratio (x) = 0.42572 0.09640
# Poissons Ratio (y) = 0.44955 0.11063
# Poissons Ratio (z) = 0.18036 0.19602
#
# Static dielectric constant tensor:
#      x y z
#    x 3.486270 0.000000 0.000000 
#    y 0.000000 3.482290 0.000000 
#    z 0.000000 0.000000 3.394840 
# 
# 
# High freq. dielectric constant tensor:
#      x y z
#    x 1.730920 0.000000 0.000000 
#    y 0.000000 1.707750 0.000000 
#    z 0.000000 0.000000 1.704050 
# 
# From -- ./inp_files/33604.got.cif
#   From: 2010.03.12/outbox.cif.g09.slc.cpg/sg65_17_cif.got.tgz:33604.got - 2010.04.10 20:52:16.
