data_PCOD8269450
_publ_section_title
;
Structure prediction by ZEFSAII (Michael W. Deem and Ramdas Pophale) SiO2 
 PCOD8269450
Probable space group: C M M M
;
_chemical_formula_sum "Si O2"
_cell_formula_units_Z 96
_cell_length_a 26.356174
_cell_length_b 14.826987
_cell_length_c 12.687801
_cell_angle_alpha 90.000000
_cell_angle_beta 90.000000
_cell_angle_gamma 90.000000
_cell_volume 4958.172488
_symmetry_space_group_name_H-M "C M M M"
_symmetry_group_IT_number 65
_symmetry_cell_setting 'orthorhombic'
loop_
_space_group_symop_operation_xyz
x,y,z
-x,-y,z
x,-y,-z
-x,y,-z
-x,-y,-z
x,y,-z
-x,y,z
x,-y,z
1/2+x,1/2+y,z
1/2-x,1/2-y,z
1/2+x,1/2-y,-z
1/2-x,1/2+y,-z
1/2-x,1/2-y,-z
1/2+x,1/2+y,-z
1/2-x,1/2+y,z
1/2+x,1/2-y,z
loop_
_atom_site_type_symbol
_atom_site_label
_atom_site_fract_x
_atom_site_fract_y
_atom_site_fract_z
Si Si1 0.391242 0.392839 0.686498
Si Si2 0.181833 0.894847 0.500000
Si Si3 0.292733 0.106969 0.500000
Si Si4 0.146321 0.606650 0.296663
Si Si5 0.666994 0.400445 0.886103
Si Si6 0.557634 0.222935 0.623006
Si Si7 0.274050 0.152966 0.120377
O O1 0.405547 0.500000 0.683107
O O2 0.347950 0.366583 0.603862
O O3 0.368679 0.356793 0.797552
O O4 0.438475 0.328834 0.657732
O O5 0.236872 0.847985 0.500000
O O6 0.190621 0.000000 0.500000
O O7 0.321258 0.140379 0.603929
O O8 0.289737 0.000000 0.500000
O O9 0.135176 0.500000 0.298735
O O10 0.093054 0.659809 0.303948
O O11 0.177221 0.632279 0.191557
O O12 0.645275 0.500000 0.900264
O O13 0.726095 0.410838 0.852331
O O14 0.662716 0.348419 0.000000
O O15 0.571799 0.211501 0.500000
O O16 0.500000 0.192680 0.643113
O O17 0.250000 0.250000 0.141508
O O18 0.292219 0.140018 0.000000
#
# Coordination Sequence:
#
# PCOD8269450 Si02
#       7
#    16   8   8  16  16  16  16
#     4  10  19  34  56  83 116 149 182 227 285 354
#     4   9  16  27  47  78 113 145 172 208 268 338
#     4   9  18  31  49  78 113 147 182 224 272 330
#     4  11  22  38  58  83 115 151 196 242 286 337
#     4   9  17  30  51  80 114 151 184 211 251 321
#     4  11  24  41  59  80 106 140 192 252 307 356
#     4  10  20  34  55  86 122 156 190 226 268 329
#
# _framework density 19.361972999999999
#
# number of rings (size 3 to 8) (size 9 to 14) (size 15 to 20)
#    0.000    2.000    1.667    2.500    0.000    4.333 
#    0.000    2.917    0.000    2.000    0.000    3.500 
#    0.000    0.000    0.000    0.000    0.000    0.000 
#
# Total GULP energy -594763.349136 kJ/mol
# GULP energy per Si atom -12390.903107 kJ/mol
# Density = 1.931790 g / cm^3
# Si number density = 19.361973 Si / 1000 Ang^3
#
#
#
# Elastic Constant Matrix: (Units=GPa)
#
#
# Indices 1 2 3 4 5 6 
#
# 1 89.8737 29.1971 44.6992 0.0000 0.0000 0.0000
# 2 29.1971 70.8753 23.2265 0.0000 0.0000 0.0000
# 3 44.6992 23.2265 114.5697 0.0000 0.0000 0.0000
# 4 0.0000 0.0000 0.0000 -112.9155 0.0000 0.0000
# 5 0.0000 0.0000 0.0000 0.0000 26.3543 0.0000
# 6 0.0000 0.0000 0.0000 0.0000 0.0000 26.5179
#
#
#
# Elastic Compliance Matrix: (Units=1/GPa)
#
#
# Indices 1 2 3 4 5 6 
#
# 1 0.015081 -0.004589 -0.004954 0.000000 0.000000 0.000000
# 2 -0.004589 0.016510 -0.001556 0.000000 0.000000 0.000000
# 3 -0.004954 -0.001556 0.010976 0.000000 0.000000 0.000000
# 4 0.000000 0.000000 0.000000 -0.008856 0.000000 0.000000
# 5 0.000000 0.000000 0.000000 0.000000 0.037944 0.000000
# 6 0.000000 0.000000 0.000000 0.000000 0.000000 0.037710
#
#
# Mechanical properties :
#
#
# Convention : Reuss Voigt Hill
#
# Bulk Modulus (GPa) = 49.09450 52.17378 50.63414
# Shear Modulus (GPa) = 36.13892 -0.12891 18.00501
#
# Velocity S-wave (km/s) = 4.32498 -0.25831 3.05276
# Velocity P-wave (km/s) = 7.09590 5.18807 6.21562
#
# Compressibility (1/GPa) = 0.02036888
#
# Stress axis : x y z
#
# Youngs Moduli (GPa) = 66.30700 60.56940 91.10392
#
# Poissons Ratio (x) = 0.27798 0.45129
# Poissons Ratio (y) = 0.30431 0.14180
# Poissons Ratio (z) = 0.32846 0.09427
#
# Static dielectric constant tensor:
#      x y z
#    x 3.349330 0.000000 0.000000 
#    y 0.000000 3.104970 0.000000 
#    z 0.000000 0.000000 3.810660 
# 
# 
# High freq. dielectric constant tensor:
#      x y z
#    x 1.721730 0.000000 0.000000 
#    y 0.000000 1.753070 0.000000 
#    z 0.000000 0.000000 1.756430 
# 
# From -- ./inp_files/45700.got.cif
#   From: 2010.03.12/outbox.cif.g09.slc.cpg/sg65_23_cif.got.tgz:45700.got - 2010.04.10 20:52:16.
