data_PCOD8269815
_publ_section_title
;
Structure prediction by ZEFSAII (Michael W. Deem and Ramdas Pophale) SiO2 
 PCOD8269815
Probable space group: C M M M
;
_chemical_formula_sum "Si O2"
_cell_formula_units_Z 80
_cell_length_a 17.896312
_cell_length_b 22.313025
_cell_length_c 11.823040
_cell_angle_alpha 90.000000
_cell_angle_beta 90.000000
_cell_angle_gamma 90.000000
_cell_volume 4721.186466
_symmetry_space_group_name_H-M "C M M M"
_symmetry_group_IT_number 65
_symmetry_cell_setting 'orthorhombic'
loop_
_space_group_symop_operation_xyz
x,y,z
-x,-y,z
x,-y,-z
-x,y,-z
-x,-y,-z
x,y,-z
-x,y,z
x,-y,z
1/2+x,1/2+y,z
1/2-x,1/2-y,z
1/2+x,1/2-y,-z
1/2-x,1/2+y,-z
1/2-x,1/2-y,-z
1/2+x,1/2+y,-z
1/2-x,1/2+y,z
1/2+x,1/2-y,z
loop_
_atom_site_type_symbol
_atom_site_label
_atom_site_fract_x
_atom_site_fract_y
_atom_site_fract_z
Si Si1 0.000000 0.432033 0.135048
Si Si2 0.413741 0.265070 0.871257
Si Si3 0.413235 0.384137 0.739233
Si Si4 0.087321 0.932662 0.500000
Si Si5 0.282756 0.567356 0.128588
Si Si6 0.857313 0.637988 0.133782
O O1 0.073066 0.398880 0.184930
O O2 0.000000 0.500000 0.179060
O O3 0.000000 0.429274 0.000000
O O4 0.500000 0.245393 0.865372
O O5 0.395710 0.316960 0.781489
O O6 0.363819 0.208137 0.835532
O O7 0.394594 0.285909 0.000000
O O8 0.500000 0.400438 0.761005
O O9 0.390025 0.392944 0.608581
O O10 0.361952 0.429380 0.808943
O O11 0.000000 0.942964 0.500000
O O12 0.124147 0.000000 0.500000
O O13 0.251497 0.500000 0.137987
O O14 0.220455 0.611690 0.182842
O O15 0.298021 0.585702 0.000000
O O16 0.857916 0.628729 0.000000
#
# Coordination Sequence:
#
# PCOD8269815 Si02
#       6
#     8  16  16   8  16  16
#     4   9  14  22  40  64  92 129 165 196 230 263
#     4   9  16  28  47  71  98 127 160 191 226 280
#     4  10  20  33  50  70  92 121 154 194 238 283
#     4   9  18  34  54  71  86 113 159 204 241 283
#     4  10  20  31  44  68 100 129 160 195 231 277
#     4   9  16  27  43  65  96 131 162 193 227 270
#
# _framework density 16.944894000000001
#
# number of rings (size 3 to 8) (size 9 to 14) (size 15 to 20)
#    0.000    2.600    1.000    1.800    0.000    5.600 
#    0.000    4.000    0.000    2.400    0.000    0.000 
#    0.000    0.000    0.000    4.900    0.000    1.700 
#
# Total GULP energy -495818.933717 kJ/mol
# GULP energy per Si atom -12395.473343 kJ/mol
# Density = 1.690633 g / cm^3
# Si number density = 16.944894 Si / 1000 Ang^3
#
#
#
# Elastic Constant Matrix: (Units=GPa)
#
#
# Indices 1 2 3 4 5 6 
#
# 1 83.1394 43.1432 38.0197 0.0000 0.0000 0.0000
# 2 43.1432 111.8933 55.0963 0.0000 0.0000 0.0000
# 3 38.0197 55.0963 77.2902 0.0000 0.0000 0.0000
# 4 0.0000 0.0000 0.0000 -3.7454 0.0000 0.0000
# 5 0.0000 0.0000 0.0000 0.0000 8.6381 0.0000
# 6 0.0000 0.0000 0.0000 0.0000 0.0000 29.0230
#
#
#
# Elastic Compliance Matrix: (Units=1/GPa)
#
#
# Indices 1 2 3 4 5 6 
#
# 1 0.016422 -0.003628 -0.005492 0.000000 0.000000 0.000000
# 2 -0.003628 0.014572 -0.008603 0.000000 0.000000 0.000000
# 3 -0.005492 -0.008603 0.021773 0.000000 0.000000 0.000000
# 4 0.000000 0.000000 0.000000 -0.266993 0.000000 0.000000
# 5 0.000000 0.000000 0.000000 0.000000 0.115766 0.000000
# 6 0.000000 0.000000 0.000000 0.000000 0.000000 0.034455
#
#
# Mechanical properties :
#
#
# Convention : Reuss Voigt Hill
#
# Bulk Modulus (GPa) = 57.73422 60.53791 59.13607
# Shear Modulus (GPa) = -219.43701 15.85405 -101.79148
#
# Velocity S-wave (km/s) = -11.39217 3.06212 -7.75903
# Velocity P-wave (km/s) = 11.78543 6.95025 6.73017
#
# Compressibility (1/GPa) = 0.01732075
#
# Stress axis : x y z
#
# Youngs Moduli (GPa) = 60.89383 68.62469 45.92893
#
# Poissons Ratio (x) = 0.24894 0.25225
# Poissons Ratio (y) = 0.22089 0.39514
# Poissons Ratio (z) = 0.33444 0.59040
#
# Static dielectric constant tensor:
#      x y z
#    x 3.219310 0.000000 0.000000 
#    y 0.000000 3.228240 0.000000 
#    z 0.000000 0.000000 2.883440 
# 
# 
# High freq. dielectric constant tensor:
#      x y z
#    x 1.650460 0.000000 0.000000 
#    y 0.000000 1.664840 0.000000 
#    z 0.000000 0.000000 1.591950 
# 
# From -- ./inp_files/26724.got.cif
#   From: 2010.03.12/outbox.cif.g09.slc.cpg/sg65_14_cif.got.tgz:26724.got - 2010.04.10 20:52:16.
