data_PCOD8269701
_publ_section_title
;
Structure prediction by ZEFSAII (Michael W. Deem and Ramdas Pophale) SiO2 
 PCOD8269701
Probable space group: C M M M
;
_chemical_formula_sum "Si O2"
_cell_formula_units_Z 88
_cell_length_a 17.038980
_cell_length_b 8.275139
_cell_length_c 30.717702
_cell_angle_alpha 90.000000
_cell_angle_beta 90.000000
_cell_angle_gamma 90.000000
_cell_volume 4331.193768
_symmetry_space_group_name_H-M "C M M M"
_symmetry_group_IT_number 65
_symmetry_cell_setting 'orthorhombic'
loop_
_space_group_symop_operation_xyz
x,y,z
-x,-y,z
x,-y,-z
-x,y,-z
-x,-y,-z
x,y,-z
-x,y,z
x,-y,z
1/2+x,1/2+y,z
1/2-x,1/2-y,z
1/2+x,1/2-y,-z
1/2-x,1/2+y,-z
1/2-x,1/2-y,-z
1/2+x,1/2+y,-z
1/2-x,1/2+y,z
1/2+x,1/2-y,z
loop_
_atom_site_type_symbol
_atom_site_label
_atom_site_fract_x
_atom_site_fract_y
_atom_site_fract_z
Si Si1 0.162442 0.192106 0.910313
Si Si2 0.915316 0.744467 0.386997
Si Si3 0.587969 0.308394 0.000000
Si Si4 0.865886 0.000000 0.675597
Si Si5 0.777627 0.500000 0.614723
Si Si6 0.591718 0.181524 0.174935
Si Si7 0.137688 0.000000 0.448658
Si Si8 0.905884 0.000000 0.226097
O O1 0.250000 0.250000 0.902221
O O2 0.134235 0.252869 0.957570
O O3 0.108120 0.280895 0.875359
O O4 0.154502 0.000000 0.905181
O O5 0.835270 0.649096 0.385399
O O6 0.910742 0.846545 0.431456
O O7 0.000000 0.651581 0.387611
O O8 0.913634 0.847658 0.342817
O O9 0.583974 0.500000 0.000000
O O10 0.500000 0.236432 0.000000
O O11 0.865120 0.000000 0.727195
O O12 0.776373 0.000000 0.657712
O O13 0.725323 0.500000 0.571281
O O14 0.500000 0.175306 0.182602
O O15 0.625224 0.334195 0.202893
O O16 0.625699 0.000000 0.187153
O O17 0.143496 0.000000 0.500000
O O18 0.000000 0.000000 0.229038
#
# Coordination Sequence:
#
# PCOD8269701 Si02
#       8
#    16  16   8   8   8  16   8   8
#     4  11  21  36  58  84 122 161 199 245 299 358
#     4  10  20  36  59  85 116 153 197 248 299 354
#     4   9  19  34  57  87 114 152 204 248 296 358
#     4  10  19  38  62  84 113 154 195 237 296 371
#     4  10  21  37  58  86 121 152 193 247 311 357
#     4  10  21  39  63  91 121 156 200 247 298 362
#     4  10  20  36  57  81 115 164 209 242 289 361
#     4  10  20  38  65  90 120 159 200 248 304 362
#
# _framework density 20.317723999999998
#
# number of rings (size 3 to 8) (size 9 to 14) (size 15 to 20)
#    0.000    2.091    0.909    5.455    0.000    2.909 
#    1.636    3.182    0.000    4.909    0.000    0.000 
#    0.000    0.000    0.000    0.000    0.000    0.000 
#
# Total GULP energy -545122.149198 kJ/mol
# GULP energy per Si atom -12389.139754 kJ/mol
# Density = 2.027148 g / cm^3
# Si number density = 20.317724 Si / 1000 Ang^3
#
#
#
# Elastic Constant Matrix: (Units=GPa)
#
#
# Indices 1 2 3 4 5 6 
#
# 1 91.8070 20.7169 20.5487 0.0000 0.0000 0.0000
# 2 20.7169 121.4729 56.7140 0.0000 0.0000 0.0000
# 3 20.5487 56.7140 163.1260 0.0000 0.0000 0.0000
# 4 0.0000 0.0000 0.0000 8.4038 0.0000 0.0000
# 5 0.0000 0.0000 0.0000 0.0000 14.9511 0.0000
# 6 0.0000 0.0000 0.0000 0.0000 0.0000 30.3564
#
#
#
# Elastic Compliance Matrix: (Units=1/GPa)
#
#
# Indices 1 2 3 4 5 6 
#
# 1 0.011441 -0.001526 -0.000911 0.000000 0.000000 0.000000
# 2 -0.001526 0.010031 -0.003295 0.000000 0.000000 0.000000
# 3 -0.000911 -0.003295 0.007391 0.000000 0.000000 0.000000
# 4 0.000000 0.000000 0.000000 0.118994 0.000000 0.000000
# 5 0.000000 0.000000 0.000000 0.000000 0.066885 0.000000
# 6 0.000000 0.000000 0.000000 0.000000 0.000000 0.032942
#
#
# Mechanical properties :
#
#
# Convention : Reuss Voigt Hill
#
# Bulk Modulus (GPa) = 57.47631 63.59614 60.53622
# Shear Modulus (GPa) = 18.87176 29.30401 24.08788
#
# Velocity S-wave (km/s) = 3.05098 3.80187 3.44693
# Velocity P-wave (km/s) = 6.38447 7.11625 6.76027
#
# Compressibility (1/GPa) = 0.01739847
#
# Stress axis : x y z
#
# Youngs Moduli (GPa) = 87.40814 99.69030 135.30688
#
# Poissons Ratio (x) = 0.15213 0.12321
# Poissons Ratio (y) = 0.13339 0.44587
# Poissons Ratio (z) = 0.07959 0.32851
#
# Static dielectric constant tensor:
#      x y z
#    x 3.680470 0.000000 0.000000 
#    y 0.000000 4.105320 0.000000 
#    z 0.000000 0.000000 3.507730 
# 
# 
# High freq. dielectric constant tensor:
#      x y z
#    x 1.797690 0.000000 0.000000 
#    y 0.000000 1.795230 0.000000 
#    z 0.000000 0.000000 1.778030 
# 
# From -- ./inp_files/78040.got.cif
#   From: 2010.03.12/outbox.cif.g09.slc.cpg/sg65_40_cif.got.tgz:78040.got - 2010.04.10 20:52:16.
