data_PCOD8269132
_publ_section_title
;
Structure prediction by ZEFSAII (Michael W. Deem and Ramdas Pophale) SiO2 
 PCOD8269132
Probable space group: C M M M
;
_chemical_formula_sum "Si O2"
_cell_formula_units_Z 72
_cell_length_a 8.754840
_cell_length_b 18.240360
_cell_length_c 23.749079
_cell_angle_alpha 90.000000
_cell_angle_beta 90.000000
_cell_angle_gamma 90.000000
_cell_volume 3792.524466
_symmetry_space_group_name_H-M "C M M M"
_symmetry_group_IT_number 65
_symmetry_cell_setting 'orthorhombic'
loop_
_space_group_symop_operation_xyz
x,y,z
-x,-y,z
x,-y,-z
-x,y,-z
-x,-y,-z
x,y,-z
-x,y,z
x,-y,z
1/2+x,1/2+y,z
1/2-x,1/2-y,z
1/2+x,1/2-y,-z
1/2-x,1/2+y,-z
1/2-x,1/2-y,-z
1/2+x,1/2+y,-z
1/2-x,1/2+y,z
1/2+x,1/2-y,z
loop_
_atom_site_type_symbol
_atom_site_label
_atom_site_fract_x
_atom_site_fract_y
_atom_site_fract_z
Si Si1 0.818423 0.669859 0.000000
Si Si2 0.318430 0.917766 0.891525
Si Si3 0.319159 0.170577 0.783292
Si Si4 0.682127 0.584248 0.318782
Si Si5 0.829194 0.913044 0.559508
O O1 0.750000 0.750000 0.000000
O O2 0.757305 0.626953 0.945244
O O3 0.000000 0.675333 0.000000
O O4 0.500000 0.920403 0.892696
O O5 0.259711 0.879282 0.834713
O O6 0.251203 0.000000 0.893533
O O7 0.500000 0.176514 0.782692
O O8 0.250000 0.250000 0.791792
O O9 0.263390 0.136088 0.725364
O O10 0.500000 0.593147 0.315646
O O11 0.728792 0.500000 0.306996
O O12 0.744895 0.611090 0.380761
O O13 0.745896 0.888536 0.500000
O O14 0.000000 0.881117 0.557369
O O15 0.837494 0.000000 0.561606
#
# Coordination Sequence:
#
# PCOD8269132 Si02
#       5
#     8  16  16  16  16
#     4  10  19  33  55  79 105 134 164 200 240 288
#     4   9  18  33  54  78 100 127 166 207 246 291
#     4  11  22  35  51  71  99 133 169 209 252 300
#     4   9  17  30  50  76 103 130 163 203 247 297
#     4   7  10  19  39  68  98 125 155 194 240 290
#
# _framework density 18.984715999999999
#
# number of rings (size 3 to 8) (size 9 to 14) (size 15 to 20)
#    0.000    2.889    0.000    4.333    0.000    2.667 
#    0.000    1.111    0.000    5.333    0.000    3.111 
#    0.000    0.000    0.000    0.000    0.000    0.000 
#
# Total GULP energy -445988.212981 kJ/mol
# GULP energy per Si atom -12388.561472 kJ/mol
# Density = 1.894151 g / cm^3
# Si number density = 18.984716 Si / 1000 Ang^3
#
#
#
# Elastic Constant Matrix: (Units=GPa)
#
#
# Indices 1 2 3 4 5 6 
#
# 1 27.8895 24.7979 27.1479 0.0000 0.0000 0.0000
# 2 24.7979 135.4230 86.7969 0.0000 0.0000 0.0000
# 3 27.1479 86.7969 206.6972 0.0000 0.0000 0.0000
# 4 0.0000 0.0000 0.0000 3.3043 0.0000 0.0000
# 5 0.0000 0.0000 0.0000 0.0000 18.8831 0.0000
# 6 0.0000 0.0000 0.0000 0.0000 0.0000 1.5729
#
#
#
# Elastic Compliance Matrix: (Units=1/GPa)
#
#
# Indices 1 2 3 4 5 6 
#
# 1 0.044424 -0.006014 -0.003310 0.000000 0.000000 0.000000
# 2 -0.006014 0.010918 -0.003795 0.000000 0.000000 0.000000
# 3 -0.003310 -0.003795 0.006866 0.000000 0.000000 0.000000
# 4 0.000000 0.000000 0.000000 0.302633 0.000000 0.000000
# 5 0.000000 0.000000 0.000000 0.000000 0.052957 0.000000
# 6 0.000000 0.000000 0.000000 0.000000 0.000000 0.635787
#
#
# Mechanical properties :
#
#
# Convention : Reuss Voigt Hill
#
# Bulk Modulus (GPa) = 27.79908 71.94390 49.87149
# Shear Modulus (GPa) = 4.57955 20.16985 12.37470
#
# Velocity S-wave (km/s) = 1.55482 3.26302 2.55585
# Velocity P-wave (km/s) = 4.23060 7.22318 5.91914
#
# Compressibility (1/GPa) = 0.03597241
#
# Stress axis : x y z
#
# Youngs Moduli (GPa) = 22.51025 91.59527 145.64174
#
# Poissons Ratio (x) = 0.55081 0.48200
# Poissons Ratio (y) = 0.13537 0.55267
# Poissons Ratio (z) = 0.07450 0.34758
#
# Static dielectric constant tensor:
#      x y z
#    x 2.990670 0.000000 0.000000 
#    y 0.000000 3.319360 0.000000 
#    z 0.000000 0.000000 4.190650 
# 
# 
# High freq. dielectric constant tensor:
#      x y z
#    x 1.684900 0.000000 0.000000 
#    y 0.000000 1.717040 0.000000 
#    z 0.000000 0.000000 1.772060 
# 
# From -- ./inp_files/59296.got.cif
#   From: 2010.03.12/outbox.cif.g09.slc.cpg/sg65_30_cif.got.tgz:59296.got - 2010.04.10 20:52:16.
