data_PCOD8269926
_publ_section_title
;
Structure prediction by ZEFSAII (Michael W. Deem and Ramdas Pophale) SiO2 
 PCOD8269926
Probable space group: C M M M
;
_chemical_formula_sum "Si O2"
_cell_formula_units_Z 72
_cell_length_a 36.262502
_cell_length_b 8.928204
_cell_length_c 14.125343
_cell_angle_alpha 90.000000
_cell_angle_beta 90.000000
_cell_angle_gamma 90.000000
_cell_volume 4573.207142
_symmetry_space_group_name_H-M "C M M M"
_symmetry_group_IT_number 65
_symmetry_cell_setting 'orthorhombic'
loop_
_space_group_symop_operation_xyz
x,y,z
-x,-y,z
x,-y,-z
-x,y,-z
-x,-y,-z
x,y,-z
-x,y,z
x,-y,z
1/2+x,1/2+y,z
1/2-x,1/2-y,z
1/2+x,1/2-y,-z
1/2-x,1/2+y,-z
1/2-x,1/2-y,-z
1/2+x,1/2+y,-z
1/2-x,1/2+y,z
1/2+x,1/2-y,z
loop_
_atom_site_type_symbol
_atom_site_label
_atom_site_fract_x
_atom_site_fract_y
_atom_site_fract_z
Si Si1 0.786154 0.831541 0.612517
Si Si2 0.071980 0.822962 0.716127
Si Si3 0.000000 0.822053 0.606223
Si Si4 0.042496 0.673472 0.892472
Si Si5 0.639088 0.176434 0.390794
O O1 0.783851 0.833842 0.500000
O O2 0.750000 0.750000 0.654468
O O3 0.822174 0.741710 0.645706
O O4 0.787922 0.000000 0.652884
O O5 0.067909 0.774673 0.825236
O O6 0.107583 0.746989 0.672661
O O7 0.036286 0.762923 0.659396
O O8 0.076295 0.000000 0.708599
O O9 0.000000 0.756739 0.500000
O O10 0.000000 0.000000 0.604871
O O11 0.047737 0.500000 0.866141
O O12 0.000000 0.720922 0.879708
O O13 0.055129 0.703548 0.000000
O O14 0.631984 0.220525 0.500000
O O15 0.639890 0.000000 0.376717
#
# Coordination Sequence:
#
# PCOD8269926 Si02
#       5
#    16  16   8  16  16
#     4   9  16  27  44  65  89 119 154 191 230 272
#     4  11  20  31  47  67  91 120 154 195 237 277
#     4   9  18  30  42  59  86 120 155 189 226 269
#     4   9  18  33  51  68  88 115 147 188 238 287
#     4  10  20  32  45  64  92 126 161 195 230 272
#
# _framework density 15.743876
#
# number of rings (size 3 to 8) (size 9 to 14) (size 15 to 20)
#    0.000    2.333    1.111    3.333    0.000    5.333 
#    0.000    1.111    0.000    2.667    0.000    0.000 
#    0.000    0.889    0.000    3.333    0.000    5.111 
#
# Total GULP energy -446445.321108 kJ/mol
# GULP energy per Si atom -12401.258920 kJ/mol
# Density = 1.570804 g / cm^3
# Si number density = 15.743876 Si / 1000 Ang^3
#
#
#
# Elastic Constant Matrix: (Units=GPa)
#
#
# Indices 1 2 3 4 5 6 
#
# 1 131.5818 51.8872 48.3483 0.0000 0.0000 0.0000
# 2 51.8872 80.5107 34.3736 0.0000 0.0000 0.0000
# 3 48.3483 34.3736 72.5565 0.0000 0.0000 0.0000
# 4 0.0000 0.0000 0.0000 22.0893 0.0000 0.0000
# 5 0.0000 0.0000 0.0000 0.0000 5.9491 0.0000
# 6 0.0000 0.0000 0.0000 0.0000 0.0000 29.7942
#
#
#
# Elastic Compliance Matrix: (Units=1/GPa)
#
#
# Indices 1 2 3 4 5 6 
#
# 1 0.011589 -0.005230 -0.005245 0.000000 0.000000 0.000000
# 2 -0.005230 0.017930 -0.005009 0.000000 0.000000 0.000000
# 3 -0.005245 -0.005009 0.019651 0.000000 0.000000 0.000000
# 4 0.000000 0.000000 0.000000 0.045271 0.000000 0.000000
# 5 0.000000 0.000000 0.000000 0.000000 0.168093 0.000000
# 6 0.000000 0.000000 0.000000 0.000000 0.000000 0.033564
#
#
# Mechanical properties :
#
#
# Convention : Reuss Voigt Hill
#
# Bulk Modulus (GPa) = 54.94051 61.54078 58.24065
# Shear Modulus (GPa) = 15.00905 21.56917 18.28911
#
# Velocity S-wave (km/s) = 3.09095 3.70537 3.41202
# Velocity P-wave (km/s) = 6.90730 7.58155 7.25227
#
# Compressibility (1/GPa) = 0.01820150
#
# Stress axis : x y z
#
# Youngs Moduli (GPa) = 86.28641 55.77284 50.88902
#
# Poissons Ratio (x) = 0.29168 0.26691
# Poissons Ratio (y) = 0.45125 0.25492
# Poissons Ratio (z) = 0.45257 0.27939
#
# Static dielectric constant tensor:
#      x y z
#    x 3.023950 0.000000 0.000000 
#    y 0.000000 3.018270 0.000000 
#    z 0.000000 0.000000 2.773090 
# 
# 
# High freq. dielectric constant tensor:
#      x y z
#    x 1.599700 0.000000 0.000000 
#    y 0.000000 1.611500 0.000000 
#    z 0.000000 0.000000 1.567850 
# 
# From -- ./inp_files/36993.got.cif
#   From: 2010.03.12/outbox.cif.g09.slc.cpg/sg65_19_cif.got.tgz:36993.got - 2010.04.10 20:52:16.
