data_PCOD8269245
_publ_section_title
;
Structure prediction by ZEFSAII (Michael W. Deem and Ramdas Pophale) SiO2 
 PCOD8269245
Probable space group: C M M M
;
_chemical_formula_sum "Si O2"
_cell_formula_units_Z 96
_cell_length_a 8.945493
_cell_length_b 29.027186
_cell_length_c 20.275313
_cell_angle_alpha 90.000000
_cell_angle_beta 90.000000
_cell_angle_gamma 90.000000
_cell_volume 5264.738242
_symmetry_space_group_name_H-M "C M M M"
_symmetry_group_IT_number 65
_symmetry_cell_setting 'orthorhombic'
loop_
_space_group_symop_operation_xyz
x,y,z
-x,-y,z
x,-y,-z
-x,y,-z
-x,-y,-z
x,y,-z
-x,y,z
x,-y,z
1/2+x,1/2+y,z
1/2-x,1/2-y,z
1/2+x,1/2-y,-z
1/2-x,1/2+y,-z
1/2-x,1/2-y,-z
1/2+x,1/2+y,-z
1/2-x,1/2+y,z
1/2+x,1/2-y,z
loop_
_atom_site_type_symbol
_atom_site_label
_atom_site_fract_x
_atom_site_fract_y
_atom_site_fract_z
Si Si1 0.676371 0.799682 0.685313
Si Si2 0.671304 0.359362 0.425895
Si Si3 0.822694 0.549705 0.236776
Si Si4 0.325605 0.948089 0.386530
Si Si5 0.674743 0.702755 0.924267
Si Si6 0.176277 0.355247 0.816242
O O1 0.500000 0.793995 0.679526
O O2 0.750000 0.750000 0.686226
O O3 0.731246 0.828245 0.622557
O O4 0.721834 0.825883 0.752213
O O5 0.685617 0.339413 0.500000
O O6 0.500000 0.358602 0.402176
O O7 0.730388 0.411832 0.428143
O O8 0.765082 0.500000 0.209052
O O9 0.768285 0.556122 0.311489
O O10 0.765870 0.592228 0.192880
O O11 0.000000 0.549901 0.237979
O O12 0.500000 0.935347 0.392318
O O13 0.297627 0.000000 0.413018
O O14 0.500000 0.707944 0.912614
O O15 0.750000 0.750000 0.900798
O O16 0.738571 0.661688 0.880726
O O17 0.714256 0.691818 0.000000
O O18 0.000000 0.352633 0.828746
#
# Coordination Sequence:
#
# PCOD8269245 Si02
#       6
#    16  16  16  16  16  16
#     4  11  23  39  58  81 106 136 177 224 274 327
#     4  11  24  39  54  75 106 143 181 224 274 325
#     4   8  14  28  52  81 110 137 170 215 262 309
#     4   9  17  33  57  81 106 138 177 221 270 324
#     4  10  21  36  54  79 112 148 183 219 262 313
#     4  10  19  33  57  86 111 139 176 218 266 313
#
# _framework density 18.234525000000001
#
# number of rings (size 3 to 8) (size 9 to 14) (size 15 to 20)
#    0.000    2.167    1.667    3.000    0.000    6.000 
#    0.000    1.667    0.000    1.000    0.000    3.500 
#    0.000    0.000    0.000    0.000    0.000    0.000 
#
# Total GULP energy -595146.373635 kJ/mol
# GULP energy per Si atom -12398.882784 kJ/mol
# Density = 1.819302 g / cm^3
# Si number density = 18.234525 Si / 1000 Ang^3
#
#
#
# Elastic Constant Matrix: (Units=GPa)
#
#
# Indices 1 2 3 4 5 6 
#
# 1 61.3534 42.3911 36.5894 0.0000 0.0000 0.0000
# 2 42.3911 137.6244 56.5326 0.0000 0.0000 0.0000
# 3 36.5894 56.5326 86.1148 0.0000 0.0000 0.0000
# 4 0.0000 0.0000 0.0000 24.3976 0.0000 0.0000
# 5 0.0000 0.0000 0.0000 0.0000 28.7255 0.0000
# 6 0.0000 0.0000 0.0000 0.0000 0.0000 29.3783
#
#
#
# Elastic Compliance Matrix: (Units=1/GPa)
#
#
# Indices 1 2 3 4 5 6 
#
# 1 0.023558 -0.004306 -0.007183 0.000000 0.000000 0.000000
# 2 -0.004306 0.010736 -0.005219 0.000000 0.000000 0.000000
# 3 -0.007183 -0.005219 0.018090 0.000000 0.000000 0.000000
# 4 0.000000 0.000000 0.000000 0.040988 0.000000 0.000000
# 5 0.000000 0.000000 0.000000 0.000000 0.034812 0.000000
# 6 0.000000 0.000000 0.000000 0.000000 0.000000 0.034039
#
#
# Mechanical properties :
#
#
# Convention : Reuss Voigt Hill
#
# Bulk Modulus (GPa) = 52.71560 61.79100 57.25330
# Shear Modulus (GPa) = 24.75741 26.47225 25.61483
#
# Velocity S-wave (km/s) = 3.68872 3.81434 3.75206
# Velocity P-wave (km/s) = 6.86402 7.30474 7.08781
#
# Compressibility (1/GPa) = 0.01896972
#
# Stress axis : x y z
#
# Youngs Moduli (GPa) = 42.44917 93.14419 55.27859
#
# Poissons Ratio (x) = 0.40105 0.39706
# Poissons Ratio (y) = 0.18277 0.28847
# Poissons Ratio (z) = 0.30490 0.48608
#
# Static dielectric constant tensor:
#      x y z
#    x 3.206110 0.000000 0.000000 
#    y 0.000000 3.759510 0.000000 
#    z 0.000000 0.000000 3.235220 
# 
# 
# High freq. dielectric constant tensor:
#      x y z
#    x 1.694030 0.000000 0.000000 
#    y 0.000000 1.715840 0.000000 
#    z 0.000000 0.000000 1.691720 
# 
# From -- ./inp_files/60208.got.cif
#   From: 2010.03.12/outbox.cif.g09.slc.cpg/sg65_31_cif.got.tgz:60208.got - 2010.04.10 20:52:16.
