data_PCOD8269882
_publ_section_title
;
Structure prediction by ZEFSAII (Michael W. Deem and Ramdas Pophale) SiO2 
 PCOD8269882
Probable space group: C M M M
;
_chemical_formula_sum "Si O2"
_cell_formula_units_Z 104
_cell_length_a 37.041289
_cell_length_b 11.272885
_cell_length_c 17.871036
_cell_angle_alpha 90.000000
_cell_angle_beta 90.000000
_cell_angle_gamma 90.000000
_cell_volume 7462.268950
_symmetry_space_group_name_H-M "C M M M"
_symmetry_group_IT_number 65
_symmetry_cell_setting 'orthorhombic'
loop_
_space_group_symop_operation_xyz
x,y,z
-x,-y,z
x,-y,-z
-x,y,-z
-x,-y,-z
x,y,-z
-x,y,z
x,-y,z
1/2+x,1/2+y,z
1/2-x,1/2-y,z
1/2+x,1/2-y,-z
1/2-x,1/2+y,-z
1/2-x,1/2-y,-z
1/2+x,1/2+y,-z
1/2-x,1/2+y,z
1/2+x,1/2-y,z
loop_
_atom_site_type_symbol
_atom_site_label
_atom_site_fract_x
_atom_site_fract_y
_atom_site_fract_z
Si Si1 0.958684 0.863398 0.727442
Si Si2 0.456978 0.000000 0.341975
Si Si3 0.923786 0.261776 0.138000
Si Si4 0.042569 0.737229 0.417794
Si Si5 0.853603 0.364421 0.086869
Si Si6 0.457429 0.000000 0.172117
Si Si7 0.271897 0.134441 0.088998
Si Si8 0.459455 0.360510 0.000000
O O1 0.932315 0.790965 0.780775
O O2 0.947583 0.840950 0.641026
O O3 0.000000 0.819887 0.741013
O O4 0.954630 0.000000 0.746336
O O5 0.441771 0.885828 0.385611
O O6 0.442245 0.000000 0.257173
O O7 0.500000 0.000000 0.340296
O O8 0.880573 0.278551 0.132205
O O9 0.943404 0.386872 0.127067
O O10 0.938052 0.176233 0.073775
O O11 0.059422 0.764632 0.500000
O O12 0.000000 0.726007 0.426381
O O13 0.865187 0.500000 0.100482
O O14 0.812920 0.344332 0.115717
O O15 0.856640 0.331460 0.000000
O O16 0.500000 0.000000 0.171971
O O17 0.250000 0.250000 0.120738
O O18 0.259120 0.000000 0.116037
O O19 0.269745 0.133889 0.000000
O O20 0.461907 0.500000 0.000000
O O21 0.500000 0.306610 0.000000
#
# Coordination Sequence:
#
# PCOD8269882 Si02
#       8
#    16   8  16  16  16   8  16   8
#     4  10  20  32  43  54  75 108 141 175 215 257
#     4   9  15  26  40  60  82  97 119 164 218 260
#     4  12  20  32  46  59  78 104 140 179 219 259
#     4   9  16  26  42  61  77  95 123 164 213 260
#     4   9  17  30  44  62  83 105 128 167 216 255
#     4  11  20  28  44  64  79 101 139 183 220 254
#     4   8  14  26  45  64  84 106 129 158 202 253
#     4  11  24  37  45  53  72 106 146 187 226 257
#
# _framework density 13.936780000000001
#
# number of rings (size 3 to 8) (size 9 to 14) (size 15 to 20)
#    0.000    2.231    3.077    3.000    0.000    2.769 
#    0.000    3.846    0.000    0.000    0.000    0.000 
#    0.000    0.000    0.000    0.000    0.000    0.769 
#
# Total GULP energy -644472.807152 kJ/mol
# GULP energy per Si atom -12393.707830 kJ/mol
# Density = 1.390506 g / cm^3
# Si number density = 13.936780 Si / 1000 Ang^3
#
#
#
# Elastic Constant Matrix: (Units=GPa)
#
#
# Indices 1 2 3 4 5 6 
#
# 1 63.2352 35.9208 20.0708 0.0000 0.0000 0.0000
# 2 35.9208 75.4363 22.2989 0.0000 0.0000 0.0000
# 3 20.0708 22.2989 52.3576 0.0000 0.0000 0.0000
# 4 0.0000 0.0000 0.0000 7.5873 0.0000 0.0000
# 5 0.0000 0.0000 0.0000 0.0000 4.8450 0.0000
# 6 0.0000 0.0000 0.0000 0.0000 0.0000 17.4977
#
#
#
# Elastic Compliance Matrix: (Units=1/GPa)
#
#
# Indices 1 2 3 4 5 6 
#
# 1 0.022636 -0.009396 -0.004675 0.000000 0.000000 0.000000
# 2 -0.009396 0.019066 -0.004518 0.000000 0.000000 0.000000
# 3 -0.004675 -0.004518 0.022816 0.000000 0.000000 0.000000
# 4 0.000000 0.000000 0.000000 0.131799 0.000000 0.000000
# 5 0.000000 0.000000 0.000000 0.000000 0.206400 0.000000
# 6 0.000000 0.000000 0.000000 0.000000 0.000000 0.057150
#
#
# Mechanical properties :
#
#
# Convention : Reuss Voigt Hill
#
# Bulk Modulus (GPa) = 36.57920 38.62331 37.60125
# Shear Modulus (GPa) = 9.87832 13.50191 11.69011
#
# Velocity S-wave (km/s) = 2.66521 3.11593 2.89934
# Velocity P-wave (km/s) = 5.98119 6.38112 6.18439
#
# Compressibility (1/GPa) = 0.02733794
#
# Stress axis : x y z
#
# Youngs Moduli (GPa) = 44.17827 52.44901 43.82916
#
# Poissons Ratio (x) = 0.49284 0.20491
# Poissons Ratio (y) = 0.41512 0.19803
# Poissons Ratio (z) = 0.20654 0.23697
#
# Static dielectric constant tensor:
#      x y z
#    x 2.524750 0.000000 0.000000 
#    y 0.000000 3.178930 0.000000 
#    z 0.000000 0.000000 2.709920 
# 
# 
# High freq. dielectric constant tensor:
#      x y z
#    x 1.483450 0.000000 0.000000 
#    y 0.000000 1.544290 0.000000 
#    z 0.000000 0.000000 1.510060 
# 
# From -- ./inp_files/58257.got.cif
#   From: 2010.03.12/outbox.cif.g09.slc.cpg/sg65_30_cif.got.tgz:58257.got - 2010.04.10 20:52:16.
