data_PCOD8269165
_publ_section_title
;
Structure prediction by ZEFSAII (Michael W. Deem and Ramdas Pophale) SiO2 
 PCOD8269165
Probable space group: C M M M
;
_chemical_formula_sum "Si O2"
_cell_formula_units_Z 88
_cell_length_a 22.816558
_cell_length_b 22.309495
_cell_length_c 9.056739
_cell_angle_alpha 90.000000
_cell_angle_beta 90.000000
_cell_angle_gamma 90.000000
_cell_volume 4610.114599
_symmetry_space_group_name_H-M "C M M M"
_symmetry_group_IT_number 65
_symmetry_cell_setting 'orthorhombic'
loop_
_space_group_symop_operation_xyz
x,y,z
-x,-y,z
x,-y,-z
-x,y,-z
-x,-y,-z
x,y,-z
-x,y,z
x,-y,z
1/2+x,1/2+y,z
1/2-x,1/2-y,z
1/2+x,1/2-y,-z
1/2-x,1/2+y,-z
1/2-x,1/2-y,-z
1/2+x,1/2+y,-z
1/2-x,1/2+y,z
1/2+x,1/2-y,z
loop_
_atom_site_type_symbol
_atom_site_label
_atom_site_fract_x
_atom_site_fract_y
_atom_site_fract_z
Si Si1 0.744750 0.680759 0.675428
Si Si2 0.066368 0.758807 0.329897
Si Si3 0.125349 0.878747 0.328958
Si Si4 0.931263 0.432767 0.664764
Si Si5 0.567499 0.500000 0.676858
Si Si6 0.860230 0.661623 0.827400
O O1 0.747736 0.676404 0.500000
O O2 0.750000 0.750000 0.726553
O O3 0.686257 0.647662 0.737369
O O4 0.799256 0.646625 0.747500
O O5 0.080304 0.742926 0.500000
O O6 0.074749 0.829507 0.302773
O O7 0.111802 0.723357 0.229488
O O8 0.000000 0.741111 0.288876
O O9 0.136392 0.890318 0.500000
O O10 0.102269 0.941499 0.259965
O O11 0.916325 0.408311 0.500000
O O12 0.907142 0.500000 0.681556
O O13 0.903162 0.392739 0.791064
O O14 0.000000 0.431485 0.690083
O O15 0.500000 0.500000 0.733900
O O16 0.566753 0.500000 0.500000
O O17 0.849904 0.666821 0.000000
#
# Coordination Sequence:
#
# PCOD8269165 Si02
#       6
#    16  16  16  16   8  16
#     4  10  19  36  58  76 104 145 191 235 273 325
#     4  10  19  33  55  81 109 143 184 227 275 334
#     4   9  17  31  52  79 110 144 181 227 284 332
#     4   9  19  38  62  84 107 140 184 229 273 327
#     4   9  16  28  50  84 119 141 170 227 292 343
#     4  12  24  35  52  80 115 147 182 226 281 341
#
# _framework density 19.088463000000001
#
# number of rings (size 3 to 8) (size 9 to 14) (size 15 to 20)
#    0.000    2.091    1.818    3.273    0.000    5.818 
#    1.636    0.909    0.000    0.000    0.000    1.909 
#    0.000    4.364    0.000    0.000    0.000    0.000 
#
# Total GULP energy -545479.857050 kJ/mol
# GULP energy per Si atom -12397.269478 kJ/mol
# Density = 1.904502 g / cm^3
# Si number density = 19.088463 Si / 1000 Ang^3
#
#
#
# Elastic Constant Matrix: (Units=GPa)
#
#
# Indices 1 2 3 4 5 6 
#
# 1 111.0582 52.1152 25.2000 0.0000 0.0000 0.0000
# 2 52.1152 118.6905 16.8584 0.0000 0.0000 0.0000
# 3 25.2000 16.8584 29.4310 0.0000 0.0000 0.0000
# 4 0.0000 0.0000 0.0000 4.3061 0.0000 0.0000
# 5 0.0000 0.0000 0.0000 0.0000 6.6824 0.0000
# 6 0.0000 0.0000 0.0000 0.0000 0.0000 28.2336
#
#
#
# Elastic Compliance Matrix: (Units=1/GPa)
#
#
# Indices 1 2 3 4 5 6 
#
# 1 0.013079 -0.004520 -0.008610 0.000000 0.000000 0.000000
# 2 -0.004520 0.010733 -0.002278 0.000000 0.000000 0.000000
# 3 -0.008610 -0.002278 0.042655 0.000000 0.000000 0.000000
# 4 0.000000 0.000000 0.000000 0.232227 0.000000 0.000000
# 5 0.000000 0.000000 0.000000 0.000000 0.149647 0.000000
# 6 0.000000 0.000000 0.000000 0.000000 0.000000 0.035419
#
#
# Mechanical properties :
#
#
# Convention : Reuss Voigt Hill
#
# Bulk Modulus (GPa) = 28.04915 49.72522 38.88718
# Shear Modulus (GPa) = 9.49741 18.84483 14.17112
#
# Velocity S-wave (km/s) = 2.23300 3.14544 2.72764
# Velocity P-wave (km/s) = 4.62326 6.26882 5.50785
#
# Compressibility (1/GPa) = 0.03565171
#
# Stress axis : x y z
#
# Youngs Moduli (GPa) = 76.45917 93.16666 23.44407
#
# Poissons Ratio (x) = 0.42110 0.20185
# Poissons Ratio (y) = 0.34558 0.05341
# Poissons Ratio (z) = 0.65829 0.21225
#
# Static dielectric constant tensor:
#      x y z
#    x 3.643740 0.000000 0.000000 
#    y 0.000000 3.640220 0.000000 
#    z 0.000000 0.000000 3.014990 
# 
# 
# High freq. dielectric constant tensor:
#      x y z
#    x 1.751190 0.000000 0.000000 
#    y 0.000000 1.745050 0.000000 
#    z 0.000000 0.000000 1.690170 
# 
# From -- ./inp_files/11829.got.cif
#   From: 2010.03.12/outbox.cif.g09.slc.cpg/sg65_6_cif.got.tgz:11829.got - 2010.04.10 20:52:16.
