data_PCOD8269331
_publ_section_title
;
Structure prediction by ZEFSAII (Michael W. Deem and Ramdas Pophale) SiO2 
 PCOD8269331
Probable space group: C M M M
;
_chemical_formula_sum "Si O2"
_cell_formula_units_Z 104
_cell_length_a 28.036024
_cell_length_b 9.109916
_cell_length_c 21.439708
_cell_angle_alpha 90.000000
_cell_angle_beta 90.000000
_cell_angle_gamma 90.000000
_cell_volume 5475.826280
_symmetry_space_group_name_H-M "C M M M"
_symmetry_group_IT_number 65
_symmetry_cell_setting 'orthorhombic'
loop_
_space_group_symop_operation_xyz
x,y,z
-x,-y,z
x,-y,-z
-x,y,-z
-x,-y,-z
x,y,-z
-x,y,z
x,-y,z
1/2+x,1/2+y,z
1/2-x,1/2-y,z
1/2+x,1/2-y,-z
1/2-x,1/2+y,-z
1/2-x,1/2-y,-z
1/2+x,1/2+y,-z
1/2-x,1/2+y,z
1/2+x,1/2-y,z
loop_
_atom_site_type_symbol
_atom_site_label
_atom_site_fract_x
_atom_site_fract_y
_atom_site_fract_z
Si Si1 0.446152 0.829429 0.867170
Si Si2 0.705009 0.332070 0.430162
Si Si3 0.885195 0.328384 0.746989
Si Si4 0.604774 0.670632 0.624039
Si Si5 0.136377 0.830250 0.069918
Si Si6 0.945637 0.826443 0.500000
Si Si7 0.801084 0.174702 0.814128
O O1 0.500000 0.766493 0.870137
O O2 0.425051 0.798878 0.798894
O O3 0.413273 0.752506 0.918565
O O4 0.446012 0.000000 0.882974
O O5 0.693463 0.272872 0.500000
O O6 0.719133 0.500000 0.434018
O O7 0.750000 0.250000 0.400192
O O8 0.660816 0.306427 0.385288
O O9 0.872879 0.500000 0.740528
O O10 0.909161 0.266526 0.683892
O O11 0.836852 0.239258 0.762212
O O12 0.591482 0.500000 0.635016
O O13 0.578092 0.735226 0.563118
O O14 0.177951 0.782236 0.117756
O O15 0.124821 0.000000 0.079204
O O16 0.154392 0.794735 0.000000
O O17 0.000000 0.777527 0.500000
O O18 0.937784 0.000000 0.500000
O O19 0.750000 0.250000 0.806633
O O20 0.796345 0.000000 0.805094
#
# Coordination Sequence:
#
# PCOD8269331 Si02
#       7
#    16  16  16  16  16   8  16
#     4   9  19  36  55  75 103 140 180 223 270 318
#     4   9  17  30  48  70  96 126 157 194 242 297
#     4  10  21  36  54  77 105 139 180 223 268 318
#     4  10  19  34  54  76 104 135 170 216 268 316
#     4   9  19  35  54  80 113 144 176 217 264 313
#     4   9  18  34  56  79 103 135 175 217 265 325
#     4  10  20  36  57  80 109 145 182 220 261 308
#
# _framework density 18.992567999999999
#
# number of rings (size 3 to 8) (size 9 to 14) (size 15 to 20)
#    0.000    2.538    0.769    0.923    0.000    4.308 
#    0.000    3.462    0.000    0.462    0.000    0.000 
#    0.000    0.000    0.000    0.000    0.000    0.000 
#
# Total GULP energy -644775.750316 kJ/mol
# GULP energy per Si atom -12399.533660 kJ/mol
# Density = 1.894934 g / cm^3
# Si number density = 18.992568 Si / 1000 Ang^3
#
#
#
# Elastic Constant Matrix: (Units=GPa)
#
#
# Indices 1 2 3 4 5 6 
#
# 1 90.7676 30.5275 23.6508 0.0000 0.0000 0.0000
# 2 30.5275 54.0943 29.7747 0.0000 0.0000 0.0000
# 3 23.6508 29.7747 103.0137 0.0000 0.0000 0.0000
# 4 0.0000 0.0000 0.0000 28.5025 0.0000 0.0000
# 5 0.0000 0.0000 0.0000 0.0000 13.3069 0.0000
# 6 0.0000 0.0000 0.0000 0.0000 0.0000 25.8636
#
#
#
# Elastic Compliance Matrix: (Units=1/GPa)
#
#
# Indices 1 2 3 4 5 6 
#
# 1 0.013699 -0.007135 -0.001083 0.000000 0.000000 0.000000
# 2 -0.007135 0.025700 -0.005790 0.000000 0.000000 0.000000
# 3 -0.001083 -0.005790 0.011630 0.000000 0.000000 0.000000
# 4 0.000000 0.000000 0.000000 0.035085 0.000000 0.000000
# 5 0.000000 0.000000 0.000000 0.000000 0.075149 0.000000
# 6 0.000000 0.000000 0.000000 0.000000 0.000000 0.038664
#
#
# Mechanical properties :
#
#
# Convention : Reuss Voigt Hill
#
# Bulk Modulus (GPa) = 43.45430 46.19796 44.82613
# Shear Modulus (GPa) = 21.22128 24.46277 22.84202
#
# Velocity S-wave (km/s) = 3.34630 3.59279 3.47173
# Velocity P-wave (km/s) = 6.15302 6.44887 6.30268
#
# Compressibility (1/GPa) = 0.02301268
#
# Stress axis : x y z
#
# Youngs Moduli (GPa) = 72.99841 38.91100 85.98740
#
# Poissons Ratio (x) = 0.27762 0.09312
# Poissons Ratio (y) = 0.52083 0.49787
# Poissons Ratio (z) = 0.07905 0.22530
#
# Static dielectric constant tensor:
#      x y z
#    x 3.463180 0.000000 0.000000 
#    y 0.000000 3.356330 0.000000 
#    z 0.000000 0.000000 3.544830 
# 
# 
# High freq. dielectric constant tensor:
#      x y z
#    x 1.733350 0.000000 0.000000 
#    y 0.000000 1.724780 0.000000 
#    z 0.000000 0.000000 1.741020 
# 
# From -- ./inp_files/65846.got.cif
#   From: 2010.03.12/outbox.cif.g09.slc.cpg/sg65_33_cif.got.tgz:65846.got - 2010.04.10 20:52:16.
