data_PCOD8269906
_publ_section_title
;
Structure prediction by ZEFSAII (Michael W. Deem and Ramdas Pophale) SiO2 
 PCOD8269906
Probable space group: C M M M
;
_chemical_formula_sum "Si O2"
_cell_formula_units_Z 88
_cell_length_a 9.013692
_cell_length_b 28.304355
_cell_length_c 21.780076
_cell_angle_alpha 90.000000
_cell_angle_beta 90.000000
_cell_angle_gamma 90.000000
_cell_volume 5556.679748
_symmetry_space_group_name_H-M "C M M M"
_symmetry_group_IT_number 65
_symmetry_cell_setting 'orthorhombic'
loop_
_space_group_symop_operation_xyz
x,y,z
-x,-y,z
x,-y,-z
-x,y,-z
-x,-y,-z
x,y,-z
-x,y,z
x,-y,z
1/2+x,1/2+y,z
1/2-x,1/2-y,z
1/2+x,1/2-y,-z
1/2-x,1/2+y,-z
1/2-x,1/2-y,-z
1/2+x,1/2+y,-z
1/2-x,1/2+y,z
1/2+x,1/2-y,z
loop_
_atom_site_type_symbol
_atom_site_label
_atom_site_fract_x
_atom_site_fract_y
_atom_site_fract_z
Si Si1 0.829103 0.614623 0.347834
Si Si2 0.667546 0.556429 0.000000
Si Si3 0.833722 0.555905 0.880230
Si Si4 0.824569 0.054424 0.244414
Si Si5 0.174957 0.299166 0.430544
Si Si6 0.161616 0.051801 0.571500
O O1 0.729761 0.593595 0.293109
O O2 0.777506 0.665168 0.375571
O O3 0.803110 0.580178 0.405092
O O4 0.000000 0.614837 0.327480
O O5 0.750727 0.576558 0.060068
O O6 0.667548 0.500000 0.000000
O O7 0.500000 0.575803 0.000000
O O8 0.840460 0.500000 0.885783
O O9 0.744339 0.570891 0.819884
O O10 0.000000 0.576941 0.877080
O O11 0.000000 0.057421 0.239207
O O12 0.775979 0.000000 0.260258
O O13 0.224046 0.315639 0.500000
O O14 0.250000 0.250000 0.413559
O O15 0.000000 0.292508 0.429640
O O16 0.178327 0.047332 0.500000
O O17 0.000000 0.074634 0.588831
O O18 0.166094 0.000000 0.601867
#
# Coordination Sequence:
#
# PCOD8269906 Si02
#       6
#    16   8  16  16  16  16
#     4  11  21  31  45  65  87 110 138 174 216 261
#     4   9  15  23  37  57  81 111 148 187 224 259
#     4   9  16  26  40  58  81 111 149 190 226 256
#     4  10  20  32  44  60  86 120 155 186 216 256
#     4   9  19  35  52  69  87 106 133 173 220 269
#     4   9  18  31  44  59  81 109 141 174 206 245
#
# _framework density 15.836795
#
# number of rings (size 3 to 8) (size 9 to 14) (size 15 to 20)
#    0.000    2.455    0.000    3.545    0.000    9.455 
#    0.000    2.727    0.000    0.000    0.000    0.000 
#    0.000    0.000    0.000    0.818    0.000   11.182 
#
# Total GULP energy -545140.807848 kJ/mol
# GULP energy per Si atom -12389.563815 kJ/mol
# Density = 1.580075 g / cm^3
# Si number density = 15.836795 Si / 1000 Ang^3
#
#
#
# Elastic Constant Matrix: (Units=GPa)
#
#
# Indices 1 2 3 4 5 6 
#
# 1 79.7778 32.1816 53.8768 0.0000 0.0000 0.0000
# 2 32.1816 60.7698 51.5617 0.0000 0.0000 0.0000
# 3 53.8768 51.5617 107.8884 0.0000 0.0000 0.0000
# 4 0.0000 0.0000 0.0000 28.3619 0.0000 0.0000
# 5 0.0000 0.0000 0.0000 0.0000 32.6278 0.0000
# 6 0.0000 0.0000 0.0000 0.0000 0.0000 19.3260
#
#
#
# Elastic Compliance Matrix: (Units=1/GPa)
#
#
# Indices 1 2 3 4 5 6 
#
# 1 0.019332 -0.003442 -0.008009 0.000000 0.000000 0.000000
# 2 -0.003442 0.028293 -0.011802 0.000000 0.000000 0.000000
# 3 -0.008009 -0.011802 0.018909 0.000000 0.000000 0.000000
# 4 0.000000 0.000000 0.000000 0.035259 0.000000 0.000000
# 5 0.000000 0.000000 0.000000 0.000000 0.030649 0.000000
# 6 0.000000 0.000000 0.000000 0.000000 0.000000 0.051744
#
#
# Mechanical properties :
#
#
# Convention : Reuss Voigt Hill
#
# Bulk Modulus (GPa) = 49.93446 58.18624 54.06035
# Shear Modulus (GPa) = 21.06440 23.45086 22.25763
#
# Velocity S-wave (km/s) = 3.65100 3.85227 3.75298
# Velocity P-wave (km/s) = 7.02653 7.52380 7.27941
#
# Compressibility (1/GPa) = 0.02002625
#
# Stress axis : x y z
#
# Youngs Moduli (GPa) = 51.72749 35.34491 52.88524
#
# Poissons Ratio (x) = 0.12167 0.42355
# Poissons Ratio (y) = 0.17806 0.62418
# Poissons Ratio (z) = 0.41428 0.41716
#
# Static dielectric constant tensor:
#      x y z
#    x 3.177030 0.000000 0.000000 
#    y 0.000000 2.729350 0.000000 
#    z 0.000000 0.000000 3.115960 
# 
# 
# High freq. dielectric constant tensor:
#      x y z
#    x 1.620890 0.000000 0.000000 
#    y 0.000000 1.549750 0.000000 
#    z 0.000000 0.000000 1.608480 
# 
# From -- ./inp_files/68406.got.cif
#   From: 2010.03.12/outbox.cif.g09.slc.cpg/sg65_35_cif.got.tgz:68406.got - 2010.04.10 20:52:16.
