data_PCOD8269597
_publ_section_title
;
Structure prediction by ZEFSAII (Michael W. Deem and Ramdas Pophale) SiO2 
 PCOD8269597
Probable space group: C M M M
;
_chemical_formula_sum "Si O2"
_cell_formula_units_Z 96
_cell_length_a 13.841326
_cell_length_b 23.677776
_cell_length_c 14.269505
_cell_angle_alpha 90.000000
_cell_angle_beta 90.000000
_cell_angle_gamma 90.000000
_cell_volume 4676.570795
_symmetry_space_group_name_H-M "C M M M"
_symmetry_group_IT_number 65
_symmetry_cell_setting 'orthorhombic'
loop_
_space_group_symop_operation_xyz
x,y,z
-x,-y,z
x,-y,-z
-x,y,-z
-x,-y,-z
x,y,-z
-x,y,z
x,-y,z
1/2+x,1/2+y,z
1/2-x,1/2-y,z
1/2+x,1/2-y,-z
1/2-x,1/2+y,-z
1/2-x,1/2-y,-z
1/2+x,1/2+y,-z
1/2-x,1/2+y,z
1/2+x,1/2-y,z
loop_
_atom_site_type_symbol
_atom_site_label
_atom_site_fract_x
_atom_site_fract_y
_atom_site_fract_z
Si Si1 0.781568 0.563810 0.108273
Si Si2 0.614787 0.782686 0.396896
Si Si3 0.614554 0.273403 0.104277
Si Si4 0.114153 0.156552 0.397636
Si Si5 0.885286 0.663642 0.790785
Si Si6 0.612458 0.387499 0.204969
O O1 0.820364 0.500000 0.118365
O O2 0.847056 0.604449 0.171071
O O3 0.672138 0.565607 0.148257
O O4 0.783834 0.582840 0.000000
O O5 0.644545 0.806118 0.500000
O O6 0.500000 0.777303 0.388917
O O7 0.659285 0.719444 0.382902
O O8 0.650714 0.825997 0.316510
O O9 0.500000 0.269464 0.102927
O O10 0.656620 0.215489 0.147425
O O11 0.645484 0.326564 0.166426
O O12 0.656411 0.280996 0.000000
O O13 0.145523 0.132498 0.500000
O O14 0.143176 0.113211 0.314888
O O15 0.000000 0.164265 0.393132
O O16 0.000000 0.661562 0.797013
O O17 0.500000 0.400561 0.189007
#
# Coordination Sequence:
#
# PCOD8269597 Si02
#       6
#    16  16  16  16  16  16
#     4  11  26  43  56  75 102 139 195 244 270 312
#     4   8  13  25  50  84 118 147 174 207 256 325
#     4   9  16  27  48  80 110 136 169 209 264 332
#     4   8  13  25  50  84 118 147 174 207 256 325
#     4  10  19  35  58  82 112 145 174 218 277 329
#     4  10  19  35  58  82 112 145 174 218 277 329
#
# _framework density 20.527861999999999
#
# number of rings (size 3 to 8) (size 9 to 14) (size 15 to 20)
#    0.000    2.667    1.667    2.000    0.000    3.333 
#    0.000    4.167    0.000    4.000    0.000    4.667 
#    0.000    0.000    0.000    0.000    0.000    0.000 
#
# Total GULP energy -594934.743532 kJ/mol
# GULP energy per Si atom -12394.473824 kJ/mol
# Density = 2.048114 g / cm^3
# Si number density = 20.527862 Si / 1000 Ang^3
#
#
#
# Elastic Constant Matrix: (Units=GPa)
#
#
# Indices 1 2 3 4 5 6 
#
# 1 11.6197 3.5495 9.3011 0.0000 0.0000 0.0000
# 2 3.5495 68.5952 46.5920 0.0000 0.0000 0.0000
# 3 9.3011 46.5920 179.4543 0.0000 0.0000 0.0000
# 4 0.0000 0.0000 0.0000 25.4187 0.0000 0.0000
# 5 0.0000 0.0000 0.0000 0.0000 18.0185 0.0000
# 6 0.0000 0.0000 0.0000 0.0000 0.0000 22.5464
#
#
#
# Elastic Compliance Matrix: (Units=1/GPa)
#
#
# Indices 1 2 3 4 5 6 
#
# 1 0.089970 -0.001807 -0.004194 0.000000 0.000000 0.000000
# 2 -0.001807 0.017736 -0.004511 0.000000 0.000000 0.000000
# 3 -0.004194 -0.004511 0.006961 0.000000 0.000000 0.000000
# 4 0.000000 0.000000 0.000000 0.039341 0.000000 0.000000
# 5 0.000000 0.000000 0.000000 0.000000 0.055499 0.000000
# 6 0.000000 0.000000 0.000000 0.000000 0.000000 0.044353
#
#
# Mechanical properties :
#
#
# Convention : Reuss Voigt Hill
#
# Bulk Modulus (GPa) = 10.67888 42.06161 26.37025
# Shear Modulus (GPa) = 16.33466 26.54517 21.43992
#
# Velocity S-wave (km/s) = 2.82393 3.59991 3.23527
# Velocity P-wave (km/s) = 3.98073 6.14928 5.17976
#
# Compressibility (1/GPa) = 0.09364274
#
# Stress axis : x y z
#
# Youngs Moduli (GPa) = 11.11484 56.38289 143.65628
#
# Poissons Ratio (x) = 0.10187 0.60250
# Poissons Ratio (y) = 0.02008 0.64805
# Poissons Ratio (z) = 0.04662 0.25435
#
# Static dielectric constant tensor:
#      x y z
#    x 3.561940 0.000000 0.000000 
#    y 0.000000 3.258330 0.000000 
#    z 0.000000 0.000000 4.263550 
# 
# 
# High freq. dielectric constant tensor:
#      x y z
#    x 1.800840 0.000000 0.000000 
#    y 0.000000 1.744290 0.000000 
#    z 0.000000 0.000000 1.823500 
# 
# From -- ./inp_files/40324.got.cif
#   From: 2010.03.12/outbox.cif.g09.slc.cpg/sg65_21_cif.got.tgz:40324.got - 2010.04.10 20:52:16.
