data_PCOD8269400
_publ_section_title
;
Structure prediction by ZEFSAII (Michael W. Deem and Ramdas Pophale) SiO2 
 PCOD8269400
Probable space group: C M M M
;
_chemical_formula_sum "Si O2"
_cell_formula_units_Z 92
_cell_length_a 23.005389
_cell_length_b 14.452325
_cell_length_c 12.936297
_cell_angle_alpha 90.000000
_cell_angle_beta 90.000000
_cell_angle_gamma 90.000000
_cell_volume 4301.077602
_symmetry_space_group_name_H-M "C M M M"
_symmetry_group_IT_number 65
_symmetry_cell_setting 'orthorhombic'
loop_
_space_group_symop_operation_xyz
x,y,z
-x,-y,z
x,-y,-z
-x,y,-z
-x,-y,-z
x,y,-z
-x,y,z
x,-y,z
1/2+x,1/2+y,z
1/2-x,1/2-y,z
1/2+x,1/2-y,-z
1/2-x,1/2+y,-z
1/2-x,1/2-y,-z
1/2+x,1/2+y,-z
1/2-x,1/2+y,z
1/2+x,1/2-y,z
loop_
_atom_site_type_symbol
_atom_site_label
_atom_site_fract_x
_atom_site_fract_y
_atom_site_fract_z
Si Si1 0.151454 0.392678 0.773736
Si Si2 0.500000 0.243739 0.000000
Si Si3 0.119784 0.333532 0.000000
Si Si4 0.220861 0.105253 0.779636
Si Si5 0.500000 0.599301 0.835915
Si Si6 0.396676 0.604519 0.677607
Si Si7 0.700700 0.326402 0.000000
Si Si8 0.432908 0.792688 0.386196
O O1 0.147782 0.500000 0.742492
O O2 0.140700 0.385244 0.896554
O O3 0.216194 0.348305 0.753833
O O4 0.105573 0.338072 0.703595
O O5 0.448901 0.169928 0.000000
O O6 0.500000 0.309191 0.901914
O O7 0.139488 0.226449 0.000000
O O8 0.166651 0.142764 0.713699
O O9 0.205808 0.110144 0.900224
O O10 0.229102 0.000000 0.749545
O O11 0.500000 0.500000 0.896270
O O12 0.440882 0.602136 0.771995
O O13 0.393221 0.500000 0.628793
O O14 0.419768 0.682857 0.600065
O O15 0.750000 0.250000 0.000000
O O16 0.420828 0.836715 0.500000
O O17 0.500000 0.807446 0.354674
#
# Coordination Sequence:
#
# PCOD8269400 Si02
#       8
#    16   4   8  16   8  16   8  16
#     4  11  24  44  64  89 128 168 214 269 315 365
#     4  12  23  34  49  80 124 162 204 260 300 364
#     4  12  25  37  60  93 125 166 208 256 320 374
#     4  10  21  37  59  89 127 168 211 256 309 371
#     4  10  19  34  55  83 123 167 202 240 299 366
#     4  10  21  38  64  95 126 160 198 249 313 384
#     4  12  19  31  55  88 123 167 213 253 295 368
#     4  11  25  44  68  94 121 162 214 263 317 381
#
# _framework density 21.389987999999999
#
# number of rings (size 3 to 8) (size 9 to 14) (size 15 to 20)
#    0.000    1.217    2.609    3.783    1.217    2.435 
#    0.000    7.391    0.000    3.130    0.000    0.000 
#    0.000    0.000    0.000    0.000    0.000    0.000 
#
# Total GULP energy -569984.718875 kJ/mol
# GULP energy per Si atom -12390.972149 kJ/mol
# Density = 2.134130 g / cm^3
# Si number density = 21.389988 Si / 1000 Ang^3
#
#
#
# Elastic Constant Matrix: (Units=GPa)
#
#
# Indices 1 2 3 4 5 6 
#
# 1 161.3586 30.8546 37.4890 0.0000 0.0000 0.0000
# 2 30.8546 57.2920 20.9355 0.0000 0.0000 0.0000
# 3 37.4890 20.9355 86.2234 0.0000 0.0000 0.0000
# 4 0.0000 0.0000 0.0000 26.6031 0.0000 0.0000
# 5 0.0000 0.0000 0.0000 0.0000 21.2421 0.0000
# 6 0.0000 0.0000 0.0000 0.0000 0.0000 33.3032
#
#
#
# Elastic Compliance Matrix: (Units=1/GPa)
#
#
# Indices 1 2 3 4 5 6 
#
# 1 0.007353 -0.003064 -0.002453 0.000000 0.000000 0.000000
# 2 -0.003064 0.020430 -0.003629 0.000000 0.000000 0.000000
# 3 -0.002453 -0.003629 0.013545 0.000000 0.000000 0.000000
# 4 0.000000 0.000000 0.000000 0.037590 0.000000 0.000000
# 5 0.000000 0.000000 0.000000 0.000000 0.047076 0.000000
# 6 0.000000 0.000000 0.000000 0.000000 0.000000 0.030027
#
#
# Mechanical properties :
#
#
# Convention : Reuss Voigt Hill
#
# Bulk Modulus (GPa) = 43.40627 53.71468 48.56047
# Shear Modulus (GPa) = 27.47372 30.60267 29.03819
#
# Velocity S-wave (km/s) = 3.58777 3.78656 3.68851
# Velocity P-wave (km/s) = 6.12369 6.65462 6.39467
#
# Compressibility (1/GPa) = 0.02303815
#
# Stress axis : x y z
#
# Youngs Moduli (GPa) = 135.99607 48.94695 73.82558
#
# Poissons Ratio (x) = 0.14995 0.18111
# Poissons Ratio (y) = 0.41664 0.26788
# Poissons Ratio (z) = 0.33363 0.17761
#
# Static dielectric constant tensor:
#      x y z
#    x 4.387780 0.000000 0.000000 
#    y 0.000000 3.942210 0.000000 
#    z 0.000000 0.000000 3.712390 
# 
# 
# High freq. dielectric constant tensor:
#      x y z
#    x 1.862580 0.000000 0.000000 
#    y 0.000000 1.837470 0.000000 
#    z 0.000000 0.000000 1.810010 
# 
# From -- ./inp_files/44212.got.cif
#   From: 2010.03.12/outbox.cif.g09.slc.cpg/sg65_23_cif.got.tgz:44212.got - 2010.04.10 20:52:16.
