data_PCOD8269150
_publ_section_title
;
Structure prediction by ZEFSAII (Michael W. Deem and Ramdas Pophale) SiO2 
 PCOD8269150
Probable space group: C M M M
;
_chemical_formula_sum "Si O2"
_cell_formula_units_Z 112
_cell_length_a 19.093831
_cell_length_b 23.178695
_cell_length_c 13.553996
_cell_angle_alpha 90.000000
_cell_angle_beta 90.000000
_cell_angle_gamma 90.000000
_cell_volume 5998.593164
_symmetry_space_group_name_H-M "C M M M"
_symmetry_group_IT_number 65
_symmetry_cell_setting 'orthorhombic'
loop_
_space_group_symop_operation_xyz
x,y,z
-x,-y,z
x,-y,-z
-x,y,-z
-x,-y,-z
x,y,-z
-x,y,z
x,-y,z
1/2+x,1/2+y,z
1/2-x,1/2-y,z
1/2+x,1/2-y,-z
1/2-x,1/2+y,-z
1/2-x,1/2-y,-z
1/2+x,1/2+y,-z
1/2-x,1/2+y,z
1/2+x,1/2-y,z
loop_
_atom_site_type_symbol
_atom_site_label
_atom_site_fract_x
_atom_site_fract_y
_atom_site_fract_z
Si Si1 0.418732 0.829690 0.614731
Si Si2 0.078968 0.933723 0.756069
Si Si3 0.197098 0.931615 0.609360
Si Si4 0.828908 0.262368 0.232560
Si Si5 0.695410 0.126953 0.888811
Si Si6 0.156964 0.433218 0.702764
Si Si7 0.644737 0.347954 0.111354
O O1 0.399510 0.824732 0.500000
O O2 0.500000 0.817175 0.633842
O O3 0.373914 0.782159 0.673503
O O4 0.402793 0.894620 0.652451
O O5 0.131319 0.909034 0.672478
O O6 0.089669 0.896649 0.854966
O O7 0.000000 0.927054 0.716620
O O8 0.096244 0.000000 0.781356
O O9 0.191392 0.904784 0.500000
O O10 0.269373 0.911132 0.658077
O O11 0.195529 0.000000 0.603835
O O12 0.750000 0.250000 0.269038
O O13 0.829605 0.310650 0.147758
O O14 0.863238 0.206285 0.183793
O O15 0.661200 0.077346 0.820418
O O16 0.778998 0.123247 0.883567
O O17 0.668347 0.117194 0.000000
O O18 0.140923 0.500000 0.680338
O O19 0.627048 0.328657 0.000000
#
# Coordination Sequence:
#
# PCOD8269150 Si02
#       7
#    16  16  16  16  16  16  16
#     4  10  22  39  58  82 114 149 182 223 278 333
#     4  10  21  35  49  72 109 145 179 223 272 325
#     4   9  17  31  51  73  99 135 180 225 265 311
#     4   9  19  36  58  84 109 139 182 233 273 320
#     4   9  17  31  54  83 112 140 177 228 277 320
#     4  10  19  33  55  84 114 144 182 225 269 320
#     4  10  19  33  55  80 107 142 182 225 275 332
#
# _framework density 18.671043999999998
#
# number of rings (size 3 to 8) (size 9 to 14) (size 15 to 20)
#    0.000    2.429    1.429    0.857    0.000    4.857 
#    0.000    5.000    0.000   10.286    0.000    4.000 
#    0.000    0.000    0.000    0.000    0.000    0.000 
#
# Total GULP energy -694426.504928 kJ/mol
# GULP energy per Si atom -12400.473302 kJ/mol
# Density = 1.862855 g / cm^3
# Si number density = 18.671044 Si / 1000 Ang^3
#
#
#
# Elastic Constant Matrix: (Units=GPa)
#
#
# Indices 1 2 3 4 5 6 
#
# 1 71.9296 31.1531 56.1403 0.0000 0.0000 0.0000
# 2 31.1531 77.8081 48.9964 0.0000 0.0000 0.0000
# 3 56.1403 48.9964 149.0820 0.0000 0.0000 0.0000
# 4 0.0000 0.0000 0.0000 22.5424 0.0000 0.0000
# 5 0.0000 0.0000 0.0000 0.0000 22.6741 0.0000
# 6 0.0000 0.0000 0.0000 0.0000 0.0000 25.5873
#
#
#
# Elastic Compliance Matrix: (Units=1/GPa)
#
#
# Indices 1 2 3 4 5 6 
#
# 1 0.020758 -0.004273 -0.006413 0.000000 0.000000 0.000000
# 2 -0.004273 0.017086 -0.004006 0.000000 0.000000 0.000000
# 3 -0.006413 -0.004006 0.010439 0.000000 0.000000 0.000000
# 4 0.000000 0.000000 0.000000 0.044361 0.000000 0.000000
# 5 0.000000 0.000000 0.000000 0.000000 0.044103 0.000000
# 6 0.000000 0.000000 0.000000 0.000000 0.000000 0.039082
#
#
# Mechanical properties :
#
#
# Convention : Reuss Voigt Hill
#
# Bulk Modulus (GPa) = 52.91208 63.48882 58.20045
# Shear Modulus (GPa) = 23.63928 24.99611 24.31770
#
# Velocity S-wave (km/s) = 3.56208 3.66288 3.61283
# Velocity P-wave (km/s) = 6.73190 7.20879 6.97442
#
# Compressibility (1/GPa) = 0.01889928
#
# Stress axis : x y z
#
# Youngs Moduli (GPa) = 48.17381 58.52833 95.79324
#
# Poissons Ratio (x) = 0.25010 0.61428
# Poissons Ratio (y) = 0.20586 0.38376
# Poissons Ratio (z) = 0.30892 0.23447
#
# Static dielectric constant tensor:
#      x y z
#    x 3.267760 0.000000 0.000000 
#    y 0.000000 3.279960 0.000000 
#    z 0.000000 0.000000 3.558710 
# 
# 
# High freq. dielectric constant tensor:
#      x y z
#    x 1.706000 0.000000 0.000000 
#    y 0.000000 1.714800 0.000000 
#    z 0.000000 0.000000 1.729270 
# 
# From -- ./inp_files/29358.got.cif
#   From: 2010.03.12/outbox.cif.g09.slc.cpg/sg65_15_cif.got.tgz:29358.got - 2010.04.10 20:52:16.
