data_PCOD8269389
_publ_section_title
;
Structure prediction by ZEFSAII (Michael W. Deem and Ramdas Pophale) SiO2 
 PCOD8269389
Probable space group: C M M M
;
_chemical_formula_sum "Si O2"
_cell_formula_units_Z 104
_cell_length_a 17.844136
_cell_length_b 17.410686
_cell_length_c 18.076988
_cell_angle_alpha 90.000000
_cell_angle_beta 90.000000
_cell_angle_gamma 90.000000
_cell_volume 5616.134207
_symmetry_space_group_name_H-M "C M M M"
_symmetry_group_IT_number 65
_symmetry_cell_setting 'orthorhombic'
loop_
_space_group_symop_operation_xyz
x,y,z
-x,-y,z
x,-y,-z
-x,y,-z
-x,-y,-z
x,y,-z
-x,y,z
x,-y,z
1/2+x,1/2+y,z
1/2-x,1/2-y,z
1/2+x,1/2-y,-z
1/2-x,1/2+y,-z
1/2-x,1/2-y,-z
1/2+x,1/2+y,-z
1/2-x,1/2+y,z
1/2+x,1/2-y,z
loop_
_atom_site_type_symbol
_atom_site_label
_atom_site_fract_x
_atom_site_fract_y
_atom_site_fract_z
Si Si1 0.231719 0.590949 0.415584
Si Si2 0.911213 0.000000 0.083494
Si Si3 0.912383 0.152238 0.833064
Si Si4 0.918721 0.589916 0.657551
Si Si5 0.787715 0.833232 0.720191
Si Si6 0.668774 0.219895 0.086487
Si Si7 0.161091 0.412050 0.804297
O O1 0.248690 0.612434 0.500000
O O2 0.238236 0.500000 0.401523
O O3 0.148312 0.622012 0.393915
O O4 0.291634 0.636027 0.364418
O O5 0.883464 0.074103 0.128621
O O6 0.000000 0.000000 0.077101
O O7 0.876937 0.000000 0.000000
O O8 0.870604 0.168650 0.755293
O O9 0.894509 0.219179 0.891424
O O10 0.000000 0.149456 0.815272
O O11 0.922849 0.500000 0.643467
O O12 0.902782 0.606988 0.743790
O O13 0.000000 0.626862 0.637105
O O14 0.750000 0.750000 0.724162
O O15 0.740757 0.894885 0.766948
O O16 0.750000 0.250000 0.114483
O O17 0.648525 0.139136 0.123558
O O18 0.668475 0.206032 0.000000
O O19 0.158424 0.500000 0.829914
#
# Coordination Sequence:
#
# PCOD8269389 Si02
#       7
#    16   8  16  16  16  16  16
#     4   9  19  34  55  83 112 145 181 222 277 335
#     4   9  20  36  54  82 113 139 180 237 295 343
#     4  11  22  37  58  82 110 147 189 237 288 332
#     4   8  15  28  49  77 108 142 180 223 266 315
#     4  11  20  37  57  80 110 145 189 229 273 334
#     4  11  22  38  55  77 112 148 187 233 284 339
#     4  10  19  34  55  80 110 149 190 229 275 329
#
# _framework density 18.518077000000002
#
# number of rings (size 3 to 8) (size 9 to 14) (size 15 to 20)
#    0.000    2.077    3.077    1.846    2.154    2.462 
#    0.000    1.538    0.000    0.462    0.000    4.308 
#    0.000    0.000    0.000    0.000    0.000    0.000 
#
# Total GULP energy -644683.811600 kJ/mol
# GULP energy per Si atom -12397.765608 kJ/mol
# Density = 1.847593 g / cm^3
# Si number density = 18.518077 Si / 1000 Ang^3
#
#
#
# Elastic Constant Matrix: (Units=GPa)
#
#
# Indices 1 2 3 4 5 6 
#
# 1 65.8795 25.5573 34.4992 0.0000 0.0000 0.0000
# 2 25.5573 106.1741 63.1024 0.0000 0.0000 0.0000
# 3 34.4992 63.1024 122.3770 0.0000 0.0000 0.0000
# 4 0.0000 0.0000 0.0000 31.1476 0.0000 0.0000
# 5 0.0000 0.0000 0.0000 0.0000 16.6606 0.0000
# 6 0.0000 0.0000 0.0000 0.0000 0.0000 21.1884
#
#
#
# Elastic Compliance Matrix: (Units=1/GPa)
#
#
# Indices 1 2 3 4 5 6 
#
# 1 0.018072 -0.001906 -0.004112 0.000000 0.000000 0.000000
# 2 -0.001906 0.013781 -0.006569 0.000000 0.000000 0.000000
# 3 -0.004112 -0.006569 0.012718 0.000000 0.000000 0.000000
# 4 0.000000 0.000000 0.000000 0.032105 0.000000 0.000000
# 5 0.000000 0.000000 0.000000 0.000000 0.060022 0.000000
# 6 0.000000 0.000000 0.000000 0.000000 0.000000 0.047196
#
#
# Mechanical properties :
#
#
# Convention : Reuss Voigt Hill
#
# Bulk Modulus (GPa) = 51.55343 60.08313 55.81828
# Shear Modulus (GPa) = 23.19829 25.21744 24.20786
#
# Velocity S-wave (km/s) = 3.54324 3.69423 3.61952
# Velocity P-wave (km/s) = 6.68127 7.12127 6.90478
#
# Compressibility (1/GPa) = 0.01939735
#
# Stress axis : x y z
#
# Youngs Moduli (GPa) = 55.33435 72.56139 78.63059
#
# Poissons Ratio (x) = 0.13834 0.32330
# Poissons Ratio (y) = 0.10549 0.51651
# Poissons Ratio (z) = 0.22751 0.47664
#
# Static dielectric constant tensor:
#      x y z
#    x 3.410670 0.000000 0.000000 
#    y 0.000000 3.386570 0.000000 
#    z 0.000000 0.000000 3.411410 
# 
# 
# High freq. dielectric constant tensor:
#      x y z
#    x 1.696370 0.000000 0.000000 
#    y 0.000000 1.712560 0.000000 
#    z 0.000000 0.000000 1.712180 
# 
# From -- ./inp_files/54596.got.cif
#   From: 2010.03.12/outbox.cif.g09.slc.cpg/sg65_28_cif.got.tgz:54596.got - 2010.04.10 20:52:16.
