data_PCOD8269262
_publ_section_title
;
Structure prediction by ZEFSAII (Michael W. Deem and Ramdas Pophale) SiO2 
 PCOD8269262
Probable space group: C M M M
;
_chemical_formula_sum "Si O2"
_cell_formula_units_Z 64
_cell_length_a 22.009094
_cell_length_b 16.826785
_cell_length_c 8.936920
_cell_angle_alpha 90.000000
_cell_angle_beta 90.000000
_cell_angle_gamma 90.000000
_cell_volume 3309.719443
_symmetry_space_group_name_H-M "C M M M"
_symmetry_group_IT_number 65
_symmetry_cell_setting 'orthorhombic'
loop_
_space_group_symop_operation_xyz
x,y,z
-x,-y,z
x,-y,-z
-x,y,-z
-x,-y,-z
x,y,-z
-x,y,z
x,-y,z
1/2+x,1/2+y,z
1/2-x,1/2-y,z
1/2+x,1/2-y,-z
1/2-x,1/2+y,-z
1/2-x,1/2-y,-z
1/2+x,1/2+y,-z
1/2-x,1/2+y,z
1/2+x,1/2-y,z
loop_
_atom_site_type_symbol
_atom_site_label
_atom_site_fract_x
_atom_site_fract_y
_atom_site_fract_z
Si Si1 0.000000 0.910611 0.822476
Si Si2 0.928749 0.500000 0.166736
Si Si3 0.866908 0.356324 0.677541
Si Si4 0.234541 0.157753 0.334758
Si Si5 0.616925 0.312832 0.823406
O O1 0.059962 0.864571 0.766617
O O2 0.000000 0.000000 0.755932
O O3 0.000000 0.914527 0.000000
O O4 0.910645 0.577846 0.257057
O O5 0.000000 0.500000 0.152824
O O6 0.899781 0.500000 0.000000
O O7 0.874093 0.350208 0.500000
O O8 0.797572 0.382310 0.720050
O O9 0.886520 0.272351 0.745841
O O10 0.215966 0.126792 0.500000
O O11 0.250000 0.250000 0.343370
O O12 0.178935 0.140880 0.222291
O O13 0.616101 0.300556 0.000000
#
# Coordination Sequence:
#
# PCOD8269262 Si02
#       5
#     8   8  16  16  16
#     4   9  20  38  55  78 115 150 183 231 288 337
#     4  11  25  41  57  83 119 150 189 240 279 325
#     4  10  21  38  59  83 115 153 188 227 284 344
#     4   8  16  33  55  80 111 144 182 229 278 333
#     4  10  19  33  59  86 111 148 193 238 284 334
#
# _framework density 19.336986
#
# number of rings (size 3 to 8) (size 9 to 14) (size 15 to 20)
#    0.000    2.500    0.000    3.375    1.750    6.500 
#    2.250    1.875    0.000    5.250    0.000    0.000 
#    0.000    0.000    0.000    0.000    0.000    0.000 
#
# Total GULP energy -396681.921289 kJ/mol
# GULP energy per Si atom -12396.310040 kJ/mol
# Density = 1.929297 g / cm^3
# Si number density = 19.336986 Si / 1000 Ang^3
#
#
#
# Elastic Constant Matrix: (Units=GPa)
#
#
# Indices 1 2 3 4 5 6 
#
# 1 141.9528 63.6190 58.3444 0.0000 0.0000 0.0000
# 2 63.6190 100.0001 48.1969 0.0000 0.0000 0.0000
# 3 58.3444 48.1969 94.8014 0.0000 0.0000 0.0000
# 4 0.0000 0.0000 0.0000 -3.0646 0.0000 0.0000
# 5 0.0000 0.0000 0.0000 0.0000 24.0489 0.0000
# 6 0.0000 0.0000 0.0000 0.0000 0.0000 23.4252
#
#
#
# Elastic Compliance Matrix: (Units=1/GPa)
#
#
# Indices 1 2 3 4 5 6 
#
# 1 0.011017 -0.004955 -0.004261 0.000000 0.000000 0.000000
# 2 -0.004955 0.015474 -0.004818 0.000000 0.000000 0.000000
# 3 -0.004261 -0.004818 0.015620 0.000000 0.000000 0.000000
# 4 0.000000 0.000000 0.000000 -0.326305 0.000000 0.000000
# 5 0.000000 0.000000 0.000000 0.000000 0.041582 0.000000
# 6 0.000000 0.000000 0.000000 0.000000 0.000000 0.042689
#
#
# Mechanical properties :
#
#
# Convention : Reuss Voigt Hill
#
# Bulk Modulus (GPa) = 71.20596 75.23056 73.21826
# Shear Modulus (GPa) = -29.90867 19.98818 -4.96025
#
# Velocity S-wave (km/s) = -3.93709 3.21857 -1.60335
# Velocity P-wave (km/s) = 4.02941 7.26648 5.87528
#
# Compressibility (1/GPa) = 0.01404377
#
# Stress axis : x y z
#
# Youngs Moduli (GPa) = 90.77251 64.62353 64.02076
#
# Poissons Ratio (x) = 0.32021 0.27278
# Poissons Ratio (y) = 0.44978 0.30843
# Poissons Ratio (z) = 0.38677 0.31133
#
# Static dielectric constant tensor:
#      x y z
#    x 4.051400 0.000000 0.000000 
#    y 0.000000 3.505460 0.000000 
#    z 0.000000 0.000000 3.529400 
# 
# 
# High freq. dielectric constant tensor:
#      x y z
#    x 1.765630 0.000000 0.000000 
#    y 0.000000 1.731900 0.000000 
#    z 0.000000 0.000000 1.747930 
# 
# From -- ./inp_files/10839.got.cif
#   From: 2010.03.12/outbox.cif.g09.slc.cpg/sg65_6_cif.got.tgz:10839.got - 2010.04.10 20:52:16.
