data_PCOD8269322
_publ_section_title
;
Structure prediction by ZEFSAII (Michael W. Deem and Ramdas Pophale) SiO2 
 PCOD8269322
Probable space group: C M M M
;
_chemical_formula_sum "Si O2"
_cell_formula_units_Z 104
_cell_length_a 32.563777
_cell_length_b 18.593205
_cell_length_c 9.364202
_cell_angle_alpha 90.000000
_cell_angle_beta 90.000000
_cell_angle_gamma 90.000000
_cell_volume 5669.696389
_symmetry_space_group_name_H-M "C M M M"
_symmetry_group_IT_number 65
_symmetry_cell_setting 'orthorhombic'
loop_
_space_group_symop_operation_xyz
x,y,z
-x,-y,z
x,-y,-z
-x,y,-z
-x,-y,-z
x,y,-z
-x,y,z
x,-y,z
1/2+x,1/2+y,z
1/2-x,1/2-y,z
1/2+x,1/2-y,-z
1/2-x,1/2+y,-z
1/2-x,1/2-y,-z
1/2+x,1/2+y,-z
1/2-x,1/2+y,z
1/2+x,1/2-y,z
loop_
_atom_site_type_symbol
_atom_site_label
_atom_site_fract_x
_atom_site_fract_y
_atom_site_fract_z
Si Si1 0.178599 0.414647 0.660385
Si Si2 0.230941 0.914721 0.659543
Si Si3 0.500000 0.419300 0.669713
Si Si4 0.047167 0.686307 0.663229
Si Si5 0.101527 0.584702 0.164735
Si Si6 0.652992 0.415977 0.832454
Si Si7 0.080923 0.840828 0.666265
O O1 0.168443 0.388246 0.500000
O O2 0.178629 0.500000 0.666408
O O3 0.223846 0.385888 0.706450
O O4 0.143608 0.384902 0.765695
O O5 0.220238 0.886384 0.500000
O O6 0.196751 0.888793 0.771454
O O7 0.232538 0.000000 0.656562
O O8 0.500000 0.500000 0.728933
O O9 0.500000 0.415942 0.500000
O O10 0.540570 0.380318 0.726951
O O11 0.051059 0.660714 0.500000
O O12 0.062431 0.622133 0.763445
O O13 0.075094 0.756159 0.689857
O O14 0.000000 0.704626 0.700202
O O15 0.096558 0.500000 0.188886
O O16 0.102776 0.605527 0.000000
O O17 0.645449 0.500000 0.797036
O O18 0.618827 0.367928 0.758088
O O19 0.652560 0.401426 0.000000
O O20 0.088411 0.859436 0.500000
#
# Coordination Sequence:
#
# PCOD8269322 Si02
#       7
#    16  16   8  16  16  16  16
#     4   8  14  27  49  76 104 133 168 211 256 301
#     4   8  14  26  46  72 101 135 174 213 254 300
#     4   9  16  28  51  79 100 123 162 214 263 301
#     4  10  21  38  58  78 101 131 172 219 264 312
#     4  10  21  35  53  80 110 138 169 205 251 312
#     4  10  20  31  45  72 109 144 177 213 255 304
#     4  10  19  34  54  75  99 131 174 219 262 310
#
# _framework density 18.343135
#
# number of rings (size 3 to 8) (size 9 to 14) (size 15 to 20)
#    0.000    2.692    0.769    2.308    0.000    4.308 
#    0.000    5.000    0.000    2.308    0.000    6.462 
#    0.000    0.000    0.000    0.000    0.000    0.000 
#
# Total GULP energy -644672.871690 kJ/mol
# GULP energy per Si atom -12397.555225 kJ/mol
# Density = 1.830138 g / cm^3
# Si number density = 18.343135 Si / 1000 Ang^3
#
#
#
# Elastic Constant Matrix: (Units=GPa)
#
#
# Indices 1 2 3 4 5 6 
#
# 1 119.4831 39.7814 73.4721 0.0000 0.0000 0.0000
# 2 39.7814 44.9263 42.7329 0.0000 0.0000 0.0000
# 3 73.4721 42.7329 110.2440 0.0000 0.0000 0.0000
# 4 0.0000 0.0000 0.0000 20.1820 0.0000 0.0000
# 5 0.0000 0.0000 0.0000 0.0000 8.9654 0.0000
# 6 0.0000 0.0000 0.0000 0.0000 0.0000 8.3535
#
#
#
# Elastic Compliance Matrix: (Units=1/GPa)
#
#
# Indices 1 2 3 4 5 6 
#
# 1 0.015148 -0.006036 -0.007756 0.000000 0.000000 0.000000
# 2 -0.006036 0.037664 -0.010576 0.000000 0.000000 0.000000
# 3 -0.007756 -0.010576 0.018339 0.000000 0.000000 0.000000
# 4 0.000000 0.000000 0.000000 0.049549 0.000000 0.000000
# 5 0.000000 0.000000 0.000000 0.000000 0.111540 0.000000
# 6 0.000000 0.000000 0.000000 0.000000 0.000000 0.119710
#
#
# Mechanical properties :
#
#
# Convention : Reuss Voigt Hill
#
# Bulk Modulus (GPa) = 44.61429 65.18065 54.89747
# Shear Modulus (GPa) = 12.25013 15.41131 13.83072
#
# Velocity S-wave (km/s) = 2.58705 2.90171 2.74888
# Velocity P-wave (km/s) = 5.77050 6.84381 6.32994
#
# Compressibility (1/GPa) = 0.02241434
#
# Stress axis : x y z
#
# Youngs Moduli (GPa) = 66.01386 26.55071 54.52808
#
# Poissons Ratio (x) = 0.16027 0.42291
# Poissons Ratio (y) = 0.39849 0.57670
# Poissons Ratio (z) = 0.51199 0.28081
#
# Static dielectric constant tensor:
#      x y z
#    x 3.702760 0.000000 0.000000 
#    y 0.000000 3.024010 0.000000 
#    z 0.000000 0.000000 3.300060 
# 
# 
# High freq. dielectric constant tensor:
#      x y z
#    x 1.725010 0.000000 0.000000 
#    y 0.000000 1.674540 0.000000 
#    z 0.000000 0.000000 1.697930 
# 
# From -- ./inp_files/18662.got.cif
#   From: 2010.03.12/outbox.cif.g09.slc.cpg/sg65_10_cif.got.tgz:18662.got - 2010.04.10 20:52:16.
