data_PCOD8269686
_publ_section_title
;
Structure prediction by ZEFSAII (Michael W. Deem and Ramdas Pophale) SiO2 
 PCOD8269686
Probable space group: C M M M
;
_chemical_formula_sum "Si O2"
_cell_formula_units_Z 64
_cell_length_a 23.953397
_cell_length_b 15.477139
_cell_length_c 8.615600
_cell_angle_alpha 90.000000
_cell_angle_beta 90.000000
_cell_angle_gamma 90.000000
_cell_volume 3194.061861
_symmetry_space_group_name_H-M "C M M M"
_symmetry_group_IT_number 65
_symmetry_cell_setting 'orthorhombic'
loop_
_space_group_symop_operation_xyz
x,y,z
-x,-y,z
x,-y,-z
-x,y,-z
-x,-y,-z
x,y,-z
-x,y,z
x,-y,z
1/2+x,1/2+y,z
1/2-x,1/2-y,z
1/2+x,1/2-y,-z
1/2-x,1/2+y,-z
1/2-x,1/2-y,-z
1/2+x,1/2+y,-z
1/2-x,1/2+y,z
1/2+x,1/2-y,z
loop_
_atom_site_type_symbol
_atom_site_label
_atom_site_fract_x
_atom_site_fract_y
_atom_site_fract_z
Si Si1 0.314308 0.500000 0.184045
Si Si2 0.381710 0.835765 0.815601
Si Si3 0.500000 0.399877 0.816763
Si Si4 0.687675 0.000000 0.815962
Si Si5 0.000000 0.403823 0.183831
Si Si6 0.115829 0.155771 0.682688
O O1 0.250882 0.500000 0.245144
O O2 0.343931 0.584986 0.245193
O O3 0.317680 0.500000 0.000000
O O4 0.445169 0.853071 0.761035
O O5 0.360518 0.749146 0.731905
O O6 0.343433 0.914366 0.754865
O O7 0.377194 0.824240 0.000000
O O8 0.500000 0.500000 0.769222
O O9 0.446230 0.353745 0.747993
O O10 0.500000 0.386986 0.000000
O O11 0.685091 0.000000 0.000000
O O12 0.000000 0.500000 0.256239
O O13 0.000000 0.412420 0.000000
O O14 0.115244 0.144484 0.500000
#
# Coordination Sequence:
#
# PCOD8269686 Si02
#       6
#     8  16   8   8   8  16
#     4  11  23  42  63  85 114 156 212 262 301 347
#     4  10  19  36  62  92 123 157 200 248 299 354
#     4  11  22  39  66  93 118 154 199 244 296 357
#     4   9  20  38  64  91 116 154 210 266 300 337
#     4   9  15  28  58  93 121 147 184 237 295 350
#     4  12  25  40  60  90 126 160 194 241 304 367
#
# _framework density 20.037182999999999
#
# number of rings (size 3 to 8) (size 9 to 14) (size 15 to 20)
#    0.000    1.500    2.500    3.750    0.000    2.500 
#    0.000    8.125    0.000    0.750    0.000    0.000 
#    0.000    0.000    0.000    0.000    0.000    0.000 
#
# Total GULP energy -396913.876637 kJ/mol
# GULP energy per Si atom -12403.558645 kJ/mol
# Density = 1.999158 g / cm^3
# Si number density = 20.037183 Si / 1000 Ang^3
#
#
#
# Elastic Constant Matrix: (Units=GPa)
#
#
# Indices 1 2 3 4 5 6 
#
# 1 158.2645 79.1485 30.8407 0.0000 0.0000 0.0000
# 2 79.1485 183.0338 39.8707 0.0000 0.0000 0.0000
# 3 30.8407 39.8707 64.4327 0.0000 0.0000 0.0000
# 4 0.0000 0.0000 0.0000 -2.1769 0.0000 0.0000
# 5 0.0000 0.0000 0.0000 0.0000 8.2609 0.0000
# 6 0.0000 0.0000 0.0000 0.0000 0.0000 -50.1512
#
#
#
# Elastic Compliance Matrix: (Units=1/GPa)
#
#
# Indices 1 2 3 4 5 6 
#
# 1 0.008284 -0.003142 -0.002021 0.000000 0.000000 0.000000
# 2 -0.003142 0.007506 -0.003141 0.000000 0.000000 0.000000
# 3 -0.002021 -0.003141 0.018431 0.000000 0.000000 0.000000
# 4 0.000000 0.000000 0.000000 -0.459361 0.000000 0.000000
# 5 0.000000 0.000000 0.000000 0.000000 0.121052 0.000000
# 6 0.000000 0.000000 0.000000 0.000000 0.000000 -0.019940
#
#
# Mechanical properties :
#
#
# Convention : Reuss Voigt Hill
#
# Bulk Modulus (GPa) = 56.77443 78.38343 67.57893
# Shear Modulus (GPa) = -16.58102 8.24463 -4.16820
#
# Velocity S-wave (km/s) = -2.87977 2.03066 -1.44387
# Velocity P-wave (km/s) = 4.16396 6.68596 5.56959
#
# Compressibility (1/GPa) = 0.01761356
#
# Stress axis : x y z
#
# Youngs Moduli (GPa) = 120.72102 133.22144 54.25648
#
# Poissons Ratio (x) = 0.41856 0.10964
# Poissons Ratio (y) = 0.37929 0.17042
# Poissons Ratio (z) = 0.24395 0.41845
#
# Static dielectric constant tensor:
#      x y z
#    x 3.823650 0.000000 0.000000 
#    y 0.000000 3.868080 0.000000 
#    z 0.000000 0.000000 3.344120 
# 
# 
# High freq. dielectric constant tensor:
#      x y z
#    x 1.782420 0.000000 0.000000 
#    y 0.000000 1.803700 0.000000 
#    z 0.000000 0.000000 1.753330 
# 
# From -- ./inp_files/6825.got.cif
#   From: 2010.03.12/outbox.cif.g09.slc.cpg/sg65_4_cif.got.tgz:6825.got - 2010.04.10 20:52:16.
