data_PCOD8269448
_publ_section_title
;
Structure prediction by ZEFSAII (Michael W. Deem and Ramdas Pophale) SiO2 
 PCOD8269448
Probable space group: C M M M
;
_chemical_formula_sum "Si O2"
_cell_formula_units_Z 80
_cell_length_a 14.498949
_cell_length_b 22.925286
_cell_length_c 11.751791
_cell_angle_alpha 90.000000
_cell_angle_beta 90.000000
_cell_angle_gamma 90.000000
_cell_volume 3906.207807
_symmetry_space_group_name_H-M "C M M M"
_symmetry_group_IT_number 65
_symmetry_cell_setting 'orthorhombic'
loop_
_space_group_symop_operation_xyz
x,y,z
-x,-y,z
x,-y,-z
-x,y,-z
-x,-y,-z
x,y,-z
-x,y,z
x,-y,z
1/2+x,1/2+y,z
1/2-x,1/2-y,z
1/2+x,1/2-y,-z
1/2-x,1/2+y,-z
1/2-x,1/2-y,-z
1/2+x,1/2+y,-z
1/2-x,1/2+y,z
1/2+x,1/2-y,z
loop_
_atom_site_type_symbol
_atom_site_label
_atom_site_fract_x
_atom_site_fract_y
_atom_site_fract_z
Si Si1 0.605779 0.435243 0.700883
Si Si2 0.262409 0.613316 0.131858
Si Si3 0.648519 0.774494 0.500000
Si Si4 0.398008 0.356913 0.500000
Si Si5 0.398034 0.280852 0.126652
Si Si6 0.894291 0.332209 0.732774
O O1 0.500000 0.422057 0.736868
O O2 0.613012 0.500000 0.646431
O O3 0.671193 0.435196 0.812529
O O4 0.646197 0.385347 0.614109
O O5 0.318974 0.672669 0.143071
O O6 0.168668 0.618763 0.206258
O O7 0.240316 0.597749 0.000000
O O8 0.750000 0.750000 0.500000
O O9 0.591843 0.713572 0.500000
O O10 0.629409 0.818826 0.397616
O O11 0.500000 0.383936 0.500000
O O12 0.500000 0.307268 0.154262
O O13 0.374517 0.228660 0.208252
O O14 0.396466 0.255039 0.000000
O O15 0.000000 0.353046 0.744896
#
# Coordination Sequence:
#
# PCOD8269448 Si02
#       6
#    16  16   8   8  16  16
#     4  10  21  37  58  84 113 145 185 239 300 354
#     4  11  22  35  53  77 107 147 193 236 281 335
#     4  12  22  33  55  85 116 149 184 227 277 330
#     4  10  19  34  56  82 115 151 183 217 269 341
#     4   9  17  30  49  73 103 139 178 222 272 328
#     4  11  22  35  51  76 112 150 187 225 269 327
#
# _framework density 20.480221
#
# number of rings (size 3 to 8) (size 9 to 14) (size 15 to 20)
#    0.000    1.600    0.000    6.600    0.000    8.800 
#    0.000    1.000    0.000    0.600    0.000    1.400 
#    0.000    4.800    0.000    0.000    0.000    0.000 
#
# Total GULP energy -495691.158186 kJ/mol
# GULP energy per Si atom -12392.278955 kJ/mol
# Density = 2.043361 g / cm^3
# Si number density = 20.480221 Si / 1000 Ang^3
#
#
#
# Elastic Constant Matrix: (Units=GPa)
#
#
# Indices 1 2 3 4 5 6 
#
# 1 102.6995 22.1333 34.3280 0.0000 0.0000 0.0000
# 2 22.1333 35.5073 42.8204 0.0000 0.0000 0.0000
# 3 34.3280 42.8204 121.7938 0.0000 0.0000 0.0000
# 4 0.0000 0.0000 0.0000 -12.7866 0.0000 0.0000
# 5 0.0000 0.0000 0.0000 0.0000 26.5576 0.0000
# 6 0.0000 0.0000 0.0000 0.0000 0.0000 24.4715
#
#
#
# Elastic Compliance Matrix: (Units=1/GPa)
#
#
# Indices 1 2 3 4 5 6 
#
# 1 0.011354 -0.005587 -0.001236 0.000000 0.000000 0.000000
# 2 -0.005587 0.051643 -0.016582 0.000000 0.000000 0.000000
# 3 -0.001236 -0.016582 0.014389 0.000000 0.000000 0.000000
# 4 0.000000 0.000000 0.000000 -0.078207 0.000000 0.000000
# 5 0.000000 0.000000 0.000000 0.000000 0.037654 0.000000
# 6 0.000000 0.000000 0.000000 0.000000 0.000000 0.040864
#
#
# Mechanical properties :
#
#
# Convention : Reuss Voigt Hill
#
# Bulk Modulus (GPa) = 32.70517 50.95155 41.82836
# Shear Modulus (GPa) = 37.11950 18.36310 27.74130
#
# Velocity S-wave (km/s) = 4.26191 2.99762 3.68440
# Velocity P-wave (km/s) = 6.34211 6.07564 6.21030
#
# Compressibility (1/GPa) = 0.03057620
#
# Stress axis : x y z
#
# Youngs Moduli (GPa) = 88.07160 19.36358 69.49821
#
# Poissons Ratio (x) = 0.10819 0.08589
# Poissons Ratio (y) = 0.49208 1.15242
# Poissons Ratio (z) = 0.10885 0.32109
#
# Static dielectric constant tensor:
#      x y z
#    x 3.859860 0.000000 0.000000 
#    y 0.000000 2.727310 0.000000 
#    z 0.000000 0.000000 4.039300 
# 
# 
# High freq. dielectric constant tensor:
#      x y z
#    x 1.800150 0.000000 0.000000 
#    y 0.000000 1.753010 0.000000 
#    z 0.000000 0.000000 1.815790 
# 
# From -- ./inp_files/24691.got.cif
#   From: 2010.03.12/outbox.cif.g09.slc.cpg/sg65_13_cif.got.tgz:24691.got - 2010.04.10 20:52:16.
