data_PCOD8269283
_publ_section_title
;
Structure prediction by ZEFSAII (Michael W. Deem and Ramdas Pophale) SiO2 
 PCOD8269283
Probable space group: C M M M
;
_chemical_formula_sum "Si O2"
_cell_formula_units_Z 64
_cell_length_a 33.273616
_cell_length_b 9.234142
_cell_length_c 11.034299
_cell_angle_alpha 90.000000
_cell_angle_beta 90.000000
_cell_angle_gamma 90.000000
_cell_volume 3390.324726
_symmetry_space_group_name_H-M "C M M M"
_symmetry_group_IT_number 65
_symmetry_cell_setting 'orthorhombic'
loop_
_space_group_symop_operation_xyz
x,y,z
-x,-y,z
x,-y,-z
-x,y,-z
-x,-y,-z
x,y,-z
-x,y,z
x,-y,z
1/2+x,1/2+y,z
1/2-x,1/2-y,z
1/2+x,1/2-y,-z
1/2-x,1/2+y,-z
1/2-x,1/2-y,-z
1/2+x,1/2+y,-z
1/2-x,1/2+y,z
1/2+x,1/2-y,z
loop_
_atom_site_type_symbol
_atom_site_label
_atom_site_fract_x
_atom_site_fract_y
_atom_site_fract_z
Si Si1 0.424008 0.668008 0.280202
Si Si2 0.500000 0.670876 0.870058
Si Si3 0.954621 0.670456 0.500000
Si Si4 0.792089 0.826230 0.000000
Si Si5 0.293105 0.326021 0.500000
Si Si6 0.332841 0.332465 0.246971
O O1 0.429682 0.500000 0.317888
O O2 0.458905 0.721722 0.191129
O O3 0.428249 0.773292 0.391334
O O4 0.380073 0.695794 0.226721
O O5 0.500000 0.500000 0.880695
O O6 0.500000 0.746345 0.000000
O O7 0.956768 0.500000 0.500000
O O8 0.000000 0.735778 0.500000
O O9 0.750000 0.750000 0.000000
O O10 0.813112 0.768394 0.124195
O O11 0.789110 0.000000 0.000000
O O12 0.288663 0.500000 0.500000
O O13 0.250000 0.250000 0.500000
O O14 0.316393 0.271430 0.376963
O O15 0.322891 0.500000 0.251231
#
# Coordination Sequence:
#
# PCOD8269283 Si02
#       6
#    16   8   8   8   8  16
#     4  10  19  34  56  80 106 139 179 222 266 319
#     4   9  18  29  49  82 110 133 172 223 266 305
#     4  11  22  35  51  74 108 143 178 222 268 316
#     4  10  20  36  56  81 109 144 178 217 269 324
#     4  10  19  34  52  74 101 134 170 212 261 313
#     4   9  19  33  54  80 108 136 172 219 268 314
#
# _framework density 18.877248000000002
#
# number of rings (size 3 to 8) (size 9 to 14) (size 15 to 20)
#    0.000    2.250    1.250    1.875    1.750    2.500 
#    0.000    3.750    0.000    1.500    0.000    0.000 
#    0.000    0.000    0.000    0.000    0.000    0.000 
#
# Total GULP energy -396460.292182 kJ/mol
# GULP energy per Si atom -12389.384131 kJ/mol
# Density = 1.883428 g / cm^3
# Si number density = 18.877248 Si / 1000 Ang^3
#
#
#
# Elastic Constant Matrix: (Units=GPa)
#
#
# Indices 1 2 3 4 5 6 
#
# 1 152.7244 25.7051 82.7969 0.0000 0.0000 0.0000
# 2 25.7051 28.7490 23.7924 0.0000 0.0000 0.0000
# 3 82.7969 23.7924 185.6787 0.0000 0.0000 0.0000
# 4 0.0000 0.0000 0.0000 79.4650 0.0000 0.0000
# 5 0.0000 0.0000 0.0000 0.0000 34.0724 0.0000
# 6 0.0000 0.0000 0.0000 0.0000 0.0000 27.0613
#
#
#
# Elastic Compliance Matrix: (Units=1/GPa)
#
#
# Indices 1 2 3 4 5 6 
#
# 1 0.009351 -0.005493 -0.003466 0.000000 0.000000 0.000000
# 2 -0.005493 0.042136 -0.002950 0.000000 0.000000 0.000000
# 3 -0.003466 -0.002950 0.007309 0.000000 0.000000 0.000000
# 4 0.000000 0.000000 0.000000 0.012584 0.000000 0.000000
# 5 0.000000 0.000000 0.000000 0.000000 0.029349 0.000000
# 6 0.000000 0.000000 0.000000 0.000000 0.000000 0.036953
#
#
# Mechanical properties :
#
#
# Convention : Reuss Voigt Hill
#
# Bulk Modulus (GPa) = 28.58827 70.19343 49.39085
# Shear Modulus (GPa) = 28.87491 43.77691 36.32591
#
# Velocity S-wave (km/s) = 3.91527 4.82086 4.39147
# Velocity P-wave (km/s) = 5.96794 8.26150 7.20655
#
# Compressibility (1/GPa) = 0.03497938
#
# Stress axis : x y z
#
# Youngs Moduli (GPa) = 106.93719 23.73248 136.81361
#
# Poissons Ratio (x) = 0.13036 0.47420
# Poissons Ratio (y) = 0.58737 0.40360
# Poissons Ratio (z) = 0.37065 0.07001
#
# Static dielectric constant tensor:
#      x y z
#    x 3.341740 0.000000 0.000000 
#    y 0.000000 2.999690 0.000000 
#    z 0.000000 0.000000 3.824000 
# 
# 
# High freq. dielectric constant tensor:
#      x y z
#    x 1.748680 0.000000 0.000000 
#    y 0.000000 1.681310 0.000000 
#    z 0.000000 0.000000 1.749180 
# 
# From -- ./inp_files/21071.got.cif
#   From: 2010.03.12/outbox.cif.g09.slc.cpg/sg65_11_cif.got.tgz:21071.got - 2010.04.10 20:52:16.
