data_PCOD8269082
_publ_section_title
;
Structure prediction by ZEFSAII (Michael W. Deem and Ramdas Pophale) SiO2 
 PCOD8269082
Probable space group: C M M M
;
_chemical_formula_sum "Si O2"
_cell_formula_units_Z 88
_cell_length_a 18.249281
_cell_length_b 9.158023
_cell_length_c 28.019291
_cell_angle_alpha 90.000000
_cell_angle_beta 90.000000
_cell_angle_gamma 90.000000
_cell_volume 4682.789437
_symmetry_space_group_name_H-M "C M M M"
_symmetry_group_IT_number 65
_symmetry_cell_setting 'orthorhombic'
loop_
_space_group_symop_operation_xyz
x,y,z
-x,-y,z
x,-y,-z
-x,y,-z
-x,-y,-z
x,y,-z
-x,y,z
x,-y,z
1/2+x,1/2+y,z
1/2-x,1/2-y,z
1/2+x,1/2-y,-z
1/2-x,1/2+y,-z
1/2-x,1/2-y,-z
1/2+x,1/2+y,-z
1/2-x,1/2+y,z
1/2+x,1/2-y,z
loop_
_atom_site_type_symbol
_atom_site_label
_atom_site_fract_x
_atom_site_fract_y
_atom_site_fract_z
Si Si1 0.415287 0.669132 0.629786
Si Si2 0.673032 0.671436 0.722804
Si Si3 0.823973 0.330091 0.444649
Si Si4 0.828252 0.328508 0.896368
Si Si5 0.676080 0.165961 0.000000
Si Si6 0.085163 0.830907 0.183632
O O1 0.500000 0.698252 0.640375
O O2 0.400448 0.500000 0.618142
O O3 0.370601 0.721592 0.675945
O O4 0.391680 0.764833 0.584502
O O5 0.686813 0.500000 0.722315
O O6 0.750000 0.750000 0.724523
O O7 0.626372 0.718906 0.768621
O O8 0.840491 0.301060 0.500000
O O9 0.814712 0.500000 0.433289
O O10 0.750000 0.250000 0.428132
O O11 0.816710 0.500000 0.886699
O O12 0.750000 0.250000 0.890030
O O13 0.863966 0.299433 0.949509
O O14 0.886857 0.265598 0.859954
O O15 0.750000 0.250000 0.000000
O O16 0.700322 0.000000 0.000000
O O17 0.000000 0.799833 0.191594
O O18 0.100140 0.000000 0.172063
#
# Coordination Sequence:
#
# PCOD8269082 Si02
#       6
#    16  16  16  16   8  16
#     4  10  21  37  57  81 110 144 180 218 263 316
#     4  10  21  37  57  80 106 138 176 218 264 314
#     4  10  21  37  57  81 110 144 182 224 268 314
#     4  10  19  33  54  79 106 137 176 219 263 313
#     4   8  16  30  49  74 103 135 171 215 263 308
#     4  10  21  37  55  76 106 142 177 216 264 315
#
# _framework density 18.792217999999998
#
# number of rings (size 3 to 8) (size 9 to 14) (size 15 to 20)
#    0.000    2.182    0.000    2.727    0.000    9.455 
#    0.000    2.273    0.000    6.000    0.000    0.000 
#    0.000    0.000    0.000    0.000    0.000    0.000 
#
# Total GULP energy -545560.476942 kJ/mol
# GULP energy per Si atom -12399.101749 kJ/mol
# Density = 1.874945 g / cm^3
# Si number density = 18.792218 Si / 1000 Ang^3
#
#
#
# Elastic Constant Matrix: (Units=GPa)
#
#
# Indices 1 2 3 4 5 6 
#
# 1 122.4479 53.7499 72.7616 0.0000 0.0000 0.0000
# 2 53.7499 77.6873 64.2955 0.0000 0.0000 0.0000
# 3 72.7616 64.2955 138.0955 0.0000 0.0000 0.0000
# 4 0.0000 0.0000 0.0000 28.9120 0.0000 0.0000
# 5 0.0000 0.0000 0.0000 0.0000 13.1625 0.0000
# 6 0.0000 0.0000 0.0000 0.0000 0.0000 33.3624
#
#
#
# Elastic Compliance Matrix: (Units=1/GPa)
#
#
# Indices 1 2 3 4 5 6 
#
# 1 0.013186 -0.005487 -0.004393 0.000000 0.000000 0.000000
# 2 -0.005487 0.023225 -0.007922 0.000000 0.000000 0.000000
# 3 -0.004393 -0.007922 0.013244 0.000000 0.000000 0.000000
# 4 0.000000 0.000000 0.000000 0.034588 0.000000 0.000000
# 5 0.000000 0.000000 0.000000 0.000000 0.075974 0.000000
# 6 0.000000 0.000000 0.000000 0.000000 0.000000 0.029974
#
#
# Mechanical properties :
#
#
# Convention : Reuss Voigt Hill
#
# Bulk Modulus (GPa) = 71.16973 79.98274 75.57623
# Shear Modulus (GPa) = 21.69404 24.91561 23.30482
#
# Velocity S-wave (km/s) = 3.40136 3.64517 3.52537
# Velocity P-wave (km/s) = 7.30615 7.76984 7.54156
#
# Compressibility (1/GPa) = 0.01405092
#
# Stress axis : x y z
#
# Youngs Moduli (GPa) = 75.83972 43.05669 75.50496
#
# Poissons Ratio (x) = 0.23627 0.33166
# Poissons Ratio (y) = 0.41617 0.59815
# Poissons Ratio (z) = 0.33313 0.34110
#
# Static dielectric constant tensor:
#      x y z
#    x 3.258800 0.000000 0.000000 
#    y 0.000000 3.444180 0.000000 
#    z 0.000000 0.000000 3.967650 
# 
# 
# High freq. dielectric constant tensor:
#      x y z
#    x 1.716890 0.000000 0.000000 
#    y 0.000000 1.730550 0.000000 
#    z 0.000000 0.000000 1.749130 
# 
# From -- ./inp_files/77800.got.cif
#   From: 2010.03.12/outbox.cif.g09.slc.cpg/sg65_39_cif.got.tgz:77800.got - 2010.04.10 20:52:16.
