data_PCOD8269940
_publ_section_title
;
Structure prediction by ZEFSAII (Michael W. Deem and Ramdas Pophale) SiO2 
 PCOD8269940
Probable space group: C M M M
;
_chemical_formula_sum "Si O2"
_cell_formula_units_Z 88
_cell_length_a 18.578627
_cell_length_b 9.177200
_cell_length_c 29.016474
_cell_angle_alpha 90.000000
_cell_angle_beta 90.000000
_cell_angle_gamma 90.000000
_cell_volume 4947.302309
_symmetry_space_group_name_H-M "C M M M"
_symmetry_group_IT_number 65
_symmetry_cell_setting 'orthorhombic'
loop_
_space_group_symop_operation_xyz
x,y,z
-x,-y,z
x,-y,-z
-x,y,-z
-x,-y,-z
x,y,-z
-x,y,z
x,-y,z
1/2+x,1/2+y,z
1/2-x,1/2-y,z
1/2+x,1/2-y,-z
1/2-x,1/2+y,-z
1/2-x,1/2-y,-z
1/2+x,1/2+y,-z
1/2-x,1/2+y,z
1/2+x,1/2-y,z
loop_
_atom_site_type_symbol
_atom_site_label
_atom_site_fract_x
_atom_site_fract_y
_atom_site_fract_z
Si Si1 0.416898 0.668985 0.178756
Si Si2 0.674546 0.327958 0.267433
Si Si3 0.918955 0.825540 0.647531
Si Si4 0.414093 0.664855 0.000000
Si Si5 0.914292 0.335498 0.911159
Si Si6 0.085507 0.163265 0.451234
O O1 0.500000 0.705014 0.188936
O O2 0.406791 0.500000 0.166657
O O3 0.372529 0.715852 0.223403
O O4 0.386728 0.760251 0.135612
O O5 0.686259 0.500000 0.270259
O O6 0.750000 0.250000 0.263401
O O7 0.633623 0.268087 0.312688
O O8 0.889869 0.764278 0.597505
O O9 0.000000 0.769128 0.657667
O O10 0.919759 0.000000 0.646191
O O11 0.383940 0.747171 0.954937
O O12 0.384764 0.500000 0.000000
O O13 0.500000 0.665741 0.000000
O O14 0.884647 0.500000 0.913193
O O15 0.000000 0.333406 0.912302
O O16 0.109397 0.242274 0.500000
O O17 0.000000 0.157236 0.449034
O O18 0.116500 0.000000 0.453219
#
# Coordination Sequence:
#
# PCOD8269940 Si02
#       6
#    16  16  16   8  16  16
#     4   9  17  30  47  65  85 112 149 188 223 262
#     4  10  20  32  46  64  87 116 148 184 226 270
#     4   8  13  23  41  63  85 112 148 186 222 262
#     4   9  15  23  37  59  90 125 154 179 212 257
#     4   9  16  25  39  62  91 119 146 180 223 265
#     4   7   9  14  28  54  85 110 134 173 223 264
#
# _framework density 17.787472000000001
#
# number of rings (size 3 to 8) (size 9 to 14) (size 15 to 20)
#    0.000    3.364    0.000    3.000    0.000    6.182 
#    0.000    0.000    0.000    2.182    0.000    0.636 
#    0.000    0.000    0.000    4.545    0.000    3.636 
#
# Total GULP energy -545085.413493 kJ/mol
# GULP energy per Si atom -12388.304852 kJ/mol
# Density = 1.774699 g / cm^3
# Si number density = 17.787472 Si / 1000 Ang^3
#
#
#
# Elastic Constant Matrix: (Units=GPa)
#
#
# Indices 1 2 3 4 5 6 
#
# 1 54.6524 25.0757 57.0773 0.0000 0.0000 0.0000
# 2 25.0757 61.3040 66.0318 0.0000 0.0000 0.0000
# 3 57.0773 66.0318 216.0346 0.0000 0.0000 0.0000
# 4 0.0000 0.0000 0.0000 10.2256 0.0000 0.0000
# 5 0.0000 0.0000 0.0000 0.0000 1.1416 0.0000
# 6 0.0000 0.0000 0.0000 0.0000 0.0000 16.0013
#
#
#
# Elastic Compliance Matrix: (Units=1/GPa)
#
#
# Indices 1 2 3 4 5 6 
#
# 1 0.026208 -0.004863 -0.005438 0.000000 0.000000 0.000000
# 2 -0.004863 0.025221 -0.006424 0.000000 0.000000 0.000000
# 3 -0.005438 -0.006424 0.008029 0.000000 0.000000 0.000000
# 4 0.000000 0.000000 0.000000 0.097794 0.000000 0.000000
# 5 0.000000 0.000000 0.000000 0.000000 0.875945 0.000000
# 6 0.000000 0.000000 0.000000 0.000000 0.000000 0.062495
#
#
# Mechanical properties :
#
#
# Convention : Reuss Voigt Hill
#
# Bulk Modulus (GPa) = 38.44934 69.81785 54.13360
# Shear Modulus (GPa) = 4.39441 17.72746 11.06093
#
# Velocity S-wave (km/s) = 1.57349 3.16036 2.49637
# Velocity P-wave (km/s) = 4.99640 7.25628 6.22967
#
# Compressibility (1/GPa) = 0.02600825
#
# Stress axis : x y z
#
# Youngs Moduli (GPa) = 38.15665 39.65007 124.54635
#
# Poissons Ratio (x) = 0.19281 0.67727
# Poissons Ratio (y) = 0.18554 0.80009
# Poissons Ratio (z) = 0.20749 0.25471
#
# Static dielectric constant tensor:
#      x y z
#    x 2.775000 0.000000 0.000000 
#    y 0.000000 2.963360 0.000000 
#    z 0.000000 0.000000 3.909270 
# 
# 
# High freq. dielectric constant tensor:
#      x y z
#    x 1.627700 0.000000 0.000000 
#    y 0.000000 1.645250 0.000000 
#    z 0.000000 0.000000 1.720760 
# 
# From -- ./inp_files/77960.got.cif
#   From: 2010.03.12/outbox.cif.g09.slc.cpg/sg65_39_cif.got.tgz:77960.got - 2010.04.10 20:52:16.
