data_PCOD8269355
_publ_section_title
;
Structure prediction by ZEFSAII (Michael W. Deem and Ramdas Pophale) SiO2 
 PCOD8269355
Probable space group: C M M M
;
_chemical_formula_sum "Si O2"
_cell_formula_units_Z 88
_cell_length_a 25.908377
_cell_length_b 8.897832
_cell_length_c 20.885556
_cell_angle_alpha 90.000000
_cell_angle_beta 90.000000
_cell_angle_gamma 90.000000
_cell_volume 4814.713514
_symmetry_space_group_name_H-M "C M M M"
_symmetry_group_IT_number 65
_symmetry_cell_setting 'orthorhombic'
loop_
_space_group_symop_operation_xyz
x,y,z
-x,-y,z
x,-y,-z
-x,y,-z
-x,-y,-z
x,y,-z
-x,y,z
x,-y,z
1/2+x,1/2+y,z
1/2-x,1/2-y,z
1/2+x,1/2-y,-z
1/2-x,1/2+y,-z
1/2-x,1/2-y,-z
1/2+x,1/2+y,-z
1/2-x,1/2+y,z
1/2+x,1/2-y,z
loop_
_atom_site_type_symbol
_atom_site_label
_atom_site_fract_x
_atom_site_fract_y
_atom_site_fract_z
Si Si1 0.500000 0.821604 0.851085
Si Si2 0.000000 0.178380 0.712946
Si Si3 0.442417 0.177530 0.500000
Si Si4 0.406711 0.178168 0.363019
Si Si5 0.302507 0.822413 0.151099
Si Si6 0.399670 0.821449 0.928176
Si Si7 0.302231 0.176391 0.702758
O O1 0.500000 0.734488 0.785085
O O2 0.450429 0.768352 0.891021
O O3 0.500000 0.000000 0.838143
O O4 0.050714 0.239530 0.678710
O O5 0.000000 0.000000 0.710701
O O6 0.500000 0.248125 0.500000
O O7 0.411900 0.230014 0.436812
O O8 0.447425 0.000000 0.500000
O O9 0.350386 0.230430 0.339764
O O10 0.414560 0.000000 0.354377
O O11 0.250000 0.750000 0.124522
O O12 0.349521 0.759300 0.108765
O O13 0.312378 0.772323 0.224271
O O14 0.297819 0.000000 0.145234
O O15 0.398240 0.000000 0.930476
O O16 0.400374 0.755075 0.000000
O O17 0.250000 0.250000 0.675513
O O18 0.294990 0.000000 0.698192
#
# Coordination Sequence:
#
# PCOD8269355 Si02
#       7
#     8   8   8  16  16  16  16
#     4  10  19  34  55  75  98 131 169 207 254 312
#     4  12  24  34  50  79 109 135 168 217 268 307
#     4   9  16  30  55  82 104 132 174 220 255 296
#     4  10  19  35  57  79 104 138 178 213 254 310
#     4   9  17  30  47  70  98 128 164 206 251 294
#     4   9  17  30  51  77 100 124 163 213 256 299
#     4   9  18  32  52  75 102 137 174 214 256 301
#
# _framework density 18.277308000000001
#
# number of rings (size 3 to 8) (size 9 to 14) (size 15 to 20)
#    0.000    2.455    0.909    2.182    0.000    5.091 
#    0.000    5.909    0.000    2.182    0.000    0.000 
#    0.000    0.000    0.000    0.000    0.000    0.000 
#
# Total GULP energy -545610.506447 kJ/mol
# GULP energy per Si atom -12400.238783 kJ/mol
# Density = 1.823571 g / cm^3
# Si number density = 18.277308 Si / 1000 Ang^3
#
#
#
# Elastic Constant Matrix: (Units=GPa)
#
#
# Indices 1 2 3 4 5 6 
#
# 1 201.8398 39.4106 109.2865 0.0000 0.0000 0.0000
# 2 39.4106 32.1653 30.8289 0.0000 0.0000 0.0000
# 3 109.2865 30.8289 155.1043 0.0000 0.0000 0.0000
# 4 0.0000 0.0000 0.0000 9.0788 0.0000 0.0000
# 5 0.0000 0.0000 0.0000 0.0000 21.0361 0.0000
# 6 0.0000 0.0000 0.0000 0.0000 0.0000 26.6905
#
#
#
# Elastic Compliance Matrix: (Units=1/GPa)
#
#
# Indices 1 2 3 4 5 6 
#
# 1 0.008864 -0.006022 -0.005049 0.000000 0.000000 0.000000
# 2 -0.006022 0.042497 -0.004204 0.000000 0.000000 0.000000
# 3 -0.005049 -0.004204 0.010840 0.000000 0.000000 0.000000
# 4 0.000000 0.000000 0.000000 0.110147 0.000000 0.000000
# 5 0.000000 0.000000 0.000000 0.000000 0.047537 0.000000
# 6 0.000000 0.000000 0.000000 0.000000 0.000000 0.037467
#
#
# Mechanical properties :
#
#
# Convention : Reuss Voigt Hill
#
# Bulk Modulus (GPa) = 31.59325 83.12903 57.36114
# Shear Modulus (GPa) = 16.75322 25.33330 21.04326
#
# Velocity S-wave (km/s) = 3.03085 3.72701 3.39681
# Velocity P-wave (km/s) = 5.43793 8.00635 6.84371
#
# Compressibility (1/GPa) = 0.03165233
#
# Stress axis : x y z
#
# Youngs Moduli (GPa) = 112.81979 23.53134 92.25055
#
# Poissons Ratio (x) = 0.14169 0.46573
# Poissons Ratio (y) = 0.67935 0.38782
# Poissons Ratio (z) = 0.56957 0.09892
#
# Static dielectric constant tensor:
#      x y z
#    x 3.664470 0.000000 0.000000 
#    y 0.000000 2.985280 0.000000 
#    z 0.000000 0.000000 3.629040 
# 
# 
# High freq. dielectric constant tensor:
#      x y z
#    x 1.721220 0.000000 0.000000 
#    y 0.000000 1.668010 0.000000 
#    z 0.000000 0.000000 1.712120 
# 
# From -- ./inp_files/65206.got.cif
#   From: 2010.03.12/outbox.cif.g09.slc.cpg/sg65_33_cif.got.tgz:65206.got - 2010.04.10 20:52:16.
