data_PCOD8269748
_publ_section_title
;
Structure prediction by ZEFSAII (Michael W. Deem and Ramdas Pophale) SiO2 
 PCOD8269748
Probable space group: C M M M
;
_chemical_formula_sum "Si O2"
_cell_formula_units_Z 88
_cell_length_a 9.371449
_cell_length_b 29.725857
_cell_length_c 23.124751
_cell_angle_alpha 90.000000
_cell_angle_beta 90.000000
_cell_angle_gamma 90.000000
_cell_volume 6441.962545
_symmetry_space_group_name_H-M "C M M M"
_symmetry_group_IT_number 65
_symmetry_cell_setting 'orthorhombic'
loop_
_space_group_symop_operation_xyz
x,y,z
-x,-y,z
x,-y,-z
-x,y,-z
-x,-y,-z
x,y,-z
-x,y,z
x,-y,z
1/2+x,1/2+y,z
1/2-x,1/2-y,z
1/2+x,1/2-y,-z
1/2-x,1/2+y,-z
1/2-x,1/2-y,-z
1/2+x,1/2+y,-z
1/2-x,1/2+y,z
1/2+x,1/2-y,z
loop_
_atom_site_type_symbol
_atom_site_label
_atom_site_fract_x
_atom_site_fract_y
_atom_site_fract_z
Si Si1 0.664650 0.446842 0.342746
Si Si2 0.330804 0.549208 0.000000
Si Si3 0.660793 0.553899 0.875904
Si Si4 0.661189 0.946437 0.231804
Si Si5 0.157292 0.290264 0.431356
Si Si6 0.666227 0.109498 0.432529
O O1 0.500000 0.432352 0.337588
O O2 0.679850 0.500000 0.349157
O O3 0.747950 0.429029 0.286283
O O4 0.735034 0.425270 0.399035
O O5 0.288173 0.573399 0.060867
O O6 0.258407 0.500000 0.000000
O O7 0.500000 0.543575 0.000000
O O8 0.500000 0.570013 0.861283
O O9 0.663721 0.500000 0.878483
O O10 0.766525 0.572536 0.826708
O O11 0.500000 0.927806 0.236154
O O12 0.661921 0.000000 0.230572
O O13 0.151674 0.285768 0.500000
O O14 0.250000 0.250000 0.403858
O O15 0.215650 0.339850 0.415423
O O16 0.000000 0.284497 0.405269
O O17 0.691100 0.100674 0.500000
O O18 0.500000 0.102278 0.416842
#
# Coordination Sequence:
#
# PCOD8269748 Si02
#       6
#    16   8  16  16  16  16
#     4  10  20  31  41  53  69  91 122 158 190 219
#     4   7  10  16  27  43  61  81 103 129 166 209
#     4   8  12  19  31  45  61  81 106 136 170 208
#     4   9  16  25  36  48  62  83 112 145 181 217
#     4   8  14  25  41  60  79  96 113 134 164 206
#     4   9  18  31  44  58  76  96 117 143 179 222
#
# _framework density 13.660434
#
# number of rings (size 3 to 8) (size 9 to 14) (size 15 to 20)
#    0.000    3.364    0.000    3.273    0.000    4.727 
#    0.000    4.091    0.000    2.727    0.000    0.000 
#    0.000    0.000    0.000    0.000    0.000    0.000 
#
# Total GULP energy -545139.976819 kJ/mol
# GULP energy per Si atom -12389.544928 kJ/mol
# Density = 1.362934 g / cm^3
# Si number density = 13.660434 Si / 1000 Ang^3
#
#
#
# Elastic Constant Matrix: (Units=GPa)
#
#
# Indices 1 2 3 4 5 6 
#
# 1 94.9153 26.0728 58.0901 0.0000 0.0000 0.0000
# 2 26.0728 23.3194 25.0948 0.0000 0.0000 0.0000
# 3 58.0901 25.0948 89.2311 0.0000 0.0000 0.0000
# 4 0.0000 0.0000 0.0000 0.2710 0.0000 0.0000
# 5 0.0000 0.0000 0.0000 0.0000 20.0956 0.0000
# 6 0.0000 0.0000 0.0000 0.0000 0.0000 16.8781
#
#
#
# Elastic Compliance Matrix: (Units=1/GPa)
#
#
# Indices 1 2 3 4 5 6 
#
# 1 0.019505 -0.011677 -0.009414 0.000000 0.000000 0.000000
# 2 -0.011677 0.068484 -0.011658 0.000000 0.000000 0.000000
# 3 -0.009414 -0.011658 0.020614 0.000000 0.000000 0.000000
# 4 0.000000 0.000000 0.000000 3.689725 0.000000 0.000000
# 5 0.000000 0.000000 0.000000 0.000000 0.049762 0.000000
# 6 0.000000 0.000000 0.000000 0.000000 0.000000 0.059248
#
#
# Mechanical properties :
#
#
# Convention : Reuss Voigt Hill
#
# Bulk Modulus (GPa) = 23.19926 47.33126 35.26526
# Shear Modulus (GPa) = 1.25401 13.99616 7.62509
#
# Velocity S-wave (km/s) = 0.95916 3.20437 2.36516
# Velocity P-wave (km/s) = 4.27157 6.95804 5.77324
#
# Compressibility (1/GPa) = 0.04310483
#
# Stress axis : x y z
#
# Youngs Moduli (GPa) = 51.26940 14.60185 48.51096
#
# Poissons Ratio (x) = 0.17051 0.45667
# Poissons Ratio (y) = 0.59869 0.56554
# Poissons Ratio (z) = 0.48264 0.17023
#
# Static dielectric constant tensor:
#      x y z
#    x 2.842420 0.000000 0.000000 
#    y 0.000000 2.323330 0.000000 
#    z 0.000000 0.000000 2.823030 
# 
# 
# High freq. dielectric constant tensor:
#      x y z
#    x 1.523440 0.000000 0.000000 
#    y 0.000000 1.456160 0.000000 
#    z 0.000000 0.000000 1.514000 
# 
# From -- ./inp_files/68408.got.cif
#   From: 2010.03.12/outbox.cif.g09.slc.cpg/sg65_35_cif.got.tgz:68408.got - 2010.04.10 20:52:16.
