data_PCOD8269320
_publ_section_title
;
Structure prediction by ZEFSAII (Michael W. Deem and Ramdas Pophale) SiO2 
 PCOD8269320
Probable space group: C M M M
;
_chemical_formula_sum "Si O2"
_cell_formula_units_Z 104
_cell_length_a 28.562635
_cell_length_b 9.235503
_cell_length_c 23.250128
_cell_angle_alpha 90.000000
_cell_angle_beta 90.000000
_cell_angle_gamma 90.000000
_cell_volume 6133.158269
_symmetry_space_group_name_H-M "C M M M"
_symmetry_group_IT_number 65
_symmetry_cell_setting 'orthorhombic'
loop_
_space_group_symop_operation_xyz
x,y,z
-x,-y,z
x,-y,-z
-x,y,-z
-x,-y,-z
x,y,-z
-x,y,z
x,-y,z
1/2+x,1/2+y,z
1/2-x,1/2-y,z
1/2+x,1/2-y,-z
1/2-x,1/2+y,-z
1/2-x,1/2-y,-z
1/2+x,1/2+y,-z
1/2-x,1/2+y,z
1/2+x,1/2-y,z
loop_
_atom_site_type_symbol
_atom_site_label
_atom_site_fract_x
_atom_site_fract_y
_atom_site_fract_z
Si Si1 0.104038 0.670247 0.104205
Si Si2 0.947287 0.327739 0.563580
Si Si3 0.704213 0.830238 0.278565
Si Si4 0.054682 0.171576 0.000000
Si Si5 0.892316 0.327487 0.672084
Si Si6 0.447763 0.172040 0.781112
Si Si7 0.295560 0.832140 0.853516
O O1 0.095452 0.500000 0.092835
O O2 0.079972 0.762873 0.055121
O O3 0.081376 0.722113 0.163764
O O4 0.159453 0.705192 0.107324
O O5 0.931848 0.273245 0.500000
O O6 0.946488 0.500000 0.565093
O O7 0.911713 0.265117 0.611540
O O8 0.000000 0.274032 0.577258
O O9 0.750000 0.750000 0.302049
O O10 0.661021 0.777280 0.317959
O O11 0.693745 0.787503 0.212407
O O12 0.712454 0.000000 0.284557
O O13 0.000000 0.215323 0.000000
O O14 0.061042 0.000000 0.000000
O O15 0.894971 0.500000 0.673024
O O16 0.924028 0.264711 0.723666
O O17 0.500000 0.235411 0.785748
O O18 0.448502 0.000000 0.778080
O O19 0.250000 0.750000 0.877789
O O20 0.283754 0.000000 0.856967
#
# Coordination Sequence:
#
# PCOD8269320 Si02
#       7
#    16  16  16   8  16  16  16
#     4  10  19  34  54  75  95 120 158 200 235 275
#     4   8  13  20  31  52  86 126 160 187 224 278
#     4   9  16  27  43  65  93 121 151 188 231 279
#     4  11  25  41  54  71  98 131 162 189 224 279
#     4   9  14  22  37  59  88 119 151 189 232 276
#     4   9  15  23  40  66  90 111 142 189 239 277
#     4   9  17  30  49  73  99 122 151 192 237 285
#
# _framework density 16.957006
#
# number of rings (size 3 to 8) (size 9 to 14) (size 15 to 20)
#    0.000    2.846    1.538    1.615    0.000    3.692 
#    0.000    0.385    0.000    0.462    0.000    0.000 
#    0.000    1.846    0.000    1.692    0.000    2.615 
#
# Total GULP energy -644572.498063 kJ/mol
# GULP energy per Si atom -12395.624963 kJ/mol
# Density = 1.691841 g / cm^3
# Si number density = 16.957006 Si / 1000 Ang^3
#
#
#
# Elastic Constant Matrix: (Units=GPa)
#
#
# Indices 1 2 3 4 5 6 
#
# 1 158.8951 40.6631 78.8782 0.0000 0.0000 0.0000
# 2 40.6631 26.8578 29.7644 0.0000 0.0000 0.0000
# 3 78.8782 29.7644 122.7418 0.0000 0.0000 0.0000
# 4 0.0000 0.0000 0.0000 6.0982 0.0000 0.0000
# 5 0.0000 0.0000 0.0000 0.0000 26.5471 0.0000
# 6 0.0000 0.0000 0.0000 0.0000 0.0000 22.6763
#
#
#
# Elastic Compliance Matrix: (Units=1/GPa)
#
#
# Indices 1 2 3 4 5 6 
#
# 1 0.011822 -0.012962 -0.004454 0.000000 0.000000 0.000000
# 2 -0.012962 0.065130 -0.007464 0.000000 0.000000 0.000000
# 3 -0.004454 -0.007464 0.012819 0.000000 0.000000 0.000000
# 4 0.000000 0.000000 0.000000 0.163982 0.000000 0.000000
# 5 0.000000 0.000000 0.000000 0.000000 0.037669 0.000000
# 6 0.000000 0.000000 0.000000 0.000000 0.000000 0.044099
#
#
# Mechanical properties :
#
#
# Convention : Reuss Voigt Hill
#
# Bulk Modulus (GPa) = 24.99304 67.45623 46.22463
# Shear Modulus (GPa) = 12.54340 21.67694 17.11017
#
# Velocity S-wave (km/s) = 2.72273 3.57928 3.17997
# Velocity P-wave (km/s) = 4.96542 7.54644 6.38765
#
# Compressibility (1/GPa) = 0.04001114
#
# Stress axis : x y z
#
# Youngs Moduli (GPa) = 84.59147 15.35399 78.00854
#
# Poissons Ratio (x) = 0.19902 0.34742
# Poissons Ratio (y) = 1.09651 0.58222
# Poissons Ratio (z) = 0.37674 0.11460
#
# Static dielectric constant tensor:
#      x y z
#    x 3.395490 0.000000 0.000000 
#    y 0.000000 2.681810 0.000000 
#    z 0.000000 0.000000 3.313880 
# 
# 
# High freq. dielectric constant tensor:
#      x y z
#    x 1.665200 0.000000 0.000000 
#    y 0.000000 1.598510 0.000000 
#    z 0.000000 0.000000 1.644230 
# 
# From -- ./inp_files/72176.got.cif
#   From: 2010.03.12/outbox.cif.g09.slc.cpg/sg65_37_cif.got.tgz:72176.got - 2010.04.10 20:52:16.
