data_PCOD8269751
_publ_section_title
;
Structure prediction by ZEFSAII (Michael W. Deem and Ramdas Pophale) SiO2 
 PCOD8269751
Probable space group: C M M M
;
_chemical_formula_sum "Si O2"
_cell_formula_units_Z 80
_cell_length_a 26.624096
_cell_length_b 23.198232
_cell_length_c 9.188880
_cell_angle_alpha 90.000000
_cell_angle_beta 90.000000
_cell_angle_gamma 90.000000
_cell_volume 5675.345926
_symmetry_space_group_name_H-M "C M M M"
_symmetry_group_IT_number 65
_symmetry_cell_setting 'orthorhombic'
loop_
_space_group_symop_operation_xyz
x,y,z
-x,-y,z
x,-y,-z
-x,y,-z
-x,-y,-z
x,y,-z
-x,y,z
x,-y,z
1/2+x,1/2+y,z
1/2-x,1/2-y,z
1/2+x,1/2-y,-z
1/2-x,1/2+y,-z
1/2-x,1/2-y,-z
1/2+x,1/2+y,-z
1/2-x,1/2+y,z
1/2+x,1/2-y,z
loop_
_atom_site_type_symbol
_atom_site_label
_atom_site_fract_x
_atom_site_fract_y
_atom_site_fract_z
Si Si1 0.627505 0.567005 0.167518
Si Si2 0.442223 0.652957 0.329120
Si Si3 0.639198 0.261172 0.660853
Si Si4 0.289894 0.371344 0.336756
Si Si5 0.713723 0.195155 0.836621
O O1 0.615254 0.500000 0.181452
O O2 0.581013 0.600207 0.239806
O O3 0.680021 0.580082 0.247956
O O4 0.632714 0.586439 0.000000
O O5 0.434586 0.639790 0.500000
O O6 0.500000 0.659637 0.285757
O O7 0.414592 0.713259 0.288178
O O8 0.635252 0.233607 0.500000
O O9 0.677260 0.314183 0.656858
O O10 0.659515 0.212389 0.769977
O O11 0.278459 0.393666 0.500000
O O12 0.237542 0.356971 0.256324
O O13 0.750000 0.250000 0.834713
O O14 0.704895 0.173088 0.000000
#
# Coordination Sequence:
#
# PCOD8269751 Si02
#       5
#    16  16  16  16  16
#     4  10  20  31  41  54  73  96 124 161 201 234
#     4   9  18  31  44  56  71  95 128 164 198 229
#     4   8  14  24  37  53  72  92 116 147 182 221
#     4   9  16  26  40  55  71  92 118 148 182 222
#     4   9  15  22  35  55  76  94 112 138 176 222
#
# _framework density 14.096057
#
# number of rings (size 3 to 8) (size 9 to 14) (size 15 to 20)
#    0.000    3.000    0.000    3.000    0.000    9.600 
#    0.000    2.000    0.000    0.000    0.000    0.000 
#    0.000    0.000    0.000    0.000    0.000    1.000 
#
# Total GULP energy -495838.142246 kJ/mol
# GULP energy per Si atom -12395.953556 kJ/mol
# Density = 1.406397 g / cm^3
# Si number density = 14.096057 Si / 1000 Ang^3
#
#
#
# Elastic Constant Matrix: (Units=GPa)
#
#
# Indices 1 2 3 4 5 6 
#
# 1 88.5424 46.4970 58.2540 0.0000 0.0000 0.0000
# 2 46.4970 25.8056 32.0170 0.0000 0.0000 0.0000
# 3 58.2540 32.0170 110.0697 0.0000 0.0000 0.0000
# 4 0.0000 0.0000 0.0000 18.2240 0.0000 0.0000
# 5 0.0000 0.0000 0.0000 0.0000 15.2674 0.0000
# 6 0.0000 0.0000 0.0000 0.0000 0.0000 14.9649
#
#
#
# Elastic Compliance Matrix: (Units=1/GPa)
#
#
# Indices 1 2 3 4 5 6 
#
# 1 0.210145 -0.376549 -0.001688 0.000000 0.000000 0.000000
# 2 -0.376549 0.735355 -0.014613 0.000000 0.000000 0.000000
# 3 -0.001688 -0.014613 0.014229 0.000000 0.000000 0.000000
# 4 0.000000 0.000000 0.000000 0.054873 0.000000 0.000000
# 5 0.000000 0.000000 0.000000 0.000000 0.065499 0.000000
# 6 0.000000 0.000000 0.000000 0.000000 0.000000 0.066823
#
#
# Mechanical properties :
#
#
# Convention : Reuss Voigt Hill
#
# Bulk Modulus (GPa) = 5.74615 55.32819 30.53717
# Shear Modulus (GPa) = 2.51176 15.53459 9.02317
#
# Velocity S-wave (km/s) = 1.33632 3.32332 2.53280
# Velocity P-wave (km/s) = 2.54289 7.35268 5.50128
#
# Compressibility (1/GPa) = 0.17402947
#
# Stress axis : x y z
#
# Youngs Moduli (GPa) = 4.75862 1.35989 70.27912
#
# Poissons Ratio (x) = 0.51206 0.11863
# Poissons Ratio (y) = 1.79185 1.02696
# Poissons Ratio (z) = 0.00803 0.01987
#
# Static dielectric constant tensor:
#      x y z
#    x 2.801250 0.000000 0.000000 
#    y 0.000000 2.431260 0.000000 
#    z 0.000000 0.000000 3.005270 
# 
# 
# High freq. dielectric constant tensor:
#      x y z
#    x 1.515320 0.000000 0.000000 
#    y 0.000000 1.485910 0.000000 
#    z 0.000000 0.000000 1.555080 
# 
# From -- ./inp_files/9902.got.cif
#   From: 2010.03.12/outbox.cif.g09.slc.cpg/sg65_5_cif.got.tgz:9902.got - 2010.04.10 20:52:16.
