data_PCOD8269874
_publ_section_title
;
Structure prediction by ZEFSAII (Michael W. Deem and Ramdas Pophale) SiO2 
 PCOD8269874
Probable space group: C M M M
;
_chemical_formula_sum "Si O2"
_cell_formula_units_Z 80
_cell_length_a 18.319880
_cell_length_b 24.387621
_cell_length_c 9.533828
_cell_angle_alpha 90.000000
_cell_angle_beta 90.000000
_cell_angle_gamma 90.000000
_cell_volume 4259.507373
_symmetry_space_group_name_H-M "C M M M"
_symmetry_group_IT_number 65
_symmetry_cell_setting 'orthorhombic'
loop_
_space_group_symop_operation_xyz
x,y,z
-x,-y,z
x,-y,-z
-x,y,-z
-x,-y,-z
x,y,-z
-x,y,z
x,-y,z
1/2+x,1/2+y,z
1/2-x,1/2-y,z
1/2+x,1/2-y,-z
1/2-x,1/2+y,-z
1/2-x,1/2-y,-z
1/2+x,1/2+y,-z
1/2-x,1/2+y,z
1/2+x,1/2-y,z
loop_
_atom_site_type_symbol
_atom_site_label
_atom_site_fract_x
_atom_site_fract_y
_atom_site_fract_z
Si Si1 0.000000 0.638230 0.659621
Si Si2 0.000000 0.231146 0.343046
Si Si3 0.129828 0.767103 0.156898
Si Si4 0.918122 0.063639 0.663453
Si Si5 0.703108 0.375735 0.158223
Si Si6 0.637503 0.142028 0.163401
O O1 0.927650 0.617335 0.741378
O O2 0.000000 0.615535 0.500000
O O3 0.000000 0.703404 0.661105
O O4 0.070532 0.208494 0.264035
O O5 0.000000 0.207637 0.500000
O O6 0.197119 0.809275 0.165677
O O7 0.152098 0.705802 0.199579
O O8 0.096374 0.766371 0.000000
O O9 0.905309 0.073536 0.500000
O O10 0.854925 0.095411 0.743491
O O11 0.000000 0.084171 0.705359
O O12 0.911070 0.000000 0.701388
O O13 0.786970 0.389585 0.200293
O O14 0.687972 0.395880 0.000000
O O15 0.616850 0.134317 0.000000
#
# Coordination Sequence:
#
# PCOD8269874 Si02
#       6
#     8   8  16  16  16  16
#     4   9  17  29  45  65  92 127 168 205 233 272
#     4   9  17  27  39  59  88 125 168 205 235 274
#     4   9  17  29  44  64  96 133 165 200 241 289
#     4   9  20  39  57  72  96 132 169 205 253 308
#     4  10  20  31  49  76  99 123 164 210 250 293
#     4   9  17  31  48  68  98 136 168 198 242 295
#
# _framework density 18.781514000000001
#
# number of rings (size 3 to 8) (size 9 to 14) (size 15 to 20)
#    0.000    2.800    0.000    1.800    1.400    7.200 
#    0.000    1.000    0.000    6.000    0.000    0.700 
#    0.000    5.600    0.000    0.000    0.000    0.000 
#
# Total GULP energy -495729.958528 kJ/mol
# GULP energy per Si atom -12393.248963 kJ/mol
# Density = 1.873877 g / cm^3
# Si number density = 18.781514 Si / 1000 Ang^3
#
#
#
# Elastic Constant Matrix: (Units=GPa)
#
#
# Indices 1 2 3 4 5 6 
#
# 1 154.1760 32.3866 74.8055 0.0000 0.0000 0.0000
# 2 32.3866 27.9572 23.1757 0.0000 0.0000 0.0000
# 3 74.8055 23.1757 96.5766 0.0000 0.0000 0.0000
# 4 0.0000 0.0000 0.0000 18.9054 0.0000 0.0000
# 5 0.0000 0.0000 0.0000 0.0000 27.7466 0.0000
# 6 0.0000 0.0000 0.0000 0.0000 0.0000 20.5540
#
#
#
# Elastic Compliance Matrix: (Units=1/GPa)
#
#
# Indices 1 2 3 4 5 6 
#
# 1 0.011504 -0.007415 -0.007131 0.000000 0.000000 0.000000
# 2 -0.007415 0.049431 -0.006119 0.000000 0.000000 0.000000
# 3 -0.007131 -0.006119 0.017346 0.000000 0.000000 0.000000
# 4 0.000000 0.000000 0.000000 0.052895 0.000000 0.000000
# 5 0.000000 0.000000 0.000000 0.000000 0.036040 0.000000
# 6 0.000000 0.000000 0.000000 0.000000 0.000000 0.048652
#
#
# Mechanical properties :
#
#
# Convention : Reuss Voigt Hill
#
# Bulk Modulus (GPa) = 27.06247 59.93839 43.50043
# Shear Modulus (GPa) = 18.55188 23.33067 20.94128
#
# Velocity S-wave (km/s) = 3.14630 3.52833 3.34278
# Velocity P-wave (km/s) = 5.25731 6.97005 6.17337
#
# Compressibility (1/GPa) = 0.03695155
#
# Stress axis : x y z
#
# Youngs Moduli (GPa) = 86.92929 20.23036 57.64927
#
# Poissons Ratio (x) = 0.15000 0.41110
# Poissons Ratio (y) = 0.64456 0.35274
# Poissons Ratio (z) = 0.61989 0.12378
#
# Static dielectric constant tensor:
#      x y z
#    x 3.544890 0.000000 0.000000 
#    y 0.000000 2.969320 0.000000 
#    z 0.000000 0.000000 3.462960 
# 
# 
# High freq. dielectric constant tensor:
#      x y z
#    x 1.736360 0.000000 0.000000 
#    y 0.000000 1.680200 0.000000 
#    z 0.000000 0.000000 1.724740 
# 
# From -- ./inp_files/9693.got.cif
#   From: 2010.03.12/outbox.cif.g09.slc.cpg/sg65_5_cif.got.tgz:9693.got - 2010.04.10 20:52:16.
