data_PCOD8269325
_publ_section_title
;
Structure prediction by ZEFSAII (Michael W. Deem and Ramdas Pophale) SiO2 
 PCOD8269325
Probable space group: C M M M
;
_chemical_formula_sum "Si O2"
_cell_formula_units_Z 104
_cell_length_a 28.571023
_cell_length_b 9.059524
_cell_length_c 23.104254
_cell_angle_alpha 90.000000
_cell_angle_beta 90.000000
_cell_angle_gamma 90.000000
_cell_volume 5980.302069
_symmetry_space_group_name_H-M "C M M M"
_symmetry_group_IT_number 65
_symmetry_cell_setting 'orthorhombic'
loop_
_space_group_symop_operation_xyz
x,y,z
-x,-y,z
x,-y,-z
-x,y,-z
-x,-y,-z
x,y,-z
-x,y,z
x,-y,z
1/2+x,1/2+y,z
1/2-x,1/2-y,z
1/2+x,1/2-y,-z
1/2-x,1/2+y,-z
1/2-x,1/2-y,-z
1/2+x,1/2+y,-z
1/2-x,1/2+y,z
1/2+x,1/2-y,z
loop_
_atom_site_type_symbol
_atom_site_label
_atom_site_fract_x
_atom_site_fract_y
_atom_site_fract_z
Si Si1 0.555605 0.666498 0.000000
Si Si2 0.885048 0.667884 0.435335
Si Si3 0.896830 0.826704 0.778413
Si Si4 0.054681 0.327481 0.114933
Si Si5 0.295486 0.670923 0.260022
Si Si6 0.445718 0.171121 0.673269
Si Si7 0.796599 0.173775 0.607953
O O1 0.573888 0.750554 0.943170
O O2 0.575334 0.500000 0.000000
O O3 0.500000 0.667396 0.000000
O O4 0.905562 0.689062 0.500000
O O5 0.868255 0.500000 0.425245
O O6 0.925766 0.708656 0.390143
O O7 0.840768 0.773745 0.428612
O O8 0.917814 0.738060 0.831454
O O9 0.841462 0.792193 0.777236
O O10 0.920040 0.774054 0.719171
O O11 0.906709 0.000000 0.785839
O O12 0.064797 0.500000 0.109774
O O13 0.000000 0.295222 0.124421
O O14 0.283991 0.500000 0.259293
O O15 0.250000 0.750000 0.232755
O O16 0.304287 0.724499 0.325664
O O17 0.500000 0.212047 0.673053
O O18 0.437873 0.000000 0.689966
O O19 0.750000 0.250000 0.582852
O O20 0.791314 0.000000 0.601432
#
# Coordination Sequence:
#
# PCOD8269325 Si02
#       7
#     8  16  16  16  16  16  16
#     4   9  17  31  51  75 106 145 184 221 261 299
#     4  10  21  36  53  73  97 128 167 209 256 311
#     4  11  21  34  52  78 107 135 170 212 257 305
#     4  10  20  33  50  76 110 147 184 218 253 297
#     4   9  19  33  51  75 101 129 163 204 253 307
#     4  10  21  36  53  73  98 130 168 211 258 306
#     4  10  19  34  54  76 100 127 160 202 254 311
#
# _framework density 17.390426999999999
#
# number of rings (size 3 to 8) (size 9 to 14) (size 15 to 20)
#    0.000    2.077    1.538    2.077    0.000    6.769 
#    0.000    1.538    0.000    0.000    0.000    2.692 
#    0.000    0.000    0.000    0.000    0.000    0.000 
#
# Total GULP energy -644914.335463 kJ/mol
# GULP energy per Si atom -12402.198759 kJ/mol
# Density = 1.735085 g / cm^3
# Si number density = 17.390427 Si / 1000 Ang^3
#
#
#
# Elastic Constant Matrix: (Units=GPa)
#
#
# Indices 1 2 3 4 5 6 
#
# 1 88.4963 45.6790 39.5109 0.0000 0.0000 0.0000
# 2 45.6790 81.7322 48.1427 0.0000 0.0000 0.0000
# 3 39.5109 48.1427 109.5054 0.0000 0.0000 0.0000
# 4 0.0000 0.0000 0.0000 24.8487 0.0000 0.0000
# 5 0.0000 0.0000 0.0000 0.0000 -1.5577 0.0000
# 6 0.0000 0.0000 0.0000 0.0000 0.0000 27.6107
#
#
#
# Elastic Compliance Matrix: (Units=1/GPa)
#
#
# Indices 1 2 3 4 5 6 
#
# 1 0.016391 -0.007661 -0.002546 0.000000 0.000000 0.000000
# 2 -0.007661 0.020091 -0.006069 0.000000 0.000000 0.000000
# 3 -0.002546 -0.006069 0.012719 0.000000 0.000000 0.000000
# 4 0.000000 0.000000 0.000000 0.040244 0.000000 0.000000
# 5 0.000000 0.000000 0.000000 0.000000 -0.641985 0.000000
# 6 0.000000 0.000000 0.000000 0.000000 0.000000 0.036218
#
#
# Mechanical properties :
#
#
# Convention : Reuss Voigt Hill
#
# Bulk Modulus (GPa) = 60.06185 60.71100 60.38642
# Shear Modulus (GPa) = -10.45541 19.94045 4.74252
#
# Velocity S-wave (km/s) = -2.45463 3.38987 1.65318
# Velocity P-wave (km/s) = 5.15545 7.09281 6.20027
#
# Compressibility (1/GPa) = 0.01664950
#
# Stress axis : x y z
#
# Youngs Moduli (GPa) = 61.00918 49.77264 78.62481
#
# Poissons Ratio (x) = 0.38131 0.20018
# Poissons Ratio (y) = 0.46739 0.47715
# Poissons Ratio (z) = 0.15533 0.30206
#
# Static dielectric constant tensor:
#      x y z
#    x 3.192120 0.000000 0.000000 
#    y 0.000000 3.304710 0.000000 
#    z 0.000000 0.000000 3.218350 
# 
# 
# High freq. dielectric constant tensor:
#      x y z
#    x 1.658280 0.000000 0.000000 
#    y 0.000000 1.681020 0.000000 
#    z 0.000000 0.000000 1.660590 
# 
# From -- ./inp_files/60803.got.cif
#   From: 2010.03.12/outbox.cif.g09.slc.cpg/sg65_31_cif.got.tgz:60803.got - 2010.04.10 20:52:16.
