data_PCOD8269169
_publ_section_title
;
Structure prediction by ZEFSAII (Michael W. Deem and Ramdas Pophale) SiO2 
 PCOD8269169
Probable space group: C M M M
;
_chemical_formula_sum "Si O2"
_cell_formula_units_Z 96
_cell_length_a 8.808207
_cell_length_b 28.838358
_cell_length_c 20.571870
_cell_angle_alpha 90.000000
_cell_angle_beta 90.000000
_cell_angle_gamma 90.000000
_cell_volume 5225.547652
_symmetry_space_group_name_H-M "C M M M"
_symmetry_group_IT_number 65
_symmetry_cell_setting 'orthorhombic'
loop_
_space_group_symop_operation_xyz
x,y,z
-x,-y,z
x,-y,-z
-x,y,-z
-x,-y,-z
x,y,-z
-x,y,z
x,-y,z
1/2+x,1/2+y,z
1/2-x,1/2-y,z
1/2+x,1/2-y,-z
1/2-x,1/2+y,-z
1/2-x,1/2-y,-z
1/2+x,1/2+y,-z
1/2-x,1/2+y,z
1/2+x,1/2-y,z
loop_
_atom_site_type_symbol
_atom_site_label
_atom_site_fract_x
_atom_site_fract_y
_atom_site_fract_z
Si Si1 0.321148 0.298349 0.072309
Si Si2 0.675954 0.646240 0.804918
Si Si3 0.672863 0.449041 0.249787
Si Si4 0.323337 0.947731 0.384959
Si Si5 0.821088 0.300491 0.313703
Si Si6 0.173830 0.857908 0.426722
O O1 0.500000 0.292073 0.072334
O O2 0.250000 0.250000 0.094714
O O3 0.269181 0.337084 0.124054
O O4 0.263704 0.312556 0.000000
O O5 0.500000 0.658745 0.793433
O O6 0.703947 0.590787 0.803387
O O7 0.771285 0.670858 0.749090
O O8 0.500000 0.445206 0.275919
O O9 0.700859 0.500000 0.218320
O O10 0.785881 0.440926 0.309285
O O11 0.500000 0.937633 0.395418
O O12 0.228080 0.911292 0.426786
O O13 0.281509 0.000000 0.407447
O O14 0.750000 0.250000 0.312016
O O15 0.773626 0.326705 0.379252
O O16 0.000000 0.295265 0.313294
O O17 0.191002 0.838740 0.500000
O O18 0.000000 0.855643 0.403309
#
# Coordination Sequence:
#
# PCOD8269169 Si02
#       6
#    16  16  16  16  16  16
#     4   9  18  32  50  75 108 145 182 222 269 319
#     4  10  19  33  55  81 110 142 180 224 268 318
#     4   9  17  30  51  77 106 141 179 219 264 317
#     4  10  20  34  54  81 111 141 176 221 271 321
#     4  12  25  40  59  81 107 138 176 224 273 325
#     4  11  24  41  59  79 106 141 181 223 270 325
#
# _framework density 18.371281
#
# number of rings (size 3 to 8) (size 9 to 14) (size 15 to 20)
#    0.000    1.833    1.667    3.000    0.000    5.000 
#    0.000    1.667    0.000    0.500    0.000    3.500 
#    0.000    0.000    0.000    9.833    0.000   10.333 
#
# Total GULP energy -595175.628595 kJ/mol
# GULP energy per Si atom -12399.492262 kJ/mol
# Density = 1.832947 g / cm^3
# Si number density = 18.371281 Si / 1000 Ang^3
#
#
#
# Elastic Constant Matrix: (Units=GPa)
#
#
# Indices 1 2 3 4 5 6 
#
# 1 81.0505 41.3967 36.3545 0.0000 0.0000 0.0000
# 2 41.3967 129.4111 62.5721 0.0000 0.0000 0.0000
# 3 36.3545 62.5721 104.4369 0.0000 0.0000 0.0000
# 4 0.0000 0.0000 0.0000 22.4412 0.0000 0.0000
# 5 0.0000 0.0000 0.0000 0.0000 14.3804 0.0000
# 6 0.0000 0.0000 0.0000 0.0000 0.0000 23.9798
#
#
#
# Elastic Compliance Matrix: (Units=1/GPa)
#
#
# Indices 1 2 3 4 5 6 
#
# 1 0.015574 -0.003323 -0.003430 0.000000 0.000000 0.000000
# 2 -0.003323 0.011588 -0.005786 0.000000 0.000000 0.000000
# 3 -0.003430 -0.005786 0.014236 0.000000 0.000000 0.000000
# 4 0.000000 0.000000 0.000000 0.044561 0.000000 0.000000
# 5 0.000000 0.000000 0.000000 0.000000 0.069539 0.000000
# 6 0.000000 0.000000 0.000000 0.000000 0.000000 0.041702
#
#
# Mechanical properties :
#
#
# Convention : Reuss Voigt Hill
#
# Bulk Modulus (GPa) = 61.27893 66.17171 63.72532
# Shear Modulus (GPa) = 21.95699 23.79863 22.87781
#
# Velocity S-wave (km/s) = 3.46089 3.60311 3.53271
# Velocity P-wave (km/s) = 7.02841 7.30802 7.16958
#
# Compressibility (1/GPa) = 0.01631882
#
# Stress axis : x y z
#
# Youngs Moduli (GPa) = 64.20973 86.29622 70.24555
#
# Poissons Ratio (x) = 0.28679 0.24095
# Poissons Ratio (y) = 0.21339 0.40644
# Poissons Ratio (z) = 0.22025 0.49931
#
# Static dielectric constant tensor:
#      x y z
#    x 3.422540 0.000000 0.000000 
#    y 0.000000 -51.523900 0.000000 
#    z 0.000000 0.000000 3.378380 
# 
# 
# High freq. dielectric constant tensor:
#      x y z
#    x 1.715040 0.000000 0.000000 
#    y 0.000000 1.718840 0.000000 
#    z 0.000000 0.000000 1.692880 
# 
# From -- ./inp_files/60276.got.cif
#   From: 2010.03.12/outbox.cif.g09.slc.cpg/sg65_31_cif.got.tgz:60276.got - 2010.04.10 20:52:16.
