data_PCOD8269562
_publ_section_title
;
Structure prediction by ZEFSAII (Michael W. Deem and Ramdas Pophale) SiO2 
 PCOD8269562
Probable space group: C M M M
;
_chemical_formula_sum "Si O2"
_cell_formula_units_Z 88
_cell_length_a 14.811552
_cell_length_b 18.475202
_cell_length_c 17.373041
_cell_angle_alpha 90.000000
_cell_angle_beta 90.000000
_cell_angle_gamma 90.000000
_cell_volume 4754.070390
_symmetry_space_group_name_H-M "C M M M"
_symmetry_group_IT_number 65
_symmetry_cell_setting 'orthorhombic'
loop_
_space_group_symop_operation_xyz
x,y,z
-x,-y,z
x,-y,-z
-x,y,-z
-x,-y,-z
x,y,-z
-x,y,z
x,-y,z
1/2+x,1/2+y,z
1/2-x,1/2-y,z
1/2+x,1/2-y,-z
1/2-x,1/2+y,-z
1/2-x,1/2-y,-z
1/2+x,1/2+y,-z
1/2-x,1/2+y,z
1/2+x,1/2-y,z
loop_
_atom_site_type_symbol
_atom_site_label
_atom_site_fract_x
_atom_site_fract_y
_atom_site_fract_z
Si Si1 0.101719 0.584411 0.411143
Si Si2 0.353013 0.664599 0.913787
Si Si3 0.500000 0.084762 0.911819
Si Si4 0.897581 0.083746 0.235321
Si Si5 0.735974 0.171106 0.304543
Si Si6 0.657460 0.179577 0.862484
O O1 0.121618 0.601198 0.500000
O O2 0.111478 0.500000 0.393927
O O3 0.175269 0.624922 0.361094
O O4 0.000000 0.609855 0.389862
O O5 0.392864 0.606616 0.854318
O O6 0.386623 0.744784 0.889458
O O7 0.244481 0.661811 0.913827
O O8 0.387360 0.646432 0.000000
O O9 0.588269 0.114455 0.870479
O O10 0.500000 0.000000 0.901023
O O11 0.500000 0.109182 0.000000
O O12 0.830803 0.130607 0.288735
O O13 0.000000 0.095149 0.265050
O O14 0.868911 0.000000 0.241147
O O15 0.750000 0.250000 0.343033
O O16 0.683512 0.185929 0.225964
#
# Coordination Sequence:
#
# PCOD8269562 Si02
#       6
#    16  16   8  16  16  16
#     4   9  20  39  63  92 123 151 179 218 274 339
#     4  10  19  35  56  74 100 145 193 240 290 336
#     4  11  24  36  50  78 114 150 190 241 298 352
#     4  10  22  38  54  77 111 148 190 241 287 331
#     4  11  21  37  60  87 113 148 189 234 278 337
#     4  10  20  36  51  77 109 143 185 231 282 341
#
# _framework density 18.510453999999999
#
# number of rings (size 3 to 8) (size 9 to 14) (size 15 to 20)
#    0.000    1.909    3.636    3.273    2.545    5.455 
#    0.000    0.909    0.000    0.545    0.000    2.545 
#    0.000    0.000    0.000    0.000    0.000    0.000 
#
# Total GULP energy -545620.004622 kJ/mol
# GULP energy per Si atom -12400.454650 kJ/mol
# Density = 1.846832 g / cm^3
# Si number density = 18.510454 Si / 1000 Ang^3
#
#
#
# Elastic Constant Matrix: (Units=GPa)
#
#
# Indices 1 2 3 4 5 6 
#
# 1 107.3318 62.7364 48.7595 0.0000 0.0000 0.0000
# 2 62.7364 103.4207 39.7635 0.0000 0.0000 0.0000
# 3 48.7595 39.7635 80.7583 0.0000 0.0000 0.0000
# 4 0.0000 0.0000 0.0000 41.5743 0.0000 0.0000
# 5 0.0000 0.0000 0.0000 0.0000 42.8435 0.0000
# 6 0.0000 0.0000 0.0000 0.0000 0.0000 23.8550
#
#
#
# Elastic Compliance Matrix: (Units=1/GPa)
#
#
# Indices 1 2 3 4 5 6 
#
# 1 0.016666 -0.007698 -0.006272 0.000000 0.000000 0.000000
# 2 -0.007698 0.015483 -0.002976 0.000000 0.000000 0.000000
# 3 -0.006272 -0.002976 0.017635 0.000000 0.000000 0.000000
# 4 0.000000 0.000000 0.000000 0.024053 0.000000 0.000000
# 5 0.000000 0.000000 0.000000 0.000000 0.023341 0.000000
# 6 0.000000 0.000000 0.000000 0.000000 0.000000 0.041920
#
#
# Mechanical properties :
#
#
# Convention : Reuss Voigt Hill
#
# Bulk Modulus (GPa) = 62.92451 66.00329 64.46390
# Shear Modulus (GPa) = 28.04476 31.00466 29.52471
#
# Velocity S-wave (km/s) = 3.89662 4.09709 3.99811
# Velocity P-wave (km/s) = 7.36972 7.62340 7.49763
#
# Compressibility (1/GPa) = 0.01589206
#
# Stress axis : x y z
#
# Youngs Moduli (GPa) = 60.00286 64.58624 56.70701
#
# Poissons Ratio (x) = 0.49720 0.35566
# Poissons Ratio (y) = 0.46192 0.16873
# Poissons Ratio (z) = 0.37633 0.19218
#
# Static dielectric constant tensor:
#      x y z
#    x 3.431960 0.000000 0.000000 
#    y 0.000000 3.459540 0.000000 
#    z 0.000000 0.000000 3.204860 
# 
# 
# High freq. dielectric constant tensor:
#      x y z
#    x 1.721960 0.000000 0.000000 
#    y 0.000000 1.722100 0.000000 
#    z 0.000000 0.000000 1.697770 
# 
# From -- ./inp_files/53058.got.cif
#   From: 2010.03.12/outbox.cif.g09.slc.cpg/sg65_27_cif.got.tgz:53058.got - 2010.04.10 20:52:16.
