data_PCOD8269600
_publ_section_title
;
Structure prediction by ZEFSAII (Michael W. Deem and Ramdas Pophale) SiO2 
 PCOD8269600
Probable space group: C M M M
;
_chemical_formula_sum "Si O2"
_cell_formula_units_Z 64
_cell_length_a 24.091365
_cell_length_b 15.594790
_cell_length_c 8.638596
_cell_angle_alpha 90.000000
_cell_angle_beta 90.000000
_cell_angle_gamma 90.000000
_cell_volume 3245.518599
_symmetry_space_group_name_H-M "C M M M"
_symmetry_group_IT_number 65
_symmetry_cell_setting 'orthorhombic'
loop_
_space_group_symop_operation_xyz
x,y,z
-x,-y,z
x,-y,-z
-x,y,-z
-x,-y,-z
x,y,-z
-x,y,z
x,-y,z
1/2+x,1/2+y,z
1/2-x,1/2-y,z
1/2+x,1/2-y,-z
1/2-x,1/2+y,-z
1/2-x,1/2-y,-z
1/2+x,1/2+y,-z
1/2-x,1/2+y,z
1/2+x,1/2-y,z
loop_
_atom_site_type_symbol
_atom_site_label
_atom_site_fract_x
_atom_site_fract_y
_atom_site_fract_z
Si Si1 0.310849 0.500000 0.319351
Si Si2 0.382678 0.843315 0.816739
Si Si3 0.500000 0.404863 0.817096
Si Si4 0.689762 0.000000 0.816361
Si Si5 0.000000 0.402458 0.184158
Si Si6 0.119273 0.152337 0.817587
O O1 0.299758 0.500000 0.500000
O O2 0.252860 0.500000 0.232970
O O3 0.343922 0.585069 0.274188
O O4 0.340751 0.914973 0.749605
O O5 0.444698 0.857116 0.749072
O O6 0.360937 0.748302 0.773184
O O7 0.385851 0.853107 0.000000
O O8 0.500000 0.500000 0.743855
O O9 0.444784 0.355449 0.763391
O O10 0.500000 0.411753 0.000000
O O11 0.686848 0.000000 0.000000
O O12 0.000000 0.500000 0.240644
O O13 0.000000 0.396745 0.000000
O O14 0.125558 0.133781 0.000000
#
# Coordination Sequence:
#
# PCOD8269600 Si02
#       6
#     8  16   8   8   8  16
#     4  12  26  41  54  73 102 144 191 236 281 316
#     4   9  17  29  53  86 117 145 173 211 266 324
#     4   9  15  27  53  84 111 139 169 209 264 319
#     4  10  20  37  57  81 110 142 182 224 265 316
#     4   9  13  23  47  86 128 147 158 204 271 326
#     4  10  19  35  58  84 112 143 178 218 264 323
#
# _framework density 19.719498000000002
#
# number of rings (size 3 to 8) (size 9 to 14) (size 15 to 20)
#    0.000    2.250    2.500    1.875    0.000    4.000 
#    0.000    7.500    0.000    0.000    0.000    3.500 
#    0.000    0.000    0.000    0.000    0.000    0.000 
#
# Total GULP energy -396685.031612 kJ/mol
# GULP energy per Si atom -12396.407238 kJ/mol
# Density = 1.967462 g / cm^3
# Si number density = 19.719498 Si / 1000 Ang^3
#
#
#
# Elastic Constant Matrix: (Units=GPa)
#
#
# Indices 1 2 3 4 5 6 
#
# 1 120.7299 57.3378 -4.5018 0.0000 0.0000 0.0000
# 2 57.3378 156.9701 11.7459 0.0000 0.0000 0.0000
# 3 -4.5018 11.7459 7.5669 0.0000 0.0000 0.0000
# 4 0.0000 0.0000 0.0000 2.3445 0.0000 0.0000
# 5 0.0000 0.0000 0.0000 0.0000 -4.9426 0.0000
# 6 0.0000 0.0000 0.0000 0.0000 0.0000 77.2584
#
#
#
# Elastic Compliance Matrix: (Units=1/GPa)
#
#
# Indices 1 2 3 4 5 6 
#
# 1 0.011334 -0.005255 0.014901 0.000000 0.000000 0.000000
# 2 -0.005255 0.009644 -0.018097 0.000000 0.000000 0.000000
# 3 0.014901 -0.018097 0.169112 0.000000 0.000000 0.000000
# 4 0.000000 0.000000 0.000000 0.426535 0.000000 0.000000
# 5 0.000000 0.000000 0.000000 0.000000 -0.202324 0.000000
# 6 0.000000 0.000000 0.000000 0.000000 0.000000 0.012944
#
#
# Mechanical properties :
#
#
# Convention : Reuss Voigt Hill
#
# Bulk Modulus (GPa) = 5.77411 46.04786 25.91098
# Shear Modulus (GPa) = 9.96259 29.64439 19.80349
#
# Velocity S-wave (km/s) = 2.25014 3.88145 3.17244
# Velocity P-wave (km/s) = 3.11212 6.59467 5.15631
#
# Compressibility (1/GPa) = 0.17318698
#
# Stress axis : x y z
#
# Youngs Moduli (GPa) = 88.22677 103.68623 5.91325
#
# Poissons Ratio (x) = 0.54490 -0.08811
# Poissons Ratio (y) = 0.46365 0.10701
# Poissons Ratio (z) = -1.31465 1.87645
#
# Static dielectric constant tensor:
#      x y z
#    x 3.709950 0.000000 0.000000 
#    y 0.000000 3.880270 0.000000 
#    z 0.000000 0.000000 2.915480 
# 
# 
# High freq. dielectric constant tensor:
#      x y z
#    x 1.772670 0.000000 0.000000 
#    y 0.000000 1.787960 0.000000 
#    z 0.000000 0.000000 1.695820 
# 
# From -- ./inp_files/13426.got.cif
#   From: 2010.03.12/outbox.cif.g09.slc.cpg/sg65_7_cif.got.tgz:13426.got - 2010.04.10 20:52:16.
