data_PCOD8269422
_publ_section_title
;
Structure prediction by ZEFSAII (Michael W. Deem and Ramdas Pophale) SiO2 
 PCOD8269422
Probable space group: C M M M
;
_chemical_formula_sum "Si O2"
_cell_formula_units_Z 88
_cell_length_a 19.470176
_cell_length_b 8.652240
_cell_length_c 27.826778
_cell_angle_alpha 90.000000
_cell_angle_beta 90.000000
_cell_angle_gamma 90.000000
_cell_volume 4687.716708
_symmetry_space_group_name_H-M "C M M M"
_symmetry_group_IT_number 65
_symmetry_cell_setting 'orthorhombic'
loop_
_space_group_symop_operation_xyz
x,y,z
-x,-y,z
x,-y,-z
-x,y,-z
-x,-y,-z
x,y,-z
-x,y,z
x,-y,z
1/2+x,1/2+y,z
1/2-x,1/2-y,z
1/2+x,1/2-y,-z
1/2-x,1/2+y,-z
1/2-x,1/2-y,-z
1/2+x,1/2+y,-z
1/2-x,1/2+y,z
1/2+x,1/2-y,z
loop_
_atom_site_type_symbol
_atom_site_label
_atom_site_fract_x
_atom_site_fract_y
_atom_site_fract_z
Si Si1 0.419767 0.178327 0.236731
Si Si2 0.577417 0.183503 0.500000
Si Si3 0.677521 0.318576 0.686463
Si Si4 0.822095 0.182760 0.946273
Si Si5 0.578987 0.320236 0.863135
Si Si6 0.323619 0.816573 0.415934
O O1 0.500000 0.212621 0.243673
O O2 0.379986 0.283668 0.274383
O O3 0.396608 0.224559 0.183192
O O4 0.401755 0.000000 0.245674
O O5 0.500000 0.252711 0.500000
O O6 0.618270 0.241411 0.452959
O O7 0.573768 0.000000 0.500000
O O8 0.685722 0.500000 0.679118
O O9 0.750000 0.250000 0.704083
O O10 0.654519 0.243171 0.636329
O O11 0.750000 0.250000 0.928691
O O12 0.879664 0.241162 0.909295
O O13 0.817389 0.000000 0.946000
O O14 0.840276 0.242867 0.000000
O O15 0.500000 0.288352 0.874937
O O16 0.593068 0.500000 0.852797
O O17 0.250000 0.750000 0.431868
O O18 0.318099 0.000000 0.415199
#
# Coordination Sequence:
#
# PCOD8269422 Si02
#       6
#    16   8  16  16  16  16
#     4  10  21  37  56  78 106 140 176 215 263 317
#     4   9  19  34  53  79 108 139 176 216 258 307
#     4  11  22  37  57  81 109 139 177 221 265 314
#     4   9  18  32  50  73 101 133 168 208 256 308
#     4   9  18  33  52  74 101 134 173 215 257 304
#     4  10  19  34  56  79 106 140 177 216 260 310
#
# _framework density 18.772466000000001
#
# number of rings (size 3 to 8) (size 9 to 14) (size 15 to 20)
#    0.000    2.273    0.000    4.091    0.000    3.636 
#    0.000    6.818    0.000    3.818    0.000    5.091 
#    0.000    0.000    0.000    0.000    0.000    0.000 
#
# Total GULP energy -545689.713237 kJ/mol
# GULP energy per Si atom -12402.038937 kJ/mol
# Density = 1.872974 g / cm^3
# Si number density = 18.772466 Si / 1000 Ang^3
#
#
#
# Elastic Constant Matrix: (Units=GPa)
#
#
# Indices 1 2 3 4 5 6 
#
# 1 111.7573 31.3888 87.2062 0.0000 0.0000 0.0000
# 2 31.3888 66.1823 33.3064 0.0000 0.0000 0.0000
# 3 87.2062 33.3064 130.1726 0.0000 0.0000 0.0000
# 4 0.0000 0.0000 0.0000 26.1212 0.0000 0.0000
# 5 0.0000 0.0000 0.0000 0.0000 40.7225 0.0000
# 6 0.0000 0.0000 0.0000 0.0000 0.0000 28.7540
#
#
#
# Elastic Compliance Matrix: (Units=1/GPa)
#
#
# Indices 1 2 3 4 5 6 
#
# 1 0.019265 -0.003032 -0.012130 0.000000 0.000000 0.000000
# 2 -0.003032 0.017820 -0.002528 0.000000 0.000000 0.000000
# 3 -0.012130 -0.002528 0.016455 0.000000 0.000000 0.000000
# 4 0.000000 0.000000 0.000000 0.038283 0.000000 0.000000
# 5 0.000000 0.000000 0.000000 0.000000 0.024556 0.000000
# 6 0.000000 0.000000 0.000000 0.000000 0.000000 0.034778
#
#
# Mechanical properties :
#
#
# Convention : Reuss Voigt Hill
#
# Bulk Modulus (GPa) = 55.06865 67.99055 61.52960
# Shear Modulus (GPa) = 25.96146 29.53359 27.74753
#
# Velocity S-wave (km/s) = 3.72284 3.97071 3.84877
# Velocity P-wave (km/s) = 6.91939 7.57093 7.25248
#
# Compressibility (1/GPa) = 0.01815915
#
# Stress axis : x y z
#
# Youngs Moduli (GPa) = 51.90693 56.11597 60.77007
#
# Poissons Ratio (x) = 0.17017 0.73717
# Poissons Ratio (y) = 0.15740 0.15363
# Poissons Ratio (z) = 0.62965 0.14186
#
# Static dielectric constant tensor:
#      x y z
#    x 3.480440 0.000000 0.000000 
#    y 0.000000 3.365100 0.000000 
#    z 0.000000 0.000000 3.640820 
# 
# 
# High freq. dielectric constant tensor:
#      x y z
#    x 1.726100 0.000000 0.000000 
#    y 0.000000 1.724440 0.000000 
#    z 0.000000 0.000000 1.737780 
# 
# From -- ./inp_files/67471.got.cif
#   From: 2010.03.12/outbox.cif.g09.slc.cpg/sg65_34_cif.got.tgz:67471.got - 2010.04.10 20:52:16.
