data_PCOD8269659
_publ_section_title
;
Structure prediction by ZEFSAII (Michael W. Deem and Ramdas Pophale) SiO2 
 PCOD8269659
Probable space group: C M M M
;
_chemical_formula_sum "Si O2"
_cell_formula_units_Z 104
_cell_length_a 9.415295
_cell_length_b 21.932338
_cell_length_c 26.665833
_cell_angle_alpha 90.000000
_cell_angle_beta 90.000000
_cell_angle_gamma 90.000000
_cell_volume 5506.479377
_symmetry_space_group_name_H-M "C M M M"
_symmetry_group_IT_number 65
_symmetry_cell_setting 'orthorhombic'
loop_
_space_group_symop_operation_xyz
x,y,z
-x,-y,z
x,-y,-z
-x,y,-z
-x,-y,-z
x,y,-z
-x,y,z
x,-y,z
1/2+x,1/2+y,z
1/2-x,1/2-y,z
1/2+x,1/2-y,-z
1/2-x,1/2+y,-z
1/2-x,1/2-y,-z
1/2+x,1/2+y,-z
1/2-x,1/2+y,z
1/2+x,1/2-y,z
loop_
_atom_site_type_symbol
_atom_site_label
_atom_site_fract_x
_atom_site_fract_y
_atom_site_fract_z
Si Si1 0.344662 0.500000 0.884333
Si Si2 0.658339 0.691371 0.810672
Si Si3 0.169277 0.312431 0.000000
Si Si4 0.661537 0.403863 0.269342
Si Si5 0.659422 0.630120 0.913527
Si Si6 0.665216 0.310562 0.558966
Si Si7 0.332894 0.000000 0.788773
Si Si8 0.833630 0.069759 0.617076
O O1 0.500000 0.500000 0.856469
O O2 0.334312 0.442180 0.920458
O O3 0.216580 0.500000 0.845646
O O4 0.500000 0.714554 0.818125
O O5 0.750000 0.750000 0.816698
O O6 0.675891 0.663050 0.754978
O O7 0.696668 0.644422 0.855359
O O8 0.250000 0.250000 0.000000
O O9 0.218738 0.345142 0.949417
O O10 0.000000 0.305493 0.000000
O O11 0.500000 0.428425 0.262107
O O12 0.775415 0.441693 0.239431
O O13 0.703324 0.406541 0.327417
O O14 0.500000 0.654306 0.927555
O O15 0.686272 0.316891 0.500000
O O16 0.500000 0.301560 0.573763
O O17 0.750000 0.250000 0.578381
O O18 0.724981 0.375193 0.581625
O O19 0.500000 0.000000 0.787073
O O20 0.000000 0.064537 0.608256
O O21 0.770960 0.000000 0.607578
#
# Coordination Sequence:
#
# PCOD8269659 Si02
#       8
#     8  16   8  16  16  16   8  16
#     4  10  20  39  65  88 113 147 185 220 265 331
#     4  10  21  35  55  80 108 141 181 226 269 320
#     4  12  26  43  62  83 113 148 184 228 277 328
#     4  10  19  36  57  76 105 149 190 221 268 336
#     4  10  21  39  63  87 109 142 186 225 270 325
#     4   9  18  33  53  79 110 146 189 233 284 342
#     4  12  22  32  53  85 115 143 179 225 273 320
#     4   9  17  30  55  83 105 140 190 241 283 328
#
# _framework density 18.886839999999999
#
# number of rings (size 3 to 8) (size 9 to 14) (size 15 to 20)
#    0.000    2.000    2.308    1.846    0.000    4.308 
#    0.000    3.846    0.000    0.000    0.000    2.154 
#    0.000    0.000    0.000    0.000    0.000    0.000 
#
# Total GULP energy -644309.335054 kJ/mol
# GULP energy per Si atom -12390.564136 kJ/mol
# Density = 1.884385 g / cm^3
# Si number density = 18.886840 Si / 1000 Ang^3
#
#
#
# Elastic Constant Matrix: (Units=GPa)
#
#
# Indices 1 2 3 4 5 6 
#
# 1 97.9214 49.5642 33.9782 0.0000 0.0000 0.0000
# 2 49.5642 148.6599 50.1420 0.0000 0.0000 0.0000
# 3 33.9782 50.1420 76.5912 0.0000 0.0000 0.0000
# 4 0.0000 0.0000 0.0000 24.3568 0.0000 0.0000
# 5 0.0000 0.0000 0.0000 0.0000 18.2270 0.0000
# 6 0.0000 0.0000 0.0000 0.0000 0.0000 682.6018
#
#
#
# Elastic Compliance Matrix: (Units=1/GPa)
#
#
# Indices 1 2 3 4 5 6 
#
# 1 0.013088 -0.003087 -0.003785 0.000000 0.000000 0.000000
# 2 -0.003087 0.009361 -0.004759 0.000000 0.000000 0.000000
# 3 -0.003785 -0.004759 0.017851 0.000000 0.000000 0.000000
# 4 0.000000 0.000000 0.000000 0.041056 0.000000 0.000000
# 5 0.000000 0.000000 0.000000 0.000000 0.054864 0.000000
# 6 0.000000 0.000000 0.000000 0.000000 0.000000 0.001465
#
#
# Mechanical properties :
#
#
# Convention : Reuss Voigt Hill
#
# Bulk Modulus (GPa) = 58.69262 65.61573 62.15418
# Shear Modulus (GPa) = 30.00699 157.66965 93.83832
#
# Velocity S-wave (km/s) = 3.99027 9.14672 7.05637
# Velocity P-wave (km/s) = 7.23693 12.09822 9.96845
#
# Compressibility (1/GPa) = 0.01703792
#
# Stress axis : x y z
#
# Youngs Moduli (GPa) = 76.40420 106.82452 56.01846
#
# Poissons Ratio (x) = 0.32976 0.21206
# Poissons Ratio (y) = 0.23585 0.26659
# Poissons Ratio (z) = 0.28922 0.50838
#
# Static dielectric constant tensor:
#      x y z
#    x 3.322640 0.000000 0.000000 
#    y 0.000000 3.797040 0.000000 
#    z 0.000000 0.000000 3.446290 
# 
# 
# High freq. dielectric constant tensor:
#      x y z
#    x 1.706680 0.000000 0.000000 
#    y 0.000000 1.743970 0.000000 
#    z 0.000000 0.000000 1.727530 
# 
# From -- ./inp_files/73387.got.cif
#   From: 2010.03.12/outbox.cif.g09.slc.cpg/sg65_37_cif.got.tgz:73387.got - 2010.04.10 20:52:16.
