data_PCOD8269581
_publ_section_title
;
Structure prediction by ZEFSAII (Michael W. Deem and Ramdas Pophale) SiO2 
 PCOD8269581
Probable space group: C M M M
;
_chemical_formula_sum "Si O2"
_cell_formula_units_Z 72
_cell_length_a 14.370930
_cell_length_b 29.551230
_cell_length_c 9.055740
_cell_angle_alpha 90.000000
_cell_angle_beta 90.000000
_cell_angle_gamma 90.000000
_cell_volume 3845.779508
_symmetry_space_group_name_H-M "C M M M"
_symmetry_group_IT_number 65
_symmetry_cell_setting 'orthorhombic'
loop_
_space_group_symop_operation_xyz
x,y,z
-x,-y,z
x,-y,-z
-x,y,-z
-x,-y,-z
x,y,-z
-x,y,z
x,-y,z
1/2+x,1/2+y,z
1/2-x,1/2-y,z
1/2+x,1/2-y,-z
1/2-x,1/2+y,-z
1/2-x,1/2-y,-z
1/2+x,1/2+y,-z
1/2-x,1/2+y,z
1/2+x,1/2-y,z
loop_
_atom_site_type_symbol
_atom_site_label
_atom_site_fract_x
_atom_site_fract_y
_atom_site_fract_z
Si Si1 0.318357 0.051153 0.170629
Si Si2 0.000000 0.158560 0.324020
Si Si3 0.000000 0.446156 0.665895
Si Si4 0.184351 0.869446 0.171874
Si Si5 0.000000 0.260995 0.674694
Si Si6 0.195456 0.296629 0.331648
O O1 0.406737 0.072089 0.256545
O O2 0.227706 0.081207 0.202240
O O3 0.295548 0.000000 0.222921
O O4 0.346047 0.052130 0.000000
O O5 0.909660 0.132823 0.265023
O O6 0.000000 0.156991 0.500000
O O7 0.000000 0.209904 0.261759
O O8 0.000000 0.500000 0.674549
O O9 0.000000 0.427573 0.500000
O O10 0.257977 0.832112 0.223064
O O11 0.162343 0.861899 0.000000
O O12 0.909192 0.288241 0.727265
O O13 0.000000 0.256044 0.500000
O O14 0.196368 0.315056 0.500000
O O15 0.250000 0.250000 0.324321
#
# Coordination Sequence:
#
# PCOD8269581 Si02
#       6
#    16   8   8  16   8  16
#     4   9  19  37  58  79 112 156 190 220 271 338
#     4  11  21  39  61  79 105 148 190 222 276 344
#     4   9  17  30  53  84 112 139 179 231 278 319
#     4  11  23  37  56  85 113 140 186 238 281 322
#     4   9  18  34  56  80 106 145 191 223 257 328
#     4  10  19  35  57  80 110 148 187 222 268 334
#
# _framework density 18.721823000000001
#
# number of rings (size 3 to 8) (size 9 to 14) (size 15 to 20)
#    0.000    2.111    2.222    1.333    0.000    4.444 
#    0.000    3.333    0.000    3.333    0.000    0.000 
#    0.000    0.000    0.000    0.000    0.000    0.000 
#
# Total GULP energy -446457.883401 kJ/mol
# GULP energy per Si atom -12401.607872 kJ/mol
# Density = 1.867921 g / cm^3
# Si number density = 18.721823 Si / 1000 Ang^3
#
#
#
# Elastic Constant Matrix: (Units=GPa)
#
#
# Indices 1 2 3 4 5 6 
#
# 1 168.1303 53.0752 58.7310 0.0000 0.0000 0.0000
# 2 53.0752 75.0411 41.0507 0.0000 0.0000 0.0000
# 3 58.7310 41.0507 84.9886 0.0000 0.0000 0.0000
# 4 0.0000 0.0000 0.0000 23.2037 0.0000 0.0000
# 5 0.0000 0.0000 0.0000 0.0000 34.6299 0.0000
# 6 0.0000 0.0000 0.0000 0.0000 0.0000 21.6915
#
#
#
# Elastic Compliance Matrix: (Units=1/GPa)
#
#
# Indices 1 2 3 4 5 6 
#
# 1 0.008585 -0.003842 -0.004077 0.000000 0.000000 0.000000
# 2 -0.003842 0.019831 -0.006924 0.000000 0.000000 0.000000
# 3 -0.004077 -0.006924 0.017928 0.000000 0.000000 0.000000
# 4 0.000000 0.000000 0.000000 0.043097 0.000000 0.000000
# 5 0.000000 0.000000 0.000000 0.000000 0.028877 0.000000
# 6 0.000000 0.000000 0.000000 0.000000 0.000000 0.046101
#
#
# Mechanical properties :
#
#
# Convention : Reuss Voigt Hill
#
# Bulk Modulus (GPa) = 60.02842 70.43043 65.22943
# Shear Modulus (GPa) = 25.04324 27.59190 26.31757
#
# Velocity S-wave (km/s) = 3.66136 3.84315 3.75336
# Velocity P-wave (km/s) = 7.07156 7.57590 7.32807
#
# Compressibility (1/GPa) = 0.01665878
#
# Stress axis : x y z
#
# Youngs Moduli (GPa) = 116.48815 50.42686 55.77906
#
# Poissons Ratio (x) = 0.19372 0.22740
# Poissons Ratio (y) = 0.44749 0.38621
# Poissons Ratio (z) = 0.47490 0.34915
#
# Static dielectric constant tensor:
#      x y z
#    x 3.771590 0.000000 0.000000 
#    y 0.000000 3.439760 0.000000 
#    z 0.000000 0.000000 3.386220 
# 
# 
# High freq. dielectric constant tensor:
#      x y z
#    x 1.736290 0.000000 0.000000 
#    y 0.000000 1.713510 0.000000 
#    z 0.000000 0.000000 1.718300 
# 
# From -- ./inp_files/7400.got.cif
#   From: 2010.03.12/outbox.cif.g09.slc.cpg/sg65_4_cif.got.tgz:7400.got - 2010.04.10 20:52:16.
