data_PCOD8269497
_publ_section_title
;
Structure prediction by ZEFSAII (Michael W. Deem and Ramdas Pophale) SiO2 
 PCOD8269497
Probable space group: C M M M
;
_chemical_formula_sum "Si O2"
_cell_formula_units_Z 68
_cell_length_a 22.106933
_cell_length_b 17.013588
_cell_length_c 8.968609
_cell_angle_alpha 90.000000
_cell_angle_beta 90.000000
_cell_angle_gamma 90.000000
_cell_volume 3373.257522
_symmetry_space_group_name_H-M "C M M M"
_symmetry_group_IT_number 65
_symmetry_cell_setting 'orthorhombic'
loop_
_space_group_symop_operation_xyz
x,y,z
-x,-y,z
x,-y,-z
-x,y,-z
-x,-y,-z
x,y,-z
-x,y,z
x,-y,z
1/2+x,1/2+y,z
1/2-x,1/2-y,z
1/2+x,1/2-y,-z
1/2-x,1/2+y,-z
1/2-x,1/2-y,-z
1/2+x,1/2+y,-z
1/2-x,1/2+y,z
1/2+x,1/2-y,z
loop_
_atom_site_type_symbol
_atom_site_label
_atom_site_fract_x
_atom_site_fract_y
_atom_site_fract_z
Si Si1 0.500000 0.500000 0.202302
Si Si2 0.366598 0.500000 0.159627
Si Si3 0.197953 0.134379 0.323978
Si Si4 0.000000 0.170743 0.179263
Si Si5 0.622276 0.755346 0.171818
Si Si6 0.319980 0.912003 0.829774
O O1 0.437045 0.500000 0.114356
O O2 0.500000 0.588426 0.276628
O O3 0.351491 0.423870 0.255043
O O4 0.331495 0.500000 0.000000
O O5 0.194306 0.131484 0.500000
O O6 0.178472 0.220159 0.265907
O O7 0.264405 0.109249 0.275799
O O8 0.057754 0.222928 0.226408
O O9 0.000000 0.152382 0.000000
O O10 0.625480 0.849867 0.195930
O O11 0.632557 0.732403 0.000000
O O12 0.343491 0.000000 0.792092
O O13 0.297148 0.907064 0.000000
#
# Coordination Sequence:
#
# PCOD8269497 Si02
#       6
#     4   8  16   8  16  16
#     4  12  21  34  63  90 115 152 193 230 279 336
#     4  12  22  37  60  87 118 156 195 233 275 340
#     4  12  24  37  56  87 121 152 188 238 290 339
#     4  10  19  34  57  87 115 146 193 242 281 337
#     4  10  21  38  60  84 113 153 196 237 287 343
#     4  10  21  38  60  84 112 151 196 240 288 344
#
# _framework density 20.158556000000001
#
# number of rings (size 3 to 8) (size 9 to 14) (size 15 to 20)
#    0.000    1.176    3.529    4.235    0.000    3.765 
#    0.000    3.529    0.000    3.529    0.000    0.000 
#    0.000    3.765    0.000    0.000    0.000    0.000 
#
# Total GULP energy -421248.325955 kJ/mol
# GULP energy per Si atom -12389.656646 kJ/mol
# Density = 2.011267 g / cm^3
# Si number density = 20.158556 Si / 1000 Ang^3
#
#
#
# Elastic Constant Matrix: (Units=GPa)
#
#
# Indices 1 2 3 4 5 6 
#
# 1 94.3739 69.8541 26.4602 0.0000 0.0000 0.0000
# 2 69.8541 182.9646 46.0902 0.0000 0.0000 0.0000
# 3 26.4602 46.0902 98.5440 0.0000 0.0000 0.0000
# 4 0.0000 0.0000 0.0000 8.1798 0.0000 0.0000
# 5 0.0000 0.0000 0.0000 0.0000 0.9002 0.0000
# 6 0.0000 0.0000 0.0000 0.0000 0.0000 30.7074
#
#
#
# Elastic Compliance Matrix: (Units=1/GPa)
#
#
# Indices 1 2 3 4 5 6 
#
# 1 0.014970 -0.005331 -0.001526 0.000000 0.000000 0.000000
# 2 -0.005331 0.008094 -0.002354 0.000000 0.000000 0.000000
# 3 -0.001526 -0.002354 0.011659 0.000000 0.000000 0.000000
# 4 0.000000 0.000000 0.000000 0.122252 0.000000 0.000000
# 5 0.000000 0.000000 0.000000 0.000000 1.110851 0.000000
# 6 0.000000 0.000000 0.000000 0.000000 0.000000 0.032565
#
#
# Mechanical properties :
#
#
# Convention : Reuss Voigt Hill
#
# Bulk Modulus (GPa) = 61.35072 73.41018 67.38045
# Shear Modulus (GPa) = 3.77573 23.52268 13.64920
#
# Velocity S-wave (km/s) = 1.37007 3.41967 2.60492
# Velocity P-wave (km/s) = 5.74482 7.21718 6.52268
#
# Compressibility (1/GPa) = 0.01629973
#
# Stress axis : x y z
#
# Youngs Moduli (GPa) = 66.80061 123.55048 85.77317
#
# Poissons Ratio (x) = 0.65863 0.13091
# Poissons Ratio (y) = 0.35611 0.20193
# Poissons Ratio (z) = 0.10196 0.29086
#
# Static dielectric constant tensor:
#      x y z
#    x 3.536770 0.000000 0.000000 
#    y 0.000000 4.192740 0.000000 
#    z 0.000000 0.000000 3.328120 
# 
# 
# High freq. dielectric constant tensor:
#      x y z
#    x 1.772010 0.000000 0.000000 
#    y 0.000000 1.805730 0.000000 
#    z 0.000000 0.000000 1.752880 
# 
# From -- ./inp_files/8985.got.cif
#   From: 2010.03.12/outbox.cif.g09.slc.cpg/sg65_5_cif.got.tgz:8985.got - 2010.04.10 20:52:16.
