data_PCOD8269636
_publ_section_title
;
Structure prediction by ZEFSAII (Michael W. Deem and Ramdas Pophale) SiO2 
 PCOD8269636
Probable space group: C M M M
;
_chemical_formula_sum "Si O2"
_cell_formula_units_Z 64
_cell_length_a 16.216613
_cell_length_b 15.322636
_cell_length_c 12.067587
_cell_angle_alpha 90.000000
_cell_angle_beta 90.000000
_cell_angle_gamma 90.000000
_cell_volume 2998.569201
_symmetry_space_group_name_H-M "C M M M"
_symmetry_group_IT_number 65
_symmetry_cell_setting 'orthorhombic'
loop_
_space_group_symop_operation_xyz
x,y,z
-x,-y,z
x,-y,-z
-x,y,-z
-x,-y,-z
x,y,-z
-x,y,z
x,-y,z
1/2+x,1/2+y,z
1/2-x,1/2-y,z
1/2+x,1/2-y,-z
1/2-x,1/2+y,-z
1/2-x,1/2-y,-z
1/2+x,1/2+y,-z
1/2-x,1/2+y,z
1/2+x,1/2-y,z
loop_
_atom_site_type_symbol
_atom_site_label
_atom_site_fract_x
_atom_site_fract_y
_atom_site_fract_z
Si Si1 0.091986 0.138026 0.500000
Si Si2 0.903436 0.095130 0.735367
Si Si3 0.595886 0.100922 0.293434
Si Si4 0.332947 0.809972 0.500000
Si Si5 0.846971 0.743498 0.874060
O O1 0.138078 0.106391 0.387248
O O2 0.090714 0.242992 0.500000
O O3 0.000000 0.100423 0.500000
O O4 0.878042 0.167173 0.821983
O O5 0.000000 0.104139 0.716769
O O6 0.878638 0.000000 0.782809
O O7 0.500000 0.113703 0.326910
O O8 0.657462 0.129770 0.391818
O O9 0.616992 0.158667 0.186383
O O10 0.613845 0.000000 0.264793
O O11 0.250000 0.750000 0.500000
O O12 0.750000 0.750000 0.865716
O O13 0.878040 0.738023 0.000000
#
# Coordination Sequence:
#
# PCOD8269636 Si02
#       5
#     8  16  16   8  16
#     4  10  19  35  61  91 127 164 197 243 304 371
#     4  10  21  38  63  94 126 162 205 255 313 377
#     4  11  24  43  68  96 128 170 218 266 317 378
#     4  12  23  39  63  96 133 167 204 251 315 383
#     4  11  25  44  63  89 126 167 214 269 326 382
#
# _framework density 21.343513000000002
#
# number of rings (size 3 to 8) (size 9 to 14) (size 15 to 20)
#    0.000    1.250    2.500    3.375    0.000    6.500 
#    0.000    6.250    0.000    0.000    0.000    0.000 
#    0.000    0.000    0.000    0.000    0.000    0.000 
#
# Total GULP energy -396652.213551 kJ/mol
# GULP energy per Si atom -12395.381673 kJ/mol
# Density = 2.129493 g / cm^3
# Si number density = 21.343513 Si / 1000 Ang^3
#
#
#
# Elastic Constant Matrix: (Units=GPa)
#
#
# Indices 1 2 3 4 5 6 
#
# 1 62.8932 45.2912 41.0486 0.0000 0.0000 0.0000
# 2 45.2912 205.2809 105.9651 0.0000 0.0000 0.0000
# 3 41.0486 105.9651 170.0225 0.0000 0.0000 0.0000
# 4 0.0000 0.0000 0.0000 9.8437 0.0000 0.0000
# 5 0.0000 0.0000 0.0000 0.0000 28.2674 0.0000
# 6 0.0000 0.0000 0.0000 0.0000 0.0000 22.8575
#
#
#
# Elastic Compliance Matrix: (Units=1/GPa)
#
#
# Indices 1 2 3 4 5 6 
#
# 1 0.019923 -0.002820 -0.003053 0.000000 0.000000 0.000000
# 2 -0.002820 0.007581 -0.004044 0.000000 0.000000 0.000000
# 3 -0.003053 -0.004044 0.009139 0.000000 0.000000 0.000000
# 4 0.000000 0.000000 0.000000 0.101588 0.000000 0.000000
# 5 0.000000 0.000000 0.000000 0.000000 0.035376 0.000000
# 6 0.000000 0.000000 0.000000 0.000000 0.000000 0.043749
#
#
# Mechanical properties :
#
#
# Convention : Reuss Voigt Hill
#
# Bulk Modulus (GPa) = 59.48816 91.42293 75.45554
# Shear Modulus (GPa) = 20.59366 28.58650 24.59008
#
# Velocity S-wave (km/s) = 3.10960 3.66369 3.39796
# Velocity P-wave (km/s) = 6.38945 7.79896 7.12913
#
# Compressibility (1/GPa) = 0.01681007
#
# Stress axis : x y z
#
# Youngs Moduli (GPa) = 50.19331 131.90829 109.42198
#
# Poissons Ratio (x) = 0.37197 0.33401
# Poissons Ratio (y) = 0.14154 0.44250
# Poissons Ratio (z) = 0.15322 0.53344
#
# Static dielectric constant tensor:
#      x y z
#    x 3.757130 0.000000 0.000000 
#    y 0.000000 4.020020 0.000000 
#    z 0.000000 0.000000 3.991980 
# 
# 
# High freq. dielectric constant tensor:
#      x y z
#    x 1.828820 0.000000 0.000000 
#    y 0.000000 1.852750 0.000000 
#    z 0.000000 0.000000 1.834920 
# 
# From -- ./inp_files/26117.got.cif
#   From: 2010.03.12/outbox.cif.g09.slc.cpg/sg65_14_cif.got.tgz:26117.got - 2010.04.10 20:52:16.
