data_PCOD8269238
_publ_section_title
;
Structure prediction by ZEFSAII (Michael W. Deem and Ramdas Pophale) SiO2 
 PCOD8269238
Probable space group: C M M M
;
_chemical_formula_sum "Si O2"
_cell_formula_units_Z 96
_cell_length_a 15.624879
_cell_length_b 18.193275
_cell_length_c 17.764581
_cell_angle_alpha 90.000000
_cell_angle_beta 90.000000
_cell_angle_gamma 90.000000
_cell_volume 5049.896946
_symmetry_space_group_name_H-M "C M M M"
_symmetry_group_IT_number 65
_symmetry_cell_setting 'orthorhombic'
loop_
_space_group_symop_operation_xyz
x,y,z
-x,-y,z
x,-y,-z
-x,y,-z
-x,-y,-z
x,y,-z
-x,y,z
x,-y,z
1/2+x,1/2+y,z
1/2-x,1/2-y,z
1/2+x,1/2-y,-z
1/2-x,1/2+y,-z
1/2-x,1/2-y,-z
1/2+x,1/2+y,-z
1/2-x,1/2+y,z
1/2+x,1/2-y,z
loop_
_atom_site_type_symbol
_atom_site_label
_atom_site_fract_x
_atom_site_fract_y
_atom_site_fract_z
Si Si1 0.500000 0.916575 0.263257
Si Si2 0.097111 0.208119 0.765384
Si Si3 0.785312 0.917265 0.722472
Si Si4 0.500000 0.844751 0.415635
Si Si5 0.821512 0.301690 0.356137
Si Si6 0.348089 0.230357 0.083347
Si Si7 0.147392 0.582826 0.840859
O O1 0.500000 0.907734 0.352864
O O2 0.584295 0.884118 0.224187
O O3 0.500000 0.000000 0.243148
O O4 0.127504 0.127512 0.737754
O O5 0.158519 0.267019 0.725619
O O6 0.101045 0.221398 0.855262
O O7 0.000000 0.218721 0.737551
O O8 0.722679 0.881054 0.658959
O O9 0.740349 0.919905 0.803794
O O10 0.806736 0.000000 0.694727
O O11 0.500000 0.877259 0.500000
O O12 0.409873 0.801152 0.404565
O O13 0.750000 0.250000 0.397038
O O14 0.250000 0.250000 0.091863
O O15 0.358026 0.141842 0.092356
O O16 0.382813 0.250305 0.000000
O O17 0.122832 0.500000 0.869403
#
# Coordination Sequence:
#
# PCOD8269238 Si02
#       7
#     8  16  16   8  16  16  16
#     4  10  20  35  53  76 106 138 169 215 267 321
#     4  11  20  35  57  78 107 143 187 233 277 333
#     4  10  19  33  57  81 103 139 188 234 276 319
#     4  12  22  33  54  87 120 150 183 215 273 343
#     4  10  20  37  58  81 113 148 188 231 276 322
#     4  11  21  34  50  75 107 137 179 229 283 342
#     4  10  19  34  55  73  99 139 181 220 269 327
#
# _framework density 19.010289
#
# number of rings (size 3 to 8) (size 9 to 14) (size 15 to 20)
#    0.000    1.500    5.833    0.500    1.167    1.500 
#    0.000    0.000    0.000    2.000    0.000    1.167 
#    0.000    3.333    0.000    0.000    0.000    0.000 
#
# Total GULP energy -594726.516550 kJ/mol
# GULP energy per Si atom -12390.135761 kJ/mol
# Density = 1.896702 g / cm^3
# Si number density = 19.010289 Si / 1000 Ang^3
#
#
#
# Elastic Constant Matrix: (Units=GPa)
#
#
# Indices 1 2 3 4 5 6 
#
# 1 89.5092 26.1275 17.9190 0.0000 0.0000 0.0000
# 2 26.1275 112.9986 20.6014 0.0000 0.0000 0.0000
# 3 17.9190 20.6014 76.5972 0.0000 0.0000 0.0000
# 4 0.0000 0.0000 0.0000 12.3980 0.0000 0.0000
# 5 0.0000 0.0000 0.0000 0.0000 13.6517 0.0000
# 6 0.0000 0.0000 0.0000 0.0000 0.0000 26.7541
#
#
#
# Elastic Compliance Matrix: (Units=1/GPa)
#
#
# Indices 1 2 3 4 5 6 
#
# 1 0.012332 -0.002445 -0.002227 0.000000 0.000000 0.000000
# 2 -0.002445 0.009791 -0.002061 0.000000 0.000000 0.000000
# 3 -0.002227 -0.002061 0.014131 0.000000 0.000000 0.000000
# 4 0.000000 0.000000 0.000000 0.080658 0.000000 0.000000
# 5 0.000000 0.000000 0.000000 0.000000 0.073251 0.000000
# 6 0.000000 0.000000 0.000000 0.000000 0.000000 0.037377
#
#
# Mechanical properties :
#
#
# Convention : Reuss Voigt Hill
#
# Bulk Modulus (GPa) = 43.88700 45.37788 44.63244
# Shear Modulus (GPa) = 20.11239 24.85789 22.48514
#
# Velocity S-wave (km/s) = 3.25618 3.62000 3.44290
# Velocity P-wave (km/s) = 6.10516 6.43386 6.27166
#
# Compressibility (1/GPa) = 0.02278579
#
# Stress axis : x y z
#
# Youngs Moduli (GPa) = 81.09205 102.13598 70.76782
#
# Poissons Ratio (x) = 0.24975 0.15761
# Poissons Ratio (y) = 0.19829 0.14587
# Poissons Ratio (z) = 0.18061 0.21053
#
# Static dielectric constant tensor:
#      x y z
#    x 3.384730 0.000000 0.000000 
#    y 0.000000 3.566190 0.000000 
#    z 0.000000 0.000000 3.091900 
# 
# 
# High freq. dielectric constant tensor:
#      x y z
#    x 1.744190 0.000000 0.000000 
#    y 0.000000 1.734070 0.000000 
#    z 0.000000 0.000000 1.696480 
# 
# From -- ./inp_files/54535.got.cif
#   From: 2010.03.12/outbox.cif.g09.slc.cpg/sg65_28_cif.got.tgz:54535.got - 2010.04.10 20:52:16.
