data_PCOD8269721
_publ_section_title
;
Structure prediction by ZEFSAII (Michael W. Deem and Ramdas Pophale) SiO2 
 PCOD8269721
Probable space group: C M M M
;
_chemical_formula_sum "Si O2"
_cell_formula_units_Z 104
_cell_length_a 9.562117
_cell_length_b 29.042529
_cell_length_c 22.501570
_cell_angle_alpha 90.000000
_cell_angle_beta 90.000000
_cell_angle_gamma 90.000000
_cell_volume 6248.867358
_symmetry_space_group_name_H-M "C M M M"
_symmetry_group_IT_number 65
_symmetry_cell_setting 'orthorhombic'
loop_
_space_group_symop_operation_xyz
x,y,z
-x,-y,z
x,-y,-z
-x,y,-z
-x,-y,-z
x,y,-z
-x,y,z
x,-y,z
1/2+x,1/2+y,z
1/2-x,1/2-y,z
1/2+x,1/2-y,-z
1/2-x,1/2+y,-z
1/2-x,1/2-y,-z
1/2+x,1/2+y,-z
1/2-x,1/2+y,z
1/2+x,1/2-y,z
loop_
_atom_site_type_symbol
_atom_site_label
_atom_site_fract_x
_atom_site_fract_y
_atom_site_fract_z
Si Si1 0.841133 0.054716 0.826440
Si Si2 0.838284 0.054470 0.500000
Si Si3 0.663071 0.893052 0.266676
Si Si4 0.336769 0.893045 0.405077
Si Si5 0.153967 0.289902 0.405297
Si Si6 0.343178 0.945268 0.065931
Si Si7 0.345760 0.209922 0.264245
O O1 0.759240 0.071699 0.768674
O O2 0.765209 0.074386 0.885596
O O3 0.000000 0.073092 0.825809
O O4 0.837774 0.000000 0.825600
O O5 0.761116 0.072725 0.441365
O O6 0.000000 0.070367 0.500000
O O7 0.826454 0.000000 0.500000
O O8 0.500000 0.901279 0.251917
O O9 0.691038 0.902043 0.335889
O O10 0.708323 0.841183 0.248135
O O11 0.500000 0.901397 0.420247
O O12 0.293163 0.840860 0.422760
O O13 0.250000 0.250000 0.433417
O O14 0.149081 0.285642 0.334753
O O15 0.000000 0.282249 0.431740
O O16 0.500000 0.927846 0.081155
O O17 0.341077 0.000000 0.067149
O O18 0.299170 0.927971 0.000000
O O19 0.500000 0.217246 0.237654
O O20 0.250000 0.250000 0.236084
#
# Coordination Sequence:
#
# PCOD8269721 Si02
#       7
#    16   8  16  16  16  16  16
#     4  10  20  30  41  63  95 127 157 191 231 271
#     4  11  25  41  54  69  88 111 146 195 242 279
#     4   9  18  32  49  69  93 121 153 188 225 268
#     4   9  19  36  55  72  90 116 152 189 224 270
#     4   8  14  26  46  72  97 117 139 170 212 265
#     4   8  14  26  44  63  84 116 157 194 227 267
#     4   8  14  25  42  65  91 117 145 178 218 264
#
# _framework density 16.643014999999998
#
# number of rings (size 3 to 8) (size 9 to 14) (size 15 to 20)
#    0.000    3.154    0.000    3.000    0.000    4.308 
#    0.000    8.077    0.000    0.000    0.000    0.000 
#    0.000    0.615    0.000    2.000    0.000    2.462 
#
# Total GULP energy -644488.676913 kJ/mol
# GULP energy per Si atom -12394.013018 kJ/mol
# Density = 1.660514 g / cm^3
# Si number density = 16.643015 Si / 1000 Ang^3
#
#
#
# Elastic Constant Matrix: (Units=GPa)
#
#
# Indices 1 2 3 4 5 6 
#
# 1 110.3462 46.7348 58.6870 0.0000 0.0000 0.0000
# 2 46.7348 55.4298 29.5357 0.0000 0.0000 0.0000
# 3 58.6870 29.5357 79.2626 0.0000 0.0000 0.0000
# 4 0.0000 0.0000 0.0000 -0.8718 0.0000 0.0000
# 5 0.0000 0.0000 0.0000 0.0000 26.0432 0.0000
# 6 0.0000 0.0000 0.0000 0.0000 0.0000 30.6337
#
#
#
# Elastic Compliance Matrix: (Units=1/GPa)
#
#
# Indices 1 2 3 4 5 6 
#
# 1 0.018877 -0.010566 -0.010039 0.000000 0.000000 0.000000
# 2 -0.010566 0.028425 -0.002769 0.000000 0.000000 0.000000
# 3 -0.010039 -0.002769 0.021081 0.000000 0.000000 0.000000
# 4 0.000000 0.000000 0.000000 -1.147097 0.000000 0.000000
# 5 0.000000 0.000000 0.000000 0.000000 0.038398 0.000000
# 6 0.000000 0.000000 0.000000 0.000000 0.000000 0.032644
#
#
# Mechanical properties :
#
#
# Convention : Reuss Voigt Hill
#
# Bulk Modulus (GPa) = 46.22237 57.21707 51.71972
# Shear Modulus (GPa) = -5.24267 18.49976 6.62855
#
# Velocity S-wave (km/s) = -1.77677 3.33763 1.99786
# Velocity P-wave (km/s) = 4.86044 7.02187 6.03865
#
# Compressibility (1/GPa) = 0.02163455
#
# Stress axis : x y z
#
# Youngs Moduli (GPa) = 52.97476 35.18040 47.43557
#
# Poissons Ratio (x) = 0.37173 0.47622
# Poissons Ratio (y) = 0.55975 0.13133
# Poissons Ratio (z) = 0.53183 0.09740
#
# Static dielectric constant tensor:
#      x y z
#    x 3.395730 0.000000 0.000000 
#    y 0.000000 3.031810 0.000000 
#    z 0.000000 0.000000 2.964430 
# 
# 
# High freq. dielectric constant tensor:
#      x y z
#    x 1.643650 0.000000 0.000000 
#    y 0.000000 1.618740 0.000000 
#    z 0.000000 0.000000 1.617370 
# 
# From -- ./inp_files/68546.got.cif
#   From: 2010.03.12/outbox.cif.g09.slc.cpg/sg65_35_cif.got.tgz:68546.got - 2010.04.10 20:52:16.
