data_PCOD8269667
_publ_section_title
;
Structure prediction by ZEFSAII (Michael W. Deem and Ramdas Pophale) SiO2 
 PCOD8269667
Probable space group: C M M M
;
_chemical_formula_sum "Si O2"
_cell_formula_units_Z 76
_cell_length_a 11.638282
_cell_length_b 22.822418
_cell_length_c 15.600120
_cell_angle_alpha 90.000000
_cell_angle_beta 90.000000
_cell_angle_gamma 90.000000
_cell_volume 4143.606165
_symmetry_space_group_name_H-M "C M M M"
_symmetry_group_IT_number 65
_symmetry_cell_setting 'orthorhombic'
loop_
_space_group_symop_operation_xyz
x,y,z
-x,-y,z
x,-y,-z
-x,y,-z
-x,-y,-z
x,y,-z
-x,y,z
x,-y,z
1/2+x,1/2+y,z
1/2-x,1/2-y,z
1/2+x,1/2-y,-z
1/2-x,1/2+y,-z
1/2-x,1/2-y,-z
1/2+x,1/2+y,-z
1/2-x,1/2+y,z
1/2+x,1/2-y,z
loop_
_atom_site_type_symbol
_atom_site_label
_atom_site_fract_x
_atom_site_fract_y
_atom_site_fract_z
Si Si1 0.743584 0.680835 0.000000
Si Si2 0.000000 0.126089 0.000000
Si Si3 0.365596 0.845982 0.826177
Si Si4 0.250000 0.750000 0.288070
Si Si5 0.275500 0.430497 0.276446
Si Si6 0.000000 0.068396 0.178848
Si Si7 0.134451 0.154946 0.597945
O O1 0.750000 0.750000 0.000000
O O2 0.609127 0.667740 0.000000
O O3 0.802547 0.652578 0.917245
O O4 0.000000 0.083211 0.920021
O O5 0.500000 0.844598 0.843406
O O6 0.329940 0.789331 0.772031
O O7 0.334979 0.904900 0.772989
O O8 0.165880 0.788023 0.347119
O O9 0.263605 0.500000 0.285079
O O10 0.385809 0.406931 0.223373
O O11 0.291705 0.401387 0.370023
O O12 0.000000 0.000000 0.192249
O O13 0.169258 0.166522 0.500000
O O14 0.000000 0.141213 0.606874
#
# Coordination Sequence:
#
# PCOD8269667 Si02
#       7
#     8   4  16   8  16   8  16
#     4  12  25  37  54  86 117 153 188 236 283 336
#     4  12  23  38  60  82 118 152 187 232 286 334
#     4  11  23  39  58  82 115 156 196 236 282 337
#     4  10  21  37  58  80 112 156 194 233 283 342
#     4  10  21  38  59  83 114 151 191 236 285 340
#     4  10  19  36  59  82 109 145 192 232 276 332
#     4  10  20  34  56  87 117 145 184 238 295 346
#
# _framework density 18.341512000000002
#
# number of rings (size 3 to 8) (size 9 to 14) (size 15 to 20)
#    0.000    1.474    4.211    1.421    1.474    0.842 
#    0.000    1.579    0.000    6.947    0.000    5.895 
#    0.000    0.000    0.000    0.000    0.000    0.000 
#
# Total GULP energy -471279.075707 kJ/mol
# GULP energy per Si atom -12402.080940 kJ/mol
# Density = 1.829977 g / cm^3
# Si number density = 18.341512 Si / 1000 Ang^3
#
#
#
# Elastic Constant Matrix: (Units=GPa)
#
#
# Indices 1 2 3 4 5 6 
#
# 1 111.5190 27.0976 41.1313 0.0000 0.0000 0.0000
# 2 27.0976 98.6423 40.3046 0.0000 0.0000 0.0000
# 3 41.1313 40.3046 128.2372 0.0000 0.0000 0.0000
# 4 0.0000 0.0000 0.0000 19.1279 0.0000 0.0000
# 5 0.0000 0.0000 0.0000 0.0000 -83.0168 0.0000
# 6 0.0000 0.0000 0.0000 0.0000 0.0000 23.3317
#
#
#
# Elastic Compliance Matrix: (Units=1/GPa)
#
#
# Indices 1 2 3 4 5 6 
#
# 1 0.010418 -0.001717 -0.002802 0.000000 0.000000 0.000000
# 2 -0.001717 0.011914 -0.003194 0.000000 0.000000 0.000000
# 3 -0.002802 -0.003194 0.009701 0.000000 0.000000 0.000000
# 4 0.000000 0.000000 0.000000 0.052280 0.000000 0.000000
# 5 0.000000 0.000000 0.000000 0.000000 -0.012046 0.000000
# 6 0.000000 0.000000 0.000000 0.000000 0.000000 0.042860
#
#
# Mechanical properties :
#
#
# Convention : Reuss Voigt Hill
#
# Bulk Modulus (GPa) = 60.21500 61.71838 60.96669
# Shear Modulus (GPa) = 36.74105 7.21290 21.97697
#
# Velocity S-wave (km/s) = 4.48053 1.98522 3.46527
# Velocity P-wave (km/s) = 7.72451 6.24319 7.02301
#
# Compressibility (1/GPa) = 0.01660716
#
# Stress axis : x y z
#
# Youngs Moduli (GPa) = 95.99092 83.93257 103.08715
#
# Poissons Ratio (x) = 0.14411 0.28882
# Poissons Ratio (y) = 0.16482 0.32925
# Poissons Ratio (z) = 0.26894 0.26807
#
# Static dielectric constant tensor:
#      x y z
#    x 3.386130 0.000000 0.000000 
#    y 0.000000 3.270390 0.000000 
#    z 0.000000 0.000000 3.566870 
# 
# 
# High freq. dielectric constant tensor:
#      x y z
#    x 1.706430 0.000000 0.000000 
#    y 0.000000 1.710080 0.000000 
#    z 0.000000 0.000000 1.723380 
# 
# From -- ./inp_files/38360.got.cif
#   From: 2010.03.12/outbox.cif.g09.slc.cpg/sg65_20_cif.got.tgz:38360.got - 2010.04.10 20:52:16.
