data_PCOD8269771
_publ_section_title
;
Structure prediction by ZEFSAII (Michael W. Deem and Ramdas Pophale) SiO2 
 PCOD8269771
Probable space group: C M M M
;
_chemical_formula_sum "Si O2"
_cell_formula_units_Z 88
_cell_length_a 30.182534
_cell_length_b 9.212027
_cell_length_c 22.742717
_cell_angle_alpha 90.000000
_cell_angle_beta 90.000000
_cell_angle_gamma 90.000000
_cell_volume 6323.437755
_symmetry_space_group_name_H-M "C M M M"
_symmetry_group_IT_number 65
_symmetry_cell_setting 'orthorhombic'
loop_
_space_group_symop_operation_xyz
x,y,z
-x,-y,z
x,-y,-z
-x,y,-z
-x,-y,-z
x,y,-z
-x,y,z
x,-y,z
1/2+x,1/2+y,z
1/2-x,1/2-y,z
1/2+x,1/2-y,-z
1/2-x,1/2+y,-z
1/2-x,1/2-y,-z
1/2+x,1/2+y,-z
1/2-x,1/2+y,z
1/2+x,1/2-y,z
loop_
_atom_site_type_symbol
_atom_site_label
_atom_site_fract_x
_atom_site_fract_y
_atom_site_fract_z
Si Si1 0.947192 0.663740 0.000000
Si Si2 0.052644 0.660922 0.777148
Si Si3 0.947128 0.837086 0.887215
Si Si4 0.292547 0.835662 0.430003
Si Si5 0.379451 0.668335 0.568970
Si Si6 0.051617 0.331154 0.645646
O O1 0.929016 0.744984 0.057776
O O2 0.928837 0.500000 0.000000
O O3 0.000000 0.664007 0.000000
O O4 0.071309 0.500000 0.790323
O O5 0.071548 0.769590 0.826493
O O6 0.066832 0.711032 0.711861
O O7 0.000000 0.655614 0.780110
O O8 0.000000 0.836213 0.887087
O O9 0.928792 0.000000 0.892718
O O10 0.290992 0.836463 0.500000
O O11 0.250000 0.750000 0.404930
O O12 0.336456 0.754092 0.407755
O O13 0.292360 0.000000 0.405499
O O14 0.386259 0.692398 0.500000
O O15 0.373172 0.500000 0.584409
O O16 0.422597 0.730338 0.600495
O O17 0.061782 0.500000 0.633277
O O18 0.000000 0.298405 0.636649
#
# Coordination Sequence:
#
# PCOD8269771 Si02
#       6
#     8  16  16  16  16  16
#     4   9  15  21  29  41  59  83 107 133 170 213
#     4   8  14  25  38  49  62  83 113 147 182 220
#     4   9  15  21  30  45  63  81 104 137 176 215
#     4   9  16  27  44  63  81  99 118 142 176 220
#     4  10  20  31  42  58  79 100 123 153 190 231
#     4   9  18  31  44  56  71  95 128 163 196 230
#
# _framework density 13.916480999999999
#
# number of rings (size 3 to 8) (size 9 to 14) (size 15 to 20)
#    0.000    3.000    0.000    3.000    0.000    8.000 
#    0.000    3.636    0.000    0.000    0.000    0.000 
#    0.000    0.000    0.000    0.000    0.000    0.000 
#
# Total GULP energy -545452.669456 kJ/mol
# GULP energy per Si atom -12396.651579 kJ/mol
# Density = 1.388481 g / cm^3
# Si number density = 13.916481 Si / 1000 Ang^3
#
#
#
# Elastic Constant Matrix: (Units=GPa)
#
#
# Indices 1 2 3 4 5 6 
#
# 1 44.7650 40.0747 29.4892 0.0000 0.0000 0.0000
# 2 40.0747 125.8647 54.2003 0.0000 0.0000 0.0000
# 3 29.4892 54.2003 63.4416 0.0000 0.0000 0.0000
# 4 0.0000 0.0000 0.0000 22.7765 0.0000 0.0000
# 5 0.0000 0.0000 0.0000 0.0000 0.2096 0.0000
# 6 0.0000 0.0000 0.0000 0.0000 0.0000 18.9878
#
#
#
# Elastic Compliance Matrix: (Units=1/GPa)
#
#
# Indices 1 2 3 4 5 6 
#
# 1 0.035368 -0.006615 -0.010788 0.000000 0.000000 0.000000
# 2 -0.006615 0.013807 -0.008720 0.000000 0.000000 0.000000
# 3 -0.010788 -0.008720 0.028227 0.000000 0.000000 0.000000
# 4 0.000000 0.000000 0.000000 0.043905 0.000000 0.000000
# 5 0.000000 0.000000 0.000000 0.000000 4.770979 0.000000
# 6 0.000000 0.000000 0.000000 0.000000 0.000000 0.052666
#
#
# Mechanical properties :
#
#
# Convention : Reuss Voigt Hill
#
# Bulk Modulus (GPa) = 39.75535 53.51107 46.63321
# Shear Modulus (GPa) = 0.99888 15.74859 8.37374
#
# Velocity S-wave (km/s) = 0.84813 3.36765 2.45565
# Velocity P-wave (km/s) = 5.43951 7.32506 6.45154
#
# Compressibility (1/GPa) = 0.02515385
#
# Stress axis : x y z
#
# Youngs Moduli (GPa) = 28.27430 72.42950 35.42675
#
# Poissons Ratio (x) = 0.47914 0.38219
# Poissons Ratio (y) = 0.18704 0.30894
# Poissons Ratio (z) = 0.30503 0.63162
#
# Static dielectric constant tensor:
#      x y z
#    x 2.328890 0.000000 0.000000 
#    y 0.000000 2.958550 0.000000 
#    z 0.000000 0.000000 2.733500 
# 
# 
# High freq. dielectric constant tensor:
#      x y z
#    x 1.468100 0.000000 0.000000 
#    y 0.000000 1.547900 0.000000 
#    z 0.000000 0.000000 1.516210 
# 
# From -- ./inp_files/72042.got.cif
#   From: 2010.03.12/outbox.cif.g09.slc.cpg/sg65_37_cif.got.tgz:72042.got - 2010.04.10 20:52:16.
