data_PCOD8269098
_publ_section_title
;
Structure prediction by ZEFSAII (Michael W. Deem and Ramdas Pophale) SiO2 
 PCOD8269098
Probable space group: C M M M
;
_chemical_formula_sum "Si O2"
_cell_formula_units_Z 104
_cell_length_a 18.570613
_cell_length_b 10.230816
_cell_length_c 29.471202
_cell_angle_alpha 90.000000
_cell_angle_beta 90.000000
_cell_angle_gamma 90.000000
_cell_volume 5599.308071
_symmetry_space_group_name_H-M "C M M M"
_symmetry_group_IT_number 65
_symmetry_cell_setting 'orthorhombic'
loop_
_space_group_symop_operation_xyz
x,y,z
-x,-y,z
x,-y,-z
-x,y,-z
-x,-y,-z
x,y,-z
-x,y,z
x,-y,z
1/2+x,1/2+y,z
1/2-x,1/2-y,z
1/2+x,1/2-y,-z
1/2-x,1/2+y,-z
1/2-x,1/2-y,-z
1/2+x,1/2+y,-z
1/2-x,1/2+y,z
1/2+x,1/2-y,z
loop_
_atom_site_type_symbol
_atom_site_label
_atom_site_fract_x
_atom_site_fract_y
_atom_site_fract_z
Si Si1 0.196490 0.858398 0.051285
Si Si2 0.414552 0.000000 0.050914
Si Si3 0.583449 0.249745 0.106781
Si Si4 0.080014 0.347029 0.629840
Si Si5 0.186907 0.650372 0.552201
Si Si6 0.918837 0.349494 0.795992
Si Si7 0.818463 0.345031 0.711426
O O1 0.250000 0.750000 0.070701
O O2 0.127991 0.868272 0.084994
O O3 0.234828 0.000000 0.052398
O O4 0.171539 0.823800 0.000000
O O5 0.388127 0.874585 0.078499
O O6 0.500000 0.000000 0.048691
O O7 0.381546 0.000000 0.000000
O O8 0.500000 0.276774 0.099085
O O9 0.600604 0.235900 0.160070
O O10 0.070300 0.500000 0.635974
O O11 0.117003 0.313569 0.581756
O O12 0.131054 0.297142 0.670211
O O13 0.000000 0.281913 0.631545
O O14 0.164854 0.669900 0.500000
O O15 0.211790 0.500000 0.561420
O O16 0.250000 0.750000 0.566136
O O17 0.914660 0.500000 0.810846
O O18 0.862150 0.316664 0.757123
O O19 0.000000 0.317930 0.778726
O O20 0.797542 0.500000 0.707338
O O21 0.750000 0.250000 0.711118
#
# Coordination Sequence:
#
# PCOD8269098 Si02
#       7
#    16   8  16  16  16  16  16
#     4  10  23  40  56  76 104 138 171 206 250 299
#     4   9  16  26  46  78 106 128 157 195 238 286
#     4  10  19  33  54  80 106 132 165 206 250 297
#     4   9  17  30  50  76 102 131 174 221 263 308
#     4   9  17  29  47  72 103 139 176 217 263 310
#     4   9  17  32  53  77 104 133 168 208 250 298
#     4  10  20  34  54  77 101 133 170 214 259 308
#
# _framework density 18.573723000000001
#
# number of rings (size 3 to 8) (size 9 to 14) (size 15 to 20)
#    0.000    2.538    0.769    1.385    1.077    4.000 
#    0.000    4.615    0.000    4.154    0.000    2.154 
#    0.000    0.000    0.000    0.000    0.000    0.000 
#
# Total GULP energy -644564.006861 kJ/mol
# GULP energy per Si atom -12395.461670 kJ/mol
# Density = 1.853145 g / cm^3
# Si number density = 18.573723 Si / 1000 Ang^3
#
#
#
# Elastic Constant Matrix: (Units=GPa)
#
#
# Indices 1 2 3 4 5 6 
#
# 1 129.8373 53.2062 72.1382 0.0000 0.0000 0.0000
# 2 53.2062 69.6850 35.3339 0.0000 0.0000 0.0000
# 3 72.1382 35.3339 103.3867 0.0000 0.0000 0.0000
# 4 0.0000 0.0000 0.0000 18.5816 0.0000 0.0000
# 5 0.0000 0.0000 0.0000 0.0000 28.9543 0.0000
# 6 0.0000 0.0000 0.0000 0.0000 0.0000 29.1034
#
#
#
# Elastic Compliance Matrix: (Units=1/GPa)
#
#
# Indices 1 2 3 4 5 6 
#
# 1 0.015302 -0.007584 -0.008085 0.000000 0.000000 0.000000
# 2 -0.007584 0.021117 -0.001925 0.000000 0.000000 0.000000
# 3 -0.008085 -0.001925 0.015972 0.000000 0.000000 0.000000
# 4 0.000000 0.000000 0.000000 0.053817 0.000000 0.000000
# 5 0.000000 0.000000 0.000000 0.000000 0.034537 0.000000
# 6 0.000000 0.000000 0.000000 0.000000 0.000000 0.034360
#
#
# Mechanical properties :
#
#
# Convention : Reuss Voigt Hill
#
# Bulk Modulus (GPa) = 58.13228 69.36286 63.74757
# Shear Modulus (GPa) = 23.14527 24.80992 23.97759
#
# Velocity S-wave (km/s) = 3.53389 3.65876 3.59687
# Velocity P-wave (km/s) = 6.92945 7.43468 7.18650
#
# Compressibility (1/GPa) = 0.01720215
#
# Stress axis : x y z
#
# Youngs Moduli (GPa) = 65.35208 47.35525 62.61057
#
# Poissons Ratio (x) = 0.35913 0.50620
# Poissons Ratio (y) = 0.49562 0.12055
# Poissons Ratio (z) = 0.52837 0.09118
#
# Static dielectric constant tensor:
#      x y z
#    x 3.420590 0.000000 0.000000 
#    y 0.000000 3.238530 0.000000 
#    z 0.000000 0.000000 3.471670 
# 
# 
# High freq. dielectric constant tensor:
#      x y z
#    x 1.718950 0.000000 0.000000 
#    y 0.000000 1.690690 0.000000 
#    z 0.000000 0.000000 1.727080 
# 
# From -- ./inp_files/75204.got.cif
#   From: 2010.03.12/outbox.cif.g09.slc.cpg/sg65_38_cif.got.tgz:75204.got - 2010.04.10 20:52:16.
