data_PCOD8269219
_publ_section_title
;
Structure prediction by ZEFSAII (Michael W. Deem and Ramdas Pophale) SiO2 
 PCOD8269219
Probable space group: C M M M
;
_chemical_formula_sum "Si O2"
_cell_formula_units_Z 104
_cell_length_a 8.995389
_cell_length_b 28.148440
_cell_length_c 22.966370
_cell_angle_alpha 90.000000
_cell_angle_beta 90.000000
_cell_angle_gamma 90.000000
_cell_volume 5815.226530
_symmetry_space_group_name_H-M "C M M M"
_symmetry_group_IT_number 65
_symmetry_cell_setting 'orthorhombic'
loop_
_space_group_symop_operation_xyz
x,y,z
-x,-y,z
x,-y,-z
-x,y,-z
-x,-y,-z
x,y,-z
-x,y,z
x,-y,z
1/2+x,1/2+y,z
1/2-x,1/2-y,z
1/2+x,1/2-y,-z
1/2-x,1/2+y,-z
1/2-x,1/2-y,-z
1/2+x,1/2+y,-z
1/2-x,1/2+y,z
1/2+x,1/2-y,z
loop_
_atom_site_type_symbol
_atom_site_label
_atom_site_fract_x
_atom_site_fract_y
_atom_site_fract_z
Si Si1 0.324351 0.054026 0.000000
Si Si2 0.326640 0.104306 0.331188
Si Si3 0.675398 0.202457 0.275436
Si Si4 0.173870 0.946116 0.566531
Si Si5 0.670222 0.555354 0.773951
Si Si6 0.173089 0.796680 0.847460
Si Si7 0.828455 0.102816 0.107370
O O1 0.268925 0.081064 0.056706
O O2 0.500000 0.054897 0.000000
O O3 0.264239 0.000000 0.000000
O O4 0.500000 0.095397 0.333869
O O5 0.288258 0.159204 0.318619
O O6 0.258690 0.091149 0.393311
O O7 0.264720 0.070238 0.281371
O O8 0.500000 0.209915 0.267479
O O9 0.750000 0.250000 0.301922
O O10 0.747775 0.190797 0.213216
O O11 0.213305 0.933830 0.500000
O O12 0.000000 0.940822 0.578074
O O13 0.223676 0.000000 0.581126
O O14 0.500000 0.569279 0.761455
O O15 0.690111 0.500000 0.785285
O O16 0.728424 0.582097 0.831325
O O17 0.250000 0.750000 0.875417
O O18 0.193221 0.840267 0.891997
O O19 0.000000 0.786698 0.835216
O O20 0.000000 0.088957 0.096858
#
# Coordination Sequence:
#
# PCOD8269219 Si02
#       7
#     8  16  16  16  16  16  16
#     4  11  25  41  58  81 108 141 180 225 276 323
#     4  11  22  33  50  80 113 141 173 219 274 321
#     4  10  20  33  51  77 109 143 177 216 265 320
#     4   9  19  36  56  77 104 143 188 226 261 311
#     4  10  20  34  53  77 106 141 179 219 263 313
#     4  10  19  33  56  83 109 139 175 217 268 320
#     4  10  21  38  59  80 105 142 184 222 262 318
#
# _framework density 17.884084000000001
#
# number of rings (size 3 to 8) (size 9 to 14) (size 15 to 20)
#    0.000    1.923    1.538    3.923    0.000    7.692 
#    0.000    1.154    0.000    0.462    0.000    0.000 
#    0.000    0.000    0.000    0.000    0.000    0.000 
#
# Total GULP energy -644903.841484 kJ/mol
# GULP energy per Si atom -12401.996952 kJ/mol
# Density = 1.784338 g / cm^3
# Si number density = 17.884084 Si / 1000 Ang^3
#
#
#
# Elastic Constant Matrix: (Units=GPa)
#
#
# Indices 1 2 3 4 5 6 
#
# 1 85.8493 55.2356 43.8499 0.0000 0.0000 0.0000
# 2 55.2356 119.4298 58.0888 0.0000 0.0000 0.0000
# 3 43.8499 58.0888 93.6202 0.0000 0.0000 0.0000
# 4 0.0000 0.0000 0.0000 27.1694 0.0000 0.0000
# 5 0.0000 0.0000 0.0000 0.0000 20.5732 0.0000
# 6 0.0000 0.0000 0.0000 0.0000 0.0000 31.9941
#
#
#
# Elastic Compliance Matrix: (Units=1/GPa)
#
#
# Indices 1 2 3 4 5 6 
#
# 1 0.017892 -0.006014 -0.004649 0.000000 0.000000 0.000000
# 2 -0.006014 0.014014 -0.005878 0.000000 0.000000 0.000000
# 3 -0.004649 -0.005878 0.016506 0.000000 0.000000 0.000000
# 4 0.000000 0.000000 0.000000 0.036806 0.000000 0.000000
# 5 0.000000 0.000000 0.000000 0.000000 0.048607 0.000000
# 6 0.000000 0.000000 0.000000 0.000000 0.000000 0.031256
#
#
# Mechanical properties :
#
#
# Convention : Reuss Voigt Hill
#
# Bulk Modulus (GPa) = 65.23198 68.13863 66.68531
# Shear Modulus (GPa) = 24.59747 25.39569 24.99658
#
# Velocity S-wave (km/s) = 3.71264 3.77240 3.74264
# Velocity P-wave (km/s) = 7.41163 7.56026 7.48632
#
# Compressibility (1/GPa) = 0.01532990
#
# Stress axis : x y z
#
# Youngs Moduli (GPa) = 55.89015 71.35919 60.58321
#
# Poissons Ratio (x) = 0.42915 0.28165
# Poissons Ratio (y) = 0.33612 0.35612
# Poissons Ratio (z) = 0.25983 0.41947
#
# Static dielectric constant tensor:
#      x y z
#    x 3.357210 0.000000 0.000000 
#    y 0.000000 3.533900 0.000000 
#    z 0.000000 0.000000 3.207660 
# 
# 
# High freq. dielectric constant tensor:
#      x y z
#    x 1.697590 0.000000 0.000000 
#    y 0.000000 1.703110 0.000000 
#    z 0.000000 0.000000 1.672970 
# 
# From -- ./inp_files/60799.got.cif
#   From: 2010.03.12/outbox.cif.g09.slc.cpg/sg65_31_cif.got.tgz:60799.got - 2010.04.10 20:52:16.
