data_PCOD8269514
_publ_section_title
;
Structure prediction by ZEFSAII (Michael W. Deem and Ramdas Pophale) SiO2 
 PCOD8269514
Probable space group: C M M M
;
_chemical_formula_sum "Si O2"
_cell_formula_units_Z 72
_cell_length_a 19.518803
_cell_length_b 18.881458
_cell_length_c 10.576232
_cell_angle_alpha 90.000000
_cell_angle_beta 90.000000
_cell_angle_gamma 90.000000
_cell_volume 3897.801125
_symmetry_space_group_name_H-M "C M M M"
_symmetry_group_IT_number 65
_symmetry_cell_setting 'orthorhombic'
loop_
_space_group_symop_operation_xyz
x,y,z
-x,-y,z
x,-y,-z
-x,y,-z
-x,-y,-z
x,y,-z
-x,y,z
x,-y,z
1/2+x,1/2+y,z
1/2-x,1/2-y,z
1/2+x,1/2-y,-z
1/2-x,1/2+y,-z
1/2-x,1/2-y,-z
1/2+x,1/2+y,-z
1/2-x,1/2+y,z
1/2+x,1/2-y,z
loop_
_atom_site_type_symbol
_atom_site_label
_atom_site_fract_x
_atom_site_fract_y
_atom_site_fract_z
Si Si1 0.919324 0.921615 0.500000
Si Si2 0.330231 0.082768 0.853114
Si Si3 0.212364 0.816754 0.145159
Si Si4 0.578321 0.844245 0.359135
Si Si5 0.922028 0.184358 0.714360
O O1 0.896921 0.877680 0.378104
O O2 0.000000 0.929023 0.500000
O O3 0.885200 0.000000 0.500000
O O4 0.254027 0.111625 0.822913
O O5 0.382122 0.119613 0.756358
O O6 0.330217 0.000000 0.826326
O O7 0.351052 0.099149 0.000000
O O8 0.250000 0.750000 0.215047
O O9 0.131971 0.821631 0.173302
O O10 0.215724 0.800320 0.000000
O O11 0.604901 0.867221 0.500000
O O12 0.500000 0.868255 0.343558
O O13 0.584028 0.759589 0.353939
O O14 0.000000 0.172325 0.763474
#
# Coordination Sequence:
#
# PCOD8269514 Si02
#       5
#     8  16  16  16  16
#     4   9  18  34  55  80 113 149 183 226 281 335
#     4  10  22  40  59  81 115 157 195 234 285 346
#     4  10  20  36  57  81 111 148 188 235 286 336
#     4  10  20  36  59  86 118 152 189 239 290 336
#     4  10  19  34  58  85 113 147 188 232 282 343
#
# _framework density 18.471952999999999
#
# number of rings (size 3 to 8) (size 9 to 14) (size 15 to 20)
#    0.000    2.111    3.333    0.000    0.000    2.667 
#    2.000    6.111    0.000    0.000    0.000    6.222 
#    0.000    0.000    0.000    0.000    0.000    0.000 
#
# Total GULP energy -446059.845606 kJ/mol
# GULP energy per Si atom -12390.551267 kJ/mol
# Density = 1.842991 g / cm^3
# Si number density = 18.471953 Si / 1000 Ang^3
#
#
#
# Elastic Constant Matrix: (Units=GPa)
#
#
# Indices 1 2 3 4 5 6 
#
# 1 115.9432 44.5289 51.9759 0.0000 0.0000 0.0000
# 2 44.5289 123.3883 48.0501 0.0000 0.0000 0.0000
# 3 51.9759 48.0501 60.3470 0.0000 0.0000 0.0000
# 4 0.0000 0.0000 0.0000 33.4685 0.0000 0.0000
# 5 0.0000 0.0000 0.0000 0.0000 15.3875 0.0000
# 6 0.0000 0.0000 0.0000 0.0000 0.0000 24.3428
#
#
#
# Elastic Compliance Matrix: (Units=1/GPa)
#
#
# Indices 1 2 3 4 5 6 
#
# 1 0.014072 -0.000520 -0.011707 0.000000 0.000000 0.000000
# 2 -0.000520 0.011766 -0.008921 0.000000 0.000000 0.000000
# 3 -0.011707 -0.008921 0.033757 0.000000 0.000000 0.000000
# 4 0.000000 0.000000 0.000000 0.029879 0.000000 0.000000
# 5 0.000000 0.000000 0.000000 0.000000 0.064988 0.000000
# 6 0.000000 0.000000 0.000000 0.000000 0.000000 0.041080
#
#
# Mechanical properties :
#
#
# Convention : Reuss Voigt Hill
#
# Bulk Modulus (GPa) = 57.80085 65.42092 61.61089
# Shear Modulus (GPa) = 20.52523 24.98133 22.75328
#
# Velocity S-wave (km/s) = 3.33702 3.68148 3.51347
# Velocity P-wave (km/s) = 6.79755 7.31876 7.06296
#
# Compressibility (1/GPa) = 0.01730078
#
# Stress axis : x y z
#
# Youngs Moduli (GPa) = 71.06100 84.99046 29.62391
#
# Poissons Ratio (x) = 0.04417 0.34679
# Poissons Ratio (y) = 0.03693 0.26427
# Poissons Ratio (z) = 0.83188 0.75818
#
# Static dielectric constant tensor:
#      x y z
#    x 3.452980 0.000000 0.000000 
#    y 0.000000 3.686630 0.000000 
#    z 0.000000 0.000000 3.307910 
# 
# 
# High freq. dielectric constant tensor:
#      x y z
#    x 1.707420 0.000000 0.000000 
#    y 0.000000 1.720660 0.000000 
#    z 0.000000 0.000000 1.706290 
# 
# From -- ./inp_files/26326.got.cif
#   From: 2010.03.12/outbox.cif.g09.slc.cpg/sg65_14_cif.got.tgz:26326.got - 2010.04.10 20:52:16.
