data_PCOD8269458
_publ_section_title
;
Structure prediction by ZEFSAII (Michael W. Deem and Ramdas Pophale) SiO2 
 PCOD8269458
Probable space group: C M M M
;
_chemical_formula_sum "Si O2"
_cell_formula_units_Z 100
_cell_length_a 8.311013
_cell_length_b 18.889358
_cell_length_c 28.598924
_cell_angle_alpha 90.000000
_cell_angle_beta 90.000000
_cell_angle_gamma 90.000000
_cell_volume 4489.736496
_symmetry_space_group_name_H-M "C M M M"
_symmetry_group_IT_number 65
_symmetry_cell_setting 'orthorhombic'
loop_
_space_group_symop_operation_xyz
x,y,z
-x,-y,z
x,-y,-z
-x,y,-z
-x,-y,-z
x,y,-z
-x,y,z
x,-y,z
1/2+x,1/2+y,z
1/2-x,1/2-y,z
1/2+x,1/2-y,-z
1/2-x,1/2+y,-z
1/2-x,1/2-y,-z
1/2+x,1/2+y,-z
1/2-x,1/2+y,z
1/2+x,1/2-y,z
loop_
_atom_site_type_symbol
_atom_site_label
_atom_site_fract_x
_atom_site_fract_y
_atom_site_fract_z
Si Si1 0.309841 0.676613 0.196278
Si Si2 0.676906 0.152328 0.095172
Si Si3 0.500000 0.500000 0.883147
Si Si4 0.814001 0.171260 0.364950
Si Si5 0.188135 0.580419 0.446553
Si Si6 0.690870 0.420983 0.280549
Si Si7 0.000000 0.860186 0.945906
Si Si8 0.333331 0.000000 0.877901
O O1 0.500000 0.676218 0.185068
O O2 0.250000 0.750000 0.219378
O O3 0.206533 0.667221 0.149522
O O4 0.260474 0.614516 0.231517
O O5 0.500000 0.184733 0.080521
O O6 0.832342 0.182515 0.066219
O O7 0.666762 0.067670 0.087882
O O8 0.500000 0.430790 0.914983
O O9 0.660670 0.500000 0.849895
O O10 0.750000 0.250000 0.365185
O O11 0.784872 0.134554 0.414628
O O12 0.734495 0.124505 0.323407
O O13 0.000000 0.176562 0.354734
O O14 0.234657 0.596753 0.500000
O O15 0.236926 0.500000 0.433828
O O16 0.000000 0.591941 0.438468
O O17 0.500000 0.423925 0.285384
O O18 0.764316 0.500000 0.282231
O O19 0.000000 0.879328 0.000000
O O20 0.500000 0.000000 0.847191
#
# Coordination Sequence:
#
# PCOD8269458 Si02
#       8
#    16  16   4  16  16  16   8   8
#     4  11  22  38  61  88 118 159 199 245 301 366
#     4  10  20  36  56  86 120 158 200 251 301 359
#     4   8  15  28  48  76 112 152 192 234 284 348
#     4  11  22  37  59  86 123 167 211 260 314 376
#     4   9  19  37  60  86 118 158 208 266 327 386
#     4   9  20  38  60  90 122 156 201 251 309 372
#     4  10  19  34  56  86 120 160 207 246 302 365
#     4   8  16  29  49  77 114 146 186 238 287 337
#
# _framework density 22.273021
#
# number of rings (size 3 to 8) (size 9 to 14) (size 15 to 20)
#    0.000    2.240    0.800    2.520    1.120    1.920 
#    0.000    3.200    0.000    9.120    0.000    0.000 
#    0.000    0.000    0.000    0.000    0.000    0.000 
#
# Total GULP energy -619499.470188 kJ/mol
# GULP energy per Si atom -12389.989404 kJ/mol
# Density = 2.222233 g / cm^3
# Si number density = 22.273021 Si / 1000 Ang^3
#
#
#
# Elastic Constant Matrix: (Units=GPa)
#
#
# Indices 1 2 3 4 5 6 
#
# 1 161.7916 38.1496 29.7788 0.0000 0.0000 0.0000
# 2 38.1496 113.7612 56.5396 0.0000 0.0000 0.0000
# 3 29.7788 56.5396 89.9312 0.0000 0.0000 0.0000
# 4 0.0000 0.0000 0.0000 2.6827 0.0000 0.0000
# 5 0.0000 0.0000 0.0000 0.0000 15.8682 0.0000
# 6 0.0000 0.0000 0.0000 0.0000 0.0000 18.9568
#
#
#
# Elastic Compliance Matrix: (Units=1/GPa)
#
#
# Indices 1 2 3 4 5 6 
#
# 1 0.006798 -0.001689 -0.001189 0.000000 0.000000 0.000000
# 2 -0.001689 0.013205 -0.007743 0.000000 0.000000 0.000000
# 3 -0.001189 -0.007743 0.016381 0.000000 0.000000 0.000000
# 4 0.000000 0.000000 0.000000 0.372758 0.000000 0.000000
# 5 0.000000 0.000000 0.000000 0.000000 0.063019 0.000000
# 6 0.000000 0.000000 0.000000 0.000000 0.000000 0.052751
#
#
# Mechanical properties :
#
#
# Convention : Reuss Voigt Hill
#
# Bulk Modulus (GPa) = 66.03858 68.26890 67.15374
# Shear Modulus (GPa) = 9.07110 23.56928 16.32019
#
# Velocity S-wave (km/s) = 2.02028 3.25653 2.70984
# Velocity P-wave (km/s) = 5.92925 6.69757 6.32509
#
# Compressibility (1/GPa) = 0.01514266
#
# Stress axis : x y z
#
# Youngs Moduli (GPa) = 147.10540 75.73052 61.04536
#
# Poissons Ratio (x) = 0.12787 0.07261
# Poissons Ratio (y) = 0.24839 0.47265
# Poissons Ratio (z) = 0.17497 0.58636
#
# Static dielectric constant tensor:
#      x y z
#    x 4.466000 0.000000 0.000000 
#    y 0.000000 4.480590 0.000000 
#    z 0.000000 0.000000 3.686190 
# 
# 
# High freq. dielectric constant tensor:
#      x y z
#    x 1.881410 0.000000 0.000000 
#    y 0.000000 1.889270 0.000000 
#    z 0.000000 0.000000 1.844540 
# 
# From -- ./inp_files/73423.got.cif
#   From: 2010.03.12/outbox.cif.g09.slc.cpg/sg65_37_cif.got.tgz:73423.got - 2010.04.10 20:52:16.
