data_PCOD8269203
_publ_section_title
;
Structure prediction by ZEFSAII (Michael W. Deem and Ramdas Pophale) SiO2 
 PCOD8269203
Probable space group: C M M M
;
_chemical_formula_sum "Si O2"
_cell_formula_units_Z 128
_cell_length_a 19.749672
_cell_length_b 17.951484
_cell_length_c 19.702666
_cell_angle_alpha 90.000000
_cell_angle_beta 90.000000
_cell_angle_gamma 90.000000
_cell_volume 6985.302835
_symmetry_space_group_name_H-M "C M M M"
_symmetry_group_IT_number 65
_symmetry_cell_setting 'orthorhombic'
loop_
_space_group_symop_operation_xyz
x,y,z
-x,-y,z
x,-y,-z
-x,y,-z
-x,-y,-z
x,y,-z
-x,y,z
x,-y,z
1/2+x,1/2+y,z
1/2-x,1/2-y,z
1/2+x,1/2-y,-z
1/2-x,1/2+y,-z
1/2-x,1/2-y,-z
1/2+x,1/2+y,-z
1/2-x,1/2+y,z
1/2+x,1/2-y,z
loop_
_atom_site_type_symbol
_atom_site_label
_atom_site_fract_x
_atom_site_fract_y
_atom_site_fract_z
Si Si1 0.764634 0.582766 0.315287
Si Si2 0.813502 0.697091 0.575661
Si Si3 0.424100 0.733381 0.339654
Si Si4 0.073558 0.693120 0.796545
Si Si5 0.280736 0.330840 0.077509
Si Si6 0.180619 0.417027 0.168003
Si Si7 0.385856 0.413596 0.277180
Si Si8 0.424808 0.650802 0.863504
O O1 0.758845 0.500000 0.345294
O O2 0.800413 0.629830 0.373442
O O3 0.809482 0.583786 0.248348
O O4 0.691056 0.611073 0.292250
O O5 0.826234 0.665427 0.500000
O O6 0.750000 0.750000 0.576610
O O7 0.877793 0.747182 0.596412
O O8 0.500000 0.758782 0.356939
O O9 0.394979 0.781287 0.275813
O O10 0.427813 0.644691 0.322916
O O11 0.117796 0.637871 0.842591
O O12 0.064113 0.766522 0.839314
O O13 0.000000 0.655708 0.785010
O O14 0.250000 0.250000 0.098950
O O15 0.245955 0.390760 0.126442
O O16 0.362085 0.343581 0.083615
O O17 0.260482 0.346820 0.000000
O O18 0.162557 0.500000 0.142929
O O19 0.400431 0.500000 0.297247
O O20 0.403929 0.404038 0.197969
O O21 0.500000 0.625112 0.892857
#
# Coordination Sequence:
#
# PCOD8269203 Si02
#       8
#    16  16  16  16  16  16  16  16
#     4  10  20  34  57  85 108 143 188 232 282 330
#     4  11  22  36  56  81 109 146 189 231 277 333
#     4  10  20  34  55  82 112 147 185 227 276 332
#     4   9  18  33  55  84 110 139 183 232 282 332
#     4  11  23  38  57  81 111 154 196 231 277 331
#     4  11  21  35  59  85 110 143 185 233 283 337
#     4  10  19  33  55  85 116 145 185 236 284 328
#     4  10  20  34  56  84 113 147 189 233 278 334
#
# _framework density 18.324187999999999
#
# number of rings (size 3 to 8) (size 9 to 14) (size 15 to 20)
#    0.000    1.750    5.000    1.125    0.000    2.750 
#    0.000    0.000    0.000    1.125    0.000    4.375 
#    0.000    0.000    0.000    0.000    0.000    0.000 
#
# Total GULP energy -793027.664070 kJ/mol
# GULP energy per Si atom -12391.057251 kJ/mol
# Density = 1.828248 g / cm^3
# Si number density = 18.324188 Si / 1000 Ang^3
#
#
#
# Elastic Constant Matrix: (Units=GPa)
#
#
# Indices 1 2 3 4 5 6 
#
# 1 98.8013 35.6752 23.8184 0.0000 0.0000 0.0000
# 2 35.6752 87.1721 32.6891 0.0000 0.0000 0.0000
# 3 23.8184 32.6891 72.4142 0.0000 0.0000 0.0000
# 4 0.0000 0.0000 0.0000 14.4281 0.0000 0.0000
# 5 0.0000 0.0000 0.0000 0.0000 87.1690 0.0000
# 6 0.0000 0.0000 0.0000 0.0000 0.0000 2.9802
#
#
#
# Elastic Compliance Matrix: (Units=1/GPa)
#
#
# Indices 1 2 3 4 5 6 
#
# 1 0.012138 -0.004177 -0.002107 0.000000 0.000000 0.000000
# 2 -0.004177 0.015247 -0.005509 0.000000 0.000000 0.000000
# 3 -0.002107 -0.005509 0.016989 0.000000 0.000000 0.000000
# 4 0.000000 0.000000 0.000000 0.069309 0.000000 0.000000
# 5 0.000000 0.000000 0.000000 0.000000 0.011472 0.000000
# 6 0.000000 0.000000 0.000000 0.000000 0.000000 0.335546
#
#
# Mechanical properties :
#
#
# Convention : Reuss Voigt Hill
#
# Bulk Modulus (GPa) = 48.10402 49.19477 48.64940
# Shear Modulus (GPa) = 10.17883 31.99579 21.08731
#
# Velocity S-wave (km/s) = 2.35943 4.18316 3.39601
# Velocity P-wave (km/s) = 5.80786 7.08781 6.47951
#
# Compressibility (1/GPa) = 0.02078828
#
# Stress axis : x y z
#
# Youngs Moduli (GPa) = 82.38921 65.58723 58.86145
#
# Poissons Ratio (x) = 0.27398 0.12399
# Poissons Ratio (y) = 0.34417 0.32425
# Poissons Ratio (z) = 0.17355 0.36130
#
# Static dielectric constant tensor:
#      x y z
#    x 4.249230 0.000000 0.000000 
#    y 0.000000 3.446140 0.000000 
#    z 0.000000 0.000000 3.210640 
# 
# 
# High freq. dielectric constant tensor:
#      x y z
#    x 1.719180 0.000000 0.000000 
#    y 0.000000 1.704030 0.000000 
#    z 0.000000 0.000000 1.679680 
# 
# From -- ./inp_files/64878.got.cif
#   From: 2010.03.12/outbox.cif.g09.slc.cpg/sg65_33_cif.got.tgz:64878.got - 2010.04.10 20:52:16.
