data_PCOD8269274
_publ_section_title
;
Structure prediction by ZEFSAII (Michael W. Deem and Ramdas Pophale) SiO2 
 PCOD8269274
Probable space group: C M M M
;
_chemical_formula_sum "Si O2"
_cell_formula_units_Z 96
_cell_length_a 30.957830
_cell_length_b 13.648038
_cell_length_c 12.499513
_cell_angle_alpha 90.000000
_cell_angle_beta 90.000000
_cell_angle_gamma 90.000000
_cell_volume 5281.214739
_symmetry_space_group_name_H-M "C M M M"
_symmetry_group_IT_number 65
_symmetry_cell_setting 'orthorhombic'
loop_
_space_group_symop_operation_xyz
x,y,z
-x,-y,z
x,-y,-z
-x,y,-z
-x,-y,-z
x,y,-z
-x,y,z
x,-y,z
1/2+x,1/2+y,z
1/2-x,1/2-y,z
1/2+x,1/2-y,-z
1/2-x,1/2+y,-z
1/2-x,1/2-y,-z
1/2+x,1/2+y,-z
1/2-x,1/2+y,z
1/2+x,1/2-y,z
loop_
_atom_site_type_symbol
_atom_site_label
_atom_site_fract_x
_atom_site_fract_y
_atom_site_fract_z
Si Si1 0.647460 0.609817 0.123055
Si Si2 0.358399 0.382287 0.500000
Si Si3 0.239332 0.885063 0.500000
Si Si4 0.755177 0.135958 0.118340
Si Si5 0.050100 0.611295 0.623775
Si Si6 0.119575 0.244732 0.696055
Si Si7 0.198884 0.608440 0.685281
O O1 0.628793 0.500000 0.138374
O O2 0.697252 0.609243 0.161748
O O3 0.620212 0.687422 0.191560
O O4 0.644591 0.643752 0.000000
O O5 0.363260 0.500000 0.500000
O O6 0.309060 0.343920 0.500000
O O7 0.381346 0.337543 0.604100
O O8 0.264912 0.848588 0.604900
O O9 0.235372 0.000000 0.500000
O O10 0.750000 0.250000 0.112429
O O11 0.719424 0.093918 0.197718
O O12 0.748382 0.089943 0.000000
O O13 0.063280 0.623243 0.500000
O O14 0.060067 0.500000 0.661128
O O15 0.076722 0.688998 0.693767
O O16 0.000000 0.635308 0.640531
O O17 0.159684 0.317247 0.684365
O O18 0.183032 0.500000 0.647661
#
# Coordination Sequence:
#
# PCOD8269274 Si02
#       7
#    16   8   8  16  16  16  16
#     4  10  21  36  54  75 105 150 196 231 266 313
#     4  11  23  35  49  74 107 147 185 219 262 310
#     4   9  21  35  43  62 105 149 180 209 252 317
#     4  10  19  34  51  70 101 144 194 237 269 302
#     4   9  19  38  63  88 113 140 170 208 265 338
#     4  12  21  34  56  82 108 137 175 230 273 322
#     4  11  22  33  48  74 106 141 180 226 274 316
#
# _framework density 18.177637000000001
#
# number of rings (size 3 to 8) (size 9 to 14) (size 15 to 20)
#    0.000    1.667    2.500    3.500    0.000    3.000 
#    0.000    0.000    0.000    4.500    0.000    2.333 
#    0.000    0.000    0.000    0.000    0.000    0.000 
#
# Total GULP energy -595142.277901 kJ/mol
# GULP energy per Si atom -12398.797456 kJ/mol
# Density = 1.813626 g / cm^3
# Si number density = 18.177637 Si / 1000 Ang^3
#
#
#
# Elastic Constant Matrix: (Units=GPa)
#
#
# Indices 1 2 3 4 5 6 
#
# 1 73.4240 44.1564 32.3088 0.0000 0.0000 0.0000
# 2 44.1564 120.1203 36.5651 0.0000 0.0000 0.0000
# 3 32.3088 36.5651 80.6990 0.0000 0.0000 0.0000
# 4 0.0000 0.0000 0.0000 31.5106 0.0000 0.0000
# 5 0.0000 0.0000 0.0000 0.0000 18.7600 0.0000
# 6 0.0000 0.0000 0.0000 0.0000 0.0000 54.0221
#
#
#
# Elastic Compliance Matrix: (Units=1/GPa)
#
#
# Indices 1 2 3 4 5 6 
#
# 1 0.019203 -0.005474 -0.005208 0.000000 0.000000 0.000000
# 2 -0.005474 0.011217 -0.002891 0.000000 0.000000 0.000000
# 3 -0.005208 -0.002891 0.015787 0.000000 0.000000 0.000000
# 4 0.000000 0.000000 0.000000 0.031735 0.000000 0.000000
# 5 0.000000 0.000000 0.000000 0.000000 0.053305 0.000000
# 6 0.000000 0.000000 0.000000 0.000000 0.000000 0.018511
#
#
# Mechanical properties :
#
#
# Convention : Reuss Voigt Hill
#
# Bulk Modulus (GPa) = 52.46210 55.58932 54.02571
# Shear Modulus (GPa) = 27.28398 31.60607 29.44502
#
# Velocity S-wave (km/s) = 3.87843 4.17434 4.02910
# Velocity P-wave (km/s) = 6.99855 7.34037 7.17150
#
# Compressibility (1/GPa) = 0.01906138
#
# Stress axis : x y z
#
# Youngs Moduli (GPa) = 52.07506 89.14878 63.34410
#
# Poissons Ratio (x) = 0.48798 0.32990
# Poissons Ratio (y) = 0.28505 0.18313
# Poissons Ratio (z) = 0.27121 0.25774
#
# Static dielectric constant tensor:
#      x y z
#    x 3.037300 0.000000 0.000000 
#    y 0.000000 3.531840 0.000000 
#    z 0.000000 0.000000 3.490580 
# 
# 
# High freq. dielectric constant tensor:
#      x y z
#    x 1.657150 0.000000 0.000000 
#    y 0.000000 1.728080 0.000000 
#    z 0.000000 0.000000 1.699150 
# 
# From -- ./inp_files/33914.got.cif
#   From: 2010.03.12/outbox.cif.g09.slc.cpg/sg65_17_cif.got.tgz:33914.got - 2010.04.10 20:52:16.
