data_PCOD8269752
_publ_section_title
;
Structure prediction by ZEFSAII (Michael W. Deem and Ramdas Pophale) SiO2 
 PCOD8269752
Probable space group: C M M M
;
_chemical_formula_sum "Si O2"
_cell_formula_units_Z 88
_cell_length_a 30.922843
_cell_length_b 8.230567
_cell_length_c 24.608553
_cell_angle_alpha 90.000000
_cell_angle_beta 90.000000
_cell_angle_gamma 90.000000
_cell_volume 6263.185112
_symmetry_space_group_name_H-M "C M M M"
_symmetry_group_IT_number 65
_symmetry_cell_setting 'orthorhombic'
loop_
_space_group_symop_operation_xyz
x,y,z
-x,-y,z
x,-y,-z
-x,y,-z
-x,-y,-z
x,y,-z
-x,y,z
x,-y,z
1/2+x,1/2+y,z
1/2-x,1/2-y,z
1/2+x,1/2-y,-z
1/2-x,1/2+y,-z
1/2-x,1/2-y,-z
1/2+x,1/2+y,-z
1/2-x,1/2+y,z
1/2+x,1/2-y,z
loop_
_atom_site_type_symbol
_atom_site_label
_atom_site_fract_x
_atom_site_fract_y
_atom_site_fract_z
Si Si1 0.051452 0.500000 0.938147
Si Si2 0.051330 0.680868 0.763550
Si Si3 0.948554 0.819253 0.874959
Si Si4 0.294480 0.818427 0.435538
Si Si5 0.384600 0.687476 0.561393
Si Si6 0.047613 0.309720 0.645953
O O1 0.069425 0.332600 0.910735
O O2 0.000000 0.500000 0.933780
O O3 0.067539 0.500000 0.000000
O O4 0.070960 0.500000 0.771836
O O5 0.067596 0.794398 0.812786
O O6 0.064619 0.757217 0.704597
O O7 0.000000 0.668403 0.765090
O O8 0.000000 0.816610 0.878120
O O9 0.932223 0.000000 0.894296
O O10 0.290498 0.811873 0.500000
O O11 0.250000 0.750000 0.409782
O O12 0.335948 0.714913 0.416381
O O13 0.301274 0.000000 0.414143
O O14 0.388582 0.756948 0.500000
O O15 0.395749 0.500000 0.562739
O O16 0.419109 0.776864 0.598250
O O17 0.042649 0.500000 0.653789
O O18 0.000000 0.236509 0.631458
#
# Coordination Sequence:
#
# PCOD8269752 Si02
#       6
#     8  16  16  16  16  16
#     4   9  16  24  32  44  66  90 109 139 181 221
#     4   8  13  24  39  51  65  84 111 150 190 224
#     4   9  15  22  34  49  63  84 113 143 179 222
#     4   9  16  27  44  62  77  93 115 143 177 222
#     4  10  20  31  41  55  77 101 123 151 189 233
#     4   9  18  30  43  57  72  95 126 159 195 235
#
# _framework density 14.050357999999999
#
# number of rings (size 3 to 8) (size 9 to 14) (size 15 to 20)
#    0.000    3.000    0.909    2.182    0.000    5.091 
#    0.000    5.455    0.000    0.000    0.000    0.000 
#    0.000    0.000    0.000    0.000    0.000    0.000 
#
# Total GULP energy -545074.095080 kJ/mol
# GULP energy per Si atom -12388.047615 kJ/mol
# Density = 1.401838 g / cm^3
# Si number density = 14.050358 Si / 1000 Ang^3
#
#
#
# Elastic Constant Matrix: (Units=GPa)
#
#
# Indices 1 2 3 4 5 6 
#
# 1 44.6025 12.9926 30.3956 0.0000 0.0000 0.0000
# 2 12.9926 71.6287 34.0577 0.0000 0.0000 0.0000
# 3 30.3956 34.0577 81.4300 0.0000 0.0000 0.0000
# 4 0.0000 0.0000 0.0000 13.4666 0.0000 0.0000
# 5 0.0000 0.0000 0.0000 0.0000 -0.3985 0.0000
# 6 0.0000 0.0000 0.0000 0.0000 0.0000 14.4356
#
#
#
# Elastic Compliance Matrix: (Units=1/GPa)
#
#
# Indices 1 2 3 4 5 6 
#
# 1 0.030070 -0.000147 -0.011163 0.000000 0.000000 0.000000
# 2 -0.000147 0.017427 -0.007234 0.000000 0.000000 0.000000
# 3 -0.011163 -0.007234 0.019473 0.000000 0.000000 0.000000
# 4 0.000000 0.000000 0.000000 0.074258 0.000000 0.000000
# 5 0.000000 0.000000 0.000000 0.000000 -2.509475 0.000000
# 6 0.000000 0.000000 0.000000 0.000000 0.000000 0.069273
#
#
# Mechanical properties :
#
#
# Convention : Reuss Voigt Hill
#
# Bulk Modulus (GPa) = 33.46404 39.17256 36.31830
# Shear Modulus (GPa) = -2.22032 13.51510 5.64739
#
# Velocity S-wave (km/s) = -1.25845 3.10482 2.00702
# Velocity P-wave (km/s) = 4.66448 6.38701 5.59246
#
# Compressibility (1/GPa) = 0.02988282
#
# Stress axis : x y z
#
# Youngs Moduli (GPa) = 33.25534 57.38192 51.35321
#
# Poissons Ratio (x) = 0.00841 0.57326
# Poissons Ratio (y) = 0.00488 0.37149
# Poissons Ratio (z) = 0.37123 0.41510
#
# Static dielectric constant tensor:
#      x y z
#    x 2.394990 0.000000 0.000000 
#    y 0.000000 2.920510 0.000000 
#    z 0.000000 0.000000 2.824360 
# 
# 
# High freq. dielectric constant tensor:
#      x y z
#    x 1.471330 0.000000 0.000000 
#    y 0.000000 1.547030 0.000000 
#    z 0.000000 0.000000 1.515950 
# 
# From -- ./inp_files/72049.got.cif
#   From: 2010.03.12/outbox.cif.g09.slc.cpg/sg65_37_cif.got.tgz:72049.got - 2010.04.10 20:52:16.
