data_PCOD8269072
_publ_section_title
;
Structure prediction by ZEFSAII (Michael W. Deem and Ramdas Pophale) SiO2 
 PCOD8269072
Probable space group: C M M M
;
_chemical_formula_sum "Si O2"
_cell_formula_units_Z 64
_cell_length_a 20.278202
_cell_length_b 14.305547
_cell_length_c 12.219049
_cell_angle_alpha 90.000000
_cell_angle_beta 90.000000
_cell_angle_gamma 90.000000
_cell_volume 3544.633355
_symmetry_space_group_name_H-M "C M M M"
_symmetry_group_IT_number 65
_symmetry_cell_setting 'orthorhombic'
loop_
_space_group_symop_operation_xyz
x,y,z
-x,-y,z
x,-y,-z
-x,y,-z
-x,-y,-z
x,y,-z
-x,y,z
x,-y,z
1/2+x,1/2+y,z
1/2-x,1/2-y,z
1/2+x,1/2-y,-z
1/2-x,1/2+y,-z
1/2-x,1/2-y,-z
1/2+x,1/2+y,-z
1/2-x,1/2+y,z
1/2+x,1/2-y,z
loop_
_atom_site_type_symbol
_atom_site_label
_atom_site_fract_x
_atom_site_fract_y
_atom_site_fract_z
Si Si1 0.194822 0.103069 0.287650
Si Si2 0.892131 0.898246 0.500000
Si Si3 0.328266 0.751368 0.879010
Si Si4 0.344451 0.110283 0.298561
Si Si5 0.573733 0.192239 0.500000
O O1 0.154002 0.105396 0.396430
O O2 0.155470 0.163405 0.197936
O O3 0.268212 0.137148 0.320801
O O4 0.200446 0.000000 0.236492
O O5 0.936286 0.805115 0.500000
O O6 0.930494 0.000000 0.500000
O O7 0.250000 0.750000 0.891965
O O8 0.358857 0.843921 0.820685
O O9 0.360582 0.743116 0.000000
O O10 0.388205 0.157339 0.392545
O O11 0.358675 0.000000 0.295391
O O12 0.500000 0.149454 0.500000
#
# Coordination Sequence:
#
# PCOD8269072 Si02
#       5
#    16   8  16  16   8
#     4   9  17  30  52  80 106 133 162 202 261 318
#     4  10  19  33  54  79 102 125 161 207 261 321
#     4   9  17  29  48  76 107 137 166 200 248 308
#     4  10  20  33  50  75 106 137 169 209 255 304
#     4  12  24  36  53  74  99 137 178 218 259 298
#
# _framework density 18.055464000000001
#
# number of rings (size 3 to 8) (size 9 to 14) (size 15 to 20)
#    0.000    2.250    2.500    1.125    0.000    5.250 
#    0.000    5.000    0.000    0.750    0.000    1.750 
#    0.000    4.000    0.000    0.000    0.000    0.000 
#
# Total GULP energy -396422.990239 kJ/mol
# GULP energy per Si atom -12388.218445 kJ/mol
# Density = 1.801437 g / cm^3
# Si number density = 18.055464 Si / 1000 Ang^3
#
#
#
# Elastic Constant Matrix: (Units=GPa)
#
#
# Indices 1 2 3 4 5 6 
#
# 1 48.7117 27.5493 30.7304 0.0000 0.0000 0.0000
# 2 27.5493 131.3624 61.1924 0.0000 0.0000 0.0000
# 3 30.7304 61.1924 150.6595 0.0000 0.0000 0.0000
# 4 0.0000 0.0000 0.0000 30.5652 0.0000 0.0000
# 5 0.0000 0.0000 0.0000 0.0000 8.3162 0.0000
# 6 0.0000 0.0000 0.0000 0.0000 0.0000 8.6239
#
#
#
# Elastic Compliance Matrix: (Units=1/GPa)
#
#
# Indices 1 2 3 4 5 6 
#
# 1 0.024807 -0.003509 -0.003634 0.000000 0.000000 0.000000
# 2 -0.003509 0.009885 -0.003299 0.000000 0.000000 0.000000
# 3 -0.003634 -0.003299 0.008719 0.000000 0.000000 0.000000
# 4 0.000000 0.000000 0.000000 0.032717 0.000000 0.000000
# 5 0.000000 0.000000 0.000000 0.000000 0.120248 0.000000
# 6 0.000000 0.000000 0.000000 0.000000 0.000000 0.115957
#
#
# Mechanical properties :
#
#
# Convention : Reuss Voigt Hill
#
# Bulk Modulus (GPa) = 44.39597 63.29753 53.84675
# Shear Modulus (GPa) = 14.67450 23.58516 19.12983
#
# Velocity S-wave (km/s) = 2.85396 3.61814 3.25853
# Velocity P-wave (km/s) = 5.95837 7.25176 6.63665
#
# Compressibility (1/GPa) = 0.02252457
#
# Stress axis : x y z
#
# Youngs Moduli (GPa) = 40.31195 101.15917 114.69381
#
# Poissons Ratio (x) = 0.35501 0.41685
# Poissons Ratio (y) = 0.14147 0.37841
# Poissons Ratio (z) = 0.14651 0.33375
#
# Static dielectric constant tensor:
#      x y z
#    x 2.843570 0.000000 0.000000 
#    y 0.000000 3.924060 0.000000 
#    z 0.000000 0.000000 3.605890 
# 
# 
# High freq. dielectric constant tensor:
#      x y z
#    x 1.642750 0.000000 0.000000 
#    y 0.000000 1.719670 0.000000 
#    z 0.000000 0.000000 1.701160 
# 
# From -- ./inp_files/26115.got.cif
#   From: 2010.03.12/outbox.cif.g09.slc.cpg/sg65_14_cif.got.tgz:26115.got - 2010.04.10 20:52:16.
