data_PCOD8269127
_publ_section_title
;
Structure prediction by ZEFSAII (Michael W. Deem and Ramdas Pophale) SiO2 
 PCOD8269127
Probable space group: C M M M
;
_chemical_formula_sum "Si O2"
_cell_formula_units_Z 104
_cell_length_a 20.007910
_cell_length_b 32.316264
_cell_length_c 9.217573
_cell_angle_alpha 90.000000
_cell_angle_beta 90.000000
_cell_angle_gamma 90.000000
_cell_volume 5959.906661
_symmetry_space_group_name_H-M "C M M M"
_symmetry_group_IT_number 65
_symmetry_cell_setting 'orthorhombic'
loop_
_space_group_symop_operation_xyz
x,y,z
-x,-y,z
x,-y,-z
-x,y,-z
-x,-y,-z
x,y,-z
-x,y,z
x,-y,z
1/2+x,1/2+y,z
1/2-x,1/2-y,z
1/2+x,1/2-y,-z
1/2-x,1/2+y,-z
1/2-x,1/2-y,-z
1/2+x,1/2+y,-z
1/2-x,1/2+y,z
1/2+x,1/2-y,z
loop_
_atom_site_type_symbol
_atom_site_label
_atom_site_fract_x
_atom_site_fract_y
_atom_site_fract_z
Si Si1 0.676819 0.267315 0.167688
Si Si2 0.150821 0.626389 0.670732
Si Si3 0.800245 0.848952 0.329671
Si Si4 0.425578 0.500000 0.172685
Si Si5 0.317828 0.953383 0.833161
Si Si6 0.332165 0.427888 0.832366
Si Si7 0.577074 0.804401 0.167569
O O1 0.750000 0.250000 0.197540
O O2 0.667602 0.307918 0.263495
O O3 0.621868 0.234172 0.219923
O O4 0.666684 0.279044 0.000000
O O5 0.140052 0.623701 0.500000
O O6 0.222217 0.646416 0.712357
O O7 0.143765 0.580082 0.734677
O O8 0.093851 0.655049 0.739392
O O9 0.810734 0.848208 0.500000
O O10 0.840636 0.887093 0.263252
O O11 0.500000 0.500000 0.237012
O O12 0.388083 0.540923 0.227335
O O13 0.424884 0.500000 0.000000
O O14 0.238843 0.949710 0.808992
O O15 0.339668 0.000000 0.788682
O O16 0.336450 0.944608 0.000000
O O17 0.342876 0.415994 0.000000
O O18 0.500000 0.792604 0.191937
O O19 0.592753 0.814455 0.000000
#
# Coordination Sequence:
#
# PCOD8269127 Si02
#       7
#    16  16  16   8  16  16  16
#     4  10  19  33  55  79 101 131 171 214 257 300
#     4  10  20  32  49  76 107 137 168 205 253 305
#     4  10  20  32  49  75 104 133 168 211 256 302
#     4   9  16  28  49  75  99 129 174 221 260 301
#     4   9  16  28  49  75 102 131 167 211 257 302
#     4   9  16  29  48  71  99 131 168 212 259 303
#     4  10  21  37  56  78 104 134 170 211 255 306
#
# _framework density 17.449939000000001
#
# number of rings (size 3 to 8) (size 9 to 14) (size 15 to 20)
#    0.000    2.385    2.308    0.923    0.000    2.769 
#    0.000    1.154    0.000    6.000    0.000    3.231 
#    0.000    0.000    0.000    0.000    0.000    0.000 
#
# Total GULP energy -644894.102920 kJ/mol
# GULP energy per Si atom -12401.809672 kJ/mol
# Density = 1.741022 g / cm^3
# Si number density = 17.449939 Si / 1000 Ang^3
#
#
#
# Elastic Constant Matrix: (Units=GPa)
#
#
# Indices 1 2 3 4 5 6 
#
# 1 76.9334 51.3387 32.5636 0.0000 0.0000 0.0000
# 2 51.3387 150.6970 66.1540 0.0000 0.0000 0.0000
# 3 32.5636 66.1540 68.1017 0.0000 0.0000 0.0000
# 4 0.0000 0.0000 0.0000 5.0327 0.0000 0.0000
# 5 0.0000 0.0000 0.0000 0.0000 14.9869 0.0000
# 6 0.0000 0.0000 0.0000 0.0000 0.0000 25.6475
#
#
#
# Elastic Compliance Matrix: (Units=1/GPa)
#
#
# Indices 1 2 3 4 5 6 
#
# 1 0.017584 -0.004009 -0.004514 0.000000 0.000000 0.000000
# 2 -0.004009 0.012483 -0.010209 0.000000 0.000000 0.000000
# 3 -0.004514 -0.010209 0.026760 0.000000 0.000000 0.000000
# 4 0.000000 0.000000 0.000000 0.198699 0.000000 0.000000
# 5 0.000000 0.000000 0.000000 0.000000 0.066725 0.000000
# 6 0.000000 0.000000 0.000000 0.000000 0.000000 0.038990
#
#
# Mechanical properties :
#
#
# Convention : Reuss Voigt Hill
#
# Bulk Modulus (GPa) = 51.64523 66.20497 58.92510
# Shear Modulus (GPa) = 12.34081 18.84514 15.59298
#
# Velocity S-wave (km/s) = 2.66223 3.28983 2.99253
# Velocity P-wave (km/s) = 6.25383 7.24244 6.76622
#
# Compressibility (1/GPa) = 0.01936287
#
# Stress axis : x y z
#
# Youngs Moduli (GPa) = 56.86987 80.10634 37.36969
#
# Poissons Ratio (x) = 0.32115 0.16867
# Poissons Ratio (y) = 0.22799 0.38152
# Poissons Ratio (z) = 0.25669 0.81784
#
# Static dielectric constant tensor:
#      x y z
#    x 3.044700 0.000000 0.000000 
#    y 0.000000 3.383580 0.000000 
#    z 0.000000 0.000000 3.097270 
# 
# 
# High freq. dielectric constant tensor:
#      x y z
#    x 1.642470 0.000000 0.000000 
#    y 0.000000 1.684810 0.000000 
#    z 0.000000 0.000000 1.663660 
# 
# From -- ./inp_files/12747.got.cif
#   From: 2010.03.12/outbox.cif.g09.slc.cpg/sg65_7_cif.got.tgz:12747.got - 2010.04.10 20:52:16.
