data_PCOD8269925
_publ_section_title
;
Structure prediction by ZEFSAII (Michael W. Deem and Ramdas Pophale) SiO2 
 PCOD8269925
Probable space group: C M M M
;
_chemical_formula_sum "Si O2"
_cell_formula_units_Z 88
_cell_length_a 26.864955
_cell_length_b 9.482852
_cell_length_c 19.644828
_cell_angle_alpha 90.000000
_cell_angle_beta 90.000000
_cell_angle_gamma 90.000000
_cell_volume 5004.645508
_symmetry_space_group_name_H-M "C M M M"
_symmetry_group_IT_number 65
_symmetry_cell_setting 'orthorhombic'
loop_
_space_group_symop_operation_xyz
x,y,z
-x,-y,z
x,-y,-z
-x,y,-z
-x,-y,-z
x,y,-z
-x,y,z
x,-y,z
1/2+x,1/2+y,z
1/2-x,1/2-y,z
1/2+x,1/2-y,-z
1/2-x,1/2+y,-z
1/2-x,1/2-y,-z
1/2+x,1/2+y,-z
1/2-x,1/2+y,z
1/2+x,1/2-y,z
loop_
_atom_site_type_symbol
_atom_site_label
_atom_site_fract_x
_atom_site_fract_y
_atom_site_fract_z
Si Si1 0.603531 0.837691 0.769796
Si Si2 0.199826 0.662546 0.851254
Si Si3 0.942316 0.843882 0.122314
Si Si4 0.798080 0.340453 0.000000
Si Si5 0.059186 0.657791 0.000000
Si Si6 0.557324 0.161084 0.372673
Si Si7 0.559074 0.658865 0.500000
O O1 0.659247 0.796224 0.793810
O O2 0.565159 0.732696 0.805970
O O3 0.595031 0.813747 0.689845
O O4 0.591488 0.000000 0.789638
O O5 0.214817 0.500000 0.843405
O O6 0.250000 0.750000 0.838538
O O7 0.175036 0.691369 0.927013
O O8 0.000000 0.863508 0.108034
O O9 0.917224 0.000000 0.120969
O O10 0.919728 0.742569 0.064457
O O11 0.750000 0.250000 0.000000
O O12 0.780005 0.500000 0.000000
O O13 0.083184 0.500000 0.000000
O O14 0.000000 0.643892 0.000000
O O15 0.500000 0.197006 0.352253
O O16 0.577661 0.260495 0.432731
O O17 0.560282 0.000000 0.397888
O O18 0.580491 0.500000 0.500000
O O19 0.500000 0.658869 0.500000
#
# Coordination Sequence:
#
# PCOD8269925 Si02
#       7
#    16  16  16   8   8  16   8
#     4  10  20  32  48  71  96 125 161 196 235 287
#     4   9  18  32  49  69  93 122 159 203 248 292
#     4  10  20  32  45  64  92 123 156 197 241 282
#     4   8  14  27  46  65  86 113 147 192 242 286
#     4   9  17  30  47  62  81 118 164 202 235 276
#     4   9  17  30  48  70  98 130 161 192 227 273
#     4   9  17  29  47  71  98 127 158 191 228 273
#
# _framework density 17.583663000000001
#
# number of rings (size 3 to 8) (size 9 to 14) (size 15 to 20)
#    0.000    2.727    0.000    1.636    0.000    6.182 
#    0.000    3.636    0.000    2.182    0.000    0.636 
#    0.000    0.000    0.000    0.000    0.000    0.000 
#
# Total GULP energy -545188.683454 kJ/mol
# GULP energy per Si atom -12390.651897 kJ/mol
# Density = 1.754364 g / cm^3
# Si number density = 17.583663 Si / 1000 Ang^3
#
#
#
# Elastic Constant Matrix: (Units=GPa)
#
#
# Indices 1 2 3 4 5 6 
#
# 1 57.9910 28.6004 40.9846 0.0000 0.0000 0.0000
# 2 28.6004 119.5616 71.4741 0.0000 0.0000 0.0000
# 3 40.9846 71.4741 134.2722 0.0000 0.0000 0.0000
# 4 0.0000 0.0000 0.0000 19.2827 0.0000 0.0000
# 5 0.0000 0.0000 0.0000 0.0000 31.8369 0.0000
# 6 0.0000 0.0000 0.0000 0.0000 0.0000 16.9971
#
#
#
# Elastic Compliance Matrix: (Units=1/GPa)
#
#
# Indices 1 2 3 4 5 6 
#
# 1 0.022264 -0.001853 -0.005809 0.000000 0.000000 0.000000
# 2 -0.001853 0.012422 -0.006047 0.000000 0.000000 0.000000
# 3 -0.005809 -0.006047 0.012439 0.000000 0.000000 0.000000
# 4 0.000000 0.000000 0.000000 0.051860 0.000000 0.000000
# 5 0.000000 0.000000 0.000000 0.000000 0.031410 0.000000
# 6 0.000000 0.000000 0.000000 0.000000 0.000000 0.058833
#
#
# Mechanical properties :
#
#
# Convention : Reuss Voigt Hill
#
# Bulk Modulus (GPa) = 50.74306 65.99365 58.36835
# Shear Modulus (GPa) = 22.39992 25.00774 23.70383
#
# Velocity S-wave (km/s) = 3.57305 3.77532 3.67558
# Velocity P-wave (km/s) = 6.77813 7.52441 7.16100
#
# Compressibility (1/GPa) = 0.01970713
#
# Stress axis : x y z
#
# Youngs Moduli (GPa) = 44.91645 80.50353 80.38945
#
# Poissons Ratio (x) = 0.14916 0.46701
# Poissons Ratio (y) = 0.08322 0.48609
# Poissons Ratio (z) = 0.26093 0.48678
#
# Static dielectric constant tensor:
#      x y z
#    x 2.756560 0.000000 0.000000 
#    y 0.000000 3.513180 0.000000 
#    z 0.000000 0.000000 3.438890 
# 
# 
# High freq. dielectric constant tensor:
#      x y z
#    x 1.639970 0.000000 0.000000 
#    y 0.000000 1.691620 0.000000 
#    z 0.000000 0.000000 1.668660 
# 
# From -- ./inp_files/58049.got.cif
#   From: 2010.03.12/outbox.cif.g09.slc.cpg/sg65_30_cif.got.tgz:58049.got - 2010.04.10 20:52:16.
