data_PCOD8269707
_publ_section_title
;
Structure prediction by ZEFSAII (Michael W. Deem and Ramdas Pophale) SiO2 
 PCOD8269707
Probable space group: C M M M
;
_chemical_formula_sum "Si O2"
_cell_formula_units_Z 96
_cell_length_a 26.952651
_cell_length_b 14.251712
_cell_length_c 14.915302
_cell_angle_alpha 90.000000
_cell_angle_beta 90.000000
_cell_angle_gamma 90.000000
_cell_volume 5729.286979
_symmetry_space_group_name_H-M "C M M M"
_symmetry_group_IT_number 65
_symmetry_cell_setting 'orthorhombic'
loop_
_space_group_symop_operation_xyz
x,y,z
-x,-y,z
x,-y,-z
-x,y,-z
-x,-y,-z
x,y,-z
-x,y,z
x,-y,z
1/2+x,1/2+y,z
1/2-x,1/2-y,z
1/2+x,1/2-y,-z
1/2-x,1/2+y,-z
1/2-x,1/2-y,-z
1/2+x,1/2+y,-z
1/2-x,1/2+y,z
1/2+x,1/2-y,z
loop_
_atom_site_type_symbol
_atom_site_label
_atom_site_fract_x
_atom_site_fract_y
_atom_site_fract_z
Si Si1 0.865153 0.225118 0.792604
Si Si2 0.331468 0.892346 0.899612
Si Si3 0.242261 0.394094 0.369265
Si Si4 0.771035 0.104385 0.169556
Si Si5 0.442274 0.608159 0.898043
Si Si6 0.167830 0.764950 0.403385
O O1 0.863821 0.330409 0.830853
O O2 0.816262 0.176031 0.833462
O O3 0.913569 0.172281 0.827319
O O4 0.867396 0.224723 0.683825
O O5 0.272231 0.869331 0.900384
O O6 0.339695 0.000000 0.870493
O O7 0.351105 0.873862 0.000000
O O8 0.237835 0.500000 0.405903
O O9 0.241760 0.390290 0.262669
O O10 0.195450 0.334899 0.402247
O O11 0.293174 0.349948 0.404577
O O12 0.792684 0.000000 0.152374
O O13 0.500000 0.630414 0.886488
O O14 0.431170 0.500000 0.875652
O O15 0.425476 0.630504 0.000000
O O16 0.138892 0.770287 0.500000
#
# Coordination Sequence:
#
# PCOD8269707 Si02
#       6
#    16  16  16  16  16  16
#     4  11  19  31  50  69  93 129 161 195 241 290
#     4  10  20  31  43  64  97 132 162 194 231 278
#     4   9  16  29  44  59  90 132 166 200 238 269
#     4   9  17  28  42  65  96 128 162 195 229 279
#     4   9  19  36  57  80  99 114 146 199 249 292
#     4  10  20  29  41  67  95 124 167 206 233 272
#
# _framework density 16.756011999999998
#
# number of rings (size 3 to 8) (size 9 to 14) (size 15 to 20)
#    0.000    2.333    1.667    3.000    0.000    4.000 
#    0.000    1.667    0.000    1.000    0.000    3.500 
#    0.000    0.000    0.000    3.000    0.000    0.167 
#
# Total GULP energy -594947.349638 kJ/mol
# GULP energy per Si atom -12394.736451 kJ/mol
# Density = 1.671787 g / cm^3
# Si number density = 16.756012 Si / 1000 Ang^3
#
#
#
# Elastic Constant Matrix: (Units=GPa)
#
#
# Indices 1 2 3 4 5 6 
#
# 1 46.6313 32.0806 42.6078 0.0000 0.0000 0.0000
# 2 32.0806 105.4010 44.1922 0.0000 0.0000 0.0000
# 3 42.6078 44.1922 116.5760 0.0000 0.0000 0.0000
# 4 0.0000 0.0000 0.0000 9.2237 0.0000 0.0000
# 5 0.0000 0.0000 0.0000 0.0000 9.7977 0.0000
# 6 0.0000 0.0000 0.0000 0.0000 0.0000 22.1530
#
#
#
# Elastic Compliance Matrix: (Units=1/GPa)
#
#
# Indices 1 2 3 4 5 6 
#
# 1 0.035466 -0.006373 -0.010547 0.000000 0.000000 0.000000
# 2 -0.006373 0.012426 -0.002381 0.000000 0.000000 0.000000
# 3 -0.010547 -0.002381 0.013336 0.000000 0.000000 0.000000
# 4 0.000000 0.000000 0.000000 0.108416 0.000000 0.000000
# 5 0.000000 0.000000 0.000000 0.000000 0.102065 0.000000
# 6 0.000000 0.000000 0.000000 0.000000 0.000000 0.045141
#
#
# Mechanical properties :
#
#
# Convention : Reuss Voigt Hill
#
# Bulk Modulus (GPa) = 44.19748 56.26328 50.23038
# Shear Modulus (GPa) = 13.77445 18.21673 15.99559
#
# Velocity S-wave (km/s) = 2.87027 3.30081 3.09304
# Velocity P-wave (km/s) = 6.11710 6.94104 6.54205
#
# Compressibility (1/GPa) = 0.02262572
#
# Stress axis : x y z
#
# Youngs Moduli (GPa) = 28.19634 80.47926 74.98759
#
# Poissons Ratio (x) = 0.51286 0.79087
# Poissons Ratio (y) = 0.17968 0.17856
# Poissons Ratio (z) = 0.29738 0.19164
#
# Static dielectric constant tensor:
#      x y z
#    x 2.597440 0.000000 0.000000 
#    y 0.000000 3.329370 0.000000 
#    z 0.000000 0.000000 3.316180 
# 
# 
# High freq. dielectric constant tensor:
#      x y z
#    x 1.575570 0.000000 0.000000 
#    y 0.000000 1.658620 0.000000 
#    z 0.000000 0.000000 1.654560 
# 
# From -- ./inp_files/47871.got.cif
#   From: 2010.03.12/outbox.cif.g09.slc.cpg/sg65_24_cif.got.tgz:47871.got - 2010.04.10 20:52:16.
