data_PCOD8269431
_publ_section_title
;
Structure prediction by ZEFSAII (Michael W. Deem and Ramdas Pophale) SiO2 
 PCOD8269431
Probable space group: C M M M
;
_chemical_formula_sum "Si O2"
_cell_formula_units_Z 88
_cell_length_a 23.393092
_cell_length_b 8.595577
_cell_length_c 22.783952
_cell_angle_alpha 90.000000
_cell_angle_beta 90.000000
_cell_angle_gamma 90.000000
_cell_volume 4581.331531
_symmetry_space_group_name_H-M "C M M M"
_symmetry_group_IT_number 65
_symmetry_cell_setting 'orthorhombic'
loop_
_space_group_symop_operation_xyz
x,y,z
-x,-y,z
x,-y,-z
-x,y,-z
-x,-y,-z
x,y,-z
-x,y,z
x,-y,z
1/2+x,1/2+y,z
1/2-x,1/2-y,z
1/2+x,1/2-y,-z
1/2-x,1/2+y,-z
1/2-x,1/2-y,-z
1/2+x,1/2+y,-z
1/2-x,1/2+y,z
1/2+x,1/2-y,z
loop_
_atom_site_type_symbol
_atom_site_label
_atom_site_fract_x
_atom_site_fract_y
_atom_site_fract_z
Si Si1 0.187231 0.181324 0.000000
Si Si2 0.190027 0.682549 0.434833
Si Si3 0.877900 0.317203 0.109442
Si Si4 0.500000 0.815771 0.278650
Si Si5 0.187263 0.183443 0.217923
Si Si6 0.000000 0.316488 0.852788
Si Si7 0.121287 0.683637 0.676234
O O1 0.250000 0.250000 0.000000
O O2 0.153123 0.229344 0.942553
O O3 0.195083 0.000000 0.000000
O O4 0.174983 0.747751 0.500000
O O5 0.197749 0.500000 0.437226
O O6 0.250000 0.750000 0.411901
O O7 0.139106 0.727297 0.390232
O O8 0.871022 0.500000 0.099102
O O9 0.852308 0.270976 0.171628
O O10 0.944342 0.265063 0.110547
O O11 0.500000 0.743121 0.212920
O O12 0.556273 0.759423 0.313613
O O13 0.500000 0.000000 0.275048
O O14 0.250000 0.250000 0.210504
O O15 0.163681 0.221589 0.282045
O O16 0.187281 0.000000 0.206208
O O17 0.000000 0.500000 0.844132
O O18 0.128214 0.500000 0.688924
#
# Coordination Sequence:
#
# PCOD8269431 Si02
#       7
#     8  16  16   8  16   8  16
#     4  12  26  45  64  89 121 156 192 236 287 338
#     4   9  18  32  51  77 109 146 188 236 287 338
#     4  11  22  41  65  89 116 153 194 233 277 337
#     4   9  16  32  56  83 111 149 187 229 284 339
#     4  12  24  37  55  83 115 147 186 237 290 341
#     4   9  18  35  63  89 115 149 192 231 278 338
#     4  10  19  34  56  80 110 148 190 234 282 342
#
# _framework density 19.208390000000001
#
# number of rings (size 3 to 8) (size 9 to 14) (size 15 to 20)
#    0.000    1.636    1.818    4.091    0.000    2.545 
#    0.000    5.455    0.000    2.727    0.000    0.000 
#    0.000    4.364    0.000    0.000    0.000    0.000 
#
# Total GULP energy -545637.230410 kJ/mol
# GULP energy per Si atom -12400.846146 kJ/mol
# Density = 1.916467 g / cm^3
# Si number density = 19.208390 Si / 1000 Ang^3
#
#
#
# Elastic Constant Matrix: (Units=GPa)
#
#
# Indices 1 2 3 4 5 6 
#
# 1 158.4380 44.1463 62.9645 0.0000 0.0000 0.0000
# 2 44.1463 61.9485 29.5842 0.0000 0.0000 0.0000
# 3 62.9645 29.5842 116.2278 0.0000 0.0000 0.0000
# 4 0.0000 0.0000 0.0000 40.3523 0.0000 0.0000
# 5 0.0000 0.0000 0.0000 0.0000 49.2161 0.0000
# 6 0.0000 0.0000 0.0000 0.0000 0.0000 19.8044
#
#
#
# Elastic Compliance Matrix: (Units=1/GPa)
#
#
# Indices 1 2 3 4 5 6 
#
# 1 0.009108 -0.004706 -0.003736 0.000000 0.000000 0.000000
# 2 -0.004706 0.020808 -0.002747 0.000000 0.000000 0.000000
# 3 -0.003736 -0.002747 0.011327 0.000000 0.000000 0.000000
# 4 0.000000 0.000000 0.000000 0.024782 0.000000 0.000000
# 5 0.000000 0.000000 0.000000 0.000000 0.020319 0.000000
# 6 0.000000 0.000000 0.000000 0.000000 0.000000 0.050494
#
#
# Mechanical properties :
#
#
# Convention : Reuss Voigt Hill
#
# Bulk Modulus (GPa) = 53.01002 67.77825 60.39413
# Shear Modulus (GPa) = 30.21090 35.20250 32.70670
#
# Velocity S-wave (km/s) = 3.97015 4.28561 4.13089
# Velocity P-wave (km/s) = 6.97663 7.73634 7.36628
#
# Compressibility (1/GPa) = 0.01886436
#
# Stress axis : x y z
#
# Youngs Moduli (GPa) = 109.79774 48.05833 88.28532
#
# Poissons Ratio (x) = 0.22617 0.32984
# Poissons Ratio (y) = 0.51673 0.24251
# Poissons Ratio (z) = 0.41021 0.13201
#
# Static dielectric constant tensor:
#      x y z
#    x 3.963460 0.000000 0.000000 
#    y 0.000000 3.365220 0.000000 
#    z 0.000000 0.000000 3.959220 
# 
# 
# High freq. dielectric constant tensor:
#      x y z
#    x 1.757270 0.000000 0.000000 
#    y 0.000000 1.730720 0.000000 
#    z 0.000000 0.000000 1.751190 
# 
# From -- ./inp_files/71076.got.cif
#   From: 2010.03.12/outbox.cif.g09.slc.cpg/sg65_36_cif.got.tgz:71076.got - 2010.04.10 20:52:16.
