data_PCOD8269604
_publ_section_title
;
Structure prediction by ZEFSAII (Michael W. Deem and Ramdas Pophale) SiO2 
 PCOD8269604
Probable space group: C M M M
;
_chemical_formula_sum "Si O2"
_cell_formula_units_Z 88
_cell_length_a 28.480140
_cell_length_b 9.100385
_cell_length_c 17.717783
_cell_angle_alpha 90.000000
_cell_angle_beta 90.000000
_cell_angle_gamma 90.000000
_cell_volume 4592.099230
_symmetry_space_group_name_H-M "C M M M"
_symmetry_group_IT_number 65
_symmetry_cell_setting 'orthorhombic'
loop_
_space_group_symop_operation_xyz
x,y,z
-x,-y,z
x,-y,-z
-x,y,-z
-x,-y,-z
x,y,-z
-x,y,z
x,-y,z
1/2+x,1/2+y,z
1/2-x,1/2-y,z
1/2+x,1/2-y,-z
1/2-x,1/2+y,-z
1/2-x,1/2-y,-z
1/2+x,1/2+y,-z
1/2-x,1/2+y,z
1/2+x,1/2-y,z
loop_
_atom_site_type_symbol
_atom_site_label
_atom_site_fract_x
_atom_site_fract_y
_atom_site_fract_z
Si Si1 0.204376 0.830296 0.186371
Si Si2 0.446167 0.173635 0.000000
Si Si3 0.887365 0.668242 0.585808
Si Si4 0.797108 0.173441 0.360101
Si Si5 0.102926 0.828376 0.137768
Si Si6 0.445224 0.331135 0.706660
O O1 0.250000 0.750000 0.152373
O O2 0.194993 0.784342 0.272731
O O3 0.158363 0.790990 0.137837
O O4 0.216092 0.000000 0.181698
O O5 0.421177 0.233961 0.073827
O O6 0.500000 0.226100 0.000000
O O7 0.442025 0.000000 0.000000
O O8 0.905188 0.679744 0.500000
O O9 0.876910 0.500000 0.608450
O O10 0.840410 0.763236 0.593512
O O11 0.928691 0.730908 0.637825
O O12 0.750000 0.250000 0.390833
O O13 0.793637 0.000000 0.373168
O O14 0.081258 0.781906 0.217717
O O15 0.094005 0.000000 0.121861
O O16 0.500000 0.307271 0.719872
O O17 0.432921 0.500000 0.687624
#
# Coordination Sequence:
#
# PCOD8269604 Si02
#       6
#    16   8  16  16  16  16
#     4   9  18  33  57  88 118 148 188 233 280 338
#     4  11  25  41  58  89 126 155 190 239 292 341
#     4  11  24  39  55  80 116 156 197 242 294 350
#     4  10  19  35  58  85 116 150 192 241 291 346
#     4  10  20  39  64  89 117 153 194 235 284 345
#     4  10  21  39  63  87 111 146 195 246 297 353
#
# _framework density 19.163349
#
# number of rings (size 3 to 8) (size 9 to 14) (size 15 to 20)
#    0.000    1.909    1.818    1.909    0.000    6.182 
#    0.000    2.273    0.000    0.000    0.000    0.000 
#    0.000    0.000    0.000    0.000    0.000    0.000 
#
# Total GULP energy -545771.495002 kJ/mol
# GULP energy per Si atom -12403.897614 kJ/mol
# Density = 1.911973 g / cm^3
# Si number density = 19.163349 Si / 1000 Ang^3
#
#
#
# Elastic Constant Matrix: (Units=GPa)
#
#
# Indices 1 2 3 4 5 6 
#
# 1 121.9489 52.8135 55.3394 0.0000 0.0000 0.0000
# 2 52.8135 86.9408 47.9809 0.0000 0.0000 0.0000
# 3 55.3394 47.9809 88.8591 0.0000 0.0000 0.0000
# 4 0.0000 0.0000 0.0000 29.0502 0.0000 0.0000
# 5 0.0000 0.0000 0.0000 0.0000 13.9589 0.0000
# 6 0.0000 0.0000 0.0000 0.0000 0.0000 37.3111
#
#
#
# Elastic Compliance Matrix: (Units=1/GPa)
#
#
# Indices 1 2 3 4 5 6 
#
# 1 0.012679 -0.004764 -0.005324 0.000000 0.000000 0.000000
# 2 -0.004764 0.018175 -0.006847 0.000000 0.000000 0.000000
# 3 -0.005324 -0.006847 0.018266 0.000000 0.000000 0.000000
# 4 0.000000 0.000000 0.000000 0.034423 0.000000 0.000000
# 5 0.000000 0.000000 0.000000 0.000000 0.071639 0.000000
# 6 0.000000 0.000000 0.000000 0.000000 0.000000 0.026802
#
#
# Mechanical properties :
#
#
# Convention : Reuss Voigt Hill
#
# Bulk Modulus (GPa) = 65.57004 67.77960 66.67482
# Shear Modulus (GPa) = 22.63087 25.50505 24.06796
#
# Velocity S-wave (km/s) = 3.44022 3.65215 3.54776
# Velocity P-wave (km/s) = 7.07607 7.29592 7.18684
#
# Compressibility (1/GPa) = 0.01525087
#
# Stress axis : x y z
#
# Youngs Moduli (GPa) = 78.86841 55.02169 54.74521
#
# Poissons Ratio (x) = 0.26213 0.29146
# Poissons Ratio (y) = 0.37573 0.37483
# Poissons Ratio (z) = 0.41989 0.37672
#
# Static dielectric constant tensor:
#      x y z
#    x 3.664580 0.000000 0.000000 
#    y 0.000000 3.566300 0.000000 
#    z 0.000000 0.000000 3.397200 
# 
# 
# High freq. dielectric constant tensor:
#      x y z
#    x 1.757950 0.000000 0.000000 
#    y 0.000000 1.745980 0.000000 
#    z 0.000000 0.000000 1.731250 
# 
# From -- ./inp_files/50433.got.cif
#   From: 2010.03.12/outbox.cif.g09.slc.cpg/sg65_26_cif.got.tgz:50433.got - 2010.04.10 20:52:16.
