data_PCOD8269504
_publ_section_title
;
Structure prediction by ZEFSAII (Michael W. Deem and Ramdas Pophale) SiO2 
 PCOD8269504
Probable space group: C M M M
;
_chemical_formula_sum "Si O2"
_cell_formula_units_Z 56
_cell_length_a 14.457504
_cell_length_b 26.340631
_cell_length_c 7.368211
_cell_angle_alpha 90.000000
_cell_angle_beta 90.000000
_cell_angle_gamma 90.000000
_cell_volume 2805.960478
_symmetry_space_group_name_H-M "C M M M"
_symmetry_group_IT_number 65
_symmetry_cell_setting 'orthorhombic'
loop_
_space_group_symop_operation_xyz
x,y,z
-x,-y,z
x,-y,-z
-x,y,-z
-x,-y,-z
x,y,-z
-x,y,z
x,-y,z
1/2+x,1/2+y,z
1/2-x,1/2-y,z
1/2+x,1/2-y,-z
1/2-x,1/2+y,-z
1/2-x,1/2-y,-z
1/2+x,1/2+y,-z
1/2-x,1/2+y,z
1/2+x,1/2-y,z
loop_
_atom_site_type_symbol
_atom_site_label
_atom_site_fract_x
_atom_site_fract_y
_atom_site_fract_z
Si Si1 0.398723 0.834313 0.785392
Si Si2 0.791262 0.124737 0.784969
Si Si3 0.893083 0.940064 0.500000
Si Si4 0.894904 0.222467 0.210179
O O1 0.500000 0.852868 0.713552
O O2 0.318375 0.874311 0.734029
O O3 0.375852 0.778165 0.703908
O O4 0.403810 0.828063 0.000000
O O5 0.841615 0.079411 0.680727
O O6 0.830977 0.178160 0.708821
O O7 0.807882 0.117021 0.000000
O O8 0.000000 0.922483 0.500000
O O9 0.885266 0.000000 0.500000
O O10 0.000000 0.206119 0.246675
O O11 0.871263 0.225486 0.000000
#
# Coordination Sequence:
#
# PCOD8269504 Si02
#       4
#    16  16   8  16
#     4   8  14  26  48  81 118 149 175 207 247 297
#     4  10  19  34  58  81 105 143 182 212 255 315
#     4  11  26  44  58  77 103 127 166 230 286 321
#     4   8  13  23  44  77 113 145 176 208 246 299
#
# _framework density 19.957514
#
# number of rings (size 3 to 8) (size 9 to 14) (size 15 to 20)
#    0.000    3.000    0.000    3.429    0.000    5.714 
#    0.000    5.000    0.000    5.143    0.000    4.000 
#    0.000    0.000    0.000    0.000    0.000    0.000 
#
# Total GULP energy -346877.631775 kJ/mol
# GULP energy per Si atom -12388.486849 kJ/mol
# Density = 1.991209 g / cm^3
# Si number density = 19.957514 Si / 1000 Ang^3
#
#
#
# Elastic Constant Matrix: (Units=GPa)
#
#
# Indices 1 2 3 4 5 6 
#
# 1 117.7419 67.3444 32.0015 0.0000 0.0000 0.0000
# 2 67.3444 74.7529 29.4374 0.0000 0.0000 0.0000
# 3 32.0015 29.4374 66.2743 0.0000 0.0000 0.0000
# 4 0.0000 0.0000 0.0000 32.1108 0.0000 0.0000
# 5 0.0000 0.0000 0.0000 0.0000 10.4634 0.0000
# 6 0.0000 0.0000 0.0000 0.0000 0.0000 27.9232
#
#
#
# Elastic Compliance Matrix: (Units=1/GPa)
#
#
# Indices 1 2 3 4 5 6 
#
# 1 0.017692 -0.015240 -0.001774 0.000000 0.000000 0.000000
# 2 -0.015240 0.029342 -0.005674 0.000000 0.000000 0.000000
# 3 -0.001774 -0.005674 0.018465 0.000000 0.000000 0.000000
# 4 0.000000 0.000000 0.000000 0.031142 0.000000 0.000000
# 5 0.000000 0.000000 0.000000 0.000000 0.095571 0.000000
# 6 0.000000 0.000000 0.000000 0.000000 0.000000 0.035812
#
#
# Mechanical properties :
#
#
# Convention : Reuss Voigt Hill
#
# Bulk Modulus (GPa) = 49.69245 57.37063 53.53154
# Shear Modulus (GPa) = 17.85023 22.76520 20.30772
#
# Velocity S-wave (km/s) = 2.99392 3.38106 3.19336
# Velocity P-wave (km/s) = 6.07491 6.63709 6.36221
#
# Compressibility (1/GPa) = 0.02012378
#
# Stress axis : x y z
#
# Youngs Moduli (GPa) = 56.52227 34.08122 54.15544
#
# Poissons Ratio (x) = 0.51941 0.09605
# Poissons Ratio (y) = 0.86142 0.30727
# Poissons Ratio (z) = 0.10024 0.19337
#
# Static dielectric constant tensor:
#      x y z
#    x 4.120470 0.000000 0.000000 
#    y 0.000000 2.956770 0.000000 
#    z 0.000000 0.000000 3.293800 
# 
# 
# High freq. dielectric constant tensor:
#      x y z
#    x 1.797980 0.000000 0.000000 
#    y 0.000000 1.721430 0.000000 
#    z 0.000000 0.000000 1.757480 
# 
# From -- ./inp_files/6223.got.cif
#   From: 2010.03.12/outbox.cif.g09.slc.cpg/sg65_4_cif.got.tgz:6223.got - 2010.04.10 20:52:16.
