data_PCOD8269784
_publ_section_title
;
Structure prediction by ZEFSAII (Michael W. Deem and Ramdas Pophale) SiO2 
 PCOD8269784
Probable space group: C M M M
;
_chemical_formula_sum "Si O2"
_cell_formula_units_Z 80
_cell_length_a 9.620037
_cell_length_b 28.825773
_cell_length_c 17.542430
_cell_angle_alpha 90.000000
_cell_angle_beta 90.000000
_cell_angle_gamma 90.000000
_cell_volume 4864.603601
_symmetry_space_group_name_H-M "C M M M"
_symmetry_group_IT_number 65
_symmetry_cell_setting 'orthorhombic'
loop_
_space_group_symop_operation_xyz
x,y,z
-x,-y,z
x,-y,-z
-x,y,-z
-x,-y,-z
x,y,-z
-x,y,z
x,-y,z
1/2+x,1/2+y,z
1/2-x,1/2-y,z
1/2+x,1/2-y,-z
1/2-x,1/2+y,-z
1/2-x,1/2-y,-z
1/2+x,1/2+y,-z
1/2-x,1/2+y,z
1/2+x,1/2-y,z
loop_
_atom_site_type_symbol
_atom_site_label
_atom_site_fract_x
_atom_site_fract_y
_atom_site_fract_z
Si Si1 0.000000 0.051399 0.088830
Si Si2 0.150314 0.447836 0.776163
Si Si3 0.727360 0.105965 0.911946
Si Si4 0.844672 0.709520 0.088960
Si Si5 0.340412 0.944734 0.500000
Si Si6 0.841277 0.055273 0.641638
O O1 0.870919 0.082431 0.112890
O O2 0.000000 0.000000 0.128544
O O3 0.000000 0.042946 0.000000
O O4 0.191025 0.500000 0.800974
O O5 0.123650 0.417443 0.852318
O O6 0.268392 0.427500 0.719843
O O7 0.000000 0.447959 0.733637
O O8 0.732633 0.160848 0.897353
O O9 0.684795 0.095661 0.000000
O O10 0.750000 0.750000 0.126503
O O11 0.000000 0.709171 0.125364
O O12 0.860525 0.719505 0.000000
O O13 0.500000 0.925673 0.500000
O O14 0.253649 0.925889 0.572571
O O15 0.344514 0.000000 0.500000
O O16 0.000000 0.074375 0.636791
O O17 0.842882 0.000000 0.639134
#
# Coordination Sequence:
#
# PCOD8269784 Si02
#       6
#     8  16  16  16   8  16
#     4   9  18  30  44  64  88 115 153 197 234 275
#     4  10  20  31  43  61  87 118 153 192 232 273
#     4  10  20  32  47  64  87 119 157 197 241 284
#     4   9  18  31  48  67  87 110 143 191 246 297
#     4   9  15  25  43  63  83 107 140 181 224 269
#     4   9  17  28  42  60  83 112 146 183 223 268
#
# _framework density 16.445328
#
# number of rings (size 3 to 8) (size 9 to 14) (size 15 to 20)
#    0.000    2.600    0.000    2.100    2.800    6.000 
#    0.000    1.000    0.000    0.000    0.000    0.000 
#    0.000    0.000    0.000    0.900    0.000    7.400 
#
# Total GULP energy -495567.604441 kJ/mol
# GULP energy per Si atom -12389.190111 kJ/mol
# Density = 1.640790 g / cm^3
# Si number density = 16.445328 Si / 1000 Ang^3
#
#
#
# Elastic Constant Matrix: (Units=GPa)
#
#
# Indices 1 2 3 4 5 6 
#
# 1 133.0233 45.0947 37.2169 0.0000 0.0000 0.0000
# 2 45.0947 83.3979 25.2637 0.0000 0.0000 0.0000
# 3 37.2169 25.2637 86.3304 0.0000 0.0000 0.0000
# 4 0.0000 0.0000 0.0000 4.1452 0.0000 0.0000
# 5 0.0000 0.0000 0.0000 0.0000 18.2626 0.0000
# 6 0.0000 0.0000 0.0000 0.0000 0.0000 18.1079
#
#
#
# Elastic Compliance Matrix: (Units=1/GPa)
#
#
# Indices 1 2 3 4 5 6 
#
# 1 0.009844 -0.004430 -0.002947 0.000000 0.000000 0.000000
# 2 -0.004430 0.015151 -0.002524 0.000000 0.000000 0.000000
# 3 -0.002947 -0.002524 0.013593 0.000000 0.000000 0.000000
# 4 0.000000 0.000000 0.000000 0.241245 0.000000 0.000000
# 5 0.000000 0.000000 0.000000 0.000000 0.054757 0.000000
# 6 0.000000 0.000000 0.000000 0.000000 0.000000 0.055224
#
#
# Mechanical properties :
#
#
# Convention : Reuss Voigt Hill
#
# Bulk Modulus (GPa) = 53.23470 57.54469 55.38969
# Shear Modulus (GPa) = 12.02278 21.11489 16.56883
#
# Velocity S-wave (km/s) = 2.70677 3.58710 3.17757
# Velocity P-wave (km/s) = 6.49691 7.22661 6.87145
#
# Compressibility (1/GPa) = 0.01878474
#
# Stress axis : x y z
#
# Youngs Moduli (GPa) = 101.58689 66.00393 73.56958
#
# Poissons Ratio (x) = 0.29239 0.21683
# Poissons Ratio (y) = 0.45002 0.18569
# Poissons Ratio (z) = 0.29941 0.16659
#
# Static dielectric constant tensor:
#      x y z
#    x 3.504220 0.000000 0.000000 
#    y 0.000000 2.749810 0.000000 
#    z 0.000000 0.000000 2.884590 
# 
# 
# High freq. dielectric constant tensor:
#      x y z
#    x 1.657910 0.000000 0.000000 
#    y 0.000000 1.577540 0.000000 
#    z 0.000000 0.000000 1.601710 
# 
# From -- ./inp_files/60538.got.cif
#   From: 2010.03.12/outbox.cif.g09.slc.cpg/sg65_31_cif.got.tgz:60538.got - 2010.04.10 20:52:16.
