data_PCOD8269008
_publ_section_title
;
Structure prediction by ZEFSAII (Michael W. Deem and Ramdas Pophale) SiO2 
 PCOD8269008
Probable space group: C M M M
;
_chemical_formula_sum "Si O2"
_cell_formula_units_Z 72
_cell_length_a 19.134477
_cell_length_b 21.513658
_cell_length_c 9.656073
_cell_angle_alpha 90.000000
_cell_angle_beta 90.000000
_cell_angle_gamma 90.000000
_cell_volume 3974.947500
_symmetry_space_group_name_H-M "C M M M"
_symmetry_group_IT_number 65
_symmetry_cell_setting 'orthorhombic'
loop_
_space_group_symop_operation_xyz
x,y,z
-x,-y,z
x,-y,-z
-x,y,-z
-x,-y,-z
x,y,-z
-x,y,z
x,-y,z
1/2+x,1/2+y,z
1/2-x,1/2-y,z
1/2+x,1/2-y,-z
1/2-x,1/2+y,-z
1/2-x,1/2-y,-z
1/2+x,1/2+y,-z
1/2-x,1/2+y,z
1/2+x,1/2-y,z
loop_
_atom_site_type_symbol
_atom_site_label
_atom_site_fract_x
_atom_site_fract_y
_atom_site_fract_z
Si Si1 0.192355 0.428463 0.658357
Si Si2 0.158097 0.878565 0.337600
Si Si3 0.420137 0.136593 0.840268
Si Si4 0.921269 0.000000 0.335379
Si Si5 0.419784 0.720093 0.839620
O O1 0.169840 0.419026 0.500000
O O2 0.211419 0.500000 0.687662
O O3 0.260057 0.387124 0.692781
O O4 0.128064 0.408100 0.751425
O O5 0.143478 0.868710 0.500000
O O6 0.117059 0.938608 0.279756
O O7 0.132224 0.818599 0.255782
O O8 0.500000 0.119834 0.805645
O O9 0.405387 0.208221 0.804495
O O10 0.403881 0.123655 0.000000
O O11 0.918400 0.000000 0.500000
O O12 0.000000 0.000000 0.278403
O O13 0.500000 0.702949 0.805347
O O14 0.403753 0.706254 0.000000
#
# Coordination Sequence:
#
# PCOD8269008 Si02
#       5
#    16  16  16   8  16
#     4  10  21  37  55  78 111 143 173 218 270 315
#     4  10  19  33  53  78 108 142 179 216 258 314
#     4   9  20  39  59  78 103 138 179 221 267 321
#     4   9  16  28  49  75 102 137 178 214 249 297
#     4   9  19  36  55  77 108 141 175 221 270 312
#
# _framework density 18.113448000000002
#
# number of rings (size 3 to 8) (size 9 to 14) (size 15 to 20)
#    0.000    2.556    1.111    2.000    0.000    5.333 
#    0.000    9.444    0.000    2.000    0.000    0.000 
#    0.000    0.000    0.000    0.000    0.000    0.000 
#
# Total GULP energy -446460.448202 kJ/mol
# GULP energy per Si atom -12401.679117 kJ/mol
# Density = 1.807222 g / cm^3
# Si number density = 18.113448 Si / 1000 Ang^3
#
#
#
# Elastic Constant Matrix: (Units=GPa)
#
#
# Indices 1 2 3 4 5 6 
#
# 1 100.2637 41.1794 55.5123 0.0000 0.0000 0.0000
# 2 41.1794 50.6736 39.4994 0.0000 0.0000 0.0000
# 3 55.5123 39.4994 66.2847 0.0000 0.0000 0.0000
# 4 0.0000 0.0000 0.0000 608.1209 0.0000 0.0000
# 5 0.0000 0.0000 0.0000 0.0000 31.6717 0.0000
# 6 0.0000 0.0000 0.0000 0.0000 0.0000 37.8734
#
#
#
# Elastic Compliance Matrix: (Units=1/GPa)
#
#
# Indices 1 2 3 4 5 6 
#
# 1 0.019472 -0.005812 -0.012844 0.000000 0.000000 0.000000
# 2 -0.005812 0.038587 -0.018126 0.000000 0.000000 0.000000
# 3 -0.012844 -0.018126 0.036645 0.000000 0.000000 0.000000
# 4 0.000000 0.000000 0.000000 0.001644 0.000000 0.000000
# 5 0.000000 0.000000 0.000000 0.000000 0.031574 0.000000
# 6 0.000000 0.000000 0.000000 0.000000 0.000000 0.026404
#
#
# Mechanical properties :
#
#
# Convention : Reuss Voigt Hill
#
# Bulk Modulus (GPa) = 47.30756 54.40045 50.85401
# Shear Modulus (GPa) = 21.28234 140.93526 81.10880
#
# Velocity S-wave (km/s) = 3.43147 8.83040 6.69891
# Velocity P-wave (km/s) = 6.47102 11.57870 9.37924
#
# Compressibility (1/GPa) = 0.02113827
#
# Stress axis : x y z
#
# Youngs Moduli (GPa) = 51.35569 25.91579 27.28904
#
# Poissons Ratio (x) = 0.15062 0.35050
# Poissons Ratio (y) = 0.29848 0.49465
# Poissons Ratio (z) = 0.65962 0.46976
#
# Static dielectric constant tensor:
#      x y z
#    x 3.341100 0.000000 0.000000 
#    y 0.000000 3.269510 0.000000 
#    z 0.000000 0.000000 3.119000 
# 
# 
# High freq. dielectric constant tensor:
#      x y z
#    x 1.707420 0.000000 0.000000 
#    y 0.000000 1.703520 0.000000 
#    z 0.000000 0.000000 1.684530 
# 
# From -- ./inp_files/9220.got.cif
#   From: 2010.03.12/outbox.cif.g09.slc.cpg/sg65_5_cif.got.tgz:9220.got - 2010.04.10 20:52:16.
