data_PCOD8269279
_publ_section_title
;
Structure prediction by ZEFSAII (Michael W. Deem and Ramdas Pophale) SiO2 
 PCOD8269279
Probable space group: C M M M
;
_chemical_formula_sum "Si O2"
_cell_formula_units_Z 96
_cell_length_a 8.997591
_cell_length_b 23.706307
_cell_length_c 26.239409
_cell_angle_alpha 90.000000
_cell_angle_beta 90.000000
_cell_angle_gamma 90.000000
_cell_volume 5596.856874
_symmetry_space_group_name_H-M "C M M M"
_symmetry_group_IT_number 65
_symmetry_cell_setting 'orthorhombic'
loop_
_space_group_symop_operation_xyz
x,y,z
-x,-y,z
x,-y,-z
-x,y,-z
-x,-y,-z
x,y,-z
-x,y,z
x,-y,z
1/2+x,1/2+y,z
1/2-x,1/2-y,z
1/2+x,1/2-y,-z
1/2-x,1/2+y,-z
1/2-x,1/2-y,-z
1/2+x,1/2+y,-z
1/2-x,1/2+y,z
1/2+x,1/2-y,z
loop_
_atom_site_type_symbol
_atom_site_label
_atom_site_fract_x
_atom_site_fract_y
_atom_site_fract_z
Si Si1 0.324017 0.121362 0.761210
Si Si2 0.324808 0.000000 0.792453
Si Si3 0.325384 0.810242 0.336078
Si Si4 0.173692 0.690316 0.553775
Si Si5 0.324663 0.310362 0.148545
Si Si6 0.175883 0.500000 0.906804
Si Si7 0.669956 0.609803 0.057255
O O1 0.500000 0.127880 0.770283
O O2 0.273084 0.055932 0.762370
O O3 0.273082 0.145713 0.706661
O O4 0.238382 0.154217 0.804812
O O5 0.257596 0.000000 0.849467
O O6 0.500000 0.000000 0.797464
O O7 0.500000 0.799695 0.331950
O O8 0.250000 0.750000 0.326870
O O9 0.281795 0.837796 0.391770
O O10 0.215906 0.657565 0.500000
O O11 0.250000 0.750000 0.552211
O O12 0.000000 0.701401 0.554429
O O13 0.500000 0.303259 0.155279
O O14 0.250000 0.250000 0.147783
O O15 0.281234 0.341307 0.096054
O O16 0.229663 0.555032 0.936166
O O17 0.000000 0.500000 0.906547
O O18 0.500000 0.592059 0.067415
O O19 0.691740 0.633267 0.000000
#
# Coordination Sequence:
#
# PCOD8269279 Si02
#       7
#    16   8  16  16  16   8  16
#     4  10  19  34  52  71  96 125 159 197 239 284
#     4   9  18  32  52  73  95 122 153 195 238 277
#     4   9  17  27  43  66  93 125 157 190 232 280
#     4   8  13  22  36  57  86 119 154 190 227 269
#     4  11  23  37  54  74  97 127 160 192 234 284
#     4  11  20  34  57  82 102 123 158 199 239 280
#     4  10  22  39  56  75 101 130 158 192 237 286
#
# _framework density 17.152486
#
# number of rings (size 3 to 8) (size 9 to 14) (size 15 to 20)
#    0.000    2.333    1.667    1.500    0.000    4.333 
#    0.000    0.417    0.000    0.000    0.000    0.583 
#    0.000    4.667    0.000    0.000    0.000   80.167 
#
# Total GULP energy -594753.534289 kJ/mol
# GULP energy per Si atom -12390.698631 kJ/mol
# Density = 1.711345 g / cm^3
# Si number density = 17.152486 Si / 1000 Ang^3
#
#
#
# Elastic Constant Matrix: (Units=GPa)
#
#
# Indices 1 2 3 4 5 6 
#
# 1 39.7511 34.2711 35.6600 0.0000 0.0000 0.0000
# 2 34.2711 119.8402 75.5576 0.0000 0.0000 0.0000
# 3 35.6600 75.5576 184.9306 0.0000 0.0000 0.0000
# 4 0.0000 0.0000 0.0000 53.5945 0.0000 0.0000
# 5 0.0000 0.0000 0.0000 0.0000 19.1762 0.0000
# 6 0.0000 0.0000 0.0000 0.0000 0.0000 68.2671
#
#
#
# Elastic Compliance Matrix: (Units=1/GPa)
#
#
# Indices 1 2 3 4 5 6 
#
# 1 0.035073 -0.007767 -0.003590 0.000000 0.000000 0.000000
# 2 -0.007767 0.012960 -0.003797 0.000000 0.000000 0.000000
# 3 -0.003590 -0.003797 0.007651 0.000000 0.000000 0.000000
# 4 0.000000 0.000000 0.000000 0.018659 0.000000 0.000000
# 5 0.000000 0.000000 0.000000 0.000000 0.052148 0.000000
# 6 0.000000 0.000000 0.000000 0.000000 0.000000 0.014648
#
#
# Mechanical properties :
#
#
# Convention : Reuss Voigt Hill
#
# Bulk Modulus (GPa) = 39.40711 70.61103 55.00907
# Shear Modulus (GPa) = 27.79248 41.47645 34.63446
#
# Velocity S-wave (km/s) = 4.02968 4.92275 4.49844
# Velocity P-wave (km/s) = 6.68398 8.57714 7.68905
#
# Compressibility (1/GPa) = 0.02537613
#
# Stress axis : x y z
#
# Youngs Moduli (GPa) = 28.51210 77.16259 130.69930
#
# Poissons Ratio (x) = 0.59929 0.46919
# Poissons Ratio (y) = 0.22144 0.49631
# Poissons Ratio (z) = 0.10235 0.29301
#
# Static dielectric constant tensor:
#      x y z
#    x 2.062060 0.000000 0.000000 
#    y 0.000000 3.179720 0.000000 
#    z 0.000000 0.000000 3.932950 
# 
# 
# High freq. dielectric constant tensor:
#      x y z
#    x 1.656010 0.000000 0.000000 
#    y 0.000000 1.629870 0.000000 
#    z 0.000000 0.000000 1.683640 
# 
# From -- ./inp_files/73479.got.cif
#   From: 2010.03.12/outbox.cif.g09.slc.cpg/sg65_37_cif.got.tgz:73479.got - 2010.04.10 20:52:16.
