data_PCOD8269230
_publ_section_title
;
Structure prediction by ZEFSAII (Michael W. Deem and Ramdas Pophale) SiO2 
 PCOD8269230
Probable space group: C M M M
;
_chemical_formula_sum "Si O2"
_cell_formula_units_Z 72
_cell_length_a 16.364804
_cell_length_b 24.701601
_cell_length_c 8.885388
_cell_angle_alpha 90.000000
_cell_angle_beta 90.000000
_cell_angle_gamma 90.000000
_cell_volume 3591.801335
_symmetry_space_group_name_H-M "C M M M"
_symmetry_group_IT_number 65
_symmetry_cell_setting 'orthorhombic'
loop_
_space_group_symop_operation_xyz
x,y,z
-x,-y,z
x,-y,-z
-x,y,-z
-x,-y,-z
x,y,-z
-x,y,z
x,-y,z
1/2+x,1/2+y,z
1/2-x,1/2-y,z
1/2+x,1/2-y,-z
1/2-x,1/2+y,-z
1/2-x,1/2-y,-z
1/2+x,1/2+y,-z
1/2-x,1/2+y,z
1/2+x,1/2-y,z
loop_
_atom_site_type_symbol
_atom_site_label
_atom_site_fract_x
_atom_site_fract_y
_atom_site_fract_z
Si Si1 0.171652 0.061287 0.173266
Si Si2 0.681876 0.108054 0.676948
Si Si3 0.500000 0.400911 0.822062
Si Si4 0.334895 0.221804 0.821365
Si Si5 0.500000 0.280514 0.821229
Si Si6 0.092374 0.500000 0.321164
O O1 0.223774 0.100320 0.279242
O O2 0.079053 0.066111 0.231219
O O3 0.201472 0.000000 0.192810
O O4 0.180315 0.080460 0.000000
O O5 0.670928 0.114711 0.500000
O O6 0.651226 0.162100 0.756195
O O7 0.633784 0.055218 0.739842
O O8 0.500000 0.340799 0.753569
O O9 0.500000 0.396632 0.000000
O O10 0.250000 0.250000 0.763526
O O11 0.415592 0.253416 0.763905
O O12 0.331939 0.218062 0.000000
O O13 0.500000 0.280054 0.000000
O O14 0.098352 0.500000 0.500000
O O15 0.000000 0.500000 0.262820
#
# Coordination Sequence:
#
# PCOD8269230 Si02
#       6
#    16  16   8  16   8   8
#     4  10  19  33  56  85 116 148 186 227 270 325
#     4  11  22  37  59  83 113 149 188 232 281 337
#     4   9  17  32  56  84 111 147 188 224 268 328
#     4  10  21  38  59  83 113 148 186 233 285 335
#     4   9  18  33  55  81 109 142 183 231 283 334
#     4   9  20  38  57  78 107 148 190 227 277 339
#
# _framework density 20.045652
#
# number of rings (size 3 to 8) (size 9 to 14) (size 15 to 20)
#    0.000    2.111    1.111    2.333    1.556    5.333 
#    0.000    0.556    0.000    5.333    0.000    0.000 
#    0.000    0.000    0.000    0.000    0.000    0.000 
#
# Total GULP energy -446294.199273 kJ/mol
# GULP energy per Si atom -12397.061091 kJ/mol
# Density = 2.000003 g / cm^3
# Si number density = 20.045652 Si / 1000 Ang^3
#
#
#
# Elastic Constant Matrix: (Units=GPa)
#
#
# Indices 1 2 3 4 5 6 
#
# 1 121.2721 32.3685 14.9565 0.0000 0.0000 0.0000
# 2 32.3685 111.9312 19.8332 0.0000 0.0000 0.0000
# 3 14.9565 19.8332 16.5634 0.0000 0.0000 0.0000
# 4 0.0000 0.0000 0.0000 27.4003 0.0000 0.0000
# 5 0.0000 0.0000 0.0000 0.0000 13.7208 0.0000
# 6 0.0000 0.0000 0.0000 0.0000 0.0000 35.6074
#
#
#
# Elastic Compliance Matrix: (Units=1/GPa)
#
#
# Indices 1 2 3 4 5 6 
#
# 1 0.009488 -0.001556 -0.006705 0.000000 0.000000 0.000000
# 2 -0.001556 0.011595 -0.012479 0.000000 0.000000 0.000000
# 3 -0.006705 -0.012479 0.081371 0.000000 0.000000 0.000000
# 4 0.000000 0.000000 0.000000 0.036496 0.000000 0.000000
# 5 0.000000 0.000000 0.000000 0.000000 0.072882 0.000000
# 6 0.000000 0.000000 0.000000 0.000000 0.000000 0.028084
#
#
# Mechanical properties :
#
#
# Convention : Reuss Voigt Hill
#
# Bulk Modulus (GPa) = 16.40018 42.67590 29.53804
# Shear Modulus (GPa) = 16.57157 27.51960 22.04558
#
# Velocity S-wave (km/s) = 2.87834 3.70921 3.31987
# Velocity P-wave (km/s) = 4.38699 6.29920 5.42796
#
# Compressibility (1/GPa) = 0.06097492
#
# Stress axis : x y z
#
# Youngs Moduli (GPa) = 105.39568 86.24255 12.28932
#
# Poissons Ratio (x) = 0.13417 0.08240
# Poissons Ratio (y) = 0.16397 0.15336
# Poissons Ratio (z) = 0.70665 1.07626
#
# Static dielectric constant tensor:
#      x y z
#    x 3.915230 0.000000 0.000000 
#    y 0.000000 3.770420 0.000000 
#    z 0.000000 0.000000 3.155800 
# 
# 
# High freq. dielectric constant tensor:
#      x y z
#    x 1.796070 0.000000 0.000000 
#    y 0.000000 1.795750 0.000000 
#    z 0.000000 0.000000 1.732300 
# 
# From -- ./inp_files/7366.got.cif
#   From: 2010.03.12/outbox.cif.g09.slc.cpg/sg65_4_cif.got.tgz:7366.got - 2010.04.10 20:52:16.
