data_PCOD8269171
_publ_section_title
;
Structure prediction by ZEFSAII (Michael W. Deem and Ramdas Pophale) SiO2 
 PCOD8269171
Probable space group: C M M M
;
_chemical_formula_sum "Si O2"
_cell_formula_units_Z 104
_cell_length_a 18.361641
_cell_length_b 8.894421
_cell_length_c 33.202864
_cell_angle_alpha 90.000000
_cell_angle_beta 90.000000
_cell_angle_gamma 90.000000
_cell_volume 5422.564426
_symmetry_space_group_name_H-M "C M M M"
_symmetry_group_IT_number 65
_symmetry_cell_setting 'orthorhombic'
loop_
_space_group_symop_operation_xyz
x,y,z
-x,-y,z
x,-y,-z
-x,y,-z
-x,-y,-z
x,y,-z
-x,y,z
x,-y,z
1/2+x,1/2+y,z
1/2-x,1/2-y,z
1/2+x,1/2-y,-z
1/2-x,1/2+y,-z
1/2-x,1/2-y,-z
1/2+x,1/2+y,-z
1/2-x,1/2+y,z
1/2+x,1/2-y,z
loop_
_atom_site_type_symbol
_atom_site_label
_atom_site_fract_x
_atom_site_fract_y
_atom_site_fract_z
Si Si1 0.584121 0.672534 0.953996
Si Si2 0.670843 0.821245 0.500000
Si Si3 0.672197 0.176541 0.114441
Si Si4 0.918057 0.678495 0.422699
Si Si5 0.084165 0.326859 0.808075
Si Si6 0.828697 0.321731 0.654556
Si Si7 0.084480 0.824627 0.725546
O O1 0.500000 0.713951 0.948095
O O2 0.598379 0.500000 0.942044
O O3 0.631239 0.779736 0.926193
O O4 0.607717 0.700975 0.000000
O O5 0.750000 0.750000 0.500000
O O6 0.626804 0.762829 0.461129
O O7 0.678884 0.000000 0.500000
O O8 0.750000 0.250000 0.115520
O O9 0.628134 0.232630 0.153467
O O10 0.681305 0.000000 0.115091
O O11 0.921879 0.500000 0.423523
O O12 0.878013 0.735277 0.382519
O O13 0.000000 0.745274 0.423703
O O14 0.101882 0.500000 0.797778
O O15 0.106961 0.224867 0.770322
O O16 0.000000 0.305451 0.818788
O O17 0.820611 0.500000 0.654872
O O18 0.750000 0.250000 0.649854
O O19 0.866353 0.269596 0.695387
O O20 0.000000 0.786350 0.717360
O O21 0.100840 0.000000 0.720197
#
# Coordination Sequence:
#
# PCOD8269171 Si02
#       7
#    16   8  16  16  16  16  16
#     4   9  19  37  60  84 110 142 181 225 273 325
#     4  10  19  33  55  81 111 142 176 222 270 322
#     4  11  23  37  55  81 113 148 184 224 271 322
#     4   9  18  33  55  81 106 139 184 227 268 319
#     4   9  19  37  59  81 107 142 184 228 274 325
#     4  11  22  36  55  79 110 146 183 225 274 327
#     4  10  21  37  58  84 111 141 180 224 271 324
#
# _framework density 19.179117999999999
#
# number of rings (size 3 to 8) (size 9 to 14) (size 15 to 20)
#    0.000    2.154    0.000    3.462    0.000    5.846 
#    0.000    4.615    0.000    2.769    0.000    0.000 
#    0.000    0.000    0.000    0.000    0.000    0.000 
#
# Total GULP energy -644979.556732 kJ/mol
# GULP energy per Si atom -12403.453014 kJ/mol
# Density = 1.913547 g / cm^3
# Si number density = 19.179118 Si / 1000 Ang^3
#
#
#
# Elastic Constant Matrix: (Units=GPa)
#
#
# Indices 1 2 3 4 5 6 
#
# 1 139.5348 44.5376 87.3148 0.0000 0.0000 0.0000
# 2 44.5376 59.6264 44.2098 0.0000 0.0000 0.0000
# 3 87.3148 44.2098 141.1767 0.0000 0.0000 0.0000
# 4 0.0000 0.0000 0.0000 20.0593 0.0000 0.0000
# 5 0.0000 0.0000 0.0000 0.0000 27.3684 0.0000
# 6 0.0000 0.0000 0.0000 0.0000 0.0000 89.7583
#
#
#
# Elastic Compliance Matrix: (Units=1/GPa)
#
#
# Indices 1 2 3 4 5 6 
#
# 1 0.012646 -0.004750 -0.006334 0.000000 0.000000 0.000000
# 2 -0.004750 0.023627 -0.004461 0.000000 0.000000 0.000000
# 3 -0.006334 -0.004461 0.012398 0.000000 0.000000 0.000000
# 4 0.000000 0.000000 0.000000 0.049852 0.000000 0.000000
# 5 0.000000 0.000000 0.000000 0.000000 0.036538 0.000000
# 6 0.000000 0.000000 0.000000 0.000000 0.000000 0.011141
#
#
# Mechanical properties :
#
#
# Convention : Reuss Voigt Hill
#
# Bulk Modulus (GPa) = 56.88001 76.94025 66.91013
# Shear Modulus (GPa) = 27.29965 38.38891 32.84428
#
# Velocity S-wave (km/s) = 3.77690 4.47878 4.14273
# Velocity P-wave (km/s) = 6.98152 8.18228 7.60563
#
# Compressibility (1/GPa) = 0.01758087
#
# Stress axis : x y z
#
# Youngs Moduli (GPa) = 79.07443 42.32531 80.65920
#
# Poissons Ratio (x) = 0.20103 0.51090
# Poissons Ratio (y) = 0.37558 0.35983
# Poissons Ratio (z) = 0.50087 0.18882
#
# Static dielectric constant tensor:
#      x y z
#    x 3.590220 0.000000 0.000000 
#    y 0.000000 3.339250 0.000000 
#    z 0.000000 0.000000 3.655010 
# 
# 
# High freq. dielectric constant tensor:
#      x y z
#    x 1.751960 0.000000 0.000000 
#    y 0.000000 1.731580 0.000000 
#    z 0.000000 0.000000 1.760610 
# 
# From -- ./inp_files/78192.got.cif
#   From: 2010.03.12/outbox.cif.g09.slc.cpg/sg65_40_cif.got.tgz:78192.got - 2010.04.10 20:52:16.
