data_PCOD8269195
_publ_section_title
;
Structure prediction by ZEFSAII (Michael W. Deem and Ramdas Pophale) SiO2 
 PCOD8269195
Probable space group: C M M M
;
_chemical_formula_sum "Si O2"
_cell_formula_units_Z 72
_cell_length_a 27.449088
_cell_length_b 14.378287
_cell_length_c 9.057111
_cell_angle_alpha 90.000000
_cell_angle_beta 90.000000
_cell_angle_gamma 90.000000
_cell_volume 3574.577834
_symmetry_space_group_name_H-M "C M M M"
_symmetry_group_IT_number 65
_symmetry_cell_setting 'orthorhombic'
loop_
_space_group_symop_operation_xyz
x,y,z
-x,-y,z
x,-y,-z
-x,y,-z
-x,-y,-z
x,y,-z
-x,y,z
x,-y,z
1/2+x,1/2+y,z
1/2-x,1/2-y,z
1/2+x,1/2-y,-z
1/2-x,1/2+y,-z
1/2-x,1/2-y,-z
1/2+x,1/2+y,-z
1/2-x,1/2+y,z
1/2+x,1/2-y,z
loop_
_atom_site_type_symbol
_atom_site_label
_atom_site_fract_x
_atom_site_fract_y
_atom_site_fract_z
Si Si1 0.266642 0.145096 0.832464
Si Si2 0.000000 0.109773 0.824610
Si Si3 0.175862 0.100924 0.336228
Si Si4 0.374847 0.893191 0.826770
Si Si5 0.087163 0.779087 0.676745
O O1 0.250000 0.250000 0.812931
O O2 0.225574 0.086222 0.752171
O O3 0.320104 0.125449 0.765880
O O4 0.267696 0.111485 0.000000
O O5 0.953848 0.159838 0.753411
O O6 0.000000 0.000000 0.785505
O O7 0.000000 0.124951 0.000000
O O8 0.190078 0.133527 0.500000
O O9 0.138226 0.175495 0.270133
O O10 0.149693 0.000000 0.337559
O O11 0.412281 0.826843 0.737457
O O12 0.389673 0.000000 0.796175
O O13 0.378400 0.869136 0.000000
O O14 0.080078 0.780628 0.500000
#
# Coordination Sequence:
#
# PCOD8269195 Si02
#       5
#    16   8  16  16  16
#     4  10  19  33  55  82 116 158 204 250 292 340
#     4  11  25  45  70  97 122 151 189 236 296 363
#     4  10  21  35  53  81 117 156 196 239 291 351
#     4  10  21  38  59  85 121 164 208 253 300 349
#     4  11  23  40  63  89 121 156 195 245 300 359
#
# _framework density 20.142237999999999
#
# number of rings (size 3 to 8) (size 9 to 14) (size 15 to 20)
#    0.000    1.667    2.222    2.333    0.000    5.778 
#    0.000    0.556    0.000    3.333    0.000    0.000 
#    0.000    0.000    0.000    0.000    0.000    0.000 
#
# Total GULP energy -446273.214072 kJ/mol
# GULP energy per Si atom -12396.478169 kJ/mol
# Density = 2.009639 g / cm^3
# Si number density = 20.142238 Si / 1000 Ang^3
#
#
#
# Elastic Constant Matrix: (Units=GPa)
#
#
# Indices 1 2 3 4 5 6 
#
# 1 94.9678 60.3887 48.9343 0.0000 0.0000 0.0000
# 2 60.3887 138.6443 59.8215 0.0000 0.0000 0.0000
# 3 48.9343 59.8215 80.6450 0.0000 0.0000 0.0000
# 4 0.0000 0.0000 0.0000 29.2940 0.0000 0.0000
# 5 0.0000 0.0000 0.0000 0.0000 28.1112 0.0000
# 6 0.0000 0.0000 0.0000 0.0000 0.0000 41.8045
#
#
#
# Elastic Compliance Matrix: (Units=1/GPa)
#
#
# Indices 1 2 3 4 5 6 
#
# 1 0.016915 -0.004322 -0.007057 0.000000 0.000000 0.000000
# 2 -0.004322 0.011712 -0.006065 0.000000 0.000000 0.000000
# 3 -0.007057 -0.006065 0.021182 0.000000 0.000000 0.000000
# 4 0.000000 0.000000 0.000000 0.034137 0.000000 0.000000
# 5 0.000000 0.000000 0.000000 0.000000 0.035573 0.000000
# 6 0.000000 0.000000 0.000000 0.000000 0.000000 0.023921
#
#
# Mechanical properties :
#
#
# Convention : Reuss Voigt Hill
#
# Bulk Modulus (GPa) = 67.03073 72.50512 69.76793
# Shear Modulus (GPa) = 27.27727 29.51614 28.39671
#
# Velocity S-wave (km/s) = 3.68398 3.83219 3.75882
# Velocity P-wave (km/s) = 7.17263 7.46027 7.31786
#
# Compressibility (1/GPa) = 0.01491853
#
# Stress axis : x y z
#
# Youngs Moduli (GPa) = 59.11914 85.37911 47.21090
#
# Poissons Ratio (x) = 0.36905 0.33319
# Poissons Ratio (y) = 0.25554 0.28635
# Poissons Ratio (z) = 0.41723 0.51785
#
# Static dielectric constant tensor:
#      x y z
#    x 3.584790 0.000000 0.000000 
#    y 0.000000 3.749090 0.000000 
#    z 0.000000 0.000000 3.577670 
# 
# 
# High freq. dielectric constant tensor:
#      x y z
#    x 1.767890 0.000000 0.000000 
#    y 0.000000 1.804400 0.000000 
#    z 0.000000 0.000000 1.778270 
# 
# From -- ./inp_files/7280.got.cif
#   From: 2010.03.12/outbox.cif.g09.slc.cpg/sg65_4_cif.got.tgz:7280.got - 2010.04.10 20:52:16.
