data_PCOD8269695
_publ_section_title
;
Structure prediction by ZEFSAII (Michael W. Deem and Ramdas Pophale) SiO2 
 PCOD8269695
Probable space group: C M M M
;
_chemical_formula_sum "Si O2"
_cell_formula_units_Z 104
_cell_length_a 17.853341
_cell_length_b 16.846630
_cell_length_c 18.217535
_cell_angle_alpha 90.000000
_cell_angle_beta 90.000000
_cell_angle_gamma 90.000000
_cell_volume 5479.263046
_symmetry_space_group_name_H-M "C M M M"
_symmetry_group_IT_number 65
_symmetry_cell_setting 'orthorhombic'
loop_
_space_group_symop_operation_xyz
x,y,z
-x,-y,z
x,-y,-z
-x,y,-z
-x,-y,-z
x,y,-z
-x,y,z
x,-y,z
1/2+x,1/2+y,z
1/2-x,1/2-y,z
1/2+x,1/2-y,-z
1/2-x,1/2+y,-z
1/2-x,1/2-y,-z
1/2+x,1/2+y,-z
1/2-x,1/2+y,z
1/2+x,1/2-y,z
loop_
_atom_site_type_symbol
_atom_site_label
_atom_site_fract_x
_atom_site_fract_y
_atom_site_fract_z
Si Si1 0.913024 0.413309 0.795648
Si Si2 0.823219 0.850890 0.858565
Si Si3 0.584404 0.500000 0.086388
Si Si4 0.207005 0.590961 0.583677
Si Si5 0.588674 0.810434 0.659262
Si Si6 0.840587 0.680807 0.086321
Si Si7 0.307666 0.320488 0.305914
O O1 0.874767 0.500000 0.786231
O O2 0.882596 0.353497 0.733898
O O3 0.897526 0.380712 0.876956
O O4 0.000000 0.422754 0.784117
O O5 0.873052 0.921352 0.888976
O O6 0.859780 0.766500 0.879110
O O7 0.742044 0.851092 0.896018
O O8 0.819506 0.864482 0.771218
O O9 0.500000 0.500000 0.119204
O O10 0.580724 0.500000 0.000000
O O11 0.233318 0.601581 0.500000
O O12 0.187012 0.500000 0.601543
O O13 0.132105 0.643762 0.594477
O O14 0.276332 0.618230 0.634248
O O15 0.500000 0.814510 0.645601
O O16 0.614683 0.718506 0.664432
O O17 0.854087 0.683254 0.000000
O O18 0.250000 0.250000 0.292322
#
# Coordination Sequence:
#
# PCOD8269695 Si02
#       7
#    16  16   8  16  16  16  16
#     4  10  21  36  54  81 117 155 194 236 289 351
#     4  11  21  39  59  84 110 146 198 249 290 343
#     4  11  26  42  56  82 120 158 194 243 304 354
#     4  10  22  38  59  89 122 153 186 228 283 345
#     4  10  20  36  59  86 116 151 194 238 284 337
#     4  11  21  36  58  82 110 149 195 245 298 345
#     4  10  19  37  62  86 112 151 193 239 284 338
#
# _framework density 18.980656
#
# number of rings (size 3 to 8) (size 9 to 14) (size 15 to 20)
#    0.000    1.615    3.077    3.231    2.154    5.846 
#    0.000    1.538    0.000    0.000    0.000    1.077 
#    0.000    0.000    0.000    0.000    0.000    0.000 
#
# Total GULP energy -644785.063660 kJ/mol
# GULP energy per Si atom -12399.712763 kJ/mol
# Density = 1.893745 g / cm^3
# Si number density = 18.980656 Si / 1000 Ang^3
#
#
#
# Elastic Constant Matrix: (Units=GPa)
#
#
# Indices 1 2 3 4 5 6 
#
# 1 62.1980 46.5148 29.5927 0.0000 0.0000 0.0000
# 2 46.5148 71.6043 29.7539 0.0000 0.0000 0.0000
# 3 29.5927 29.7539 114.8809 0.0000 0.0000 0.0000
# 4 0.0000 0.0000 0.0000 22.4455 0.0000 0.0000
# 5 0.0000 0.0000 0.0000 0.0000 22.2906 0.0000
# 6 0.0000 0.0000 0.0000 0.0000 0.0000 23.9123
#
#
#
# Elastic Compliance Matrix: (Units=1/GPa)
#
#
# Indices 1 2 3 4 5 6 
#
# 1 0.032306 -0.019642 -0.003235 0.000000 0.000000 0.000000
# 2 -0.019642 0.027593 -0.002087 0.000000 0.000000 0.000000
# 3 -0.003235 -0.002087 0.010078 0.000000 0.000000 0.000000
# 4 0.000000 0.000000 0.000000 0.044552 0.000000 0.000000
# 5 0.000000 0.000000 0.000000 0.000000 0.044862 0.000000
# 6 0.000000 0.000000 0.000000 0.000000 0.000000 0.041819
#
#
# Mechanical properties :
#
#
# Convention : Reuss Voigt Hill
#
# Bulk Modulus (GPa) = 49.87545 51.15621 50.51583
# Shear Modulus (GPa) = 19.39331 23.25115 21.32223
#
# Velocity S-wave (km/s) = 3.19994 3.50379 3.35530
# Velocity P-wave (km/s) = 6.32351 6.58627 6.45623
#
# Compressibility (1/GPa) = 0.02004994
#
# Stress axis : x y z
#
# Youngs Moduli (GPa) = 30.95388 36.24173 99.22294
#
# Poissons Ratio (x) = 0.71187 0.32094
# Poissons Ratio (y) = 0.60800 0.20704
# Poissons Ratio (z) = 0.10012 0.07562
#
# Static dielectric constant tensor:
#      x y z
#    x 3.371390 0.000000 0.000000 
#    y 0.000000 3.889170 0.000000 
#    z 0.000000 0.000000 3.521360 
# 
# 
# High freq. dielectric constant tensor:
#      x y z
#    x 1.722610 0.000000 0.000000 
#    y 0.000000 1.739320 0.000000 
#    z 0.000000 0.000000 1.739680 
# 
# From -- ./inp_files/54589.got.cif
#   From: 2010.03.12/outbox.cif.g09.slc.cpg/sg65_28_cif.got.tgz:54589.got - 2010.04.10 20:52:16.
