data_PCOD8269372
_publ_section_title
;
Structure prediction by ZEFSAII (Michael W. Deem and Ramdas Pophale) SiO2 
 PCOD8269372
Probable space group: C M M M
;
_chemical_formula_sum "Si O2"
_cell_formula_units_Z 104
_cell_length_a 28.030645
_cell_length_b 14.642708
_cell_length_c 14.006696
_cell_angle_alpha 90.000000
_cell_angle_beta 90.000000
_cell_angle_gamma 90.000000
_cell_volume 5748.972034
_symmetry_space_group_name_H-M "C M M M"
_symmetry_group_IT_number 65
_symmetry_cell_setting 'orthorhombic'
loop_
_space_group_symop_operation_xyz
x,y,z
-x,-y,z
x,-y,-z
-x,y,-z
-x,-y,-z
x,y,-z
-x,y,z
x,-y,z
1/2+x,1/2+y,z
1/2-x,1/2-y,z
1/2+x,1/2-y,-z
1/2-x,1/2+y,-z
1/2-x,1/2-y,-z
1/2+x,1/2+y,-z
1/2-x,1/2+y,z
1/2+x,1/2-y,z
loop_
_atom_site_type_symbol
_atom_site_label
_atom_site_fract_x
_atom_site_fract_y
_atom_site_fract_z
Si Si1 0.179392 0.391364 0.803887
Si Si2 0.152480 0.601244 0.397958
Si Si3 0.054431 0.166891 0.261063
Si Si4 0.051351 0.338735 0.606365
Si Si5 0.719195 0.603478 0.110842
Si Si6 0.869397 0.774078 0.888166
Si Si7 0.556637 0.500000 0.609150
O O1 0.167148 0.500000 0.813770
O O2 0.176697 0.353919 0.694489
O O3 0.232521 0.368745 0.836248
O O4 0.140774 0.332720 0.864167
O O5 0.163548 0.652312 0.500000
O O6 0.173011 0.500000 0.406333
O O7 0.095348 0.592645 0.381200
O O8 0.058057 0.258474 0.319894
O O9 0.086008 0.181136 0.166497
O O10 0.000000 0.145864 0.228947
O O11 0.074438 0.087290 0.330089
O O12 0.051624 0.296142 0.500000
O O13 0.000000 0.388346 0.624491
O O14 0.704122 0.500000 0.135188
O O15 0.677192 0.669609 0.144183
O O16 0.730357 0.615617 0.000000
O O17 0.880256 0.784459 0.000000
O O18 0.500000 0.500000 0.601271
O O19 0.577649 0.500000 0.500000
#
# Coordination Sequence:
#
# PCOD8269372 Si02
#       7
#    16  16  16  16  16  16   8
#     4  10  19  34  55  79 104 139 180 225 271 316
#     4   9  17  29  47  73 103 135 170 208 258 316
#     4  10  20  34  52  78 108 140 174 212 262 319
#     4   9  16  28  48  72  99 131 169 213 255 298
#     4   9  19  35  56  80 102 128 172 228 277 320
#     4  11  22  35  54  79 108 142 180 225 271 317
#     4   9  18  34  57  81 105 137 178 222 267 317
#
# _framework density 18.090191000000001
#
# number of rings (size 3 to 8) (size 9 to 14) (size 15 to 20)
#    0.000    2.385    1.538    1.385    1.077    4.615 
#    0.000    1.538    0.000    5.538    0.000    1.077 
#    0.000    0.000    0.000    0.000    0.000    0.000 
#
# Total GULP energy -644270.266463 kJ/mol
# GULP energy per Si atom -12389.812817 kJ/mol
# Density = 1.804902 g / cm^3
# Si number density = 18.090191 Si / 1000 Ang^3
#
#
#
# Elastic Constant Matrix: (Units=GPa)
#
#
# Indices 1 2 3 4 5 6 
#
# 1 79.8792 26.3314 57.0874 0.0000 0.0000 0.0000
# 2 26.3314 59.4104 35.9163 0.0000 0.0000 0.0000
# 3 57.0874 35.9163 116.5494 0.0000 0.0000 0.0000
# 4 0.0000 0.0000 0.0000 21.2117 0.0000 0.0000
# 5 0.0000 0.0000 0.0000 0.0000 29.7090 0.0000
# 6 0.0000 0.0000 0.0000 0.0000 0.0000 23.1650
#
#
#
# Elastic Compliance Matrix: (Units=1/GPa)
#
#
# Indices 1 2 3 4 5 6 
#
# 1 0.019866 -0.003591 -0.008624 0.000000 0.000000 0.000000
# 2 -0.003591 0.021335 -0.004816 0.000000 0.000000 0.000000
# 3 -0.008624 -0.004816 0.014288 0.000000 0.000000 0.000000
# 4 0.000000 0.000000 0.000000 0.047144 0.000000 0.000000
# 5 0.000000 0.000000 0.000000 0.000000 0.033660 0.000000
# 6 0.000000 0.000000 0.000000 0.000000 0.000000 0.043169
#
#
# Mechanical properties :
#
#
# Convention : Reuss Voigt Hill
#
# Bulk Modulus (GPa) = 46.66893 54.94547 50.80720
# Shear Modulus (GPa) = 22.65872 23.91740 23.28806
#
# Velocity S-wave (km/s) = 3.54297 3.64004 3.59183
# Velocity P-wave (km/s) = 6.52616 6.93582 6.73410
#
# Compressibility (1/GPa) = 0.02142753
#
# Stress axis : x y z
#
# Youngs Moduli (GPa) = 50.33725 46.87125 69.98798
#
# Poissons Ratio (x) = 0.16833 0.60357
# Poissons Ratio (y) = 0.18078 0.33704
# Poissons Ratio (z) = 0.43410 0.22571
#
# Static dielectric constant tensor:
#      x y z
#    x 3.279780 0.000000 0.000000 
#    y 0.000000 3.302600 0.000000 
#    z 0.000000 0.000000 3.531080 
# 
# 
# High freq. dielectric constant tensor:
#      x y z
#    x 1.680230 0.000000 0.000000 
#    y 0.000000 1.690830 0.000000 
#    z 0.000000 0.000000 1.705260 
# 
# From -- ./inp_files/45758.got.cif
#   From: 2010.03.12/outbox.cif.g09.slc.cpg/sg65_23_cif.got.tgz:45758.got - 2010.04.10 20:52:16.
