data_PCOD8269756
_publ_section_title
;
Structure prediction by ZEFSAII (Michael W. Deem and Ramdas Pophale) SiO2 
 PCOD8269756
Probable space group: C M M M
;
_chemical_formula_sum "Si O2"
_cell_formula_units_Z 88
_cell_length_a 9.051067
_cell_length_b 28.213695
_cell_length_c 23.728559
_cell_angle_alpha 90.000000
_cell_angle_beta 90.000000
_cell_angle_gamma 90.000000
_cell_volume 6059.420779
_symmetry_space_group_name_H-M "C M M M"
_symmetry_group_IT_number 65
_symmetry_cell_setting 'orthorhombic'
loop_
_space_group_symop_operation_xyz
x,y,z
-x,-y,z
x,-y,-z
-x,y,-z
-x,-y,-z
x,y,-z
-x,y,z
x,-y,z
1/2+x,1/2+y,z
1/2-x,1/2-y,z
1/2+x,1/2-y,-z
1/2-x,1/2+y,-z
1/2-x,1/2-y,-z
1/2+x,1/2+y,-z
1/2-x,1/2+y,z
1/2+x,1/2-y,z
loop_
_atom_site_type_symbol
_atom_site_label
_atom_site_fract_x
_atom_site_fract_y
_atom_site_fract_z
Si Si1 0.824454 0.553064 0.940342
Si Si2 0.671103 0.555710 0.709207
Si Si3 0.666014 0.943494 0.180042
Si Si4 0.827889 0.703592 0.564118
Si Si5 0.167889 0.056069 0.500000
Si Si6 0.674346 0.102143 0.394857
O O1 0.760063 0.500000 0.942799
O O2 0.774221 0.577101 0.880794
O O3 0.000000 0.550894 0.937588
O O4 0.775600 0.578721 0.000000
O O5 0.500000 0.568396 0.701650
O O6 0.699863 0.500000 0.700973
O O7 0.723815 0.573038 0.770795
O O8 0.767078 0.583959 0.664393
O O9 0.500000 0.925068 0.193402
O O10 0.663610 0.000000 0.175391
O O11 0.774082 0.694560 0.500000
O O12 0.750000 0.750000 0.590067
O O13 0.785492 0.657683 0.600609
O O14 0.000000 0.713545 0.565783
O O15 0.249682 0.073498 0.555409
O O16 0.000000 0.075083 0.500000
O O17 0.170415 0.000000 0.500000
O O18 0.500000 0.093748 0.399490
#
# Coordination Sequence:
#
# PCOD8269756 Si02
#       6
#    16  16  16  16   8  16
#     4   7   9  14  27  48  70  90 119 163 206 238
#     4  10  20  31  41  56  80 109 141 174 206 241
#     4   8  13  22  36  52  70  97 133 168 203 240
#     4   9  18  33  50  69  87 101 122 154 195 243
#     4  11  23  35  46  63  86 109 134 165 202 241
#     4  11  21  34  49  65  83 104 134 167 199 239
#
# _framework density 14.52284
#
# number of rings (size 3 to 8) (size 9 to 14) (size 15 to 20)
#    0.000    2.818    0.909    3.545    0.000    5.455 
#    0.000    0.000    0.000    0.545    0.000    3.818 
#    0.000    0.000    0.000    0.000    0.000    0.909 
#
# Total GULP energy -545108.148246 kJ/mol
# GULP energy per Si atom -12388.821551 kJ/mol
# Density = 1.448979 g / cm^3
# Si number density = 14.522840 Si / 1000 Ang^3
#
#
#
# Elastic Constant Matrix: (Units=GPa)
#
#
# Indices 1 2 3 4 5 6 
#
# 1 63.5712 33.7546 42.4707 0.0000 0.0000 0.0000
# 2 33.7546 50.8104 37.8847 0.0000 0.0000 0.0000
# 3 42.4707 37.8847 128.8977 0.0000 0.0000 0.0000
# 4 0.0000 0.0000 0.0000 -2.8344 0.0000 0.0000
# 5 0.0000 0.0000 0.0000 0.0000 7.0392 0.0000
# 6 0.0000 0.0000 0.0000 0.0000 0.0000 17.7532
#
#
#
# Elastic Compliance Matrix: (Units=1/GPa)
#
#
# Indices 1 2 3 4 5 6 
#
# 1 0.026197 -0.014045 -0.004504 0.000000 0.000000 0.000000
# 2 -0.014045 0.032735 -0.004993 0.000000 0.000000 0.000000
# 3 -0.004504 -0.004993 0.010710 0.000000 0.000000 0.000000
# 4 0.000000 0.000000 0.000000 -0.352814 0.000000 0.000000
# 5 0.000000 0.000000 0.000000 0.000000 0.142061 0.000000
# 6 0.000000 0.000000 0.000000 0.000000 0.000000 0.056328
#
#
# Mechanical properties :
#
#
# Convention : Reuss Voigt Hill
#
# Bulk Modulus (GPa) = 44.33264 52.38880 48.36072
# Shear Modulus (GPa) = -165.66863 13.00290 -76.33287
#
# Velocity S-wave (km/s) = -10.69216 2.99547 -7.25773
# Velocity P-wave (km/s) = 11.03799 6.93653 6.07131
#
# Compressibility (1/GPa) = 0.02255675
#
# Stress axis : x y z
#
# Youngs Moduli (GPa) = 38.17262 30.54863 93.37440
#
# Poissons Ratio (x) = 0.42906 0.42051
# Poissons Ratio (y) = 0.53615 0.46625
# Poissons Ratio (z) = 0.17191 0.15254
#
# Static dielectric constant tensor:
#      x y z
#    x 2.799960 0.000000 0.000000 
#    y 0.000000 2.496640 0.000000 
#    z 0.000000 0.000000 3.368700 
# 
# 
# High freq. dielectric constant tensor:
#      x y z
#    x 1.549870 0.000000 0.000000 
#    y 0.000000 1.495800 0.000000 
#    z 0.000000 0.000000 1.564880 
# 
# From -- ./inp_files/68421.got.cif
#   From: 2010.03.12/outbox.cif.g09.slc.cpg/sg65_35_cif.got.tgz:68421.got - 2010.04.10 20:52:16.
