data_PCOD8269976
_publ_section_title
;
Structure prediction by ZEFSAII (Michael W. Deem and Ramdas Pophale) SiO2 
 PCOD8269976
Probable space group: C M M M
;
_chemical_formula_sum "Si O2"
_cell_formula_units_Z 88
_cell_length_a 9.823503
_cell_length_b 15.987067
_cell_length_c 29.866364
_cell_angle_alpha 90.000000
_cell_angle_beta 90.000000
_cell_angle_gamma 90.000000
_cell_volume 4690.482619
_symmetry_space_group_name_H-M "C M M M"
_symmetry_group_IT_number 65
_symmetry_cell_setting 'orthorhombic'
loop_
_space_group_symop_operation_xyz
x,y,z
-x,-y,z
x,-y,-z
-x,y,-z
-x,-y,-z
x,y,-z
-x,y,z
x,-y,z
1/2+x,1/2+y,z
1/2-x,1/2-y,z
1/2+x,1/2-y,-z
1/2-x,1/2+y,-z
1/2-x,1/2-y,-z
1/2+x,1/2+y,-z
1/2-x,1/2+y,z
1/2+x,1/2-y,z
loop_
_atom_site_type_symbol
_atom_site_label
_atom_site_fract_x
_atom_site_fract_y
_atom_site_fract_z
Si Si1 0.352093 0.096793 0.729525
Si Si2 0.154873 0.903215 0.804718
Si Si3 0.160002 0.169300 0.900320
Si Si4 0.341855 0.825190 0.638354
Si Si5 0.338733 0.093304 0.451348
Si Si6 0.338953 0.500000 0.948954
O O1 0.500000 0.137979 0.739389
O O2 0.242811 0.135418 0.763795
O O3 0.317547 0.106504 0.676979
O O4 0.357380 0.000000 0.739883
O O5 0.183832 0.847202 0.847973
O O6 0.000000 0.895463 0.789059
O O7 0.189496 0.000000 0.816000
O O8 0.250000 0.250000 0.914955
O O9 0.213638 0.086109 0.926179
O O10 0.000000 0.186561 0.910692
O O11 0.500000 0.799788 0.633865
O O12 0.250000 0.750000 0.654843
O O13 0.280893 0.854994 0.590506
O O14 0.298172 0.132855 0.500000
O O15 0.500000 0.088601 0.446703
O O16 0.278369 0.000000 0.448659
O O17 0.500000 0.500000 0.944312
O O18 0.288721 0.500000 0.000000
#
# Coordination Sequence:
#
# PCOD8269976 Si02
#       6
#    16  16  16  16  16   8
#     4   9  18  32  50  71  95 127 168 210 250 291
#     4   9  17  32  53  74 100 135 174 213 255 308
#     4  10  20  35  56  83 112 144 183 225 270 320
#     4  10  20  32  46  67  97 127 155 194 243 293
#     4   8  14  27  49  72  89 112 153 199 238 282
#     4   9  18  36  61  83 109 149 189 223 266 325
#
# _framework density 18.761395
#
# number of rings (size 3 to 8) (size 9 to 14) (size 15 to 20)
#    0.000    2.818    0.909    1.091    0.000    5.091 
#    0.000    4.091    0.000    2.182    0.000    1.273 
#    0.000    0.000    0.000    0.000    0.000    0.000 
#
# Total GULP energy -545201.421186 kJ/mol
# GULP energy per Si atom -12390.941391 kJ/mol
# Density = 1.871869 g / cm^3
# Si number density = 18.761395 Si / 1000 Ang^3
#
#
#
# Elastic Constant Matrix: (Units=GPa)
#
#
# Indices 1 2 3 4 5 6 
#
# 1 56.1189 40.7162 47.5238 0.0000 0.0000 0.0000
# 2 40.7162 81.7139 40.7263 0.0000 0.0000 0.0000
# 3 47.5238 40.7263 124.0259 0.0000 0.0000 0.0000
# 4 0.0000 0.0000 0.0000 16.8387 0.0000 0.0000
# 5 0.0000 0.0000 0.0000 0.0000 20.3711 0.0000
# 6 0.0000 0.0000 0.0000 0.0000 0.0000 22.4846
#
#
#
# Elastic Compliance Matrix: (Units=1/GPa)
#
#
# Indices 1 2 3 4 5 6 
#
# 1 0.034865 -0.012811 -0.009153 0.000000 0.000000 0.000000
# 2 -0.012811 0.019340 -0.001442 0.000000 0.000000 0.000000
# 3 -0.009153 -0.001442 0.012043 0.000000 0.000000 0.000000
# 4 0.000000 0.000000 0.000000 0.059387 0.000000 0.000000
# 5 0.000000 0.000000 0.000000 0.000000 0.049089 0.000000
# 6 0.000000 0.000000 0.000000 0.000000 0.000000 0.044475
#
#
# Mechanical properties :
#
#
# Convention : Reuss Voigt Hill
#
# Bulk Modulus (GPa) = 51.44699 57.75458 54.60079
# Shear Modulus (GPa) = 18.34941 20.79839 19.57390
#
# Velocity S-wave (km/s) = 3.13076 3.33314 3.23353
# Velocity P-wave (km/s) = 6.36790 6.75749 6.56558
#
# Compressibility (1/GPa) = 0.01943748
#
# Stress axis : x y z
#
# Youngs Moduli (GPa) = 28.68223 51.70719 83.03311
#
# Poissons Ratio (x) = 0.66240 0.75998
# Poissons Ratio (y) = 0.36744 0.11972
# Poissons Ratio (z) = 0.26252 0.07455
#
# Static dielectric constant tensor:
#      x y z
#    x 3.287520 0.000000 0.000000 
#    y 0.000000 3.283950 0.000000 
#    z 0.000000 0.000000 3.618010 
# 
# 
# High freq. dielectric constant tensor:
#      x y z
#    x 1.691920 0.000000 0.000000 
#    y 0.000000 1.713500 0.000000 
#    z 0.000000 0.000000 1.739870 
# 
# From -- ./inp_files/74231.got.cif
#   From: 2010.03.12/outbox.cif.g09.slc.cpg/sg65_38_cif.got.tgz:74231.got - 2010.04.10 20:52:16.
