data_PCOD8269161
_publ_section_title
;
Structure prediction by ZEFSAII (Michael W. Deem and Ramdas Pophale) SiO2 
 PCOD8269161
Probable space group: C M M M
;
_chemical_formula_sum "Si O2"
_cell_formula_units_Z 104
_cell_length_a 17.297554
_cell_length_b 15.663181
_cell_length_c 20.440838
_cell_angle_alpha 90.000000
_cell_angle_beta 90.000000
_cell_angle_gamma 90.000000
_cell_volume 5538.132703
_symmetry_space_group_name_H-M "C M M M"
_symmetry_group_IT_number 65
_symmetry_cell_setting 'orthorhombic'
loop_
_space_group_symop_operation_xyz
x,y,z
-x,-y,z
x,-y,-z
-x,y,-z
-x,-y,-z
x,y,-z
-x,y,z
x,-y,z
1/2+x,1/2+y,z
1/2-x,1/2-y,z
1/2+x,1/2-y,-z
1/2-x,1/2+y,-z
1/2-x,1/2-y,-z
1/2+x,1/2+y,-z
1/2-x,1/2+y,z
1/2+x,1/2-y,z
loop_
_atom_site_type_symbol
_atom_site_label
_atom_site_fract_x
_atom_site_fract_y
_atom_site_fract_z
Si Si1 0.590316 0.898808 0.500000
Si Si2 0.322933 0.200493 0.611604
Si Si3 0.856169 0.096553 0.074547
Si Si4 0.699524 0.095884 0.862934
Si Si5 0.237794 0.904525 0.720731
Si Si6 0.413524 0.755188 0.845979
Si Si7 0.912115 0.187870 0.705027
O O1 0.500000 0.870860 0.500000
O O2 0.635257 0.863953 0.562918
O O3 0.597215 0.000000 0.500000
O O4 0.250000 0.250000 0.577557
O O5 0.287923 0.154855 0.674648
O O6 0.389765 0.262621 0.638501
O O7 0.763431 0.103482 0.080568
O O8 0.897179 0.163651 0.121700
O O9 0.882167 0.000000 0.094307
O O10 0.879441 0.116189 0.000000
O O11 0.741975 0.116535 0.795075
O O12 0.636567 0.168337 0.876402
O O13 0.662937 0.000000 0.862181
O O14 0.145904 0.891610 0.711978
O O15 0.258887 0.000000 0.701178
O O16 0.500000 0.781577 0.863126
O O17 0.402310 0.749443 0.767870
O O18 0.000000 0.154283 0.698993
#
# Coordination Sequence:
#
# PCOD8269161 Si02
#       7
#     8  16  16  16  16  16  16
#     4  11  23  38  56  82 119 153 186 230 276 327
#     4  10  20  36  59  81 109 151 188 230 273 329
#     4  10  22  39  60  85 112 146 190 238 289 345
#     4  10  20  36  57  80 111 147 192 238 277 332
#     4  10  19  33  55  81 108 145 187 230 276 329
#     4  11  22  35  55  81 114 151 188 233 285 342
#     4  10  20  33  52  81 113 145 183 228 281 335
#
# _framework density 18.778893
#
# number of rings (size 3 to 8) (size 9 to 14) (size 15 to 20)
#    0.000    1.769    3.077    1.615    0.000    2.462 
#    0.000    2.308    0.000    0.000    0.000    3.231 
#    0.000   11.077    0.000    0.000    0.000    0.000 
#
# Total GULP energy -644665.046019 kJ/mol
# GULP energy per Si atom -12397.404731 kJ/mol
# Density = 1.873615 g / cm^3
# Si number density = 18.778893 Si / 1000 Ang^3
#
#
#
# Elastic Constant Matrix: (Units=GPa)
#
#
# Indices 1 2 3 4 5 6 
#
# 1 94.0572 32.0721 24.0628 0.0000 0.0000 0.0000
# 2 32.0721 77.8562 24.0845 0.0000 0.0000 0.0000
# 3 24.0628 24.0845 62.1100 0.0000 0.0000 0.0000
# 4 0.0000 0.0000 0.0000 25.5436 0.0000 0.0000
# 5 0.0000 0.0000 0.0000 0.0000 14.9427 0.0000
# 6 0.0000 0.0000 0.0000 0.0000 0.0000 18.7520
#
#
#
# Elastic Compliance Matrix: (Units=1/GPa)
#
#
# Indices 1 2 3 4 5 6 
#
# 1 0.012956 -0.004300 -0.003352 0.000000 0.000000 0.000000
# 2 -0.004300 0.016022 -0.004547 0.000000 0.000000 0.000000
# 3 -0.003352 -0.004547 0.019162 0.000000 0.000000 0.000000
# 4 0.000000 0.000000 0.000000 0.039149 0.000000 0.000000
# 5 0.000000 0.000000 0.000000 0.000000 0.066922 0.000000
# 6 0.000000 0.000000 0.000000 0.000000 0.000000 0.053328
#
#
# Mechanical properties :
#
#
# Convention : Reuss Voigt Hill
#
# Bulk Modulus (GPa) = 42.11911 43.82913 42.97412
# Shear Modulus (GPa) = 20.84632 22.10126 21.47379
#
# Velocity S-wave (km/s) = 3.33542 3.43435 3.38525
# Velocity P-wave (km/s) = 6.10828 6.25432 6.18173
#
# Compressibility (1/GPa) = 0.02374219
#
# Stress axis : x y z
#
# Youngs Moduli (GPa) = 77.18673 62.41354 52.18597
#
# Poissons Ratio (x) = 0.26838 0.17492
# Poissons Ratio (y) = 0.33191 0.23729
# Poissons Ratio (z) = 0.25872 0.28379
#
# Static dielectric constant tensor:
#      x y z
#    x 3.477670 0.000000 0.000000 
#    y 0.000000 3.435750 0.000000 
#    z 0.000000 0.000000 3.277320 
# 
# 
# High freq. dielectric constant tensor:
#      x y z
#    x 1.729130 0.000000 0.000000 
#    y 0.000000 1.728050 0.000000 
#    z 0.000000 0.000000 1.718820 
# 
# From -- ./inp_files/62877.got.cif
#   From: 2010.03.12/outbox.cif.g09.slc.cpg/sg65_32_cif.got.tgz:62877.got - 2010.04.10 20:52:16.
