data_PCOD8269971
_publ_section_title
;
Structure prediction by ZEFSAII (Michael W. Deem and Ramdas Pophale) SiO2 
 PCOD8269971
Probable space group: C M M M
;
_chemical_formula_sum "Si O2"
_cell_formula_units_Z 88
_cell_length_a 30.911362
_cell_length_b 19.828800
_cell_length_c 8.158676
_cell_angle_alpha 90.000000
_cell_angle_beta 90.000000
_cell_angle_gamma 90.000000
_cell_volume 5000.739827
_symmetry_space_group_name_H-M "C M M M"
_symmetry_group_IT_number 65
_symmetry_cell_setting 'orthorhombic'
loop_
_space_group_symop_operation_xyz
x,y,z
-x,-y,z
x,-y,-z
-x,y,-z
-x,-y,-z
x,y,-z
-x,y,z
x,-y,z
1/2+x,1/2+y,z
1/2-x,1/2-y,z
1/2+x,1/2-y,-z
1/2-x,1/2+y,-z
1/2-x,1/2-y,-z
1/2+x,1/2+y,-z
1/2-x,1/2+y,z
1/2+x,1/2-y,z
loop_
_atom_site_type_symbol
_atom_site_label
_atom_site_fract_x
_atom_site_fract_y
_atom_site_fract_z
Si Si1 0.450938 0.338652 0.187342
Si Si2 0.635988 0.712240 0.181085
Si Si3 0.789311 0.705183 0.686879
Si Si4 0.165067 0.924445 0.687994
Si Si5 0.757801 0.425807 0.186838
Si Si6 0.050549 0.926602 0.500000
O O1 0.500000 0.312563 0.220364
O O2 0.416096 0.277082 0.203163
O O3 0.436332 0.390878 0.329315
O O4 0.448050 0.368711 0.000000
O O5 0.664692 0.756535 0.303369
O O6 0.642324 0.631842 0.201932
O O7 0.650954 0.733520 0.000000
O O8 0.778820 0.690179 0.500000
O O9 0.750000 0.750000 0.762662
O O10 0.792563 0.633117 0.778120
O O11 0.150031 0.914518 0.500000
O O12 0.216684 0.913691 0.696903
O O13 0.153542 0.000000 0.750953
O O14 0.778425 0.500000 0.221668
O O15 0.741949 0.421395 0.000000
O O16 0.000000 0.936014 0.500000
O O17 0.073424 0.000000 0.500000
#
# Coordination Sequence:
#
# PCOD8269971 Si02
#       6
#    16  16  16  16  16   8
#     4   9  20  37  53  71  97 129 167 214 264 310
#     4  11  22  34  52  73  96 128 167 212 257 302
#     4  11  22  34  51  74 101 133 166 205 249 295
#     4  10  20  32  46  66  95 130 168 210 252 297
#     4  10  20  34  52  72  97 131 169 207 247 294
#     4   9  18  32  52  74  95 128 171 215 264 311
#
# _framework density 17.597396
#
# number of rings (size 3 to 8) (size 9 to 14) (size 15 to 20)
#    0.000    1.909    1.818    2.182    2.545    4.000 
#    0.000    3.636    0.000    0.000    0.000    0.000 
#    0.000    0.727    0.000    8.364    0.000    2.364 
#
# Total GULP energy -545237.427061 kJ/mol
# GULP energy per Si atom -12391.759706 kJ/mol
# Density = 1.755734 g / cm^3
# Si number density = 17.597396 Si / 1000 Ang^3
#
#
#
# Elastic Constant Matrix: (Units=GPa)
#
#
# Indices 1 2 3 4 5 6 
#
# 1 78.5908 39.0659 18.0653 0.0000 0.0000 0.0000
# 2 39.0659 88.0507 21.1206 0.0000 0.0000 0.0000
# 3 18.0653 21.1206 73.9483 0.0000 0.0000 0.0000
# 4 0.0000 0.0000 0.0000 22.8428 0.0000 0.0000
# 5 0.0000 0.0000 0.0000 0.0000 23.7164 0.0000
# 6 0.0000 0.0000 0.0000 0.0000 0.0000 14.4281
#
#
#
# Elastic Compliance Matrix: (Units=1/GPa)
#
#
# Indices 1 2 3 4 5 6 
#
# 1 0.016622 -0.006872 -0.002098 0.000000 0.000000 0.000000
# 2 -0.006872 0.015033 -0.002615 0.000000 0.000000 0.000000
# 3 -0.002098 -0.002615 0.014782 0.000000 0.000000 0.000000
# 4 0.000000 0.000000 0.000000 0.043777 0.000000 0.000000
# 5 0.000000 0.000000 0.000000 0.000000 0.042165 0.000000
# 6 0.000000 0.000000 0.000000 0.000000 0.000000 0.069309
#
#
# Mechanical properties :
#
#
# Convention : Reuss Voigt Hill
#
# Bulk Modulus (GPa) = 42.97683 44.12149 43.54916
# Shear Modulus (GPa) = 21.49480 23.02000 22.25740
#
# Velocity S-wave (km/s) = 3.49875 3.62076 3.56028
# Velocity P-wave (km/s) = 6.38725 6.52740 6.45771
#
# Compressibility (1/GPa) = 0.02326835
#
# Stress axis : x y z
#
# Youngs Moduli (GPa) = 60.16078 66.52000 67.64809
#
# Poissons Ratio (x) = 0.45710 0.14193
# Poissons Ratio (y) = 0.41340 0.17690
# Poissons Ratio (z) = 0.12622 0.17395
#
# Static dielectric constant tensor:
#      x y z
#    x 3.221890 0.000000 0.000000 
#    y 0.000000 3.095300 0.000000 
#    z 0.000000 0.000000 3.363220 
# 
# 
# High freq. dielectric constant tensor:
#      x y z
#    x 1.666620 0.000000 0.000000 
#    y 0.000000 1.639560 0.000000 
#    z 0.000000 0.000000 1.696580 
# 
# From -- ./inp_files/18518.got.cif
#   From: 2010.03.12/outbox.cif.g09.slc.cpg/sg65_10_cif.got.tgz:18518.got - 2010.04.10 20:52:16.
