data_PCOD8269570
_publ_section_title
;
Structure prediction by ZEFSAII (Michael W. Deem and Ramdas Pophale) SiO2 
 PCOD8269570
Probable space group: C M M M
;
_chemical_formula_sum "Si O2"
_cell_formula_units_Z 104
_cell_length_a 22.534245
_cell_length_b 17.841802
_cell_length_c 13.914768
_cell_angle_alpha 90.000000
_cell_angle_beta 90.000000
_cell_angle_gamma 90.000000
_cell_volume 5594.453868
_symmetry_space_group_name_H-M "C M M M"
_symmetry_group_IT_number 65
_symmetry_cell_setting 'orthorhombic'
loop_
_space_group_symop_operation_xyz
x,y,z
-x,-y,z
x,-y,-z
-x,y,-z
-x,-y,-z
x,y,-z
-x,y,z
x,-y,z
1/2+x,1/2+y,z
1/2-x,1/2-y,z
1/2+x,1/2-y,-z
1/2-x,1/2+y,-z
1/2-x,1/2-y,-z
1/2+x,1/2+y,-z
1/2-x,1/2+y,z
1/2+x,1/2-y,z
loop_
_atom_site_type_symbol
_atom_site_label
_atom_site_fract_x
_atom_site_fract_y
_atom_site_fract_z
Si Si1 0.143107 0.639560 0.887761
Si Si2 0.433180 0.731398 0.191456
Si Si3 0.758205 0.913555 0.206445
Si Si4 0.821659 0.913027 0.393819
Si Si5 0.066235 0.500000 0.885945
Si Si6 0.566724 0.312535 0.605479
Si Si7 0.382134 0.584899 0.111779
O O1 0.112296 0.718949 0.868973
O O2 0.204599 0.637591 0.830292
O O3 0.100214 0.573831 0.849526
O O4 0.156837 0.629959 0.000000
O O5 0.500000 0.752274 0.159993
O O6 0.424353 0.745747 0.306347
O O7 0.422023 0.643596 0.170390
O O8 0.775982 0.883635 0.313002
O O9 0.813049 0.902673 0.134829
O O10 0.737373 0.000000 0.208054
O O11 0.795118 0.896199 0.500000
O O12 0.886584 0.878859 0.381711
O O13 0.831614 0.000000 0.375352
O O14 0.000000 0.500000 0.841674
O O15 0.062658 0.500000 0.000000
O O16 0.575687 0.273566 0.500000
O O17 0.500000 0.346144 0.612408
O O18 0.400909 0.500000 0.140431
O O19 0.392436 0.599315 0.000000
#
# Coordination Sequence:
#
# PCOD8269570 Si02
#       7
#    16  16  16  16   8  16  16
#     4  11  22  36  57  82 110 148 189 236 285 334
#     4  11  23  38  56  82 114 146 187 237 285 333
#     4  10  19  35  56  80 112 146 184 225 277 339
#     4   9  17  31  54  83 113 144 183 236 288 332
#     4   9  18  34  56  82 107 137 182 235 293 339
#     4   9  18  34  55  78 108 147 188 230 281 337
#     4  10  21  36  54  77 110 154 192 225 268 328
#
# _framework density 18.589841
#
# number of rings (size 3 to 8) (size 9 to 14) (size 15 to 20)
#    0.000    2.077    2.308    1.385    0.000    3.692 
#    0.000    6.154    0.000    1.846    0.000    0.000 
#    0.000    3.692    0.000    0.000    0.000    0.000 
#
# Total GULP energy -644629.448547 kJ/mol
# GULP energy per Si atom -12396.720164 kJ/mol
# Density = 1.854753 g / cm^3
# Si number density = 18.589841 Si / 1000 Ang^3
#
#
#
# Elastic Constant Matrix: (Units=GPa)
#
#
# Indices 1 2 3 4 5 6 
#
# 1 96.4039 26.7686 41.5230 0.0000 0.0000 0.0000
# 2 26.7686 59.9530 21.7493 0.0000 0.0000 0.0000
# 3 41.5230 21.7493 102.9065 0.0000 0.0000 0.0000
# 4 0.0000 0.0000 0.0000 19.3557 0.0000 0.0000
# 5 0.0000 0.0000 0.0000 0.0000 29.0584 0.0000
# 6 0.0000 0.0000 0.0000 0.0000 0.0000 28.2961
#
#
#
# Elastic Compliance Matrix: (Units=1/GPa)
#
#
# Indices 1 2 3 4 5 6 
#
# 1 0.013550 -0.004404 -0.004537 0.000000 0.000000 0.000000
# 2 -0.004404 0.019496 -0.002343 0.000000 0.000000 0.000000
# 3 -0.004537 -0.002343 0.012043 0.000000 0.000000 0.000000
# 4 0.000000 0.000000 0.000000 0.051664 0.000000 0.000000
# 5 0.000000 0.000000 0.000000 0.000000 0.034413 0.000000
# 6 0.000000 0.000000 0.000000 0.000000 0.000000 0.035341
#
#
# Mechanical properties :
#
#
# Convention : Reuss Voigt Hill
#
# Bulk Modulus (GPa) = 44.40271 48.81612 46.60941
# Shear Modulus (GPa) = 25.43449 26.62355 26.02902
#
# Velocity S-wave (km/s) = 3.70292 3.78849 3.74595
# Velocity P-wave (km/s) = 6.49765 6.74192 6.62091
#
# Compressibility (1/GPa) = 0.02252115
#
# Stress axis : x y z
#
# Youngs Moduli (GPa) = 73.80099 51.29172 83.03316
#
# Poissons Ratio (x) = 0.22590 0.37669
# Poissons Ratio (y) = 0.32503 0.19458
# Poissons Ratio (z) = 0.33481 0.12020
#
# Static dielectric constant tensor:
#      x y z
#    x 3.361560 0.000000 0.000000 
#    y 0.000000 3.132360 0.000000 
#    z 0.000000 0.000000 3.700240 
# 
# 
# High freq. dielectric constant tensor:
#      x y z
#    x 1.719230 0.000000 0.000000 
#    y 0.000000 1.690430 0.000000 
#    z 0.000000 0.000000 1.729150 
# 
# From -- ./inp_files/44398.got.cif
#   From: 2010.03.12/outbox.cif.g09.slc.cpg/sg65_23_cif.got.tgz:44398.got - 2010.04.10 20:52:16.
