data_PCOD8269452
_publ_section_title
;
Structure prediction by ZEFSAII (Michael W. Deem and Ramdas Pophale) SiO2 
 PCOD8269452
Probable space group: C M M M
;
_chemical_formula_sum "Si O2"
_cell_formula_units_Z 104
_cell_length_a 19.664597
_cell_length_b 30.523727
_cell_length_c 8.090602
_cell_angle_alpha 90.000000
_cell_angle_beta 90.000000
_cell_angle_gamma 90.000000
_cell_volume 4856.276977
_symmetry_space_group_name_H-M "C M M M"
_symmetry_group_IT_number 65
_symmetry_cell_setting 'orthorhombic'
loop_
_space_group_symop_operation_xyz
x,y,z
-x,-y,z
x,-y,-z
-x,y,-z
-x,-y,-z
x,y,-z
-x,y,z
x,-y,z
1/2+x,1/2+y,z
1/2-x,1/2-y,z
1/2+x,1/2-y,-z
1/2-x,1/2+y,-z
1/2-x,1/2-y,-z
1/2+x,1/2+y,-z
1/2-x,1/2+y,z
1/2+x,1/2-y,z
loop_
_atom_site_type_symbol
_atom_site_label
_atom_site_fract_x
_atom_site_fract_y
_atom_site_fract_z
Si Si1 0.646372 0.420501 0.185571
Si Si2 0.842870 0.324056 0.805843
Si Si3 0.745772 0.500000 0.814715
Si Si4 0.192869 0.822696 0.188759
Si Si5 0.423253 0.259513 0.802869
Si Si6 0.075771 0.406033 0.305403
Si Si7 0.577920 0.452193 0.500000
Si Si8 0.112270 0.500000 0.314019
O O1 0.703007 0.456613 0.215792
O O2 0.680474 0.373852 0.204815
O O3 0.592297 0.425332 0.332229
O O4 0.613911 0.425746 0.000000
O O5 0.767424 0.314443 0.729018
O O6 0.896359 0.287868 0.741166
O O7 0.869144 0.372480 0.765072
O O8 0.834808 0.320552 0.000000
O O9 0.806330 0.500000 0.684662
O O10 0.775809 0.500000 0.000000
O O11 0.130133 0.795521 0.270148
O O12 0.195624 0.807088 0.000000
O O13 0.500000 0.267248 0.732392
O O14 0.426587 0.262006 0.000000
O O15 0.086977 0.408315 0.500000
O O16 0.086217 0.454928 0.228222
O O17 0.000000 0.389829 0.258733
O O18 0.615445 0.500000 0.500000
O O19 0.500000 0.461841 0.500000
O O20 0.084251 0.500000 0.500000
#
# Coordination Sequence:
#
# PCOD8269452 Si02
#       8
#    16  16   8  16  16  16   8   8
#     4  10  21  38  59  85 118 156 195 244 299 354
#     4  10  19  34  56  84 113 143 187 237 285 342
#     4  10  20  35  55  82 114 145 185 236 290 346
#     4   9  18  33  55  84 117 150 186 236 292 344
#     4   9  17  30  53  84 113 147 189 230 282 349
#     4  10  21  37  54  76 110 149 189 232 282 343
#     4  11  24  40  60  86 115 154 202 250 299 359
#     4  10  21  34  54  80 105 147 193 232 278 334
#
# _framework density 21.415583000000002
#
# number of rings (size 3 to 8) (size 9 to 14) (size 15 to 20)
#    0.000    2.231    0.769    2.077    1.077    6.462 
#    1.385    2.308    1.692    2.308    0.000    0.000 
#    0.000    0.000    0.000    0.000    0.000    0.000 
#
# Total GULP energy -644394.968370 kJ/mol
# GULP energy per Si atom -12392.210930 kJ/mol
# Density = 2.136684 g / cm^3
# Si number density = 21.415583 Si / 1000 Ang^3
#
#
#
# Elastic Constant Matrix: (Units=GPa)
#
#
# Indices 1 2 3 4 5 6 
#
# 1 167.7010 77.8992 23.7570 0.0000 0.0000 0.0000
# 2 77.8992 144.7763 8.1952 0.0000 0.0000 0.0000
# 3 23.7570 8.1952 51.2681 0.0000 0.0000 0.0000
# 4 0.0000 0.0000 0.0000 -2.7342 0.0000 0.0000
# 5 0.0000 0.0000 0.0000 0.0000 19.4456 0.0000
# 6 0.0000 0.0000 0.0000 0.0000 0.0000 800.8204
#
#
#
# Elastic Compliance Matrix: (Units=1/GPa)
#
#
# Indices 1 2 3 4 5 6 
#
# 1 0.008445 -0.004362 -0.003216 0.000000 0.000000 0.000000
# 2 -0.004362 0.009223 0.000547 0.000000 0.000000 0.000000
# 3 -0.003216 0.000547 0.020908 0.000000 0.000000 0.000000
# 4 0.000000 0.000000 0.000000 -0.365740 0.000000 0.000000
# 5 0.000000 0.000000 0.000000 0.000000 0.051425 0.000000
# 6 0.000000 0.000000 0.000000 0.000000 0.000000 0.001249
#
#
# Mechanical properties :
#
#
# Convention : Reuss Voigt Hill
#
# Bulk Modulus (GPa) = 40.79253 64.82760 52.81007
# Shear Modulus (GPa) = -19.82107 180.43264 80.30579
#
# Velocity S-wave (km/s) = -3.04558 9.18890 6.13027
# Velocity P-wave (km/s) = 2.59269 11.95484 8.64986
#
# Compressibility (1/GPa) = 0.02451429
#
# Stress axis : x y z
#
# Youngs Moduli (GPa) = 118.41811 108.42275 47.82834
#
# Poissons Ratio (x) = 0.47291 0.15381
# Poissons Ratio (y) = 0.51651 -0.02616
# Poissons Ratio (z) = 0.38082 -0.05929
#
# Static dielectric constant tensor:
#      x y z
#    x 3.990710 0.000000 0.000000 
#    y 0.000000 4.195960 0.000000 
#    z 0.000000 0.000000 3.556250 
# 
# 
# High freq. dielectric constant tensor:
#      x y z
#    x 1.843120 0.000000 0.000000 
#    y 0.000000 1.853790 0.000000 
#    z 0.000000 0.000000 1.796230 
# 
# From -- ./inp_files/12885.got.cif
#   From: 2010.03.12/outbox.cif.g09.slc.cpg/sg65_7_cif.got.tgz:12885.got - 2010.04.10 20:52:16.
