data_PCOD8269011
_publ_section_title
;
Structure prediction by ZEFSAII (Michael W. Deem and Ramdas Pophale) SiO2 
 PCOD8269011
Probable space group: C M M M
;
_chemical_formula_sum "Si O2"
_cell_formula_units_Z 72
_cell_length_a 17.089221
_cell_length_b 25.025413
_cell_length_c 8.513568
_cell_angle_alpha 90.000000
_cell_angle_beta 90.000000
_cell_angle_gamma 90.000000
_cell_volume 3640.953470
_symmetry_space_group_name_H-M "C M M M"
_symmetry_group_IT_number 65
_symmetry_cell_setting 'orthorhombic'
loop_
_space_group_symop_operation_xyz
x,y,z
-x,-y,z
x,-y,-z
-x,y,-z
-x,-y,-z
x,y,-z
-x,y,z
x,-y,z
1/2+x,1/2+y,z
1/2-x,1/2-y,z
1/2+x,1/2-y,-z
1/2-x,1/2+y,-z
1/2-x,1/2-y,-z
1/2+x,1/2+y,-z
1/2-x,1/2+y,z
1/2+x,1/2-y,z
loop_
_atom_site_type_symbol
_atom_site_label
_atom_site_fract_x
_atom_site_fract_y
_atom_site_fract_z
Si Si1 0.873891 0.641358 0.686729
Si Si2 0.086873 0.941070 0.686846
Si Si3 0.802920 0.849770 0.312419
Si Si4 0.914064 0.242007 0.685822
Si Si5 0.500000 0.061589 0.185461
O O1 0.878504 0.636683 0.500000
O O2 0.784761 0.641661 0.749056
O O3 0.908552 0.697456 0.748796
O O4 0.921963 0.591677 0.755809
O O5 0.086625 0.937913 0.500000
O O6 0.147523 0.898895 0.757114
O O7 0.000000 0.927917 0.749692
O O8 0.112754 0.000000 0.742541
O O9 0.803331 0.848532 0.500000
O O10 0.844343 0.795523 0.247306
O O11 0.904909 0.243515 0.500000
O O12 0.000000 0.219171 0.732599
O O13 0.500000 0.000000 0.247336
O O14 0.500000 0.062098 0.000000
#
# Coordination Sequence:
#
# PCOD8269011 Si02
#       5
#    16  16  16  16   8
#     4  10  19  33  53  79 105 129 166 217 264 305
#     4   8  13  21  32  51  89 137 172 196 235 296
#     4   9  16  24  41  71 105 136 167 206 253 301
#     4   9  15  25  44  72 107 141 170 200 247 308
#     4  11  25  43  59  73  95 135 180 217 264 322
#
# _framework density 19.775040000000001
#
# number of rings (size 3 to 8) (size 9 to 14) (size 15 to 20)
#    0.000    2.778    1.111    2.333    0.000    7.111 
#    0.000    2.222    0.000    2.667    0.000    0.000 
#    0.000    0.000    0.000    8.667    0.000    5.778 
#
# Total GULP energy -446091.425532 kJ/mol
# GULP energy per Si atom -12391.428487 kJ/mol
# Density = 1.973003 g / cm^3
# Si number density = 19.775040 Si / 1000 Ang^3
#
#
#
# Elastic Constant Matrix: (Units=GPa)
#
#
# Indices 1 2 3 4 5 6 
#
# 1 170.6593 100.1776 14.9755 0.0000 0.0000 0.0000
# 2 100.1776 168.3206 16.5582 0.0000 0.0000 0.0000
# 3 14.9755 16.5582 15.5925 0.0000 0.0000 0.0000
# 4 0.0000 0.0000 0.0000 7.9965 0.0000 0.0000
# 5 0.0000 0.0000 0.0000 0.0000 2.6366 0.0000
# 6 0.0000 0.0000 0.0000 0.0000 0.0000 29.6482
#
#
#
# Elastic Compliance Matrix: (Units=1/GPa)
#
#
# Indices 1 2 3 4 5 6 
#
# 1 0.009161 -0.005122 -0.003359 0.000000 0.000000 0.000000
# 2 -0.005122 0.009498 -0.005167 0.000000 0.000000 0.000000
# 3 -0.003359 -0.005167 0.072847 0.000000 0.000000 0.000000
# 4 0.000000 0.000000 0.000000 0.125054 0.000000 0.000000
# 5 0.000000 0.000000 0.000000 0.000000 0.379270 0.000000
# 6 0.000000 0.000000 0.000000 0.000000 0.000000 0.033729
#
#
# Mechanical properties :
#
#
# Convention : Reuss Voigt Hill
#
# Bulk Modulus (GPa) = 15.57406 68.66612 42.12009
# Shear Modulus (GPa) = 7.37184 22.91367 15.14275
#
# Velocity S-wave (km/s) = 1.93286 3.40769 2.77022
# Velocity P-wave (km/s) = 3.58803 7.09099 5.61943
#
# Compressibility (1/GPa) = 0.06420934
#
# Stress axis : x y z
#
# Youngs Moduli (GPa) = 109.15976 105.29039 13.72744
#
# Poissons Ratio (x) = 0.53927 0.04612
# Poissons Ratio (y) = 0.55908 0.07093
# Poissons Ratio (z) = 0.36672 0.54401
#
# Static dielectric constant tensor:
#      x y z
#    x 3.931870 0.000000 0.000000 
#    y 0.000000 3.968460 0.000000 
#    z 0.000000 0.000000 2.784060 
# 
# 
# High freq. dielectric constant tensor:
#      x y z
#    x 1.785380 0.000000 0.000000 
#    y 0.000000 1.782610 0.000000 
#    z 0.000000 0.000000 1.685720 
# 
# From -- ./inp_files/9282.got.cif
#   From: 2010.03.12/outbox.cif.g09.slc.cpg/sg65_5_cif.got.tgz:9282.got - 2010.04.10 20:52:16.
