data_PCOD8269462
_publ_section_title
;
Structure prediction by ZEFSAII (Michael W. Deem and Ramdas Pophale) SiO2 
 PCOD8269462
Probable space group: C M M M
;
_chemical_formula_sum "Si O2"
_cell_formula_units_Z 104
_cell_length_a 30.178385
_cell_length_b 9.138576
_cell_length_c 20.140503
_cell_angle_alpha 90.000000
_cell_angle_beta 90.000000
_cell_angle_gamma 90.000000
_cell_volume 5554.498264
_symmetry_space_group_name_H-M "C M M M"
_symmetry_group_IT_number 65
_symmetry_cell_setting 'orthorhombic'
loop_
_space_group_symop_operation_xyz
x,y,z
-x,-y,z
x,-y,-z
-x,y,-z
-x,-y,-z
x,y,-z
-x,y,z
x,-y,z
1/2+x,1/2+y,z
1/2-x,1/2-y,z
1/2+x,1/2-y,-z
1/2-x,1/2+y,-z
1/2-x,1/2-y,-z
1/2+x,1/2+y,-z
1/2-x,1/2+y,z
1/2+x,1/2-y,z
loop_
_atom_site_type_symbol
_atom_site_label
_atom_site_fract_x
_atom_site_fract_y
_atom_site_fract_z
Si Si1 0.858910 0.825541 0.190467
Si Si2 0.705715 0.670914 0.074963
Si Si3 0.338622 0.165885 0.575655
Si Si4 0.950783 0.164281 0.224519
Si Si5 0.420642 0.336283 0.628076
Si Si6 0.294728 0.169123 0.710219
Si Si7 0.500000 0.171184 0.428057
O O1 0.834289 0.781985 0.122669
O O2 0.910725 0.772540 0.178680
O O3 0.836299 0.743085 0.252636
O O4 0.856999 0.000000 0.204144
O O5 0.715146 0.500000 0.079197
O O6 0.750000 0.750000 0.099919
O O7 0.693372 0.719079 0.000000
O O8 0.322035 0.199020 0.500000
O O9 0.375036 0.283382 0.596706
O O10 0.299683 0.182700 0.630008
O O11 0.357784 0.000000 0.579035
O O12 0.923605 0.165450 0.293099
O O13 0.000000 0.245099 0.223828
O O14 0.961646 0.000000 0.203300
O O15 0.430139 0.500000 0.601322
O O16 0.456906 0.220776 0.608746
O O17 0.250000 0.250000 0.732271
O O18 0.291618 0.000000 0.731750
O O19 0.500000 0.244350 0.500000
O O20 0.500000 0.000000 0.432150
#
# Coordination Sequence:
#
# PCOD8269462 Si02
#       7
#    16  16  16  16  16  16   8
#     4  10  19  34  57  80 108 143 177 217 263 311
#     4   9  18  32  52  81 114 146 178 212 254 308
#     4  10  22  39  54  70  98 135 171 214 272 329
#     4   9  17  31  52  77 103 133 170 214 262 309
#     4  11  20  33  53  75  97 126 171 222 268 322
#     4  11  23  37  55  78 104 135 176 222 267 322
#     4  11  23  35  47  67  99 135 168 211 274 336
#
# _framework density 18.723562999999999
#
# number of rings (size 3 to 8) (size 9 to 14) (size 15 to 20)
#    0.000    1.923    2.308    2.077    0.000    5.538 
#    0.000    0.000    0.000    0.462    0.000    3.231 
#    0.000    0.000    0.000    5.231    0.000    5.538 
#
# Total GULP energy -644181.952252 kJ/mol
# GULP energy per Si atom -12388.114466 kJ/mol
# Density = 1.868095 g / cm^3
# Si number density = 18.723563 Si / 1000 Ang^3
#
#
#
# Elastic Constant Matrix: (Units=GPa)
#
#
# Indices 1 2 3 4 5 6 
#
# 1 135.1377 35.4473 46.8443 0.0000 0.0000 0.0000
# 2 35.4473 57.3079 23.1607 0.0000 0.0000 0.0000
# 3 46.8443 23.1607 84.8995 0.0000 0.0000 0.0000
# 4 0.0000 0.0000 0.0000 19.2858 0.0000 0.0000
# 5 0.0000 0.0000 0.0000 0.0000 29.2038 0.0000
# 6 0.0000 0.0000 0.0000 0.0000 0.0000 -14.1249
#
#
#
# Elastic Compliance Matrix: (Units=1/GPa)
#
#
# Indices 1 2 3 4 5 6 
#
# 1 0.010079 -0.004481 -0.004339 0.000000 0.000000 0.000000
# 2 -0.004481 0.021604 -0.003421 0.000000 0.000000 0.000000
# 3 -0.004339 -0.003421 0.015106 0.000000 0.000000 0.000000
# 4 0.000000 0.000000 0.000000 0.051852 0.000000 0.000000
# 5 0.000000 0.000000 0.000000 0.000000 0.034242 0.000000
# 6 0.000000 0.000000 0.000000 0.000000 0.000000 -0.070797
#
#
# Mechanical properties :
#
#
# Convention : Reuss Voigt Hill
#
# Bulk Modulus (GPa) = 44.82881 54.24997 49.53939
# Shear Modulus (GPa) = 53.18943 18.33247 35.76095
#
# Velocity S-wave (km/s) = 5.33567 3.13247 4.37503
# Velocity P-wave (km/s) = 7.87106 6.49001 7.21366
#
# Compressibility (1/GPa) = 0.02230709
#
# Stress axis : x y z
#
# Youngs Moduli (GPa) = 99.21341 46.28804 66.19881
#
# Poissons Ratio (x) = 0.20741 0.28724
# Poissons Ratio (y) = 0.44456 0.22648
# Poissons Ratio (z) = 0.43048 0.15836
#
# Static dielectric constant tensor:
#      x y z
#    x 3.701960 0.000000 0.000000 
#    y 0.000000 3.356160 0.000000 
#    z 0.000000 0.000000 3.601510 
# 
# 
# High freq. dielectric constant tensor:
#      x y z
#    x 1.729090 0.000000 0.000000 
#    y 0.000000 1.712680 0.000000 
#    z 0.000000 0.000000 1.711980 
# 
# From -- ./inp_files/66385.got.cif
#   From: 2010.03.12/outbox.cif.g09.slc.cpg/sg65_34_cif.got.tgz:66385.got - 2010.04.10 20:52:16.
