data_PCOD8269336
_publ_section_title
;
Structure prediction by ZEFSAII (Michael W. Deem and Ramdas Pophale) SiO2 
 PCOD8269336
Probable space group: C M M M
;
_chemical_formula_sum "Si O2"
_cell_formula_units_Z 88
_cell_length_a 26.916996
_cell_length_b 9.156663
_cell_length_c 18.567933
_cell_angle_alpha 90.000000
_cell_angle_beta 90.000000
_cell_angle_gamma 90.000000
_cell_volume 4576.435872
_symmetry_space_group_name_H-M "C M M M"
_symmetry_group_IT_number 65
_symmetry_cell_setting 'orthorhombic'
loop_
_space_group_symop_operation_xyz
x,y,z
-x,-y,z
x,-y,-z
-x,y,-z
-x,-y,-z
x,y,-z
-x,y,z
x,-y,z
1/2+x,1/2+y,z
1/2-x,1/2-y,z
1/2+x,1/2-y,-z
1/2-x,1/2+y,-z
1/2-x,1/2-y,-z
1/2+x,1/2+y,-z
1/2-x,1/2+y,z
1/2+x,1/2-y,z
loop_
_atom_site_type_symbol
_atom_site_label
_atom_site_fract_x
_atom_site_fract_y
_atom_site_fract_z
Si Si1 0.201168 0.170693 0.823598
Si Si2 0.701705 0.671578 0.342480
Si Si3 0.907771 0.168822 0.845239
Si Si4 0.386550 0.832326 0.583583
Si Si5 0.500000 0.168717 0.915394
Si Si6 0.555977 0.336582 0.690497
O O1 0.250000 0.250000 0.856963
O O2 0.194491 0.216904 0.740526
O O3 0.149540 0.212306 0.865502
O O4 0.211132 0.000000 0.830734
O O5 0.707181 0.500000 0.352283
O O6 0.750000 0.750000 0.374410
O O7 0.656759 0.726725 0.390601
O O8 0.909985 0.194124 0.759549
O O9 0.948944 0.263076 0.885866
O O10 0.918207 0.000000 0.864270
O O11 0.397626 0.809004 0.500000
O O12 0.434964 0.781564 0.627908
O O13 0.373737 0.000000 0.600989
O O14 0.500000 0.000000 0.893263
O O15 0.500000 0.192586 0.000000
O O16 0.500000 0.321265 0.717914
O O17 0.566781 0.500000 0.660873
#
# Coordination Sequence:
#
# PCOD8269336 Si02
#       6
#    16  16  16  16   8  16
#     4   9  18  32  54  85 117 147 186 237 285 336
#     4  10  19  34  54  77 106 140 182 235 289 342
#     4  10  19  37  62  88 118 154 195 235 280 339
#     4  11  24  38  51  72 105 145 189 237 290 348
#     4  11  25  41  59  93 132 159 188 229 279 332
#     4  10  20  37  59  81 106 139 185 238 287 342
#
# _framework density 19.228936999999998
#
# number of rings (size 3 to 8) (size 9 to 14) (size 15 to 20)
#    0.000    1.909    2.727    1.364    0.000    5.455 
#    0.000    1.818    0.000    0.545    0.000    0.000 
#    0.000    0.000    0.000    0.000    0.000    0.000 
#
# Total GULP energy -545462.119365 kJ/mol
# GULP energy per Si atom -12396.866349 kJ/mol
# Density = 1.918517 g / cm^3
# Si number density = 19.228937 Si / 1000 Ang^3
#
#
#
# Elastic Constant Matrix: (Units=GPa)
#
#
# Indices 1 2 3 4 5 6 
#
# 1 149.6709 60.2446 35.9419 0.0000 0.0000 0.0000
# 2 60.2446 95.4146 37.2171 0.0000 0.0000 0.0000
# 3 35.9419 37.2171 43.5751 0.0000 0.0000 0.0000
# 4 0.0000 0.0000 0.0000 24.6177 0.0000 0.0000
# 5 0.0000 0.0000 0.0000 0.0000 12.9705 0.0000
# 6 0.0000 0.0000 0.0000 0.0000 0.0000 39.0001
#
#
#
# Elastic Compliance Matrix: (Units=1/GPa)
#
#
# Indices 1 2 3 4 5 6 
#
# 1 0.009407 -0.004368 -0.004028 0.000000 0.000000 0.000000
# 2 -0.004368 0.017745 -0.011553 0.000000 0.000000 0.000000
# 3 -0.004028 -0.011553 0.036138 0.000000 0.000000 0.000000
# 4 0.000000 0.000000 0.000000 0.040621 0.000000 0.000000
# 5 0.000000 0.000000 0.000000 0.000000 0.077098 0.000000
# 6 0.000000 0.000000 0.000000 0.000000 0.000000 0.025641
#
#
# Mechanical properties :
#
#
# Convention : Reuss Voigt Hill
#
# Bulk Modulus (GPa) = 42.74962 61.71866 52.23414
# Shear Modulus (GPa) = 19.65824 25.66814 22.66319
#
# Velocity S-wave (km/s) = 3.20085 3.65755 3.43680
# Velocity P-wave (km/s) = 5.99506 7.07130 6.55531
#
# Compressibility (1/GPa) = 0.02339202
#
# Stress axis : x y z
#
# Youngs Moduli (GPa) = 106.30433 56.35413 27.67137
#
# Poissons Ratio (x) = 0.24617 0.11146
# Poissons Ratio (y) = 0.46437 0.31968
# Poissons Ratio (z) = 0.42821 0.65104
#
# Static dielectric constant tensor:
#      x y z
#    x 3.981510 0.000000 0.000000 
#    y 0.000000 3.646170 0.000000 
#    z 0.000000 0.000000 3.183740 
# 
# 
# High freq. dielectric constant tensor:
#      x y z
#    x 1.768060 0.000000 0.000000 
#    y 0.000000 1.747200 0.000000 
#    z 0.000000 0.000000 1.708310 
# 
# From -- ./inp_files/57997.got.cif
#   From: 2010.03.12/outbox.cif.g09.slc.cpg/sg65_29_cif.got.tgz:57997.got - 2010.04.10 20:52:16.
