data_PCOD8269365
_publ_section_title
;
Structure prediction by ZEFSAII (Michael W. Deem and Ramdas Pophale) SiO2 
 PCOD8269365
Probable space group: C M M M
;
_chemical_formula_sum "Si O2"
_cell_formula_units_Z 104
_cell_length_a 29.006212
_cell_length_b 9.050012
_cell_length_c 23.431847
_cell_angle_alpha 90.000000
_cell_angle_beta 90.000000
_cell_angle_gamma 90.000000
_cell_volume 6151.013707
_symmetry_space_group_name_H-M "C M M M"
_symmetry_group_IT_number 65
_symmetry_cell_setting 'orthorhombic'
loop_
_space_group_symop_operation_xyz
x,y,z
-x,-y,z
x,-y,-z
-x,y,-z
-x,-y,-z
x,y,-z
-x,y,z
x,-y,z
1/2+x,1/2+y,z
1/2-x,1/2-y,z
1/2+x,1/2-y,-z
1/2-x,1/2+y,-z
1/2-x,1/2-y,-z
1/2+x,1/2+y,-z
1/2-x,1/2+y,z
1/2+x,1/2-y,z
loop_
_atom_site_type_symbol
_atom_site_label
_atom_site_fract_x
_atom_site_fract_y
_atom_site_fract_z
Si Si1 0.612821 0.669107 0.435239
Si Si2 0.296382 0.827552 0.600293
Si Si3 0.795356 0.670652 0.733740
Si Si4 0.554767 0.837939 0.000000
Si Si5 0.893511 0.324028 0.769674
Si Si6 0.054014 0.672248 0.657528
Si Si7 0.551945 0.177122 0.122348
O O1 0.594793 0.678885 0.500000
O O2 0.621351 0.500000 0.416704
O O3 0.660483 0.757351 0.431488
O O4 0.573475 0.739409 0.396110
O O5 0.250000 0.750000 0.577665
O O6 0.302709 0.797795 0.667213
O O7 0.293663 0.000000 0.585825
O O8 0.788224 0.500000 0.746263
O O9 0.750000 0.750000 0.757959
O O10 0.840747 0.731648 0.765825
O O11 0.568818 0.758923 0.939904
O O12 0.500000 0.854613 0.000000
O O13 0.577693 0.000000 0.000000
O O14 0.895566 0.500000 0.769993
O O15 0.922315 0.267205 0.715249
O O16 0.915241 0.259611 0.827951
O O17 0.065447 0.500000 0.648424
O O18 0.000000 0.701517 0.662666
O O19 0.500000 0.230036 0.135812
O O20 0.553333 0.000000 0.120103
#
# Coordination Sequence:
#
# PCOD8269365 Si02
#       7
#    16  16  16   8  16  16  16
#     4  11  24  39  53  70  94 125 159 193 234 285
#     4  10  19  34  55  77  99 122 151 190 236 287
#     4   9  17  29  46  68  93 117 146 184 227 276
#     4   7  10  16  26  48  85 124 157 185 217 263
#     4   9  15  26  43  66  91 117 151 191 232 276
#     4  10  20  35  54  73  93 119 155 198 242 286
#     4   8  12  18  32  56  88 124 156 186 223 268
#
# _framework density 16.907782000000001
#
# number of rings (size 3 to 8) (size 9 to 14) (size 15 to 20)
#    0.000    2.692    1.538    2.308    0.000    4.615 
#    0.000    1.538    0.000    0.000    0.000    0.538 
#    0.000    0.000    0.000    2.077    0.000   25.000 
#
# Total GULP energy -644536.911509 kJ/mol
# GULP energy per Si atom -12394.940606 kJ/mol
# Density = 1.686930 g / cm^3
# Si number density = 16.907782 Si / 1000 Ang^3
#
#
#
# Elastic Constant Matrix: (Units=GPa)
#
#
# Indices 1 2 3 4 5 6 
#
# 1 114.5240 32.3220 68.6809 0.0000 0.0000 0.0000
# 2 32.3220 45.2487 33.7466 0.0000 0.0000 0.0000
# 3 68.6809 33.7466 122.7668 0.0000 0.0000 0.0000
# 4 0.0000 0.0000 0.0000 6.5822 0.0000 0.0000
# 5 0.0000 0.0000 0.0000 0.0000 23.8338 0.0000
# 6 0.0000 0.0000 0.0000 0.0000 0.0000 24.5961
#
#
#
# Elastic Compliance Matrix: (Units=1/GPa)
#
#
# Indices 1 2 3 4 5 6 
#
# 1 0.014069 -0.005258 -0.006426 0.000000 0.000000 0.000000
# 2 -0.005258 0.029764 -0.005240 0.000000 0.000000 0.000000
# 3 -0.006426 -0.005240 0.013181 0.000000 0.000000 0.000000
# 4 0.000000 0.000000 0.000000 0.151924 0.000000 0.000000
# 5 0.000000 0.000000 0.000000 0.000000 0.041957 0.000000
# 6 0.000000 0.000000 0.000000 0.000000 0.000000 0.040657
#
#
# Mechanical properties :
#
#
# Convention : Reuss Voigt Hill
#
# Bulk Modulus (GPa) = 43.16529 61.33762 52.25146
# Shear Modulus (GPa) = 15.00954 20.85511 17.93233
#
# Velocity S-wave (km/s) = 2.98271 3.51588 3.26021
# Velocity P-wave (km/s) = 6.11942 7.26900 6.71884
#
# Compressibility (1/GPa) = 0.02316676
#
# Stress axis : x y z
#
# Youngs Moduli (GPa) = 71.07754 33.59774 75.86811
#
# Poissons Ratio (x) = 0.17664 0.48750
# Poissons Ratio (y) = 0.37370 0.39757
# Poissons Ratio (z) = 0.45672 0.17606
#
# Static dielectric constant tensor:
#      x y z
#    x 3.215000 0.000000 0.000000 
#    y 0.000000 2.870410 0.000000 
#    z 0.000000 0.000000 3.397300 
# 
# 
# High freq. dielectric constant tensor:
#      x y z
#    x 1.645730 0.000000 0.000000 
#    y 0.000000 1.613750 0.000000 
#    z 0.000000 0.000000 1.645790 
# 
# From -- ./inp_files/72190.got.cif
#   From: 2010.03.12/outbox.cif.g09.slc.cpg/sg65_37_cif.got.tgz:72190.got - 2010.04.10 20:52:16.
