data_PCOD8269666
_publ_section_title
;
Structure prediction by ZEFSAII (Michael W. Deem and Ramdas Pophale) SiO2 
 PCOD8269666
Probable space group: C M M M
;
_chemical_formula_sum "Si O2"
_cell_formula_units_Z 88
_cell_length_a 22.458344
_cell_length_b 22.614320
_cell_length_c 9.137485
_cell_angle_alpha 90.000000
_cell_angle_beta 90.000000
_cell_angle_gamma 90.000000
_cell_volume 4640.747507
_symmetry_space_group_name_H-M "C M M M"
_symmetry_group_IT_number 65
_symmetry_cell_setting 'orthorhombic'
loop_
_space_group_symop_operation_xyz
x,y,z
-x,-y,z
x,-y,-z
-x,y,-z
-x,-y,-z
x,y,-z
-x,y,z
x,-y,z
1/2+x,1/2+y,z
1/2-x,1/2-y,z
1/2+x,1/2-y,-z
1/2-x,1/2+y,-z
1/2-x,1/2-y,-z
1/2+x,1/2+y,-z
1/2-x,1/2+y,z
1/2+x,1/2-y,z
loop_
_atom_site_type_symbol
_atom_site_label
_atom_site_fract_x
_atom_site_fract_y
_atom_site_fract_z
Si Si1 0.500000 0.567615 0.826435
Si Si2 0.566496 0.069486 0.337914
Si Si3 0.231162 0.932955 0.669032
Si Si4 0.124917 0.120117 0.825629
Si Si5 0.184778 0.239328 0.831579
Si Si6 0.665161 0.130591 0.832724
O O1 0.500000 0.500000 0.764758
O O2 0.558208 0.603890 0.771771
O O3 0.500000 0.564653 0.000000
O O4 0.590989 0.086141 0.500000
O O5 0.500000 0.094490 0.319040
O O6 0.606354 0.096312 0.211693
O O7 0.566375 0.000000 0.318359
O O8 0.221537 0.916702 0.500000
O O9 0.169011 0.927553 0.754333
O O10 0.278737 0.887928 0.735905
O O11 0.254809 0.000000 0.686648
O O12 0.145623 0.185227 0.766063
O O13 0.128683 0.115483 0.000000
O O14 0.250000 0.250000 0.757856
O O15 0.149199 0.300367 0.811512
O O16 0.195916 0.222764 0.000000
O O17 0.681252 0.116044 0.000000
#
# Coordination Sequence:
#
# PCOD8269666 Si02
#       6
#     8  16  16  16  16  16
#     4   9  18  32  55  87 111 135 182 233 274 324
#     4   9  19  37  57  76 106 147 183 219 271 329
#     4  11  23  36  52  79 112 143 178 221 275 335
#     4  10  19  36  59  80 108 144 183 228 276 327
#     4   9  17  33  54  78 108 140 175 220 273 325
#     4  11  21  34  55  82 109 139 181 228 273 325
#
# _framework density 18.962463
#
# number of rings (size 3 to 8) (size 9 to 14) (size 15 to 20)
#    0.000    2.091    1.818    2.727    0.000    5.091 
#    1.636    4.091    0.000    1.636    0.000    0.000 
#    0.000    0.000    0.000    0.000    0.000    0.000 
#
# Total GULP energy -545447.238787 kJ/mol
# GULP energy per Si atom -12396.528154 kJ/mol
# Density = 1.891930 g / cm^3
# Si number density = 18.962463 Si / 1000 Ang^3
#
#
#
# Elastic Constant Matrix: (Units=GPa)
#
#
# Indices 1 2 3 4 5 6 
#
# 1 123.9713 59.9660 30.3025 0.0000 0.0000 0.0000
# 2 59.9660 93.8816 33.1943 0.0000 0.0000 0.0000
# 3 30.3025 33.1943 55.1128 0.0000 0.0000 0.0000
# 4 0.0000 0.0000 0.0000 6.2287 0.0000 0.0000
# 5 0.0000 0.0000 0.0000 0.0000 23.1011 0.0000
# 6 0.0000 0.0000 0.0000 0.0000 0.0000 32.7830
#
#
#
# Elastic Compliance Matrix: (Units=1/GPa)
#
#
# Indices 1 2 3 4 5 6 
#
# 1 0.011939 -0.006740 -0.002505 0.000000 0.000000 0.000000
# 2 -0.006740 0.017339 -0.006737 0.000000 0.000000 0.000000
# 3 -0.002505 -0.006737 0.023580 0.000000 0.000000 0.000000
# 4 0.000000 0.000000 0.000000 0.160547 0.000000 0.000000
# 5 0.000000 0.000000 0.000000 0.000000 0.043288 0.000000
# 6 0.000000 0.000000 0.000000 0.000000 0.000000 0.030504
#
#
# Mechanical properties :
#
#
# Convention : Reuss Voigt Hill
#
# Bulk Modulus (GPa) = 47.86270 57.76569 52.81420
# Shear Modulus (GPa) = 15.33154 22.38941 18.86048
#
# Velocity S-wave (km/s) = 2.84653 3.43989 3.15718
# Velocity P-wave (km/s) = 6.00826 6.80489 6.41894
#
# Compressibility (1/GPa) = 0.02089310
#
# Stress axis : x y z
#
# Youngs Moduli (GPa) = 83.75945 57.67290 42.40950
#
# Poissons Ratio (x) = 0.38873 0.10622
# Poissons Ratio (y) = 0.56456 0.28573
# Poissons Ratio (z) = 0.20979 0.38856
#
# Static dielectric constant tensor:
#      x y z
#    x 3.613130 0.000000 0.000000 
#    y 0.000000 3.569340 0.000000 
#    z 0.000000 0.000000 3.229370 
# 
# 
# High freq. dielectric constant tensor:
#      x y z
#    x 1.736360 0.000000 0.000000 
#    y 0.000000 1.741160 0.000000 
#    z 0.000000 0.000000 1.707450 
# 
# From -- ./inp_files/11723.got.cif
#   From: 2010.03.12/outbox.cif.g09.slc.cpg/sg65_6_cif.got.tgz:11723.got - 2010.04.10 20:52:16.
