data_PCOD8269134
_publ_section_title
;
Structure prediction by ZEFSAII (Michael W. Deem and Ramdas Pophale) SiO2 
 PCOD8269134
Probable space group: C M M M
;
_chemical_formula_sum "Si O2"
_cell_formula_units_Z 64
_cell_length_a 8.907363
_cell_length_b 18.027460
_cell_length_c 20.919829
_cell_angle_alpha 90.000000
_cell_angle_beta 90.000000
_cell_angle_gamma 90.000000
_cell_volume 3359.246105
_symmetry_space_group_name_H-M "C M M M"
_symmetry_group_IT_number 65
_symmetry_cell_setting 'orthorhombic'
loop_
_space_group_symop_operation_xyz
x,y,z
-x,-y,z
x,-y,-z
-x,y,-z
-x,-y,-z
x,y,-z
-x,y,z
x,-y,z
1/2+x,1/2+y,z
1/2-x,1/2-y,z
1/2+x,1/2-y,-z
1/2-x,1/2+y,-z
1/2-x,1/2-y,-z
1/2+x,1/2+y,-z
1/2-x,1/2+y,z
1/2+x,1/2-y,z
loop_
_atom_site_type_symbol
_atom_site_label
_atom_site_fract_x
_atom_site_fract_y
_atom_site_fract_z
Si Si1 0.821681 0.669814 0.000000
Si Si2 0.321498 0.083345 0.124821
Si Si3 0.328539 0.588481 0.638040
Si Si4 0.322800 0.580774 0.500000
Si Si5 0.323172 0.170226 0.248705
O O1 0.750000 0.750000 0.000000
O O2 0.763621 0.625566 0.938045
O O3 0.000000 0.677838 0.000000
O O4 0.500000 0.080151 0.125177
O O5 0.261006 0.126310 0.187026
O O6 0.255446 0.000000 0.125095
O O7 0.500000 0.611266 0.653918
O O8 0.311454 0.500000 0.639254
O O9 0.279932 0.620339 0.567341
O O10 0.217071 0.624309 0.688440
O O11 0.245153 0.500000 0.500000
O O12 0.500000 0.569309 0.500000
O O13 0.500000 0.179984 0.244892
O O14 0.250000 0.250000 0.250952
#
# Coordination Sequence:
#
# PCOD8269134 Si02
#       5
#     8  16  16   8  16
#     4  10  19  33  55  79 105 136 168 204 248 300
#     4   9  18  33  54  78 101 130 171 214 253 298
#     4   9  17  32  55  80 104 132 168 209 255 308
#     4   7  12  26  50  77 102 129 163 205 252 303
#     4  11  22  35  51  73 104 138 173 214 259 307
#
# _framework density 19.051893
#
# number of rings (size 3 to 8) (size 9 to 14) (size 15 to 20)
#    0.000    2.625    0.000    4.125    0.000    3.000 
#    0.000    2.500    0.000    6.750    0.000    0.000 
#    0.000    0.000    0.000    0.000    0.000    0.000 
#
# Total GULP energy -396624.393709 kJ/mol
# GULP energy per Si atom -12394.512303 kJ/mol
# Density = 1.900853 g / cm^3
# Si number density = 19.051893 Si / 1000 Ang^3
#
#
#
# Elastic Constant Matrix: (Units=GPa)
#
#
# Indices 1 2 3 4 5 6 
#
# 1 36.9562 23.2156 30.0833 0.0000 0.0000 0.0000
# 2 23.2156 97.9921 65.7285 0.0000 0.0000 0.0000
# 3 30.0833 65.7285 192.0531 0.0000 0.0000 0.0000
# 4 0.0000 0.0000 0.0000 7.3974 0.0000 0.0000
# 5 0.0000 0.0000 0.0000 0.0000 24.0783 0.0000
# 6 0.0000 0.0000 0.0000 0.0000 0.0000 17.4398
#
#
#
# Elastic Compliance Matrix: (Units=1/GPa)
#
#
# Indices 1 2 3 4 5 6 
#
# 1 0.033297 -0.005698 -0.003266 0.000000 0.000000 0.000000
# 2 -0.005698 0.014221 -0.003974 0.000000 0.000000 0.000000
# 3 -0.003266 -0.003974 0.007079 0.000000 0.000000 0.000000
# 4 0.000000 0.000000 0.000000 0.135183 0.000000 0.000000
# 5 0.000000 0.000000 0.000000 0.000000 0.041531 0.000000
# 6 0.000000 0.000000 0.000000 0.000000 0.000000 0.057340
#
#
# Mechanical properties :
#
#
# Convention : Reuss Voigt Hill
#
# Bulk Modulus (GPa) = 34.81876 62.78403 48.80140
# Shear Modulus (GPa) = 15.42734 23.64803 19.53769
#
# Velocity S-wave (km/s) = 2.84870 3.52695 3.20581
# Velocity P-wave (km/s) = 5.39774 7.04355 6.27484
#
# Compressibility (1/GPa) = 0.02872015
#
# Stress axis : x y z
#
# Youngs Moduli (GPa) = 30.03293 70.32024 141.27109
#
# Poissons Ratio (x) = 0.40069 0.46132
# Poissons Ratio (y) = 0.17113 0.56146
# Poissons Ratio (z) = 0.09807 0.27948
#
# Static dielectric constant tensor:
#      x y z
#    x 3.092830 0.000000 0.000000 
#    y 0.000000 3.391020 0.000000 
#    z 0.000000 0.000000 4.108950 
# 
# 
# High freq. dielectric constant tensor:
#      x y z
#    x 1.699050 0.000000 0.000000 
#    y 0.000000 1.730910 0.000000 
#    z 0.000000 0.000000 1.767260 
# 
# From -- ./inp_files/58788.got.cif
#   From: 2010.03.12/outbox.cif.g09.slc.cpg/sg65_30_cif.got.tgz:58788.got - 2010.04.10 20:52:16.
