data_PCOD8269190
_publ_section_title
;
Structure prediction by ZEFSAII (Michael W. Deem and Ramdas Pophale) SiO2 
 PCOD8269190
Probable space group: C M M M
;
_chemical_formula_sum "Si O2"
_cell_formula_units_Z 88
_cell_length_a 28.801330
_cell_length_b 17.940683
_cell_length_c 8.931716
_cell_angle_alpha 90.000000
_cell_angle_beta 90.000000
_cell_angle_gamma 90.000000
_cell_volume 4615.156380
_symmetry_space_group_name_H-M "C M M M"
_symmetry_group_IT_number 65
_symmetry_cell_setting 'orthorhombic'
loop_
_space_group_symop_operation_xyz
x,y,z
-x,-y,z
x,-y,-z
-x,y,-z
-x,-y,-z
x,y,-z
-x,y,z
x,-y,z
1/2+x,1/2+y,z
1/2-x,1/2-y,z
1/2+x,1/2-y,-z
1/2-x,1/2+y,-z
1/2-x,1/2-y,-z
1/2+x,1/2+y,-z
1/2-x,1/2+y,z
1/2+x,1/2-y,z
loop_
_atom_site_type_symbol
_atom_site_label
_atom_site_fract_x
_atom_site_fract_y
_atom_site_fract_z
Si Si1 0.291579 0.161802 0.823143
Si Si2 0.700858 0.680498 0.673517
Si Si3 0.401182 0.361550 0.327619
Si Si4 0.947862 0.000000 0.176473
Si Si5 0.946814 0.291774 0.323425
Si Si6 0.885523 0.584677 0.824247
O O1 0.304642 0.243552 0.765532
O O2 0.244334 0.134165 0.741139
O O3 0.333201 0.106805 0.777914
O O4 0.283131 0.163622 0.000000
O O5 0.709715 0.699549 0.500000
O O6 0.654170 0.633199 0.693168
O O7 0.415596 0.372822 0.500000
O O8 0.422543 0.426460 0.230825
O O9 0.420422 0.282484 0.267994
O O10 0.000000 0.000000 0.240205
O O11 0.947430 0.000000 0.000000
O O12 0.942760 0.299118 0.500000
O O13 0.923539 0.364443 0.254328
O O14 0.000000 0.287423 0.269902
O O15 0.894100 0.500000 0.772889
O O16 0.892081 0.594593 0.000000
#
# Coordination Sequence:
#
# PCOD8269190 Si02
#       6
#    16  16  16   8  16  16
#     4  10  19  33  55  82 114 150 189 230 281 336
#     4  10  19  33  58  86 113 144 186 233 280 336
#     4  10  21  39  62  85 115 152 190 234 287 346
#     4  11  25  41  59  87 119 151 191 239 290 345
#     4  10  21  38  61  87 112 144 190 239 287 339
#     4  10  22  39  57  80 115 156 195 235 283 341
#
# _framework density 19.067609999999998
#
# number of rings (size 3 to 8) (size 9 to 14) (size 15 to 20)
#    0.000    1.909    1.818    3.000    0.000    5.455 
#    1.636    1.818    0.000    0.000    0.000    0.000 
#    0.000    0.000    0.000    0.000    0.000    0.000 
#
# Total GULP energy -545662.779428 kJ/mol
# GULP energy per Si atom -12401.426805 kJ/mol
# Density = 1.902421 g / cm^3
# Si number density = 19.067610 Si / 1000 Ang^3
#
#
#
# Elastic Constant Matrix: (Units=GPa)
#
#
# Indices 1 2 3 4 5 6 
#
# 1 141.8315 56.8890 47.2866 0.0000 0.0000 0.0000
# 2 56.8890 104.6517 26.4108 0.0000 0.0000 0.0000
# 3 47.2866 26.4108 44.9608 0.0000 0.0000 0.0000
# 4 0.0000 0.0000 0.0000 30.5293 0.0000 0.0000
# 5 0.0000 0.0000 0.0000 0.0000 34.2215 0.0000
# 6 0.0000 0.0000 0.0000 0.0000 0.0000 23.4385
#
#
#
# Elastic Compliance Matrix: (Units=1/GPa)
#
#
# Indices 1 2 3 4 5 6 
#
# 1 0.012108 -0.003954 -0.010411 0.000000 0.000000 0.000000
# 2 -0.003954 0.012510 -0.003190 0.000000 0.000000 0.000000
# 3 -0.010411 -0.003190 0.035065 0.000000 0.000000 0.000000
# 4 0.000000 0.000000 0.000000 0.032755 0.000000 0.000000
# 5 0.000000 0.000000 0.000000 0.000000 0.029221 0.000000
# 6 0.000000 0.000000 0.000000 0.000000 0.000000 0.042665
#
#
# Mechanical properties :
#
#
# Convention : Reuss Voigt Hill
#
# Bulk Modulus (GPa) = 40.69624 61.40189 51.04906
# Shear Modulus (GPa) = 24.08170 28.36168 26.22169
#
# Velocity S-wave (km/s) = 3.55768 3.86090 3.71239
# Velocity P-wave (km/s) = 6.18591 7.22132 6.72358
#
# Compressibility (1/GPa) = 0.02457229
#
# Stress axis : x y z
#
# Youngs Moduli (GPa) = 82.59090 79.93534 28.51834
#
# Poissons Ratio (x) = 0.31610 0.29691
# Poissons Ratio (y) = 0.32660 0.09097
# Poissons Ratio (z) = 0.85988 0.25497
#
# Static dielectric constant tensor:
#      x y z
#    x 3.848440 0.000000 0.000000 
#    y 0.000000 3.503680 0.000000 
#    z 0.000000 0.000000 3.454870 
# 
# 
# High freq. dielectric constant tensor:
#      x y z
#    x 1.760480 0.000000 0.000000 
#    y 0.000000 1.726120 0.000000 
#    z 0.000000 0.000000 1.740900 
# 
# From -- ./inp_files/18267.got.cif
#   From: 2010.03.12/outbox.cif.g09.slc.cpg/sg65_10_cif.got.tgz:18267.got - 2010.04.10 20:52:16.
