data_PCOD8269030
_publ_section_title
;
Structure prediction by ZEFSAII (Michael W. Deem and Ramdas Pophale) SiO2 
 PCOD8269030
Probable space group: C M M M
;
_chemical_formula_sum "Si O2"
_cell_formula_units_Z 104
_cell_length_a 22.771541
_cell_length_b 28.581608
_cell_length_c 8.364903
_cell_angle_alpha 90.000000
_cell_angle_beta 90.000000
_cell_angle_gamma 90.000000
_cell_volume 5444.274184
_symmetry_space_group_name_H-M "C M M M"
_symmetry_group_IT_number 65
_symmetry_cell_setting 'orthorhombic'
loop_
_space_group_symop_operation_xyz
x,y,z
-x,-y,z
x,-y,-z
-x,y,-z
-x,-y,-z
x,y,-z
-x,y,z
x,-y,z
1/2+x,1/2+y,z
1/2-x,1/2-y,z
1/2+x,1/2-y,-z
1/2-x,1/2+y,-z
1/2-x,1/2-y,-z
1/2+x,1/2+y,-z
1/2-x,1/2+y,z
1/2+x,1/2-y,z
loop_
_atom_site_type_symbol
_atom_site_label
_atom_site_fract_x
_atom_site_fract_y
_atom_site_fract_z
Si Si1 0.064167 0.225570 0.189465
Si Si2 0.430745 0.098420 0.176027
Si Si3 0.364630 0.361704 0.813724
Si Si4 0.069576 0.447100 0.500000
Si Si5 0.065882 0.947352 0.311427
Si Si6 0.637627 0.810095 0.818505
Si Si7 0.256395 0.696778 0.315791
O O1 0.083679 0.173633 0.236618
O O2 0.111046 0.262593 0.258447
O O3 0.000000 0.234215 0.264772
O O4 0.061790 0.232391 0.000000
O O5 0.500000 0.093355 0.180296
O O6 0.403753 0.073267 0.333432
O O7 0.414115 0.152399 0.189976
O O8 0.408542 0.078996 0.000000
O O9 0.382356 0.411892 0.741402
O O10 0.303436 0.338255 0.761430
O O11 0.360379 0.369344 0.000000
O O12 0.089146 0.500000 0.500000
O O13 0.000000 0.439800 0.500000
O O14 0.064389 0.947198 0.500000
O O15 0.000000 0.933580 0.247684
O O16 0.081407 0.000000 0.250386
O O17 0.693050 0.826890 0.714162
O O18 0.659038 0.802055 0.000000
O O19 0.272547 0.700189 0.500000
O O20 0.250000 0.750000 0.242991
#
# Coordination Sequence:
#
# PCOD8269030 Si02
#       7
#    16  16  16   8  16  16  16
#     4   9  17  29  48  76 109 143 176 216 270 327
#     4   9  18  32  52  80 111 143 180 224 276 334
#     4  11  21  34  55  81 112 146 188 237 280 328
#     4   9  18  32  52  78 107 140 176 218 269 328
#     4   9  19  37  60  85 116 153 188 228 286 349
#     4  10  19  33  54  76 105 143 184 224 270 327
#     4  11  23  37  53  75 108 147 191 232 271 326
#
# _framework density 19.102639
#
# number of rings (size 3 to 8) (size 9 to 14) (size 15 to 20)
#    0.000    2.231    1.538    2.308    1.077    4.000 
#    0.000    2.308    0.000    1.846    0.000    2.154 
#    0.000    0.000    0.000    0.000    0.000    0.000 
#
# Total GULP energy -644250.452459 kJ/mol
# GULP energy per Si atom -12389.431778 kJ/mol
# Density = 1.905916 g / cm^3
# Si number density = 19.102639 Si / 1000 Ang^3
#
#
#
# Elastic Constant Matrix: (Units=GPa)
#
#
# Indices 1 2 3 4 5 6 
#
# 1 91.9769 43.9940 16.8612 0.0000 0.0000 0.0000
# 2 43.9940 122.8593 46.6253 0.0000 0.0000 0.0000
# 3 16.8612 46.6253 82.2291 0.0000 0.0000 0.0000
# 4 0.0000 0.0000 0.0000 26.5485 0.0000 0.0000
# 5 0.0000 0.0000 0.0000 0.0000 18.5907 0.0000
# 6 0.0000 0.0000 0.0000 0.0000 0.0000 21.4700
#
#
#
# Elastic Compliance Matrix: (Units=1/GPa)
#
#
# Indices 1 2 3 4 5 6 
#
# 1 0.013119 -0.004685 -0.000034 0.000000 0.000000 0.000000
# 2 -0.004685 0.012044 -0.005869 0.000000 0.000000 0.000000
# 3 -0.000034 -0.005869 0.015496 0.000000 0.000000 0.000000
# 4 0.000000 0.000000 0.000000 0.037667 0.000000 0.000000
# 5 0.000000 0.000000 0.000000 0.000000 0.053790 0.000000
# 6 0.000000 0.000000 0.000000 0.000000 0.000000 0.046577
#
#
# Mechanical properties :
#
#
# Convention : Reuss Voigt Hill
#
# Bulk Modulus (GPa) = 51.32249 56.89181 54.10715
# Shear Modulus (GPa) = 24.22919 25.96082 25.09501
#
# Velocity S-wave (km/s) = 3.56528 3.69048 3.62842
# Velocity P-wave (km/s) = 6.62369 6.92867 6.77790
#
# Compressibility (1/GPa) = 0.01948464
#
# Stress axis : x y z
#
# Youngs Moduli (GPa) = 76.22287 83.02761 64.53435
#
# Poissons Ratio (x) = 0.38899 0.00217
# Poissons Ratio (y) = 0.35711 0.37872
# Poissons Ratio (z) = 0.00256 0.48725
#
# Static dielectric constant tensor:
#      x y z
#    x 3.425570 0.000000 0.000000 
#    y 0.000000 3.547370 0.000000 
#    z 0.000000 0.000000 3.640240 
# 
# 
# High freq. dielectric constant tensor:
#      x y z
#    x 1.725300 0.000000 0.000000 
#    y 0.000000 1.731310 0.000000 
#    z 0.000000 0.000000 1.736990 
# 
# From -- ./inp_files/14716.got.cif
#   From: 2010.03.12/outbox.cif.g09.slc.cpg/sg65_8_cif.got.tgz:14716.got - 2010.04.10 20:52:16.
