data_PCOD8269560
_publ_section_title
;
Structure prediction by ZEFSAII (Michael W. Deem and Ramdas Pophale) SiO2 
 PCOD8269560
Probable space group: C M M M
;
_chemical_formula_sum "Si O2"
_cell_formula_units_Z 88
_cell_length_a 13.970641
_cell_length_b 14.312873
_cell_length_c 21.250512
_cell_angle_alpha 90.000000
_cell_angle_beta 90.000000
_cell_angle_gamma 90.000000
_cell_volume 4249.252600
_symmetry_space_group_name_H-M "C M M M"
_symmetry_group_IT_number 65
_symmetry_cell_setting 'orthorhombic'
loop_
_space_group_symop_operation_xyz
x,y,z
-x,-y,z
x,-y,-z
-x,y,-z
-x,-y,-z
x,y,-z
-x,y,z
x,-y,z
1/2+x,1/2+y,z
1/2-x,1/2-y,z
1/2+x,1/2-y,-z
1/2-x,1/2+y,-z
1/2-x,1/2-y,-z
1/2+x,1/2+y,-z
1/2-x,1/2+y,z
1/2+x,1/2-y,z
loop_
_atom_site_type_symbol
_atom_site_label
_atom_site_fract_x
_atom_site_fract_y
_atom_site_fract_z
Si Si1 0.228007 0.146135 0.254099
Si Si2 0.716779 0.395106 0.881912
Si Si3 0.890613 0.720123 0.926783
Si Si4 0.385969 0.605459 0.500000
Si Si5 0.887588 0.198155 0.626262
Si Si6 0.108513 0.399456 0.335937
O O1 0.250000 0.250000 0.231820
O O2 0.188165 0.095864 0.192060
O O3 0.154732 0.145498 0.312931
O O4 0.325562 0.094863 0.274453
O O5 0.711794 0.500000 0.910701
O O6 0.823932 0.352582 0.888935
O O7 0.641621 0.327602 0.916561
O O8 0.000000 0.708397 0.903654
O O9 0.880710 0.696363 0.000000
O O10 0.348934 0.500000 0.500000
O O11 0.500000 0.611492 0.500000
O O12 0.344712 0.654619 0.562536
O O13 0.859237 0.308699 0.623588
O O14 0.000000 0.182753 0.629470
O O15 0.117386 0.500000 0.372504
O O16 0.000000 0.384026 0.313112
#
# Coordination Sequence:
#
# PCOD8269560 Si02
#       6
#    16  16  16   8  16  16
#     4  10  19  35  55  84 118 151 186 235 288 344
#     4  11  22  38  62  92 123 157 202 253 302 357
#     4  10  23  43  63  87 124 164 202 247 297 354
#     4   9  18  34  54  77 108 148 195 240 284 343
#     4   9  19  35  57  82 110 147 189 236 291 348
#     4   9  18  33  53  78 110 146 183 227 282 343
#
# _framework density 20.709526
#
# number of rings (size 3 to 8) (size 9 to 14) (size 15 to 20)
#    0.000    2.273    1.818    1.636    0.000    5.091 
#    0.000    6.364    0.000    2.727    0.000    0.000 
#    0.000    0.000    0.000    0.000    0.000    0.000 
#
# Total GULP energy -545280.010577 kJ/mol
# GULP energy per Si atom -12392.727513 kJ/mol
# Density = 2.066239 g / cm^3
# Si number density = 20.709526 Si / 1000 Ang^3
#
#
#
# Elastic Constant Matrix: (Units=GPa)
#
#
# Indices 1 2 3 4 5 6 
#
# 1 65.6281 23.3675 26.9834 0.0000 0.0000 0.0000
# 2 23.3675 135.3056 31.2121 0.0000 0.0000 0.0000
# 3 26.9834 31.2121 103.8043 0.0000 0.0000 0.0000
# 4 0.0000 0.0000 0.0000 8.7212 0.0000 0.0000
# 5 0.0000 0.0000 0.0000 0.0000 26.8232 0.0000
# 6 0.0000 0.0000 0.0000 0.0000 0.0000 15.6239
#
#
#
# Elastic Compliance Matrix: (Units=1/GPa)
#
#
# Indices 1 2 3 4 5 6 
#
# 1 0.017616 -0.002134 -0.003938 0.000000 0.000000 0.000000
# 2 -0.002134 0.008200 -0.001911 0.000000 0.000000 0.000000
# 3 -0.003938 -0.001911 0.011232 0.000000 0.000000 0.000000
# 4 0.000000 0.000000 0.000000 0.114663 0.000000 0.000000
# 5 0.000000 0.000000 0.000000 0.000000 0.037281 0.000000
# 6 0.000000 0.000000 0.000000 0.000000 0.000000 0.064004
#
#
# Mechanical properties :
#
#
# Convention : Reuss Voigt Hill
#
# Bulk Modulus (GPa) = 47.43185 51.98489 49.70837
# Shear Modulus (GPa) = 18.11668 25.11202 21.61435
#
# Velocity S-wave (km/s) = 2.96091 3.48599 3.23413
# Velocity P-wave (km/s) = 5.88578 6.43112 6.16448
#
# Compressibility (1/GPa) = 0.02108288
#
# Stress axis : x y z
#
# Youngs Moduli (GPa) = 56.76605 121.95091 89.03428
#
# Poissons Ratio (x) = 0.26025 0.35058
# Poissons Ratio (y) = 0.12114 0.17013
# Poissons Ratio (z) = 0.22352 0.23303
#
# Static dielectric constant tensor:
#      x y z
#    x 3.707490 0.000000 0.000000 
#    y 0.000000 3.991900 0.000000 
#    z 0.000000 0.000000 3.617270 
# 
# 
# High freq. dielectric constant tensor:
#      x y z
#    x 1.801450 0.000000 0.000000 
#    y 0.000000 1.818190 0.000000 
#    z 0.000000 0.000000 1.792950 
# 
# From -- ./inp_files/62469.got.cif
#   From: 2010.03.12/outbox.cif.g09.slc.cpg/sg65_32_cif.got.tgz:62469.got - 2010.04.10 20:52:16.
