data_PCOD8269793
_publ_section_title
;
Structure prediction by ZEFSAII (Michael W. Deem and Ramdas Pophale) SiO2 
 PCOD8269793
Probable space group: C M M M
;
_chemical_formula_sum "Si O2"
_cell_formula_units_Z 120
_cell_length_a 32.794346
_cell_length_b 14.807105
_cell_length_c 14.384684
_cell_angle_alpha 90.000000
_cell_angle_beta 90.000000
_cell_angle_gamma 90.000000
_cell_volume 6985.048989
_symmetry_space_group_name_H-M "C M M M"
_symmetry_group_IT_number 65
_symmetry_cell_setting 'orthorhombic'
loop_
_space_group_symop_operation_xyz
x,y,z
-x,-y,z
x,-y,-z
-x,y,-z
-x,-y,-z
x,y,-z
-x,y,z
x,-y,z
1/2+x,1/2+y,z
1/2-x,1/2-y,z
1/2+x,1/2-y,-z
1/2-x,1/2+y,-z
1/2-x,1/2-y,-z
1/2+x,1/2+y,-z
1/2-x,1/2+y,z
1/2+x,1/2-y,z
loop_
_atom_site_type_symbol
_atom_site_label
_atom_site_fract_x
_atom_site_fract_y
_atom_site_fract_z
Si Si1 0.737948 0.646670 0.105899
Si Si2 0.080081 0.792492 0.891480
Si Si3 0.611923 0.103226 0.107295
Si Si4 0.000000 0.103437 0.110179
Si Si5 0.846117 0.892748 0.204859
Si Si6 0.270005 0.153615 0.399568
Si Si7 0.311418 0.900935 0.775074
Si Si8 0.183484 0.099686 0.398816
O O1 0.750000 0.750000 0.117135
O O2 0.693081 0.630131 0.143905
O O3 0.770886 0.590660 0.163347
O O4 0.739249 0.613881 0.000000
O O5 0.078343 0.682565 0.875321
O O6 0.038888 0.839482 0.854602
O O7 0.116210 0.838348 0.835235
O O8 0.086779 0.813212 0.000000
O O9 0.651103 0.137571 0.165231
O O10 0.597176 0.000000 0.133932
O O11 0.625273 0.103089 0.000000
O O12 0.000000 0.000000 0.149678
O O13 0.000000 0.099061 0.000000
O O14 0.839185 0.855604 0.310592
O O15 0.854493 0.000000 0.202155
O O16 0.289822 0.128694 0.500000
O O17 0.250000 0.250000 0.403984
O O18 0.304189 0.154991 0.319506
O O19 0.231876 0.088536 0.376887
O O20 0.323580 0.000000 0.741294
O O21 0.176718 0.150209 0.500000
O O22 0.165433 0.000000 0.408697
#
# Coordination Sequence:
#
# PCOD8269793 Si02
#       8
#    16  16  16   8  16  16  16  16
#     4  11  22  32  42  59  87 124 165 205 241 279
#     4  10  20  34  53  75 101 131 158 195 245 292
#     4   9  19  34  50  70  97 130 169 207 243 286
#     4   9  18  34  55  79 106 132 157 186 231 297
#     4  11  21  31  47  72  97 126 162 202 245 292
#     4  10  20  31  44  62  85 119 166 214 254 290
#     4  11  20  30  45  63  87 125 165 203 246 286
#     4   9  18  32  46  62  88 122 161 203 245 287
#
# _framework density 17.179549999999999
#
# number of rings (size 3 to 8) (size 9 to 14) (size 15 to 20)
#    0.000    1.933    1.333    3.200    1.867    5.867 
#    0.000    0.333    0.000    2.000    0.000    0.467 
#    0.000    2.667    0.000    0.000    0.000    6.000 
#
# Total GULP energy -743305.993537 kJ/mol
# GULP energy per Si atom -12388.433226 kJ/mol
# Density = 1.714045 g / cm^3
# Si number density = 17.179550 Si / 1000 Ang^3
#
#
#
# Elastic Constant Matrix: (Units=GPa)
#
#
# Indices 1 2 3 4 5 6 
#
# 1 76.8462 46.2066 27.4638 0.0000 0.0000 0.0000
# 2 46.2066 93.6593 34.7196 0.0000 0.0000 0.0000
# 3 27.4638 34.7196 100.3628 0.0000 0.0000 0.0000
# 4 0.0000 0.0000 0.0000 16.7427 0.0000 0.0000
# 5 0.0000 0.0000 0.0000 0.0000 6.8226 0.0000
# 6 0.0000 0.0000 0.0000 0.0000 0.0000 23.0981
#
#
#
# Elastic Compliance Matrix: (Units=1/GPa)
#
#
# Indices 1 2 3 4 5 6 
#
# 1 0.018929 -0.008510 -0.002236 0.000000 0.000000 0.000000
# 2 -0.008510 0.016073 -0.003232 0.000000 0.000000 0.000000
# 3 -0.002236 -0.003232 0.011694 0.000000 0.000000 0.000000
# 4 0.000000 0.000000 0.000000 0.059728 0.000000 0.000000
# 5 0.000000 0.000000 0.000000 0.000000 0.146571 0.000000
# 6 0.000000 0.000000 0.000000 0.000000 0.000000 0.043294
#
#
# Mechanical properties :
#
#
# Convention : Reuss Voigt Hill
#
# Bulk Modulus (GPa) = 53.35875 54.18314 53.77094
# Shear Modulus (GPa) = 15.12904 20.16455 17.64679
#
# Velocity S-wave (km/s) = 2.97078 3.42972 3.20847
# Velocity P-wave (km/s) = 6.54937 6.87690 6.71514
#
# Compressibility (1/GPa) = 0.01874107
#
# Stress axis : x y z
#
# Youngs Moduli (GPa) = 52.82943 62.21524 85.51605
#
# Poissons Ratio (x) = 0.52943 0.19121
# Poissons Ratio (y) = 0.44956 0.27637
# Poissons Ratio (z) = 0.11812 0.20107
#
# Static dielectric constant tensor:
#      x y z
#    x 3.086190 0.000000 0.000000 
#    y 0.000000 3.390920 0.000000 
#    z 0.000000 0.000000 3.451960 
# 
# 
# High freq. dielectric constant tensor:
#      x y z
#    x 1.607910 0.000000 0.000000 
#    y 0.000000 1.680810 0.000000 
#    z 0.000000 0.000000 1.659440 
# 
# From -- ./inp_files/48067.got.cif
#   From: 2010.03.12/outbox.cif.g09.slc.cpg/sg65_25_cif.got.tgz:48067.got - 2010.04.10 20:52:16.
