data_PCOD8269441
_publ_section_title
;
Structure prediction by ZEFSAII (Michael W. Deem and Ramdas Pophale) SiO2 
 PCOD8269441
Probable space group: C M M M
;
_chemical_formula_sum "Si O2"
_cell_formula_units_Z 104
_cell_length_a 9.336009
_cell_length_b 25.365587
_cell_length_c 23.974306
_cell_angle_alpha 90.000000
_cell_angle_beta 90.000000
_cell_angle_gamma 90.000000
_cell_volume 5677.435682
_symmetry_space_group_name_H-M "C M M M"
_symmetry_group_IT_number 65
_symmetry_cell_setting 'orthorhombic'
loop_
_space_group_symop_operation_xyz
x,y,z
-x,-y,z
x,-y,-z
-x,y,-z
-x,-y,-z
x,y,-z
-x,y,z
x,-y,z
1/2+x,1/2+y,z
1/2-x,1/2-y,z
1/2+x,1/2-y,-z
1/2-x,1/2+y,-z
1/2-x,1/2-y,-z
1/2+x,1/2+y,-z
1/2-x,1/2+y,z
1/2+x,1/2-y,z
loop_
_atom_site_type_symbol
_atom_site_label
_atom_site_fract_x
_atom_site_fract_y
_atom_site_fract_z
Si Si1 0.334903 0.695783 0.120654
Si Si2 0.158186 0.199685 0.000000
Si Si3 0.169908 0.500000 0.437356
Si Si4 0.167312 0.196439 0.435677
Si Si5 0.330023 0.584369 0.846332
Si Si6 0.831501 0.604550 0.624061
Si Si7 0.658868 0.058762 0.739827
Si Si8 0.829975 0.000000 0.936048
O O1 0.500000 0.709189 0.133039
O O2 0.250000 0.750000 0.132101
O O3 0.314155 0.670158 0.058247
O O4 0.279525 0.645885 0.155794
O O5 0.250000 0.250000 0.000000
O O6 0.000000 0.222517 0.000000
O O7 0.231126 0.500000 0.500000
O O8 0.225691 0.552403 0.406911
O O9 0.000000 0.500000 0.436803
O O10 0.188803 0.180094 0.500000
O O11 0.250000 0.250000 0.422302
O O12 0.236712 0.152654 0.396670
O O13 0.000000 0.203460 0.421179
O O14 0.500000 0.580978 0.844179
O O15 0.269312 0.559589 0.790347
O O16 0.277450 0.551678 0.901090
O O17 0.801762 0.598779 0.690142
O O18 0.000000 0.614466 0.611981
O O19 0.500000 0.072110 0.762783
O O20 0.660295 0.000000 0.713861
O O21 0.000000 0.000000 0.940422
O O22 0.767241 0.000000 0.000000
#
# Coordination Sequence:
#
# PCOD8269441 Si02
#       8
#    16   8   8  16  16  16  16   8
#     4   9  18  31  49  73 101 130 165 206 253 311
#     4   8  14  26  44  67  95 126 158 197 244 298
#     4   9  16  27  49  81 111 137 168 211 262 316
#     4  10  21  37  57  83 116 153 190 229 275 326
#     4  10  20  34  54  79 104 137 180 224 270 324
#     4  10  19  34  56  82 109 143 187 228 270 321
#     4  10  20  36  56  78 107 143 182 223 267 320
#     4   9  18  31  51  79 107 135 174 225 280 333
#
# _framework density 18.31813
#
# number of rings (size 3 to 8) (size 9 to 14) (size 15 to 20)
#    0.000    2.462    1.538    0.923    1.077    2.769 
#    0.000    1.154    0.000    4.154    0.000    0.000 
#    0.000    0.000    0.000    0.000    0.000    0.000 
#
# Total GULP energy -644259.297020 kJ/mol
# GULP energy per Si atom -12389.601866 kJ/mol
# Density = 1.827644 g / cm^3
# Si number density = 18.318130 Si / 1000 Ang^3
#
#
#
# Elastic Constant Matrix: (Units=GPa)
#
#
# Indices 1 2 3 4 5 6 
#
# 1 61.0421 50.6626 39.5074 0.0000 0.0000 0.0000
# 2 50.6626 127.5227 55.5567 0.0000 0.0000 0.0000
# 3 39.5074 55.5567 101.7172 0.0000 0.0000 0.0000
# 4 0.0000 0.0000 0.0000 24.4052 0.0000 0.0000
# 5 0.0000 0.0000 0.0000 0.0000 25.5986 0.0000
# 6 0.0000 0.0000 0.0000 0.0000 0.0000 26.7956
#
#
#
# Elastic Compliance Matrix: (Units=1/GPa)
#
#
# Indices 1 2 3 4 5 6 
#
# 1 0.027032 -0.008090 -0.006081 0.000000 0.000000 0.000000
# 2 -0.008090 0.012712 -0.003801 0.000000 0.000000 0.000000
# 3 -0.006081 -0.003801 0.014269 0.000000 0.000000 0.000000
# 4 0.000000 0.000000 0.000000 0.040975 0.000000 0.000000
# 5 0.000000 0.000000 0.000000 0.000000 0.039065 0.000000
# 6 0.000000 0.000000 0.000000 0.000000 0.000000 0.037320
#
#
# Mechanical properties :
#
#
# Convention : Reuss Voigt Hill
#
# Bulk Modulus (GPa) = 55.34175 64.63728 59.98952
# Shear Modulus (GPa) = 23.43695 24.99689 24.21692
#
# Velocity S-wave (km/s) = 3.58081 3.69805 3.63990
# Velocity P-wave (km/s) = 6.88283 7.32098 7.10528
#
# Compressibility (1/GPa) = 0.01806954
#
# Stress axis : x y z
#
# Youngs Moduli (GPa) = 36.99273 78.66764 70.08310
#
# Poissons Ratio (x) = 0.63645 0.42615
# Poissons Ratio (y) = 0.29929 0.26636
# Poissons Ratio (z) = 0.22494 0.29899
#
# Static dielectric constant tensor:
#      x y z
#    x 3.154420 0.000000 0.000000 
#    y 0.000000 3.377010 0.000000 
#    z 0.000000 0.000000 3.325630 
# 
# 
# High freq. dielectric constant tensor:
#      x y z
#    x 1.687550 0.000000 0.000000 
#    y 0.000000 1.710590 0.000000 
#    z 0.000000 0.000000 1.706860 
# 
# From -- ./inp_files/68294.got.cif
#   From: 2010.03.12/outbox.cif.g09.slc.cpg/sg65_35_cif.got.tgz:68294.got - 2010.04.10 20:52:16.
