data_PCOD8269895
_publ_section_title
;
Structure prediction by ZEFSAII (Michael W. Deem and Ramdas Pophale) SiO2 
 PCOD8269895
Probable space group: C M M M
;
_chemical_formula_sum "Si O2"
_cell_formula_units_Z 72
_cell_length_a 30.005340
_cell_length_b 9.005902
_cell_length_c 17.639893
_cell_angle_alpha 90.000000
_cell_angle_beta 90.000000
_cell_angle_gamma 90.000000
_cell_volume 4766.742759
_symmetry_space_group_name_H-M "C M M M"
_symmetry_group_IT_number 65
_symmetry_cell_setting 'orthorhombic'
loop_
_space_group_symop_operation_xyz
x,y,z
-x,-y,z
x,-y,-z
-x,y,-z
-x,-y,-z
x,y,-z
-x,y,z
x,-y,z
1/2+x,1/2+y,z
1/2-x,1/2-y,z
1/2+x,1/2-y,-z
1/2-x,1/2+y,-z
1/2-x,1/2-y,-z
1/2+x,1/2+y,-z
1/2-x,1/2+y,z
1/2+x,1/2-y,z
loop_
_atom_site_type_symbol
_atom_site_label
_atom_site_fract_x
_atom_site_fract_y
_atom_site_fract_z
Si Si1 0.446968 0.832436 0.648899
Si Si2 0.553179 0.332158 0.500000
Si Si3 0.882823 0.327571 0.088983
Si Si4 0.293620 0.332374 0.909756
Si Si5 0.052361 0.172294 0.800458
O O1 0.500000 0.832464 0.646567
O O2 0.428162 0.751181 0.574224
O O3 0.429980 0.744980 0.722705
O O4 0.428391 0.000000 0.651192
O O5 0.571315 0.500000 0.500000
O O6 0.500000 0.331348 0.500000
O O7 0.881488 0.500000 0.109900
O O8 0.837222 0.254128 0.118927
O O9 0.924544 0.250612 0.128717
O O10 0.888932 0.301506 0.000000
O O11 0.294739 0.500000 0.878217
O O12 0.250000 0.250000 0.877105
O O13 0.292014 0.332429 0.000000
O O14 0.000000 0.197666 0.810425
O O15 0.064905 0.000000 0.798889
#
# Coordination Sequence:
#
# PCOD8269895 Si02
#       5
#    16   8  16  16  16
#     4   9  16  26  40  57  77 102 133 168 206 247
#     4   9  15  23  37  57  79 101 128 163 202 245
#     4  10  20  32  45  61  81 107 141 178 214 252
#     4   9  16  27  44  64  84 104 128 162 206 254
#     4  10  20  32  44  58  79 109 144 180 216 251
#
# _framework density 15.104654
#
# number of rings (size 3 to 8) (size 9 to 14) (size 15 to 20)
#    0.000    2.556    0.000    3.000    0.000    9.778 
#    0.000    2.222    0.000    0.000    0.000    0.000 
#    0.000    0.000    0.000    1.000    0.000   14.111 
#
# Total GULP energy -446421.419471 kJ/mol
# GULP energy per Si atom -12400.594985 kJ/mol
# Density = 1.507027 g / cm^3
# Si number density = 15.104654 Si / 1000 Ang^3
#
#
#
# Elastic Constant Matrix: (Units=GPa)
#
#
# Indices 1 2 3 4 5 6 
#
# 1 46.9379 47.5214 35.3698 0.0000 0.0000 0.0000
# 2 47.5214 157.6215 57.4655 0.0000 0.0000 0.0000
# 3 35.3698 57.4655 63.8385 0.0000 0.0000 0.0000
# 4 0.0000 0.0000 0.0000 28.5658 0.0000 0.0000
# 5 0.0000 0.0000 0.0000 0.0000 1.1032 0.0000
# 6 0.0000 0.0000 0.0000 0.0000 0.0000 24.4427
#
#
#
# Elastic Compliance Matrix: (Units=1/GPa)
#
#
# Indices 1 2 3 4 5 6 
#
# 1 0.039970 -0.005920 -0.016817 0.000000 0.000000 0.000000
# 2 -0.005920 0.010320 -0.006010 0.000000 0.000000 0.000000
# 3 -0.016817 -0.006010 0.030392 0.000000 0.000000 0.000000
# 4 0.000000 0.000000 0.000000 0.035007 0.000000 0.000000
# 5 0.000000 0.000000 0.000000 0.000000 0.906444 0.000000
# 6 0.000000 0.000000 0.000000 0.000000 0.000000 0.040912
#
#
# Mechanical properties :
#
#
# Convention : Reuss Voigt Hill
#
# Bulk Modulus (GPa) = 43.12352 61.01236 52.06794
# Shear Modulus (GPa) = 4.43157 19.35842 11.89499
#
# Velocity S-wave (km/s) = 1.71472 3.58386 2.80930
# Velocity P-wave (km/s) = 5.70370 7.58987 6.71336
#
# Compressibility (1/GPa) = 0.02318920
#
# Stress axis : x y z
#
# Youngs Moduli (GPa) = 25.01871 96.89739 32.90322
#
# Poissons Ratio (x) = 0.57359 0.55333
# Poissons Ratio (y) = 0.14810 0.19776
# Poissons Ratio (z) = 0.42074 0.58237
#
# Static dielectric constant tensor:
#      x y z
#    x 2.617540 0.000000 0.000000 
#    y 0.000000 3.180530 0.000000 
#    z 0.000000 0.000000 2.783770 
# 
# 
# High freq. dielectric constant tensor:
#      x y z
#    x 1.532990 0.000000 0.000000 
#    y 0.000000 1.604840 0.000000 
#    z 0.000000 0.000000 1.554990 
# 
# From -- ./inp_files/36953.got.cif
#   From: 2010.03.12/outbox.cif.g09.slc.cpg/sg65_19_cif.got.tgz:36953.got - 2010.04.10 20:52:16.
