data_PCOD8269205
_publ_section_title
;
Structure prediction by ZEFSAII (Michael W. Deem and Ramdas Pophale) SiO2 
 PCOD8269205
Probable space group: C M M M
;
_chemical_formula_sum "Si O2"
_cell_formula_units_Z 104
_cell_length_a 21.170293
_cell_length_b 17.121818
_cell_length_c 13.195337
_cell_angle_alpha 90.000000
_cell_angle_beta 90.000000
_cell_angle_gamma 90.000000
_cell_volume 4782.965314
_symmetry_space_group_name_H-M "C M M M"
_symmetry_group_IT_number 65
_symmetry_cell_setting 'orthorhombic'
loop_
_space_group_symop_operation_xyz
x,y,z
-x,-y,z
x,-y,-z
-x,y,-z
-x,-y,-z
x,y,-z
-x,y,z
x,-y,z
1/2+x,1/2+y,z
1/2-x,1/2-y,z
1/2+x,1/2-y,-z
1/2-x,1/2+y,-z
1/2-x,1/2-y,-z
1/2+x,1/2+y,-z
1/2-x,1/2+y,z
1/2+x,1/2-y,z
loop_
_atom_site_type_symbol
_atom_site_label
_atom_site_fract_x
_atom_site_fract_y
_atom_site_fract_z
Si Si1 0.574683 0.000000 0.617314
Si Si2 0.883129 0.807319 0.380169
Si Si3 0.364645 0.587437 0.121094
Si Si4 0.264006 0.160000 0.886408
Si Si5 0.647733 0.856997 0.701438
Si Si6 0.728023 0.586707 0.383857
Si Si7 0.500000 0.587116 0.617512
Si Si8 0.000000 0.093552 0.889033
O O1 0.597169 0.924578 0.680185
O O2 0.500000 0.000000 0.616100
O O3 0.600012 0.000000 0.500000
O O4 0.880658 0.789419 0.500000
O O5 0.885695 0.725508 0.320448
O O6 0.824310 0.856417 0.336329
O O7 0.941063 0.861572 0.349289
O O8 0.359701 0.500000 0.159148
O O9 0.300609 0.626527 0.162810
O O10 0.433101 0.621241 0.163098
O O11 0.365864 0.594609 0.000000
O O12 0.250000 0.250000 0.892379
O O13 0.324091 0.139053 0.815919
O O14 0.277997 0.127144 0.000000
O O15 0.705381 0.869810 0.624504
O O16 0.709841 0.575962 0.500000
O O17 0.729646 0.500000 0.332925
O O18 0.500000 0.500000 0.670730
O O19 0.500000 0.570810 0.500000
O O20 0.000000 0.000000 0.897840
O O21 0.000000 0.130972 0.000000
#
# Coordination Sequence:
#
# PCOD8269205 Si02
#       8
#     8  16  16  16  16  16   8   8
#     4  11  26  46  71 101 133 164 208 279 356 425
#     4  10  20  33  57  90 126 167 209 255 316 402
#     4   8  14  26  50  82 115 153 199 254 318 383
#     4  10  22  39  60  89 127 171 221 276 329 381
#     4  12  23  39  63  91 123 168 217 274 337 396
#     4  10  19  33  55  88 127 162 201 255 320 390
#     4   9  18  34  56  90 135 174 202 237 300 388
#     4   7  10  20  42  77 113 142 180 235 302 367
#
# _framework density 21.743834
#
# number of rings (size 3 to 8) (size 9 to 14) (size 15 to 20)
#    0.000    2.231    0.769    4.154    2.154    3.077 
#    0.000    0.000    1.692    1.846    0.000    4.308 
#    0.000    1.846    0.000    0.077    0.000    0.077 
#
# Total GULP energy -644195.289655 kJ/mol
# GULP energy per Si atom -12388.370955 kJ/mol
# Density = 2.169434 g / cm^3
# Si number density = 21.743834 Si / 1000 Ang^3
#
#
#
# Elastic Constant Matrix: (Units=GPa)
#
#
# Indices 1 2 3 4 5 6 
#
# 1 134.6319 65.8432 28.5645 0.0000 0.0000 0.0000
# 2 65.8432 147.3369 28.7765 0.0000 0.0000 0.0000
# 3 28.5645 28.7765 105.6334 0.0000 0.0000 0.0000
# 4 0.0000 0.0000 0.0000 25.8867 0.0000 0.0000
# 5 0.0000 0.0000 0.0000 0.0000 80.0237 0.0000
# 6 0.0000 0.0000 0.0000 0.0000 0.0000 36.1320
#
#
#
# Elastic Compliance Matrix: (Units=1/GPa)
#
#
# Indices 1 2 3 4 5 6 
#
# 1 0.009733 -0.004051 -0.001528 0.000000 0.000000 0.000000
# 2 -0.004051 0.008855 -0.001317 0.000000 0.000000 0.000000
# 3 -0.001528 -0.001317 0.010239 0.000000 0.000000 0.000000
# 4 0.000000 0.000000 0.000000 0.038630 0.000000 0.000000
# 5 0.000000 0.000000 0.000000 0.000000 0.012496 0.000000
# 6 0.000000 0.000000 0.000000 0.000000 0.000000 0.027676
#
#
# Mechanical properties :
#
#
# Convention : Reuss Voigt Hill
#
# Bulk Modulus (GPa) = 66.51514 70.44118 68.47816
# Shear Modulus (GPa) = 39.54668 46.03636 42.79152
#
# Velocity S-wave (km/s) = 4.26931 4.60631 4.44101
# Velocity P-wave (km/s) = 7.41346 7.79468 7.60646
#
# Compressibility (1/GPa) = 0.01503417
#
# Stress axis : x y z
#
# Youngs Moduli (GPa) = 102.74128 112.93369 97.66873
#
# Poissons Ratio (x) = 0.45751 0.14927
# Poissons Ratio (y) = 0.41622 0.12860
# Poissons Ratio (z) = 0.15703 0.14870
#
# Static dielectric constant tensor:
#      x y z
#    x 4.129200 0.000000 0.000000 
#    y 0.000000 3.900160 0.000000 
#    z 0.000000 0.000000 4.026880 
# 
# 
# High freq. dielectric constant tensor:
#      x y z
#    x 1.852530 0.000000 0.000000 
#    y 0.000000 1.839760 0.000000 
#    z 0.000000 0.000000 1.861260 
# 
# From -- ./inp_files/44449.got.cif
#   From: 2010.03.12/outbox.cif.g09.slc.cpg/sg65_23_cif.got.tgz:44449.got - 2010.04.10 20:52:16.
