data_PCOD8269656
_publ_section_title
;
Structure prediction by ZEFSAII (Michael W. Deem and Ramdas Pophale) SiO2 
 PCOD8269656
Probable space group: C M M M
;
_chemical_formula_sum "Si O2"
_cell_formula_units_Z 120
_cell_length_a 15.002287
_cell_length_b 30.736516
_cell_length_c 13.582484
_cell_angle_alpha 90.000000
_cell_angle_beta 90.000000
_cell_angle_gamma 90.000000
_cell_volume 6263.128325
_symmetry_space_group_name_H-M "C M M M"
_symmetry_group_IT_number 65
_symmetry_cell_setting 'orthorhombic'
loop_
_space_group_symop_operation_xyz
x,y,z
-x,-y,z
x,-y,-z
-x,y,-z
-x,-y,-z
x,y,-z
-x,y,z
x,-y,z
1/2+x,1/2+y,z
1/2-x,1/2-y,z
1/2+x,1/2-y,-z
1/2-x,1/2+y,-z
1/2-x,1/2-y,-z
1/2+x,1/2+y,-z
1/2-x,1/2+y,z
1/2+x,1/2-y,z
loop_
_atom_site_type_symbol
_atom_site_label
_atom_site_fract_x
_atom_site_fract_y
_atom_site_fract_z
Si Si1 0.339712 0.079068 0.276030
Si Si2 0.810765 0.877225 0.389839
Si Si3 0.264421 0.701010 0.886993
Si Si4 0.694335 0.791904 0.391159
Si Si5 0.397777 0.629718 0.194702
Si Si6 0.211855 0.950463 0.113929
Si Si7 0.900881 0.671227 0.784722
Si Si8 0.500000 0.047514 0.604477
O O1 0.259076 0.086967 0.351991
O O2 0.301191 0.055963 0.178381
O O3 0.393432 0.121979 0.248175
O O4 0.411747 0.050703 0.330737
O O5 0.844541 0.889042 0.500000
O O6 0.763649 0.830983 0.388589
O O7 0.892909 0.876364 0.313015
O O8 0.250000 0.750000 0.845269
O O9 0.339990 0.672764 0.831889
O O10 0.168940 0.678243 0.872843
O O11 0.292385 0.702256 0.000000
O O12 0.650741 0.787633 0.500000
O O13 0.750000 0.750000 0.362017
O O14 0.617917 0.798216 0.309997
O O15 0.500000 0.637038 0.162828
O O16 0.361514 0.586054 0.141887
O O17 0.175270 0.000000 0.130913
O O18 0.237845 0.943800 0.000000
O O19 0.000000 0.681597 0.823348
O O20 0.500000 0.075794 0.500000
O O21 0.500000 0.000000 0.563273
#
# Coordination Sequence:
#
# PCOD8269656 Si02
#       8
#    16  16  16  16  16  16  16   8
#     4  10  19  36  55  83 115 155 197 238 289 349
#     4   9  18  34  56  80 111 152 191 230 282 344
#     4  11  24  43  62  82 115 155 199 248 296 352
#     4   9  17  32  53  77 112 152 189 235 290 342
#     4  11  23  39  63  91 120 154 194 242 301 361
#     4  10  21  39  64  89 116 151 192 243 303 363
#     4  11  21  35  57  85 113 150 195 240 289 340
#     4  11  22  34  53  83 119 157 202 252 293 347
#
# _framework density 19.159754
#
# number of rings (size 3 to 8) (size 9 to 14) (size 15 to 20)
#    0.000    1.800    4.667    1.600    0.000    3.200 
#    0.000    2.333    0.000    7.200    0.000    3.733 
#    0.000    0.000    0.000    0.000    0.000    0.000 
#
# Total GULP energy -743486.782285 kJ/mol
# GULP energy per Si atom -12391.446371 kJ/mol
# Density = 1.911615 g / cm^3
# Si number density = 19.159754 Si / 1000 Ang^3
#
#
#
# Elastic Constant Matrix: (Units=GPa)
#
#
# Indices 1 2 3 4 5 6 
#
# 1 126.7238 40.2740 44.2204 0.0000 0.0000 0.0000
# 2 40.2740 96.3861 41.1009 0.0000 0.0000 0.0000
# 3 44.2204 41.1009 126.9196 0.0000 0.0000 0.0000
# 4 0.0000 0.0000 0.0000 23.2041 0.0000 0.0000
# 5 0.0000 0.0000 0.0000 0.0000 -96.2917 0.0000
# 6 0.0000 0.0000 0.0000 0.0000 0.0000 15.7608
#
#
#
# Elastic Compliance Matrix: (Units=1/GPa)
#
#
# Indices 1 2 3 4 5 6 
#
# 1 0.009689 -0.003027 -0.002396 0.000000 0.000000 0.000000
# 2 -0.003027 0.012983 -0.003150 0.000000 0.000000 0.000000
# 3 -0.002396 -0.003150 0.009734 0.000000 0.000000 0.000000
# 4 0.000000 0.000000 0.000000 0.043096 0.000000 0.000000
# 5 0.000000 0.000000 0.000000 0.000000 -0.010385 0.000000
# 6 0.000000 0.000000 0.000000 0.000000 0.000000 0.063449
#
#
# Mechanical properties :
#
#
# Convention : Reuss Voigt Hill
#
# Bulk Modulus (GPa) = 65.52586 66.80222 66.16404
# Shear Modulus (GPa) = 33.15732 3.49693 18.32712
#
# Velocity S-wave (km/s) = 4.16453 1.35244 3.09616
# Velocity P-wave (km/s) = 7.57617 6.11395 6.88399
#
# Compressibility (1/GPa) = 0.01526115
#
# Stress axis : x y z
#
# Youngs Moduli (GPa) = 103.20858 77.02504 102.73683
#
# Poissons Ratio (x) = 0.23315 0.24611
# Poissons Ratio (y) = 0.31241 0.32358
# Poissons Ratio (z) = 0.24724 0.24260
#
# Static dielectric constant tensor:
#      x y z
#    x 3.303010 0.000000 0.000000 
#    y 0.000000 3.544210 0.000000 
#    z 0.000000 0.000000 3.796620 
# 
# 
# High freq. dielectric constant tensor:
#      x y z
#    x 1.716540 0.000000 0.000000 
#    y 0.000000 1.745810 0.000000 
#    z 0.000000 0.000000 1.760300 
# 
# From -- ./inp_files/41433.got.cif
#   From: 2010.03.12/outbox.cif.g09.slc.cpg/sg65_21_cif.got.tgz:41433.got - 2010.04.10 20:52:16.
