data_PCOD8269682
_publ_section_title
;
Structure prediction by ZEFSAII (Michael W. Deem and Ramdas Pophale) SiO2 
 PCOD8269682
Probable space group: C M M M
;
_chemical_formula_sum "Si O2"
_cell_formula_units_Z 72
_cell_length_a 29.255819
_cell_length_b 11.955782
_cell_length_c 11.344272
_cell_angle_alpha 90.000000
_cell_angle_beta 90.000000
_cell_angle_gamma 90.000000
_cell_volume 3967.956286
_symmetry_space_group_name_H-M "C M M M"
_symmetry_group_IT_number 65
_symmetry_cell_setting 'orthorhombic'
loop_
_space_group_symop_operation_xyz
x,y,z
-x,-y,z
x,-y,-z
-x,y,-z
-x,-y,-z
x,y,-z
-x,y,z
x,-y,z
1/2+x,1/2+y,z
1/2-x,1/2-y,z
1/2+x,1/2-y,-z
1/2-x,1/2+y,-z
1/2-x,1/2-y,-z
1/2+x,1/2+y,-z
1/2-x,1/2+y,z
1/2+x,1/2-y,z
loop_
_atom_site_type_symbol
_atom_site_label
_atom_site_fract_x
_atom_site_fract_y
_atom_site_fract_z
Si Si1 0.800542 0.263208 0.366234
Si Si2 0.907976 0.500000 0.137382
Si Si3 0.950650 0.737206 0.864936
Si Si4 0.655911 0.000000 0.367306
Si Si5 0.948426 0.132690 0.500000
Si Si6 0.114258 0.132380 0.713915
O O1 0.801040 0.217775 0.500000
O O2 0.750000 0.250000 0.310956
O O3 0.812139 0.392868 0.359810
O O4 0.836097 0.188181 0.293378
O O5 0.938455 0.391435 0.157645
O O6 0.873555 0.500000 0.248015
O O7 0.887711 0.500000 0.000000
O O8 0.910826 0.822684 0.829078
O O9 0.000000 0.761412 0.802556
O O10 0.957119 0.761145 0.000000
O O11 0.631354 0.000000 0.500000
O O12 0.919316 0.175352 0.389343
O O13 0.000000 0.183187 0.500000
O O14 0.951540 0.000000 0.500000
O O15 0.120370 0.000000 0.716368
#
# Coordination Sequence:
#
# PCOD8269682 Si02
#       6
#    16   8  16   8   8  16
#     4  10  21  36  57  84 114 147 187 235 285 341
#     4  10  19  36  62  84 112 152 196 234 282 344
#     4  10  21  37  58  82 109 147 193 235 276 332
#     4  10  20  37  59  87 116 146 188 243 294 336
#     4   9  18  32  49  73 107 147 181 212 266 339
#     4  11  21  34  54  80 112 148 183 228 281 335
#
# _framework density 18.145361000000001
#
# number of rings (size 3 to 8) (size 9 to 14) (size 15 to 20)
#    0.000    1.889    3.333    1.000    1.556    3.111 
#    0.000    1.111    0.000    3.333    0.000    0.000 
#    0.000    0.000    0.000    0.000    0.000    0.000 
#
# Total GULP energy -446075.532177 kJ/mol
# GULP energy per Si atom -12390.987005 kJ/mol
# Density = 1.810406 g / cm^3
# Si number density = 18.145361 Si / 1000 Ang^3
#
#
#
# Elastic Constant Matrix: (Units=GPa)
#
#
# Indices 1 2 3 4 5 6 
#
# 1 166.9252 57.0355 52.8599 0.0000 0.0000 0.0000
# 2 57.0355 106.5796 26.8999 0.0000 0.0000 0.0000
# 3 52.8599 26.8999 67.8087 0.0000 0.0000 0.0000
# 4 0.0000 0.0000 0.0000 49.4088 0.0000 0.0000
# 5 0.0000 0.0000 0.0000 0.0000 24.1635 0.0000
# 6 0.0000 0.0000 0.0000 0.0000 0.0000 38.0950
#
#
#
# Elastic Compliance Matrix: (Units=1/GPa)
#
#
# Indices 1 2 3 4 5 6 
#
# 1 0.008916 -0.003353 -0.005620 0.000000 0.000000 0.000000
# 2 -0.003353 0.011687 -0.002023 0.000000 0.000000 0.000000
# 3 -0.005620 -0.002023 0.019931 0.000000 0.000000 0.000000
# 4 0.000000 0.000000 0.000000 0.020239 0.000000 0.000000
# 5 0.000000 0.000000 0.000000 0.000000 0.041385 0.000000
# 6 0.000000 0.000000 0.000000 0.000000 0.000000 0.026250
#
#
# Mechanical properties :
#
#
# Convention : Reuss Voigt Hill
#
# Bulk Modulus (GPa) = 53.92960 68.32267 61.12613
# Shear Modulus (GPa) = 31.93218 35.96803 33.95010
#
# Velocity S-wave (km/s) = 4.19955 4.45704 4.33021
# Velocity P-wave (km/s) = 7.30071 8.01384 7.66557
#
# Compressibility (1/GPa) = 0.01854269
#
# Stress axis : x y z
#
# Youngs Moduli (GPa) = 112.15620 85.56190 50.17265
#
# Poissons Ratio (x) = 0.28688 0.28199
# Poissons Ratio (y) = 0.37604 0.10149
# Poissons Ratio (z) = 0.63037 0.17307
#
# Static dielectric constant tensor:
#      x y z
#    x 3.455930 0.000000 0.000000 
#    y 0.000000 2.846880 0.000000 
#    z 0.000000 0.000000 3.460080 
# 
# 
# High freq. dielectric constant tensor:
#      x y z
#    x 1.702410 0.000000 0.000000 
#    y 0.000000 1.706790 0.000000 
#    z 0.000000 0.000000 1.688430 
# 
# From -- ./inp_files/32008.got.cif
#   From: 2010.03.12/outbox.cif.g09.slc.cpg/sg65_17_cif.got.tgz:32008.got - 2010.04.10 20:52:16.
