data_PCOD8269877
_publ_section_title
;
Structure prediction by ZEFSAII (Michael W. Deem and Ramdas Pophale) SiO2 
 PCOD8269877
Probable space group: C M M M
;
_chemical_formula_sum "Si O2"
_cell_formula_units_Z 72
_cell_length_a 19.990065
_cell_length_b 14.365268
_cell_length_c 14.693834
_cell_angle_alpha 90.000000
_cell_angle_beta 90.000000
_cell_angle_gamma 90.000000
_cell_volume 4219.520179
_symmetry_space_group_name_H-M "C M M M"
_symmetry_group_IT_number 65
_symmetry_cell_setting 'orthorhombic'
loop_
_space_group_symop_operation_xyz
x,y,z
-x,-y,z
x,-y,-z
-x,y,-z
-x,-y,-z
x,y,-z
-x,y,z
x,-y,z
1/2+x,1/2+y,z
1/2-x,1/2-y,z
1/2+x,1/2-y,-z
1/2-x,1/2+y,-z
1/2-x,1/2-y,-z
1/2+x,1/2+y,-z
1/2-x,1/2+y,z
1/2+x,1/2-y,z
loop_
_atom_site_type_symbol
_atom_site_label
_atom_site_fract_x
_atom_site_fract_y
_atom_site_fract_z
Si Si1 0.134680 0.605110 0.688820
Si Si2 0.275487 0.393750 0.395918
Si Si3 0.178740 0.777498 0.223506
Si Si4 0.075208 0.109124 0.104878
Si Si5 0.000000 0.390099 0.597528
O O1 0.128118 0.500000 0.727248
O O2 0.195447 0.611494 0.617064
O O3 0.144248 0.676867 0.770564
O O4 0.066755 0.642701 0.645918
O O5 0.291784 0.362469 0.500000
O O6 0.299927 0.500000 0.379859
O O7 0.311749 0.326626 0.322852
O O8 0.250000 0.750000 0.178769
O O9 0.133644 0.841416 0.160459
O O10 0.000000 0.137398 0.137623
O O11 0.085312 0.000000 0.118627
O O12 0.083776 0.136930 0.000000
O O13 0.000000 0.500000 0.587338
O O14 0.000000 0.341018 0.500000
#
# Coordination Sequence:
#
# PCOD8269877 Si02
#       5
#    16  16  16  16   8
#     4   9  18  29  42  65  96 133 169 203 242 285
#     4   9  17  30  47  68  99 136 171 207 247 295
#     4  10  20  31  51  77 103 132 166 209 253 303
#     4   9  19  37  60  81 100 126 164 212 263 314
#     4   9  16  26  40  58  84 123 170 210 236 265
#
# _framework density 17.063551
#
# number of rings (size 3 to 8) (size 9 to 14) (size 15 to 20)
#    0.000    2.778    0.000    2.000    1.556    8.889 
#    0.000    0.000    0.000    0.667    0.000    4.667 
#    0.000    0.000    0.000    0.000    0.000    0.000 
#
# Total GULP energy -445998.874930 kJ/mol
# GULP energy per Si atom -12388.857637 kJ/mol
# Density = 1.702471 g / cm^3
# Si number density = 17.063551 Si / 1000 Ang^3
#
#
#
# Elastic Constant Matrix: (Units=GPa)
#
#
# Indices 1 2 3 4 5 6 
#
# 1 125.0887 49.9248 60.4604 0.0000 0.0000 0.0000
# 2 49.9248 78.5707 40.0986 0.0000 0.0000 0.0000
# 3 60.4604 40.0986 74.0267 0.0000 0.0000 0.0000
# 4 0.0000 0.0000 0.0000 17.9853 0.0000 0.0000
# 5 0.0000 0.0000 0.0000 0.0000 14.4836 0.0000
# 6 0.0000 0.0000 0.0000 0.0000 0.0000 24.4153
#
#
#
# Elastic Compliance Matrix: (Units=1/GPa)
#
#
# Indices 1 2 3 4 5 6 
#
# 1 0.014180 -0.004284 -0.009261 0.000000 0.000000 0.000000
# 2 -0.004284 0.018884 -0.006730 0.000000 0.000000 0.000000
# 3 -0.009261 -0.006730 0.024718 0.000000 0.000000 0.000000
# 4 0.000000 0.000000 0.000000 0.055601 0.000000 0.000000
# 5 0.000000 0.000000 0.000000 0.000000 0.069044 0.000000
# 6 0.000000 0.000000 0.000000 0.000000 0.000000 0.040958
#
#
# Mechanical properties :
#
#
# Convention : Reuss Voigt Hill
#
# Bulk Modulus (GPa) = 58.03135 64.29487 61.16311
# Shear Modulus (GPa) = 18.54048 19.85700 19.19874
#
# Velocity S-wave (km/s) = 3.29987 3.41502 3.35794
# Velocity P-wave (km/s) = 6.97149 7.30146 7.13838
#
# Compressibility (1/GPa) = 0.01723207
#
# Stress axis : x y z
#
# Youngs Moduli (GPa) = 70.51982 52.95403 40.45596
#
# Poissons Ratio (x) = 0.22685 0.37467
# Poissons Ratio (y) = 0.30211 0.27228
# Poissons Ratio (z) = 0.65309 0.35640
#
# Static dielectric constant tensor:
#      x y z
#    x 3.340170 0.000000 0.000000 
#    y 0.000000 3.313520 0.000000 
#    z 0.000000 0.000000 2.890130 
# 
# 
# High freq. dielectric constant tensor:
#      x y z
#    x 1.660940 0.000000 0.000000 
#    y 0.000000 1.663110 0.000000 
#    z 0.000000 0.000000 1.623560 
# 
# From -- ./inp_files/39765.got.cif
#   From: 2010.03.12/outbox.cif.g09.slc.cpg/sg65_20_cif.got.tgz:39765.got - 2010.04.10 20:52:16.
