data_PCOD8269442
_publ_section_title
;
Structure prediction by ZEFSAII (Michael W. Deem and Ramdas Pophale) SiO2 
 PCOD8269442
Probable space group: C M M M
;
_chemical_formula_sum "Si O2"
_cell_formula_units_Z 96
_cell_length_a 9.006765
_cell_length_b 25.486396
_cell_length_c 23.186406
_cell_angle_alpha 90.000000
_cell_angle_beta 90.000000
_cell_angle_gamma 90.000000
_cell_volume 5322.439021
_symmetry_space_group_name_H-M "C M M M"
_symmetry_group_IT_number 65
_symmetry_cell_setting 'orthorhombic'
loop_
_space_group_symop_operation_xyz
x,y,z
-x,-y,z
x,-y,-z
-x,y,-z
-x,-y,-z
x,y,-z
-x,y,z
x,-y,z
1/2+x,1/2+y,z
1/2-x,1/2-y,z
1/2+x,1/2-y,-z
1/2-x,1/2+y,-z
1/2-x,1/2-y,-z
1/2+x,1/2+y,-z
1/2-x,1/2+y,z
1/2+x,1/2-y,z
loop_
_atom_site_type_symbol
_atom_site_label
_atom_site_fract_x
_atom_site_fract_y
_atom_site_fract_z
Si Si1 0.674289 0.195405 0.934058
Si Si2 0.330663 0.500000 0.432032
Si Si3 0.323395 0.500000 0.064817
Si Si4 0.328887 0.560892 0.744628
Si Si5 0.675262 0.906219 0.631284
Si Si6 0.325834 0.197105 0.565557
Si Si7 0.326939 0.397820 0.129828
O O1 0.500000 0.201553 0.924886
O O2 0.750000 0.250000 0.917606
O O3 0.735677 0.152249 0.890453
O O4 0.712853 0.179602 0.000000
O O5 0.500000 0.500000 0.410258
O O6 0.319144 0.500000 0.500000
O O7 0.250959 0.551056 0.408660
O O8 0.500000 0.500000 0.067925
O O9 0.263077 0.448269 0.096207
O O10 0.262667 0.500000 0.000000
O O11 0.500000 0.564995 0.725828
O O12 0.284562 0.500000 0.753056
O O13 0.227030 0.587993 0.696886
O O14 0.299757 0.593009 0.802765
O O15 0.500000 0.913976 0.627484
O O16 0.724977 0.849736 0.607311
O O17 0.275128 0.184412 0.500000
O O18 0.500000 0.205786 0.568470
O O19 0.250000 0.250000 0.588461
O O20 0.500000 0.388987 0.115908
#
# Coordination Sequence:
#
# PCOD8269442 Si02
#       7
#    16   8   8  16  16  16  16
#     4  10  21  37  57  82 112 146 184 230 283 336
#     4  11  23  36  53  80 112 145 182 227 280 337
#     4   9  16  27  49  80 108 135 172 217 266 325
#     4  10  20  36  56  79 111 149 188 228 271 323
#     4  11  22  36  56  82 111 145 186 229 276 328
#     4   9  19  36  57  81 109 140 176 221 272 326
#     4  10  19  34  56  82 110 145 186 227 273 325
#
# _framework density 18.036843999999999
#
# number of rings (size 3 to 8) (size 9 to 14) (size 15 to 20)
#    0.000    2.000    1.667    2.250    0.000    5.000 
#    0.000    2.917    0.000    3.500    0.000    0.000 
#    0.000    0.000    0.000    0.000    0.000    0.000 
#
# Total GULP energy -595346.988582 kJ/mol
# GULP energy per Si atom -12403.062262 kJ/mol
# Density = 1.799579 g / cm^3
# Si number density = 18.036844 Si / 1000 Ang^3
#
#
#
# Elastic Constant Matrix: (Units=GPa)
#
#
# Indices 1 2 3 4 5 6 
#
# 1 76.7435 67.7229 50.1447 0.0000 0.0000 0.0000
# 2 67.7229 159.4680 72.0817 0.0000 0.0000 0.0000
# 3 50.1447 72.0817 100.3089 0.0000 0.0000 0.0000
# 4 0.0000 0.0000 0.0000 27.5353 0.0000 0.0000
# 5 0.0000 0.0000 0.0000 0.0000 24.5296 0.0000
# 6 0.0000 0.0000 0.0000 0.0000 0.0000 32.6086
#
#
#
# Elastic Compliance Matrix: (Units=1/GPa)
#
#
# Indices 1 2 3 4 5 6 
#
# 1 0.023613 -0.006950 -0.006810 0.000000 0.000000 0.000000
# 2 -0.006950 0.011333 -0.004670 0.000000 0.000000 0.000000
# 3 -0.006810 -0.004670 0.016729 0.000000 0.000000 0.000000
# 4 0.000000 0.000000 0.000000 0.036317 0.000000 0.000000
# 5 0.000000 0.000000 0.000000 0.000000 0.040767 0.000000
# 6 0.000000 0.000000 0.000000 0.000000 0.000000 0.030667
#
#
# Mechanical properties :
#
#
# Convention : Reuss Voigt Hill
#
# Bulk Modulus (GPa) = 67.49386 79.60210 73.54798
# Shear Modulus (GPa) = 24.84790 26.70609 25.77699
#
# Velocity S-wave (km/s) = 3.71566 3.85208 3.78448
# Velocity P-wave (km/s) = 7.47726 8.00085 7.74348
#
# Compressibility (1/GPa) = 0.01481616
#
# Stress axis : x y z
#
# Youngs Moduli (GPa) = 42.34943 88.23773 59.77538
#
# Poissons Ratio (x) = 0.61322 0.40708
# Poissons Ratio (y) = 0.29432 0.27913
# Poissons Ratio (z) = 0.28841 0.41205
#
# Static dielectric constant tensor:
#      x y z
#    x 3.251900 0.000000 0.000000 
#    y 0.000000 3.389660 0.000000 
#    z 0.000000 0.000000 3.360160 
# 
# 
# High freq. dielectric constant tensor:
#      x y z
#    x 1.691860 0.000000 0.000000 
#    y 0.000000 1.702760 0.000000 
#    z 0.000000 0.000000 1.700160 
# 
# From -- ./inp_files/67924.got.cif
#   From: 2010.03.12/outbox.cif.g09.slc.cpg/sg65_34_cif.got.tgz:67924.got - 2010.04.10 20:52:16.
