data_PCOD8269548
_publ_section_title
;
Structure prediction by ZEFSAII (Michael W. Deem and Ramdas Pophale) SiO2 
 PCOD8269548
Probable space group: C M M M
;
_chemical_formula_sum "Si O2"
_cell_formula_units_Z 72
_cell_length_a 31.287636
_cell_length_b 14.203382
_cell_length_c 9.079584
_cell_angle_alpha 90.000000
_cell_angle_beta 90.000000
_cell_angle_gamma 90.000000
_cell_volume 4034.878567
_symmetry_space_group_name_H-M "C M M M"
_symmetry_group_IT_number 65
_symmetry_cell_setting 'orthorhombic'
loop_
_space_group_symop_operation_xyz
x,y,z
-x,-y,z
x,-y,-z
-x,y,-z
-x,-y,-z
x,y,-z
-x,y,z
x,-y,z
1/2+x,1/2+y,z
1/2-x,1/2-y,z
1/2+x,1/2-y,-z
1/2-x,1/2+y,-z
1/2-x,1/2-y,-z
1/2+x,1/2+y,-z
1/2-x,1/2+y,z
1/2+x,1/2-y,z
loop_
_atom_site_type_symbol
_atom_site_label
_atom_site_fract_x
_atom_site_fract_y
_atom_site_fract_z
Si Si1 0.548615 0.500000 0.660745
Si Si2 0.452154 0.689819 0.825918
Si Si3 0.242381 0.500000 0.174219
Si Si4 0.288730 0.819616 0.670135
Si Si5 0.332979 0.500000 0.329839
Si Si6 0.371273 0.297938 0.329357
O O1 0.500000 0.500000 0.616479
O O2 0.573606 0.500000 0.500000
O O3 0.558982 0.411198 0.759628
O O4 0.500000 0.725095 0.778370
O O5 0.412236 0.747316 0.758330
O O6 0.449386 0.686586 0.000000
O O7 0.215981 0.409979 0.227966
O O8 0.290185 0.500000 0.235460
O O9 0.244711 0.500000 0.000000
O O10 0.289748 0.851045 0.500000
O O11 0.250000 0.750000 0.700550
O O12 0.331493 0.765679 0.717278
O O13 0.318250 0.500000 0.500000
O O14 0.361076 0.407731 0.291650
O O15 0.381983 0.287234 0.500000
#
# Coordination Sequence:
#
# PCOD8269548 Si02
#       6
#     8  16   8  16   8  16
#     4   9  16  27  44  64  90 129 177 220 251 294
#     4  10  20  32  46  68 102 139 171 212 268 320
#     4  12  24  35  53  81 112 144 175 215 266 317
#     4  10  20  38  60  79 104 140 180 221 263 312
#     4  10  19  35  53  74 105 141 184 221 262 315
#     4  10  20  33  55  80 102 138 183 225 262 305
#
# _framework density 17.844404000000001
#
# number of rings (size 3 to 8) (size 9 to 14) (size 15 to 20)
#    0.000    1.889    2.222    2.667    0.000    5.778 
#    0.000    0.000    0.000    0.000    0.000    0.778 
#    0.000    6.222    0.000    0.000    0.000    0.000 
#
# Total GULP energy -446122.798127 kJ/mol
# GULP energy per Si atom -12392.299948 kJ/mol
# Density = 1.780379 g / cm^3
# Si number density = 17.844404 Si / 1000 Ang^3
#
#
#
# Elastic Constant Matrix: (Units=GPa)
#
#
# Indices 1 2 3 4 5 6 
#
# 1 176.0393 47.0685 72.6036 0.0000 0.0000 0.0000
# 2 47.0685 57.4139 41.4536 0.0000 0.0000 0.0000
# 3 72.6036 41.4536 90.0076 0.0000 0.0000 0.0000
# 4 0.0000 0.0000 0.0000 11.0369 0.0000 0.0000
# 5 0.0000 0.0000 0.0000 0.0000 31.4844 0.0000
# 6 0.0000 0.0000 0.0000 0.0000 0.0000 21.6902
#
#
#
# Elastic Compliance Matrix: (Units=1/GPa)
#
#
# Indices 1 2 3 4 5 6 
#
# 1 0.008879 -0.003158 -0.005708 0.000000 0.000000 0.000000
# 2 -0.003158 0.027218 -0.009988 0.000000 0.000000 0.000000
# 3 -0.005708 -0.009988 0.020314 0.000000 0.000000 0.000000
# 4 0.000000 0.000000 0.000000 0.090605 0.000000 0.000000
# 5 0.000000 0.000000 0.000000 0.000000 0.031762 0.000000
# 6 0.000000 0.000000 0.000000 0.000000 0.000000 0.046104
#
#
# Mechanical properties :
#
#
# Convention : Reuss Voigt Hill
#
# Bulk Modulus (GPa) = 53.46540 71.74581 62.60561
# Shear Modulus (GPa) = 18.59954 23.66462 21.13208
#
# Velocity S-wave (km/s) = 3.23200 3.64561 3.44501
# Velocity P-wave (km/s) = 6.62984 7.61671 7.14034
#
# Compressibility (1/GPa) = 0.01870368
#
# Stress axis : x y z
#
# Youngs Moduli (GPa) = 112.62629 36.74063 49.22667
#
# Poissons Ratio (x) = 0.11603 0.28097
# Poissons Ratio (y) = 0.35568 0.49167
# Poissons Ratio (z) = 0.64283 0.36696
#
# Static dielectric constant tensor:
#      x y z
#    x 3.715020 0.000000 0.000000 
#    y 0.000000 1.957600 0.000000 
#    z 0.000000 0.000000 3.240540 
# 
# 
# High freq. dielectric constant tensor:
#      x y z
#    x 1.715130 0.000000 0.000000 
#    y 0.000000 1.641250 0.000000 
#    z 0.000000 0.000000 1.688400 
# 
# From -- ./inp_files/18083.got.cif
#   From: 2010.03.12/outbox.cif.g09.slc.cpg/sg65_10_cif.got.tgz:18083.got - 2010.04.10 20:52:16.
