data_PCOD8269210
_publ_section_title
;
Structure prediction by ZEFSAII (Michael W. Deem and Ramdas Pophale) SiO2 
 PCOD8269210
Probable space group: C M M M
;
_chemical_formula_sum "Si O2"
_cell_formula_units_Z 52
_cell_length_a 18.499052
_cell_length_b 5.261915
_cell_length_c 25.819550
_cell_angle_alpha 90.000000
_cell_angle_beta 90.000000
_cell_angle_gamma 90.000000
_cell_volume 2513.286337
_symmetry_space_group_name_H-M "C M M M"
_symmetry_group_IT_number 65
_symmetry_cell_setting 'orthorhombic'
loop_
_space_group_symop_operation_xyz
x,y,z
-x,-y,z
x,-y,-z
-x,y,-z
-x,-y,-z
x,y,-z
-x,y,z
x,-y,z
1/2+x,1/2+y,z
1/2-x,1/2-y,z
1/2+x,1/2-y,-z
1/2-x,1/2+y,-z
1/2-x,1/2-y,-z
1/2+x,1/2+y,-z
1/2-x,1/2+y,z
1/2+x,1/2-y,z
loop_
_atom_site_type_symbol
_atom_site_label
_atom_site_fract_x
_atom_site_fract_y
_atom_site_fract_z
Si Si1 0.699457 0.500000 0.500000
Si Si2 0.920778 0.500000 0.657891
Si Si3 0.081737 0.000000 0.410294
Si Si4 0.284952 0.500000 0.814794
Si Si5 0.275410 0.000000 0.699794
Si Si6 0.585225 0.000000 0.942499
Si Si7 0.584539 0.500000 0.119664
O O1 0.750000 0.750000 0.500000
O O2 0.645539 0.500000 0.451580
O O3 0.908840 0.251499 0.623674
O O4 0.862435 0.500000 0.704767
O O5 0.000000 0.500000 0.683782
O O6 0.000000 0.000000 0.434667
O O7 0.250000 0.750000 0.840595
O O8 0.268546 0.500000 0.753661
O O9 0.370798 0.500000 0.826369
O O10 0.250000 0.750000 0.668270
O O11 0.608957 0.253411 0.912537
O O12 0.500000 0.000000 0.948136
O O13 0.620179 0.000000 0.000000
O O14 0.500000 0.500000 0.133815
#
# Coordination Sequence:
#
# PCOD8269210 Si02
#       7
#     4   8   8   8   8   8   8
#     4  12  25  38  57  90 122 154 198 238 273 328
#     4  10  21  38  61  86 111 148 196 237 280 337
#     4  10  22  40  60  83 117 156 190 234 287 333
#     4  10  21  38  55  77 109 148 183 223 283 339
#     4  10  21  37  57  82 111 145 183 229 290 339
#     4   9  17  30  52  83 112 139 180 234 281 318
#     4  10  19  33  56  81 107 144 188 229 269 329
#
# _framework density 20.690041999999998
#
# number of rings (size 3 to 8) (size 9 to 14) (size 15 to 20)
#    0.000    2.000    0.000    3.462    0.000    5.538 
#    0.000    9.231    0.000    9.231    0.000    0.000 
#    0.000    0.000    0.000    0.000    0.000    0.000 
#
# Total GULP energy -322116.182378 kJ/mol
# GULP energy per Si atom -12389.083938 kJ/mol
# Density = 2.064295 g / cm^3
# Si number density = 20.690042 Si / 1000 Ang^3
#
#
#
# Elastic Constant Matrix: (Units=GPa)
#
#
# Indices 1 2 3 4 5 6 
#
# 1 154.1644 52.5844 54.8549 0.0000 0.0000 0.0000
# 2 52.5844 210.0589 26.1553 0.0000 0.0000 0.0000
# 3 54.8549 26.1553 61.7234 0.0000 0.0000 0.0000
# 4 0.0000 0.0000 0.0000 3.7129 0.0000 0.0000
# 5 0.0000 0.0000 0.0000 0.0000 38.9240 0.0000
# 6 0.0000 0.0000 0.0000 0.0000 0.0000 27.4496
#
#
#
# Elastic Compliance Matrix: (Units=1/GPa)
#
#
# Indices 1 2 3 4 5 6 
#
# 1 0.009892 -0.001459 -0.008174 0.000000 0.000000 0.000000
# 2 -0.001459 0.005241 -0.000924 0.000000 0.000000 0.000000
# 3 -0.008174 -0.000924 0.023857 0.000000 0.000000 0.000000
# 4 0.000000 0.000000 0.000000 0.269329 0.000000 0.000000
# 5 0.000000 0.000000 0.000000 0.000000 0.025691 0.000000
# 6 0.000000 0.000000 0.000000 0.000000 0.000000 0.036430
#
#
# Mechanical properties :
#
#
# Convention : Reuss Voigt Hill
#
# Bulk Modulus (GPa) = 55.93769 77.01509 66.47639
# Shear Modulus (GPa) = 12.57821 33.50745 23.04283
#
# Velocity S-wave (km/s) = 2.46831 4.02866 3.34086
# Velocity P-wave (km/s) = 5.93449 7.67751 6.86157
#
# Compressibility (1/GPa) = 0.01787703
#
# Stress axis : x y z
#
# Youngs Moduli (GPa) = 101.08734 190.80952 41.91635
#
# Poissons Ratio (x) = 0.27833 0.34260
# Poissons Ratio (y) = 0.14745 0.03875
# Poissons Ratio (z) = 0.82624 0.17639
#
# Static dielectric constant tensor:
#      x y z
#    x 3.905380 0.000000 0.000000 
#    y 0.000000 5.774620 0.000000 
#    z 0.000000 0.000000 3.343280 
# 
# 
# High freq. dielectric constant tensor:
#      x y z
#    x 1.810690 0.000000 0.000000 
#    y 0.000000 1.849560 0.000000 
#    z 0.000000 0.000000 1.767840 
# 
# From -- ./inp_files/77554.got.cif
#   From: 2010.03.12/outbox.cif.g09.slc.cpg/sg65_39_cif.got.tgz:77554.got - 2010.04.10 20:52:16.
