data_PCOD8269494
_publ_section_title
;
Structure prediction by ZEFSAII (Michael W. Deem and Ramdas Pophale) SiO2 
 PCOD8269494
Probable space group: C M M M
;
_chemical_formula_sum "Si O2"
_cell_formula_units_Z 80
_cell_length_a 29.173707
_cell_length_b 9.053188
_cell_length_c 15.452811
_cell_angle_alpha 90.000000
_cell_angle_beta 90.000000
_cell_angle_gamma 90.000000
_cell_volume 4081.320014
_symmetry_space_group_name_H-M "C M M M"
_symmetry_group_IT_number 65
_symmetry_cell_setting 'orthorhombic'
loop_
_space_group_symop_operation_xyz
x,y,z
-x,-y,z
x,-y,-z
-x,y,-z
-x,-y,-z
x,y,-z
-x,y,z
x,-y,z
1/2+x,1/2+y,z
1/2-x,1/2-y,z
1/2+x,1/2-y,-z
1/2-x,1/2+y,-z
1/2-x,1/2-y,-z
1/2+x,1/2+y,-z
1/2-x,1/2+y,z
1/2+x,1/2-y,z
loop_
_atom_site_type_symbol
_atom_site_label
_atom_site_fract_x
_atom_site_fract_y
_atom_site_fract_z
Si Si1 0.705070 0.168535 0.847053
Si Si2 0.446721 0.173674 0.260322
Si Si3 0.607960 0.824366 0.095123
Si Si4 0.387103 0.669106 0.597574
Si Si5 0.704155 0.829606 0.642960
O O1 0.750000 0.250000 0.882549
O O2 0.659447 0.236854 0.890236
O O3 0.699179 0.188206 0.745161
O O4 0.711147 0.000000 0.874076
O O5 0.500000 0.211563 0.259545
O O6 0.425830 0.234478 0.169859
O O7 0.424011 0.255563 0.340556
O O8 0.437242 0.000000 0.270933
O O9 0.609324 0.000000 0.100571
O O10 0.590624 0.772526 0.000000
O O11 0.406503 0.677810 0.500000
O O12 0.379687 0.500000 0.626662
O O13 0.338919 0.752678 0.599087
O O14 0.750000 0.750000 0.609184
O O15 0.705882 0.000000 0.614801
#
# Coordination Sequence:
#
# PCOD8269494 Si02
#       5
#    16  16  16  16  16
#     4   9  17  30  50  78 112 149 186 224 268 322
#     4  10  21  39  62  86 112 145 188 238 293 347
#     4   9  17  32  55  84 117 149 184 229 280 335
#     4  11  24  40  59  84 114 150 192 236 287 344
#     4  10  19  34  57  85 118 154 193 234 279 334
#
# _framework density 19.601502
#
# number of rings (size 3 to 8) (size 9 to 14) (size 15 to 20)
#    0.000    2.200    2.000    1.200    0.000    4.400 
#    0.000    4.000    0.000    1.800    0.000    1.400 
#    0.000    0.000    0.000    0.000    0.000    0.000 
#
# Total GULP energy -495991.477372 kJ/mol
# GULP energy per Si atom -12399.786934 kJ/mol
# Density = 1.955689 g / cm^3
# Si number density = 19.601502 Si / 1000 Ang^3
#
#
#
# Elastic Constant Matrix: (Units=GPa)
#
#
# Indices 1 2 3 4 5 6 
#
# 1 144.8644 61.6580 77.7310 0.0000 0.0000 0.0000
# 2 61.6580 81.4771 45.8051 0.0000 0.0000 0.0000
# 3 77.7310 45.8051 116.4374 0.0000 0.0000 0.0000
# 4 0.0000 0.0000 0.0000 15.7458 0.0000 0.0000
# 5 0.0000 0.0000 0.0000 0.0000 8.6005 0.0000
# 6 0.0000 0.0000 0.0000 0.0000 0.0000 31.6333
#
#
#
# Elastic Compliance Matrix: (Units=1/GPa)
#
#
# Indices 1 2 3 4 5 6 
#
# 1 0.012862 -0.006299 -0.006108 0.000000 0.000000 0.000000
# 2 -0.006299 0.018844 -0.003208 0.000000 0.000000 0.000000
# 3 -0.006108 -0.003208 0.013928 0.000000 0.000000 0.000000
# 4 0.000000 0.000000 0.000000 0.063509 0.000000 0.000000
# 5 0.000000 0.000000 0.000000 0.000000 0.116273 0.000000
# 6 0.000000 0.000000 0.000000 0.000000 0.000000 0.031612
#
#
# Mechanical properties :
#
#
# Convention : Reuss Voigt Hill
#
# Bulk Modulus (GPa) = 69.42939 79.24078 74.33508
# Shear Modulus (GPa) = 17.06149 21.70157 19.38153
#
# Velocity S-wave (km/s) = 2.95348 3.33098 3.14789
# Velocity P-wave (km/s) = 6.86499 7.43690 7.15666
#
# Compressibility (1/GPa) = 0.01440312
#
# Stress axis : x y z
#
# Youngs Moduli (GPa) = 77.75126 53.06843 71.79896
#
# Poissons Ratio (x) = 0.33429 0.43855
# Poissons Ratio (y) = 0.48977 0.23031
# Poissons Ratio (z) = 0.47491 0.17023
#
# Static dielectric constant tensor:
#      x y z
#    x 3.637860 0.000000 0.000000 
#    y 0.000000 3.416660 0.000000 
#    z 0.000000 0.000000 3.651820 
# 
# 
# High freq. dielectric constant tensor:
#      x y z
#    x 1.765080 0.000000 0.000000 
#    y 0.000000 1.738390 0.000000 
#    z 0.000000 0.000000 1.768840 
# 
# From -- ./inp_files/50122.got.cif
#   From: 2010.03.12/outbox.cif.g09.slc.cpg/sg65_26_cif.got.tgz:50122.got - 2010.04.10 20:52:16.
