data_PCOD8269482
_publ_section_title
;
Structure prediction by ZEFSAII (Michael W. Deem and Ramdas Pophale) SiO2 
 PCOD8269482
Probable space group: C M M M
;
_chemical_formula_sum "Si O2"
_cell_formula_units_Z 104
_cell_length_a 9.311913
_cell_length_b 31.145252
_cell_length_c 18.631400
_cell_angle_alpha 90.000000
_cell_angle_beta 90.000000
_cell_angle_gamma 90.000000
_cell_volume 5403.513599
_symmetry_space_group_name_H-M "C M M M"
_symmetry_group_IT_number 65
_symmetry_cell_setting 'orthorhombic'
loop_
_space_group_symop_operation_xyz
x,y,z
-x,-y,z
x,-y,-z
-x,y,-z
-x,-y,-z
x,y,-z
-x,y,z
x,-y,z
1/2+x,1/2+y,z
1/2-x,1/2-y,z
1/2+x,1/2-y,-z
1/2-x,1/2+y,-z
1/2-x,1/2-y,-z
1/2+x,1/2+y,-z
1/2-x,1/2+y,z
1/2+x,1/2-y,z
loop_
_atom_site_type_symbol
_atom_site_label
_atom_site_fract_x
_atom_site_fract_y
_atom_site_fract_z
Si Si1 0.670250 0.000000 0.081553
Si Si2 0.666324 0.293946 0.675149
Si Si3 0.838036 0.452661 0.352059
Si Si4 0.166209 0.845499 0.817200
Si Si5 0.661166 0.209147 0.084572
Si Si6 0.836504 0.429388 0.193073
Si Si7 0.668951 0.374081 0.582687
O O1 0.719509 0.957801 0.125699
O O2 0.500000 0.000000 0.078474
O O3 0.734083 0.000000 0.000000
O O4 0.500000 0.284776 0.659566
O O5 0.750000 0.250000 0.660927
O O6 0.690729 0.309969 0.756054
O O7 0.725533 0.331178 0.622315
O O8 0.794502 0.500000 0.381533
O O9 0.830054 0.456308 0.265981
O O10 0.735334 0.416898 0.384439
O O11 0.000000 0.441211 0.375889
O O12 0.257171 0.832571 0.887031
O O13 0.227130 0.890831 0.792776
O O14 0.000000 0.850058 0.837479
O O15 0.500000 0.212275 0.116070
O O16 0.750000 0.250000 0.111391
O O17 0.656258 0.205803 0.000000
O O18 0.000000 0.413222 0.178655
O O19 0.712275 0.370072 0.500000
O O20 0.500000 0.378153 0.594639
#
# Coordination Sequence:
#
# PCOD8269482 Si02
#       7
#     8  16  16  16  16  16  16
#     4   9  18  34  57  85 116 149 190 238 287 347
#     4  10  22  38  57  84 115 151 195 240 290 347
#     4  10  20  36  60  88 118 152 193 240 289 344
#     4  11  22  36  56  83 114 148 191 239 286 341
#     4  10  21  37  56  79 109 145 185 230 282 338
#     4  10  19  34  57  83 111 149 192 234 284 339
#     4  10  22  41  61  84 118 155 193 239 291 353
#
# _framework density 19.246735999999999
#
# number of rings (size 3 to 8) (size 9 to 14) (size 15 to 20)
#    0.000    1.923    2.308    1.385    0.000    5.846 
#    0.000    3.462    0.000    0.462    0.000    0.000 
#    0.000    0.000    0.000    0.000    0.000    0.000 
#
# Total GULP energy -644768.310645 kJ/mol
# GULP energy per Si atom -12399.390589 kJ/mol
# Density = 1.920293 g / cm^3
# Si number density = 19.246736 Si / 1000 Ang^3
#
#
#
# Elastic Constant Matrix: (Units=GPa)
#
#
# Indices 1 2 3 4 5 6 
#
# 1 94.0355 57.6339 38.5741 0.0000 0.0000 0.0000
# 2 57.6339 135.0300 39.9186 0.0000 0.0000 0.0000
# 3 38.5741 39.9186 62.1888 0.0000 0.0000 0.0000
# 4 0.0000 0.0000 0.0000 28.7428 0.0000 0.0000
# 5 0.0000 0.0000 0.0000 0.0000 23.8436 0.0000
# 6 0.0000 0.0000 0.0000 0.0000 0.0000 30.4691
#
#
#
# Elastic Compliance Matrix: (Units=1/GPa)
#
#
# Indices 1 2 3 4 5 6 
#
# 1 0.016603 -0.004989 -0.007096 0.000000 0.000000 0.000000
# 2 -0.004989 0.010639 -0.003735 0.000000 0.000000 0.000000
# 3 -0.007096 -0.003735 0.022879 0.000000 0.000000 0.000000
# 4 0.000000 0.000000 0.000000 0.034791 0.000000 0.000000
# 5 0.000000 0.000000 0.000000 0.000000 0.041940 0.000000
# 6 0.000000 0.000000 0.000000 0.000000 0.000000 0.032820
#
#
# Mechanical properties :
#
#
# Convention : Reuss Voigt Hill
#
# Bulk Modulus (GPa) = 54.10765 62.61193 58.35979
# Shear Modulus (GPa) = 25.32010 26.95298 26.13654
#
# Velocity S-wave (km/s) = 3.63099 3.74624 3.68907
# Velocity P-wave (km/s) = 6.76406 7.16340 6.96659
#
# Compressibility (1/GPa) = 0.01848167
#
# Stress axis : x y z
#
# Youngs Moduli (GPa) = 60.23150 93.99252 43.70832
#
# Poissons Ratio (x) = 0.46889 0.31015
# Poissons Ratio (y) = 0.30047 0.16325
# Poissons Ratio (z) = 0.42740 0.35105
#
# Static dielectric constant tensor:
#      x y z
#    x 3.439240 0.000000 0.000000 
#    y 0.000000 3.510220 0.000000 
#    z 0.000000 0.000000 3.546310 
# 
# 
# High freq. dielectric constant tensor:
#      x y z
#    x 1.738030 0.000000 0.000000 
#    y 0.000000 1.754450 0.000000 
#    z 0.000000 0.000000 1.746740 
# 
# From -- ./inp_files/60433.got.cif
#   From: 2010.03.12/outbox.cif.g09.slc.cpg/sg65_31_cif.got.tgz:60433.got - 2010.04.10 20:52:16.
