data_PCOD8269477
_publ_section_title
;
Structure prediction by ZEFSAII (Michael W. Deem and Ramdas Pophale) SiO2 
 PCOD8269477
Probable space group: C M M M
;
_chemical_formula_sum "Si O2"
_cell_formula_units_Z 96
_cell_length_a 18.994004
_cell_length_b 20.054949
_cell_length_c 13.874128
_cell_angle_alpha 90.000000
_cell_angle_beta 90.000000
_cell_angle_gamma 90.000000
_cell_volume 5284.985303
_symmetry_space_group_name_H-M "C M M M"
_symmetry_group_IT_number 65
_symmetry_cell_setting 'orthorhombic'
loop_
_space_group_symop_operation_xyz
x,y,z
-x,-y,z
x,-y,-z
-x,y,-z
-x,-y,-z
x,y,-z
-x,y,z
x,-y,z
1/2+x,1/2+y,z
1/2-x,1/2-y,z
1/2+x,1/2-y,-z
1/2-x,1/2+y,-z
1/2-x,1/2-y,-z
1/2+x,1/2+y,-z
1/2-x,1/2+y,z
1/2+x,1/2-y,z
loop_
_atom_site_type_symbol
_atom_site_label
_atom_site_fract_x
_atom_site_fract_y
_atom_site_fract_z
Si Si1 0.678977 0.076033 0.689441
Si Si2 0.083287 0.813868 0.274442
Si Si3 0.921358 0.684713 0.388850
Si Si4 0.281310 0.925052 0.895241
Si Si5 0.310756 0.300178 0.891739
Si Si6 0.833141 0.077627 0.387077
O O1 0.625605 0.120899 0.631514
O O2 0.667338 0.088417 0.804515
O O3 0.757819 0.095514 0.658861
O O4 0.662889 0.000000 0.660710
O O5 0.106506 0.750425 0.336776
O O6 0.119265 0.800391 0.171686
O O7 0.109017 0.880007 0.329491
O O8 0.000000 0.819808 0.259213
O O9 0.918813 0.702169 0.500000
O O10 0.000000 0.667119 0.354381
O O11 0.215817 0.875842 0.890827
O O12 0.250714 0.000000 0.884919
O O13 0.320338 0.916644 0.000000
O O14 0.250000 0.250000 0.851827
O O15 0.331213 0.277297 0.000000
O O16 0.833421 0.096440 0.500000
O O17 0.851312 0.000000 0.372512
#
# Coordination Sequence:
#
# PCOD8269477 Si02
#       6
#    16  16  16  16  16  16
#     4  10  19  34  57  83 110 138 177 229 277 322
#     4  11  23  37  55  80 111 147 182 221 273 324
#     4  10  22  38  54  76 108 145 184 225 272 328
#     4   9  17  31  54  81 107 136 173 217 263 315
#     4  10  20  35  57  82 107 140 182 223 268 323
#     4  10  21  36  55  81 110 143 186 230 269 316
#
# _framework density 18.164667999999999
#
# number of rings (size 3 to 8) (size 9 to 14) (size 15 to 20)
#    0.000    2.000    1.667    2.000    0.000    3.000 
#    0.000    3.333    0.000    1.500    0.000    5.833 
#    0.000    0.000    0.000    0.000    0.000    0.000 
#
# Total GULP energy -595073.443313 kJ/mol
# GULP energy per Si atom -12397.363402 kJ/mol
# Density = 1.812332 g / cm^3
# Si number density = 18.164668 Si / 1000 Ang^3
#
#
#
# Elastic Constant Matrix: (Units=GPa)
#
#
# Indices 1 2 3 4 5 6 
#
# 1 66.8392 43.3621 32.5803 0.0000 0.0000 0.0000
# 2 43.3621 87.3494 30.7808 0.0000 0.0000 0.0000
# 3 32.5803 30.7808 94.8434 0.0000 0.0000 0.0000
# 4 0.0000 0.0000 0.0000 29.6394 0.0000 0.0000
# 5 0.0000 0.0000 0.0000 0.0000 27.8322 0.0000
# 6 0.0000 0.0000 0.0000 0.0000 0.0000 26.6341
#
#
#
# Elastic Compliance Matrix: (Units=1/GPa)
#
#
# Indices 1 2 3 4 5 6 
#
# 1 0.023952 -0.010152 -0.004933 0.000000 0.000000 0.000000
# 2 -0.010152 0.017229 -0.002104 0.000000 0.000000 0.000000
# 3 -0.004933 -0.002104 0.012921 0.000000 0.000000 0.000000
# 4 0.000000 0.000000 0.000000 0.033739 0.000000 0.000000
# 5 0.000000 0.000000 0.000000 0.000000 0.035930 0.000000
# 6 0.000000 0.000000 0.000000 0.000000 0.000000 0.037546
#
#
# Mechanical properties :
#
#
# Convention : Reuss Voigt Hill
#
# Bulk Modulus (GPa) = 50.70003 51.38648 51.04326
# Shear Modulus (GPa) = 24.71936 26.30838 25.51387
#
# Velocity S-wave (km/s) = 3.69297 3.80982 3.75185
# Velocity P-wave (km/s) = 6.79382 6.90678 6.85053
#
# Compressibility (1/GPa) = 0.01972386
#
# Stress axis : x y z
#
# Youngs Moduli (GPa) = 41.75019 58.04017 77.39167
#
# Poissons Ratio (x) = 0.58922 0.38179
# Poissons Ratio (y) = 0.42384 0.16286
# Poissons Ratio (z) = 0.20596 0.12214
#
# Static dielectric constant tensor:
#      x y z
#    x 3.061820 0.000000 0.000000 
#    y 0.000000 3.468370 0.000000 
#    z 0.000000 0.000000 3.701280 
# 
# 
# High freq. dielectric constant tensor:
#      x y z
#    x 1.666560 0.000000 0.000000 
#    y 0.000000 1.719450 0.000000 
#    z 0.000000 0.000000 1.723600 
# 
# From -- ./inp_files/40336.got.cif
#   From: 2010.03.12/outbox.cif.g09.slc.cpg/sg65_21_cif.got.tgz:40336.got - 2010.04.10 20:52:16.
