data_PCOD8269889
_publ_section_title
;
Structure prediction by ZEFSAII (Michael W. Deem and Ramdas Pophale) SiO2 
 PCOD8269889
Probable space group: C M M M
;
_chemical_formula_sum "Si O2"
_cell_formula_units_Z 88
_cell_length_a 29.846507
_cell_length_b 9.094690
_cell_length_c 23.104086
_cell_angle_alpha 90.000000
_cell_angle_beta 90.000000
_cell_angle_gamma 90.000000
_cell_volume 6271.482357
_symmetry_space_group_name_H-M "C M M M"
_symmetry_group_IT_number 65
_symmetry_cell_setting 'orthorhombic'
loop_
_space_group_symop_operation_xyz
x,y,z
-x,-y,z
x,-y,-z
-x,y,-z
-x,-y,-z
x,y,-z
-x,y,z
x,-y,z
1/2+x,1/2+y,z
1/2-x,1/2-y,z
1/2+x,1/2-y,-z
1/2-x,1/2+y,-z
1/2-x,1/2-y,-z
1/2+x,1/2+y,-z
1/2-x,1/2+y,z
1/2+x,1/2-y,z
loop_
_atom_site_type_symbol
_atom_site_label
_atom_site_fract_x
_atom_site_fract_y
_atom_site_fract_z
Si Si1 0.446683 0.165063 0.234759
Si Si2 0.446324 0.665555 0.124013
Si Si3 0.293530 0.666255 0.568895
Si Si4 0.052837 0.169826 0.348741
Si Si5 0.549170 0.674815 0.000000
Si Si6 0.617404 0.829268 0.432015
O O1 0.500000 0.167234 0.232706
O O2 0.427415 0.230927 0.174824
O O3 0.429697 0.262612 0.288341
O O4 0.428306 0.000000 0.242108
O O5 0.500000 0.669749 0.121431
O O6 0.430192 0.500000 0.137403
O O7 0.426969 0.720365 0.060953
O O8 0.291931 0.665420 0.500000
O O9 0.294227 0.500000 0.593028
O O10 0.250000 0.750000 0.593677
O O11 0.337468 0.751568 0.590682
O O12 0.074958 0.255732 0.401692
O O13 0.000000 0.190673 0.355449
O O14 0.066832 0.000000 0.350587
O O15 0.544292 0.500000 0.000000
O O16 0.500000 0.747682 0.000000
O O17 0.610982 0.805443 0.500000
O O18 0.620177 0.000000 0.415774
#
# Coordination Sequence:
#
# PCOD8269889 Si02
#       6
#    16  16  16  16   8  16
#     4   9  16  25  36  49  65  86 114 149 187 223
#     4   8  12  19  31  45  61  82 109 140 175 215
#     4   9  16  27  44  64  84 103 122 145 176 217
#     4  10  20  32  44  56  71  95 128 163 196 230
#     4   7  10  16  27  43  61  81 105 135 172 213
#     4  10  20  32  45  61  80 100 122 151 190 233
#
# _framework density 14.03177
#
# number of rings (size 3 to 8) (size 9 to 14) (size 15 to 20)
#    0.000    3.000    0.000    3.273    0.000    6.909 
#    0.000    2.273    0.000    2.727    0.000    0.000 
#    0.000    0.000    0.000    0.000    0.000    0.000 
#
# Total GULP energy -545295.576412 kJ/mol
# GULP energy per Si atom -12393.081282 kJ/mol
# Density = 1.399983 g / cm^3
# Si number density = 14.031770 Si / 1000 Ang^3
#
#
#
# Elastic Constant Matrix: (Units=GPa)
#
#
# Indices 1 2 3 4 5 6 
#
# 1 31.8139 31.6678 28.1315 0.0000 0.0000 0.0000
# 2 31.6678 115.9794 51.9450 0.0000 0.0000 0.0000
# 3 28.1315 51.9450 72.9333 0.0000 0.0000 0.0000
# 4 0.0000 0.0000 0.0000 19.0686 0.0000 0.0000
# 5 0.0000 0.0000 0.0000 0.0000 0.6525 0.0000
# 6 0.0000 0.0000 0.0000 0.0000 0.0000 18.7069
#
#
#
# Elastic Compliance Matrix: (Units=1/GPa)
#
#
# Indices 1 2 3 4 5 6 
#
# 1 0.051948 -0.007650 -0.014588 0.000000 0.000000 0.000000
# 2 -0.007650 0.013788 -0.006869 0.000000 0.000000 0.000000
# 3 -0.014588 -0.006869 0.024230 0.000000 0.000000 0.000000
# 4 0.000000 0.000000 0.000000 0.052442 0.000000 0.000000
# 5 0.000000 0.000000 0.000000 0.000000 1.532591 0.000000
# 6 0.000000 0.000000 0.000000 0.000000 0.000000 0.053456
#
#
# Mechanical properties :
#
#
# Convention : Reuss Voigt Hill
#
# Bulk Modulus (GPa) = 31.49565 49.35723 40.42644
# Shear Modulus (GPa) = 2.78202 14.95108 8.86655
#
# Velocity S-wave (km/s) = 1.40960 3.26777 2.51647
# Velocity P-wave (km/s) = 5.01438 7.03487 6.10874
#
# Compressibility (1/GPa) = 0.03175041
#
# Stress axis : x y z
#
# Youngs Moduli (GPa) = 19.25018 72.52861 41.27050
#
# Poissons Ratio (x) = 0.55487 0.60206
# Poissons Ratio (y) = 0.14727 0.28349
# Poissons Ratio (z) = 0.28083 0.49821
#
# Static dielectric constant tensor:
#      x y z
#    x 2.344170 0.000000 0.000000 
#    y 0.000000 2.906340 0.000000 
#    z 0.000000 0.000000 2.884260 
# 
# 
# High freq. dielectric constant tensor:
#      x y z
#    x 1.470210 0.000000 0.000000 
#    y 0.000000 1.546730 0.000000 
#    z 0.000000 0.000000 1.526970 
# 
# From -- ./inp_files/72068.got.cif
#   From: 2010.03.12/outbox.cif.g09.slc.cpg/sg65_37_cif.got.tgz:72068.got - 2010.04.10 20:52:16.
