data_PCOD8269844
_publ_section_title
;
Structure prediction by ZEFSAII (Michael W. Deem and Ramdas Pophale) SiO2 
 PCOD8269844
Probable space group: C M M M
;
_chemical_formula_sum "Si O2"
_cell_formula_units_Z 104
_cell_length_a 8.994581
_cell_length_b 30.349519
_cell_length_c 23.179556
_cell_angle_alpha 90.000000
_cell_angle_beta 90.000000
_cell_angle_gamma 90.000000
_cell_volume 6327.583174
_symmetry_space_group_name_H-M "C M M M"
_symmetry_group_IT_number 65
_symmetry_cell_setting 'orthorhombic'
loop_
_space_group_symop_operation_xyz
x,y,z
-x,-y,z
x,-y,-z
-x,y,-z
-x,-y,-z
x,y,-z
-x,y,z
x,-y,z
1/2+x,1/2+y,z
1/2-x,1/2-y,z
1/2+x,1/2-y,-z
1/2-x,1/2+y,-z
1/2-x,1/2-y,-z
1/2+x,1/2+y,-z
1/2-x,1/2+y,z
1/2+x,1/2-y,z
loop_
_atom_site_type_symbol
_atom_site_label
_atom_site_fract_x
_atom_site_fract_y
_atom_site_fract_z
Si Si1 0.676124 0.000000 0.562243
Si Si2 0.330331 0.822502 0.565191
Si Si3 0.675092 0.050732 0.177211
Si Si4 0.830495 0.587295 0.378588
Si Si5 0.173130 0.885386 0.732181
Si Si6 0.834224 0.947938 0.063059
Si Si7 0.675367 0.293898 0.319480
O O1 0.730589 0.042786 0.594872
O O2 0.500000 0.000000 0.556516
O O3 0.752136 0.000000 0.500000
O O4 0.273876 0.811083 0.500000
O O5 0.500000 0.806233 0.572902
O O6 0.321909 0.875086 0.572978
O O7 0.231796 0.799998 0.614666
O O8 0.500000 0.052133 0.182523
O O9 0.740059 0.087770 0.219188
O O10 0.721343 0.066477 0.113127
O O11 0.730503 0.000000 0.190201
O O12 0.712898 0.593693 0.328443
O O13 0.000000 0.583591 0.354573
O O14 0.218846 0.833666 0.724557
O O15 0.000000 0.890292 0.745454
O O16 0.000000 0.930045 0.077257
O O17 0.839067 0.000000 0.059779
O O18 0.782164 0.929694 0.000000
O O19 0.500000 0.288338 0.322547
O O20 0.750000 0.250000 0.293420
#
# Coordination Sequence:
#
# PCOD8269844 Si02
#       7
#     8  16  16  16  16  16  16
#     4   9  16  26  43  65  85 109 146 189 228 269
#     4   9  17  30  48  68  90 116 145 180 227 283
#     4  10  20  31  46  70  99 132 169 203 233 267
#     4   9  17  29  45  64  87 115 149 190 230 273
#     4  10  21  35  49  67  92 122 155 192 235 282
#     4   8  14  26  44  66  95 132 169 201 235 272
#     4  10  21  36  53  71  90 115 148 188 238 291
#
# _framework density 16.435974999999999
#
# number of rings (size 3 to 8) (size 9 to 14) (size 15 to 20)
#    0.000    2.692    0.000    2.308    1.077    5.538 
#    0.000    1.538    0.000    1.846    0.000    0.000 
#    0.000    0.615    0.000    2.000    0.000    2.462 
#
# Total GULP energy -644310.803994 kJ/mol
# GULP energy per Si atom -12390.592385 kJ/mol
# Density = 1.639857 g / cm^3
# Si number density = 16.435975 Si / 1000 Ang^3
#
#
#
# Elastic Constant Matrix: (Units=GPa)
#
#
# Indices 1 2 3 4 5 6 
#
# 1 61.4217 41.5489 40.9279 0.0000 0.0000 0.0000
# 2 41.5489 105.1743 47.4161 0.0000 0.0000 0.0000
# 3 40.9279 47.4161 95.8139 0.0000 0.0000 0.0000
# 4 0.0000 0.0000 0.0000 12.4718 0.0000 0.0000
# 5 0.0000 0.0000 0.0000 0.0000 25.2936 0.0000
# 6 0.0000 0.0000 0.0000 0.0000 0.0000 20.6893
#
#
#
# Elastic Compliance Matrix: (Units=1/GPa)
#
#
# Indices 1 2 3 4 5 6 
#
# 1 0.026049 -0.006789 -0.007767 0.000000 0.000000 0.000000
# 2 -0.006789 0.014008 -0.004032 0.000000 0.000000 0.000000
# 3 -0.007767 -0.004032 0.015750 0.000000 0.000000 0.000000
# 4 0.000000 0.000000 0.000000 0.080181 0.000000 0.000000
# 5 0.000000 0.000000 0.000000 0.000000 0.039536 0.000000
# 6 0.000000 0.000000 0.000000 0.000000 0.000000 0.048334
#
#
# Mechanical properties :
#
#
# Convention : Reuss Voigt Hill
#
# Bulk Modulus (GPa) = 53.67654 58.02174 55.84914
# Shear Modulus (GPa) = 18.70945 20.52542 19.61743
#
# Velocity S-wave (km/s) = 3.37756 3.53769 3.45855
# Velocity P-wave (km/s) = 6.92383 7.21563 7.07123
#
# Compressibility (1/GPa) = 0.01863011
#
# Stress axis : x y z
#
# Youngs Moduli (GPa) = 38.38927 71.38888 63.49076
#
# Poissons Ratio (x) = 0.48464 0.49316
# Poissons Ratio (y) = 0.26062 0.25601
# Poissons Ratio (z) = 0.29819 0.28786
#
# Static dielectric constant tensor:
#      x y z
#    x 3.052020 0.000000 0.000000 
#    y 0.000000 3.167550 0.000000 
#    z 0.000000 0.000000 3.269020 
# 
# 
# High freq. dielectric constant tensor:
#      x y z
#    x 1.628450 0.000000 0.000000 
#    y 0.000000 1.615540 0.000000 
#    z 0.000000 0.000000 1.617310 
# 
# From -- ./inp_files/68513.got.cif
#   From: 2010.03.12/outbox.cif.g09.slc.cpg/sg65_35_cif.got.tgz:68513.got - 2010.04.10 20:52:16.
