data_PCOD8269785
_publ_section_title
;
Structure prediction by ZEFSAII (Michael W. Deem and Ramdas Pophale) SiO2 
 PCOD8269785
Probable space group: C M M M
;
_chemical_formula_sum "Si O2"
_cell_formula_units_Z 96
_cell_length_a 26.876309
_cell_length_b 9.173477
_cell_length_c 24.373363
_cell_angle_alpha 90.000000
_cell_angle_beta 90.000000
_cell_angle_gamma 90.000000
_cell_volume 6009.233209
_symmetry_space_group_name_H-M "C M M M"
_symmetry_group_IT_number 65
_symmetry_cell_setting 'orthorhombic'
loop_
_space_group_symop_operation_xyz
x,y,z
-x,-y,z
x,-y,-z
-x,y,-z
-x,-y,-z
x,y,-z
-x,y,z
x,-y,z
1/2+x,1/2+y,z
1/2-x,1/2-y,z
1/2+x,1/2-y,-z
1/2-x,1/2+y,-z
1/2-x,1/2-y,-z
1/2+x,1/2+y,-z
1/2-x,1/2+y,z
1/2+x,1/2-y,z
loop_
_atom_site_type_symbol
_atom_site_label
_atom_site_fract_x
_atom_site_fract_y
_atom_site_fract_z
Si Si1 0.055911 0.827105 0.442069
Si Si2 0.899140 0.669972 0.221738
Si Si3 0.441401 0.329266 0.676872
Si Si4 0.701036 0.829311 0.839931
Si Si5 0.347613 0.330253 0.062510
Si Si6 0.944801 0.166424 0.124649
O O1 0.082683 0.776012 0.500000
O O2 0.078943 0.776939 0.383637
O O3 0.000000 0.766627 0.444009
O O4 0.054474 0.000000 0.440512
O O5 0.909406 0.500000 0.226216
O O6 0.908137 0.741384 0.280471
O O7 0.842918 0.704220 0.202876
O O8 0.937523 0.734178 0.177832
O O9 0.500000 0.293435 0.683386
O O10 0.432207 0.500000 0.686121
O O11 0.750000 0.750000 0.816721
O O12 0.688483 0.764956 0.899783
O O13 0.710950 0.000000 0.846389
O O14 0.335284 0.500000 0.071552
O O15 0.405136 0.296363 0.077342
O O16 0.338782 0.282755 0.000000
O O17 0.000000 0.194663 0.100653
O O18 0.938571 0.000000 0.144307
#
# Coordination Sequence:
#
# PCOD8269785 Si02
#       6
#    16  16  16  16  16  16
#     4   7  10  18  33  54  81 113 149 185 212 232
#     4  10  20  31  43  62  87 112 140 175 214 257
#     4   9  16  25  40  63  89 119 153 182 207 239
#     4  10  21  36  52  67  83 106 136 172 216 262
#     4   9  18  32  49  69  91 113 138 169 206 249
#     4   9  17  29  45  64  87 116 147 176 204 237
#
# _framework density 15.975415999999999
#
# number of rings (size 3 to 8) (size 9 to 14) (size 15 to 20)
#    0.000    3.000    0.000    3.000    0.000    5.667 
#    0.000    1.667    0.000    0.500    0.000    7.000 
#    0.000    0.667    0.000    1.500    0.000    2.333 
#
# Total GULP energy -594759.672085 kJ/mol
# GULP energy per Si atom -12390.826502 kJ/mol
# Density = 1.593906 g / cm^3
# Si number density = 15.975416 Si / 1000 Ang^3
#
#
#
# Elastic Constant Matrix: (Units=GPa)
#
#
# Indices 1 2 3 4 5 6 
#
# 1 65.0718 33.0576 28.6747 0.0000 0.0000 0.0000
# 2 33.0576 61.8071 46.6348 0.0000 0.0000 0.0000
# 3 28.6747 46.6348 125.8790 0.0000 0.0000 0.0000
# 4 0.0000 0.0000 0.0000 10.4186 0.0000 0.0000
# 5 0.0000 0.0000 0.0000 0.0000 13.0215 0.0000
# 6 0.0000 0.0000 0.0000 0.0000 0.0000 21.3070
#
#
#
# Elastic Compliance Matrix: (Units=1/GPa)
#
#
# Indices 1 2 3 4 5 6 
#
# 1 0.021170 -0.010665 -0.000871 0.000000 0.000000 0.000000
# 2 -0.010665 0.027830 -0.007881 0.000000 0.000000 0.000000
# 3 -0.000871 -0.007881 0.011062 0.000000 0.000000 0.000000
# 4 0.000000 0.000000 0.000000 0.095982 0.000000 0.000000
# 5 0.000000 0.000000 0.000000 0.000000 0.076796 0.000000
# 6 0.000000 0.000000 0.000000 0.000000 0.000000 0.046933
#
#
# Mechanical properties :
#
#
# Convention : Reuss Voigt Hill
#
# Bulk Modulus (GPa) = 47.10899 52.16580 49.63740
# Shear Modulus (GPa) = 15.35237 18.57548 16.96393
#
# Velocity S-wave (km/s) = 3.10336 3.41362 3.26218
# Velocity P-wave (km/s) = 6.51104 6.94707 6.73258
#
# Compressibility (1/GPa) = 0.02122737
#
# Stress axis : x y z
#
# Youngs Moduli (GPa) = 47.23733 35.93257 90.39817
#
# Poissons Ratio (x) = 0.38323 0.07875
# Poissons Ratio (y) = 0.50380 0.71240
# Poissons Ratio (z) = 0.04115 0.28317
#
# Static dielectric constant tensor:
#      x y z
#    x 2.848660 0.000000 0.000000 
#    y 0.000000 2.903450 0.000000 
#    z 0.000000 0.000000 3.311240 
# 
# 
# High freq. dielectric constant tensor:
#      x y z
#    x 1.581160 0.000000 0.000000 
#    y 0.000000 1.601360 0.000000 
#    z 0.000000 0.000000 1.616260 
# 
# From -- ./inp_files/68072.got.cif
#   From: 2010.03.12/outbox.cif.g09.slc.cpg/sg65_35_cif.got.tgz:68072.got - 2010.04.10 20:52:16.
