data_PCOD8269196
_publ_section_title
;
Structure prediction by ZEFSAII (Michael W. Deem and Ramdas Pophale) SiO2 
 PCOD8269196
Probable space group: C M M M
;
_chemical_formula_sum "Si O2"
_cell_formula_units_Z 64
_cell_length_a 15.371761
_cell_length_b 8.813537
_cell_length_c 22.117660
_cell_angle_alpha 90.000000
_cell_angle_beta 90.000000
_cell_angle_gamma 90.000000
_cell_volume 2996.491383
_symmetry_space_group_name_H-M "C M M M"
_symmetry_group_IT_number 65
_symmetry_cell_setting 'orthorhombic'
loop_
_space_group_symop_operation_xyz
x,y,z
-x,-y,z
x,-y,-z
-x,y,-z
-x,-y,-z
x,y,-z
-x,y,z
x,-y,z
1/2+x,1/2+y,z
1/2-x,1/2-y,z
1/2+x,1/2-y,-z
1/2-x,1/2+y,-z
1/2-x,1/2-y,-z
1/2+x,1/2+y,-z
1/2-x,1/2+y,z
1/2+x,1/2-y,z
loop_
_atom_site_type_symbol
_atom_site_label
_atom_site_fract_x
_atom_site_fract_y
_atom_site_fract_z
Si Si1 0.896435 0.829407 0.120482
Si Si2 0.103875 0.671151 0.000000
Si Si3 0.160562 0.820583 0.637264
Si Si4 0.000000 0.326640 0.571535
Si Si5 0.602991 0.173929 0.242456
O O1 0.859146 0.754968 0.059336
O O2 0.863699 0.732019 0.177529
O O3 0.000000 0.829037 0.118439
O O4 0.860543 0.000000 0.126005
O O5 0.138770 0.500000 0.000000
O O6 0.000000 0.674145 0.000000
O O7 0.250000 0.750000 0.612562
O O8 0.084571 0.756343 0.595931
O O9 0.148191 0.775659 0.706992
O O10 0.163147 0.000000 0.631189
O O11 0.000000 0.500000 0.595001
O O12 0.000000 0.318094 0.500000
O O13 0.500000 0.192906 0.248768
O O14 0.631540 0.000000 0.250654
#
# Coordination Sequence:
#
# PCOD8269196 Si02
#       5
#    16   8  16   8  16
#     4   9  16  25  40  65 100 143 194 248 308 371
#     4   9  15  23  35  57  94 139 190 246 309 370
#     4  12  25  42  67  97 132 171 215 262 314 373
#     4  11  25  47  73 101 135 172 211 258 311 369
#     4  10  19  33  55  82 117 157 203 256 314 374
#
# _framework density 21.358312999999999
#
# number of rings (size 3 to 8) (size 9 to 14) (size 15 to 20)
#    0.000    1.750    1.250    4.500    0.000    7.000 
#    0.000    0.000    0.000    0.000    0.000    0.875 
#    0.000    0.000    0.000    0.000    0.000    0.000 
#
# Total GULP energy -396938.245009 kJ/mol
# GULP energy per Si atom -12404.320157 kJ/mol
# Density = 2.130970 g / cm^3
# Si number density = 21.358313 Si / 1000 Ang^3
#
#
#
# Elastic Constant Matrix: (Units=GPa)
#
#
# Indices 1 2 3 4 5 6 
#
# 1 88.4105 59.9280 41.4011 0.0000 0.0000 0.0000
# 2 59.9280 206.2605 63.7726 0.0000 0.0000 0.0000
# 3 41.4011 63.7726 114.3937 0.0000 0.0000 0.0000
# 4 0.0000 0.0000 0.0000 39.7384 0.0000 0.0000
# 5 0.0000 0.0000 0.0000 0.0000 -7.7558 0.0000
# 6 0.0000 0.0000 0.0000 0.0000 0.0000 25.4185
#
#
#
# Elastic Compliance Matrix: (Units=1/GPa)
#
#
# Indices 1 2 3 4 5 6 
#
# 1 0.015273 -0.003297 -0.003690 0.000000 0.000000 0.000000
# 2 -0.003297 0.006570 -0.002469 0.000000 0.000000 0.000000
# 3 -0.003690 -0.002469 0.011454 0.000000 0.000000 0.000000
# 4 0.000000 0.000000 0.000000 0.025165 0.000000 0.000000
# 5 0.000000 0.000000 0.000000 0.000000 -0.128935 0.000000
# 6 0.000000 0.000000 0.000000 0.000000 0.000000 0.039341
#
#
# Mechanical properties :
#
#
# Convention : Reuss Voigt Hill
#
# Bulk Modulus (GPa) = 69.51691 82.14090 75.82890
# Shear Modulus (GPa) = -673.34386 27.74440 -322.79973
#
# Velocity S-wave (km/s) = -17.77485 3.60807 -12.30705
# Velocity P-wave (km/s) = 19.71400 7.47660 12.89849
#
# Compressibility (1/GPa) = 0.01438499
#
# Stress axis : x y z
#
# Youngs Moduli (GPa) = 65.47308 152.21718 87.30784
#
# Poissons Ratio (x) = 0.50183 0.32215
# Poissons Ratio (y) = 0.21585 0.21559
# Poissons Ratio (z) = 0.24158 0.37586
#
# Static dielectric constant tensor:
#      x y z
#    x 3.586770 0.000000 0.000000 
#    y 0.000000 4.042720 0.000000 
#    z 0.000000 0.000000 3.953030 
# 
# 
# High freq. dielectric constant tensor:
#      x y z
#    x 1.811850 0.000000 0.000000 
#    y 0.000000 1.854030 0.000000 
#    z 0.000000 0.000000 1.843900 
# 
# From -- ./inp_files/69556.got.cif
#   From: 2010.03.12/outbox.cif.g09.slc.cpg/sg65_35_cif.got.tgz:69556.got - 2010.04.10 20:52:16.
