data_PCOD8269089
_publ_section_title
;
Structure prediction by ZEFSAII (Michael W. Deem and Ramdas Pophale) SiO2 
 PCOD8269089
Probable space group: C M M M
;
_chemical_formula_sum "Si O2"
_cell_formula_units_Z 64
_cell_length_a 18.791454
_cell_length_b 8.763521
_cell_length_c 20.700030
_cell_angle_alpha 90.000000
_cell_angle_beta 90.000000
_cell_angle_gamma 90.000000
_cell_volume 3408.866487
_symmetry_space_group_name_H-M "C M M M"
_symmetry_group_IT_number 65
_symmetry_cell_setting 'orthorhombic'
loop_
_space_group_symop_operation_xyz
x,y,z
-x,-y,z
x,-y,-z
-x,y,-z
-x,-y,-z
x,y,-z
-x,y,z
x,-y,z
1/2+x,1/2+y,z
1/2-x,1/2-y,z
1/2+x,1/2-y,-z
1/2-x,1/2+y,-z
1/2-x,1/2-y,-z
1/2+x,1/2+y,-z
1/2-x,1/2+y,z
1/2+x,1/2-y,z
loop_
_atom_site_type_symbol
_atom_site_label
_atom_site_fract_x
_atom_site_fract_y
_atom_site_fract_z
Si Si1 0.172154 0.820228 0.500000
Si Si2 0.916988 0.175119 0.747061
Si Si3 0.174656 0.324134 0.000000
Si Si4 0.828269 0.680220 0.860176
Si Si5 0.417443 0.821559 0.613273
O O1 0.250000 0.750000 0.500000
O O2 0.129773 0.769693 0.563063
O O3 0.179769 0.000000 0.500000
O O4 0.878417 0.240655 0.809029
O O5 0.893508 0.271040 0.684536
O O6 0.000000 0.193800 0.760009
O O7 0.895430 0.000000 0.735772
O O8 0.250000 0.250000 0.000000
O O9 0.136913 0.282571 0.068433
O O10 0.191478 0.500000 0.000000
O O11 0.824717 0.500000 0.847040
O O12 0.750000 0.750000 0.854237
O O13 0.500000 0.780749 0.601159
O O14 0.403295 0.000000 0.604561
#
# Coordination Sequence:
#
# PCOD8269089 Si02
#       5
#     8  16   8  16  16
#     4  12  25  40  59  85 117 147 179 222 269 314
#     4  10  21  37  56  80 110 143 181 224 269 318
#     4   8  16  30  49  74 103 137 177 221 267 320
#     4  10  19  33  54  79 107 140 180 224 272 324
#     4  10  21  39  62  85 110 143 182 221 265 321
#
# _framework density 18.774570000000001
#
# number of rings (size 3 to 8) (size 9 to 14) (size 15 to 20)
#    0.000    2.000    0.000    3.750    0.000    6.500 
#    0.000    5.625    0.000    3.750    0.000    0.000 
#    0.000    0.000    0.000    0.000    0.000    0.000 
#
# Total GULP energy -396665.298869 kJ/mol
# GULP energy per Si atom -12395.790590 kJ/mol
# Density = 1.873184 g / cm^3
# Si number density = 18.774570 Si / 1000 Ang^3
#
#
#
# Elastic Constant Matrix: (Units=GPa)
#
#
# Indices 1 2 3 4 5 6 
#
# 1 65.8172 55.4407 72.3361 0.0000 0.0000 0.0000
# 2 55.4407 103.6694 60.0473 0.0000 0.0000 0.0000
# 3 72.3361 60.0473 161.8339 0.0000 0.0000 0.0000
# 4 0.0000 0.0000 0.0000 34.8318 0.0000 0.0000
# 5 0.0000 0.0000 0.0000 0.0000 36.2500 0.0000
# 6 0.0000 0.0000 0.0000 0.0000 0.0000 31.2008
#
#
#
# Elastic Compliance Matrix: (Units=1/GPa)
#
#
# Indices 1 2 3 4 5 6 
#
# 1 0.042673 -0.014996 -0.013510 0.000000 0.000000 0.000000
# 2 -0.014996 0.017556 0.000189 0.000000 0.000000 0.000000
# 3 -0.013510 0.000189 0.012148 0.000000 0.000000 0.000000
# 4 0.000000 0.000000 0.000000 0.028709 0.000000 0.000000
# 5 0.000000 0.000000 0.000000 0.000000 0.027586 0.000000
# 6 0.000000 0.000000 0.000000 0.000000 0.000000 0.032050
#
#
# Mechanical properties :
#
#
# Convention : Reuss Voigt Hill
#
# Bulk Modulus (GPa) = 63.51930 78.55209 71.03569
# Shear Modulus (GPa) = 22.46131 30.02294 26.24213
#
# Velocity S-wave (km/s) = 3.46261 4.00325 3.74270
# Velocity P-wave (km/s) = 7.06345 7.95603 7.52299
#
# Compressibility (1/GPa) = 0.01574325
#
# Stress axis : x y z
#
# Youngs Moduli (GPa) = 23.43395 56.95972 82.31950
#
# Poissons Ratio (x) = 0.85415 1.11213
# Poissons Ratio (y) = 0.35141 -0.01553
# Poissons Ratio (z) = 0.31659 -0.01074
#
# Static dielectric constant tensor:
#      x y z
#    x 3.221700 0.000000 0.000000 
#    y 0.000000 3.628030 0.000000 
#    z 0.000000 0.000000 3.991980 
# 
# 
# High freq. dielectric constant tensor:
#      x y z
#    x 1.704390 0.000000 0.000000 
#    y 0.000000 1.747080 0.000000 
#    z 0.000000 0.000000 1.753600 
# 
# From -- ./inp_files/49133.got.cif
#   From: 2010.03.12/outbox.cif.g09.slc.cpg/sg65_25_cif.got.tgz:49133.got - 2010.04.10 20:52:16.
