data_PCOD8269347
_publ_section_title
;
Structure prediction by ZEFSAII (Michael W. Deem and Ramdas Pophale) SiO2 
 PCOD8269347
Probable space group: C M M M
;
_chemical_formula_sum "Si O2"
_cell_formula_units_Z 88
_cell_length_a 13.981285
_cell_length_b 18.668282
_cell_length_c 17.592642
_cell_angle_alpha 90.000000
_cell_angle_beta 90.000000
_cell_angle_gamma 90.000000
_cell_volume 4591.795165
_symmetry_space_group_name_H-M "C M M M"
_symmetry_group_IT_number 65
_symmetry_cell_setting 'orthorhombic'
loop_
_space_group_symop_operation_xyz
x,y,z
-x,-y,z
x,-y,-z
-x,y,-z
-x,-y,-z
x,y,-z
-x,y,z
x,-y,z
1/2+x,1/2+y,z
1/2-x,1/2-y,z
1/2+x,1/2-y,-z
1/2-x,1/2+y,-z
1/2-x,1/2-y,-z
1/2+x,1/2+y,-z
1/2-x,1/2+y,z
1/2+x,1/2-y,z
loop_
_atom_site_type_symbol
_atom_site_label
_atom_site_fract_x
_atom_site_fract_y
_atom_site_fract_z
Si Si1 0.112196 0.825597 0.583359
Si Si2 0.886620 0.326541 0.357147
Si Si3 0.386088 0.919005 0.500000
Si Si4 0.611157 0.582514 0.722813
Si Si5 0.228665 0.667149 0.793485
Si Si6 0.110174 0.581528 0.911582
O O1 0.159009 0.838114 0.500000
O O2 0.150154 0.752815 0.621764
O O3 0.138374 0.891593 0.637755
O O4 0.000000 0.817192 0.572698
O O5 0.850146 0.378793 0.424131
O O6 0.836848 0.349723 0.279416
O O7 0.000000 0.330567 0.345453
O O8 0.500000 0.917707 0.500000
O O9 0.346518 0.000000 0.500000
O O10 0.500000 0.596864 0.739903
O O11 0.638433 0.500000 0.728695
O O12 0.670325 0.626614 0.784920
O O13 0.250000 0.750000 0.806437
O O14 0.176125 0.636990 0.867146
O O15 0.132382 0.500000 0.886110
O O16 0.000000 0.599763 0.894618
O O17 0.133053 0.591061 0.000000
#
# Coordination Sequence:
#
# PCOD8269347 Si02
#       6
#    16  16   8  16  16  16
#     4   9  16  31  55  75  99 145 197 244 293 336
#     4  10  19  34  54  79 113 150 188 236 292 350
#     4   9  18  32  51  76 112 156 195 241 300 354
#     4  10  22  39  55  76 111 152 198 247 288 329
#     4  12  23  35  59  90 118 149 190 235 283 346
#     4   9  20  41  67  93 121 150 180 223 282 346
#
# _framework density 19.164618000000001
#
# number of rings (size 3 to 8) (size 9 to 14) (size 15 to 20)
#    0.000    2.091    2.727    1.636    0.000    2.909 
#    1.636    5.000    0.000    0.545    0.000    2.545 
#    0.000    0.000    0.000    0.000    0.000    0.000 
#
# Total GULP energy -545658.310318 kJ/mol
# GULP energy per Si atom -12401.325234 kJ/mol
# Density = 1.912100 g / cm^3
# Si number density = 19.164618 Si / 1000 Ang^3
#
#
#
# Elastic Constant Matrix: (Units=GPa)
#
#
# Indices 1 2 3 4 5 6 
#
# 1 72.8578 52.9040 48.1078 0.0000 0.0000 0.0000
# 2 52.9040 152.0276 59.3147 0.0000 0.0000 0.0000
# 3 48.1078 59.3147 98.3625 0.0000 0.0000 0.0000
# 4 0.0000 0.0000 0.0000 20.7405 0.0000 0.0000
# 5 0.0000 0.0000 0.0000 0.0000 24.3916 0.0000
# 6 0.0000 0.0000 0.0000 0.0000 0.0000 21.2807
#
#
#
# Elastic Compliance Matrix: (Units=1/GPa)
#
#
# Indices 1 2 3 4 5 6 
#
# 1 0.022513 -0.004627 -0.008221 0.000000 0.000000 0.000000
# 2 -0.004627 0.009552 -0.003497 0.000000 0.000000 0.000000
# 3 -0.008221 -0.003497 0.016296 0.000000 0.000000 0.000000
# 4 0.000000 0.000000 0.000000 0.048215 0.000000 0.000000
# 5 0.000000 0.000000 0.000000 0.000000 0.040998 0.000000
# 6 0.000000 0.000000 0.000000 0.000000 0.000000 0.046991
#
#
# Mechanical properties :
#
#
# Convention : Reuss Voigt Hill
#
# Bulk Modulus (GPa) = 63.80951 71.54457 67.67704
# Shear Modulus (GPa) = 22.47399 24.14398 23.30899
#
# Velocity S-wave (km/s) = 3.42816 3.55325 3.49126
# Velocity P-wave (km/s) = 7.00267 7.36524 7.18624
#
# Compressibility (1/GPa) = 0.01567165
#
# Stress axis : x y z
#
# Youngs Moduli (GPa) = 44.41813 104.68576 61.36431
#
# Poissons Ratio (x) = 0.48438 0.50446
# Poissons Ratio (y) = 0.20552 0.21461
# Poissons Ratio (z) = 0.36515 0.36612
#
# Static dielectric constant tensor:
#      x y z
#    x 3.477700 0.000000 0.000000 
#    y 0.000000 3.528290 0.000000 
#    z 0.000000 0.000000 3.337690 
# 
# 
# High freq. dielectric constant tensor:
#      x y z
#    x 1.750050 0.000000 0.000000 
#    y 0.000000 1.746460 0.000000 
#    z 0.000000 0.000000 1.726340 
# 
# From -- ./inp_files/53046.got.cif
#   From: 2010.03.12/outbox.cif.g09.slc.cpg/sg65_27_cif.got.tgz:53046.got - 2010.04.10 20:52:16.
