data_PCOD8269306
_publ_section_title
;
Structure prediction by ZEFSAII (Michael W. Deem and Ramdas Pophale) SiO2 
 PCOD8269306
Probable space group: C M M M
;
_chemical_formula_sum "Si O2"
_cell_formula_units_Z 88
_cell_length_a 13.330557
_cell_length_b 30.594132
_cell_length_c 12.558669
_cell_angle_alpha 90.000000
_cell_angle_beta 90.000000
_cell_angle_gamma 90.000000
_cell_volume 5121.887635
_symmetry_space_group_name_H-M "C M M M"
_symmetry_group_IT_number 65
_symmetry_cell_setting 'orthorhombic'
loop_
_space_group_symop_operation_xyz
x,y,z
-x,-y,z
x,-y,-z
-x,y,-z
-x,-y,-z
x,y,-z
-x,y,z
x,-y,z
1/2+x,1/2+y,z
1/2-x,1/2-y,z
1/2+x,1/2-y,-z
1/2-x,1/2+y,-z
1/2-x,1/2-y,-z
1/2+x,1/2+y,-z
1/2-x,1/2+y,z
1/2+x,1/2-y,z
loop_
_atom_site_type_symbol
_atom_site_label
_atom_site_fract_x
_atom_site_fract_y
_atom_site_fract_z
Si Si1 0.885461 0.597800 0.292317
Si Si2 0.750000 0.750000 0.761809
Si Si3 0.219431 0.088101 0.874425
Si Si4 0.614292 0.678150 0.874313
Si Si5 0.610857 0.500000 0.126095
Si Si6 0.118943 0.549749 0.500000
Si Si7 0.386004 0.807096 0.618870
O O1 0.825636 0.588402 0.184750
O O2 0.838360 0.571805 0.392843
O O3 0.876735 0.648386 0.317384
O O4 0.000000 0.583337 0.271487
O O5 0.691090 0.714612 0.832251
O O6 0.669145 0.770704 0.685083
O O7 0.152268 0.129851 0.841018
O O8 0.165214 0.044007 0.835496
O O9 0.241236 0.088056 0.000000
O O10 0.500000 0.684476 0.830954
O O11 0.613870 0.682727 0.000000
O O12 0.500000 0.500000 0.176242
O O13 0.604247 0.500000 0.000000
O O14 0.153054 0.500000 0.500000
O O15 0.000000 0.556618 0.500000
O O16 0.340282 0.812131 0.500000
O O17 0.500000 0.791936 0.609951
#
# Coordination Sequence:
#
# PCOD8269306 Si02
#       7
#    16   8  16  16   8   8  16
#     4  10  19  34  53  76 108 141 174 214 258 311
#     4  12  20  34  54  80 104 134 180 220 266 324
#     4  10  20  35  54  80 109 139 176 216 265 319
#     4  10  21  36  53  75 107 142 176 220 266 313
#     4   9  18  34  57  80 101 132 177 220 257 309
#     4   9  18  32  54  79 100 132 178 218 252 303
#     4  10  20  35  53  75 104 137 175 220 265 311
#
# _framework density 17.181166000000001
#
# number of rings (size 3 to 8) (size 9 to 14) (size 15 to 20)
#    0.000    2.000    2.727    1.636    1.273    2.545 
#    0.000    0.000    0.000    1.636    0.000    2.545 
#    0.000    0.000    0.000    0.000    0.000    0.000 
#
# Total GULP energy -545509.769528 kJ/mol
# GULP energy per Si atom -12397.949307 kJ/mol
# Density = 1.714206 g / cm^3
# Si number density = 17.181166 Si / 1000 Ang^3
#
#
#
# Elastic Constant Matrix: (Units=GPa)
#
#
# Indices 1 2 3 4 5 6 
#
# 1 84.1103 62.6682 51.4914 0.0000 0.0000 0.0000
# 2 62.6682 121.3649 34.6100 0.0000 0.0000 0.0000
# 3 51.4914 34.6100 63.1951 0.0000 0.0000 0.0000
# 4 0.0000 0.0000 0.0000 0.9005 0.0000 0.0000
# 5 0.0000 0.0000 0.0000 0.0000 23.1528 0.0000
# 6 0.0000 0.0000 0.0000 0.0000 0.0000 26.3953
#
#
#
# Elastic Compliance Matrix: (Units=1/GPa)
#
#
# Indices 1 2 3 4 5 6 
#
# 1 0.032729 -0.011015 -0.020635 0.000000 0.000000 0.000000
# 2 -0.011015 0.013472 0.001597 0.000000 0.000000 0.000000
# 3 -0.020635 0.001597 0.031762 0.000000 0.000000 0.000000
# 4 0.000000 0.000000 0.000000 1.110496 0.000000 0.000000
# 5 0.000000 0.000000 0.000000 0.000000 0.043191 0.000000
# 6 0.000000 0.000000 0.000000 0.000000 0.000000 0.037886
#
#
# Mechanical properties :
#
#
# Convention : Reuss Voigt Hill
#
# Bulk Modulus (GPa) = 55.99901 62.91214 59.45558
# Shear Modulus (GPa) = 3.74365 18.08310 10.91338
#
# Velocity S-wave (km/s) = 1.47772 3.24774 2.52304
# Velocity P-wave (km/s) = 5.96452 7.12462 6.57022
#
# Compressibility (1/GPa) = 0.01785746
#
# Stress axis : x y z
#
# Youngs Moduli (GPa) = 30.55428 74.22750 31.48379
#
# Poissons Ratio (x) = 0.81765 0.64965
# Poissons Ratio (y) = 0.33657 -0.05028
# Poissons Ratio (z) = 0.63047 -0.11855
#
# Static dielectric constant tensor:
#      x y z
#    x 3.118190 0.000000 0.000000 
#    y 0.000000 3.326040 0.000000 
#    z 0.000000 0.000000 3.105430 
# 
# 
# High freq. dielectric constant tensor:
#      x y z
#    x 1.653650 0.000000 0.000000 
#    y 0.000000 1.676680 0.000000 
#    z 0.000000 0.000000 1.653080 
# 
# From -- ./inp_files/25191.got.cif
#   From: 2010.03.12/outbox.cif.g09.slc.cpg/sg65_13_cif.got.tgz:25191.got - 2010.04.10 20:52:16.
