data_PCOD8269950
_publ_section_title
;
Structure prediction by ZEFSAII (Michael W. Deem and Ramdas Pophale) SiO2 
 PCOD8269950
Probable space group: C M M M
;
_chemical_formula_sum "Si O2"
_cell_formula_units_Z 72
_cell_length_a 34.612952
_cell_length_b 13.722596
_cell_length_c 9.123076
_cell_angle_alpha 90.000000
_cell_angle_beta 90.000000
_cell_angle_gamma 90.000000
_cell_volume 4333.274594
_symmetry_space_group_name_H-M "C M M M"
_symmetry_group_IT_number 65
_symmetry_cell_setting 'orthorhombic'
loop_
_space_group_symop_operation_xyz
x,y,z
-x,-y,z
x,-y,-z
-x,y,-z
-x,-y,-z
x,y,-z
-x,y,z
x,-y,z
1/2+x,1/2+y,z
1/2-x,1/2-y,z
1/2+x,1/2-y,-z
1/2-x,1/2+y,-z
1/2-x,1/2-y,-z
1/2+x,1/2+y,-z
1/2-x,1/2+y,z
1/2+x,1/2-y,z
loop_
_atom_site_type_symbol
_atom_site_label
_atom_site_fract_x
_atom_site_fract_y
_atom_site_fract_z
Si Si1 0.275044 0.384687 0.664327
Si Si2 0.000000 0.887723 0.671159
Si Si3 0.916392 0.886370 0.673833
Si Si4 0.654357 0.705565 0.169526
Si Si5 0.799943 0.609938 0.831959
O O1 0.279055 0.342256 0.500000
O O2 0.273012 0.500000 0.661355
O O3 0.311505 0.356596 0.760764
O O4 0.235083 0.346317 0.735272
O O5 0.041212 0.847086 0.730076
O O6 0.000000 0.871010 0.500000
O O7 0.000000 0.000000 0.710214
O O8 0.912123 0.874025 0.500000
O O9 0.885714 0.818254 0.752826
O O10 0.910239 0.000000 0.715614
O O11 0.663005 0.820685 0.191107
O O12 0.651271 0.676961 0.000000
O O13 0.811522 0.500000 0.785208
O O14 0.785920 0.612453 0.000000
#
# Coordination Sequence:
#
# PCOD8269950 Si02
#       5
#    16   8  16  16  16
#     4  10  20  32  46  65  89 117 148 182 220 262
#     4   7  12  26  47  67  88 117 148 172 201 251
#     4   9  17  30  48  69  93 120 147 174 208 255
#     4  11  21  30  44  67  91 116 147 183 222 261
#     4   9  19  35  49  60  81 116 154 189 225 262
#
# _framework density 16.61561
#
# number of rings (size 3 to 8) (size 9 to 14) (size 15 to 20)
#    0.000    2.556    0.000    4.000    0.000    8.889 
#    0.000    0.556    0.000    2.000    0.000    0.778 
#    0.000    6.222    0.000    0.000    0.000    0.000 
#
# Total GULP energy -446151.863542 kJ/mol
# GULP energy per Si atom -12393.107321 kJ/mol
# Density = 1.657779 g / cm^3
# Si number density = 16.615610 Si / 1000 Ang^3
#
#
#
# Elastic Constant Matrix: (Units=GPa)
#
#
# Indices 1 2 3 4 5 6 
#
# 1 159.0858 52.6831 59.2667 0.0000 0.0000 0.0000
# 2 52.6831 42.9872 32.9585 0.0000 0.0000 0.0000
# 3 59.2667 32.9585 77.7333 0.0000 0.0000 0.0000
# 4 0.0000 0.0000 0.0000 19.2120 0.0000 0.0000
# 5 0.0000 0.0000 0.0000 0.0000 -6.1462 0.0000
# 6 0.0000 0.0000 0.0000 0.0000 0.0000 23.6650
#
#
#
# Elastic Compliance Matrix: (Units=1/GPa)
#
#
# Indices 1 2 3 4 5 6 
#
# 1 0.011399 -0.010826 -0.004101 0.000000 0.000000 0.000000
# 2 -0.010826 0.044749 -0.010719 0.000000 0.000000 0.000000
# 3 -0.004101 -0.010719 0.020536 0.000000 0.000000 0.000000
# 4 0.000000 0.000000 0.000000 0.052051 0.000000 0.000000
# 5 0.000000 0.000000 0.000000 0.000000 -0.162701 0.000000
# 6 0.000000 0.000000 0.000000 0.000000 0.000000 0.042256
#
#
# Mechanical properties :
#
#
# Convention : Reuss Voigt Hill
#
# Bulk Modulus (GPa) = 39.38262 63.29142 51.33702
# Shear Modulus (GPa) = 73.48090 16.33936 44.91013
#
# Velocity S-wave (km/s) = 6.65733 3.13928 5.20457
# Velocity P-wave (km/s) = 9.10203 7.16340 8.19028
#
# Compressibility (1/GPa) = 0.02539191
#
# Stress axis : x y z
#
# Youngs Moduli (GPa) = 87.72977 22.34700 48.69486
#
# Poissons Ratio (x) = 0.24192 0.19969
# Poissons Ratio (y) = 0.94973 0.52198
# Poissons Ratio (z) = 0.35976 0.23955
#
# Static dielectric constant tensor:
#      x y z
#    x 3.310730 0.000000 0.000000 
#    y 0.000000 3.050040 0.000000 
#    z 0.000000 0.000000 3.207300 
# 
# 
# High freq. dielectric constant tensor:
#      x y z
#    x 1.633810 0.000000 0.000000 
#    y 0.000000 1.619360 0.000000 
#    z 0.000000 0.000000 1.637990 
# 
# From -- ./inp_files/7650.got.cif
#   From: 2010.03.12/outbox.cif.g09.slc.cpg/sg65_4_cif.got.tgz:7650.got - 2010.04.10 20:52:16.
