data_PCOD8269775
_publ_section_title
;
Structure prediction by ZEFSAII (Michael W. Deem and Ramdas Pophale) SiO2 
 PCOD8269775
Probable space group: C M M M
;
_chemical_formula_sum "Si O2"
_cell_formula_units_Z 104
_cell_length_a 9.105935
_cell_length_b 28.080925
_cell_length_c 28.839001
_cell_angle_alpha 90.000000
_cell_angle_beta 90.000000
_cell_angle_gamma 90.000000
_cell_volume 7374.221316
_symmetry_space_group_name_H-M "C M M M"
_symmetry_group_IT_number 65
_symmetry_cell_setting 'orthorhombic'
loop_
_space_group_symop_operation_xyz
x,y,z
-x,-y,z
x,-y,-z
-x,y,-z
-x,-y,-z
x,y,-z
-x,y,z
x,-y,z
1/2+x,1/2+y,z
1/2-x,1/2-y,z
1/2+x,1/2-y,-z
1/2-x,1/2+y,-z
1/2-x,1/2-y,-z
1/2+x,1/2+y,-z
1/2-x,1/2+y,z
1/2+x,1/2-y,z
loop_
_atom_site_type_symbol
_atom_site_label
_atom_site_fract_x
_atom_site_fract_y
_atom_site_fract_z
Si Si1 0.664809 0.443510 0.261243
Si Si2 0.169808 0.443769 0.170981
Si Si3 0.325995 0.447085 0.000000
Si Si4 0.327685 0.799201 0.053726
Si Si5 0.324853 0.610412 0.910636
Si Si6 0.665543 0.556495 0.362646
Si Si7 0.334969 0.943376 0.550303
O O1 0.500000 0.423606 0.251721
O O2 0.656302 0.500000 0.261652
O O3 0.777498 0.426390 0.221764
O O4 0.723454 0.426219 0.311944
O O5 0.194218 0.500000 0.164406
O O6 0.271242 0.416531 0.134781
O O7 0.000000 0.429829 0.164539
O O8 0.270222 0.420112 0.954511
O O9 0.257499 0.500000 0.000000
O O10 0.500000 0.449857 0.000000
O O11 0.500000 0.795587 0.064724
O O12 0.250000 0.750000 0.066634
O O13 0.252465 0.838491 0.086211
O O14 0.299186 0.812044 0.000000
O O15 0.500000 0.616635 0.909469
O O16 0.500000 0.573741 0.368085
O O17 0.677622 0.500000 0.365573
O O18 0.751887 0.579930 0.405818
O O19 0.266821 0.928207 0.500000
O O20 0.500000 0.924450 0.552978
O O21 0.330963 0.000000 0.554044
#
# Coordination Sequence:
#
# PCOD8269775 Si02
#       7
#    16  16   8  16  16  16  16
#     4   8  14  25  38  50  65  88 119 153 189 228
#     4  10  20  31  42  59  82 106 133 164 198 235
#     4   9  18  30  44  63  84 107 136 163 186 223
#     4  10  20  34  52  71  91 109 130 158 191 228
#     4  11  20  32  49  66  86 109 135 162 194 233
#     4   8  13  20  30  43  57  75 104 142 181 221
#     4   8  13  19  25  35  53  76 101 131 172 222
#
# _framework density 14.103183
#
# number of rings (size 3 to 8) (size 9 to 14) (size 15 to 20)
#    0.000    2.846    0.769    3.231    0.000    3.077 
#    0.000    4.615    0.000    1.846    0.000    0.000 
#    0.000    0.000    0.000    0.000    0.000    0.000 
#
# Total GULP energy -644402.090381 kJ/mol
# GULP energy per Si atom -12392.347892 kJ/mol
# Density = 1.407108 g / cm^3
# Si number density = 14.103183 Si / 1000 Ang^3
#
#
#
# Elastic Constant Matrix: (Units=GPa)
#
#
# Indices 1 2 3 4 5 6 
#
# 1 72.6612 26.4194 48.2312 0.0000 0.0000 0.0000
# 2 26.4194 42.4051 27.7605 0.0000 0.0000 0.0000
# 3 48.2312 27.7605 122.3001 0.0000 0.0000 0.0000
# 4 0.0000 0.0000 0.0000 0.8133 0.0000 0.0000
# 5 0.0000 0.0000 0.0000 0.0000 26.2266 0.0000
# 6 0.0000 0.0000 0.0000 0.0000 0.0000 15.1562
#
#
#
# Elastic Compliance Matrix: (Units=1/GPa)
#
#
# Indices 1 2 3 4 5 6 
#
# 1 0.021272 -0.009116 -0.006320 0.000000 0.000000 0.000000
# 2 -0.009116 0.031604 -0.003579 0.000000 0.000000 0.000000
# 3 -0.006320 -0.003579 0.011481 0.000000 0.000000 0.000000
# 4 0.000000 0.000000 0.000000 1.229631 0.000000 0.000000
# 5 0.000000 0.000000 0.000000 0.000000 0.038129 0.000000
# 6 0.000000 0.000000 0.000000 0.000000 0.000000 0.065980
#
#
# Mechanical properties :
#
#
# Convention : Reuss Voigt Hill
#
# Bulk Modulus (GPa) = 37.98119 49.13208 43.55663
# Shear Modulus (GPa) = 3.46044 17.43623 10.44834
#
# Velocity S-wave (km/s) = 1.56812 3.51997 2.72481
# Velocity P-wave (km/s) = 5.50164 7.17171 6.39146
#
# Compressibility (1/GPa) = 0.02632883
#
# Stress axis : x y z
#
# Youngs Moduli (GPa) = 47.01037 31.64135 87.09829
#
# Poissons Ratio (x) = 0.28843 0.55045
# Poissons Ratio (y) = 0.42853 0.31171
# Poissons Ratio (z) = 0.29710 0.11324
#
# Static dielectric constant tensor:
#      x y z
#    x 2.823510 0.000000 0.000000 
#    y 0.000000 2.306370 0.000000 
#    z 0.000000 0.000000 3.159650 
# 
# 
# High freq. dielectric constant tensor:
#      x y z
#    x 1.542390 0.000000 0.000000 
#    y 0.000000 1.467700 0.000000 
#    z 0.000000 0.000000 1.546220 
# 
# From -- ./inp_files/77098.got.cif
#   From: 2010.03.12/outbox.cif.g09.slc.cpg/sg65_39_cif.got.tgz:77098.got - 2010.04.10 20:52:16.
