data_PCOD8269595
_publ_section_title
;
Structure prediction by ZEFSAII (Michael W. Deem and Ramdas Pophale) SiO2 
 PCOD8269595
Probable space group: C M M M
;
_chemical_formula_sum "Si O2"
_cell_formula_units_Z 104
_cell_length_a 30.677875
_cell_length_b 19.773463
_cell_length_c 9.092267
_cell_angle_alpha 90.000000
_cell_angle_beta 90.000000
_cell_angle_gamma 90.000000
_cell_volume 5515.440320
_symmetry_space_group_name_H-M "C M M M"
_symmetry_group_IT_number 65
_symmetry_cell_setting 'orthorhombic'
loop_
_space_group_symop_operation_xyz
x,y,z
-x,-y,z
x,-y,-z
-x,y,-z
-x,-y,-z
x,y,-z
-x,y,z
x,-y,z
1/2+x,1/2+y,z
1/2-x,1/2-y,z
1/2+x,1/2-y,-z
1/2-x,1/2+y,-z
1/2-x,1/2-y,-z
1/2+x,1/2+y,-z
1/2-x,1/2+y,z
1/2+x,1/2-y,z
loop_
_atom_site_type_symbol
_atom_site_label
_atom_site_fract_x
_atom_site_fract_y
_atom_site_fract_z
Si Si1 0.000000 0.081011 0.338445
Si Si2 0.818004 0.500000 0.826756
Si Si3 0.452156 0.923766 0.327304
Si Si4 0.825472 0.885569 0.826256
Si Si5 0.801796 0.245266 0.667552
Si Si6 0.640178 0.877699 0.328833
Si Si7 0.227714 0.000000 0.325734
Si Si8 0.580171 0.420776 0.161247
O O1 0.042630 0.111378 0.260717
O O2 0.000000 0.111476 0.500000
O O3 0.000000 0.000000 0.340214
O O4 0.844431 0.433500 0.785872
O O5 0.777149 0.500000 0.719794
O O6 0.806064 0.500000 0.000000
O O7 0.456587 0.928361 0.500000
O O8 0.500000 0.899399 0.264502
O O9 0.412009 0.871635 0.291229
O O10 0.441749 0.000000 0.267431
O O11 0.818238 0.808291 0.785747
O O12 0.873166 0.905847 0.768637
O O13 0.792186 0.931999 0.739483
O O14 0.820139 0.897974 0.000000
O O15 0.810768 0.221970 0.500000
O O16 0.750000 0.250000 0.692547
O O17 0.830233 0.311880 0.702157
O O18 0.646196 0.899564 0.500000
O O19 0.222472 0.000000 0.500000
O O20 0.572399 0.500000 0.149318
O O21 0.577107 0.387441 0.000000
#
# Coordination Sequence:
#
# PCOD8269595 Si02
#       8
#     8   8  16  16  16  16   8  16
#     4   9  17  27  45  77 109 135 173 222 269 314
#     4  12  24  36  55  85 117 144 182 232 278 333
#     4   8  13  24  49  84 113 140 180 231 283 338
#     4  11  22  38  59  83 111 146 188 232 281 341
#     4  10  22  38  55  78 110 151 194 236 286 343
#     4  10  19  35  58  81 111 150 192 235 282 342
#     4  12  24  38  58  82 112 146 184 235 285 335
#     4   9  17  32  52  75 105 140 175 214 268 332
#
# _framework density 18.856155999999999
#
# number of rings (size 3 to 8) (size 9 to 14) (size 15 to 20)
#    0.000    2.077    1.538    3.462    0.000    4.308 
#    0.000    0.000    1.692    0.923    0.000    0.000 
#    0.000    0.000    0.000    0.000    0.000    0.000 
#
# Total GULP energy -644327.596715 kJ/mol
# GULP energy per Si atom -12390.915321 kJ/mol
# Density = 1.881324 g / cm^3
# Si number density = 18.856156 Si / 1000 Ang^3
#
#
#
# Elastic Constant Matrix: (Units=GPa)
#
#
# Indices 1 2 3 4 5 6 
#
# 1 151.8499 40.1868 34.3403 0.0000 0.0000 0.0000
# 2 40.1868 73.0665 27.4185 0.0000 0.0000 0.0000
# 3 34.3403 27.4185 76.5882 0.0000 0.0000 0.0000
# 4 0.0000 0.0000 0.0000 24.2865 0.0000 0.0000
# 5 0.0000 0.0000 0.0000 0.0000 24.4275 0.0000
# 6 0.0000 0.0000 0.0000 0.0000 0.0000 45.5880
#
#
#
# Elastic Compliance Matrix: (Units=1/GPa)
#
#
# Indices 1 2 3 4 5 6 
#
# 1 0.008055 -0.003552 -0.002340 0.000000 0.000000 0.000000
# 2 -0.003552 0.017377 -0.004628 0.000000 0.000000 0.000000
# 3 -0.002340 -0.004628 0.015763 0.000000 0.000000 0.000000
# 4 0.000000 0.000000 0.000000 0.041175 0.000000 0.000000
# 5 0.000000 0.000000 0.000000 0.000000 0.040937 0.000000
# 6 0.000000 0.000000 0.000000 0.000000 0.000000 0.021936
#
#
# Mechanical properties :
#
#
# Convention : Reuss Voigt Hill
#
# Bulk Modulus (GPa) = 49.61815 56.15509 52.88662
# Shear Modulus (GPa) = 28.90170 32.16435 30.53303
#
# Velocity S-wave (km/s) = 3.91928 4.13458 4.02837
# Velocity P-wave (km/s) = 6.84486 7.25524 7.05303
#
# Compressibility (1/GPa) = 0.02015392
#
# Stress axis : x y z
#
# Youngs Moduli (GPa) = 124.15200 57.54896 63.44029
#
# Poissons Ratio (x) = 0.20442 0.14844
# Poissons Ratio (y) = 0.44099 0.29361
# Poissons Ratio (z) = 0.29050 0.26634
#
# Static dielectric constant tensor:
#      x y z
#    x 3.960080 0.000000 0.000000 
#    y 0.000000 3.144940 0.000000 
#    z 0.000000 0.000000 3.366900 
# 
# 
# High freq. dielectric constant tensor:
#      x y z
#    x 1.756630 0.000000 0.000000 
#    y 0.000000 1.694170 0.000000 
#    z 0.000000 0.000000 1.716570 
# 
# From -- ./inp_files/16532.got.cif
#   From: 2010.03.12/outbox.cif.g09.slc.cpg/sg65_9_cif.got.tgz:16532.got - 2010.04.10 20:52:16.
