data_PCOD8269501
_publ_section_title
;
Structure prediction by ZEFSAII (Michael W. Deem and Ramdas Pophale) SiO2 
 PCOD8269501
Probable space group: C M M M
;
_chemical_formula_sum "Si O2"
_cell_formula_units_Z 88
_cell_length_a 26.449258
_cell_length_b 15.728459
_cell_length_c 11.975470
_cell_angle_alpha 90.000000
_cell_angle_beta 90.000000
_cell_angle_gamma 90.000000
_cell_volume 4981.868212
_symmetry_space_group_name_H-M "C M M M"
_symmetry_group_IT_number 65
_symmetry_cell_setting 'orthorhombic'
loop_
_space_group_symop_operation_xyz
x,y,z
-x,-y,z
x,-y,-z
-x,y,-z
-x,-y,-z
x,y,-z
-x,y,z
x,-y,z
1/2+x,1/2+y,z
1/2-x,1/2-y,z
1/2+x,1/2-y,-z
1/2-x,1/2+y,-z
1/2-x,1/2-y,-z
1/2+x,1/2+y,-z
1/2-x,1/2+y,z
1/2+x,1/2-y,z
loop_
_atom_site_type_symbol
_atom_site_label
_atom_site_fract_x
_atom_site_fract_y
_atom_site_fract_z
Si Si1 0.191297 0.401703 0.371410
Si Si2 0.189883 0.259547 0.000000
Si Si3 0.386040 0.094169 0.000000
Si Si4 0.559532 0.850041 0.781872
Si Si5 0.351910 0.744118 0.236256
Si Si6 0.440083 0.000000 0.376126
Si Si7 0.690100 0.407271 0.371602
O O1 0.177263 0.378710 0.500000
O O2 0.173720 0.500000 0.345532
O O3 0.169769 0.333676 0.283328
O O4 0.250873 0.392744 0.354622
O O5 0.250000 0.250000 0.000000
O O6 0.166565 0.354250 0.000000
O O7 0.169616 0.217793 0.885491
O O8 0.422884 0.109499 0.896920
O O9 0.365129 0.000000 0.000000
O O10 0.500000 0.834277 0.780590
O O11 0.587562 0.759276 0.767928
O O12 0.578010 0.914037 0.684137
O O13 0.342294 0.665131 0.314260
O O14 0.500000 0.000000 0.377805
O O15 0.416669 0.000000 0.500000
O O16 0.675578 0.403150 0.500000
O O17 0.675089 0.500000 0.323015
#
# Coordination Sequence:
#
# PCOD8269501 Si02
#       7
#    16   8   8  16  16   8  16
#     4   9  18  31  50  77 104 131 169 212 256 311
#     4  10  22  35  47  72 111 137 164 202 256 316
#     4  10  19  34  58  79  98 136 188 224 245 294
#     4  10  21  34  50  73 102 137 177 218 257 297
#     4  11  21  33  52  73 102 140 174 207 258 315
#     4   9  18  31  45  67 103 138 165 201 255 309
#     4   9  18  34  55  77  98 125 169 222 265 306
#
# _framework density 17.664055999999999
#
# number of rings (size 3 to 8) (size 9 to 14) (size 15 to 20)
#    0.000    2.273    0.909    3.545    1.273    4.000 
#    0.000    1.364    0.000    0.545    0.000    1.273 
#    0.000    4.364    0.000    0.000    0.000    0.000 
#
# Total GULP energy -545274.554050 kJ/mol
# GULP energy per Si atom -12392.603501 kJ/mol
# Density = 1.762385 g / cm^3
# Si number density = 17.664056 Si / 1000 Ang^3
#
#
#
# Elastic Constant Matrix: (Units=GPa)
#
#
# Indices 1 2 3 4 5 6 
#
# 1 84.6871 44.5357 33.6237 0.0000 0.0000 0.0000
# 2 44.5357 93.5193 34.1104 0.0000 0.0000 0.0000
# 3 33.6237 34.1104 96.1065 0.0000 0.0000 0.0000
# 4 0.0000 0.0000 0.0000 20.0234 0.0000 0.0000
# 5 0.0000 0.0000 0.0000 0.0000 28.3953 0.0000
# 6 0.0000 0.0000 0.0000 0.0000 0.0000 25.0091
#
#
#
# Elastic Compliance Matrix: (Units=1/GPa)
#
#
# Indices 1 2 3 4 5 6 
#
# 1 0.016703 -0.006689 -0.003470 0.000000 0.000000 0.000000
# 2 -0.006689 0.014962 -0.002970 0.000000 0.000000 0.000000
# 3 -0.003470 -0.002970 0.012673 0.000000 0.000000 0.000000
# 4 0.000000 0.000000 0.000000 0.049942 0.000000 0.000000
# 5 0.000000 0.000000 0.000000 0.000000 0.035217 0.000000
# 6 0.000000 0.000000 0.000000 0.000000 0.000000 0.039985
#
#
# Mechanical properties :
#
#
# Convention : Reuss Voigt Hill
#
# Bulk Modulus (GPa) = 55.30742 55.42806 55.36774
# Shear Modulus (GPa) = 24.78107 25.48843 25.13475
#
# Velocity S-wave (km/s) = 3.74961 3.80275 3.77627
# Velocity P-wave (km/s) = 7.07988 7.12238 7.10116
#
# Compressibility (1/GPa) = 0.01808076
#
# Stress axis : x y z
#
# Youngs Moduli (GPa) = 59.86809 66.83744 78.90663
#
# Poissons Ratio (x) = 0.44707 0.27379
# Poissons Ratio (y) = 0.40045 0.23436
# Poissons Ratio (z) = 0.20773 0.19851
#
# Static dielectric constant tensor:
#      x y z
#    x 3.249720 0.000000 0.000000 
#    y 0.000000 3.207050 0.000000 
#    z 0.000000 0.000000 3.567190 
# 
# 
# High freq. dielectric constant tensor:
#      x y z
#    x 1.678720 0.000000 0.000000 
#    y 0.000000 1.660560 0.000000 
#    z 0.000000 0.000000 1.696660 
# 
# From -- ./inp_files/32286.got.cif
#   From: 2010.03.12/outbox.cif.g09.slc.cpg/sg65_17_cif.got.tgz:32286.got - 2010.04.10 20:52:16.
