data_PCOD8269160
_publ_section_title
;
Structure prediction by ZEFSAII (Michael W. Deem and Ramdas Pophale) SiO2 
 PCOD8269160
Probable space group: C M M M
;
_chemical_formula_sum "Si O2"
_cell_formula_units_Z 88
_cell_length_a 9.841696
_cell_length_b 15.816574
_cell_length_c 30.002945
_cell_angle_alpha 90.000000
_cell_angle_beta 90.000000
_cell_angle_gamma 90.000000
_cell_volume 4670.315816
_symmetry_space_group_name_H-M "C M M M"
_symmetry_group_IT_number 65
_symmetry_cell_setting 'orthorhombic'
loop_
_space_group_symop_operation_xyz
x,y,z
-x,-y,z
x,-y,-z
-x,y,-z
-x,-y,-z
x,y,-z
-x,y,z
x,-y,z
1/2+x,1/2+y,z
1/2-x,1/2-y,z
1/2+x,1/2-y,-z
1/2-x,1/2+y,-z
1/2-x,1/2-y,-z
1/2+x,1/2+y,-z
1/2-x,1/2+y,z
1/2+x,1/2-y,z
loop_
_atom_site_type_symbol
_atom_site_label
_atom_site_fract_x
_atom_site_fract_y
_atom_site_fract_z
Si Si1 0.660206 0.906835 0.193084
Si Si2 0.338749 0.169831 0.100800
Si Si3 0.852041 0.401920 0.622051
Si Si4 0.160888 0.500000 0.949840
Si Si5 0.158939 0.329414 0.714975
Si Si6 0.151258 0.899431 0.450683
O O1 0.500000 0.916377 0.195869
O O2 0.698881 0.845094 0.152546
O O3 0.715715 0.870674 0.239595
O O4 0.723682 0.000000 0.184991
O O5 0.500000 0.187429 0.093858
O O6 0.250000 0.250000 0.083939
O O7 0.290305 0.085886 0.074360
O O8 0.858067 0.500000 0.611143
O O9 0.812840 0.392047 0.673867
O O10 0.746486 0.358820 0.587684
O O11 0.000000 0.360468 0.613546
O O12 0.000000 0.500000 0.949333
O O13 0.218966 0.500000 0.000000
O O14 0.250000 0.250000 0.704063
O O15 0.000000 0.305371 0.719588
O O16 0.204594 0.873430 0.500000
O O17 0.000000 0.863498 0.443184
O O18 0.147861 0.000000 0.446686
#
# Coordination Sequence:
#
# PCOD8269160 Si02
#       6
#    16  16  16   8  16  16
#     4   9  16  30  53  76  98 130 173 212 249 305
#     4  10  19  33  55  81 108 142 184 227 273 323
#     4   9  17  29  45  66  90 117 151 190 233 280
#     4   9  18  34  55  79 109 147 191 231 268 323
#     4  10  20  32  47  68  95 125 158 198 242 291
#     4   8  14  25  42  65  91 117 146 184 233 286
#
# _framework density 18.842409
#
# number of rings (size 3 to 8) (size 9 to 14) (size 15 to 20)
#    0.000    2.818    0.909    1.636    0.000    3.636 
#    0.000    2.273    0.000    3.818    0.000    0.000 
#    0.000    0.000    0.000    0.000    0.000    0.000 
#
# Total GULP energy -545282.079490 kJ/mol
# GULP energy per Si atom -12392.774534 kJ/mol
# Density = 1.879952 g / cm^3
# Si number density = 18.842409 Si / 1000 Ang^3
#
#
#
# Elastic Constant Matrix: (Units=GPa)
#
#
# Indices 1 2 3 4 5 6 
#
# 1 55.2134 36.6333 47.6589 0.0000 0.0000 0.0000
# 2 36.6333 79.2386 32.7229 0.0000 0.0000 0.0000
# 3 47.6589 32.7229 147.1814 0.0000 0.0000 0.0000
# 4 0.0000 0.0000 0.0000 9.3782 0.0000 0.0000
# 5 0.0000 0.0000 0.0000 0.0000 15.8677 0.0000
# 6 0.0000 0.0000 0.0000 0.0000 0.0000 21.8125
#
#
#
# Elastic Compliance Matrix: (Units=1/GPa)
#
#
# Indices 1 2 3 4 5 6 
#
# 1 0.032938 -0.011917 -0.008016 0.000000 0.000000 0.000000
# 2 -0.011917 0.018208 -0.000189 0.000000 0.000000 0.000000
# 3 -0.008016 -0.000189 0.009432 0.000000 0.000000 0.000000
# 4 0.000000 0.000000 0.000000 0.106630 0.000000 0.000000
# 5 0.000000 0.000000 0.000000 0.000000 0.063021 0.000000
# 6 0.000000 0.000000 0.000000 0.000000 0.000000 0.045845
#
#
# Mechanical properties :
#
#
# Convention : Reuss Voigt Hill
#
# Bulk Modulus (GPa) = 49.18216 57.29597 53.23906
# Shear Modulus (GPa) = 15.47525 20.38623 17.93074
#
# Velocity S-wave (km/s) = 2.86894 3.29284 3.08817
# Velocity P-wave (km/s) = 6.09368 6.70307 6.40562
#
# Compressibility (1/GPa) = 0.02033258
#
# Stress axis : x y z
#
# Youngs Moduli (GPa) = 30.36033 54.92151 106.02126
#
# Poissons Ratio (x) = 0.65452 0.84987
# Poissons Ratio (y) = 0.36181 0.02006
# Poissons Ratio (z) = 0.24337 0.01039
#
# Static dielectric constant tensor:
#      x y z
#    x 3.360490 0.000000 0.000000 
#    y 0.000000 3.243350 0.000000 
#    z 0.000000 0.000000 3.763450 
# 
# 
# High freq. dielectric constant tensor:
#      x y z
#    x 1.695930 0.000000 0.000000 
#    y 0.000000 1.712640 0.000000 
#    z 0.000000 0.000000 1.744160 
# 
# From -- ./inp_files/68925.got.cif
#   From: 2010.03.12/outbox.cif.g09.slc.cpg/sg65_35_cif.got.tgz:68925.got - 2010.04.10 20:52:16.
