data_PCOD8269086
_publ_section_title
;
Structure prediction by ZEFSAII (Michael W. Deem and Ramdas Pophale) SiO2 
 PCOD8269086
Probable space group: C M M M
;
_chemical_formula_sum "Si O2"
_cell_formula_units_Z 80
_cell_length_a 8.732590
_cell_length_b 18.372696
_cell_length_c 26.291264
_cell_angle_alpha 90.000000
_cell_angle_beta 90.000000
_cell_angle_gamma 90.000000
_cell_volume 4218.202507
_symmetry_space_group_name_H-M "C M M M"
_symmetry_group_IT_number 65
_symmetry_cell_setting 'orthorhombic'
loop_
_space_group_symop_operation_xyz
x,y,z
-x,-y,z
x,-y,-z
-x,y,-z
-x,-y,-z
x,y,-z
-x,y,z
x,-y,z
1/2+x,1/2+y,z
1/2-x,1/2-y,z
1/2+x,1/2-y,-z
1/2-x,1/2+y,-z
1/2-x,1/2-y,-z
1/2+x,1/2+y,-z
1/2-x,1/2+y,z
1/2+x,1/2-y,z
loop_
_atom_site_type_symbol
_atom_site_label
_atom_site_fract_x
_atom_site_fract_y
_atom_site_fract_z
Si Si1 0.681742 0.169257 0.684820
Si Si2 0.179375 0.915019 0.406744
Si Si3 0.817222 0.581104 0.000000
Si Si4 0.819302 0.329862 0.500000
Si Si5 0.822212 0.327674 0.795458
Si Si6 0.319154 0.829566 0.095230
O O1 0.500000 0.172492 0.674828
O O2 0.750000 0.250000 0.677542
O O3 0.761777 0.113414 0.647132
O O4 0.721914 0.135775 0.741286
O O5 0.267588 0.872873 0.450476
O O6 0.000000 0.899740 0.412373
O O7 0.217162 0.000000 0.411323
O O8 0.752356 0.620242 0.050499
O O9 0.750916 0.500000 0.000000
O O10 0.000000 0.580538 0.000000
O O11 0.750000 0.250000 0.500000
O O12 0.000000 0.322538 0.500000
O O13 0.750000 0.250000 0.796666
O O14 0.776426 0.366360 0.849218
O O15 0.000000 0.313919 0.795215
O O16 0.500000 0.822345 0.089278
O O17 0.250000 0.750000 0.089510
#
# Coordination Sequence:
#
# PCOD8269086 Si02
#       6
#    16  16   8   8  16  16
#     4  10  19  33  54  79 107 138 175 216 259 309
#     4  11  24  41  59  81 112 146 178 215 260 307
#     4   9  17  28  43  65  94 127 162 202 250 305
#     4  12  25  42  65  89 113 141 177 218 259 306
#     4   8  15  27  45  71  99 127 162 207 254 298
#     4   9  16  28  47  70  94 123 163 207 252 300
#
# _framework density 18.965423999999999
#
# number of rings (size 3 to 8) (size 9 to 14) (size 15 to 20)
#    0.000    2.300    0.000    3.300    0.000    3.600 
#    0.000    1.000    0.000    4.800    0.000    0.000 
#    0.000    0.000    0.000    0.000    0.000    0.000 
#
# Total GULP energy -495543.359452 kJ/mol
# GULP energy per Si atom -12388.583986 kJ/mol
# Density = 1.892226 g / cm^3
# Si number density = 18.965424 Si / 1000 Ang^3
#
#
#
# Elastic Constant Matrix: (Units=GPa)
#
#
# Indices 1 2 3 4 5 6 
#
# 1 66.9159 46.7036 53.1327 0.0000 0.0000 0.0000
# 2 46.7036 108.0415 81.6272 0.0000 0.0000 0.0000
# 3 53.1327 81.6272 202.6935 0.0000 0.0000 0.0000
# 4 0.0000 0.0000 0.0000 0.1024 0.0000 0.0000
# 5 0.0000 0.0000 0.0000 0.0000 13.2855 0.0000
# 6 0.0000 0.0000 0.0000 0.0000 0.0000 23.0188
#
#
#
# Elastic Compliance Matrix: (Units=1/GPa)
#
#
# Indices 1 2 3 4 5 6 
#
# 1 0.022488 -0.007571 -0.002846 0.000000 0.000000 0.000000
# 2 -0.007571 0.015852 -0.004399 0.000000 0.000000 0.000000
# 3 -0.002846 -0.004399 0.007451 0.000000 0.000000 0.000000
# 4 0.000000 0.000000 0.000000 9.766877 0.000000 0.000000
# 5 0.000000 0.000000 0.000000 0.000000 0.075270 0.000000
# 6 0.000000 0.000000 0.000000 0.000000 0.000000 0.043443
#
#
# Mechanical properties :
#
#
# Convention : Reuss Voigt Hill
#
# Bulk Modulus (GPa) = 61.88446 82.28643 72.08544
# Shear Modulus (GPa) = 0.50169 20.36048 10.43109
#
# Velocity S-wave (km/s) = 0.51488 3.28007 2.34776
# Velocity P-wave (km/s) = 5.74930 7.60441 6.74097
#
# Compressibility (1/GPa) = 0.01615915
#
# Stress axis : x y z
#
# Youngs Moduli (GPa) = 44.46837 63.08319 134.20605
#
# Poissons Ratio (x) = 0.47759 0.38195
# Poissons Ratio (y) = 0.33666 0.59041
# Poissons Ratio (z) = 0.12656 0.27752
#
# Static dielectric constant tensor:
#      x y z
#    x 3.388010 0.000000 0.000000 
#    y 0.000000 3.251920 0.000000 
#    z 0.000000 0.000000 4.183970 
# 
# 
# High freq. dielectric constant tensor:
#      x y z
#    x 1.731880 0.000000 0.000000 
#    y 0.000000 1.703440 0.000000 
#    z 0.000000 0.000000 1.772650 
# 
# From -- ./inp_files/72886.got.cif
#   From: 2010.03.12/outbox.cif.g09.slc.cpg/sg65_37_cif.got.tgz:72886.got - 2010.04.10 20:52:16.
