data_PCOD8269156
_publ_section_title
;
Structure prediction by ZEFSAII (Michael W. Deem and Ramdas Pophale) SiO2 
 PCOD8269156
Probable space group: C M M M
;
_chemical_formula_sum "Si O2"
_cell_formula_units_Z 104
_cell_length_a 27.457586
_cell_length_b 22.209421
_cell_length_c 8.880523
_cell_angle_alpha 90.000000
_cell_angle_beta 90.000000
_cell_angle_gamma 90.000000
_cell_volume 5415.494668
_symmetry_space_group_name_H-M "C M M M"
_symmetry_group_IT_number 65
_symmetry_cell_setting 'orthorhombic'
loop_
_space_group_symop_operation_xyz
x,y,z
-x,-y,z
x,-y,-z
-x,y,-z
-x,-y,-z
x,y,-z
-x,y,z
x,-y,z
1/2+x,1/2+y,z
1/2-x,1/2-y,z
1/2+x,1/2-y,-z
1/2-x,1/2+y,-z
1/2-x,1/2-y,-z
1/2+x,1/2+y,-z
1/2-x,1/2+y,z
1/2+x,1/2-y,z
loop_
_atom_site_type_symbol
_atom_site_label
_atom_site_fract_x
_atom_site_fract_y
_atom_site_fract_z
Si Si1 0.809449 0.430276 0.325270
Si Si2 0.116917 0.846000 0.673051
Si Si3 0.599134 0.884047 0.178184
Si Si4 0.199555 0.932329 0.320410
Si Si5 0.056971 0.500000 0.668157
Si Si6 0.056194 0.734117 0.678955
Si Si7 0.943095 0.934036 0.835252
O O1 0.814310 0.413737 0.500000
O O2 0.824091 0.500000 0.297401
O O3 0.844632 0.386306 0.231560
O O4 0.754559 0.418200 0.268533
O O5 0.127553 0.834996 0.500000
O O6 0.164980 0.878463 0.746514
O O7 0.095795 0.783410 0.740770
O O8 0.073878 0.893378 0.697352
O O9 0.572101 0.942057 0.239486
O O10 0.570605 0.827468 0.243115
O O11 0.596906 0.882115 0.000000
O O12 0.196270 0.932336 0.500000
O O13 0.184948 0.000000 0.263530
O O14 0.081009 0.500000 0.500000
O O15 0.000000 0.500000 0.649261
O O16 0.060435 0.727420 0.500000
O O17 0.000000 0.751015 0.722029
O O18 0.000000 0.939235 0.825341
O O19 0.919816 0.000000 0.815300
O O20 0.927628 0.907782 0.000000
#
# Coordination Sequence:
#
# PCOD8269156 Si02
#       7
#    16  16  16  16   8  16  16
#     4   9  17  33  58  83 111 148 182 216 272 339
#     4  10  19  33  55  81 107 138 185 240 281 316
#     4  12  24  37  57  85 113 142 182 231 276 321
#     4   8  15  29  53  86 116 142 179 229 279 328
#     4  11  23  39  61  87 115 145 175 215 274 341
#     4  10  22  39  56  76 108 151 192 228 276 338
#     4   9  18  31  46  68 102 142 181 222 276 342
#
# _framework density 19.204156000000001
#
# number of rings (size 3 to 8) (size 9 to 14) (size 15 to 20)
#    0.000    2.231    0.769    4.385    0.000    5.231 
#    0.000    2.308    0.000    5.538    0.000    0.000 
#    0.000    0.000    0.000    0.000    0.000    0.000 
#
# Total GULP energy -644252.654644 kJ/mol
# GULP energy per Si atom -12389.474128 kJ/mol
# Density = 1.916045 g / cm^3
# Si number density = 19.204156 Si / 1000 Ang^3
#
#
#
# Elastic Constant Matrix: (Units=GPa)
#
#
# Indices 1 2 3 4 5 6 
#
# 1 113.2598 63.4030 36.8924 0.0000 0.0000 0.0000
# 2 63.4030 106.3444 26.6528 0.0000 0.0000 0.0000
# 3 36.8924 26.6528 25.8483 0.0000 0.0000 0.0000
# 4 0.0000 0.0000 0.0000 33.4780 0.0000 0.0000
# 5 0.0000 0.0000 0.0000 0.0000 12.4679 0.0000
# 6 0.0000 0.0000 0.0000 0.0000 0.0000 24.1893
#
#
#
# Elastic Compliance Matrix: (Units=1/GPa)
#
#
# Indices 1 2 3 4 5 6 
#
# 1 0.019067 -0.006132 -0.020890 0.000000 0.000000 0.000000
# 2 -0.006132 0.014652 -0.006357 0.000000 0.000000 0.000000
# 3 -0.020890 -0.006357 0.075058 0.000000 0.000000 0.000000
# 4 0.000000 0.000000 0.000000 0.029870 0.000000 0.000000
# 5 0.000000 0.000000 0.000000 0.000000 0.080206 0.000000
# 6 0.000000 0.000000 0.000000 0.000000 0.000000 0.041341
#
#
# Mechanical properties :
#
#
# Convention : Reuss Voigt Hill
#
# Bulk Modulus (GPa) = 23.79870 55.48321 39.64095
# Shear Modulus (GPa) = 14.66456 21.92731 18.29594
#
# Velocity S-wave (km/s) = 2.76635 3.38272 3.08994
# Velocity P-wave (km/s) = 4.75636 6.64914 5.78075
#
# Compressibility (1/GPa) = 0.04201911
#
# Stress axis : x y z
#
# Youngs Moduli (GPa) = 52.44786 68.24818 13.32305
#
# Poissons Ratio (x) = 0.41849 0.27832
# Poissons Ratio (y) = 0.32160 0.08469
# Poissons Ratio (z) = 1.09565 0.43383
#
# Static dielectric constant tensor:
#      x y z
#    x 3.802030 0.000000 0.000000 
#    y 0.000000 3.611750 0.000000 
#    z 0.000000 0.000000 3.337620 
# 
# 
# High freq. dielectric constant tensor:
#      x y z
#    x 1.757200 0.000000 0.000000 
#    y 0.000000 1.736870 0.000000 
#    z 0.000000 0.000000 1.718560 
# 
# From -- ./inp_files/16488.got.cif
#   From: 2010.03.12/outbox.cif.g09.slc.cpg/sg65_9_cif.got.tgz:16488.got - 2010.04.10 20:52:16.
