data_PCOD8269944
_publ_section_title
;
Structure prediction by ZEFSAII (Michael W. Deem and Ramdas Pophale) SiO2 
 PCOD8269944
Probable space group: C M M M
;
_chemical_formula_sum "Si O2"
_cell_formula_units_Z 104
_cell_length_a 25.840744
_cell_length_b 24.730469
_cell_length_c 9.093684
_cell_angle_alpha 90.000000
_cell_angle_beta 90.000000
_cell_angle_gamma 90.000000
_cell_volume 5811.352574
_symmetry_space_group_name_H-M "C M M M"
_symmetry_group_IT_number 65
_symmetry_cell_setting 'orthorhombic'
loop_
_space_group_symop_operation_xyz
x,y,z
-x,-y,z
x,-y,-z
-x,y,-z
-x,-y,-z
x,y,-z
-x,y,z
x,-y,z
1/2+x,1/2+y,z
1/2-x,1/2-y,z
1/2+x,1/2-y,-z
1/2-x,1/2+y,-z
1/2-x,1/2-y,-z
1/2+x,1/2+y,-z
1/2-x,1/2+y,z
1/2+x,1/2-y,z
loop_
_atom_site_type_symbol
_atom_site_label
_atom_site_fract_x
_atom_site_fract_y
_atom_site_fract_z
Si Si1 0.277427 0.940569 0.335110
Si Si2 0.277352 0.836913 0.831526
Si Si3 0.845084 0.164036 0.831141
Si Si4 0.140618 0.729424 0.673935
Si Si5 0.941320 0.659755 0.836138
Si Si6 0.439066 0.940639 0.000000
Si Si7 0.154443 0.940562 0.665253
O O1 0.296970 0.927058 0.500000
O O2 0.298170 0.895223 0.223549
O O3 0.215922 0.940523 0.333304
O O4 0.297625 0.000000 0.286073
O O5 0.216401 0.831545 0.810443
O O6 0.304402 0.789901 0.738451
O O7 0.294403 0.830264 0.000000
O O8 0.872040 0.211367 0.738002
O O9 0.866337 0.106418 0.772457
O O10 0.861315 0.169567 0.000000
O O11 0.144281 0.732689 0.500000
O O12 0.095804 0.688117 0.719933
O O13 0.000000 0.665440 0.777496
O O14 0.936766 0.686546 0.000000
O O15 0.925481 0.595796 0.854785
O O16 0.500000 0.949133 0.000000
O O17 0.411597 0.000000 0.000000
O O18 0.134500 0.929174 0.500000
O O19 0.134738 0.000000 0.718362
#
# Coordination Sequence:
#
# PCOD8269944 Si02
#       7
#    16  16  16  16  16   8  16
#     4   8  14  26  43  61  84 116 154 196 241 287
#     4  10  20  32  46  64  90 125 166 208 248 287
#     4  10  20  32  47  68  94 127 168 212 248 286
#     4  12  23  33  48  68  96 131 163 199 243 296
#     4   8  17  34  56  78  99 123 151 193 243 295
#     4   7  12  28  58  86  99 116 151 195 244 295
#     4   8  14  26  44  65  90 121 157 197 241 287
#
# _framework density 17.896006
#
# number of rings (size 3 to 8) (size 9 to 14) (size 15 to 20)
#    0.462    2.385    0.000    3.692    0.000    4.615 
#    0.000    3.846    0.000    1.385    0.000    2.154 
#    0.000    0.615    0.000    6.462    0.000    3.077 
#
# Total GULP energy -644321.087514 kJ/mol
# GULP energy per Si atom -12390.790145 kJ/mol
# Density = 1.785527 g / cm^3
# Si number density = 17.896006 Si / 1000 Ang^3
#
#
#
# Elastic Constant Matrix: (Units=GPa)
#
#
# Indices 1 2 3 4 5 6 
#
# 1 23.0481 16.8660 16.9024 0.0000 0.0000 0.0000
# 2 16.8660 147.9697 70.7977 0.0000 0.0000 0.0000
# 3 16.9024 70.7977 121.1058 0.0000 0.0000 0.0000
# 4 0.0000 0.0000 0.0000 30.1666 0.0000 0.0000
# 5 0.0000 0.0000 0.0000 0.0000 17.1344 0.0000
# 6 0.0000 0.0000 0.0000 0.0000 0.0000 13.1719
#
#
#
# Elastic Compliance Matrix: (Units=1/GPa)
#
#
# Indices 1 2 3 4 5 6 
#
# 1 0.049428 -0.003239 -0.005005 0.000000 0.000000 0.000000
# 2 -0.003239 0.009595 -0.005157 0.000000 0.000000 0.000000
# 3 -0.005005 -0.005157 0.011970 0.000000 0.000000 0.000000
# 4 0.000000 0.000000 0.000000 0.033149 0.000000 0.000000
# 5 0.000000 0.000000 0.000000 0.000000 0.058362 0.000000
# 6 0.000000 0.000000 0.000000 0.000000 0.000000 0.075919
#
#
# Mechanical properties :
#
#
# Convention : Reuss Voigt Hill
#
# Bulk Modulus (GPa) = 22.62889 55.69506 39.16197
# Shear Modulus (GPa) = 17.85989 24.59841 21.22915
#
# Velocity S-wave (km/s) = 3.16251 3.71147 3.44794
# Velocity P-wave (km/s) = 5.09975 7.03959 6.14667
#
# Compressibility (1/GPa) = 0.04419130
#
# Stress axis : x y z
#
# Youngs Moduli (GPa) = 20.23131 104.22357 83.53896
#
# Poissons Ratio (x) = 0.33762 0.41810
# Poissons Ratio (y) = 0.06554 0.43080
# Poissons Ratio (z) = 0.10125 0.53747
#
# Static dielectric constant tensor:
#      x y z
#    x 2.718430 0.000000 0.000000 
#    y 0.000000 3.816350 0.000000 
#    z 0.000000 0.000000 3.238300 
# 
# 
# High freq. dielectric constant tensor:
#      x y z
#    x 1.627800 0.000000 0.000000 
#    y 0.000000 1.707500 0.000000 
#    z 0.000000 0.000000 1.683030 
# 
# From -- ./inp_files/16793.got.cif
#   From: 2010.03.12/outbox.cif.g09.slc.cpg/sg65_9_cif.got.tgz:16793.got - 2010.04.10 20:52:16.
