data_PCOD8269947
_publ_section_title
;
Structure prediction by ZEFSAII (Michael W. Deem and Ramdas Pophale) SiO2 
 PCOD8269947
Probable space group: C M M M
;
_chemical_formula_sum "Si O2"
_cell_formula_units_Z 104
_cell_length_a 26.882552
_cell_length_b 9.238255
_cell_length_c 26.613660
_cell_angle_alpha 90.000000
_cell_angle_beta 90.000000
_cell_angle_gamma 90.000000
_cell_volume 6609.445785
_symmetry_space_group_name_H-M "C M M M"
_symmetry_group_IT_number 65
_symmetry_cell_setting 'orthorhombic'
loop_
_space_group_symop_operation_xyz
x,y,z
-x,-y,z
x,-y,-z
-x,y,-z
-x,-y,-z
x,y,-z
-x,y,z
x,-y,z
1/2+x,1/2+y,z
1/2-x,1/2-y,z
1/2+x,1/2-y,-z
1/2-x,1/2+y,-z
1/2-x,1/2-y,-z
1/2+x,1/2+y,-z
1/2-x,1/2+y,z
1/2+x,1/2-y,z
loop_
_atom_site_type_symbol
_atom_site_label
_atom_site_fract_x
_atom_site_fract_y
_atom_site_fract_z
Si Si1 0.557675 0.166141 0.942428
Si Si2 0.800258 0.165713 0.500000
Si Si3 0.802107 0.830962 0.391415
Si Si4 0.299025 0.334813 0.799906
Si Si5 0.600696 0.668745 0.853164
Si Si6 0.557393 0.832847 0.760781
Si Si7 0.861306 0.829467 0.295357
O O1 0.500000 0.200852 0.933082
O O2 0.590828 0.271629 0.908687
O O3 0.568925 0.000000 0.928363
O O4 0.572001 0.196614 0.000000
O O5 0.750000 0.250000 0.500000
O O6 0.827396 0.201169 0.553295
O O7 0.784796 0.000000 0.500000
O O8 0.750000 0.750000 0.384605
O O9 0.841623 0.779789 0.349837
O O10 0.790748 0.000000 0.383986
O O11 0.283014 0.500000 0.798108
O O12 0.250000 0.250000 0.815360
O O13 0.341259 0.306026 0.841472
O O14 0.319605 0.286364 0.745514
O O15 0.586838 0.500000 0.849771
O O16 0.566626 0.753845 0.813605
O O17 0.500000 0.817976 0.745975
O O18 0.588463 0.758095 0.716045
O O19 0.573255 0.000000 0.766173
O O20 0.873375 0.000000 0.292232
#
# Coordination Sequence:
#
# PCOD8269947 Si02
#       7
#    16   8  16  16  16  16  16
#     4   9  18  32  49  70  95 120 147 180 217 258
#     4   8  14  24  38  58  85 116 147 179 216 257
#     4   9  16  26  41  62  89 119 149 181 217 259
#     4   9  18  30  43  62  87 114 145 179 213 251
#     4  10  20  32  47  69  94 118 146 179 215 258
#     4  10  20  32  46  65  88 114 145 179 216 261
#     4   9  18  30  43  63  89 115 145 180 219 260
#
# _framework density 15.735056
#
# number of rings (size 3 to 8) (size 9 to 14) (size 15 to 20)
#    0.000    2.769    0.000    3.231    0.000    7.385 
#    0.000    0.769    0.000    0.462    0.000    0.538 
#    0.000    4.308    0.000    0.000    0.000    0.000 
#
# Total GULP energy -644573.592716 kJ/mol
# GULP energy per Si atom -12395.646014 kJ/mol
# Density = 1.569924 g / cm^3
# Si number density = 15.735056 Si / 1000 Ang^3
#
#
#
# Elastic Constant Matrix: (Units=GPa)
#
#
# Indices 1 2 3 4 5 6 
#
# 1 80.3062 49.2500 52.1628 0.0000 0.0000 0.0000
# 2 49.2500 75.4610 50.8279 0.0000 0.0000 0.0000
# 3 52.1628 50.8279 126.0264 0.0000 0.0000 0.0000
# 4 0.0000 0.0000 0.0000 21.8933 0.0000 0.0000
# 5 0.0000 0.0000 0.0000 0.0000 22.7659 0.0000
# 6 0.0000 0.0000 0.0000 0.0000 0.0000 27.9787
#
#
#
# Elastic Compliance Matrix: (Units=1/GPa)
#
#
# Indices 1 2 3 4 5 6 
#
# 1 0.022607 -0.011604 -0.004677 0.000000 0.000000 0.000000
# 2 -0.011604 0.024151 -0.004937 0.000000 0.000000 0.000000
# 3 -0.004677 -0.004937 0.011862 0.000000 0.000000 0.000000
# 4 0.000000 0.000000 0.000000 0.045676 0.000000 0.000000
# 5 0.000000 0.000000 0.000000 0.000000 0.043925 0.000000
# 6 0.000000 0.000000 0.000000 0.000000 0.000000 0.035742
#
#
# Mechanical properties :
#
#
# Convention : Reuss Voigt Hill
#
# Bulk Modulus (GPa) = 61.79408 65.14167 63.46788
# Shear Modulus (GPa) = 21.57084 23.16442 22.36763
#
# Velocity S-wave (km/s) = 3.70655 3.84103 3.77439
# Velocity P-wave (km/s) = 7.59440 7.82050 7.70828
#
# Compressibility (1/GPa) = 0.01618278
#
# Stress axis : x y z
#
# Youngs Moduli (GPa) = 44.23431 41.40594 84.30317
#
# Poissons Ratio (x) = 0.48049 0.39428
# Poissons Ratio (y) = 0.51331 0.41624
# Poissons Ratio (z) = 0.20688 0.20444
#
# Static dielectric constant tensor:
#      x y z
#    x 2.740840 0.000000 0.000000 
#    y 0.000000 3.006850 0.000000 
#    z 0.000000 0.000000 3.261310 
# 
# 
# High freq. dielectric constant tensor:
#      x y z
#    x 1.575740 0.000000 0.000000 
#    y 0.000000 1.611620 0.000000 
#    z 0.000000 0.000000 1.604190 
# 
# From -- ./inp_files/76028.got.cif
#   From: 2010.03.12/outbox.cif.g09.slc.cpg/sg65_39_cif.got.tgz:76028.got - 2010.04.10 20:52:16.
