data_PCOD8269809
_publ_section_title
;
Structure prediction by ZEFSAII (Michael W. Deem and Ramdas Pophale) SiO2 
 PCOD8269809
Probable space group: C M M M
;
_chemical_formula_sum "Si O2"
_cell_formula_units_Z 88
_cell_length_a 9.140258
_cell_length_b 26.924134
_cell_length_c 21.583895
_cell_angle_alpha 90.000000
_cell_angle_beta 90.000000
_cell_angle_gamma 90.000000
_cell_volume 5311.656937
_symmetry_space_group_name_H-M "C M M M"
_symmetry_group_IT_number 65
_symmetry_cell_setting 'orthorhombic'
loop_
_space_group_symop_operation_xyz
x,y,z
-x,-y,z
x,-y,-z
-x,y,-z
-x,-y,-z
x,y,-z
-x,y,z
x,-y,z
1/2+x,1/2+y,z
1/2-x,1/2-y,z
1/2+x,1/2-y,-z
1/2-x,1/2+y,-z
1/2-x,1/2-y,-z
1/2+x,1/2+y,-z
1/2-x,1/2+y,z
1/2+x,1/2-y,z
loop_
_atom_site_type_symbol
_atom_site_label
_atom_site_fract_x
_atom_site_fract_y
_atom_site_fract_z
Si Si1 0.833004 0.444816 0.141659
Si Si2 0.170381 0.651808 0.929479
Si Si3 0.170610 0.898678 0.251319
Si Si4 0.329184 0.942745 0.500000
Si Si5 0.173371 0.442057 0.365961
Si Si6 0.828811 0.200926 0.819273
O O1 0.805146 0.500000 0.114834
O O2 0.796073 0.405517 0.087860
O O3 0.731860 0.437265 0.201281
O O4 0.000000 0.438445 0.164102
O O5 0.264664 0.688163 0.886836
O O6 0.000000 0.664230 0.919985
O O7 0.219472 0.660190 0.000000
O O8 0.246883 0.907286 0.316830
O O9 0.205085 0.842754 0.229308
O O10 0.000000 0.908459 0.258464
O O11 0.500000 0.934125 0.500000
O O12 0.270270 0.922005 0.566070
O O13 0.290541 0.000000 0.500000
O O14 0.214914 0.500000 0.356369
O O15 0.000000 0.435441 0.359325
O O16 0.750000 0.250000 0.793314
O O17 0.000000 0.210682 0.826581
#
# Coordination Sequence:
#
# PCOD8269809 Si02
#       6
#    16  16  16   8  16  16
#     4   9  17  29  45  65  90 121 155 186 215 253
#     4   9  18  32  49  69  92 117 146 181 222 268
#     4  10  20  31  44  66  93 118 147 185 228 270
#     4   7  12  24  41  63  92 125 160 191 212 239
#     4   9  16  27  45  68  95 128 161 187 212 248
#     4  10  21  36  52  68  87 112 144 185 231 276
#
# _framework density 16.567333999999999
#
# number of rings (size 3 to 8) (size 9 to 14) (size 15 to 20)
#    0.000    2.818    0.000    2.727    0.000    6.182 
#    0.000    2.273    0.000    1.636    0.000    5.727 
#    0.000    0.000    0.000    0.000    0.000    0.000 
#
# Total GULP energy -545373.611771 kJ/mol
# GULP energy per Si atom -12394.854813 kJ/mol
# Density = 1.652963 g / cm^3
# Si number density = 16.567334 Si / 1000 Ang^3
#
#
#
# Elastic Constant Matrix: (Units=GPa)
#
#
# Indices 1 2 3 4 5 6 
#
# 1 67.2609 37.5626 49.4553 0.0000 0.0000 0.0000
# 2 37.5626 77.0800 34.2803 0.0000 0.0000 0.0000
# 3 49.4553 34.2803 125.6814 0.0000 0.0000 0.0000
# 4 0.0000 0.0000 0.0000 15.4077 0.0000 0.0000
# 5 0.0000 0.0000 0.0000 0.0000 15.1470 0.0000
# 6 0.0000 0.0000 0.0000 0.0000 0.0000 24.0597
#
#
#
# Elastic Compliance Matrix: (Units=1/GPa)
#
#
# Indices 1 2 3 4 5 6 
#
# 1 0.025482 -0.009057 -0.007557 0.000000 0.000000 0.000000
# 2 -0.009057 0.017984 -0.001341 0.000000 0.000000 0.000000
# 3 -0.007557 -0.001341 0.011296 0.000000 0.000000 0.000000
# 4 0.000000 0.000000 0.000000 0.064903 0.000000 0.000000
# 5 0.000000 0.000000 0.000000 0.000000 0.066020 0.000000
# 6 0.000000 0.000000 0.000000 0.000000 0.000000 0.041563
#
#
# Mechanical properties :
#
#
# Convention : Reuss Voigt Hill
#
# Bulk Modulus (GPa) = 53.04592 56.95761 55.00176
# Shear Modulus (GPa) = 18.55697 20.83782 19.69739
#
# Velocity S-wave (km/s) = 3.35041 3.55035 3.45183
# Velocity P-wave (km/s) = 6.85966 7.15966 7.01126
#
# Compressibility (1/GPa) = 0.01885159
#
# Stress axis : x y z
#
# Youngs Moduli (GPa) = 39.24395 55.60598 88.52717
#
# Poissons Ratio (x) = 0.50362 0.66897
# Poissons Ratio (y) = 0.35543 0.11874
# Poissons Ratio (z) = 0.29655 0.07458
#
# Static dielectric constant tensor:
#      x y z
#    x 3.042510 0.000000 0.000000 
#    y 0.000000 3.012560 0.000000 
#    z 0.000000 0.000000 3.253380 
# 
# 
# High freq. dielectric constant tensor:
#      x y z
#    x 1.631530 0.000000 0.000000 
#    y 0.000000 1.618310 0.000000 
#    z 0.000000 0.000000 1.634430 
# 
# From -- ./inp_files/60267.got.cif
#   From: 2010.03.12/outbox.cif.g09.slc.cpg/sg65_31_cif.got.tgz:60267.got - 2010.04.10 20:52:16.
