data_PCOD8269755
_publ_section_title
;
Structure prediction by ZEFSAII (Michael W. Deem and Ramdas Pophale) SiO2 
 PCOD8269755
Probable space group: C M M M
;
_chemical_formula_sum "Si O2"
_cell_formula_units_Z 80
_cell_length_a 24.715434
_cell_length_b 23.465470
_cell_length_c 9.434699
_cell_angle_alpha 90.000000
_cell_angle_beta 90.000000
_cell_angle_gamma 90.000000
_cell_volume 5471.741192
_symmetry_space_group_name_H-M "C M M M"
_symmetry_group_IT_number 65
_symmetry_cell_setting 'orthorhombic'
loop_
_space_group_symop_operation_xyz
x,y,z
-x,-y,z
x,-y,-z
-x,y,-z
-x,-y,-z
x,y,-z
-x,y,z
x,-y,z
1/2+x,1/2+y,z
1/2-x,1/2-y,z
1/2+x,1/2-y,-z
1/2-x,1/2+y,-z
1/2-x,1/2-y,-z
1/2+x,1/2+y,-z
1/2-x,1/2+y,z
1/2+x,1/2-y,z
loop_
_atom_site_type_symbol
_atom_site_label
_atom_site_fract_x
_atom_site_fract_y
_atom_site_fract_z
Si Si1 0.059017 0.258128 0.833797
Si Si2 0.940014 0.627670 0.338038
Si Si3 0.667212 0.934953 0.665289
Si Si4 0.772301 0.340724 0.167980
Si Si5 0.171830 0.774288 0.833525
O O1 0.068101 0.317877 0.759326
O O2 0.108649 0.216019 0.789549
O O3 0.000000 0.231619 0.793102
O O4 0.062082 0.270548 0.000000
O O5 0.933256 0.647854 0.500000
O O6 0.894838 0.581266 0.297871
O O7 0.000000 0.601016 0.313888
O O8 0.679061 0.925893 0.500000
O O9 0.709699 0.897610 0.752860
O O10 0.675859 0.000000 0.711094
O O11 0.809630 0.288124 0.220148
O O12 0.710816 0.325181 0.219960
O O13 0.776108 0.351421 0.000000
O O14 0.179797 0.772942 0.000000
#
# Coordination Sequence:
#
# PCOD8269755 Si02
#       5
#    16  16  16  16  16
#     4   9  15  24  41  62  82 104 130 161 197 234
#     4   9  17  28  40  54  75 105 139 170 199 231
#     4  10  20  31  41  56  80 106 136 175 208 232
#     4   9  16  28  44  59  78 105 135 163 197 241
#     4   8  14  25  42  62  82 103 128 162 200 239
#
# _framework density 14.620574
#
# number of rings (size 3 to 8) (size 9 to 14) (size 15 to 20)
#    0.000    3.000    2.000    1.200    0.000    0.800 
#    0.000    5.000    0.000    0.000    0.000    4.200 
#    0.000    0.800    0.000   10.000    0.000    1.600 
#
# Total GULP energy -495534.814378 kJ/mol
# GULP energy per Si atom -12388.370359 kJ/mol
# Density = 1.458730 g / cm^3
# Si number density = 14.620574 Si / 1000 Ang^3
#
#
#
# Elastic Constant Matrix: (Units=GPa)
#
#
# Indices 1 2 3 4 5 6 
#
# 1 150.5812 68.4528 35.6024 0.0000 0.0000 0.0000
# 2 68.4528 71.9453 25.9217 0.0000 0.0000 0.0000
# 3 35.6024 25.9217 26.6401 0.0000 0.0000 0.0000
# 4 0.0000 0.0000 0.0000 -0.6420 0.0000 0.0000
# 5 0.0000 0.0000 0.0000 0.0000 17.6085 0.0000
# 6 0.0000 0.0000 0.0000 0.0000 0.0000 22.0582
#
#
#
# Elastic Compliance Matrix: (Units=1/GPa)
#
#
# Indices 1 2 3 4 5 6 
#
# 1 0.012733 -0.009214 -0.008051 0.000000 0.000000 0.000000
# 2 -0.009214 0.028071 -0.015000 0.000000 0.000000 0.000000
# 3 -0.008051 -0.015000 0.062892 0.000000 0.000000 0.000000
# 4 0.000000 0.000000 0.000000 -1.557725 0.000000 0.000000
# 5 0.000000 0.000000 0.000000 0.000000 0.056791 0.000000
# 6 0.000000 0.000000 0.000000 0.000000 0.000000 0.045335
#
#
# Mechanical properties :
#
#
# Convention : Reuss Voigt Hill
#
# Bulk Modulus (GPa) = 25.53226 56.56894 41.05060
# Shear Modulus (GPa) = -3.92367 15.75092 5.91363
#
# Velocity S-wave (km/s) = -1.63997 3.28580 2.01333
# Velocity P-wave (km/s) = 3.73030 7.29182 5.79162
#
# Compressibility (1/GPa) = 0.03916614
#
# Stress axis : x y z
#
# Youngs Moduli (GPa) = 78.53469 35.62424 15.90022
#
# Poissons Ratio (x) = 0.32825 0.12801
# Poissons Ratio (y) = 0.72364 0.23850
# Poissons Ratio (z) = 0.63229 0.53435
#
# Static dielectric constant tensor:
#      x y z
#    x 3.338980 0.000000 0.000000 
#    y 0.000000 2.549460 0.000000 
#    z 0.000000 0.000000 2.693320 
# 
# 
# High freq. dielectric constant tensor:
#      x y z
#    x 1.573370 0.000000 0.000000 
#    y 0.000000 1.510170 0.000000 
#    z 0.000000 0.000000 1.544530 
# 
# From -- ./inp_files/9654.got.cif
#   From: 2010.03.12/outbox.cif.g09.slc.cpg/sg65_5_cif.got.tgz:9654.got - 2010.04.10 20:52:16.
