data_PCOD8269606
_publ_section_title
;
Structure prediction by ZEFSAII (Michael W. Deem and Ramdas Pophale) SiO2 
 PCOD8269606
Probable space group: C M M M
;
_chemical_formula_sum "Si O2"
_cell_formula_units_Z 88
_cell_length_a 17.913395
_cell_length_b 13.742687
_cell_length_c 18.615991
_cell_angle_alpha 90.000000
_cell_angle_beta 90.000000
_cell_angle_gamma 90.000000
_cell_volume 4582.850794
_symmetry_space_group_name_H-M "C M M M"
_symmetry_group_IT_number 65
_symmetry_cell_setting 'orthorhombic'
loop_
_space_group_symop_operation_xyz
x,y,z
-x,-y,z
x,-y,-z
-x,y,-z
-x,-y,-z
x,y,-z
-x,y,z
x,-y,z
1/2+x,1/2+y,z
1/2-x,1/2-y,z
1/2+x,1/2-y,-z
1/2-x,1/2+y,-z
1/2-x,1/2-y,-z
1/2+x,1/2+y,-z
1/2-x,1/2+y,z
1/2+x,1/2-y,z
loop_
_atom_site_type_symbol
_atom_site_label
_atom_site_fract_x
_atom_site_fract_y
_atom_site_fract_z
Si Si1 0.727227 0.390575 0.350567
Si Si2 0.500000 0.612342 0.915125
Si Si3 0.123424 0.610923 0.580595
Si Si4 0.778337 0.387439 0.804491
Si Si5 0.581538 0.284909 0.331454
Si Si6 0.370427 0.292100 0.169515
O O1 0.702102 0.500000 0.335786
O O2 0.786348 0.378136 0.414421
O O3 0.769988 0.353069 0.278757
O O4 0.651225 0.335375 0.371532
O O5 0.500000 0.500000 0.885669
O O6 0.428446 0.673953 0.890173
O O7 0.500000 0.610304 0.000000
O O8 0.099765 0.641274 0.500000
O O9 0.100556 0.500000 0.596691
O O10 0.080589 0.674144 0.640039
O O11 0.801945 0.500000 0.813566
O O12 0.697606 0.368094 0.839182
O O13 0.840785 0.318898 0.841862
O O14 0.500000 0.330319 0.350916
O O15 0.590326 0.296368 0.246633
#
# Coordination Sequence:
#
# PCOD8269606 Si02
#       6
#    16   8  16  16  16  16
#     4   9  18  33  53  78 108 143 189 239 286 339
#     4  11  24  42  63  89 124 159 187 221 277 350
#     4  10  21  37  56  77 106 149 199 245 289 342
#     4   9  17  32  57  86 115 149 193 247 290 325
#     4  11  21  33  51  80 115 144 185 236 288 339
#     4  10  19  35  58  86 117 150 196 241 279 340
#
# _framework density 19.202021999999999
#
# number of rings (size 3 to 8) (size 9 to 14) (size 15 to 20)
#    0.000    2.091    2.727    1.091    0.000    3.273 
#    0.000    3.182    0.000    2.182    0.000    3.818 
#    0.000    0.000    0.000    0.000    0.000    0.000 
#
# Total GULP energy -545301.118209 kJ/mol
# GULP energy per Si atom -12393.207232 kJ/mol
# Density = 1.915832 g / cm^3
# Si number density = 19.202022 Si / 1000 Ang^3
#
#
#
# Elastic Constant Matrix: (Units=GPa)
#
#
# Indices 1 2 3 4 5 6 
#
# 1 97.1059 39.9276 20.2076 0.0000 0.0000 0.0000
# 2 39.9276 109.7189 26.4451 0.0000 0.0000 0.0000
# 3 20.2076 26.4451 48.9357 0.0000 0.0000 0.0000
# 4 0.0000 0.0000 0.0000 23.7933 0.0000 0.0000
# 5 0.0000 0.0000 0.0000 0.0000 15.3424 0.0000
# 6 0.0000 0.0000 0.0000 0.0000 0.0000 18.8069
#
#
#
# Elastic Compliance Matrix: (Units=1/GPa)
#
#
# Indices 1 2 3 4 5 6 
#
# 1 0.012509 -0.003802 -0.003111 0.000000 0.000000 0.000000
# 2 -0.003802 0.011635 -0.004717 0.000000 0.000000 0.000000
# 3 -0.003111 -0.004717 0.024269 0.000000 0.000000 0.000000
# 4 0.000000 0.000000 0.000000 0.042029 0.000000 0.000000
# 5 0.000000 0.000000 0.000000 0.000000 0.065179 0.000000
# 6 0.000000 0.000000 0.000000 0.000000 0.000000 0.053172
#
#
# Mechanical properties :
#
#
# Convention : Reuss Voigt Hill
#
# Bulk Modulus (GPa) = 39.75861 47.65789 43.70825
# Shear Modulus (GPa) = 20.79549 22.86719 21.83134
#
# Velocity S-wave (km/s) = 3.29444 3.45465 3.37550
# Velocity P-wave (km/s) = 5.93477 6.38638 6.16471
#
# Compressibility (1/GPa) = 0.02515178
#
# Stress axis : x y z
#
# Youngs Moduli (GPa) = 79.94398 85.94815 41.20521
#
# Poissons Ratio (x) = 0.32680 0.12817
# Poissons Ratio (y) = 0.30397 0.19438
# Poissons Ratio (z) = 0.24867 0.40546
#
# Static dielectric constant tensor:
#      x y z
#    x 3.556540 0.000000 0.000000 
#    y 0.000000 3.591270 0.000000 
#    z 0.000000 0.000000 3.105660 
# 
# 
# High freq. dielectric constant tensor:
#      x y z
#    x 1.750620 0.000000 0.000000 
#    y 0.000000 1.752210 0.000000 
#    z 0.000000 0.000000 1.700330 
# 
# From -- ./inp_files/54339.got.cif
#   From: 2010.03.12/outbox.cif.g09.slc.cpg/sg65_28_cif.got.tgz:54339.got - 2010.04.10 20:52:16.
