data_PCOD8269506
_publ_section_title
;
Structure prediction by ZEFSAII (Michael W. Deem and Ramdas Pophale) SiO2 
 PCOD8269506
Probable space group: C M M M
;
_chemical_formula_sum "Si O2"
_cell_formula_units_Z 104
_cell_length_a 22.308359
_cell_length_b 27.331891
_cell_length_c 8.720305
_cell_angle_alpha 90.000000
_cell_angle_beta 90.000000
_cell_angle_gamma 90.000000
_cell_volume 5317.028398
_symmetry_space_group_name_H-M "C M M M"
_symmetry_group_IT_number 65
_symmetry_cell_setting 'orthorhombic'
loop_
_space_group_symop_operation_xyz
x,y,z
-x,-y,z
x,-y,-z
-x,y,-z
-x,-y,-z
x,y,-z
-x,y,z
x,-y,z
1/2+x,1/2+y,z
1/2-x,1/2-y,z
1/2+x,1/2-y,-z
1/2-x,1/2+y,-z
1/2-x,1/2-y,-z
1/2+x,1/2+y,-z
1/2-x,1/2+y,z
1/2+x,1/2-y,z
loop_
_atom_site_type_symbol
_atom_site_label
_atom_site_fract_x
_atom_site_fract_y
_atom_site_fract_z
Si Si1 0.291062 0.445899 0.181446
Si Si2 0.658149 0.920978 0.182103
Si Si3 0.929735 0.500000 0.681939
Si Si4 0.126849 0.859951 0.180353
Si Si5 0.311575 0.270362 0.327659
Si Si6 0.500000 0.213615 0.819993
Si Si7 0.500000 0.324675 0.183416
Si Si8 0.386184 0.173667 0.672861
O O1 0.313105 0.500000 0.229132
O O2 0.223204 0.438804 0.242108
O O3 0.338927 0.407157 0.251971
O O4 0.289656 0.439268 0.000000
O O5 0.603992 0.952166 0.254048
O O6 0.654194 0.865149 0.236928
O O7 0.653358 0.925256 0.000000
O O8 0.925274 0.500000 0.500000
O O9 0.000000 0.500000 0.733452
O O10 0.165605 0.812394 0.216553
O O11 0.059131 0.853174 0.246092
O O12 0.122341 0.865931 0.000000
O O13 0.301905 0.291359 0.500000
O O14 0.250000 0.250000 0.258361
O O15 0.357381 0.226506 0.330016
O O16 0.500000 0.268956 0.750908
O O17 0.446269 0.180046 0.766068
O O18 0.500000 0.218582 0.000000
O O19 0.500000 0.323181 0.000000
O O20 0.398215 0.154983 0.500000
#
# Coordination Sequence:
#
# PCOD8269506 Si02
#       8
#    16  16   8  16  16   8   8  16
#     4   9  18  35  59  87 115 147 191 245 296 345
#     4  11  22  39  62  86 114 151 195 242 290 342
#     4  11  25  43  61  83 113 150 193 242 293 348
#     4  10  19  34  58  83 113 152 194 240 290 346
#     4  10  21  36  53  78 114 148 182 230 285 341
#     4  11  21  37  57  79 112 151 194 238 279 337
#     4   9  18  33  54  85 117 148 193 243 286 341
#     4  11  23  37  55  82 115 148 185 230 282 340
#
# _framework density 19.559798000000001
#
# number of rings (size 3 to 8) (size 9 to 14) (size 15 to 20)
#    0.000    1.769    2.308    2.308    1.077    1.538 
#    0.000    1.538    0.000    2.308    0.000    0.000 
#    0.000    1.231    0.000    0.000    0.000    0.000 
#
# Total GULP energy -644664.100768 kJ/mol
# GULP energy per Si atom -12397.386553 kJ/mol
# Density = 1.951528 g / cm^3
# Si number density = 19.559798 Si / 1000 Ang^3
#
#
#
# Elastic Constant Matrix: (Units=GPa)
#
#
# Indices 1 2 3 4 5 6 
#
# 1 131.8385 54.0168 18.8142 0.0000 0.0000 0.0000
# 2 54.0168 119.6148 14.5737 0.0000 0.0000 0.0000
# 3 18.8142 14.5737 38.0162 0.0000 0.0000 0.0000
# 4 0.0000 0.0000 0.0000 17.8525 0.0000 0.0000
# 5 0.0000 0.0000 0.0000 0.0000 16.6868 0.0000
# 6 0.0000 0.0000 0.0000 0.0000 0.0000 39.0685
#
#
#
# Elastic Compliance Matrix: (Units=1/GPa)
#
#
# Indices 1 2 3 4 5 6 
#
# 1 0.009679 -0.003973 -0.003267 0.000000 0.000000 0.000000
# 2 -0.003973 0.010401 -0.002021 0.000000 0.000000 0.000000
# 3 -0.003267 -0.002021 0.028696 0.000000 0.000000 0.000000
# 4 0.000000 0.000000 0.000000 0.056015 0.000000 0.000000
# 5 0.000000 0.000000 0.000000 0.000000 0.059928 0.000000
# 6 0.000000 0.000000 0.000000 0.000000 0.000000 0.025596
#
#
# Mechanical properties :
#
#
# Convention : Reuss Voigt Hill
#
# Bulk Modulus (GPa) = 33.05361 51.58658 42.32009
# Shear Modulus (GPa) = 22.83933 28.19253 25.51593
#
# Velocity S-wave (km/s) = 3.42082 3.80063 3.61572
# Velocity P-wave (km/s) = 5.70422 6.75949 6.25415
#
# Compressibility (1/GPa) = 0.03025388
#
# Stress axis : x y z
#
# Youngs Moduli (GPa) = 103.31592 96.14909 34.84783
#
# Poissons Ratio (x) = 0.38199 0.11385
# Poissons Ratio (y) = 0.41046 0.07042
# Poissons Ratio (z) = 0.33755 0.19431
#
# Static dielectric constant tensor:
#      x y z
#    x 3.842600 0.000000 0.000000 
#    y 0.000000 3.681640 0.000000 
#    z 0.000000 0.000000 3.390140 
# 
# 
# High freq. dielectric constant tensor:
#      x y z
#    x 1.771930 0.000000 0.000000 
#    y 0.000000 1.764230 0.000000 
#    z 0.000000 0.000000 1.736090 
# 
# From -- ./inp_files/12494.got.cif
#   From: 2010.03.12/outbox.cif.g09.slc.cpg/sg65_7_cif.got.tgz:12494.got - 2010.04.10 20:52:16.
