data_PCOD8269392
_publ_section_title
;
Structure prediction by ZEFSAII (Michael W. Deem and Ramdas Pophale) SiO2 
 PCOD8269392
Probable space group: C M M M
;
_chemical_formula_sum "Si O2"
_cell_formula_units_Z 88
_cell_length_a 21.642195
_cell_length_b 19.001909
_cell_length_c 12.028365
_cell_angle_alpha 90.000000
_cell_angle_beta 90.000000
_cell_angle_gamma 90.000000
_cell_volume 4946.581148
_symmetry_space_group_name_H-M "C M M M"
_symmetry_group_IT_number 65
_symmetry_cell_setting 'orthorhombic'
loop_
_space_group_symop_operation_xyz
x,y,z
-x,-y,z
x,-y,-z
-x,y,-z
-x,-y,-z
x,y,-z
-x,y,z
x,-y,z
1/2+x,1/2+y,z
1/2-x,1/2-y,z
1/2+x,1/2-y,-z
1/2-x,1/2+y,-z
1/2-x,1/2-y,-z
1/2+x,1/2+y,-z
1/2-x,1/2+y,z
1/2+x,1/2-y,z
loop_
_atom_site_type_symbol
_atom_site_label
_atom_site_fract_x
_atom_site_fract_y
_atom_site_fract_z
Si Si1 0.717608 0.082246 0.127714
Si Si2 0.567108 0.683605 0.500000
Si Si3 0.141718 0.077682 0.130299
Si Si4 0.889003 0.650428 0.257868
Si Si5 0.500000 0.083177 0.873834
Si Si6 0.573968 0.308351 0.736425
Si Si7 0.068576 0.349532 0.500000
O O1 0.788298 0.099274 0.159180
O O2 0.677703 0.127887 0.213127
O O3 0.703186 0.000000 0.143424
O O4 0.703601 0.103961 0.000000
O O5 0.500000 0.647020 0.500000
O O6 0.600124 0.663525 0.383836
O O7 0.558988 0.767002 0.500000
O O8 0.093406 0.134450 0.174303
O O9 0.127094 0.000000 0.179829
O O10 0.132841 0.074719 0.000000
O O11 0.896029 0.733443 0.236340
O O12 0.894653 0.628654 0.388075
O O13 0.939573 0.609716 0.187460
O O14 0.500000 0.000000 0.872682
O O15 0.500000 0.111875 0.000000
O O16 0.500000 0.299289 0.733388
O O17 0.000000 0.384782 0.500000
#
# Coordination Sequence:
#
# PCOD8269392 Si02
#       7
#    16   8  16  16   8  16   8
#     4   9  19  37  56  72 100 143 182 216 258 312
#     4   7  14  30  52  72 100 137 172 200 255 311
#     4   9  20  38  56  75 103 140 176 212 265 323
#     4  11  19  34  54  78 104 139 178 217 258 306
#     4  11  22  33  47  73 108 141 173 210 255 304
#     4  10  19  34  55  81 106 136 171 219 262 312
#     4   9  16  32  51  71 107 146 175 210 260 312
#
# _framework density 17.790065999999999
#
# number of rings (size 3 to 8) (size 9 to 14) (size 15 to 20)
#    0.000    2.455    1.818    3.273    0.000    4.364 
#    0.000    6.364    0.000    7.091    0.000    0.000 
#    0.000    0.000    0.000    0.000    0.000    0.000 
#
# Total GULP energy -545314.521469 kJ/mol
# GULP energy per Si atom -12393.511852 kJ/mol
# Density = 1.774958 g / cm^3
# Si number density = 17.790066 Si / 1000 Ang^3
#
#
#
# Elastic Constant Matrix: (Units=GPa)
#
#
# Indices 1 2 3 4 5 6 
#
# 1 47.4866 32.8088 33.8961 0.0000 0.0000 0.0000
# 2 32.8088 73.4549 40.7977 0.0000 0.0000 0.0000
# 3 33.8961 40.7977 93.9799 0.0000 0.0000 0.0000
# 4 0.0000 0.0000 0.0000 -12.7607 0.0000 0.0000
# 5 0.0000 0.0000 0.0000 0.0000 30.6293 0.0000
# 6 0.0000 0.0000 0.0000 0.0000 0.0000 184.9419
#
#
#
# Elastic Compliance Matrix: (Units=1/GPa)
#
#
# Indices 1 2 3 4 5 6 
#
# 1 0.034028 -0.011045 -0.007478 0.000000 0.000000 0.000000
# 2 -0.011045 0.021524 -0.005360 0.000000 0.000000 0.000000
# 3 -0.007478 -0.005360 0.015665 0.000000 0.000000 0.000000
# 4 0.000000 0.000000 0.000000 -0.078366 0.000000 0.000000
# 5 0.000000 0.000000 0.000000 0.000000 0.032648 0.000000
# 6 0.000000 0.000000 0.000000 0.000000 0.000000 0.005407
#
#
# Mechanical properties :
#
#
# Convention : Reuss Voigt Hill
#
# Bulk Modulus (GPa) = 42.64448 47.76963 45.20706
# Shear Modulus (GPa) = 57.81044 47.72337 52.76691
#
# Velocity S-wave (km/s) = 5.70670 5.18499 5.45209
# Velocity P-wave (km/s) = 8.21249 7.92184 8.06847
#
# Compressibility (1/GPa) = 0.02344969
#
# Stress axis : x y z
#
# Youngs Moduli (GPa) = 29.38793 46.45925 63.83792
#
# Poissons Ratio (x) = 0.51315 0.47738
# Poissons Ratio (y) = 0.32459 0.34219
# Poissons Ratio (z) = 0.21977 0.24903
#
# Static dielectric constant tensor:
#      x y z
#    x 3.172210 0.000000 0.000000 
#    y 0.000000 3.145970 0.000000 
#    z 0.000000 0.000000 3.652420 
# 
# 
# High freq. dielectric constant tensor:
#      x y z
#    x 1.673190 0.000000 0.000000 
#    y 0.000000 1.673500 0.000000 
#    z 0.000000 0.000000 1.696530 
# 
# From -- ./inp_files/28740.got.cif
#   From: 2010.03.12/outbox.cif.g09.slc.cpg/sg65_15_cif.got.tgz:28740.got - 2010.04.10 20:52:16.
