data_PCOD8269293
_publ_section_title
;
Structure prediction by ZEFSAII (Michael W. Deem and Ramdas Pophale) SiO2 
 PCOD8269293
Probable space group: C M M M
;
_chemical_formula_sum "Si O2"
_cell_formula_units_Z 96
_cell_length_a 9.123809
_cell_length_b 23.500476
_cell_length_c 25.243527
_cell_angle_alpha 90.000000
_cell_angle_beta 90.000000
_cell_angle_gamma 90.000000
_cell_volume 5412.561924
_symmetry_space_group_name_H-M "C M M M"
_symmetry_group_IT_number 65
_symmetry_cell_setting 'orthorhombic'
loop_
_space_group_symop_operation_xyz
x,y,z
-x,-y,z
x,-y,-z
-x,y,-z
-x,-y,-z
x,y,-z
-x,y,z
x,-y,z
1/2+x,1/2+y,z
1/2-x,1/2-y,z
1/2+x,1/2-y,-z
1/2-x,1/2+y,-z
1/2-x,1/2-y,-z
1/2+x,1/2+y,-z
1/2-x,1/2+y,z
1/2+x,1/2-y,z
loop_
_atom_site_type_symbol
_atom_site_label
_atom_site_fract_x
_atom_site_fract_y
_atom_site_fract_z
Si Si1 0.829143 0.192815 0.059918
Si Si2 0.826734 0.500000 0.305055
Si Si3 0.830019 0.110684 0.847576
Si Si4 0.827967 0.378477 0.341729
Si Si5 0.670161 0.806747 0.440657
Si Si6 0.328005 0.309304 0.251467
Si Si7 0.826187 0.500000 0.814805
O O1 0.750000 0.250000 0.078501
O O2 0.782560 0.141833 0.098385
O O3 0.000000 0.205335 0.065113
O O4 0.784610 0.175951 0.000000
O O5 0.771699 0.443469 0.335463
O O6 0.764467 0.500000 0.245318
O O7 0.000000 0.500000 0.303143
O O8 0.794459 0.150755 0.798161
O O9 0.731816 0.054912 0.845145
O O10 0.000000 0.093161 0.848343
O O11 0.794522 0.359349 0.401873
O O12 0.738064 0.337598 0.303593
O O13 0.000000 0.373284 0.327821
O O14 0.722252 0.823598 0.500000
O O15 0.500000 0.792090 0.439807
O O16 0.750000 0.750000 0.420381
O O17 0.500000 0.299101 0.259867
O O18 0.250000 0.250000 0.240177
O O19 0.000000 0.500000 0.815865
#
# Coordination Sequence:
#
# PCOD8269293 Si02
#       7
#    16   8  16  16  16  16   8
#     4   9  18  34  56  80 106 138 174 213 260 311
#     4   9  18  33  52  74  99 133 170 209 254 299
#     4  10  21  36  53  76 106 137 172 213 257 307
#     4  10  19  34  53  73 102 134 170 211 254 305
#     4   9  18  32  51  74 100 132 168 208 255 304
#     4  11  22  33  49  75 105 133 165 207 257 307
#     4  11  21  35  56  77 101 138 179 214 257 305
#
# _framework density 17.736516999999999
#
# number of rings (size 3 to 8) (size 9 to 14) (size 15 to 20)
#    0.000    2.167    1.667    1.750    0.000    3.333 
#    0.000    1.250    0.000    5.000    0.000    0.000 
#    0.000    4.000    0.000    0.000    0.000    0.000 
#
# Total GULP energy -595281.817400 kJ/mol
# GULP energy per Si atom -12401.704529 kJ/mol
# Density = 1.769615 g / cm^3
# Si number density = 17.736517 Si / 1000 Ang^3
#
#
#
# Elastic Constant Matrix: (Units=GPa)
#
#
# Indices 1 2 3 4 5 6 
#
# 1 57.8532 56.3069 40.9827 0.0000 0.0000 0.0000
# 2 56.3069 151.1288 73.8274 0.0000 0.0000 0.0000
# 3 40.9827 73.8274 112.0668 0.0000 0.0000 0.0000
# 4 0.0000 0.0000 0.0000 28.6945 0.0000 0.0000
# 5 0.0000 0.0000 0.0000 0.0000 22.5114 0.0000
# 6 0.0000 0.0000 0.0000 0.0000 0.0000 21.0959
#
#
#
# Elastic Compliance Matrix: (Units=1/GPa)
#
#
# Indices 1 2 3 4 5 6 
#
# 1 0.028998 -0.008292 -0.005142 0.000000 0.000000 0.000000
# 2 -0.008292 0.012128 -0.004957 0.000000 0.000000 0.000000
# 3 -0.005142 -0.004957 0.014069 0.000000 0.000000 0.000000
# 4 0.000000 0.000000 0.000000 0.034850 0.000000 0.000000
# 5 0.000000 0.000000 0.000000 0.000000 0.044422 0.000000
# 6 0.000000 0.000000 0.000000 0.000000 0.000000 0.047403
#
#
# Mechanical properties :
#
#
# Convention : Reuss Voigt Hill
#
# Bulk Modulus (GPa) = 54.30969 73.69810 64.00389
# Shear Modulus (GPa) = 22.24300 24.45583 23.34941
#
# Velocity S-wave (km/s) = 3.54514 3.71730 3.63224
# Velocity P-wave (km/s) = 6.88797 7.75024 7.33179
#
# Compressibility (1/GPa) = 0.01841292
#
# Stress axis : x y z
#
# Youngs Moduli (GPa) = 34.48502 82.45401 71.07655
#
# Poissons Ratio (x) = 0.68372 0.36546
# Poissons Ratio (y) = 0.28596 0.35234
# Poissons Ratio (z) = 0.17732 0.40874
#
# Static dielectric constant tensor:
#      x y z
#    x 3.214300 0.000000 0.000000 
#    y 0.000000 3.443710 0.000000 
#    z 0.000000 0.000000 3.491410 
# 
# 
# High freq. dielectric constant tensor:
#      x y z
#    x 1.678170 0.000000 0.000000 
#    y 0.000000 1.685900 0.000000 
#    z 0.000000 0.000000 1.689080 
# 
# From -- ./inp_files/67880.got.cif
#   From: 2010.03.12/outbox.cif.g09.slc.cpg/sg65_34_cif.got.tgz:67880.got - 2010.04.10 20:52:16.
