data_PCOD8269717
_publ_section_title
;
Structure prediction by ZEFSAII (Michael W. Deem and Ramdas Pophale) SiO2 
 PCOD8269717
Probable space group: C M M M
;
_chemical_formula_sum "Si O2"
_cell_formula_units_Z 96
_cell_length_a 27.512302
_cell_length_b 14.746710
_cell_length_c 14.350213
_cell_angle_alpha 90.000000
_cell_angle_beta 90.000000
_cell_angle_gamma 90.000000
_cell_volume 5822.110143
_symmetry_space_group_name_H-M "C M M M"
_symmetry_group_IT_number 65
_symmetry_cell_setting 'orthorhombic'
loop_
_space_group_symop_operation_xyz
x,y,z
-x,-y,z
x,-y,-z
-x,y,-z
-x,-y,-z
x,y,-z
-x,y,z
x,-y,z
1/2+x,1/2+y,z
1/2-x,1/2-y,z
1/2+x,1/2-y,-z
1/2-x,1/2+y,-z
1/2-x,1/2-y,-z
1/2+x,1/2+y,-z
1/2-x,1/2+y,z
1/2+x,1/2-y,z
loop_
_atom_site_type_symbol
_atom_site_label
_atom_site_fract_x
_atom_site_fract_y
_atom_site_fract_z
Si Si1 0.723831 0.604488 0.608251
Si Si2 0.323785 0.098280 0.291123
Si Si3 0.282464 0.875729 0.898672
Si Si4 0.556205 0.396726 0.392081
Si Si5 0.320884 0.324800 0.101866
Si Si6 0.362225 0.707931 0.292234
O O1 0.728704 0.627667 0.500000
O O2 0.709142 0.500000 0.624138
O O3 0.775016 0.627918 0.655541
O O4 0.682657 0.667792 0.650987
O O5 0.312106 0.076932 0.183261
O O6 0.361571 0.181783 0.300458
O O7 0.343658 0.000000 0.330071
O O8 0.295414 0.771371 0.897924
O O9 0.224562 0.892536 0.881196
O O10 0.296274 0.917404 0.000000
O O11 0.568739 0.381744 0.500000
O O12 0.500000 0.376551 0.372327
O O13 0.569121 0.500000 0.363952
O O14 0.586863 0.325998 0.332073
O O15 0.359948 0.328100 0.185302
O O16 0.345541 0.344073 0.000000
#
# Coordination Sequence:
#
# PCOD8269717 Si02
#       6
#    16  16  16  16  16  16
#     4  10  20  31  43  63  91 121 155 193 229 272
#     4  10  20  30  40  64  99 130 162 191 216 260
#     4   8  13  25  42  59  88 128 165 199 228 252
#     4   9  19  36  57  79  95 106 136 193 248 288
#     4   8  14  24  41  66  92 121 159 196 227 264
#     4  11  18  29  51  69  89 126 157 186 233 280
#
# _framework density 16.488866999999999
#
# number of rings (size 3 to 8) (size 9 to 14) (size 15 to 20)
#    0.000    2.667    1.667    3.000    0.000    3.667 
#    0.000    0.000    0.000    3.000    0.000    2.333 
#    0.000    0.000    0.000    8.333    0.000    0.000 
#
# Total GULP energy -594628.640233 kJ/mol
# GULP energy per Si atom -12388.096672 kJ/mol
# Density = 1.645134 g / cm^3
# Si number density = 16.488867 Si / 1000 Ang^3
#
#
#
# Elastic Constant Matrix: (Units=GPa)
#
#
# Indices 1 2 3 4 5 6 
#
# 1 63.0158 41.4307 42.3928 0.0000 0.0000 0.0000
# 2 41.4307 87.5555 33.6114 0.0000 0.0000 0.0000
# 3 42.3928 33.6114 103.8415 0.0000 0.0000 0.0000
# 4 0.0000 0.0000 0.0000 24.1833 0.0000 0.0000
# 5 0.0000 0.0000 0.0000 0.0000 16.4331 0.0000
# 6 0.0000 0.0000 0.0000 0.0000 0.0000 15.8520
#
#
#
# Elastic Compliance Matrix: (Units=1/GPa)
#
#
# Indices 1 2 3 4 5 6 
#
# 1 0.028015 -0.010124 -0.008160 0.000000 0.000000 0.000000
# 2 -0.010124 0.016700 -0.001273 0.000000 0.000000 0.000000
# 3 -0.008160 -0.001273 0.013373 0.000000 0.000000 0.000000
# 4 0.000000 0.000000 0.000000 0.041351 0.000000 0.000000
# 5 0.000000 0.000000 0.000000 0.000000 0.060853 0.000000
# 6 0.000000 0.000000 0.000000 0.000000 0.000000 0.063084
#
#
# Mechanical properties :
#
#
# Convention : Reuss Voigt Hill
#
# Bulk Modulus (GPa) = 52.69954 54.36474 53.53214
# Shear Modulus (GPa) = 18.60026 20.42552 19.51289
#
# Velocity S-wave (km/s) = 3.36229 3.52340 3.44379
# Velocity P-wave (km/s) = 6.86319 7.04234 6.95334
#
# Compressibility (1/GPa) = 0.01897550
#
# Stress axis : x y z
#
# Youngs Moduli (GPa) = 35.69575 59.87889 74.77626
#
# Poissons Ratio (x) = 0.60620 0.61017
# Poissons Ratio (y) = 0.36138 0.09516
# Poissons Ratio (z) = 0.29127 0.07620
#
# Static dielectric constant tensor:
#      x y z
#    x 2.626240 0.000000 0.000000 
#    y 0.000000 2.951250 0.000000 
#    z 0.000000 0.000000 3.573080 
# 
# 
# High freq. dielectric constant tensor:
#      x y z
#    x 1.565500 0.000000 0.000000 
#    y 0.000000 1.641300 0.000000 
#    z 0.000000 0.000000 1.649240 
# 
# From -- ./inp_files/47868.got.cif
#   From: 2010.03.12/outbox.cif.g09.slc.cpg/sg65_24_cif.got.tgz:47868.got - 2010.04.10 20:52:16.
