data_PCOD8269975
_publ_section_title
;
Structure prediction by ZEFSAII (Michael W. Deem and Ramdas Pophale) SiO2 
 PCOD8269975
Probable space group: C M M M
;
_chemical_formula_sum "Si O2"
_cell_formula_units_Z 104
_cell_length_a 9.431973
_cell_length_b 30.073581
_cell_length_c 22.373591
_cell_angle_alpha 90.000000
_cell_angle_beta 90.000000
_cell_angle_gamma 90.000000
_cell_volume 6346.340772
_symmetry_space_group_name_H-M "C M M M"
_symmetry_group_IT_number 65
_symmetry_cell_setting 'orthorhombic'
loop_
_space_group_symop_operation_xyz
x,y,z
-x,-y,z
x,-y,-z
-x,y,-z
-x,-y,-z
x,y,-z
-x,y,z
x,-y,z
1/2+x,1/2+y,z
1/2-x,1/2-y,z
1/2+x,1/2-y,-z
1/2-x,1/2+y,-z
1/2-x,1/2-y,-z
1/2+x,1/2+y,-z
1/2-x,1/2+y,z
1/2+x,1/2-y,z
loop_
_atom_site_type_symbol
_atom_site_label
_atom_site_fract_x
_atom_site_fract_y
_atom_site_fract_z
Si Si1 0.661409 0.052724 0.000000
Si Si2 0.656103 0.789667 0.204461
Si Si3 0.156778 0.289435 0.653618
Si Si4 0.337593 0.551846 0.432467
Si Si5 0.665374 0.552518 0.884622
Si Si6 0.333586 0.887353 0.655227
Si Si7 0.833059 0.389408 0.206778
O O1 0.748034 0.069492 0.942387
O O2 0.500000 0.071891 0.000000
O O3 0.655681 0.000000 0.000000
O O4 0.500000 0.783307 0.177300
O O5 0.750000 0.750000 0.176389
O O6 0.649723 0.785141 0.275376
O O7 0.711419 0.839092 0.187983
O O8 0.250000 0.250000 0.625240
O O9 0.220590 0.337832 0.637562
O O10 0.000000 0.284346 0.626483
O O11 0.294900 0.564964 0.500000
O O12 0.500000 0.564575 0.420458
O O13 0.312722 0.500000 0.422147
O O14 0.240895 0.577190 0.386073
O O15 0.500000 0.565395 0.891427
O O16 0.682511 0.500000 0.875629
O O17 0.734392 0.576259 0.827901
O O18 0.500000 0.890070 0.644261
O O19 0.298628 0.897772 0.723915
O O20 0.000000 0.397449 0.193733
#
# Coordination Sequence:
#
# PCOD8269975 Si02
#       7
#     8  16  16  16  16  16  16
#     4   9  17  31  51  69  86 117 158 193 229 273
#     4   8  14  25  41  61  87 118 150 184 220 261
#     4   8  14  25  41  63  90 117 145 178 218 264
#     4   9  19  35  51  66  86 114 150 191 232 275
#     4  10  20  32  46  67  95 124 156 194 229 263
#     4   9  18  31  47  69  95 120 149 188 229 269
#     4   9  18  31  45  66  97 127 153 183 225 275
#
# _framework density 16.387397
#
# number of rings (size 3 to 8) (size 9 to 14) (size 15 to 20)
#    0.000    3.154    0.000    3.000    0.000    4.923 
#    0.000    6.923    0.000    0.462    0.000    0.538 
#    0.000    0.000    0.000    0.000    0.000    0.000 
#
# Total GULP energy -644493.782377 kJ/mol
# GULP energy per Si atom -12394.111200 kJ/mol
# Density = 1.635010 g / cm^3
# Si number density = 16.387397 Si / 1000 Ang^3
#
#
#
# Elastic Constant Matrix: (Units=GPa)
#
#
# Indices 1 2 3 4 5 6 
#
# 1 88.9602 52.4706 54.9016 0.0000 0.0000 0.0000
# 2 52.4706 74.0927 49.4722 0.0000 0.0000 0.0000
# 3 54.9016 49.4722 74.9844 0.0000 0.0000 0.0000
# 4 0.0000 0.0000 0.0000 -2.0705 0.0000 0.0000
# 5 0.0000 0.0000 0.0000 0.0000 27.2858 0.0000
# 6 0.0000 0.0000 0.0000 0.0000 0.0000 34.1269
#
#
#
# Elastic Compliance Matrix: (Units=1/GPa)
#
#
# Indices 1 2 3 4 5 6 
#
# 1 0.023588 -0.009246 -0.011171 0.000000 0.000000 0.000000
# 2 -0.009246 0.027748 -0.011538 0.000000 0.000000 0.000000
# 3 -0.011171 -0.011538 0.029127 0.000000 0.000000 0.000000
# 4 0.000000 0.000000 0.000000 -0.482973 0.000000 0.000000
# 5 0.000000 0.000000 0.000000 0.000000 0.036649 0.000000
# 6 0.000000 0.000000 0.000000 0.000000 0.000000 0.029302
#
#
# Mechanical properties :
#
#
# Convention : Reuss Voigt Hill
#
# Bulk Modulus (GPa) = 60.40414 61.30289 60.85352
# Shear Modulus (GPa) = -18.71741 17.28129 -0.71806
#
# Velocity S-wave (km/s) = -3.38329 3.25090 -0.66267
# Velocity P-wave (km/s) = 4.65596 7.18199 6.05223
#
# Compressibility (1/GPa) = 0.01655516
#
# Stress axis : x y z
#
# Youngs Moduli (GPa) = 42.39381 36.03847 34.33232
#
# Poissons Ratio (x) = 0.33321 0.38351
# Poissons Ratio (y) = 0.39197 0.39611
# Poissons Ratio (z) = 0.47356 0.41580
#
# Static dielectric constant tensor:
#      x y z
#    x 3.255340 0.000000 0.000000 
#    y 0.000000 3.159270 0.000000 
#    z 0.000000 0.000000 2.794220 
# 
# 
# High freq. dielectric constant tensor:
#      x y z
#    x 1.634160 0.000000 0.000000 
#    y 0.000000 1.628140 0.000000 
#    z 0.000000 0.000000 1.595040 
# 
# From -- ./inp_files/68506.got.cif
#   From: 2010.03.12/outbox.cif.g09.slc.cpg/sg65_35_cif.got.tgz:68506.got - 2010.04.10 20:52:16.
