data_PCOD8269542
_publ_section_title
;
Structure prediction by ZEFSAII (Michael W. Deem and Ramdas Pophale) SiO2 
 PCOD8269542
Probable space group: C M M M
;
_chemical_formula_sum "Si O2"
_cell_formula_units_Z 96
_cell_length_a 30.057175
_cell_length_b 13.946435
_cell_length_c 12.566670
_cell_angle_alpha 90.000000
_cell_angle_beta 90.000000
_cell_angle_gamma 90.000000
_cell_volume 5267.827894
_symmetry_space_group_name_H-M "C M M M"
_symmetry_group_IT_number 65
_symmetry_cell_setting 'orthorhombic'
loop_
_space_group_symop_operation_xyz
x,y,z
-x,-y,z
x,-y,-z
-x,y,-z
-x,-y,-z
x,y,-z
-x,y,z
x,-y,z
1/2+x,1/2+y,z
1/2-x,1/2-y,z
1/2+x,1/2-y,-z
1/2-x,1/2+y,-z
1/2-x,1/2-y,-z
1/2+x,1/2+y,-z
1/2-x,1/2+y,z
1/2+x,1/2-y,z
loop_
_atom_site_type_symbol
_atom_site_label
_atom_site_fract_x
_atom_site_fract_y
_atom_site_fract_z
Si Si1 0.645562 0.607807 0.123161
Si Si2 0.360961 0.390276 0.500000
Si Si3 0.243200 0.860774 0.500000
Si Si4 0.754116 0.137611 0.118040
Si Si5 0.051680 0.608894 0.622805
Si Si6 0.120412 0.242005 0.694030
Si Si7 0.194765 0.601289 0.690620
O O1 0.626643 0.500000 0.141356
O O2 0.697060 0.607619 0.158105
O O3 0.619485 0.686182 0.193629
O O4 0.640479 0.638846 0.000000
O O5 0.377929 0.500000 0.500000
O O6 0.307897 0.390442 0.500000
O O7 0.381111 0.337504 0.602547
O O8 0.250000 0.750000 0.500000
O O9 0.265839 0.900903 0.605457
O O10 0.750000 0.250000 0.119037
O O11 0.716607 0.095521 0.193523
O O12 0.745975 0.096029 0.000000
O O13 0.066148 0.619443 0.500000
O O14 0.061449 0.500000 0.661354
O O15 0.078460 0.686436 0.692237
O O16 0.000000 0.632680 0.636870
O O17 0.164245 0.306265 0.676432
O O18 0.167921 0.500000 0.676875
#
# Coordination Sequence:
#
# PCOD8269542 Si02
#       7
#    16   8   8  16  16  16  16
#     4  10  21  36  55  77 106 151 198 233 268 314
#     4  12  24  35  51  75 108 150 186 221 271 320
#     4  12  22  39  47  64 105 153 186 221 261 319
#     4  10  19  35  53  70 101 145 192 238 273 303
#     4   9  19  38  64  90 114 141 172 211 270 342
#     4  12  21  36  56  82 111 137 177 231 275 323
#     4  12  23  33  50  75 105 142 181 225 277 322
#
# _framework density 18.22383
#
# number of rings (size 3 to 8) (size 9 to 14) (size 15 to 20)
#    0.000    1.167    4.167    4.250    0.000    1.000 
#    0.000    0.000    0.000    4.500    0.000    2.333 
#    0.000    0.000    0.000    0.000    0.000    0.000 
#
# Total GULP energy -595082.966144 kJ/mol
# GULP energy per Si atom -12397.561795 kJ/mol
# Density = 1.818235 g / cm^3
# Si number density = 18.223830 Si / 1000 Ang^3
#
#
#
# Elastic Constant Matrix: (Units=GPa)
#
#
# Indices 1 2 3 4 5 6 
#
# 1 63.1884 34.0551 29.1001 0.0000 0.0000 0.0000
# 2 34.0551 146.8882 44.9126 0.0000 0.0000 0.0000
# 3 29.1001 44.9126 86.2536 0.0000 0.0000 0.0000
# 4 0.0000 0.0000 0.0000 50.8877 0.0000 0.0000
# 5 0.0000 0.0000 0.0000 0.0000 18.5279 0.0000
# 6 0.0000 0.0000 0.0000 0.0000 0.0000 21.6408
#
#
#
# Elastic Compliance Matrix: (Units=1/GPa)
#
#
# Indices 1 2 3 4 5 6 
#
# 1 0.019811 -0.003032 -0.005105 0.000000 0.000000 0.000000
# 2 -0.003032 0.008561 -0.003435 0.000000 0.000000 0.000000
# 3 -0.005105 -0.003435 0.015105 0.000000 0.000000 0.000000
# 4 0.000000 0.000000 0.000000 0.019651 0.000000 0.000000
# 5 0.000000 0.000000 0.000000 0.000000 0.053973 0.000000
# 6 0.000000 0.000000 0.000000 0.000000 0.000000 0.046209
#
#
# Mechanical properties :
#
#
# Convention : Reuss Voigt Hill
#
# Bulk Modulus (GPa) = 49.18176 56.94063 53.06120
# Shear Modulus (GPa) = 25.87585 30.76212 28.31898
#
# Velocity S-wave (km/s) = 3.77223 4.11300 3.94630
# Velocity P-wave (km/s) = 6.78374 7.33953 7.06710
#
# Compressibility (1/GPa) = 0.02033274
#
# Stress axis : x y z
#
# Youngs Moduli (GPa) = 50.47752 116.80722 66.20532
#
# Poissons Ratio (x) = 0.35418 0.33797
# Poissons Ratio (y) = 0.15305 0.22740
# Poissons Ratio (z) = 0.25768 0.40121
#
# Static dielectric constant tensor:
#      x y z
#    x 2.898780 0.000000 0.000000 
#    y 0.000000 3.686230 0.000000 
#    z 0.000000 0.000000 3.462310 
# 
# 
# High freq. dielectric constant tensor:
#      x y z
#    x 1.655220 0.000000 0.000000 
#    y 0.000000 1.735540 0.000000 
#    z 0.000000 0.000000 1.703090 
# 
# From -- ./inp_files/33915.got.cif
#   From: 2010.03.12/outbox.cif.g09.slc.cpg/sg65_17_cif.got.tgz:33915.got - 2010.04.10 20:52:16.
