data_PCOD8269311
_publ_section_title
;
Structure prediction by ZEFSAII (Michael W. Deem and Ramdas Pophale) SiO2 
 PCOD8269311
Probable space group: C M M M
;
_chemical_formula_sum "Si O2"
_cell_formula_units_Z 64
_cell_length_a 19.942589
_cell_length_b 13.422325
_cell_length_c 13.705209
_cell_angle_alpha 90.000000
_cell_angle_beta 90.000000
_cell_angle_gamma 90.000000
_cell_volume 3668.554303
_symmetry_space_group_name_H-M "C M M M"
_symmetry_group_IT_number 65
_symmetry_cell_setting 'orthorhombic'
loop_
_space_group_symop_operation_xyz
x,y,z
-x,-y,z
x,-y,-z
-x,y,-z
-x,-y,-z
x,y,-z
-x,y,z
x,-y,z
1/2+x,1/2+y,z
1/2-x,1/2-y,z
1/2+x,1/2-y,-z
1/2-x,1/2+y,-z
1/2-x,1/2-y,-z
1/2+x,1/2+y,-z
1/2-x,1/2+y,z
1/2+x,1/2-y,z
loop_
_atom_site_type_symbol
_atom_site_label
_atom_site_fract_x
_atom_site_fract_y
_atom_site_fract_z
Si Si1 0.138651 0.000000 0.230124
Si Si2 0.254081 0.000000 0.614775
Si Si3 0.805664 0.665102 0.742934
Si Si4 0.266212 0.000000 0.113799
Si Si5 0.579083 0.388766 0.500000
Si Si6 0.077868 0.805328 0.294831
O O1 0.184006 0.000000 0.327502
O O2 0.186342 0.000000 0.135324
O O3 0.091569 0.097212 0.228823
O O4 0.295549 0.901743 0.646057
O O5 0.241415 0.000000 0.500000
O O6 0.750000 0.750000 0.745701
O O7 0.799535 0.598205 0.839765
O O8 0.879718 0.711849 0.743083
O O9 0.280258 0.000000 0.000000
O O10 0.610568 0.500000 0.500000
O O11 0.500000 0.400537 0.500000
O O12 0.602216 0.328309 0.405019
O O13 0.000000 0.776694 0.288582
#
# Coordination Sequence:
#
# PCOD8269311 Si02
#       6
#     8   8  16   8   8  16
#     4  10  19  34  53  88 113 137 181 222 293 331
#     4  10  22  33  51  79 117 149 182 236 268 303
#     4  10  20  38  55  83 108 142 191 221 274 330
#     4  10  22  41  63  82 105 134 183 240 281 339
#     4   9  18  28  45  77 117 163 188 202 253 320
#     4  11  20  33  54  82 121 153 183 224 265 324
#
# _framework density 17.445564000000001
#
# number of rings (size 3 to 8) (size 9 to 14) (size 15 to 20)
#    0.000    2.125    6.250    0.375    3.500    1.000 
#    0.000    2.500    0.000    5.250    0.000    0.000 
#    0.000    0.000    0.000    0.000    0.000    0.000 
#
# Total GULP energy -396739.524385 kJ/mol
# GULP energy per Si atom -12398.110137 kJ/mol
# Density = 1.740586 g / cm^3
# Si number density = 17.445564 Si / 1000 Ang^3
#
#
#
# Elastic Constant Matrix: (Units=GPa)
#
#
# Indices 1 2 3 4 5 6 
#
# 1 101.6900 51.7425 22.9886 0.0000 0.0000 0.0000
# 2 51.7425 122.7334 40.3804 0.0000 0.0000 0.0000
# 3 22.9886 40.3804 99.8589 0.0000 0.0000 0.0000
# 4 0.0000 0.0000 0.0000 12.3811 0.0000 0.0000
# 5 0.0000 0.0000 0.0000 0.0000 16.2734 0.0000
# 6 0.0000 0.0000 0.0000 0.0000 0.0000 28.7091
#
#
#
# Elastic Compliance Matrix: (Units=1/GPa)
#
#
# Indices 1 2 3 4 5 6 
#
# 1 0.012584 -0.005020 -0.000867 0.000000 0.000000 0.000000
# 2 -0.005020 0.011401 -0.003454 0.000000 0.000000 0.000000
# 3 -0.000867 -0.003454 0.011611 0.000000 0.000000 0.000000
# 4 0.000000 0.000000 0.000000 0.080769 0.000000 0.000000
# 5 0.000000 0.000000 0.000000 0.000000 0.061450 0.000000
# 6 0.000000 0.000000 0.000000 0.000000 0.000000 0.034832
#
#
# Mechanical properties :
#
#
# Convention : Reuss Voigt Hill
#
# Bulk Modulus (GPa) = 59.12833 61.61171 60.37002
# Shear Modulus (GPa) = 21.10000 25.41742 23.25871
#
# Velocity S-wave (km/s) = 3.48153 3.82115 3.65528
# Velocity P-wave (km/s) = 7.08011 7.40685 7.24532
#
# Compressibility (1/GPa) = 0.01691237
#
# Stress axis : x y z
#
# Youngs Moduli (GPa) = 79.46526 87.71434 86.12798
#
# Poissons Ratio (x) = 0.44033 0.07468
# Poissons Ratio (y) = 0.39892 0.29753
# Poissons Ratio (z) = 0.06890 0.30301
#
# Static dielectric constant tensor:
#      x y z
#    x 3.155450 0.000000 0.000000 
#    y 0.000000 3.521450 0.000000 
#    z 0.000000 0.000000 3.000700 
# 
# 
# High freq. dielectric constant tensor:
#      x y z
#    x 1.666000 0.000000 0.000000 
#    y 0.000000 1.679700 0.000000 
#    z 0.000000 0.000000 1.643300 
# 
# From -- ./inp_files/42094.got.cif
#   From: 2010.03.12/outbox.cif.g09.slc.cpg/sg65_22_cif.got.tgz:42094.got - 2010.04.10 20:52:16.
