data_PCOD8269727
_publ_section_title
;
Structure prediction by ZEFSAII (Michael W. Deem and Ramdas Pophale) SiO2 
 PCOD8269727
Probable space group: C M M M
;
_chemical_formula_sum "Si O2"
_cell_formula_units_Z 104
_cell_length_a 27.656282
_cell_length_b 7.928734
_cell_length_c 28.358660
_cell_angle_alpha 90.000000
_cell_angle_beta 90.000000
_cell_angle_gamma 90.000000
_cell_volume 6218.467210
_symmetry_space_group_name_H-M "C M M M"
_symmetry_group_IT_number 65
_symmetry_cell_setting 'orthorhombic'
loop_
_space_group_symop_operation_xyz
x,y,z
-x,-y,z
x,-y,-z
-x,y,-z
-x,-y,-z
x,y,-z
-x,y,z
x,-y,z
1/2+x,1/2+y,z
1/2-x,1/2-y,z
1/2+x,1/2-y,-z
1/2-x,1/2+y,-z
1/2-x,1/2-y,-z
1/2+x,1/2+y,-z
1/2-x,1/2+y,z
1/2+x,1/2-y,z
loop_
_atom_site_type_symbol
_atom_site_label
_atom_site_fract_x
_atom_site_fract_y
_atom_site_fract_z
Si Si1 0.857374 0.799875 0.857897
Si Si2 0.696353 0.300733 0.052016
Si Si3 0.554110 0.194775 0.803081
Si Si4 0.195981 0.198889 0.233804
Si Si5 0.393992 0.307315 0.287379
Si Si6 0.943054 0.196212 0.618497
Si Si7 0.057228 0.500000 0.552533
O O1 0.840266 0.727339 0.908579
O O2 0.911298 0.735066 0.847357
O O3 0.820171 0.732777 0.817660
O O4 0.857512 0.000000 0.858560
O O5 0.692488 0.500000 0.050483
O O6 0.750000 0.250000 0.067296
O O7 0.683808 0.225876 0.000000
O O8 0.500000 0.249327 0.817594
O O9 0.569573 0.295355 0.756566
O O10 0.556884 0.000000 0.789911
O O11 0.250000 0.250000 0.247018
O O12 0.158139 0.273639 0.272635
O O13 0.191112 0.000000 0.233667
O O14 0.385892 0.500000 0.299682
O O15 0.416567 0.229824 0.334781
O O16 0.926017 0.325602 0.577705
O O17 0.000000 0.209920 0.627821
O O18 0.929793 0.000000 0.605946
O O19 0.079725 0.500000 0.500000
O O20 0.000000 0.500000 0.549900
#
# Coordination Sequence:
#
# PCOD8269727 Si02
#       7
#    16  16  16  16  16  16   8
#     4   9  18  31  45  61  85 117 147 175 215 264
#     4   9  17  29  46  68  90 111 140 180 222 266
#     4  10  20  30  43  65  88 111 145 186 221 259
#     4   9  17  28  41  60  87 117 145 175 213 261
#     4   9  18  31  45  63  89 121 152 184 218 265
#     4   9  17  29  46  66  91 126 159 191 232 274
#     4   9  18  30  44  66  96 126 158 196 231 273
#
# _framework density 16.724378000000002
#
# number of rings (size 3 to 8) (size 9 to 14) (size 15 to 20)
#    0.000    2.846    0.000    2.308    1.077    5.231 
#    0.000    1.538    0.000    0.462    0.000    3.231 
#    0.000    0.615    0.308    0.000    0.000    0.000 
#
# Total GULP energy -644356.761968 kJ/mol
# GULP energy per Si atom -12391.476192 kJ/mol
# Density = 1.668631 g / cm^3
# Si number density = 16.724378 Si / 1000 Ang^3
#
#
#
# Elastic Constant Matrix: (Units=GPa)
#
#
# Indices 1 2 3 4 5 6 
#
# 1 110.3880 17.7851 64.8238 0.0000 0.0000 0.0000
# 2 17.7851 36.1792 32.3956 0.0000 0.0000 0.0000
# 3 64.8238 32.3956 135.0185 0.0000 0.0000 0.0000
# 4 0.0000 0.0000 0.0000 15.8541 0.0000 0.0000
# 5 0.0000 0.0000 0.0000 0.0000 22.4575 0.0000
# 6 0.0000 0.0000 0.0000 0.0000 0.0000 20.1687
#
#
#
# Elastic Compliance Matrix: (Units=1/GPa)
#
#
# Indices 1 2 3 4 5 6 
#
# 1 0.012644 -0.000993 -0.005832 0.000000 0.000000 0.000000
# 2 -0.000993 0.035281 -0.007988 0.000000 0.000000 0.000000
# 3 -0.005832 -0.007988 0.012123 0.000000 0.000000 0.000000
# 4 0.000000 0.000000 0.000000 0.063075 0.000000 0.000000
# 5 0.000000 0.000000 0.000000 0.000000 0.044528 0.000000
# 6 0.000000 0.000000 0.000000 0.000000 0.000000 0.049582
#
#
# Mechanical properties :
#
#
# Convention : Reuss Voigt Hill
#
# Bulk Modulus (GPa) = 32.87219 56.84389 44.85804
# Shear Modulus (GPa) = 19.45514 22.80147 21.12830
#
# Velocity S-wave (km/s) = 3.41439 3.69639 3.55818
# Velocity P-wave (km/s) = 5.93650 7.23050 6.61521
#
# Compressibility (1/GPa) = 0.03042085
#
# Stress axis : x y z
#
# Youngs Moduli (GPa) = 79.09007 28.34352 82.48698
#
# Poissons Ratio (x) = 0.02815 0.48107
# Poissons Ratio (y) = 0.07856 0.65893
# Poissons Ratio (z) = 0.46126 0.22642
#
# Static dielectric constant tensor:
#      x y z
#    x 3.534680 0.000000 0.000000 
#    y 0.000000 3.097930 0.000000 
#    z 0.000000 0.000000 3.384990 
# 
# 
# High freq. dielectric constant tensor:
#      x y z
#    x 1.621760 0.000000 0.000000 
#    y 0.000000 1.642710 0.000000 
#    z 0.000000 0.000000 1.628050 
# 
# From -- ./inp_files/78358.got.cif
#   From: 2010.03.12/outbox.cif.g09.slc.cpg/sg65_40_cif.got.tgz:78358.got - 2010.04.10 20:52:16.
