data_PCOD8269286
_publ_section_title
;
Structure prediction by ZEFSAII (Michael W. Deem and Ramdas Pophale) SiO2 
 PCOD8269286
Probable space group: C M M M
;
_chemical_formula_sum "Si O2"
_cell_formula_units_Z 80
_cell_length_a 19.928422
_cell_length_b 23.535135
_cell_length_c 9.631828
_cell_angle_alpha 90.000000
_cell_angle_beta 90.000000
_cell_angle_gamma 90.000000
_cell_volume 4517.501688
_symmetry_space_group_name_H-M "C M M M"
_symmetry_group_IT_number 65
_symmetry_cell_setting 'orthorhombic'
loop_
_space_group_symop_operation_xyz
x,y,z
-x,-y,z
x,-y,-z
-x,y,-z
-x,-y,-z
x,y,-z
-x,y,z
x,-y,z
1/2+x,1/2+y,z
1/2-x,1/2-y,z
1/2+x,1/2-y,-z
1/2-x,1/2+y,-z
1/2-x,1/2-y,-z
1/2+x,1/2+y,-z
1/2-x,1/2+y,z
1/2+x,1/2-y,z
loop_
_atom_site_type_symbol
_atom_site_label
_atom_site_fract_x
_atom_site_fract_y
_atom_site_fract_z
Si Si1 0.099660 0.622072 0.151867
Si Si2 0.683429 0.717301 0.839247
Si Si3 0.925539 0.500000 0.739814
Si Si4 0.777572 0.500000 0.654331
Si Si5 0.250901 0.397844 0.153958
Si Si6 0.574514 0.777472 0.657871
O O1 0.079686 0.556175 0.166747
O O2 0.178998 0.632597 0.158694
O O3 0.068471 0.660130 0.273078
O O4 0.073364 0.641478 0.000000
O O5 0.750000 0.750000 0.790854
O O6 0.693403 0.649932 0.815695
O O7 0.621653 0.735837 0.744514
O O8 0.667212 0.731056 0.000000
O O9 0.859299 0.500000 0.642475
O O10 0.000000 0.500000 0.665451
O O11 0.748727 0.500000 0.500000
O O12 0.746309 0.445926 0.730409
O O13 0.261865 0.424381 0.000000
O O14 0.601272 0.784190 0.500000
O O15 0.500000 0.750825 0.657280
#
# Coordination Sequence:
#
# PCOD8269286 Si02
#       6
#    16  16   8   8  16  16
#     4  10  19  34  53  71  95 132 180 228 265 302
#     4  10  19  36  59  81 101 131 179 225 264 310
#     4  10  21  33  45  67  97 134 181 227 263 298
#     4  10  21  34  50  74 103 135 173 210 253 314
#     4   9  18  34  55  77 102 130 167 220 267 302
#     4  11  24  37  49  74 111 144 173 211 263 320
#
# _framework density 17.708902999999999
#
# number of rings (size 3 to 8) (size 9 to 14) (size 15 to 20)
#    0.000    2.000    2.000    1.800    0.000   10.200 
#    0.000    0.000    0.000    0.000    0.000    0.700 
#    0.000    5.600    0.000    0.000    0.000    0.000 
#
# Total GULP energy -495783.718263 kJ/mol
# GULP energy per Si atom -12394.592957 kJ/mol
# Density = 1.766860 g / cm^3
# Si number density = 17.708903 Si / 1000 Ang^3
#
#
#
# Elastic Constant Matrix: (Units=GPa)
#
#
# Indices 1 2 3 4 5 6 
#
# 1 72.4352 46.9736 47.6042 0.0000 0.0000 0.0000
# 2 46.9736 89.8469 61.6833 0.0000 0.0000 0.0000
# 3 47.6042 61.6833 144.9501 0.0000 0.0000 0.0000
# 4 0.0000 0.0000 0.0000 13.6853 0.0000 0.0000
# 5 0.0000 0.0000 0.0000 0.0000 14.9961 0.0000
# 6 0.0000 0.0000 0.0000 0.0000 0.0000 11.0354
#
#
#
# Elastic Compliance Matrix: (Units=1/GPa)
#
#
# Indices 1 2 3 4 5 6 
#
# 1 0.021940 -0.009216 -0.003283 0.000000 0.000000 0.000000
# 2 -0.009216 0.019595 -0.005312 0.000000 0.000000 0.000000
# 3 -0.003283 -0.005312 0.010238 0.000000 0.000000 0.000000
# 4 0.000000 0.000000 0.000000 0.073071 0.000000 0.000000
# 5 0.000000 0.000000 0.000000 0.000000 0.066684 0.000000
# 6 0.000000 0.000000 0.000000 0.000000 0.000000 0.090617
#
#
# Mechanical properties :
#
#
# Convention : Reuss Voigt Hill
#
# Bulk Modulus (GPa) = 61.92125 68.86159 65.39142
# Shear Modulus (GPa) = 15.47256 18.00810 16.74033
#
# Velocity S-wave (km/s) = 2.95908 3.19234 3.07792
# Velocity P-wave (km/s) = 6.83498 7.24967 7.04538
#
# Compressibility (1/GPa) = 0.01614954
#
# Stress axis : x y z
#
# Youngs Moduli (GPa) = 45.57861 51.03227 97.67742
#
# Poissons Ratio (x) = 0.47034 0.32072
# Poissons Ratio (y) = 0.42007 0.51886
# Poissons Ratio (z) = 0.14966 0.27108
#
# Static dielectric constant tensor:
#      x y z
#    x 3.136310 0.000000 0.000000 
#    y 0.000000 3.147550 0.000000 
#    z 0.000000 0.000000 3.228450 
# 
# 
# High freq. dielectric constant tensor:
#      x y z
#    x 1.657760 0.000000 0.000000 
#    y 0.000000 1.676520 0.000000 
#    z 0.000000 0.000000 1.684940 
# 
# From -- ./inp_files/9735.got.cif
#   From: 2010.03.12/outbox.cif.g09.slc.cpg/sg65_5_cif.got.tgz:9735.got - 2010.04.10 20:52:16.
