data_PCOD8269683
_publ_section_title
;
Structure prediction by ZEFSAII (Michael W. Deem and Ramdas Pophale) SiO2 
 PCOD8269683
Probable space group: C M M M
;
_chemical_formula_sum "Si O2"
_cell_formula_units_Z 80
_cell_length_a 8.416731
_cell_length_b 23.849646
_cell_length_c 20.211802
_cell_angle_alpha 90.000000
_cell_angle_beta 90.000000
_cell_angle_gamma 90.000000
_cell_volume 4057.237394
_symmetry_space_group_name_H-M "C M M M"
_symmetry_group_IT_number 65
_symmetry_cell_setting 'orthorhombic'
loop_
_space_group_symop_operation_xyz
x,y,z
-x,-y,z
x,-y,-z
-x,y,-z
-x,-y,-z
x,y,-z
-x,y,z
x,-y,z
1/2+x,1/2+y,z
1/2-x,1/2-y,z
1/2+x,1/2-y,-z
1/2-x,1/2+y,-z
1/2-x,1/2-y,-z
1/2+x,1/2+y,-z
1/2-x,1/2+y,z
1/2+x,1/2-y,z
loop_
_atom_site_type_symbol
_atom_site_label
_atom_site_fract_x
_atom_site_fract_y
_atom_site_fract_z
Si Si1 0.313302 0.387330 0.308900
Si Si2 0.813872 0.312410 0.192258
Si Si3 0.186313 0.881188 0.924075
Si Si4 0.316173 0.500000 0.122695
Si Si5 0.312203 0.309888 0.573840
Si Si6 0.317590 0.000000 0.265308
O O1 0.500000 0.399068 0.312075
O O2 0.276624 0.351762 0.243783
O O3 0.250349 0.355819 0.374401
O O4 0.220074 0.445689 0.308866
O O5 0.750000 0.250000 0.199543
O O6 0.779228 0.335306 0.118897
O O7 0.000000 0.313607 0.207140
O O8 0.256845 0.943373 0.908863
O O9 0.000000 0.878457 0.906454
O O10 0.218459 0.866079 0.000000
O O11 0.500000 0.500000 0.104831
O O12 0.292426 0.500000 0.200960
O O13 0.248091 0.324062 0.500000
O O14 0.500000 0.307747 0.574317
O O15 0.250000 0.250000 0.598098
O O16 0.500000 0.000000 0.242831
#
# Coordination Sequence:
#
# PCOD8269683 Si02
#       6
#    16  16  16   8  16   8
#     4  11  22  39  62  87 118 155 194 240 292 345
#     4  12  25  40  59  84 116 153 196 243 292 348
#     4  10  21  38  61  88 117 151 192 239 293 352
#     4  10  19  36  62  87 116 150 188 234 289 348
#     4   9  19  36  60  90 121 154 193 236 286 342
#     4  12  24  37  58  88 119 153 194 241 290 343
#
# _framework density 19.717851
#
# number of rings (size 3 to 8) (size 9 to 14) (size 15 to 20)
#    0.000    1.400    2.000    4.200    0.000    5.200 
#    0.000    0.500    0.000    4.800    0.000    0.000 
#    0.000    0.000    0.000    0.000    0.000    0.000 
#
# Total GULP energy -496159.519767 kJ/mol
# GULP energy per Si atom -12403.987994 kJ/mol
# Density = 1.967297 g / cm^3
# Si number density = 19.717851 Si / 1000 Ang^3
#
#
#
# Elastic Constant Matrix: (Units=GPa)
#
#
# Indices 1 2 3 4 5 6 
#
# 1 37.5921 17.0836 9.0441 0.0000 0.0000 0.0000
# 2 17.0836 143.8348 54.2776 0.0000 0.0000 0.0000
# 3 9.0441 54.2776 107.3846 0.0000 0.0000 0.0000
# 4 0.0000 0.0000 0.0000 12.9368 0.0000 0.0000
# 5 0.0000 0.0000 0.0000 0.0000 18.2349 0.0000
# 6 0.0000 0.0000 0.0000 0.0000 0.0000 27.9996
#
#
#
# Elastic Compliance Matrix: (Units=1/GPa)
#
#
# Indices 1 2 3 4 5 6 
#
# 1 0.028181 -0.003029 -0.000842 0.000000 0.000000 0.000000
# 2 -0.003029 0.008917 -0.004252 0.000000 0.000000 0.000000
# 3 -0.000842 -0.004252 0.011532 0.000000 0.000000 0.000000
# 4 0.000000 0.000000 0.000000 0.077299 0.000000 0.000000
# 5 0.000000 0.000000 0.000000 0.000000 0.054840 0.000000
# 6 0.000000 0.000000 0.000000 0.000000 0.000000 0.035715
#
#
# Mechanical properties :
#
#
# Convention : Reuss Voigt Hill
#
# Bulk Modulus (GPa) = 30.88046 49.95801 40.41924
# Shear Modulus (GPa) = 20.53185 25.72801 23.12993
#
# Velocity S-wave (km/s) = 3.23039 3.61613 3.42869
# Velocity P-wave (km/s) = 5.44142 6.54421 6.01813
#
# Compressibility (1/GPa) = 0.03238294
#
# Stress axis : x y z
#
# Youngs Moduli (GPa) = 35.48544 112.14951 86.71270
#
# Poissons Ratio (x) = 0.33973 0.07304
# Poissons Ratio (y) = 0.10749 0.36869
# Poissons Ratio (z) = 0.02989 0.47684
#
# Static dielectric constant tensor:
#      x y z
#    x 3.467200 0.000000 0.000000 
#    y 0.000000 3.741870 0.000000 
#    z 0.000000 0.000000 3.759910 
# 
# 
# High freq. dielectric constant tensor:
#      x y z
#    x 1.760610 0.000000 0.000000 
#    y 0.000000 1.775400 0.000000 
#    z 0.000000 0.000000 1.769600 
# 
# From -- ./inp_files/59683.got.cif
#   From: 2010.03.12/outbox.cif.g09.slc.cpg/sg65_30_cif.got.tgz:59683.got - 2010.04.10 20:52:16.
