data_PCOD8269122
_publ_section_title
;
Structure prediction by ZEFSAII (Michael W. Deem and Ramdas Pophale) SiO2 
 PCOD8269122
Probable space group: C M M M
;
_chemical_formula_sum "Si O2"
_cell_formula_units_Z 72
_cell_length_a 8.768456
_cell_length_b 19.028201
_cell_length_c 22.693775
_cell_angle_alpha 90.000000
_cell_angle_beta 90.000000
_cell_angle_gamma 90.000000
_cell_volume 3786.409683
_symmetry_space_group_name_H-M "C M M M"
_symmetry_group_IT_number 65
_symmetry_cell_setting 'orthorhombic'
loop_
_space_group_symop_operation_xyz
x,y,z
-x,-y,z
x,-y,-z
-x,y,-z
-x,-y,-z
x,y,-z
-x,y,z
x,-y,z
1/2+x,1/2+y,z
1/2-x,1/2-y,z
1/2+x,1/2-y,-z
1/2-x,1/2+y,-z
1/2-x,1/2-y,-z
1/2+x,1/2+y,-z
1/2-x,1/2+y,z
1/2+x,1/2-y,z
loop_
_atom_site_type_symbol
_atom_site_label
_atom_site_fract_x
_atom_site_fract_y
_atom_site_fract_z
Si Si1 0.179037 0.822264 0.432906
Si Si2 0.680261 0.824495 0.769919
Si Si3 0.678040 0.919480 0.339446
Si Si4 0.681546 0.674698 0.893281
Si Si5 0.180914 0.921380 0.000000
O O1 0.232480 0.835394 0.500000
O O2 0.250000 0.750000 0.408186
O O3 0.233599 0.887777 0.394761
O O4 0.000000 0.814881 0.428015
O O5 0.500000 0.816451 0.778096
O O6 0.750000 0.750000 0.750862
O O7 0.725023 0.880644 0.720499
O O8 0.753981 0.851230 0.830706
O O9 0.500000 0.911130 0.351981
O O10 0.727323 0.000000 0.332661
O O11 0.500000 0.680745 0.890313
O O12 0.750000 0.750000 0.910439
O O13 0.737750 0.619091 0.941867
O O14 0.000000 0.924597 0.000000
O O15 0.250196 0.000000 0.000000
#
# Coordination Sequence:
#
# PCOD8269122 Si02
#       5
#    16  16  16  16   8
#     4  10  21  37  58  83 109 139 178 223 267 313
#     4  10  20  35  55  78 105 136 175 220 262 309
#     4  10  22  38  55  78 110 146 179 216 266 319
#     4  10  19  33  55  78 102 134 172 215 260 307
#     4   9  19  34  51  75 106 137 170 210 256 307
#
# _framework density 19.015374999999999
#
# number of rings (size 3 to 8) (size 9 to 14) (size 15 to 20)
#    0.000    2.111    0.000    4.333    0.000    6.667 
#    0.000    3.889    0.000    4.667    0.000    0.000 
#    0.000    0.000    0.000    0.000    0.000    0.000 
#
# Total GULP energy -446523.567660 kJ/mol
# GULP energy per Si atom -12403.432435 kJ/mol
# Density = 1.897210 g / cm^3
# Si number density = 19.015375 Si / 1000 Ang^3
#
#
#
# Elastic Constant Matrix: (Units=GPa)
#
#
# Indices 1 2 3 4 5 6 
#
# 1 71.5187 46.2377 50.9169 0.0000 0.0000 0.0000
# 2 46.2377 151.2705 100.2526 0.0000 0.0000 0.0000
# 3 50.9169 100.2526 138.8296 0.0000 0.0000 0.0000
# 4 0.0000 0.0000 0.0000 15.6107 0.0000 0.0000
# 5 0.0000 0.0000 0.0000 0.0000 28.9641 0.0000
# 6 0.0000 0.0000 0.0000 0.0000 0.0000 25.9422
#
#
#
# Elastic Compliance Matrix: (Units=1/GPa)
#
#
# Indices 1 2 3 4 5 6 
#
# 1 0.019339 -0.002322 -0.005416 0.000000 0.000000 0.000000
# 2 -0.002322 0.012957 -0.008505 0.000000 0.000000 0.000000
# 3 -0.005416 -0.008505 0.015331 0.000000 0.000000 0.000000
# 4 0.000000 0.000000 0.000000 0.064059 0.000000 0.000000
# 5 0.000000 0.000000 0.000000 0.000000 0.034525 0.000000
# 6 0.000000 0.000000 0.000000 0.000000 0.000000 0.038547
#
#
# Mechanical properties :
#
#
# Convention : Reuss Voigt Hill
#
# Bulk Modulus (GPa) = 66.04374 84.04814 75.04594
# Shear Modulus (GPa) = 22.49289 25.05084 23.77186
#
# Velocity S-wave (km/s) = 3.44303 3.63354 3.53957
# Velocity P-wave (km/s) = 7.11429 7.86762 7.50042
#
# Compressibility (1/GPa) = 0.01514148
#
# Stress axis : x y z
#
# Youngs Moduli (GPa) = 51.70774 77.17856 65.22611
#
# Poissons Ratio (x) = 0.17919 0.35328
# Poissons Ratio (y) = 0.12005 0.55475
# Poissons Ratio (z) = 0.28006 0.65641
#
# Static dielectric constant tensor:
#      x y z
#    x 3.413170 0.000000 0.000000 
#    y 0.000000 3.538450 0.000000 
#    z 0.000000 0.000000 3.644810 
# 
# 
# High freq. dielectric constant tensor:
#      x y z
#    x 1.737380 0.000000 0.000000 
#    y 0.000000 1.735930 0.000000 
#    z 0.000000 0.000000 1.751610 
# 
# From -- ./inp_files/67088.got.cif
#   From: 2010.03.12/outbox.cif.g09.slc.cpg/sg65_34_cif.got.tgz:67088.got - 2010.04.10 20:52:16.
