data_PCOD8269713
_publ_section_title
;
Structure prediction by ZEFSAII (Michael W. Deem and Ramdas Pophale) SiO2 
 PCOD8269713
Probable space group: C M M M
;
_chemical_formula_sum "Si O2"
_cell_formula_units_Z 104
_cell_length_a 28.538539
_cell_length_b 13.749007
_cell_length_c 17.782002
_cell_angle_alpha 90.000000
_cell_angle_beta 90.000000
_cell_angle_gamma 90.000000
_cell_volume 6977.240997
_symmetry_space_group_name_H-M "C M M M"
_symmetry_group_IT_number 65
_symmetry_cell_setting 'orthorhombic'
loop_
_space_group_symop_operation_xyz
x,y,z
-x,-y,z
x,-y,-z
-x,y,-z
-x,-y,-z
x,y,-z
-x,y,z
x,-y,z
1/2+x,1/2+y,z
1/2-x,1/2-y,z
1/2+x,1/2-y,-z
1/2-x,1/2+y,-z
1/2-x,1/2-y,-z
1/2+x,1/2+y,-z
1/2-x,1/2+y,z
1/2+x,1/2-y,z
loop_
_atom_site_type_symbol
_atom_site_label
_atom_site_fract_x
_atom_site_fract_y
_atom_site_fract_z
Si Si1 0.555158 0.800735 0.336137
Si Si2 0.555575 0.606951 0.414190
Si Si3 0.117813 0.111842 0.086784
Si Si4 0.698527 0.250658 0.912633
Si Si5 0.445229 0.238791 0.834785
Si Si6 0.378152 0.893795 0.088908
Si Si7 0.944276 0.500000 0.413081
O O1 0.500000 0.800320 0.350256
O O2 0.577010 0.701103 0.371408
O O3 0.567692 0.796439 0.248603
O O4 0.575383 0.901094 0.372823
O O5 0.571450 0.617018 0.500000
O O6 0.500000 0.609484 0.406781
O O7 0.572911 0.500000 0.383305
O O8 0.171215 0.147940 0.100204
O O9 0.081104 0.162003 0.142878
O O10 0.116533 0.000000 0.106753
O O11 0.103503 0.133451 0.000000
O O12 0.750000 0.250000 0.873590
O O13 0.665511 0.166884 0.877287
O O14 0.705538 0.227770 0.000000
O O15 0.500000 0.256514 0.845528
O O16 0.427698 0.153768 0.889629
O O17 0.375331 0.000000 0.124849
O O18 0.375294 0.896882 0.000000
O O19 0.927884 0.500000 0.500000
O O20 0.000000 0.500000 0.407283
#
# Coordination Sequence:
#
# PCOD8269713 Si02
#       7
#    16  16  16  16  16  16   8
#     4   9  17  26  37  54  73  98 132 172 212 249
#     4   8  13  22  36  52  70  91 117 154 199 245
#     4   9  18  31  44  59  80 107 141 180 218 255
#     4   8  14  26  44  64  82  97 120 162 211 258
#     4  10  20  30  40  54  76 107 144 185 213 238
#     4   9  18  30  42  57  77 102 134 172 209 247
#     4   9  16  26  40  56  75  97 127 171 216 258
#
# _framework density 14.905605
#
# number of rings (size 3 to 8) (size 9 to 14) (size 15 to 20)
#    0.000    3.154    0.000    2.308    1.077    4.923 
#    0.000    6.154    0.000    0.000    0.000    0.000 
#    0.000    0.000    0.000    0.000    0.000   49.231 
#
# Total GULP energy -644223.284121 kJ/mol
# GULP energy per Si atom -12388.909310 kJ/mol
# Density = 1.487168 g / cm^3
# Si number density = 14.905605 Si / 1000 Ang^3
#
#
#
# Elastic Constant Matrix: (Units=GPa)
#
#
# Indices 1 2 3 4 5 6 
#
# 1 66.5634 35.6528 29.1695 0.0000 0.0000 0.0000
# 2 35.6528 148.4232 39.9542 0.0000 0.0000 0.0000
# 3 29.1695 39.9542 38.2332 0.0000 0.0000 0.0000
# 4 0.0000 0.0000 0.0000 21.3696 0.0000 0.0000
# 5 0.0000 0.0000 0.0000 0.0000 0.9586 0.0000
# 6 0.0000 0.0000 0.0000 0.0000 0.0000 7.7585
#
#
#
# Elastic Compliance Matrix: (Units=1/GPa)
#
#
# Indices 1 2 3 4 5 6 
#
# 1 0.022697 -0.001100 -0.016167 0.000000 0.000000 0.000000
# 2 -0.001100 0.009428 -0.009013 0.000000 0.000000 0.000000
# 3 -0.016167 -0.009013 0.047908 0.000000 0.000000 0.000000
# 4 0.000000 0.000000 0.000000 0.046795 0.000000 0.000000
# 5 0.000000 0.000000 0.000000 0.000000 1.043241 0.000000
# 6 0.000000 0.000000 0.000000 0.000000 0.000000 0.128891
#
#
# Mechanical properties :
#
#
# Convention : Reuss Voigt Hill
#
# Bulk Modulus (GPa) = 36.39886 51.41921 43.90903
# Shear Modulus (GPa) = 3.67464 15.91355 9.79409
#
# Velocity S-wave (km/s) = 1.57182 3.27099 2.56613
# Velocity P-wave (km/s) = 5.26942 6.98837 6.18886
#
# Compressibility (1/GPa) = 0.02747339
#
# Stress axis : x y z
#
# Youngs Moduli (GPa) = 44.05829 106.06729 20.87322
#
# Poissons Ratio (x) = 0.11669 0.33745
# Poissons Ratio (y) = 0.04847 0.18813
# Poissons Ratio (z) = 0.71229 0.95599
#
# Static dielectric constant tensor:
#      x y z
#    x 2.613730 0.000000 0.000000 
#    y 0.000000 3.362500 0.000000 
#    z 0.000000 0.000000 2.723190 
# 
# 
# High freq. dielectric constant tensor:
#      x y z
#    x 1.517510 0.000000 0.000000 
#    y 0.000000 1.592240 0.000000 
#    z 0.000000 0.000000 1.544570 
# 
# From -- ./inp_files/48010.got.cif
#   From: 2010.03.12/outbox.cif.g09.slc.cpg/sg65_25_cif.got.tgz:48010.got - 2010.04.10 20:52:16.
