data_PCOD8269065
_publ_section_title
;
Structure prediction by ZEFSAII (Michael W. Deem and Ramdas Pophale) SiO2 
 PCOD8269065
Probable space group: C M M M
;
_chemical_formula_sum "Si O2"
_cell_formula_units_Z 80
_cell_length_a 23.927967
_cell_length_b 9.138882
_cell_length_c 20.170285
_cell_angle_alpha 90.000000
_cell_angle_beta 90.000000
_cell_angle_gamma 90.000000
_cell_volume 4410.734388
_symmetry_space_group_name_H-M "C M M M"
_symmetry_group_IT_number 65
_symmetry_cell_setting 'orthorhombic'
loop_
_space_group_symop_operation_xyz
x,y,z
-x,-y,z
x,-y,-z
-x,y,-z
-x,-y,-z
x,y,-z
-x,y,z
x,-y,z
1/2+x,1/2+y,z
1/2-x,1/2-y,z
1/2+x,1/2-y,-z
1/2-x,1/2+y,-z
1/2-x,1/2-y,-z
1/2+x,1/2+y,-z
1/2-x,1/2+y,z
1/2+x,1/2-y,z
loop_
_atom_site_type_symbol
_atom_site_label
_atom_site_fract_x
_atom_site_fract_y
_atom_site_fract_z
Si Si1 0.382816 0.826055 0.573634
Si Si2 0.308245 0.171285 0.693520
Si Si3 0.000000 0.672898 0.774640
Si Si4 0.119072 0.670951 0.822203
Si Si5 0.306260 0.669938 0.922949
Si Si6 0.500000 0.825169 0.373512
O O1 0.365169 0.773279 0.500000
O O2 0.337976 0.767074 0.626966
O O3 0.444807 0.765590 0.589500
O O4 0.384476 0.000000 0.578180
O O5 0.250000 0.250000 0.704663
O O6 0.348096 0.207397 0.755036
O O7 0.296710 0.000000 0.687559
O O8 0.944892 0.722986 0.813928
O O9 0.000000 0.500000 0.766507
O O10 0.000000 0.739471 0.700829
O O11 0.123476 0.500000 0.839665
O O12 0.142125 0.764180 0.883104
O O13 0.299178 0.500000 0.906458
O O14 0.250000 0.750000 0.899520
O O15 0.318146 0.698128 0.000000
O O16 0.500000 0.000000 0.372879
#
# Coordination Sequence:
#
# PCOD8269065 Si02
#       6
#    16  16   8  16  16   8
#     4   9  16  26  43  69  99 129 164 209 259 305
#     4  10  20  32  47  70 100 133 169 210 254 302
#     4   9  16  29  50  75 103 134 169 212 260 304
#     4  10  19  33  54  78 105 136 171 213 257 304
#     4  10  21  37  57  81 108 137 170 209 252 299
#     4   9  13  24  45  70  98 126 162 211 260 301
#
# _framework density 18.13757
#
# number of rings (size 3 to 8) (size 9 to 14) (size 15 to 20)
#    0.000    2.400    2.000    1.500    0.000    5.200 
#    0.000    1.000    0.000    3.000    0.000    0.700 
#    0.000    1.600    0.000    0.000    0.000    0.000 
#
# Total GULP energy -495994.333322 kJ/mol
# GULP energy per Si atom -12399.858333 kJ/mol
# Density = 1.809629 g / cm^3
# Si number density = 18.137570 Si / 1000 Ang^3
#
#
#
# Elastic Constant Matrix: (Units=GPa)
#
#
# Indices 1 2 3 4 5 6 
#
# 1 154.3048 45.4529 64.4328 0.0000 0.0000 0.0000
# 2 45.4529 43.6169 42.7270 0.0000 0.0000 0.0000
# 3 64.4328 42.7270 102.7588 0.0000 0.0000 0.0000
# 4 0.0000 0.0000 0.0000 16.0996 0.0000 0.0000
# 5 0.0000 0.0000 0.0000 0.0000 33.5819 0.0000
# 6 0.0000 0.0000 0.0000 0.0000 0.0000 20.6055
#
#
#
# Elastic Compliance Matrix: (Units=1/GPa)
#
#
# Indices 1 2 3 4 5 6 
#
# 1 0.009957 -0.007188 -0.003255 0.000000 0.000000 0.000000
# 2 -0.007188 0.043872 -0.013735 0.000000 0.000000 0.000000
# 3 -0.003255 -0.013735 0.017483 0.000000 0.000000 0.000000
# 4 0.000000 0.000000 0.000000 0.062113 0.000000 0.000000
# 5 0.000000 0.000000 0.000000 0.000000 0.029778 0.000000
# 6 0.000000 0.000000 0.000000 0.000000 0.000000 0.048531
#
#
# Mechanical properties :
#
#
# Convention : Reuss Voigt Hill
#
# Bulk Modulus (GPa) = 43.55897 67.32288 55.44093
# Shear Modulus (GPa) = 18.67474 23.92860 21.30167
#
# Velocity S-wave (km/s) = 3.21224 3.63614 3.43074
# Velocity P-wave (km/s) = 6.15029 7.40453 6.80636
#
# Compressibility (1/GPa) = 0.02295738
#
# Stress axis : x y z
#
# Youngs Moduli (GPa) = 100.43160 22.79359 57.19774
#
# Poissons Ratio (x) = 0.16384 0.18616
# Poissons Ratio (y) = 0.72190 0.78560
# Poissons Ratio (z) = 0.32687 0.31307
#
# Static dielectric constant tensor:
#      x y z
#    x 3.494060 0.000000 0.000000 
#    y 0.000000 2.901420 0.000000 
#    z 0.000000 0.000000 3.444380 
# 
# 
# High freq. dielectric constant tensor:
#      x y z
#    x 1.709780 0.000000 0.000000 
#    y 0.000000 1.653600 0.000000 
#    z 0.000000 0.000000 1.709930 
# 
# From -- ./inp_files/51365.got.cif
#   From: 2010.03.12/outbox.cif.g09.slc.cpg/sg65_26_cif.got.tgz:51365.got - 2010.04.10 20:52:16.
