data_PCOD8269249
_publ_section_title
;
Structure prediction by ZEFSAII (Michael W. Deem and Ramdas Pophale) SiO2 
 PCOD8269249
Probable space group: C M M M
;
_chemical_formula_sum "Si O2"
_cell_formula_units_Z 80
_cell_length_a 15.437692
_cell_length_b 7.810932
_cell_length_c 31.339371
_cell_angle_alpha 90.000000
_cell_angle_beta 90.000000
_cell_angle_gamma 90.000000
_cell_volume 3778.987929
_symmetry_space_group_name_H-M "C M M M"
_symmetry_group_IT_number 65
_symmetry_cell_setting 'orthorhombic'
loop_
_space_group_symop_operation_xyz
x,y,z
-x,-y,z
x,-y,-z
-x,y,-z
-x,-y,-z
x,y,-z
-x,y,z
x,-y,z
1/2+x,1/2+y,z
1/2-x,1/2-y,z
1/2+x,1/2-y,-z
1/2-x,1/2+y,-z
1/2-x,1/2-y,-z
1/2+x,1/2+y,-z
1/2-x,1/2+y,z
1/2+x,1/2-y,z
loop_
_atom_site_type_symbol
_atom_site_label
_atom_site_fract_x
_atom_site_fract_y
_atom_site_fract_z
Si Si1 0.896861 0.500000 0.547717
Si Si2 0.500000 0.796502 0.752670
Si Si3 0.100431 0.191616 0.605675
Si Si4 0.342874 0.799167 0.304477
Si Si5 0.151631 0.700522 0.000000
Si Si6 0.849009 0.297612 0.907991
Si Si7 0.500000 0.204541 0.848277
O O1 0.857970 0.500000 0.500000
O O2 0.863052 0.670347 0.571888
O O3 0.000000 0.500000 0.545627
O O4 0.584824 0.728886 0.728013
O O5 0.500000 0.720381 0.800423
O O6 0.500000 0.000000 0.754630
O O7 0.150361 0.205855 0.650140
O O8 0.000000 0.230045 0.614908
O O9 0.114206 0.000000 0.587091
O O10 0.250000 0.750000 0.284535
O O11 0.354559 0.000000 0.311680
O O12 0.250000 0.750000 0.000000
O O13 0.117062 0.774293 0.954528
O O14 0.135869 0.500000 0.000000
O O15 0.855160 0.500000 0.909218
O O16 0.750000 0.250000 0.897206
O O17 0.913863 0.224926 0.872057
O O18 0.500000 0.000000 0.847610
#
# Coordination Sequence:
#
# PCOD8269249 Si02
#       7
#     8   8  16  16   8  16   8
#     4   9  18  32  54  86 124 163 201 239 289 348
#     4   9  20  36  56  77 112 146 179 228 292 348
#     4  10  19  33  57  86 118 155 197 244 290 342
#     4  11  21  36  58  85 111 144 189 239 291 347
#     4   8  14  25  43  71  98 132 172 229 275 315
#     4   9  17  30  50  72 103 137 182 225 274 334
#     4   9  18  33  51  76 102 142 182 220 277 349
#
# _framework density 21.169688000000001
#
# number of rings (size 3 to 8) (size 9 to 14) (size 15 to 20)
#    0.000    2.500    2.000    0.600    0.000    1.600 
#    0.000    4.500    0.000    4.200    0.000    7.000 
#    0.000    0.000    0.000    0.000    0.000    0.000 
#
# Total GULP energy -495708.078608 kJ/mol
# GULP energy per Si atom -12392.701965 kJ/mol
# Density = 2.112150 g / cm^3
# Si number density = 21.169688 Si / 1000 Ang^3
#
#
#
# Elastic Constant Matrix: (Units=GPa)
#
#
# Indices 1 2 3 4 5 6 
#
# 1 121.9072 17.5488 75.4762 0.0000 0.0000 0.0000
# 2 17.5488 71.7030 36.2613 0.0000 0.0000 0.0000
# 3 75.4762 36.2613 194.5129 0.0000 0.0000 0.0000
# 4 0.0000 0.0000 0.0000 9.9991 0.0000 0.0000
# 5 0.0000 0.0000 0.0000 0.0000 14.0103 0.0000
# 6 0.0000 0.0000 0.0000 0.0000 0.0000 20.8801
#
#
#
# Elastic Compliance Matrix: (Units=1/GPa)
#
#
# Indices 1 2 3 4 5 6 
#
# 1 0.010819 -0.000579 -0.004090 0.000000 0.000000 0.000000
# 2 -0.000579 0.015429 -0.002651 0.000000 0.000000 0.000000
# 3 -0.004090 -0.002651 0.007222 0.000000 0.000000 0.000000
# 4 0.000000 0.000000 0.000000 0.100009 0.000000 0.000000
# 5 0.000000 0.000000 0.000000 0.000000 0.071376 0.000000
# 6 0.000000 0.000000 0.000000 0.000000 0.000000 0.047893
#
#
# Mechanical properties :
#
#
# Convention : Reuss Voigt Hill
#
# Bulk Modulus (GPa) = 53.11127 71.85508 62.48317
# Shear Modulus (GPa) = 18.27045 26.23367 22.25206
#
# Velocity S-wave (km/s) = 2.94095 3.52406 3.24563
# Velocity P-wave (km/s) = 6.05600 7.11159 6.60492
#
# Compressibility (1/GPa) = 0.01882840
#
# Stress axis : x y z
#
# Youngs Moduli (GPa) = 92.43415 64.81252 138.45989
#
# Poissons Ratio (x) = 0.03756 0.56628
# Poissons Ratio (y) = 0.05356 0.36712
# Poissons Ratio (z) = 0.37804 0.17185
#
# Static dielectric constant tensor:
#      x y z
#    x 3.853130 0.000000 0.000000 
#    y 0.000000 3.618120 0.000000 
#    z 0.000000 0.000000 4.202550 
# 
# 
# High freq. dielectric constant tensor:
#      x y z
#    x 1.814440 0.000000 0.000000 
#    y 0.000000 1.811170 0.000000 
#    z 0.000000 0.000000 1.826610 
# 
# From -- ./inp_files/75141.got.cif
#   From: 2010.03.12/outbox.cif.g09.slc.cpg/sg65_38_cif.got.tgz:75141.got - 2010.04.10 20:52:16.
