data_PCOD8269715
_publ_section_title
;
Structure prediction by ZEFSAII (Michael W. Deem and Ramdas Pophale) SiO2 
 PCOD8269715
Probable space group: C M M M
;
_chemical_formula_sum "Si O2"
_cell_formula_units_Z 104
_cell_length_a 7.997562
_cell_length_b 31.264317
_cell_length_c 31.485019
_cell_angle_alpha 90.000000
_cell_angle_beta 90.000000
_cell_angle_gamma 90.000000
_cell_volume 7872.461054
_symmetry_space_group_name_H-M "C M M M"
_symmetry_group_IT_number 65
_symmetry_cell_setting 'orthorhombic'
loop_
_space_group_symop_operation_xyz
x,y,z
-x,-y,z
x,-y,-z
-x,y,-z
-x,-y,-z
x,y,-z
-x,y,z
x,-y,z
1/2+x,1/2+y,z
1/2-x,1/2-y,z
1/2+x,1/2-y,-z
1/2-x,1/2+y,-z
1/2-x,1/2-y,-z
1/2+x,1/2+y,-z
1/2-x,1/2+y,z
1/2+x,1/2-y,z
loop_
_atom_site_type_symbol
_atom_site_label
_atom_site_fract_x
_atom_site_fract_y
_atom_site_fract_z
Si Si1 0.306270 0.453466 0.112948
Si Si2 0.195024 0.205548 0.951562
Si Si3 0.692393 0.884027 0.952126
Si Si4 0.311539 0.449211 0.206327
Si Si5 0.000000 0.449007 0.356705
Si Si6 0.685591 0.550894 0.589727
Si Si7 0.500000 0.051037 0.260483
Si Si8 0.311506 0.050892 0.500000
O O1 0.500000 0.461353 0.118025
O O2 0.223099 0.500000 0.102061
O O3 0.277792 0.419758 0.076035
O O4 0.246067 0.436329 0.159019
O O5 0.250000 0.250000 0.928560
O O6 0.278869 0.163126 0.931529
O O7 0.000000 0.199601 0.947585
O O8 0.258762 0.208174 0.000000
O O9 0.500000 0.895100 0.953327
O O10 0.768720 0.885604 0.000000
O O11 0.500000 0.430933 0.216299
O O12 0.320330 0.500000 0.209606
O O13 0.170456 0.431155 0.238545
O O14 0.168218 0.431229 0.379513
O O15 0.000000 0.432097 0.308627
O O16 0.000000 0.500000 0.358329
O O17 0.500000 0.566402 0.604502
O O18 0.692744 0.500000 0.590214
O O19 0.717220 0.567827 0.541923
O O20 0.500000 0.000000 0.258347
O O21 0.500000 0.068730 0.500000
O O22 0.314554 0.000000 0.500000
#
# Coordination Sequence:
#
# PCOD8269715 Si02
#       8
#    16  16  16  16   8  16   8   8
#     4   9  18  31  44  56  71  93 119 146 176 208
#     4   9  16  27  43  59  76  98 120 141 165 193
#     4  10  20  30  40  58  80  98 119 144 169 202
#     4   8  15  27  40  53  65  79 105 135 162 200
#     4   9  16  23  28  41  58  69  88 117 150 189
#     4   9  15  21  28  37  51  71  91 113 144 180
#     4   9  16  24  37  50  60  78  99 124 164 203
#     4   9  13  19  29  36  47  67  92 117 137 172
#
# _framework density 13.210608000000001
#
# number of rings (size 3 to 8) (size 9 to 14) (size 15 to 20)
#    0.000    3.000    0.769    2.077    1.077    4.923 
#    0.000    4.615    0.000    0.000    0.000    0.000 
#    0.000    0.000    0.000    0.000    0.000    0.000 
#
# Total GULP energy -644214.697681 kJ/mol
# GULP energy per Si atom -12388.744186 kJ/mol
# Density = 1.318054 g / cm^3
# Si number density = 13.210608 Si / 1000 Ang^3
#
#
#
# Elastic Constant Matrix: (Units=GPa)
#
#
# Indices 1 2 3 4 5 6 
#
# 1 76.2391 11.3149 38.1127 0.0000 0.0000 0.0000
# 2 11.3149 38.2885 25.3770 0.0000 0.0000 0.0000
# 3 38.1127 25.3770 84.0633 0.0000 0.0000 0.0000
# 4 0.0000 0.0000 0.0000 -0.3101 0.0000 0.0000
# 5 0.0000 0.0000 0.0000 0.0000 17.9526 0.0000
# 6 0.0000 0.0000 0.0000 0.0000 0.0000 10.9524
#
#
#
# Elastic Compliance Matrix: (Units=1/GPa)
#
#
# Indices 1 2 3 4 5 6 
#
# 1 0.016961 0.000106 -0.007722 0.000000 0.000000 0.000000
# 2 0.000106 0.032651 -0.009904 0.000000 0.000000 0.000000
# 3 -0.007722 -0.009904 0.018387 0.000000 0.000000 0.000000
# 4 0.000000 0.000000 0.000000 -3.224307 0.000000 0.000000
# 5 0.000000 0.000000 0.000000 0.000000 0.055702 0.000000
# 6 0.000000 0.000000 0.000000 0.000000 0.000000 0.091304
#
#
# Mechanical properties :
#
#
# Convention : Reuss Voigt Hill
#
# Bulk Modulus (GPa) = 30.34228 38.68888 34.51558
# Shear Modulus (GPa) = -1.68732 13.97139 6.14203
#
# Velocity S-wave (km/s) = -1.13138 3.25559 2.15857
# Velocity P-wave (km/s) = 4.61642 6.59406 5.69179
#
# Compressibility (1/GPa) = 0.03295731
#
# Stress axis : x y z
#
# Youngs Moduli (GPa) = 58.95835 30.62709 54.38739
#
# Poissons Ratio (x) = -0.00323 0.41996
# Poissons Ratio (y) = -0.00622 0.53868
# Poissons Ratio (z) = 0.45526 0.30334
#
# Static dielectric constant tensor:
#      x y z
#    x 2.857410 0.000000 0.000000 
#    y 0.000000 2.246620 0.000000 
#    z 0.000000 0.000000 2.705760 
# 
# 
# High freq. dielectric constant tensor:
#      x y z
#    x 1.521520 0.000000 0.000000 
#    y 0.000000 1.429890 0.000000 
#    z 0.000000 0.000000 1.482640 
# 
# From -- ./inp_files/74067.got.cif
#   From: 2010.03.12/outbox.cif.g09.slc.cpg/sg65_38_cif.got.tgz:74067.got - 2010.04.10 20:52:16.
