data_PCOD8269131
_publ_section_title
;
Structure prediction by ZEFSAII (Michael W. Deem and Ramdas Pophale) SiO2 
 PCOD8269131
Probable space group: C M M M
;
_chemical_formula_sum "Si O2"
_cell_formula_units_Z 96
_cell_length_a 23.639550
_cell_length_b 25.035379
_cell_length_c 8.992719
_cell_angle_alpha 90.000000
_cell_angle_beta 90.000000
_cell_angle_gamma 90.000000
_cell_volume 5322.116764
_symmetry_space_group_name_H-M "C M M M"
_symmetry_group_IT_number 65
_symmetry_cell_setting 'orthorhombic'
loop_
_space_group_symop_operation_xyz
x,y,z
-x,-y,z
x,-y,-z
-x,y,-z
-x,-y,-z
x,y,-z
-x,y,z
x,-y,z
1/2+x,1/2+y,z
1/2-x,1/2-y,z
1/2+x,1/2-y,-z
1/2-x,1/2+y,-z
1/2-x,1/2-y,-z
1/2+x,1/2+y,-z
1/2-x,1/2+y,z
1/2+x,1/2-y,z
loop_
_atom_site_type_symbol
_atom_site_label
_atom_site_fract_x
_atom_site_fract_y
_atom_site_fract_z
Si Si1 0.804018 0.560876 0.327311
Si Si2 0.618313 0.647241 0.674324
Si Si3 0.500000 0.696669 0.673298
Si Si4 0.611787 0.152729 0.675009
Si Si5 0.000000 0.688393 0.176579
Si Si6 0.187069 0.751128 0.676596
Si Si7 0.189221 0.061469 0.825886
O O1 0.789081 0.566978 0.500000
O O2 0.819120 0.500000 0.284249
O O3 0.858099 0.596726 0.286111
O O4 0.748871 0.581552 0.240297
O O5 0.626582 0.638219 0.500000
O O6 0.553711 0.660564 0.714168
O O7 0.656542 0.695748 0.734220
O O8 0.636740 0.593778 0.758168
O O9 0.500000 0.713164 0.500000
O O10 0.500000 0.751199 0.764689
O O11 0.598801 0.158232 0.500000
O O12 0.553915 0.155726 0.765301
O O13 0.652548 0.199893 0.732140
O O14 0.000000 0.689426 0.000000
O O15 0.189514 0.750654 0.500000
O O16 0.250000 0.750000 0.744735
O O17 0.179321 0.000000 0.782831
O O18 0.191048 0.070693 0.000000
#
# Coordination Sequence:
#
# PCOD8269131 Si02
#       7
#    16  16   8  16   8  16  16
#     4   9  18  34  59  87 109 137 182 230 272 315
#     4  10  19  33  55  79 104 136 182 229 267 317
#     4  10  20  38  59  78 103 143 186 224 276 325
#     4  10  19  35  57  78 108 144 180 224 273 322
#     4  12  24  36  53  78 111 147 186 224 264 321
#     4   9  16  27  49  80 106 131 166 212 270 324
#     4  10  21  36  54  78 112 150 179 211 268 332
#
# _framework density 18.037935000000001
#
# number of rings (size 3 to 8) (size 9 to 14) (size 15 to 20)
#    0.000    2.167    1.667    2.250    0.000    5.000 
#    0.000    0.833    0.000    7.000    0.000    0.000 
#    0.000    0.000    0.000    0.000    0.000    0.000 
#
# Total GULP energy -595320.486367 kJ/mol
# GULP energy per Si atom -12402.510133 kJ/mol
# Density = 1.799688 g / cm^3
# Si number density = 18.037935 Si / 1000 Ang^3
#
#
#
# Elastic Constant Matrix: (Units=GPa)
#
#
# Indices 1 2 3 4 5 6 
#
# 1 167.8114 74.5734 54.0097 0.0000 0.0000 0.0000
# 2 74.5734 105.7168 44.6425 0.0000 0.0000 0.0000
# 3 54.0097 44.6425 63.3341 0.0000 0.0000 0.0000
# 4 0.0000 0.0000 0.0000 20.7955 0.0000 0.0000
# 5 0.0000 0.0000 0.0000 0.0000 12.3552 0.0000
# 6 0.0000 0.0000 0.0000 0.0000 0.0000 28.0786
#
#
#
# Elastic Compliance Matrix: (Units=1/GPa)
#
#
# Indices 1 2 3 4 5 6 
#
# 1 0.009633 -0.004736 -0.004877 0.000000 0.000000 0.000000
# 2 -0.004736 0.015796 -0.007096 0.000000 0.000000 0.000000
# 3 -0.004877 -0.007096 0.024950 0.000000 0.000000 0.000000
# 4 0.000000 0.000000 0.000000 0.048087 0.000000 0.000000
# 5 0.000000 0.000000 0.000000 0.000000 0.080938 0.000000
# 6 0.000000 0.000000 0.000000 0.000000 0.000000 0.035614
#
#
# Mechanical properties :
#
#
# Convention : Reuss Voigt Hill
#
# Bulk Modulus (GPa) = 58.95392 75.92373 67.43883
# Shear Modulus (GPa) = 19.67808 23.15496 21.41652
#
# Velocity S-wave (km/s) = 3.30650 3.58674 3.44947
# Velocity P-wave (km/s) = 6.87979 7.70295 7.30298
#
# Compressibility (1/GPa) = 0.01696240
#
# Stress axis : x y z
#
# Youngs Moduli (GPa) = 103.80701 63.30525 40.08074
#
# Poissons Ratio (x) = 0.29981 0.19546
# Poissons Ratio (y) = 0.49163 0.28440
# Poissons Ratio (z) = 0.50624 0.44920
#
# Static dielectric constant tensor:
#      x y z
#    x 3.460100 0.000000 0.000000 
#    y 0.000000 3.384540 0.000000 
#    z 0.000000 0.000000 3.071500 
# 
# 
# High freq. dielectric constant tensor:
#      x y z
#    x 1.703650 0.000000 0.000000 
#    y 0.000000 1.699400 0.000000 
#    z 0.000000 0.000000 1.672930 
# 
# From -- ./inp_files/14363.got.cif
#   From: 2010.03.12/outbox.cif.g09.slc.cpg/sg65_8_cif.got.tgz:14363.got - 2010.04.10 20:52:16.
