data_PCOD8269223
_publ_section_title
;
Structure prediction by ZEFSAII (Michael W. Deem and Ramdas Pophale) SiO2 
 PCOD8269223
Probable space group: C M M M
;
_chemical_formula_sum "Si O2"
_cell_formula_units_Z 88
_cell_length_a 17.533886
_cell_length_b 28.729285
_cell_length_c 8.919349
_cell_angle_alpha 90.000000
_cell_angle_beta 90.000000
_cell_angle_gamma 90.000000
_cell_volume 4492.997260
_symmetry_space_group_name_H-M "C M M M"
_symmetry_group_IT_number 65
_symmetry_cell_setting 'orthorhombic'
loop_
_space_group_symop_operation_xyz
x,y,z
-x,-y,z
x,-y,-z
-x,y,-z
-x,-y,-z
x,y,-z
-x,y,z
x,-y,z
1/2+x,1/2+y,z
1/2-x,1/2-y,z
1/2+x,1/2-y,-z
1/2-x,1/2+y,-z
1/2-x,1/2-y,-z
1/2+x,1/2+y,-z
1/2-x,1/2+y,z
1/2+x,1/2-y,z
loop_
_atom_site_type_symbol
_atom_site_label
_atom_site_fract_x
_atom_site_fract_y
_atom_site_fract_z
Si Si1 0.909366 0.287220 0.168377
Si Si2 0.220351 0.446218 0.673253
Si Si3 0.640768 0.602564 0.177109
Si Si4 0.086065 0.379205 0.672896
Si Si5 0.589427 0.693913 0.674807
Si Si6 0.500000 0.445038 0.668994
O O1 0.878709 0.335386 0.237620
O O2 0.880718 0.243473 0.265217
O O3 0.000000 0.288410 0.172255
O O4 0.877937 0.282176 0.000000
O O5 0.245277 0.440280 0.500000
O O6 0.216210 0.500000 0.719085
O O7 0.279336 0.420090 0.779337
O O8 0.137097 0.424535 0.702521
O O9 0.637211 0.654701 0.240087
O O10 0.574579 0.571329 0.245941
O O11 0.631445 0.603805 0.000000
O O12 0.086616 0.364521 0.500000
O O13 0.000000 0.391176 0.725783
O O14 0.607096 0.691050 0.500000
O O15 0.500000 0.686335 0.709168
O O16 0.500000 0.500000 0.663441
O O17 0.500000 0.424225 0.500000
#
# Coordination Sequence:
#
# PCOD8269223 Si02
#       6
#    16  16  16  16  16   8
#     4   9  17  30  52  83 118 151 185 228 282 340
#     4  10  22  40  60  82 113 152 191 237 292 345
#     4  12  24  37  56  83 116 151 192 240 287 338
#     4   9  18  35  60  88 115 146 189 236 285 345
#     4  10  19  33  56  83 114 152 193 234 280 336
#     4  11  23  39  59  81 109 149 197 243 286 337
#
# _framework density 19.586034999999999
#
# number of rings (size 3 to 8) (size 9 to 14) (size 15 to 20)
#    0.000    1.909    0.909    3.545    0.000    7.273 
#    0.000    2.727    0.000    5.455    0.000    3.818 
#    0.000    0.000    0.000    0.000    0.000    0.000 
#
# Total GULP energy -545751.911741 kJ/mol
# GULP energy per Si atom -12403.452540 kJ/mol
# Density = 1.954146 g / cm^3
# Si number density = 19.586035 Si / 1000 Ang^3
#
#
#
# Elastic Constant Matrix: (Units=GPa)
#
#
# Indices 1 2 3 4 5 6 
#
# 1 77.2097 46.8338 41.5263 0.0000 0.0000 0.0000
# 2 46.8338 128.8531 59.4896 0.0000 0.0000 0.0000
# 3 41.5263 59.4896 131.2528 0.0000 0.0000 0.0000
# 4 0.0000 0.0000 0.0000 11.0366 0.0000 0.0000
# 5 0.0000 0.0000 0.0000 0.0000 84.0624 0.0000
# 6 0.0000 0.0000 0.0000 0.0000 0.0000 45.2574
#
#
#
# Elastic Compliance Matrix: (Units=1/GPa)
#
#
# Indices 1 2 3 4 5 6 
#
# 1 0.017740 -0.004877 -0.003402 0.000000 0.000000 0.000000
# 2 -0.004877 0.011155 -0.003513 0.000000 0.000000 0.000000
# 3 -0.003402 -0.003513 0.010288 0.000000 0.000000 0.000000
# 4 0.000000 0.000000 0.000000 0.090608 0.000000 0.000000
# 5 0.000000 0.000000 0.000000 0.000000 0.011896 0.000000
# 6 0.000000 0.000000 0.000000 0.000000 0.000000 0.022096
#
#
# Mechanical properties :
#
#
# Convention : Reuss Voigt Hill
#
# Bulk Modulus (GPa) = 64.10994 70.33501 67.22247
# Shear Modulus (GPa) = 25.96507 40.70234 33.33370
#
# Velocity S-wave (km/s) = 3.64496 4.56360 4.12990
# Velocity P-wave (km/s) = 7.10759 7.98482 7.55894
#
# Compressibility (1/GPa) = 0.01559820
#
# Stress axis : x y z
#
# Youngs Moduli (GPa) = 56.37015 89.64274 97.20517
#
# Poissons Ratio (x) = 0.43720 0.33070
# Poissons Ratio (y) = 0.27493 0.34149
# Poissons Ratio (z) = 0.19177 0.31492
#
# Static dielectric constant tensor:
#      x y z
#    x 3.350030 0.000000 0.000000 
#    y 0.000000 3.710690 0.000000 
#    z 0.000000 0.000000 3.664250 
# 
# 
# High freq. dielectric constant tensor:
#      x y z
#    x 1.737630 0.000000 0.000000 
#    y 0.000000 1.775930 0.000000 
#    z 0.000000 0.000000 1.766970 
# 
# From -- ./inp_files/10062.got.cif
#   From: 2010.03.12/outbox.cif.g09.slc.cpg/sg65_6_cif.got.tgz:10062.got - 2010.04.10 20:52:16.
