data_PCOD8269856
_publ_section_title
;
Structure prediction by ZEFSAII (Michael W. Deem and Ramdas Pophale) SiO2 
 PCOD8269856
Probable space group: C M M M
;
_chemical_formula_sum "Si O2"
_cell_formula_units_Z 80
_cell_length_a 7.690758
_cell_length_b 18.607822
_cell_length_c 29.679504
_cell_angle_alpha 90.000000
_cell_angle_beta 90.000000
_cell_angle_gamma 90.000000
_cell_volume 4247.382054
_symmetry_space_group_name_H-M "C M M M"
_symmetry_group_IT_number 65
_symmetry_cell_setting 'orthorhombic'
loop_
_space_group_symop_operation_xyz
x,y,z
-x,-y,z
x,-y,-z
-x,y,-z
-x,-y,-z
x,y,-z
-x,y,z
x,-y,z
1/2+x,1/2+y,z
1/2-x,1/2-y,z
1/2+x,1/2-y,-z
1/2-x,1/2+y,-z
1/2-x,1/2-y,-z
1/2+x,1/2+y,-z
1/2-x,1/2+y,z
1/2+x,1/2-y,z
loop_
_atom_site_type_symbol
_atom_site_label
_atom_site_fract_x
_atom_site_fract_y
_atom_site_fract_z
Si Si1 0.793082 0.080953 0.549655
Si Si2 0.693095 0.414546 0.050358
Si Si3 0.000000 0.584892 0.787124
Si Si4 0.299826 0.415608 0.720928
Si Si5 0.500000 0.086047 0.887834
Si Si6 0.703404 0.332530 0.366823
O O1 0.726696 0.105401 0.500000
O O2 0.712885 0.133541 0.587764
O O3 0.000000 0.083295 0.550445
O O4 0.729282 0.000000 0.559727
O O5 0.500000 0.387856 0.063955
O O6 0.699010 0.500000 0.050696
O O7 0.830416 0.383769 0.086272
O O8 0.740516 0.387352 0.000000
O O9 0.175833 0.609782 0.761732
O O10 0.000000 0.500000 0.790821
O O11 0.000000 0.617993 0.837305
O O12 0.500000 0.395707 0.732780
O O13 0.281311 0.500000 0.711295
O O14 0.228497 0.374444 0.676980
O O15 0.500000 0.000000 0.887330
O O16 0.500000 0.343927 0.369350
O O17 0.750000 0.250000 0.362867
#
# Coordination Sequence:
#
# PCOD8269856 Si02
#       6
#    16  16   8  16   8  16
#     4   8  14  27  48  71  94 122 156 189 224 277
#     4   8  13  20  30  46  72 109 149 186 225 270
#     4   9  18  29  44  65  85 114 154 198 249 285
#     4   9  18  33  50  66  88 119 156 197 238 286
#     4   9  15  22  33  52  76 103 144 194 235 273
#     4  10  20  31  47  71  94 119 152 192 237 283
#
# _framework density 18.835129999999999
#
# number of rings (size 3 to 8) (size 9 to 14) (size 15 to 20)
#    0.000    3.200    0.000    2.100    1.400    4.800 
#    0.000    4.000    0.000    0.000    0.000    1.400 
#    0.000    0.000    0.000    0.000    0.000    4.000 
#
# Total GULP energy -495730.837947 kJ/mol
# GULP energy per Si atom -12393.270949 kJ/mol
# Density = 1.879226 g / cm^3
# Si number density = 18.835130 Si / 1000 Ang^3
#
#
#
# Elastic Constant Matrix: (Units=GPa)
#
#
# Indices 1 2 3 4 5 6 
#
# 1 91.7846 20.5916 81.7786 0.0000 0.0000 0.0000
# 2 20.5916 49.8896 47.6626 0.0000 0.0000 0.0000
# 3 81.7786 47.6626 195.7607 0.0000 0.0000 0.0000
# 4 0.0000 0.0000 0.0000 4.9167 0.0000 0.0000
# 5 0.0000 0.0000 0.0000 0.0000 8.0288 0.0000
# 6 0.0000 0.0000 0.0000 0.0000 0.0000 12.5341
#
#
#
# Elastic Compliance Matrix: (Units=1/GPa)
#
#
# Indices 1 2 3 4 5 6 
#
# 1 0.017358 -0.000309 -0.007176 0.000000 0.000000 0.000000
# 2 -0.000309 0.026125 -0.006232 0.000000 0.000000 0.000000
# 3 -0.007176 -0.006232 0.009623 0.000000 0.000000 0.000000
# 4 0.000000 0.000000 0.000000 0.203390 0.000000 0.000000
# 5 0.000000 0.000000 0.000000 0.000000 0.124551 0.000000
# 6 0.000000 0.000000 0.000000 0.000000 0.000000 0.079782
#
#
# Mechanical properties :
#
#
# Convention : Reuss Voigt Hill
#
# Bulk Modulus (GPa) = 38.95067 70.83339 54.89203
# Shear Modulus (GPa) = 10.06398 17.58940 13.82669
#
# Velocity S-wave (km/s) = 2.31404 3.05923 2.71235
# Velocity P-wave (km/s) = 5.27868 7.08288 6.24626
#
# Compressibility (1/GPa) = 0.02567350
#
# Stress axis : x y z
#
# Youngs Moduli (GPa) = 57.60968 38.27698 103.91314
#
# Poissons Ratio (x) = 0.01181 0.74570
# Poissons Ratio (y) = 0.01778 0.64758
# Poissons Ratio (z) = 0.41342 0.23854
#
# Static dielectric constant tensor:
#      x y z
#    x 3.502030 0.000000 0.000000 
#    y 0.000000 2.886780 0.000000 
#    z 0.000000 0.000000 3.861440 
# 
# 
# High freq. dielectric constant tensor:
#      x y z
#    x 1.727230 0.000000 0.000000 
#    y 0.000000 1.670970 0.000000 
#    z 0.000000 0.000000 1.737230 
# 
# From -- ./inp_files/75038.got.cif
#   From: 2010.03.12/outbox.cif.g09.slc.cpg/sg65_38_cif.got.tgz:75038.got - 2010.04.10 20:52:16.
