data_PCOD8269951
_publ_section_title
;
Structure prediction by ZEFSAII (Michael W. Deem and Ramdas Pophale) SiO2 
 PCOD8269951
Probable space group: C M M M
;
_chemical_formula_sum "Si O2"
_cell_formula_units_Z 96
_cell_length_a 9.549426
_cell_length_b 18.835968
_cell_length_c 31.242551
_cell_angle_alpha 90.000000
_cell_angle_beta 90.000000
_cell_angle_gamma 90.000000
_cell_volume 5619.681458
_symmetry_space_group_name_H-M "C M M M"
_symmetry_group_IT_number 65
_symmetry_cell_setting 'orthorhombic'
loop_
_space_group_symop_operation_xyz
x,y,z
-x,-y,z
x,-y,-z
-x,y,-z
-x,-y,-z
x,y,-z
-x,y,z
x,-y,z
1/2+x,1/2+y,z
1/2-x,1/2-y,z
1/2+x,1/2-y,-z
1/2-x,1/2+y,-z
1/2-x,1/2-y,-z
1/2+x,1/2+y,-z
1/2-x,1/2+y,z
1/2+x,1/2-y,z
loop_
_atom_site_type_symbol
_atom_site_label
_atom_site_fract_x
_atom_site_fract_y
_atom_site_fract_z
Si Si1 0.661615 0.418341 0.124458
Si Si2 0.162070 0.418344 0.795321
Si Si3 0.843381 0.584266 0.454719
Si Si4 0.332531 0.079979 0.362873
Si Si5 0.662103 0.318462 0.951766
Si Si6 0.834913 0.677664 0.714421
O O1 0.500000 0.405198 0.135627
O O2 0.695950 0.500000 0.116344
O O3 0.750730 0.389283 0.164326
O O4 0.706373 0.379893 0.080836
O O5 0.200797 0.500000 0.784541
O O6 0.201936 0.370513 0.755038
O O7 0.000000 0.411156 0.807150
O O8 0.767473 0.607973 0.500000
O O9 0.850542 0.500000 0.453062
O O10 0.772887 0.607669 0.409439
O O11 0.000000 0.615424 0.456304
O O12 0.500000 0.078231 0.364419
O O13 0.280444 0.134521 0.326970
O O14 0.278171 0.000000 0.352553
O O15 0.500000 0.298395 0.947089
O O16 0.750000 0.250000 0.939296
O O17 0.696204 0.344433 0.000000
O O18 0.750000 0.750000 0.717770
O O19 0.000000 0.694024 0.711768
#
# Coordination Sequence:
#
# PCOD8269951 Si02
#       6
#    16  16  16  16  16  16
#     4   9  18  32  50  72  95 118 146 182 224 266
#     4   9  18  33  51  68  87 114 149 186 222 262
#     4   7   9  14  28  54  84 107 131 172 222 260
#     4   8  13  23  41  62  83 111 147 183 218 258
#     4   9  18  32  49  69  94 124 155 185 217 256
#     4  10  20  32  46  65  89 117 148 182 220 262
#
# _framework density 17.082819000000001
#
# number of rings (size 3 to 8) (size 9 to 14) (size 15 to 20)
#    0.000    3.333    0.000    2.000    0.000    4.333 
#    0.000    5.000    0.000    2.000    0.000    4.667 
#    0.000    0.000    0.000    4.167    0.000    3.333 
#
# Total GULP energy -594690.057929 kJ/mol
# GULP energy per Si atom -12389.376207 kJ/mol
# Density = 1.704394 g / cm^3
# Si number density = 17.082819 Si / 1000 Ang^3
#
#
#
# Elastic Constant Matrix: (Units=GPa)
#
#
# Indices 1 2 3 4 5 6 
#
# 1 31.4663 34.5080 50.9728 0.0000 0.0000 0.0000
# 2 34.5080 81.5199 78.8846 0.0000 0.0000 0.0000
# 3 50.9728 78.8846 178.8425 0.0000 0.0000 0.0000
# 4 0.0000 0.0000 0.0000 7.0969 0.0000 0.0000
# 5 0.0000 0.0000 0.0000 0.0000 13.4906 0.0000
# 6 0.0000 0.0000 0.0000 0.0000 0.0000 22.9686
#
#
#
# Elastic Compliance Matrix: (Units=1/GPa)
#
#
# Indices 1 2 3 4 5 6 
#
# 1 0.072235 -0.018590 -0.012388 0.000000 0.000000 0.000000
# 2 -0.018590 0.026186 -0.006252 0.000000 0.000000 0.000000
# 3 -0.012388 -0.006252 0.011880 0.000000 0.000000 0.000000
# 4 0.000000 0.000000 0.000000 0.140908 0.000000 0.000000
# 5 0.000000 0.000000 0.000000 0.000000 0.074126 0.000000
# 6 0.000000 0.000000 0.000000 0.000000 0.000000 0.043538
#
#
# Mechanical properties :
#
#
# Convention : Reuss Voigt Hill
#
# Bulk Modulus (GPa) = 27.90116 68.95105 48.42610
# Shear Modulus (GPa) = 10.98231 17.20877 14.09554
#
# Velocity S-wave (km/s) = 2.53827 3.17736 2.87562
# Velocity P-wave (km/s) = 4.99587 7.34243 6.27973
#
# Compressibility (1/GPa) = 0.03584081
#
# Stress axis : x y z
#
# Youngs Moduli (GPa) = 13.84379 38.18877 84.17535
#
# Poissons Ratio (x) = 0.70991 1.04280
# Poissons Ratio (y) = 0.25735 0.52625
# Poissons Ratio (z) = 0.17150 0.23875
#
# Static dielectric constant tensor:
#      x y z
#    x 2.843610 0.000000 0.000000 
#    y 0.000000 2.997220 0.000000 
#    z 0.000000 0.000000 3.745070 
# 
# 
# High freq. dielectric constant tensor:
#      x y z
#    x 1.614660 0.000000 0.000000 
#    y 0.000000 1.633450 0.000000 
#    z 0.000000 0.000000 1.684550 
# 
# From -- ./inp_files/74366.got.cif
#   From: 2010.03.12/outbox.cif.g09.slc.cpg/sg65_38_cif.got.tgz:74366.got - 2010.04.10 20:52:16.
