data_PCOD8269217
_publ_section_title
;
Structure prediction by ZEFSAII (Michael W. Deem and Ramdas Pophale) SiO2 
 PCOD8269217
Probable space group: C M M M
;
_chemical_formula_sum "Si O2"
_cell_formula_units_Z 128
_cell_length_a 16.510201
_cell_length_b 18.001410
_cell_length_c 23.355642
_cell_angle_alpha 90.000000
_cell_angle_beta 90.000000
_cell_angle_gamma 90.000000
_cell_volume 6941.457895
_symmetry_space_group_name_H-M "C M M M"
_symmetry_group_IT_number 65
_symmetry_cell_setting 'orthorhombic'
loop_
_space_group_symop_operation_xyz
x,y,z
-x,-y,z
x,-y,-z
-x,y,-z
-x,-y,-z
x,y,-z
-x,y,z
x,-y,z
1/2+x,1/2+y,z
1/2-x,1/2-y,z
1/2+x,1/2-y,-z
1/2-x,1/2+y,-z
1/2-x,1/2-y,-z
1/2+x,1/2+y,-z
1/2-x,1/2+y,z
1/2+x,1/2-y,z
loop_
_atom_site_type_symbol
_atom_site_label
_atom_site_fract_x
_atom_site_fract_y
_atom_site_fract_z
Si Si1 0.403252 0.083084 0.760390
Si Si2 0.097093 0.223614 0.563596
Si Si3 0.596504 0.418348 0.628568
Si Si4 0.591335 0.807223 0.329676
Si Si5 0.324745 0.696615 0.853093
Si Si6 0.762737 0.414340 0.066212
Si Si7 0.591467 0.658370 0.259138
Si Si8 0.093233 0.659738 0.122619
O O1 0.500000 0.083683 0.757608
O O2 0.367077 0.123217 0.703103
O O3 0.375720 0.127320 0.816623
O O4 0.368232 0.000000 0.762529
O O5 0.129791 0.242012 0.500000
O O6 0.127944 0.141626 0.582202
O O7 0.132534 0.283736 0.609561
O O8 0.000000 0.224820 0.565321
O O9 0.500000 0.416381 0.628947
O O10 0.629391 0.500000 0.611784
O O11 0.625855 0.397830 0.692701
O O12 0.500000 0.829519 0.344637
O O13 0.592846 0.740517 0.284797
O O14 0.250000 0.750000 0.838780
O O15 0.303083 0.633855 0.899306
O O16 0.351949 0.653419 0.796203
O O17 0.395459 0.750797 0.877291
O O18 0.760539 0.500000 0.086555
O O19 0.852650 0.380465 0.074649
O O20 0.739772 0.407836 0.000000
O O21 0.500000 0.637215 0.241147
O O22 0.000000 0.640478 0.110078
#
# Coordination Sequence:
#
# PCOD8269217 Si02
#       8
#    16  16  16  16  16  16  16  16
#     4   9  15  23  40  67  94 117 144 188 250 302
#     4   8  13  20  31  49  78 121 163 192 228 282
#     4   8  14  22  34  57  86 115 152 199 243 282
#     4   8  13  22  37  57  85 118 152 191 235 286
#     4  10  20  32  52  76 100 131 164 198 247 302
#     4  10  23  41  55  71 103 143 172 197 241 301
#     4   9  15  27  46  66  91 122 159 201 244 287
#     4  10  19  33  56  83 103 123 163 217 258 294
#
# _framework density 18.439931000000001
#
# number of rings (size 3 to 8) (size 9 to 14) (size 15 to 20)
#    0.000    3.000    1.250    2.250    0.000    4.000 
#    0.000    1.875    0.000    2.625    0.000    6.125 
#    0.000    8.000    0.000    0.000    4.000    0.250 
#
# Total GULP energy -793069.128059 kJ/mol
# GULP energy per Si atom -12391.705126 kJ/mol
# Density = 1.839796 g / cm^3
# Si number density = 18.439931 Si / 1000 Ang^3
#
#
#
# Elastic Constant Matrix: (Units=GPa)
#
#
# Indices 1 2 3 4 5 6 
#
# 1 25.5437 15.0939 24.9643 0.0000 0.0000 0.0000
# 2 15.0939 96.1050 43.2066 0.0000 0.0000 0.0000
# 3 24.9643 43.2066 113.2270 0.0000 0.0000 0.0000
# 4 0.0000 0.0000 0.0000 23.7739 0.0000 0.0000
# 5 0.0000 0.0000 0.0000 0.0000 14.4405 0.0000
# 6 0.0000 0.0000 0.0000 0.0000 0.0000 14.1873
#
#
#
# Elastic Compliance Matrix: (Units=1/GPa)
#
#
# Indices 1 2 3 4 5 6 
#
# 1 0.050890 -0.003559 -0.009862 0.000000 0.000000 0.000000
# 2 -0.003559 0.012809 -0.004103 0.000000 0.000000 0.000000
# 3 -0.009862 -0.004103 0.012572 0.000000 0.000000 0.000000
# 4 0.000000 0.000000 0.000000 0.042063 0.000000 0.000000
# 5 0.000000 0.000000 0.000000 0.000000 0.069250 0.000000
# 6 0.000000 0.000000 0.000000 0.000000 0.000000 0.070485
#
#
# Mechanical properties :
#
#
# Convention : Reuss Voigt Hill
#
# Bulk Modulus (GPa) = 24.25853 44.60060 34.42956
# Shear Modulus (GPa) = 16.29417 20.58774 18.44096
#
# Velocity S-wave (km/s) = 2.97583 3.34500 3.16580
# Velocity P-wave (km/s) = 4.99914 6.25765 5.66346
#
# Compressibility (1/GPa) = 0.04122262
#
# Stress axis : x y z
#
# Youngs Moduli (GPa) = 19.65019 78.07076 79.54210
#
# Poissons Ratio (x) = 0.27784 0.78446
# Poissons Ratio (y) = 0.06993 0.32637
# Poissons Ratio (z) = 0.19379 0.32033
#
# Static dielectric constant tensor:
#      x y z
#    x 2.932980 0.000000 0.000000 
#    y 0.000000 3.599410 0.000000 
#    z 0.000000 0.000000 3.459460 
# 
# 
# High freq. dielectric constant tensor:
#      x y z
#    x 1.663690 0.000000 0.000000 
#    y 0.000000 1.711330 0.000000 
#    z 0.000000 0.000000 1.709850 
# 
# From -- ./inp_files/70653.got.cif
#   From: 2010.03.12/outbox.cif.g09.slc.cpg/sg65_36_cif.got.tgz:70653.got - 2010.04.10 20:52:16.
