data_PCOD8269478
_publ_section_title
;
Structure prediction by ZEFSAII (Michael W. Deem and Ramdas Pophale) SiO2 
 PCOD8269478
Probable space group: C M M M
;
_chemical_formula_sum "Si O2"
_cell_formula_units_Z 72
_cell_length_a 17.834945
_cell_length_b 9.862266
_cell_length_c 21.711815
_cell_angle_alpha 90.000000
_cell_angle_beta 90.000000
_cell_angle_gamma 90.000000
_cell_volume 3818.955661
_symmetry_space_group_name_H-M "C M M M"
_symmetry_group_IT_number 65
_symmetry_cell_setting 'orthorhombic'
loop_
_space_group_symop_operation_xyz
x,y,z
-x,-y,z
x,-y,-z
-x,y,-z
-x,-y,-z
x,y,-z
-x,y,z
x,-y,z
1/2+x,1/2+y,z
1/2-x,1/2-y,z
1/2+x,1/2-y,-z
1/2-x,1/2+y,-z
1/2-x,1/2-y,-z
1/2+x,1/2+y,-z
1/2-x,1/2+y,z
1/2+x,1/2-y,z
loop_
_atom_site_type_symbol
_atom_site_label
_atom_site_fract_x
_atom_site_fract_y
_atom_site_fract_z
Si Si1 0.411127 0.245909 0.852077
Si Si2 0.588987 0.000000 0.067548
Si Si3 0.410925 0.500000 0.929939
Si Si4 0.587039 0.846584 0.390809
Si Si5 0.089138 0.154937 0.500000
Si Si6 0.323284 0.840630 0.734062
O O1 0.500000 0.246025 0.841554
O O2 0.382097 0.127961 0.895732
O O3 0.382286 0.375440 0.889319
O O4 0.373326 0.228849 0.786316
O O5 0.500000 0.000000 0.062125
O O6 0.625540 0.000000 0.000000
O O7 0.500000 0.500000 0.935519
O O8 0.377864 0.500000 0.000000
O O9 0.500000 0.820654 0.376496
O O10 0.617661 0.737368 0.440235
O O11 0.631956 0.824233 0.328729
O O12 0.598709 0.000000 0.416154
O O13 0.000000 0.153051 0.500000
O O14 0.120642 0.000000 0.500000
O O15 0.250000 0.750000 0.728359
O O16 0.306247 0.000000 0.747635
#
# Coordination Sequence:
#
# PCOD8269478 Si02
#       6
#    16   8   8  16   8  16
#     4  10  19  34  57  83 110 142 183 227 275 329
#     4   9  16  28  53  85 109 132 173 230 279 321
#     4   9  18  32  53  85 117 140 171 224 285 337
#     4   9  18  35  60  85 111 145 185 224 267 322
#     4   9  17  31  54  89 122 143 171 221 276 321
#     4  11  24  39  56  79 111 149 189 232 277 326
#
# _framework density 18.853321999999999
#
# number of rings (size 3 to 8) (size 9 to 14) (size 15 to 20)
#    0.000    2.333    1.111    1.667    1.556    5.778 
#    0.000    0.556    0.000    4.000    0.000    0.000 
#    0.000    0.000    0.000    0.000    0.000    0.000 
#
# Total GULP energy -446216.994473 kJ/mol
# GULP energy per Si atom -12394.916513 kJ/mol
# Density = 1.881041 g / cm^3
# Si number density = 18.853322 Si / 1000 Ang^3
#
#
#
# Elastic Constant Matrix: (Units=GPa)
#
#
# Indices 1 2 3 4 5 6 
#
# 1 51.8370 43.2166 44.7798 0.0000 0.0000 0.0000
# 2 43.2166 180.1572 95.3196 0.0000 0.0000 0.0000
# 3 44.7798 95.3196 157.9544 0.0000 0.0000 0.0000
# 4 0.0000 0.0000 0.0000 27.8788 0.0000 0.0000
# 5 0.0000 0.0000 0.0000 0.0000 -7.2322 0.0000
# 6 0.0000 0.0000 0.0000 0.0000 0.0000 32.3788
#
#
#
# Elastic Compliance Matrix: (Units=1/GPa)
#
#
# Indices 1 2 3 4 5 6 
#
# 1 0.027024 -0.003568 -0.005508 0.000000 0.000000 0.000000
# 2 -0.003568 0.008625 -0.004193 0.000000 0.000000 0.000000
# 3 -0.005508 -0.004193 0.010423 0.000000 0.000000 0.000000
# 4 0.000000 0.000000 0.000000 0.035870 0.000000 0.000000
# 5 0.000000 0.000000 0.000000 0.000000 -0.138270 0.000000
# 6 0.000000 0.000000 0.000000 0.000000 0.000000 0.030884
#
#
# Mechanical properties :
#
#
# Convention : Reuss Voigt Hill
#
# Bulk Modulus (GPa) = 51.19522 84.06451 67.62986
# Shear Modulus (GPa) = 657.27914 24.38057 340.82986
#
# Velocity S-wave (km/s) = 18.69183 3.59997 13.46002
# Velocity P-wave (km/s) = 22.20494 7.87180 16.65870
#
# Compressibility (1/GPa) = 0.01953307
#
# Stress axis : x y z
#
# Youngs Moduli (GPa) = 37.00373 115.93581 95.94135
#
# Poissons Ratio (x) = 0.41372 0.52843
# Poissons Ratio (y) = 0.13205 0.40233
# Poissons Ratio (z) = 0.20381 0.48618
#
# Static dielectric constant tensor:
#      x y z
#    x 3.038410 0.000000 0.000000 
#    y 0.000000 3.782320 0.000000 
#    z 0.000000 0.000000 3.606470 
# 
# 
# High freq. dielectric constant tensor:
#      x y z
#    x 1.688410 0.000000 0.000000 
#    y 0.000000 1.747480 0.000000 
#    z 0.000000 0.000000 1.748720 
# 
# From -- ./inp_files/64419.got.cif
#   From: 2010.03.12/outbox.cif.g09.slc.cpg/sg65_33_cif.got.tgz:64419.got - 2010.04.10 20:52:16.
