data_PCOD8269878
_publ_section_title
;
Structure prediction by ZEFSAII (Michael W. Deem and Ramdas Pophale) SiO2 
 PCOD8269878
Probable space group: C M M M
;
_chemical_formula_sum "Si O2"
_cell_formula_units_Z 88
_cell_length_a 26.799007
_cell_length_b 7.442105
_cell_length_c 23.055255
_cell_angle_alpha 90.000000
_cell_angle_beta 90.000000
_cell_angle_gamma 90.000000
_cell_volume 4598.163666
_symmetry_space_group_name_H-M "C M M M"
_symmetry_group_IT_number 65
_symmetry_cell_setting 'orthorhombic'
loop_
_space_group_symop_operation_xyz
x,y,z
-x,-y,z
x,-y,-z
-x,y,-z
-x,-y,-z
x,y,-z
-x,y,z
x,-y,z
1/2+x,1/2+y,z
1/2-x,1/2-y,z
1/2+x,1/2-y,-z
1/2-x,1/2+y,-z
1/2-x,1/2-y,-z
1/2+x,1/2+y,-z
1/2-x,1/2+y,z
1/2+x,1/2-y,z
loop_
_atom_site_type_symbol
_atom_site_label
_atom_site_fract_x
_atom_site_fract_y
_atom_site_fract_z
Si Si1 0.942038 0.000000 0.786455
Si Si2 0.866730 0.285021 0.387030
Si Si3 0.941458 0.000000 0.649369
Si Si4 0.191381 0.291148 0.500000
Si Si5 0.194517 0.709721 0.063954
Si Si6 0.870539 0.285736 0.830367
Si Si7 0.192559 0.707764 0.276841
O O1 0.930284 0.000000 0.718077
O O2 0.921383 0.820183 0.817676
O O3 0.000000 0.000000 0.798854
O O4 0.876665 0.500000 0.387303
O O5 0.919009 0.179554 0.380858
O O6 0.836626 0.215631 0.443391
O O7 0.833244 0.212747 0.333841
O O8 0.000000 0.000000 0.636539
O O9 0.184039 0.500000 0.500000
O O10 0.250000 0.250000 0.500000
O O11 0.187271 0.500000 0.058830
O O12 0.250000 0.750000 0.087687
O O13 0.153096 0.781555 0.108766
O O14 0.187087 0.798831 0.000000
O O15 0.880537 0.500000 0.829103
O O16 0.831719 0.216981 0.781675
O O17 0.182297 0.500000 0.278382
O O18 0.250000 0.750000 0.277640
#
# Coordination Sequence:
#
# PCOD8269878 Si02
#       7
#     8  16   8   8  16  16  16
#     4  11  24  40  62  88 110 148 203 251 306 350
#     4  10  22  40  57  85 122 151 192 242 287 350
#     4  11  24  41  66  88 110 155 201 251 309 342
#     4  10  22  38  60  89 121 164 196 226 285 350
#     4   9  18  32  52  82 119 159 195 227 279 348
#     4  10  21  37  55  83 117 148 190 241 295 346
#     4  10  20  31  51  80 112 151 184 225 285 340
#
# _framework density 19.138075000000001
#
# number of rings (size 3 to 8) (size 9 to 14) (size 15 to 20)
#    0.000    2.000    1.818    1.091    5.091    0.727 
#    0.000    2.727    0.000    2.727    0.000    2.545 
#    0.000    0.000    0.000    0.000    0.000    0.000 
#
# Total GULP energy -545383.019021 kJ/mol
# GULP energy per Si atom -12395.068614 kJ/mol
# Density = 1.909452 g / cm^3
# Si number density = 19.138075 Si / 1000 Ang^3
#
#
#
# Elastic Constant Matrix: (Units=GPa)
#
#
# Indices 1 2 3 4 5 6 
#
# 1 150.7790 46.8652 76.6192 0.0000 0.0000 0.0000
# 2 46.8652 68.6688 36.1526 0.0000 0.0000 0.0000
# 3 76.6192 36.1526 144.0240 0.0000 0.0000 0.0000
# 4 0.0000 0.0000 0.0000 7.6200 0.0000 0.0000
# 5 0.0000 0.0000 0.0000 0.0000 34.7243 0.0000
# 6 0.0000 0.0000 0.0000 0.0000 0.0000 34.0287
#
#
#
# Elastic Compliance Matrix: (Units=1/GPa)
#
#
# Indices 1 2 3 4 5 6 
#
# 1 0.010287 -0.004770 -0.004275 0.000000 0.000000 0.000000
# 2 -0.004770 0.018992 -0.002230 0.000000 0.000000 0.000000
# 3 -0.004275 -0.002230 0.009777 0.000000 0.000000 0.000000
# 4 0.000000 0.000000 0.000000 0.131233 0.000000 0.000000
# 5 0.000000 0.000000 0.000000 0.000000 0.028798 0.000000
# 6 0.000000 0.000000 0.000000 0.000000 0.000000 0.029387
#
#
# Mechanical properties :
#
#
# Convention : Reuss Voigt Hill
#
# Bulk Modulus (GPa) = 60.58217 75.86065 68.22141
# Shear Modulus (GPa) = 19.49105 28.86360 24.17733
#
# Velocity S-wave (km/s) = 3.19477 3.88774 3.55816
# Velocity P-wave (km/s) = 6.73296 7.73804 7.25293
#
# Compressibility (1/GPa) = 0.01650651
#
# Stress axis : x y z
#
# Youngs Moduli (GPa) = 97.20584 52.65367 102.27588
#
# Poissons Ratio (x) = 0.25116 0.43727
# Poissons Ratio (y) = 0.46368 0.22805
# Poissons Ratio (z) = 0.41560 0.11740
#
# Static dielectric constant tensor:
#      x y z
#    x 3.220760 0.000000 0.000000 
#    y 0.000000 2.817210 0.000000 
#    z 0.000000 0.000000 4.224410 
# 
# 
# High freq. dielectric constant tensor:
#      x y z
#    x 1.720450 0.000000 0.000000 
#    y 0.000000 1.748370 0.000000 
#    z 0.000000 0.000000 1.754440 
# 
# From -- ./inp_files/65272.got.cif
#   From: 2010.03.12/outbox.cif.g09.slc.cpg/sg65_33_cif.got.tgz:65272.got - 2010.04.10 20:52:16.
