data_PCOD8269813
_publ_section_title
;
Structure prediction by ZEFSAII (Michael W. Deem and Ramdas Pophale) SiO2 
 PCOD8269813
Probable space group: C M M M
;
_chemical_formula_sum "Si O2"
_cell_formula_units_Z 80
_cell_length_a 14.580528
_cell_length_b 27.258903
_cell_length_c 11.785877
_cell_angle_alpha 90.000000
_cell_angle_beta 90.000000
_cell_angle_gamma 90.000000
_cell_volume 4684.287367
_symmetry_space_group_name_H-M "C M M M"
_symmetry_group_IT_number 65
_symmetry_cell_setting 'orthorhombic'
loop_
_space_group_symop_operation_xyz
x,y,z
-x,-y,z
x,-y,-z
-x,y,-z
-x,-y,-z
x,y,-z
-x,y,z
x,-y,z
1/2+x,1/2+y,z
1/2-x,1/2-y,z
1/2+x,1/2-y,-z
1/2-x,1/2+y,-z
1/2-x,1/2-y,-z
1/2+x,1/2+y,-z
1/2-x,1/2+y,z
1/2+x,1/2-y,z
loop_
_atom_site_type_symbol
_atom_site_label
_atom_site_fract_x
_atom_site_fract_y
_atom_site_fract_z
Si Si1 0.900466 0.321316 0.237695
Si Si2 0.676638 0.675837 0.000000
Si Si3 0.207202 0.138106 0.239209
Si Si4 0.125934 0.720445 0.000000
Si Si5 0.605863 0.276595 0.631406
Si Si6 0.394972 0.556952 0.630560
O O1 0.818688 0.361235 0.243144
O O2 0.918782 0.302485 0.111100
O O3 0.870667 0.276124 0.316757
O O4 0.000000 0.343149 0.278271
O O5 0.669382 0.641576 0.110656
O O6 0.768515 0.706929 0.000000
O O7 0.603814 0.720724 0.000000
O O8 0.168828 0.183223 0.310184
O O9 0.173774 0.086828 0.289944
O O10 0.631343 0.274897 0.500000
O O11 0.500000 0.290852 0.650772
O O12 0.375748 0.570690 0.500000
O O13 0.500000 0.570085 0.660788
O O14 0.375794 0.500000 0.652357
#
# Coordination Sequence:
#
# PCOD8269813 Si02
#       6
#    16   8  16   8  16  16
#     4  10  20  31  46  69  99 136 170 199 233 281
#     4   9  18  28  47  75  98 128 169 206 237 283
#     4  11  19  32  51  71  99 129 163 203 245 289
#     4   9  15  32  48  64  98 137 174 205 234 270
#     4  10  20  31  44  67  97 128 164 202 243 290
#     4   9  19  37  59  79  96 118 156 204 252 304
#
# _framework density 17.078371000000001
#
# number of rings (size 3 to 8) (size 9 to 14) (size 15 to 20)
#    0.000    2.200    2.000    2.700    0.000    4.000 
#    0.000    2.500    0.000    1.800    0.000    1.400 
#    0.000    4.800    0.000    0.000    0.000    0.000 
#
# Total GULP energy -495813.312443 kJ/mol
# GULP energy per Si atom -12395.332811 kJ/mol
# Density = 1.703950 g / cm^3
# Si number density = 17.078371 Si / 1000 Ang^3
#
#
#
# Elastic Constant Matrix: (Units=GPa)
#
#
# Indices 1 2 3 4 5 6 
#
# 1 88.2943 51.2657 37.9398 0.0000 0.0000 0.0000
# 2 51.2657 73.7513 45.5940 0.0000 0.0000 0.0000
# 3 37.9398 45.5940 117.7163 0.0000 0.0000 0.0000
# 4 0.0000 0.0000 0.0000 43.5005 0.0000 0.0000
# 5 0.0000 0.0000 0.0000 0.0000 20.1479 0.0000
# 6 0.0000 0.0000 0.0000 0.0000 0.0000 23.2777
#
#
#
# Elastic Compliance Matrix: (Units=1/GPa)
#
#
# Indices 1 2 3 4 5 6 
#
# 1 0.019149 -0.012485 -0.001336 0.000000 0.000000 0.000000
# 2 -0.012485 0.025968 -0.006034 0.000000 0.000000 0.000000
# 3 -0.001336 -0.006034 0.011263 0.000000 0.000000 0.000000
# 4 0.000000 0.000000 0.000000 0.022988 0.000000 0.000000
# 5 0.000000 0.000000 0.000000 0.000000 0.049633 0.000000
# 6 0.000000 0.000000 0.000000 0.000000 0.000000 0.042960
#
#
# Mechanical properties :
#
#
# Convention : Reuss Voigt Hill
#
# Bulk Modulus (GPa) = 59.98918 61.04010 60.51464
# Shear Modulus (GPa) = 23.01750 27.04937 25.03344
#
# Velocity S-wave (km/s) = 3.67516 3.98406 3.83273
# Velocity P-wave (km/s) = 7.29460 7.54867 7.42272
#
# Compressibility (1/GPa) = 0.01666967
#
# Stress axis : x y z
#
# Youngs Moduli (GPa) = 52.22281 38.50945 88.78850
#
# Poissons Ratio (x) = 0.48078 0.11863
# Poissons Ratio (y) = 0.65198 0.53575
# Poissons Ratio (z) = 0.06977 0.23237
#
# Static dielectric constant tensor:
#      x y z
#    x 3.298930 0.000000 0.000000 
#    y 0.000000 2.803500 0.000000 
#    z 0.000000 0.000000 3.439390 
# 
# 
# High freq. dielectric constant tensor:
#      x y z
#    x 1.666340 0.000000 0.000000 
#    y 0.000000 1.609980 0.000000 
#    z 0.000000 0.000000 1.669580 
# 
# From -- ./inp_files/25049.got.cif
#   From: 2010.03.12/outbox.cif.g09.slc.cpg/sg65_13_cif.got.tgz:25049.got - 2010.04.10 20:52:16.
