data_PCOD8269338
_publ_section_title
;
Structure prediction by ZEFSAII (Michael W. Deem and Ramdas Pophale) SiO2 
 PCOD8269338
Probable space group: C M M M
;
_chemical_formula_sum "Si O2"
_cell_formula_units_Z 88
_cell_length_a 17.041305
_cell_length_b 28.436862
_cell_length_c 9.513818
_cell_angle_alpha 90.000000
_cell_angle_beta 90.000000
_cell_angle_gamma 90.000000
_cell_volume 4610.407986
_symmetry_space_group_name_H-M "C M M M"
_symmetry_group_IT_number 65
_symmetry_cell_setting 'orthorhombic'
loop_
_space_group_symop_operation_xyz
x,y,z
-x,-y,z
x,-y,-z
-x,y,-z
-x,-y,-z
x,y,-z
-x,y,z
x,-y,z
1/2+x,1/2+y,z
1/2-x,1/2-y,z
1/2+x,1/2-y,-z
1/2-x,1/2+y,-z
1/2-x,1/2-y,-z
1/2+x,1/2+y,-z
1/2-x,1/2+y,z
1/2+x,1/2-y,z
loop_
_atom_site_type_symbol
_atom_site_label
_atom_site_fract_x
_atom_site_fract_y
_atom_site_fract_z
Si Si1 0.159237 0.404243 0.836155
Si Si2 0.334819 0.267751 0.333728
Si Si3 0.500000 0.946517 0.834715
Si Si4 0.197875 0.945836 0.664570
Si Si5 0.588485 0.192258 0.157984
Si Si6 0.912490 0.863193 0.334204
O O1 0.228200 0.427358 0.749203
O O2 0.153114 0.348206 0.813658
O O3 0.078905 0.424627 0.771803
O O4 0.170793 0.417235 0.000000
O O5 0.340494 0.262871 0.500000
O O6 0.250000 0.250000 0.279249
O O7 0.400187 0.234322 0.266688
O O8 0.355147 0.320869 0.283306
O O9 0.500000 0.000000 0.791514
O O10 0.500000 0.937088 0.000000
O O11 0.216270 0.940148 0.500000
O O12 0.124092 0.913489 0.709552
O O13 0.178856 0.000000 0.702856
O O14 0.500000 0.171975 0.175724
O O15 0.599716 0.211656 0.000000
O O16 0.920242 0.859954 0.500000
O O17 0.000000 0.859012 0.267417
#
# Coordination Sequence:
#
# PCOD8269338 Si02
#       6
#    16  16   8  16  16  16
#     4  10  19  34  54  77 106 142 182 218 261 321
#     4  10  20  34  54  80 109 142 180 218 264 324
#     4   9  16  28  49  73  97 133 181 219 246 297
#     4  10  21  36  55  80 107 134 172 228 284 323
#     4  10  20  34  52  77 109 141 177 221 263 308
#     4   9  18  34  55  78 106 142 183 222 262 320
#
# _framework density 19.087247000000001
#
# number of rings (size 3 to 8) (size 9 to 14) (size 15 to 20)
#    0.000    2.273    0.909    2.182    0.000    5.091 
#    0.000    3.182    0.000    3.273    0.000    1.273 
#    0.000    0.000    0.000    0.000    0.000    0.000 
#
# Total GULP energy -545447.979121 kJ/mol
# GULP energy per Si atom -12396.544980 kJ/mol
# Density = 1.904380 g / cm^3
# Si number density = 19.087247 Si / 1000 Ang^3
#
#
#
# Elastic Constant Matrix: (Units=GPa)
#
#
# Indices 1 2 3 4 5 6 
#
# 1 141.6761 66.2462 26.9889 0.0000 0.0000 0.0000
# 2 66.2462 155.3320 37.3156 0.0000 0.0000 0.0000
# 3 26.9889 37.3156 31.0158 0.0000 0.0000 0.0000
# 4 0.0000 0.0000 0.0000 22.4131 0.0000 0.0000
# 5 0.0000 0.0000 0.0000 0.0000 24.9221 0.0000
# 6 0.0000 0.0000 0.0000 0.0000 0.0000 34.0299
#
#
#
# Elastic Compliance Matrix: (Units=1/GPa)
#
#
# Indices 1 2 3 4 5 6 
#
# 1 0.009271 -0.002835 -0.004656 0.000000 0.000000 0.000000
# 2 -0.002835 0.009922 -0.009470 0.000000 0.000000 0.000000
# 3 -0.004656 -0.009470 0.047687 0.000000 0.000000 0.000000
# 4 0.000000 0.000000 0.000000 0.044617 0.000000 0.000000
# 5 0.000000 0.000000 0.000000 0.000000 0.040125 0.000000
# 6 0.000000 0.000000 0.000000 0.000000 0.000000 0.029386
#
#
# Mechanical properties :
#
#
# Convention : Reuss Voigt Hill
#
# Bulk Modulus (GPa) = 30.34275 65.45837 47.90056
# Shear Modulus (GPa) = 22.13207 29.43792 25.78500
#
# Velocity S-wave (km/s) = 3.40887 3.93145 3.67945
# Velocity P-wave (km/s) = 5.60582 7.41466 6.57276
#
# Compressibility (1/GPa) = 0.03295680
#
# Stress axis : x y z
#
# Youngs Moduli (GPa) = 107.86161 100.78504 20.97015
#
# Poissons Ratio (x) = 0.28577 0.09764
# Poissons Ratio (y) = 0.30584 0.19859
# Poissons Ratio (z) = 0.50221 0.95445
#
# Static dielectric constant tensor:
#      x y z
#    x 3.682070 0.000000 0.000000 
#    y 0.000000 3.650080 0.000000 
#    z 0.000000 0.000000 3.105520 
# 
# 
# High freq. dielectric constant tensor:
#      x y z
#    x 1.746350 0.000000 0.000000 
#    y 0.000000 1.753690 0.000000 
#    z 0.000000 0.000000 1.701980 
# 
# From -- ./inp_files/10074.got.cif
#   From: 2010.03.12/outbox.cif.g09.slc.cpg/sg65_6_cif.got.tgz:10074.got - 2010.04.10 20:52:16.
