data_PCOD8269020
_publ_section_title
;
Structure prediction by ZEFSAII (Michael W. Deem and Ramdas Pophale) SiO2 
 PCOD8269020
Probable space group: C M M M
;
_chemical_formula_sum "Si O2"
_cell_formula_units_Z 88
_cell_length_a 23.683197
_cell_length_b 8.835606
_cell_length_c 23.280293
_cell_angle_alpha 90.000000
_cell_angle_beta 90.000000
_cell_angle_gamma 90.000000
_cell_volume 4871.526966
_symmetry_space_group_name_H-M "C M M M"
_symmetry_group_IT_number 65
_symmetry_cell_setting 'orthorhombic'
loop_
_space_group_symop_operation_xyz
x,y,z
-x,-y,z
x,-y,-z
-x,y,-z
-x,-y,-z
x,y,-z
-x,y,z
x,-y,z
1/2+x,1/2+y,z
1/2-x,1/2-y,z
1/2+x,1/2-y,-z
1/2-x,1/2+y,-z
1/2-x,1/2-y,-z
1/2+x,1/2+y,-z
1/2-x,1/2+y,z
1/2+x,1/2-y,z
loop_
_atom_site_type_symbol
_atom_site_label
_atom_site_fract_x
_atom_site_fract_y
_atom_site_fract_z
Si Si1 0.309112 0.173664 0.000000
Si Si2 0.500000 0.321565 0.264997
Si Si3 0.188879 0.678721 0.668358
Si Si4 0.812091 0.678853 0.124715
Si Si5 0.621359 0.320334 0.773020
Si Si6 0.000000 0.821760 0.606723
Si Si7 0.389304 0.173623 0.564411
O O1 0.250000 0.250000 0.000000
O O2 0.338909 0.214035 0.060882
O O3 0.294425 0.000000 0.000000
O O4 0.500000 0.500000 0.271710
O O5 0.444147 0.269579 0.230891
O O6 0.500000 0.250423 0.329074
O O7 0.193464 0.500000 0.677224
O O8 0.250000 0.750000 0.667543
O O9 0.154217 0.749082 0.720188
O O10 0.159074 0.723888 0.608685
O O11 0.807805 0.500000 0.136900
O O12 0.750000 0.750000 0.132186
O O13 0.855273 0.756057 0.167765
O O14 0.628727 0.500000 0.771200
O O15 0.054930 0.771339 0.572471
O O16 0.000000 0.000000 0.610114
O O17 0.365924 0.199829 0.500000
O O18 0.406047 0.000000 0.574898
#
# Coordination Sequence:
#
# PCOD8269020 Si02
#       7
#     8   8  16  16  16   8  16
#     4   8  16  30  50  75 110 145 179 218 258 302
#     4   9  20  36  56  78 105 136 172 219 269 310
#     4  11  23  38  56  78 105 140 177 217 264 320
#     4  10  19  33  53  82 113 146 181 218 261 311
#     4  11  21  37  57  79 107 140 176 221 268 315
#     4  11  20  36  59  84 107 135 175 221 267 316
#     4  10  22  39  57  79 108 140 174 217 269 321
#
# _framework density 18.064150999999999
#
# number of rings (size 3 to 8) (size 9 to 14) (size 15 to 20)
#    0.000    1.818    1.818    2.727    0.000    3.273 
#    0.000    1.818    0.000    0.545    0.000    3.818 
#    0.000    0.000    0.000    0.000    0.000    0.000 
#
# Total GULP energy -545447.111134 kJ/mol
# GULP energy per Si atom -12396.525253 kJ/mol
# Density = 1.802304 g / cm^3
# Si number density = 18.064151 Si / 1000 Ang^3
#
#
#
# Elastic Constant Matrix: (Units=GPa)
#
#
# Indices 1 2 3 4 5 6 
#
# 1 139.1358 50.4772 78.6498 0.0000 0.0000 0.0000
# 2 50.4772 75.9669 53.0931 0.0000 0.0000 0.0000
# 3 78.6498 53.0931 169.1558 0.0000 0.0000 0.0000
# 4 0.0000 0.0000 0.0000 21.1133 0.0000 0.0000
# 5 0.0000 0.0000 0.0000 0.0000 29.3094 0.0000
# 6 0.0000 0.0000 0.0000 0.0000 0.0000 44.0845
#
#
#
# Elastic Compliance Matrix: (Units=1/GPa)
#
#
# Indices 1 2 3 4 5 6 
#
# 1 0.010947 -0.004761 -0.003595 0.000000 0.000000 0.000000
# 2 -0.004761 0.018933 -0.003729 0.000000 0.000000 0.000000
# 3 -0.003595 -0.003729 0.008754 0.000000 0.000000 0.000000
# 4 0.000000 0.000000 0.000000 0.047364 0.000000 0.000000
# 5 0.000000 0.000000 0.000000 0.000000 0.034119 0.000000
# 6 0.000000 0.000000 0.000000 0.000000 0.000000 0.022684
#
#
# Mechanical properties :
#
#
# Convention : Reuss Voigt Hill
#
# Bulk Modulus (GPa) = 69.14091 83.18874 76.16483
# Shear Modulus (GPa) = 29.10498 32.37066 30.73782
#
# Velocity S-wave (km/s) = 4.01833 4.23778 4.12951
# Velocity P-wave (km/s) = 7.73871 8.37238 8.06177
#
# Compressibility (1/GPa) = 0.01446322
#
# Stress axis : x y z
#
# Youngs Moduli (GPa) = 91.35026 52.81710 114.23524
#
# Poissons Ratio (x) = 0.25146 0.41073
# Poissons Ratio (y) = 0.43491 0.42598
# Poissons Ratio (z) = 0.32845 0.19695
#
# Static dielectric constant tensor:
#      x y z
#    x 3.328790 0.000000 0.000000 
#    y 0.000000 3.410400 0.000000 
#    z 0.000000 0.000000 3.680490 
# 
# 
# High freq. dielectric constant tensor:
#      x y z
#    x 1.682800 0.000000 0.000000 
#    y 0.000000 1.705270 0.000000 
#    z 0.000000 0.000000 1.715280 
# 
# From -- ./inp_files/65248.got.cif
#   From: 2010.03.12/outbox.cif.g09.slc.cpg/sg65_33_cif.got.tgz:65248.got - 2010.04.10 20:52:16.
