data_PCOD8269735
_publ_section_title
;
Structure prediction by ZEFSAII (Michael W. Deem and Ramdas Pophale) SiO2 
 PCOD8269735
Probable space group: C M M M
;
_chemical_formula_sum "Si O2"
_cell_formula_units_Z 120
_cell_length_a 28.313660
_cell_length_b 18.155194
_cell_length_c 13.759999
_cell_angle_alpha 90.000000
_cell_angle_beta 90.000000
_cell_angle_gamma 90.000000
_cell_volume 7073.189750
_symmetry_space_group_name_H-M "C M M M"
_symmetry_group_IT_number 65
_symmetry_cell_setting 'orthorhombic'
loop_
_space_group_symop_operation_xyz
x,y,z
-x,-y,z
x,-y,-z
-x,y,-z
-x,-y,-z
x,y,-z
-x,y,z
x,-y,z
1/2+x,1/2+y,z
1/2-x,1/2-y,z
1/2+x,1/2-y,-z
1/2-x,1/2+y,-z
1/2-x,1/2-y,-z
1/2+x,1/2+y,-z
1/2-x,1/2+y,z
1/2+x,1/2-y,z
loop_
_atom_site_type_symbol
_atom_site_label
_atom_site_fract_x
_atom_site_fract_y
_atom_site_fract_z
Si Si1 0.947638 0.342012 0.115806
Si Si2 0.219857 0.415783 0.888336
Si Si3 0.445006 0.000000 0.895559
Si Si4 0.948689 0.087473 0.703761
Si Si5 0.097715 0.085436 0.894416
Si Si6 0.650886 0.787976 0.112337
Si Si7 0.853829 0.086858 0.609630
Si Si8 0.687413 0.644602 0.201891
O O1 0.934176 0.423071 0.160701
O O2 0.904688 0.287235 0.144405
O O3 0.000000 0.315076 0.152436
O O4 0.948993 0.351115 0.000000
O O5 0.209835 0.500000 0.857054
O O6 0.172154 0.369323 0.871498
O O7 0.259987 0.379905 0.822112
O O8 0.236375 0.411349 0.000000
O O9 0.500000 0.000000 0.917542
O O10 0.417650 0.000000 0.000000
O O11 0.936329 0.119243 0.811524
O O12 0.908481 0.110879 0.627334
O O13 0.000000 0.118574 0.671487
O O14 0.950386 0.000000 0.710365
O O15 0.151727 0.095944 0.862148
O O16 0.087751 0.000000 0.905623
O O17 0.088466 0.123638 0.000000
O O18 0.679298 0.730508 0.178642
O O19 0.656236 0.763980 0.000000
O O20 0.839886 0.108274 0.500000
O O21 0.820229 0.130844 0.683218
O O22 0.847903 0.000000 0.628554
#
# Coordination Sequence:
#
# PCOD8269735 Si02
#       8
#    16  16   8  16  16  16  16  16
#     4   8  14  25  41  61  88 124 162 196 229 264
#     4  10  20  32  48  69  93 125 165 202 231 267
#     4   7  10  18  36  58  78 110 155 195 225 253
#     4   8  14  24  38  59  86 113 145 191 242 280
#     4   9  16  25  39  58  82 117 159 193 218 261
#     4  10  20  30  44  68  99 131 161 193 230 276
#     4   9  18  32  50  69  85 108 151 203 248 293
#     4  11  19  31  47  65  92 123 153 188 239 287
#
# _framework density 16.965471000000001
#
# number of rings (size 3 to 8) (size 9 to 14) (size 15 to 20)
#    0.000    2.867    0.000    4.400    0.933    2.667 
#    0.000    5.333    0.000    4.800    0.000    0.000 
#    0.000    0.000    0.000    0.000    0.000    3.733 
#
# Total GULP energy -743321.184275 kJ/mol
# GULP energy per Si atom -12388.686405 kJ/mol
# Density = 1.692686 g / cm^3
# Si number density = 16.965471 Si / 1000 Ang^3
#
#
#
# Elastic Constant Matrix: (Units=GPa)
#
#
# Indices 1 2 3 4 5 6 
#
# 1 88.8570 28.5613 27.0382 0.0000 0.0000 0.0000
# 2 28.5613 70.2851 30.1288 0.0000 0.0000 0.0000
# 3 27.0382 30.1288 78.5797 0.0000 0.0000 0.0000
# 4 0.0000 0.0000 0.0000 11.3156 0.0000 0.0000
# 5 0.0000 0.0000 0.0000 0.0000 12.0667 0.0000
# 6 0.0000 0.0000 0.0000 0.0000 0.0000 9.7589
#
#
#
# Elastic Compliance Matrix: (Units=1/GPa)
#
#
# Indices 1 2 3 4 5 6 
#
# 1 0.013529 -0.004191 -0.003048 0.000000 0.000000 0.000000
# 2 -0.004191 0.018324 -0.005584 0.000000 0.000000 0.000000
# 3 -0.003048 -0.005584 0.015916 0.000000 0.000000 0.000000
# 4 0.000000 0.000000 0.000000 0.088374 0.000000 0.000000
# 5 0.000000 0.000000 0.000000 0.000000 0.082873 0.000000
# 6 0.000000 0.000000 0.000000 0.000000 0.000000 0.102471
#
#
# Mechanical properties :
#
#
# Convention : Reuss Voigt Hill
#
# Bulk Modulus (GPa) = 45.20199 45.46426 45.33312
# Shear Modulus (GPa) = 14.10412 16.76113 15.43262
#
# Velocity S-wave (km/s) = 2.88643 3.14659 3.01931
# Velocity P-wave (km/s) = 6.14898 6.32911 6.23970
#
# Compressibility (1/GPa) = 0.02212292
#
# Stress axis : x y z
#
# Youngs Moduli (GPa) = 73.91725 54.57210 62.83107
#
# Poissons Ratio (x) = 0.22871 0.19152
# Poissons Ratio (y) = 0.30978 0.35084
# Poissons Ratio (z) = 0.22531 0.30472
#
# Static dielectric constant tensor:
#      x y z
#    x 3.248730 0.000000 0.000000 
#    y 0.000000 3.108300 0.000000 
#    z 0.000000 0.000000 2.902560 
# 
# 
# High freq. dielectric constant tensor:
#      x y z
#    x 1.654150 0.000000 0.000000 
#    y 0.000000 1.639180 0.000000 
#    z 0.000000 0.000000 1.595360 
# 
# From -- ./inp_files/47264.got.cif
#   From: 2010.03.12/outbox.cif.g09.slc.cpg/sg65_24_cif.got.tgz:47264.got - 2010.04.10 20:52:16.
