data_PCOD8269648
_publ_section_title
;
Structure prediction by ZEFSAII (Michael W. Deem and Ramdas Pophale) SiO2 
 PCOD8269648
Probable space group: C M M M
;
_chemical_formula_sum "Si O2"
_cell_formula_units_Z 88
_cell_length_a 27.473836
_cell_length_b 14.347679
_cell_length_c 11.626287
_cell_angle_alpha 90.000000
_cell_angle_beta 90.000000
_cell_angle_gamma 90.000000
_cell_volume 4582.917008
_symmetry_space_group_name_H-M "C M M M"
_symmetry_group_IT_number 65
_symmetry_cell_setting 'orthorhombic'
loop_
_space_group_symop_operation_xyz
x,y,z
-x,-y,z
x,-y,-z
-x,y,-z
-x,-y,-z
x,y,-z
-x,y,z
x,-y,z
1/2+x,1/2+y,z
1/2-x,1/2-y,z
1/2+x,1/2-y,-z
1/2-x,1/2+y,-z
1/2-x,1/2-y,-z
1/2+x,1/2+y,-z
1/2-x,1/2+y,z
1/2+x,1/2-y,z
loop_
_atom_site_type_symbol
_atom_site_label
_atom_site_fract_x
_atom_site_fract_y
_atom_site_fract_z
Si Si1 0.056081 0.790696 0.500000
Si Si2 0.778832 0.104763 0.746879
Si Si3 0.167158 0.605097 0.254014
Si Si4 0.208175 0.826699 0.500000
Si Si5 0.136981 0.217689 0.864465
Si Si6 0.638613 0.835067 0.500000
Si Si7 0.056411 0.891084 0.735360
O O1 0.081113 0.688028 0.500000
O O2 0.070209 0.851844 0.610710
O O3 0.000000 0.765683 0.500000
O O4 0.723052 0.133682 0.769351
O O5 0.789148 0.108628 0.611212
O O6 0.813817 0.172213 0.816798
O O7 0.788456 0.000000 0.789377
O O8 0.156751 0.500000 0.210682
O O9 0.133047 0.677297 0.185680
O O10 0.155996 0.607745 0.389716
O O11 0.250000 0.750000 0.500000
O O12 0.157890 0.771106 0.500000
O O13 0.089176 0.160249 0.830060
O O14 0.140140 0.222617 0.000000
O O15 0.000000 0.873331 0.766021
O O16 0.068976 0.000000 0.737069
#
# Coordination Sequence:
#
# PCOD8269648 Si02
#       7
#     8  16  16   8  16   8  16
#     4  10  19  35  64  96 123 151 184 230 296 365
#     4  11  22  36  57  87 120 155 195 244 299 357
#     4  11  23  39  60  86 115 154 201 247 297 354
#     4  12  17  31  57  83 117 152 187 231 295 361
#     4  12  25  41  59  82 117 162 207 251 294 342
#     4  12  19  35  62  88 120 152 186 237 305 362
#     4  10  21  39  65  95 124 154 189 234 294 363
#
# _framework density 19.201744999999999
#
# number of rings (size 3 to 8) (size 9 to 14) (size 15 to 20)
#    0.000    0.909    5.455    1.909    0.000    6.182 
#    0.000    5.455    0.000    2.727    0.000    1.273 
#    0.000    0.000    0.000    0.000    0.000    0.000 
#
# Total GULP energy -545710.309858 kJ/mol
# GULP energy per Si atom -12402.507042 kJ/mol
# Density = 1.915804 g / cm^3
# Si number density = 19.201745 Si / 1000 Ang^3
#
#
#
# Elastic Constant Matrix: (Units=GPa)
#
#
# Indices 1 2 3 4 5 6 
#
# 1 77.6184 50.3810 35.4058 0.0000 0.0000 0.0000
# 2 50.3810 101.9279 40.7746 0.0000 0.0000 0.0000
# 3 35.4058 40.7746 123.1197 0.0000 0.0000 0.0000
# 4 0.0000 0.0000 0.0000 7.7956 0.0000 0.0000
# 5 0.0000 0.0000 0.0000 0.0000 15.3340 0.0000
# 6 0.0000 0.0000 0.0000 0.0000 0.0000 31.1661
#
#
#
# Elastic Compliance Matrix: (Units=1/GPa)
#
#
# Indices 1 2 3 4 5 6 
#
# 1 0.019787 -0.008650 -0.002825 0.000000 0.000000 0.000000
# 2 -0.008650 0.015091 -0.002510 0.000000 0.000000 0.000000
# 3 -0.002825 -0.002510 0.009766 0.000000 0.000000 0.000000
# 4 0.000000 0.000000 0.000000 0.128277 0.000000 0.000000
# 5 0.000000 0.000000 0.000000 0.000000 0.065215 0.000000
# 6 0.000000 0.000000 0.000000 0.000000 0.000000 0.032086
#
#
# Mechanical properties :
#
#
# Convention : Reuss Voigt Hill
#
# Bulk Modulus (GPa) = 59.98004 61.75429 60.86716
# Shear Modulus (GPa) = 16.46091 22.59946 19.53018
#
# Velocity S-wave (km/s) = 2.93108 3.43439 3.19267
# Velocity P-wave (km/s) = 6.53908 6.92512 6.73487
#
# Compressibility (1/GPa) = 0.01667221
#
# Stress axis : x y z
#
# Youngs Moduli (GPa) = 50.53826 66.26665 102.39588
#
# Poissons Ratio (x) = 0.57321 0.28932
# Poissons Ratio (y) = 0.43716 0.25703
# Poissons Ratio (z) = 0.14280 0.16634
#
# Static dielectric constant tensor:
#      x y z
#    x 3.662550 0.000000 0.000000 
#    y 0.000000 3.492370 0.000000 
#    z 0.000000 0.000000 3.378490 
# 
# 
# High freq. dielectric constant tensor:
#      x y z
#    x 1.743970 0.000000 0.000000 
#    y 0.000000 1.750570 0.000000 
#    z 0.000000 0.000000 1.733840 
# 
# From -- ./inp_files/32277.got.cif
#   From: 2010.03.12/outbox.cif.g09.slc.cpg/sg65_17_cif.got.tgz:32277.got - 2010.04.10 20:52:16.
