data_PCOD8269553
_publ_section_title
;
Structure prediction by ZEFSAII (Michael W. Deem and Ramdas Pophale) SiO2 
 PCOD8269553
Probable space group: C M M M
;
_chemical_formula_sum "Si O2"
_cell_formula_units_Z 80
_cell_length_a 10.293096
_cell_length_b 24.899632
_cell_length_c 17.823295
_cell_angle_alpha 90.000000
_cell_angle_beta 90.000000
_cell_angle_gamma 90.000000
_cell_volume 4568.008961
_symmetry_space_group_name_H-M "C M M M"
_symmetry_group_IT_number 65
_symmetry_cell_setting 'orthorhombic'
loop_
_space_group_symop_operation_xyz
x,y,z
-x,-y,z
x,-y,-z
-x,y,-z
-x,-y,-z
x,y,-z
-x,y,z
x,-y,z
1/2+x,1/2+y,z
1/2-x,1/2-y,z
1/2+x,1/2-y,-z
1/2-x,1/2+y,-z
1/2-x,1/2-y,-z
1/2+x,1/2+y,-z
1/2-x,1/2+y,z
1/2+x,1/2-y,z
loop_
_atom_site_type_symbol
_atom_site_label
_atom_site_fract_x
_atom_site_fract_y
_atom_site_fract_z
Si Si1 0.500000 0.192849 0.769845
Si Si2 0.849482 0.438667 0.585781
Si Si3 0.236525 0.562538 0.134511
Si Si4 0.000000 0.370528 0.082137
Si Si5 0.500000 0.319650 0.229792
Si Si6 0.500000 0.387809 0.085258
Si Si7 0.241061 0.627743 0.281290
O O1 0.500000 0.176652 0.857137
O O2 0.500000 0.256257 0.766468
O O3 0.373415 0.170727 0.728181
O O4 0.827944 0.421007 0.500000
O O5 0.803928 0.500000 0.597190
O O6 0.764298 0.399406 0.637121
O O7 0.000000 0.433163 0.608519
O O8 0.207726 0.500000 0.130077
O O9 0.375545 0.575031 0.098670
O O10 0.229043 0.580260 0.220918
O O11 0.127140 0.592951 0.087903
O O12 0.000000 0.343291 0.000000
O O13 0.500000 0.337581 0.142488
O O14 0.623963 0.341608 0.273682
O O15 0.500000 0.365593 0.000000
#
# Coordination Sequence:
#
# PCOD8269553 Si02
#       7
#     8  16  16   8   8   8  16
#     4  10  20  36  56  73  95 136 179 219 265 308
#     4   9  17  31  56  87 113 139 169 201 244 301
#     4  10  20  32  49  73 102 136 167 203 257 314
#     4  10  21  33  48  74 101 126 168 220 265 308
#     4  10  22  36  54  75 101 134 177 225 269 300
#     4  10  21  35  50  70  97 134 178 214 253 312
#     4  10  19  35  54  78 105 134 173 217 254 305
#
# _framework density 17.513100999999999
#
# number of rings (size 3 to 8) (size 9 to 14) (size 15 to 20)
#    0.000    2.200    1.000    3.000    0.000    2.800 
#    0.000    2.000    0.000   12.000    0.000    0.000 
#    0.000    0.000    0.000    0.000    0.000    0.000 
#
# Total GULP energy -496096.948561 kJ/mol
# GULP energy per Si atom -12402.423714 kJ/mol
# Density = 1.747324 g / cm^3
# Si number density = 17.513101 Si / 1000 Ang^3
#
#
#
# Elastic Constant Matrix: (Units=GPa)
#
#
# Indices 1 2 3 4 5 6 
#
# 1 114.2573 38.2931 44.6213 0.0000 0.0000 0.0000
# 2 38.2931 105.6608 62.4579 0.0000 0.0000 0.0000
# 3 44.6213 62.4579 121.3281 0.0000 0.0000 0.0000
# 4 0.0000 0.0000 0.0000 17.0143 0.0000 0.0000
# 5 0.0000 0.0000 0.0000 0.0000 44.1511 0.0000
# 6 0.0000 0.0000 0.0000 0.0000 0.0000 -8.6513
#
#
#
# Elastic Compliance Matrix: (Units=1/GPa)
#
#
# Indices 1 2 3 4 5 6 
#
# 1 0.010565 -0.002202 -0.002752 0.000000 0.000000 0.000000
# 2 -0.002202 0.014063 -0.006429 0.000000 0.000000 0.000000
# 3 -0.002752 -0.006429 0.012564 0.000000 0.000000 0.000000
# 4 0.000000 0.000000 0.000000 0.058774 0.000000 0.000000
# 5 0.000000 0.000000 0.000000 0.000000 0.022649 0.000000
# 6 0.000000 0.000000 0.000000 0.000000 0.000000 -0.115590
#
#
# Mechanical properties :
#
#
# Convention : Reuss Voigt Hill
#
# Bulk Modulus (GPa) = 69.32522 70.22120 69.77321
# Shear Modulus (GPa) = 163.39517 23.56109 93.47813
#
# Velocity S-wave (km/s) = 9.66961 3.67187 7.31382
# Velocity P-wave (km/s) = 12.81948 7.62629 10.54750
#
# Compressibility (1/GPa) = 0.01442476
#
# Stress axis : x y z
#
# Youngs Moduli (GPa) = 94.65277 71.10892 79.59284
#
# Poissons Ratio (x) = 0.15660 0.21903
# Poissons Ratio (y) = 0.20845 0.51174
# Poissons Ratio (z) = 0.26047 0.45719
#
# Static dielectric constant tensor:
#      x y z
#    x 3.346740 0.000000 0.000000 
#    y 0.000000 3.028920 0.000000 
#    z 0.000000 0.000000 3.208140 
# 
# 
# High freq. dielectric constant tensor:
#      x y z
#    x 1.684240 0.000000 0.000000 
#    y 0.000000 1.664980 0.000000 
#    z 0.000000 0.000000 1.673330 
# 
# From -- ./inp_files/50010.got.cif
#   From: 2010.03.12/outbox.cif.g09.slc.cpg/sg65_26_cif.got.tgz:50010.got - 2010.04.10 20:52:16.
