data_PCOD8269383
_publ_section_title
;
Structure prediction by ZEFSAII (Michael W. Deem and Ramdas Pophale) SiO2 
 PCOD8269383
Probable space group: C M M M
;
_chemical_formula_sum "Si O2"
_cell_formula_units_Z 104
_cell_length_a 28.322196
_cell_length_b 21.869406
_cell_length_c 8.877298
_cell_angle_alpha 90.000000
_cell_angle_beta 90.000000
_cell_angle_gamma 90.000000
_cell_volume 5498.506085
_symmetry_space_group_name_H-M "C M M M"
_symmetry_group_IT_number 65
_symmetry_cell_setting 'orthorhombic'
loop_
_space_group_symop_operation_xyz
x,y,z
-x,-y,z
x,-y,-z
-x,y,-z
-x,-y,-z
x,y,-z
-x,y,z
x,-y,z
1/2+x,1/2+y,z
1/2-x,1/2-y,z
1/2+x,1/2-y,-z
1/2-x,1/2+y,-z
1/2-x,1/2-y,-z
1/2+x,1/2+y,-z
1/2-x,1/2+y,z
1/2+x,1/2-y,z
loop_
_atom_site_type_symbol
_atom_site_label
_atom_site_fract_x
_atom_site_fract_y
_atom_site_fract_z
Si Si1 0.270948 0.070191 0.335916
Si Si2 0.601000 0.647557 0.679763
Si Si3 0.125695 0.604834 0.321787
Si Si4 0.095255 0.277059 0.821918
Si Si5 0.054379 0.500000 0.678802
Si Si6 0.819388 0.927361 0.169149
Si Si7 0.500000 0.635663 0.662491
Si Si8 0.500000 0.779260 0.334306
O O1 0.265977 0.102472 0.500000
O O2 0.324354 0.074774 0.277316
O O3 0.231944 0.097780 0.221984
O O4 0.257845 0.000000 0.354210
O O5 0.597360 0.654952 0.500000
O O6 0.612577 0.713418 0.750397
O O7 0.640874 0.599679 0.722103
O O8 0.550118 0.621205 0.744466
O O9 0.121313 0.616714 0.500000
O O10 0.128845 0.668378 0.231452
O O11 0.083126 0.560309 0.266226
O O12 0.044809 0.299440 0.761301
O O13 0.094733 0.269577 0.000000
O O14 0.053823 0.500000 0.500000
O O15 0.000000 0.500000 0.740977
O O16 0.823069 0.000000 0.176625
O O17 0.827649 0.903559 0.000000
O O18 0.500000 0.602280 0.500000
O O19 0.500000 0.707830 0.639172
O O20 0.500000 0.811771 0.500000
#
# Coordination Sequence:
#
# PCOD8269383 Si02
#       8
#    16  16  16  16   8  16   8   8
#     4   9  17  33  56  79 103 137 187 236 273 320
#     4  10  19  36  59  82 109 144 185 226 267 318
#     4  10  19  34  55  80 109 145 190 233 274 329
#     4  11  22  34  51  79 114 147 181 225 279 333
#     4   9  18  32  53  83 113 147 190 235 280 321
#     4  10  21  36  56  83 113 142 176 221 280 337
#     4   7  14  29  52  78 102 131 171 213 254 300
#     4   9  17  33  53  73  99 141 191 228 259 311
#
# _framework density 18.914228999999999
#
# number of rings (size 3 to 8) (size 9 to 14) (size 15 to 20)
#    0.000    2.385    0.769    3.462    1.077    1.538 
#    0.000    2.692    0.000    7.385    0.000    0.000 
#    0.000    0.000    0.000    0.000    0.000    0.000 
#
# Total GULP energy -644322.262603 kJ/mol
# GULP energy per Si atom -12390.812742 kJ/mol
# Density = 1.887118 g / cm^3
# Si number density = 18.914229 Si / 1000 Ang^3
#
#
#
# Elastic Constant Matrix: (Units=GPa)
#
#
# Indices 1 2 3 4 5 6 
#
# 1 136.2321 34.2494 41.4644 0.0000 0.0000 0.0000
# 2 34.2494 46.0257 28.6584 0.0000 0.0000 0.0000
# 3 41.4644 28.6584 93.6053 0.0000 0.0000 0.0000
# 4 0.0000 0.0000 0.0000 22.7658 0.0000 0.0000
# 5 0.0000 0.0000 0.0000 0.0000 21.5317 0.0000
# 6 0.0000 0.0000 0.0000 0.0000 0.0000 22.1134
#
#
#
# Elastic Compliance Matrix: (Units=1/GPa)
#
#
# Indices 1 2 3 4 5 6 
#
# 1 0.009488 -0.005490 -0.002522 0.000000 0.000000 0.000000
# 2 -0.005490 0.030021 -0.006759 0.000000 0.000000 0.000000
# 3 -0.002522 -0.006759 0.013870 0.000000 0.000000 0.000000
# 4 0.000000 0.000000 0.000000 0.043925 0.000000 0.000000
# 5 0.000000 0.000000 0.000000 0.000000 0.046443 0.000000
# 6 0.000000 0.000000 0.000000 0.000000 0.000000 0.045221
#
#
# Mechanical properties :
#
#
# Convention : Reuss Voigt Hill
#
# Bulk Modulus (GPa) = 41.95332 53.84526 47.89929
# Shear Modulus (GPa) = 22.07913 24.71493 23.39703
#
# Velocity S-wave (km/s) = 3.42033 3.61873 3.52093
# Velocity P-wave (km/s) = 6.15038 6.78161 6.47369
#
# Compressibility (1/GPa) = 0.02383602
#
# Stress axis : x y z
#
# Youngs Moduli (GPa) = 105.39274 33.30975 72.09872
#
# Poissons Ratio (x) = 0.18288 0.18185
# Poissons Ratio (y) = 0.57862 0.48734
# Poissons Ratio (z) = 0.26582 0.22515
#
# Static dielectric constant tensor:
#      x y z
#    x 3.825090 0.000000 0.000000 
#    y 0.000000 3.161230 0.000000 
#    z 0.000000 0.000000 3.392330 
# 
# 
# High freq. dielectric constant tensor:
#      x y z
#    x 1.744420 0.000000 0.000000 
#    y 0.000000 1.706710 0.000000 
#    z 0.000000 0.000000 1.718240 
# 
# From -- ./inp_files/16817.got.cif
#   From: 2010.03.12/outbox.cif.g09.slc.cpg/sg65_9_cif.got.tgz:16817.got - 2010.04.10 20:52:16.
