data_PCOD8269523
_publ_section_title
;
Structure prediction by ZEFSAII (Michael W. Deem and Ramdas Pophale) SiO2 
 PCOD8269523
Probable space group: C M M M
;
_chemical_formula_sum "Si O2"
_cell_formula_units_Z 80
_cell_length_a 27.417340
_cell_length_b 17.743159
_cell_length_c 7.645292
_cell_angle_alpha 90.000000
_cell_angle_beta 90.000000
_cell_angle_gamma 90.000000
_cell_volume 3719.206904
_symmetry_space_group_name_H-M "C M M M"
_symmetry_group_IT_number 65
_symmetry_cell_setting 'orthorhombic'
loop_
_space_group_symop_operation_xyz
x,y,z
-x,-y,z
x,-y,-z
-x,y,-z
-x,-y,-z
x,y,-z
-x,y,z
x,-y,z
1/2+x,1/2+y,z
1/2-x,1/2-y,z
1/2+x,1/2-y,-z
1/2-x,1/2+y,-z
1/2-x,1/2-y,-z
1/2+x,1/2+y,-z
1/2-x,1/2+y,z
1/2+x,1/2-y,z
loop_
_atom_site_type_symbol
_atom_site_label
_atom_site_fract_x
_atom_site_fract_y
_atom_site_fract_z
Si Si1 0.786831 0.186058 0.797606
Si Si2 0.442602 0.588761 0.000000
Si Si3 0.444509 0.000000 0.291502
Si Si4 0.604593 0.313827 0.699861
Si Si5 0.394218 0.147959 0.697893
Si Si6 0.202159 0.582885 0.202835
O O1 0.750000 0.250000 0.726643
O O2 0.836839 0.179758 0.692386
O O3 0.757920 0.107919 0.769422
O O4 0.799668 0.201794 0.000000
O O5 0.419394 0.624276 0.174735
O O6 0.430858 0.500000 0.000000
O O7 0.500000 0.604487 0.000000
O O8 0.419769 0.075640 0.209673
O O9 0.500000 0.000000 0.231305
O O10 0.438109 0.000000 0.500000
O O11 0.585962 0.325907 0.500000
O O12 0.590809 0.229992 0.774490
O O13 0.412037 0.149316 0.500000
O O14 0.335679 0.139834 0.706468
O O15 0.195999 0.500000 0.285545
O O16 0.188835 0.582771 0.000000
#
# Coordination Sequence:
#
# PCOD8269523 Si02
#       6
#    16   8   8  16  16  16
#     4  10  19  34  58  90 131 183 224 265 322 382
#     4  11  28  54  79  99 127 167 212 282 367 431
#     4   9  18  34  55  81 121 171 217 263 315 369
#     4  11  24  42  71 105 135 169 220 279 333 403
#     4  10  20  34  57  88 125 170 216 264 315 375
#     4  10  20  32  52  82 123 175 220 260 309 375
#
# _framework density 21.509962999999999
#
# number of rings (size 3 to 8) (size 9 to 14) (size 15 to 20)
#    0.000    1.800    4.000    0.000    1.400    3.600 
#    0.000    3.000    0.000    0.600    0.000    0.000 
#    0.000    0.000    0.000    0.000    0.000    0.000 
#
# Total GULP energy -495787.461114 kJ/mol
# GULP energy per Si atom -12394.686528 kJ/mol
# Density = 2.146101 g / cm^3
# Si number density = 21.509963 Si / 1000 Ang^3
#
#
#
# Elastic Constant Matrix: (Units=GPa)
#
#
# Indices 1 2 3 4 5 6 
#
# 1 112.2273 58.0785 27.3659 0.0000 0.0000 0.0000
# 2 58.0785 165.9648 46.5598 0.0000 0.0000 0.0000
# 3 27.3659 46.5598 69.4978 0.0000 0.0000 0.0000
# 4 0.0000 0.0000 0.0000 22.9642 0.0000 0.0000
# 5 0.0000 0.0000 0.0000 0.0000 -68.2382 0.0000
# 6 0.0000 0.0000 0.0000 0.0000 0.0000 31.9888
#
#
#
# Elastic Compliance Matrix: (Units=1/GPa)
#
#
# Indices 1 2 3 4 5 6 
#
# 1 0.011144 -0.003287 -0.002187 0.000000 0.000000 0.000000
# 2 -0.003287 0.008389 -0.004326 0.000000 0.000000 0.000000
# 3 -0.002187 -0.004326 0.018148 0.000000 0.000000 0.000000
# 4 0.000000 0.000000 0.000000 0.043546 0.000000 0.000000
# 5 0.000000 0.000000 0.000000 0.000000 -0.014655 0.000000
# 6 0.000000 0.000000 0.000000 0.000000 0.000000 0.031261
#
#
# Mechanical properties :
#
#
# Convention : Reuss Voigt Hill
#
# Bulk Modulus (GPa) = 55.29931 67.96649 61.63290
# Shear Modulus (GPa) = 40.49884 11.72202 26.11043
#
# Velocity S-wave (km/s) = 4.34383 2.33697 3.48785
# Velocity P-wave (km/s) = 7.13603 6.24085 6.70340
#
# Compressibility (1/GPa) = 0.01808341
#
# Stress axis : x y z
#
# Youngs Moduli (GPa) = 89.73064 119.20180 55.10189
#
# Poissons Ratio (x) = 0.39176 0.12048
# Poissons Ratio (y) = 0.29490 0.23838
# Poissons Ratio (z) = 0.19620 0.51568
#
# Static dielectric constant tensor:
#      x y z
#    x 3.721260 0.000000 0.000000 
#    y 0.000000 4.214870 0.000000 
#    z 0.000000 0.000000 3.571240 
# 
# 
# High freq. dielectric constant tensor:
#      x y z
#    x 1.828950 0.000000 0.000000 
#    y 0.000000 1.852530 0.000000 
#    z 0.000000 0.000000 1.822600 
# 
# From -- ./inp_files/16070.got.cif
#   From: 2010.03.12/outbox.cif.g09.slc.cpg/sg65_9_cif.got.tgz:16070.got - 2010.04.10 20:52:16.
