data_PCOD8269162
_publ_section_title
;
Structure prediction by ZEFSAII (Michael W. Deem and Ramdas Pophale) SiO2 
 PCOD8269162
Probable space group: C M M M
;
_chemical_formula_sum "Si O2"
_cell_formula_units_Z 72
_cell_length_a 21.827162
_cell_length_b 16.739210
_cell_length_c 9.632339
_cell_angle_alpha 90.000000
_cell_angle_beta 90.000000
_cell_angle_gamma 90.000000
_cell_volume 3519.362387
_symmetry_space_group_name_H-M "C M M M"
_symmetry_group_IT_number 65
_symmetry_cell_setting 'orthorhombic'
loop_
_space_group_symop_operation_xyz
x,y,z
-x,-y,z
x,-y,-z
-x,y,-z
-x,-y,-z
x,y,-z
-x,y,z
x,-y,z
1/2+x,1/2+y,z
1/2-x,1/2-y,z
1/2+x,1/2-y,-z
1/2-x,1/2+y,-z
1/2-x,1/2-y,-z
1/2+x,1/2+y,-z
1/2-x,1/2+y,z
1/2+x,1/2-y,z
loop_
_atom_site_type_symbol
_atom_site_label
_atom_site_fract_x
_atom_site_fract_y
_atom_site_fract_z
Si Si1 0.567889 0.904249 0.000000
Si Si2 0.229981 0.841027 0.839176
Si Si3 0.569608 0.095681 0.500000
Si Si4 0.381387 0.594413 0.335328
Si Si5 0.500000 0.405818 0.159764
Si Si6 0.855415 0.406535 0.247432
O O1 0.605836 0.867621 0.125053
O O2 0.500000 0.868360 0.000000
O O3 0.565755 0.000000 0.000000
O O4 0.250000 0.750000 0.834283
O O5 0.172242 0.856757 0.741031
O O6 0.283928 0.891144 0.767949
O O7 0.218298 0.867919 0.000000
O O8 0.500000 0.129455 0.500000
O O9 0.610428 0.131826 0.377412
O O10 0.566472 0.000000 0.500000
O O11 0.386048 0.616600 0.500000
O O12 0.369295 0.500000 0.319495
O O13 0.441737 0.621344 0.251184
O O14 0.500000 0.500000 0.146120
O O15 0.500000 0.370565 0.000000
O O16 0.865778 0.500000 0.252032
#
# Coordination Sequence:
#
# PCOD8269162 Si02
#       6
#     8  16   8  16   8  16
#     4   9  16  28  51  80 106 135 177 232 282 318
#     4  11  24  40  57  78 115 156 197 238 289 344
#     4   9  18  32  53  82 114 143 175 224 280 330
#     4  10  21  37  62  92 119 149 190 241 295 352
#     4   9  17  33  61  95 123 147 182 235 294 349
#     4  10  19  33  55  81 109 141 186 233 275 331
#
# _framework density 20.458252000000002
#
# number of rings (size 3 to 8) (size 9 to 14) (size 15 to 20)
#    0.000    2.111    1.111    2.333    1.556    6.667 
#    0.000    0.000    4.889    0.000    0.000    0.000 
#    0.000    0.000    0.000    0.000    0.000    0.000 
#
# Total GULP energy -446009.600557 kJ/mol
# GULP energy per Si atom -12389.155571 kJ/mol
# Density = 2.041169 g / cm^3
# Si number density = 20.458252 Si / 1000 Ang^3
#
#
#
# Elastic Constant Matrix: (Units=GPa)
#
#
# Indices 1 2 3 4 5 6 
#
# 1 189.8131 15.2059 108.3093 0.0000 0.0000 0.0000
# 2 15.2059 19.2517 25.0159 0.0000 0.0000 0.0000
# 3 108.3093 25.0159 214.3817 0.0000 0.0000 0.0000
# 4 0.0000 0.0000 0.0000 22.8826 0.0000 0.0000
# 5 0.0000 0.0000 0.0000 0.0000 50.2181 0.0000
# 6 0.0000 0.0000 0.0000 0.0000 0.0000 6.5982
#
#
#
# Elastic Compliance Matrix: (Units=1/GPa)
#
#
# Indices 1 2 3 4 5 6 
#
# 1 0.007424 -0.001167 -0.003615 0.000000 0.000000 0.000000
# 2 -0.001167 0.061411 -0.006576 0.000000 0.000000 0.000000
# 3 -0.003615 -0.006576 0.007258 0.000000 0.000000 0.000000
# 4 0.000000 0.000000 0.000000 0.043701 0.000000 0.000000
# 5 0.000000 0.000000 0.000000 0.000000 0.019913 0.000000
# 6 0.000000 0.000000 0.000000 0.000000 0.000000 0.151557
#
#
# Mechanical properties :
#
#
# Convention : Reuss Voigt Hill
#
# Bulk Modulus (GPa) = 18.73463 80.05653 49.39558
# Shear Modulus (GPa) = 15.07054 34.26748 24.66901
#
# Velocity S-wave (km/s) = 2.71707 4.09711 3.47626
# Velocity P-wave (km/s) = 4.36127 7.84846 6.34898
#
# Compressibility (1/GPa) = 0.05337709
#
# Stress axis : x y z
#
# Youngs Moduli (GPa) = 134.68983 16.28378 137.77508
#
# Poissons Ratio (x) = 0.01901 0.49803
# Poissons Ratio (y) = 0.15720 0.90605
# Poissons Ratio (z) = 0.48687 0.10709
#
# Static dielectric constant tensor:
#      x y z
#    x 4.385970 0.000000 0.000000 
#    y 0.000000 3.005060 0.000000 
#    z 0.000000 0.000000 4.216300 
# 
# 
# High freq. dielectric constant tensor:
#      x y z
#    x 1.816080 0.000000 0.000000 
#    y 0.000000 1.748660 0.000000 
#    z 0.000000 0.000000 1.821440 
# 
# From -- ./inp_files/11284.got.cif
#   From: 2010.03.12/outbox.cif.g09.slc.cpg/sg65_6_cif.got.tgz:11284.got - 2010.04.10 20:52:16.
