data_PCOD8269340
_publ_section_title
;
Structure prediction by ZEFSAII (Michael W. Deem and Ramdas Pophale) SiO2 
 PCOD8269340
Probable space group: C M M M
;
_chemical_formula_sum "Si O2"
_cell_formula_units_Z 104
_cell_length_a 9.078759
_cell_length_b 28.590892
_cell_length_c 22.947099
_cell_angle_alpha 90.000000
_cell_angle_beta 90.000000
_cell_angle_gamma 90.000000
_cell_volume 5956.374313
_symmetry_space_group_name_H-M "C M M M"
_symmetry_group_IT_number 65
_symmetry_cell_setting 'orthorhombic'
loop_
_space_group_symop_operation_xyz
x,y,z
-x,-y,z
x,-y,-z
-x,y,-z
-x,-y,-z
x,y,-z
-x,y,z
x,-y,z
1/2+x,1/2+y,z
1/2-x,1/2-y,z
1/2+x,1/2-y,-z
1/2-x,1/2+y,-z
1/2-x,1/2-y,-z
1/2+x,1/2+y,-z
1/2-x,1/2+y,z
1/2+x,1/2-y,z
loop_
_atom_site_type_symbol
_atom_site_label
_atom_site_fract_x
_atom_site_fract_y
_atom_site_fract_z
Si Si1 0.331396 0.387560 0.933994
Si Si2 0.172545 0.945819 0.384814
Si Si3 0.330325 0.795275 0.239557
Si Si4 0.171554 0.396178 0.279843
Si Si5 0.674110 0.797044 0.894125
Si Si6 0.166303 0.444409 0.500000
Si Si7 0.169639 0.445384 0.160326
O O1 0.500000 0.377137 0.916513
O O2 0.237190 0.340422 0.929642
O O3 0.268173 0.428038 0.892912
O O4 0.320229 0.406167 0.000000
O O5 0.228761 0.917126 0.330017
O O6 0.251183 0.925825 0.442571
O O7 0.000000 0.938259 0.392665
O O8 0.212252 0.000000 0.374786
O O9 0.500000 0.782908 0.241329
O O10 0.250000 0.750000 0.266322
O O11 0.294286 0.840943 0.277548
O O12 0.281543 0.804814 0.173204
O O13 0.218747 0.419423 0.219080
O O14 0.000000 0.406250 0.292822
O O15 0.500000 0.793815 0.903721
O O16 0.750000 0.750000 0.918143
O O17 0.169960 0.500000 0.500000
O O18 0.000000 0.425081 0.500000
O O19 0.195780 0.500000 0.169549
O O20 0.000000 0.433491 0.146152
#
# Coordination Sequence:
#
# PCOD8269340 Si02
#       7
#    16  16  16  16  16   8  16
#     4  11  24  39  54  74 101 134 172 214 263 319
#     4  10  20  32  48  76 112 146 180 219 260 301
#     4   9  18  32  52  77 104 132 165 206 255 308
#     4  10  19  34  54  78 106 137 173 212 256 309
#     4  10  19  35  57  80 104 131 165 208 260 317
#     4   9  17  31  51  73 102 145 188 221 257 301
#     4  10  21  38  58  77 100 133 173 218 266 314
#
# _framework density 17.460286
#
# number of rings (size 3 to 8) (size 9 to 14) (size 15 to 20)
#    0.000    2.077    1.538    2.077    0.000    6.462 
#    0.000    1.538    0.000    0.000    0.000    0.538 
#    0.000    0.000    0.000    0.000    0.000    0.000 
#
# Total GULP energy -644963.730484 kJ/mol
# GULP energy per Si atom -12403.148663 kJ/mol
# Density = 1.742055 g / cm^3
# Si number density = 17.460286 Si / 1000 Ang^3
#
#
#
# Elastic Constant Matrix: (Units=GPa)
#
#
# Indices 1 2 3 4 5 6 
#
# 1 90.5048 43.2597 51.1938 0.0000 0.0000 0.0000
# 2 43.2597 83.3291 41.5634 0.0000 0.0000 0.0000
# 3 51.1938 41.5634 94.6160 0.0000 0.0000 0.0000
# 4 0.0000 0.0000 0.0000 11.9766 0.0000 0.0000
# 5 0.0000 0.0000 0.0000 0.0000 30.3981 0.0000
# 6 0.0000 0.0000 0.0000 0.0000 0.0000 32.1601
#
#
#
# Elastic Compliance Matrix: (Units=1/GPa)
#
#
# Indices 1 2 3 4 5 6 
#
# 1 0.017801 -0.005682 -0.007136 0.000000 0.000000 0.000000
# 2 -0.005682 0.017182 -0.004473 0.000000 0.000000 0.000000
# 3 -0.007136 -0.004473 0.016395 0.000000 0.000000 0.000000
# 4 0.000000 0.000000 0.000000 0.083496 0.000000 0.000000
# 5 0.000000 0.000000 0.000000 0.000000 0.032897 0.000000
# 6 0.000000 0.000000 0.000000 0.000000 0.000000 0.031094
#
#
# Mechanical properties :
#
#
# Convention : Reuss Voigt Hill
#
# Bulk Modulus (GPa) = 59.53865 60.05376 59.79621
# Shear Modulus (GPa) = 20.91643 23.73581 22.32612
#
# Velocity S-wave (km/s) = 3.46489 3.69103 3.57974
# Velocity P-wave (km/s) = 7.08384 7.25493 7.16990
#
# Compressibility (1/GPa) = 0.01679581
#
# Stress axis : x y z
#
# Youngs Moduli (GPa) = 56.17515 58.20153 60.99458
#
# Poissons Ratio (x) = 0.33072 0.43524
# Poissons Ratio (y) = 0.31921 0.27284
# Poissons Ratio (z) = 0.40085 0.26034
#
# Static dielectric constant tensor:
#      x y z
#    x 3.340550 0.000000 0.000000 
#    y 0.000000 3.214540 0.000000 
#    z 0.000000 0.000000 3.161710 
# 
# 
# High freq. dielectric constant tensor:
#      x y z
#    x 1.682720 0.000000 0.000000 
#    y 0.000000 1.664640 0.000000 
#    z 0.000000 0.000000 1.659960 
# 
# From -- ./inp_files/60900.got.cif
#   From: 2010.03.12/outbox.cif.g09.slc.cpg/sg65_31_cif.got.tgz:60900.got - 2010.04.10 20:52:16.
