data_PCOD8269612
_publ_section_title
;
Structure prediction by ZEFSAII (Michael W. Deem and Ramdas Pophale) SiO2 
 PCOD8269612
Probable space group: C M M M
;
_chemical_formula_sum "Si O2"
_cell_formula_units_Z 88
_cell_length_a 16.719674
_cell_length_b 29.882455
_cell_length_c 8.995800
_cell_angle_alpha 90.000000
_cell_angle_beta 90.000000
_cell_angle_gamma 90.000000
_cell_volume 4494.525729
_symmetry_space_group_name_H-M "C M M M"
_symmetry_group_IT_number 65
_symmetry_cell_setting 'orthorhombic'
loop_
_space_group_symop_operation_xyz
x,y,z
-x,-y,z
x,-y,-z
-x,y,-z
-x,-y,-z
x,y,-z
-x,y,z
x,-y,z
1/2+x,1/2+y,z
1/2-x,1/2-y,z
1/2+x,1/2-y,-z
1/2-x,1/2+y,-z
1/2-x,1/2-y,-z
1/2+x,1/2+y,-z
1/2-x,1/2+y,z
1/2+x,1/2-y,z
loop_
_atom_site_type_symbol
_atom_site_label
_atom_site_fract_x
_atom_site_fract_y
_atom_site_fract_z
Si Si1 0.093356 0.696421 0.174658
Si Si2 0.905946 0.549337 0.164140
Si Si3 0.849549 0.110977 0.823381
Si Si4 0.312788 0.881174 0.327141
Si Si5 0.087551 0.795674 0.824353
Si Si6 0.500000 0.448502 0.176550
O O1 0.155354 0.665210 0.260150
O O2 0.121825 0.746804 0.217941
O O3 0.000000 0.688518 0.219844
O O4 0.102914 0.687705 0.000000
O O5 0.869298 0.500000 0.189573
O O6 0.879244 0.581633 0.295866
O O7 0.000000 0.546567 0.170674
O O8 0.879534 0.567249 0.000000
O O9 0.766319 0.098083 0.748520
O O10 0.861405 0.162299 0.767487
O O11 0.920869 0.078146 0.767394
O O12 0.842261 0.107651 0.000000
O O13 0.298124 0.874427 0.500000
O O14 0.000000 0.800574 0.752724
O O15 0.079543 0.798918 0.000000
O O16 0.500000 0.500000 0.236647
O O17 0.500000 0.448790 0.000000
#
# Coordination Sequence:
#
# PCOD8269612 Si02
#       6
#    16  16  16  16  16   8
#     4   9  18  34  57  82 108 142 188 237 283 328
#     4   9  19  38  63  85 104 134 180 230 276 321
#     4  10  19  35  59  82 108 142 183 233 284 332
#     4  12  25  36  49  78 120 155 184 218 267 332
#     4   8  14  29  56  84 104 133 184 241 287 328
#     4   9  18  34  61  93 113 131 173 235 294 341
#
# _framework density 19.579373
#
# number of rings (size 3 to 8) (size 9 to 14) (size 15 to 20)
#    0.000    2.455    0.909    3.818    0.000    4.727 
#    0.000    7.727    0.000    1.636    0.000    0.000 
#    0.000    0.000    0.000    0.000    0.000    0.000 
#
# Total GULP energy -545249.184627 kJ/mol
# GULP energy per Si atom -12392.026923 kJ/mol
# Density = 1.953481 g / cm^3
# Si number density = 19.579373 Si / 1000 Ang^3
#
#
#
# Elastic Constant Matrix: (Units=GPa)
#
#
# Indices 1 2 3 4 5 6 
#
# 1 74.7656 47.1649 31.6010 0.0000 0.0000 0.0000
# 2 47.1649 132.1924 34.5910 0.0000 0.0000 0.0000
# 3 31.6010 34.5910 55.9288 0.0000 0.0000 0.0000
# 4 0.0000 0.0000 0.0000 1.7499 0.0000 0.0000
# 5 0.0000 0.0000 0.0000 0.0000 5.9856 0.0000
# 6 0.0000 0.0000 0.0000 0.0000 0.0000 8.4815
#
#
#
# Elastic Compliance Matrix: (Units=1/GPa)
#
#
# Indices 1 2 3 4 5 6 
#
# 1 0.019990 -0.004983 -0.008213 0.000000 0.000000 0.000000
# 2 -0.004983 0.010268 -0.003535 0.000000 0.000000 0.000000
# 3 -0.008213 -0.003535 0.024706 0.000000 0.000000 0.000000
# 4 0.000000 0.000000 0.000000 0.571460 0.000000 0.000000
# 5 0.000000 0.000000 0.000000 0.000000 0.167068 0.000000
# 6 0.000000 0.000000 0.000000 0.000000 0.000000 0.117904
#
#
# Mechanical properties :
#
#
# Convention : Reuss Voigt Hill
#
# Bulk Modulus (GPa) = 46.50585 54.40007 50.45296
# Shear Modulus (GPa) = 5.25196 13.21205 9.23201
#
# Velocity S-wave (km/s) = 1.63958 2.60050 2.17380
# Velocity P-wave (km/s) = 5.23339 6.07137 5.66788
#
# Compressibility (1/GPa) = 0.02150267
#
# Stress axis : x y z
#
# Youngs Moduli (GPa) = 50.02508 97.39356 40.47527
#
# Poissons Ratio (x) = 0.48533 0.33241
# Poissons Ratio (y) = 0.24928 0.14307
# Poissons Ratio (z) = 0.41084 0.34426
#
# Static dielectric constant tensor:
#      x y z
#    x 3.535600 0.000000 0.000000 
#    y 0.000000 3.920900 0.000000 
#    z 0.000000 0.000000 3.092900 
# 
# 
# High freq. dielectric constant tensor:
#      x y z
#    x 1.758160 0.000000 0.000000 
#    y 0.000000 1.777820 0.000000 
#    z 0.000000 0.000000 1.709800 
# 
# From -- ./inp_files/10137.got.cif
#   From: 2010.03.12/outbox.cif.g09.slc.cpg/sg65_6_cif.got.tgz:10137.got - 2010.04.10 20:52:16.
