data_PCOD8269314
_publ_section_title
;
Structure prediction by ZEFSAII (Michael W. Deem and Ramdas Pophale) SiO2 
 PCOD8269314
Probable space group: C M M M
;
_chemical_formula_sum "Si O2"
_cell_formula_units_Z 64
_cell_length_a 11.058478
_cell_length_b 35.428025
_cell_length_c 9.212877
_cell_angle_alpha 90.000000
_cell_angle_beta 90.000000
_cell_angle_gamma 90.000000
_cell_volume 3609.421274
_symmetry_space_group_name_H-M "C M M M"
_symmetry_group_IT_number 65
_symmetry_cell_setting 'orthorhombic'
loop_
_space_group_symop_operation_xyz
x,y,z
-x,-y,z
x,-y,-z
-x,y,-z
-x,-y,-z
x,y,-z
-x,y,z
x,-y,z
1/2+x,1/2+y,z
1/2-x,1/2-y,z
1/2+x,1/2-y,-z
1/2-x,1/2+y,-z
1/2-x,1/2-y,-z
1/2+x,1/2+y,-z
1/2-x,1/2+y,z
1/2+x,1/2-y,z
loop_
_atom_site_type_symbol
_atom_site_label
_atom_site_fract_x
_atom_site_fract_y
_atom_site_fract_z
Si Si1 0.860028 0.852220 0.663455
Si Si2 0.745572 0.430498 0.328208
Si Si3 0.359798 0.500000 0.160011
Si Si4 0.138524 0.776347 0.171641
Si Si5 0.500000 0.041800 0.670758
O O1 0.816991 0.842502 0.500000
O O2 0.792502 0.889017 0.724917
O O3 0.829824 0.817135 0.765301
O O4 0.000000 0.862284 0.665437
O O5 0.724600 0.435141 0.500000
O O6 0.671112 0.462694 0.249109
O O7 0.884196 0.434706 0.279981
O O8 0.500000 0.500000 0.135276
O O9 0.296927 0.500000 0.000000
O O10 0.250000 0.750000 0.226795
O O11 0.000000 0.763704 0.220352
O O12 0.141490 0.779093 0.000000
O O13 0.500000 0.036327 0.500000
O O14 0.500000 0.000000 0.742737
#
# Coordination Sequence:
#
# PCOD8269314 Si02
#       5
#    16  16   8  16   8
#     4   9  18  32  51  76 103 130 164 207 250 293
#     4  10  19  34  54  73  98 133 171 206 249 303
#     4  11  23  34  47  72 102 129 164 213 258 295
#     4   9  18  34  55  76 101 135 169 202 247 303
#     4   9  16  30  52  74  96 130 170 208 246 294
#
# _framework density 17.731376000000001
#
# number of rings (size 3 to 8) (size 9 to 14) (size 15 to 20)
#    0.000    2.500    1.250    1.125    0.000    3.500 
#    2.250    3.750    0.000    0.000    0.000    0.000 
#    0.000    0.000    0.000    0.000    0.000    0.000 
#
# Total GULP energy -396592.117880 kJ/mol
# GULP energy per Si atom -12393.503684 kJ/mol
# Density = 1.769102 g / cm^3
# Si number density = 17.731376 Si / 1000 Ang^3
#
#
#
# Elastic Constant Matrix: (Units=GPa)
#
#
# Indices 1 2 3 4 5 6 
#
# 1 110.5528 80.4939 26.3120 0.0000 0.0000 0.0000
# 2 80.4939 143.3870 32.7359 0.0000 0.0000 0.0000
# 3 26.3120 32.7359 32.3449 0.0000 0.0000 0.0000
# 4 0.0000 0.0000 0.0000 26.9173 0.0000 0.0000
# 5 0.0000 0.0000 0.0000 0.0000 14.5258 0.0000
# 6 0.0000 0.0000 0.0000 0.0000 0.0000 31.9244
#
#
#
# Elastic Compliance Matrix: (Units=1/GPa)
#
#
# Indices 1 2 3 4 5 6 
#
# 1 0.015915 -0.007775 -0.005077 0.000000 0.000000 0.000000
# 2 -0.007775 0.012868 -0.006699 0.000000 0.000000 0.000000
# 3 -0.005077 -0.006699 0.041827 0.000000 0.000000 0.000000
# 4 0.000000 0.000000 0.000000 0.037151 0.000000 0.000000
# 5 0.000000 0.000000 0.000000 0.000000 0.068843 0.000000
# 6 0.000000 0.000000 0.000000 0.000000 0.000000 0.031324
#
#
# Mechanical properties :
#
#
# Convention : Reuss Voigt Hill
#
# Bulk Modulus (GPa) = 31.73858 62.81870 47.27864
# Shear Modulus (GPa) = 19.41495 24.45637 21.93566
#
# Velocity S-wave (km/s) = 3.31259 3.71788 3.52107
# Velocity P-wave (km/s) = 5.70697 7.34405 6.57665
#
# Compressibility (1/GPa) = 0.03150739
#
# Stress axis : x y z
#
# Youngs Moduli (GPa) = 62.83399 77.71062 23.90792
#
# Poissons Ratio (x) = 0.60420 0.12139
# Poissons Ratio (y) = 0.48854 0.16016
# Poissons Ratio (z) = 0.31904 0.52058
#
# Static dielectric constant tensor:
#      x y z
#    x 4.104650 0.000000 0.000000 
#    y 0.000000 3.273640 0.000000 
#    z 0.000000 0.000000 3.175350 
# 
# 
# High freq. dielectric constant tensor:
#      x y z
#    x 1.691140 0.000000 0.000000 
#    y 0.000000 1.683510 0.000000 
#    z 0.000000 0.000000 1.668130 
# 
# From -- ./inp_files/4947.got.cif
#   From: 2010.03.12/outbox.cif.g09.slc.cpg/sg65_3_cif.got.tgz:4947.got - 2010.04.10 20:52:16.
