data_PCOD8269531
_publ_section_title
;
Structure prediction by ZEFSAII (Michael W. Deem and Ramdas Pophale) SiO2 
 PCOD8269531
Probable space group: C M M M
;
_chemical_formula_sum "Si O2"
_cell_formula_units_Z 120
_cell_length_a 14.647019
_cell_length_b 22.478526
_cell_length_c 18.637606
_cell_angle_alpha 90.000000
_cell_angle_beta 90.000000
_cell_angle_gamma 90.000000
_cell_volume 6136.308719
_symmetry_space_group_name_H-M "C M M M"
_symmetry_group_IT_number 65
_symmetry_cell_setting 'orthorhombic'
loop_
_space_group_symop_operation_xyz
x,y,z
-x,-y,z
x,-y,-z
-x,y,-z
-x,-y,-z
x,y,-z
-x,y,z
x,-y,z
1/2+x,1/2+y,z
1/2-x,1/2-y,z
1/2+x,1/2-y,-z
1/2-x,1/2+y,-z
1/2-x,1/2-y,-z
1/2+x,1/2+y,-z
1/2-x,1/2+y,z
1/2+x,1/2-y,z
loop_
_atom_site_type_symbol
_atom_site_label
_atom_site_fract_x
_atom_site_fract_y
_atom_site_fract_z
Si Si1 0.105245 0.712342 0.582401
Si Si2 0.103319 0.838667 0.649003
Si Si3 0.396351 0.112343 0.081467
Si Si4 0.642729 0.245408 0.918668
Si Si5 0.789079 0.608156 0.349551
Si Si6 0.900681 0.847218 0.187825
Si Si7 0.738706 0.067788 0.806733
Si Si8 0.896637 0.500000 0.584155
O O1 0.133813 0.702241 0.500000
O O2 0.122828 0.780786 0.601669
O O3 0.166119 0.671597 0.633631
O O4 0.000000 0.695172 0.594651
O O5 0.180367 0.888517 0.630285
O O6 0.116267 0.821487 0.732463
O O7 0.000000 0.862945 0.633896
O O8 0.500000 0.090417 0.087116
O O9 0.388757 0.180499 0.107091
O O10 0.337203 0.069939 0.131765
O O11 0.359897 0.106563 0.000000
O O12 0.750000 0.250000 0.911840
O O13 0.597301 0.292873 0.866993
O O14 0.609621 0.257439 0.000000
O O15 0.802430 0.595456 0.265622
O O16 0.839905 0.557797 0.394170
O O17 0.826801 0.896322 0.166003
O O18 0.000000 0.878270 0.184618
O O19 0.767582 0.000000 0.792519
O O20 0.906574 0.500000 0.500000
O O21 0.000000 0.500000 0.617494
#
# Coordination Sequence:
#
# PCOD8269531 Si02
#       8
#    16  16  16  16  16  16  16   8
#     4  10  21  37  59  89 121 151 185 231 291 354
#     4   9  21  38  58  87 119 152 191 235 286 350
#     4  10  22  39  59  85 117 153 189 230 286 346
#     4  10  19  34  59  89 120 152 185 232 291 350
#     4  11  22  39  60  84 116 156 195 236 292 343
#     4  10  21  37  60  86 115 151 192 240 291 342
#     4  11  24  41  58  82 114 152 200 246 285 333
#     4  11  24  42  63  87 116 150 195 246 289 339
#
# _framework density 19.555730000000001
#
# number of rings (size 3 to 8) (size 9 to 14) (size 15 to 20)
#    0.000    1.800    2.000    1.600    1.867    5.333 
#    0.000    1.000    0.000    0.400    0.000    1.867 
#    0.000    0.000    0.000    0.000    0.000    0.000 
#
# Total GULP energy -744058.402581 kJ/mol
# GULP energy per Si atom -12400.973376 kJ/mol
# Density = 1.951122 g / cm^3
# Si number density = 19.555730 Si / 1000 Ang^3
#
#
#
# Elastic Constant Matrix: (Units=GPa)
#
#
# Indices 1 2 3 4 5 6 
#
# 1 115.5285 47.3002 39.1267 0.0000 0.0000 0.0000
# 2 47.3002 73.8976 34.4651 0.0000 0.0000 0.0000
# 3 39.1267 34.4651 74.8681 0.0000 0.0000 0.0000
# 4 0.0000 0.0000 0.0000 28.9130 0.0000 0.0000
# 5 0.0000 0.0000 0.0000 0.0000 26.0708 0.0000
# 6 0.0000 0.0000 0.0000 0.0000 0.0000 62.2211
#
#
#
# Elastic Compliance Matrix: (Units=1/GPa)
#
#
# Indices 1 2 3 4 5 6 
#
# 1 0.012453 -0.006285 -0.003615 0.000000 0.000000 0.000000
# 2 -0.006285 0.020404 -0.006108 0.000000 0.000000 0.000000
# 3 -0.003615 -0.006108 0.018058 0.000000 0.000000 0.000000
# 4 0.000000 0.000000 0.000000 0.034587 0.000000 0.000000
# 5 0.000000 0.000000 0.000000 0.000000 0.038357 0.000000
# 6 0.000000 0.000000 0.000000 0.000000 0.000000 0.016072
#
#
# Mechanical properties :
#
#
# Convention : Reuss Voigt Hill
#
# Bulk Modulus (GPa) = 52.91353 56.23091 54.57222
# Shear Modulus (GPa) = 28.05094 33.00112 30.52603
#
# Velocity S-wave (km/s) = 3.79147 4.11243 3.95521
# Velocity P-wave (km/s) = 6.80320 7.16701 6.98747
#
# Compressibility (1/GPa) = 0.01889876
#
# Stress axis : x y z
#
# Youngs Moduli (GPa) = 80.29876 49.00979 55.37751
#
# Poissons Ratio (x) = 0.30804 0.20019
# Poissons Ratio (y) = 0.50470 0.33826
# Poissons Ratio (z) = 0.29027 0.29936
#
# Static dielectric constant tensor:
#      x y z
#    x 3.980960 0.000000 0.000000 
#    y 0.000000 3.456230 0.000000 
#    z 0.000000 0.000000 3.588880 
# 
# 
# High freq. dielectric constant tensor:
#      x y z
#    x 1.777490 0.000000 0.000000 
#    y 0.000000 1.742590 0.000000 
#    z 0.000000 0.000000 1.762770 
# 
# From -- ./inp_files/63036.got.cif
#   From: 2010.03.12/outbox.cif.g09.slc.cpg/sg65_32_cif.got.tgz:63036.got - 2010.04.10 20:52:16.
