data_PCOD8269831
_publ_section_title
;
Structure prediction by ZEFSAII (Michael W. Deem and Ramdas Pophale) SiO2 
 PCOD8269831
Probable space group: C M M M
;
_chemical_formula_sum "Si O2"
_cell_formula_units_Z 112
_cell_length_a 26.324479
_cell_length_b 14.328819
_cell_length_c 15.825031
_cell_angle_alpha 90.000000
_cell_angle_beta 90.000000
_cell_angle_gamma 90.000000
_cell_volume 5969.181039
_symmetry_space_group_name_H-M "C M M M"
_symmetry_group_IT_number 65
_symmetry_cell_setting 'orthorhombic'
loop_
_space_group_symop_operation_xyz
x,y,z
-x,-y,z
x,-y,-z
-x,y,-z
-x,-y,-z
x,y,-z
-x,y,z
x,-y,z
1/2+x,1/2+y,z
1/2-x,1/2-y,z
1/2+x,1/2-y,-z
1/2-x,1/2+y,-z
1/2-x,1/2-y,-z
1/2+x,1/2+y,-z
1/2-x,1/2+y,z
1/2+x,1/2-y,z
loop_
_atom_site_type_symbol
_atom_site_label
_atom_site_fract_x
_atom_site_fract_y
_atom_site_fract_z
Si Si1 0.144893 0.255092 0.593412
Si Si2 0.869784 0.892336 0.905971
Si Si3 0.058570 0.395054 0.633756
Si Si4 0.383908 0.897720 0.198582
Si Si5 0.944986 0.260586 0.904253
Si Si6 0.791409 0.607862 0.686232
Si Si7 0.324063 0.391189 0.728668
O O1 0.152037 0.210665 0.500000
O O2 0.093162 0.315816 0.590974
O O3 0.192261 0.325317 0.609313
O O4 0.142965 0.172615 0.664034
O O5 0.924379 0.844094 0.893930
O O6 0.833764 0.864600 0.826926
O O7 0.882198 0.000000 0.901859
O O8 0.846506 0.866611 0.000000
O O9 0.069012 0.500000 0.596985
O O10 0.071494 0.396711 0.732447
O O11 0.000000 0.367484 0.619577
O O12 0.400091 0.826739 0.127233
O O13 0.329740 0.867273 0.237259
O O14 0.378830 0.000000 0.157786
O O15 0.000000 0.269134 0.857722
O O16 0.953513 0.288549 0.000000
O O17 0.798195 0.500000 0.659070
O O18 0.734752 0.631110 0.713640
O O19 0.336699 0.500000 0.710706
#
# Coordination Sequence:
#
# PCOD8269831 Si02
#       7
#    16  16  16  16  16  16  16
#     4  11  22  34  52  78 107 140 176 213 255 305
#     4   9  18  34  56  78  98 125 166 215 263 306
#     4   9  18  33  54  78 102 132 172 217 262 304
#     4   9  17  31  50  71  98 133 170 206 247 300
#     4  10  20  31  45  70 103 135 166 204 252 306
#     4   9  19  35  54  75 101 134 171 213 260 304
#     4  10  21  37  55  76 105 138 172 214 261 311
#
# _framework density 18.763044000000001
#
# number of rings (size 3 to 8) (size 9 to 14) (size 15 to 20)
#    0.000    2.429    0.000    3.857    0.000    4.286 
#    0.000    5.000    0.000    7.286    0.000    1.000 
#    0.000    0.000    0.000    0.000    0.000    0.000 
#
# Total GULP energy -693862.540538 kJ/mol
# GULP energy per Si atom -12390.402510 kJ/mol
# Density = 1.872034 g / cm^3
# Si number density = 18.763044 Si / 1000 Ang^3
#
#
#
# Elastic Constant Matrix: (Units=GPa)
#
#
# Indices 1 2 3 4 5 6 
#
# 1 104.3806 42.2593 42.4711 0.0000 0.0000 0.0000
# 2 42.2593 76.3773 51.6171 0.0000 0.0000 0.0000
# 3 42.4711 51.6171 104.0018 0.0000 0.0000 0.0000
# 4 0.0000 0.0000 0.0000 21.0103 0.0000 0.0000
# 5 0.0000 0.0000 0.0000 0.0000 13.7287 0.0000
# 6 0.0000 0.0000 0.0000 0.0000 0.0000 24.8149
#
#
#
# Elastic Compliance Matrix: (Units=1/GPa)
#
#
# Indices 1 2 3 4 5 6 
#
# 1 0.012788 -0.005336 -0.002574 0.000000 0.000000 0.000000
# 2 -0.005336 0.021927 -0.008704 0.000000 0.000000 0.000000
# 3 -0.002574 -0.008704 0.014986 0.000000 0.000000 0.000000
# 4 0.000000 0.000000 0.000000 0.047596 0.000000 0.000000
# 5 0.000000 0.000000 0.000000 0.000000 0.072840 0.000000
# 6 0.000000 0.000000 0.000000 0.000000 0.000000 0.040298
#
#
# Mechanical properties :
#
#
# Convention : Reuss Voigt Hill
#
# Bulk Modulus (GPa) = 60.70118 61.93940 61.32029
# Shear Modulus (GPa) = 20.06789 21.80493 20.93641
#
# Velocity S-wave (km/s) = 3.27394 3.41269 3.34403
# Velocity P-wave (km/s) = 6.83471 6.97220 6.90380
#
# Compressibility (1/GPa) = 0.01647415
#
# Stress axis : x y z
#
# Youngs Moduli (GPa) = 78.19874 45.60498 66.72877
#
# Poissons Ratio (x) = 0.24335 0.17175
# Poissons Ratio (y) = 0.41727 0.58079
# Poissons Ratio (z) = 0.20127 0.39693
#
# Static dielectric constant tensor:
#      x y z
#    x 3.462230 0.000000 0.000000 
#    y 0.000000 3.549900 0.000000 
#    z 0.000000 0.000000 3.417140 
# 
# 
# High freq. dielectric constant tensor:
#      x y z
#    x 1.719270 0.000000 0.000000 
#    y 0.000000 1.732720 0.000000 
#    z 0.000000 0.000000 1.714840 
# 
# From -- ./inp_files/45790.got.cif
#   From: 2010.03.12/outbox.cif.g09.slc.cpg/sg65_23_cif.got.tgz:45790.got - 2010.04.10 20:52:16.
