data_PCOD8269704
_publ_section_title
;
Structure prediction by ZEFSAII (Michael W. Deem and Ramdas Pophale) SiO2 
 PCOD8269704
Probable space group: C M M M
;
_chemical_formula_sum "Si O2"
_cell_formula_units_Z 44
_cell_length_a 15.469200
_cell_length_b 9.938595
_cell_length_c 14.430898
_cell_angle_alpha 90.000000
_cell_angle_beta 90.000000
_cell_angle_gamma 90.000000
_cell_volume 2218.636762
_symmetry_space_group_name_H-M "C M M M"
_symmetry_group_IT_number 65
_symmetry_cell_setting 'orthorhombic'
loop_
_space_group_symop_operation_xyz
x,y,z
-x,-y,z
x,-y,-z
-x,y,-z
-x,-y,-z
x,y,-z
-x,y,z
x,-y,z
1/2+x,1/2+y,z
1/2-x,1/2-y,z
1/2+x,1/2-y,-z
1/2-x,1/2+y,-z
1/2-x,1/2-y,-z
1/2+x,1/2+y,-z
1/2-x,1/2+y,z
1/2+x,1/2-y,z
loop_
_atom_site_type_symbol
_atom_site_label
_atom_site_fract_x
_atom_site_fract_y
_atom_site_fract_z
Si Si1 0.000000 0.500000 0.251324
Si Si2 0.500000 0.767896 0.897856
Si Si3 0.677866 0.652652 0.848390
Si Si4 0.250000 0.750000 0.671170
Si Si5 0.847866 0.500000 0.397942
O O1 0.000000 0.372903 0.184919
O O2 0.083968 0.500000 0.315106
O O3 0.583841 0.674222 0.890729
O O4 0.500000 0.836509 0.000000
O O5 0.707184 0.500000 0.867027
O O6 0.750000 0.750000 0.896125
O O7 0.676426 0.683644 0.737714
O O8 0.209982 0.633919 0.607604
O O9 0.891820 0.500000 0.500000
#
# Coordination Sequence:
#
# PCOD8269704 Si02
#       5
#     4   8  16   8   8
#     4  12  22  46  60  92 136 162 214 276 322 364
#     4  12  26  41  66  94 128 177 223 263 318 383
#     4  10  21  41  67  91 128 175 209 264 326 373
#     4  10  19  40  63  90 128 160 203 258 317 374
#     4  12  23  39  69  97 122 165 214 259 323 393
#
# _framework density 19.831999
#
# number of rings (size 3 to 8) (size 9 to 14) (size 15 to 20)
#    1.091    0.000    5.455    1.636    2.545    2.182 
#    0.000    0.000    0.000    0.000    0.000    7.636 
#    0.000    0.000    0.000    0.000    0.000    0.000 
#
# Total GULP energy -272658.016911 kJ/mol
# GULP energy per Si atom -12393.546223 kJ/mol
# Density = 1.978686 g / cm^3
# Si number density = 19.831999 Si / 1000 Ang^3
#
#
#
# Elastic Constant Matrix: (Units=GPa)
#
#
# Indices 1 2 3 4 5 6 
#
# 1 121.6037 62.7476 33.6726 0.0000 0.0000 0.0000
# 2 62.7476 173.1095 40.6139 0.0000 0.0000 0.0000
# 3 33.6726 40.6139 133.1990 0.0000 0.0000 0.0000
# 4 0.0000 0.0000 0.0000 22.9035 0.0000 0.0000
# 5 0.0000 0.0000 0.0000 0.0000 86.3977 0.0000
# 6 0.0000 0.0000 0.0000 0.0000 0.0000 26.0566
#
#
#
# Elastic Compliance Matrix: (Units=1/GPa)
#
#
# Indices 1 2 3 4 5 6 
#
# 1 0.010422 -0.003403 -0.001597 0.000000 0.000000 0.000000
# 2 -0.003403 0.007333 -0.001376 0.000000 0.000000 0.000000
# 3 -0.001597 -0.001376 0.008331 0.000000 0.000000 0.000000
# 4 0.000000 0.000000 0.000000 0.043661 0.000000 0.000000
# 5 0.000000 0.000000 0.000000 0.000000 0.011574 0.000000
# 6 0.000000 0.000000 0.000000 0.000000 0.000000 0.038378
#
#
# Mechanical properties :
#
#
# Convention : Reuss Voigt Hill
#
# Bulk Modulus (GPa) = 74.99524 77.99781 76.49653
# Shear Modulus (GPa) = 36.52446 46.46344 41.49395
#
# Velocity S-wave (km/s) = 4.29615 4.84555 4.57910
# Velocity P-wave (km/s) = 7.90611 8.40955 8.16171
#
# Compressibility (1/GPa) = 0.01333418
#
# Stress axis : x y z
#
# Youngs Moduli (GPa) = 95.95534 136.37207 120.03755
#
# Poissons Ratio (x) = 0.46405 0.19170
# Poissons Ratio (y) = 0.32652 0.16513
# Poissons Ratio (z) = 0.15324 0.18760
#
# Static dielectric constant tensor:
#      x y z
#    x 3.468800 0.000000 0.000000 
#    y 0.000000 3.514860 0.000000 
#    z 0.000000 0.000000 3.507600 
# 
# 
# High freq. dielectric constant tensor:
#      x y z
#    x 1.760470 0.000000 0.000000 
#    y 0.000000 1.780380 0.000000 
#    z 0.000000 0.000000 1.769480 
# 
# From -- ./inp_files/53755.got.cif
#   From: 2010.03.12/outbox.cif.g09.slc.cpg/sg65_27_cif.got.tgz:53755.got - 2010.04.10 20:52:16.
