data_PCOD8269524
_publ_section_title
;
Structure prediction by ZEFSAII (Michael W. Deem and Ramdas Pophale) SiO2 
 PCOD8269524
Probable space group: C M M M
;
_chemical_formula_sum "Si O2"
_cell_formula_units_Z 64
_cell_length_a 18.479249
_cell_length_b 14.355077
_cell_length_c 11.952127
_cell_angle_alpha 90.000000
_cell_angle_beta 90.000000
_cell_angle_gamma 90.000000
_cell_volume 3170.553187
_symmetry_space_group_name_H-M "C M M M"
_symmetry_group_IT_number 65
_symmetry_cell_setting 'orthorhombic'
loop_
_space_group_symop_operation_xyz
x,y,z
-x,-y,z
x,-y,-z
-x,y,-z
-x,-y,-z
x,y,-z
-x,y,z
x,-y,z
1/2+x,1/2+y,z
1/2-x,1/2-y,z
1/2+x,1/2-y,-z
1/2-x,1/2+y,-z
1/2-x,1/2-y,-z
1/2+x,1/2+y,-z
1/2-x,1/2+y,z
1/2+x,1/2-y,z
loop_
_atom_site_type_symbol
_atom_site_label
_atom_site_fract_x
_atom_site_fract_y
_atom_site_fract_z
Si Si1 0.658519 0.150658 0.729408
Si Si2 0.084955 0.500000 0.124830
Si Si3 0.083173 0.000000 0.867652
Si Si4 0.419240 0.187607 0.500000
Si Si5 0.386711 0.396584 0.500000
Si Si6 0.821544 0.136787 0.265127
O O1 0.607081 0.093789 0.811263
O O2 0.626039 0.148659 0.604558
O O3 0.738058 0.106114 0.743607
O O4 0.664615 0.256911 0.765697
O O5 0.000000 0.500000 0.116236
O O6 0.119019 0.500000 0.000000
O O7 0.125316 0.088920 0.822392
O O8 0.000000 0.000000 0.824273
O O9 0.085411 0.000000 0.000000
O O10 0.500000 0.144081 0.500000
O O11 0.432892 0.300601 0.500000
O O12 0.427062 0.500000 0.500000
O O13 0.337799 0.392297 0.608894
#
# Coordination Sequence:
#
# PCOD8269524 Si02
#       6
#    16   8   8   8   8  16
#     4  10  22  40  63  89 121 160 205 249 300 359
#     4  11  25  42  59  82 114 157 210 261 303 349
#     4  11  25  42  61  90 125 159 199 251 314 375
#     4  10  21  37  59  92 130 163 197 243 304 367
#     4  10  19  34  58  93 125 159 193 236 296 365
#     4  10  21  40  63  91 124 160 197 247 303 364
#
# _framework density 20.185752000000001
#
# number of rings (size 3 to 8) (size 9 to 14) (size 15 to 20)
#    0.000    1.750    1.250    2.250    0.000   11.750 
#    0.000    6.250    0.000    0.000    0.000    0.000 
#    0.000    0.000    0.000    0.000    0.000    0.000 
#
# Total GULP energy -396486.920041 kJ/mol
# GULP energy per Si atom -12390.216251 kJ/mol
# Density = 2.013981 g / cm^3
# Si number density = 20.185752 Si / 1000 Ang^3
#
#
#
# Elastic Constant Matrix: (Units=GPa)
#
#
# Indices 1 2 3 4 5 6 
#
# 1 154.5728 41.9400 59.4842 0.0000 0.0000 0.0000
# 2 41.9400 100.5451 54.3227 0.0000 0.0000 0.0000
# 3 59.4842 54.3227 129.4725 0.0000 0.0000 0.0000
# 4 0.0000 0.0000 0.0000 37.2080 0.0000 0.0000
# 5 0.0000 0.0000 0.0000 0.0000 34.1491 0.0000
# 6 0.0000 0.0000 0.0000 0.0000 0.0000 24.6667
#
#
#
# Elastic Compliance Matrix: (Units=1/GPa)
#
#
# Indices 1 2 3 4 5 6 
#
# 1 0.008095 -0.001768 -0.002977 0.000000 0.000000 0.000000
# 2 -0.001768 0.013247 -0.004746 0.000000 0.000000 0.000000
# 3 -0.002977 -0.004746 0.011083 0.000000 0.000000 0.000000
# 4 0.000000 0.000000 0.000000 0.026876 0.000000 0.000000
# 5 0.000000 0.000000 0.000000 0.000000 0.029283 0.000000
# 6 0.000000 0.000000 0.000000 0.000000 0.000000 0.040541
#
#
# Mechanical properties :
#
#
# Convention : Reuss Voigt Hill
#
# Bulk Modulus (GPa) = 74.39016 77.34267 75.86642
# Shear Modulus (GPa) = 32.76793 34.46098 33.61445
#
# Velocity S-wave (km/s) = 4.03342 4.13630 4.08518
# Velocity P-wave (km/s) = 7.65663 7.82372 7.74063
#
# Compressibility (1/GPa) = 0.01344264
#
# Stress axis : x y z
#
# Youngs Moduli (GPa) = 123.53457 75.48646 90.23036
#
# Poissons Ratio (x) = 0.13346 0.26864
# Poissons Ratio (y) = 0.21841 0.42822
# Poissons Ratio (z) = 0.36780 0.35825
#
# Static dielectric constant tensor:
#      x y z
#    x 3.745790 0.000000 0.000000 
#    y 0.000000 4.006460 0.000000 
#    z 0.000000 0.000000 3.606230 
# 
# 
# High freq. dielectric constant tensor:
#      x y z
#    x 1.795070 0.000000 0.000000 
#    y 0.000000 1.799370 0.000000 
#    z 0.000000 0.000000 1.783970 
# 
# From -- ./inp_files/26159.got.cif
#   From: 2010.03.12/outbox.cif.g09.slc.cpg/sg65_14_cif.got.tgz:26159.got - 2010.04.10 20:52:16.
