data_PCOD8269792
_publ_section_title
;
Structure prediction by ZEFSAII (Michael W. Deem and Ramdas Pophale) SiO2 
 PCOD8269792
Probable space group: C M M M
;
_chemical_formula_sum "Si O2"
_cell_formula_units_Z 56
_cell_length_a 14.046208
_cell_length_b 26.207697
_cell_length_c 9.322192
_cell_angle_alpha 90.000000
_cell_angle_beta 90.000000
_cell_angle_gamma 90.000000
_cell_volume 3431.673790
_symmetry_space_group_name_H-M "C M M M"
_symmetry_group_IT_number 65
_symmetry_cell_setting 'orthorhombic'
loop_
_space_group_symop_operation_xyz
x,y,z
-x,-y,z
x,-y,-z
-x,y,-z
-x,-y,-z
x,y,-z
-x,y,z
x,-y,z
1/2+x,1/2+y,z
1/2-x,1/2-y,z
1/2+x,1/2-y,-z
1/2-x,1/2+y,-z
1/2-x,1/2-y,-z
1/2+x,1/2+y,-z
1/2-x,1/2+y,z
1/2+x,1/2-y,z
loop_
_atom_site_type_symbol
_atom_site_label
_atom_site_fract_x
_atom_site_fract_y
_atom_site_fract_z
Si Si1 0.729441 0.865172 0.841792
Si Si2 0.887818 0.559478 0.000000
Si Si3 0.608840 0.667344 0.331696
Si Si4 0.391166 0.769501 0.166027
O O1 0.819171 0.874897 0.735609
O O2 0.668616 0.817935 0.780603
O O3 0.770042 0.851460 0.000000
O O4 0.660501 0.914952 0.857795
O O5 0.865369 0.500000 0.000000
O O6 0.000000 0.571083 0.000000
O O7 0.624810 0.671077 0.500000
O O8 0.500000 0.652280 0.294849
O O9 0.637895 0.720927 0.260318
O O10 0.500000 0.784090 0.192024
O O11 0.371249 0.756756 0.000000
#
# Coordination Sequence:
#
# PCOD8269792 Si02
#       4
#    16   8  16  16
#     4   9  18  29  49  73  93 125 163 197 236 281
#     4   9  18  34  56  79  97 113 144 198 256 297
#     4  10  20  31  43  66 103 140 167 191 224 269
#     4   9  16  27  44  67  99 132 163 196 230 276
#
# _framework density 16.318566000000001
#
# number of rings (size 3 to 8) (size 9 to 14) (size 15 to 20)
#    0.857    1.857    0.000    2.571    0.000    6.286 
#    0.000    0.000    0.000    5.143    0.000    4.000 
#    0.000    0.000    0.000    0.000    0.000    0.000 
#
# Total GULP energy -346941.954873 kJ/mol
# GULP energy per Si atom -12390.784103 kJ/mol
# Density = 1.628142 g / cm^3
# Si number density = 16.318566 Si / 1000 Ang^3
#
#
#
# Elastic Constant Matrix: (Units=GPa)
#
#
# Indices 1 2 3 4 5 6 
#
# 1 118.5595 65.4098 49.7896 0.0000 0.0000 0.0000
# 2 65.4098 75.6495 33.4089 0.0000 0.0000 0.0000
# 3 49.7896 33.4089 57.5516 0.0000 0.0000 0.0000
# 4 0.0000 0.0000 0.0000 2.0487 0.0000 0.0000
# 5 0.0000 0.0000 0.0000 0.0000 26.2248 0.0000
# 6 0.0000 0.0000 0.0000 0.0000 0.0000 22.3444
#
#
#
# Elastic Compliance Matrix: (Units=1/GPa)
#
#
# Indices 1 2 3 4 5 6 
#
# 1 0.019307 -0.012529 -0.009430 0.000000 0.000000 0.000000
# 2 -0.012529 0.025907 -0.004200 0.000000 0.000000 0.000000
# 3 -0.009430 -0.004200 0.027972 0.000000 0.000000 0.000000
# 4 0.000000 0.000000 0.000000 0.488120 0.000000 0.000000
# 5 0.000000 0.000000 0.000000 0.000000 0.038132 0.000000
# 6 0.000000 0.000000 0.000000 0.000000 0.000000 0.044754
#
#
# Mechanical properties :
#
#
# Convention : Reuss Voigt Hill
#
# Bulk Modulus (GPa) = 47.91984 60.99746 54.45865
# Shear Modulus (GPa) = 7.10768 17.00040 12.05404
#
# Velocity S-wave (km/s) = 2.08927 3.23117 2.72080
# Velocity P-wave (km/s) = 5.93709 7.16805 6.58141
#
# Compressibility (1/GPa) = 0.02086818
#
# Stress axis : x y z
#
# Youngs Moduli (GPa) = 51.79412 38.59981 35.75047
#
# Poissons Ratio (x) = 0.48363 0.33712
# Poissons Ratio (y) = 0.64895 0.15013
# Poissons Ratio (z) = 0.48841 0.16210
#
# Static dielectric constant tensor:
#      x y z
#    x 3.327920 0.000000 0.000000 
#    y 0.000000 2.762140 0.000000 
#    z 0.000000 0.000000 2.882220 
# 
# 
# High freq. dielectric constant tensor:
#      x y z
#    x 1.649970 0.000000 0.000000 
#    y 0.000000 1.582640 0.000000 
#    z 0.000000 0.000000 1.603090 
# 
# From -- ./inp_files/7502.got.cif
#   From: 2010.03.12/outbox.cif.g09.slc.cpg/sg65_4_cif.got.tgz:7502.got - 2010.04.10 20:52:16.
