data_PCOD8269711
_publ_section_title
;
Structure prediction by ZEFSAII (Michael W. Deem and Ramdas Pophale) SiO2 
 PCOD8269711
Probable space group: C M M M
;
_chemical_formula_sum "Si O2"
_cell_formula_units_Z 96
_cell_length_a 9.736772
_cell_length_b 28.950220
_cell_length_c 25.430407
_cell_angle_alpha 90.000000
_cell_angle_beta 90.000000
_cell_angle_gamma 90.000000
_cell_volume 7168.366140
_symmetry_space_group_name_H-M "C M M M"
_symmetry_group_IT_number 65
_symmetry_cell_setting 'orthorhombic'
loop_
_space_group_symop_operation_xyz
x,y,z
-x,-y,z
x,-y,-z
-x,y,-z
-x,-y,-z
x,y,-z
-x,y,z
x,-y,z
1/2+x,1/2+y,z
1/2-x,1/2-y,z
1/2+x,1/2-y,-z
1/2-x,1/2+y,-z
1/2-x,1/2-y,-z
1/2+x,1/2+y,-z
1/2-x,1/2+y,z
1/2+x,1/2-y,z
loop_
_atom_site_type_symbol
_atom_site_label
_atom_site_fract_x
_atom_site_fract_y
_atom_site_fract_z
Si Si1 0.653899 0.554955 0.441926
Si Si2 0.653647 0.945053 0.648406
Si Si3 0.151620 0.710948 0.062494
Si Si4 0.658683 0.892829 0.938336
Si Si5 0.345689 0.945107 0.234890
Si Si6 0.342812 0.445085 0.141206
O O1 0.706078 0.570336 0.500000
O O2 0.500000 0.573288 0.432663
O O3 0.655942 0.500000 0.438473
O O4 0.748851 0.576836 0.396365
O O5 0.500000 0.927764 0.636669
O O6 0.699160 0.928387 0.706707
O O7 0.659743 0.000000 0.646058
O O8 0.250000 0.750000 0.087319
O O9 0.198536 0.659443 0.078445
O O10 0.000000 0.720664 0.084836
O O11 0.149771 0.714550 0.000000
O O12 0.500000 0.903380 0.923314
O O13 0.762502 0.927160 0.909692
O O14 0.680348 0.900260 0.000000
O O15 0.500000 0.927085 0.221686
O O16 0.235869 0.925831 0.192943
O O17 0.346967 0.000000 0.233270
O O18 0.500000 0.427089 0.141729
O O19 0.339731 0.500000 0.139478
#
# Coordination Sequence:
#
# PCOD8269711 Si02
#       6
#    16  16  16  16  16  16
#     4   8  13  19  25  35  53  75  95 116 149 194
#     4   8  13  20  30  43  55  69  94 127 160 194
#     4   8  14  25  41  60  78  93 110 132 159 195
#     4   9  18  31  44  57  73  94 118 139 164 206
#     4   8  14  25  38  48  59  78 105 136 170 207
#     4  10  20  30  39  53  71  90 115 148 182 211
#
# _framework density 13.392173
#
# number of rings (size 3 to 8) (size 9 to 14) (size 15 to 20)
#    0.000    3.500    0.000    3.000    0.000    3.333 
#    0.000    8.333    0.000    0.000    0.000    0.000 
#    0.000    0.000    0.000    0.000    0.000    0.000 
#
# Total GULP energy -594745.505413 kJ/mol
# GULP energy per Si atom -12390.531363 kJ/mol
# Density = 1.336169 g / cm^3
# Si number density = 13.392173 Si / 1000 Ang^3
#
#
#
# Elastic Constant Matrix: (Units=GPa)
#
#
# Indices 1 2 3 4 5 6 
#
# 1 95.6586 19.2199 62.1724 0.0000 0.0000 0.0000
# 2 19.2199 14.9430 15.1013 0.0000 0.0000 0.0000
# 3 62.1724 15.1013 85.4258 0.0000 0.0000 0.0000
# 4 0.0000 0.0000 0.0000 0.3213 0.0000 0.0000
# 5 0.0000 0.0000 0.0000 0.0000 24.5796 0.0000
# 6 0.0000 0.0000 0.0000 0.0000 0.0000 15.3951
#
#
#
# Elastic Compliance Matrix: (Units=1/GPa)
#
#
# Indices 1 2 3 4 5 6 
#
# 1 0.022276 -0.014936 -0.013572 0.000000 0.000000 0.000000
# 2 -0.014936 0.091491 -0.005303 0.000000 0.000000 0.000000
# 3 -0.013572 -0.005303 0.022521 0.000000 0.000000 0.000000
# 4 0.000000 0.000000 0.000000 3.112400 0.000000 0.000000
# 5 0.000000 0.000000 0.000000 0.000000 0.040684 0.000000
# 6 0.000000 0.000000 0.000000 0.000000 0.000000 0.064956
#
#
# Mechanical properties :
#
#
# Convention : Reuss Voigt Hill
#
# Bulk Modulus (GPa) = 14.56323 43.22386 28.89355
# Shear Modulus (GPa) = 1.45145 14.69478 8.07311
#
# Velocity S-wave (km/s) = 1.04219 3.31609 2.45791
# Velocity P-wave (km/s) = 3.51372 6.85620 5.44765
#
# Compressibility (1/GPa) = 0.06866607
#
# Stress axis : x y z
#
# Youngs Moduli (GPa) = 44.89213 10.93002 44.40288
#
# Poissons Ratio (x) = 0.16325 0.60263
# Poissons Ratio (y) = 0.67050 0.23548
# Poissons Ratio (z) = 0.60927 0.05797
#
# Static dielectric constant tensor:
#      x y z
#    x 2.949400 0.000000 0.000000 
#    y 0.000000 2.226400 0.000000 
#    z 0.000000 0.000000 2.790320 
# 
# 
# High freq. dielectric constant tensor:
#      x y z
#    x 1.519410 0.000000 0.000000 
#    y 0.000000 1.439480 0.000000 
#    z 0.000000 0.000000 1.502060 
# 
# From -- ./inp_files/73705.got.cif
#   From: 2010.03.12/outbox.cif.g09.slc.cpg/sg65_37_cif.got.tgz:73705.got - 2010.04.10 20:52:16.
