data_PCOD8269807
_publ_section_title
;
Structure prediction by ZEFSAII (Michael W. Deem and Ramdas Pophale) SiO2 
 PCOD8269807
Probable space group: C M M M
;
_chemical_formula_sum "Si O2"
_cell_formula_units_Z 80
_cell_length_a 27.091907
_cell_length_b 18.952603
_cell_length_c 8.952011
_cell_angle_alpha 90.000000
_cell_angle_beta 90.000000
_cell_angle_gamma 90.000000
_cell_volume 4596.518885
_symmetry_space_group_name_H-M "C M M M"
_symmetry_group_IT_number 65
_symmetry_cell_setting 'orthorhombic'
loop_
_space_group_symop_operation_xyz
x,y,z
-x,-y,z
x,-y,-z
-x,y,-z
-x,-y,-z
x,y,-z
-x,y,z
x,-y,z
1/2+x,1/2+y,z
1/2-x,1/2-y,z
1/2+x,1/2-y,-z
1/2-x,1/2+y,-z
1/2-x,1/2-y,-z
1/2+x,1/2+y,-z
1/2-x,1/2+y,z
1/2+x,1/2-y,z
loop_
_atom_site_type_symbol
_atom_site_label
_atom_site_fract_x
_atom_site_fract_y
_atom_site_fract_z
Si Si1 0.400457 0.718804 0.325477
Si Si2 0.201743 0.714246 0.673666
Si Si3 0.555507 0.423581 0.322575
Si Si4 0.943729 0.648812 0.825380
Si Si5 0.146157 0.579401 0.675942
O O1 0.413260 0.726000 0.500000
O O2 0.343150 0.733010 0.294858
O O3 0.410725 0.640195 0.262945
O O4 0.435074 0.773260 0.239065
O O5 0.213140 0.704964 0.500000
O O6 0.250000 0.750000 0.751255
O O7 0.186851 0.636129 0.736429
O O8 0.555791 0.423548 0.500000
O O9 0.500000 0.411858 0.263841
O O10 0.575397 0.500000 0.265069
O O11 0.906986 0.592566 0.750315
O O12 0.000000 0.625706 0.792097
O O13 0.932677 0.650268 0.000000
O O14 0.138652 0.590911 0.500000
O O15 0.164138 0.500000 0.713324
#
# Coordination Sequence:
#
# PCOD8269807 Si02
#       5
#    16  16  16  16  16
#     4   9  16  27  45  65  86 117 154 186 217 262
#     4   8  14  26  44  65  88 112 140 178 220 255
#     4   8  13  21  35  58  86 111 137 174 216 253
#     4  10  20  31  44  65  92 120 149 184 228 273
#     4   9  18  32  49  68  90 119 154 186 217 261
#
# _framework density 17.404475000000001
#
# number of rings (size 3 to 8) (size 9 to 14) (size 15 to 20)
#    0.000    3.200    0.000    3.000    0.000    3.200 
#    0.000    3.000    0.000   16.200    0.000    2.800 
#    0.000    0.000    0.000    0.000    0.000    0.000 
#
# Total GULP energy -495645.215650 kJ/mol
# GULP energy per Si atom -12391.130391 kJ/mol
# Density = 1.736486 g / cm^3
# Si number density = 17.404475 Si / 1000 Ang^3
#
#
#
# Elastic Constant Matrix: (Units=GPa)
#
#
# Indices 1 2 3 4 5 6 
#
# 1 103.4398 69.8386 25.1987 0.0000 0.0000 0.0000
# 2 69.8386 164.4186 21.2626 0.0000 0.0000 0.0000
# 3 25.1987 21.2626 30.2821 0.0000 0.0000 0.0000
# 4 0.0000 0.0000 0.0000 4.9444 0.0000 0.0000
# 5 0.0000 0.0000 0.0000 0.0000 9.3688 0.0000
# 6 0.0000 0.0000 0.0000 0.0000 0.0000 21.0460
#
#
#
# Elastic Compliance Matrix: (Units=1/GPa)
#
#
# Indices 1 2 3 4 5 6 
#
# 1 0.015557 -0.005426 -0.009135 0.000000 0.000000 0.000000
# 2 -0.005426 0.008582 -0.001511 0.000000 0.000000 0.000000
# 3 -0.009135 -0.001511 0.041685 0.000000 0.000000 0.000000
# 4 0.000000 0.000000 0.000000 0.202248 0.000000 0.000000
# 5 0.000000 0.000000 0.000000 0.000000 0.106737 0.000000
# 6 0.000000 0.000000 0.000000 0.000000 0.000000 0.047515
#
#
# Mechanical properties :
#
#
# Convention : Reuss Voigt Hill
#
# Bulk Modulus (GPa) = 29.69125 58.97114 44.33119
# Shear Modulus (GPa) = 10.73664 19.19454 14.96559
#
# Velocity S-wave (km/s) = 2.48642 3.32452 2.93554
# Velocity P-wave (km/s) = 5.03385 6.97803 6.08410
#
# Compressibility (1/GPa) = 0.03367996
#
# Stress axis : x y z
#
# Youngs Moduli (GPa) = 64.28166 116.51834 23.98949
#
# Poissons Ratio (x) = 0.63229 0.21914
# Poissons Ratio (y) = 0.34882 0.03624
# Poissons Ratio (z) = 0.58721 0.17601
#
# Static dielectric constant tensor:
#      x y z
#    x 3.259110 0.000000 0.000000 
#    y 0.000000 3.721870 0.000000 
#    z 0.000000 0.000000 2.830050 
# 
# 
# High freq. dielectric constant tensor:
#      x y z
#    x 1.656680 0.000000 0.000000 
#    y 0.000000 1.683720 0.000000 
#    z 0.000000 0.000000 1.625890 
# 
# From -- ./inp_files/16042.got.cif
#   From: 2010.03.12/outbox.cif.g09.slc.cpg/sg65_9_cif.got.tgz:16042.got - 2010.04.10 20:52:16.
