data_PCOD8269967
_publ_section_title
;
Structure prediction by ZEFSAII (Michael W. Deem and Ramdas Pophale) SiO2 
 PCOD8269967
Probable space group: C M M M
;
_chemical_formula_sum "Si O2"
_cell_formula_units_Z 88
_cell_length_a 19.242138
_cell_length_b 9.086834
_cell_length_c 28.457423
_cell_angle_alpha 90.000000
_cell_angle_beta 90.000000
_cell_angle_gamma 90.000000
_cell_volume 4975.783650
_symmetry_space_group_name_H-M "C M M M"
_symmetry_group_IT_number 65
_symmetry_cell_setting 'orthorhombic'
loop_
_space_group_symop_operation_xyz
x,y,z
-x,-y,z
x,-y,-z
-x,y,-z
-x,-y,-z
x,y,-z
-x,y,z
x,-y,z
1/2+x,1/2+y,z
1/2-x,1/2-y,z
1/2+x,1/2-y,-z
1/2-x,1/2+y,-z
1/2-x,1/2-y,-z
1/2+x,1/2+y,-z
1/2-x,1/2+y,z
1/2+x,1/2-y,z
loop_
_atom_site_type_symbol
_atom_site_label
_atom_site_fract_x
_atom_site_fract_y
_atom_site_fract_z
Si Si1 0.422776 0.325278 0.500000
Si Si2 0.179800 0.171964 0.579565
Si Si3 0.083023 0.165720 0.150190
Si Si4 0.417845 0.168873 0.758284
Si Si5 0.577857 0.325134 0.049745
Si Si6 0.321261 0.326930 0.687194
O O1 0.427944 0.500000 0.500000
O O2 0.500000 0.255761 0.500000
O O3 0.382785 0.271020 0.546725
O O4 0.250000 0.250000 0.563086
O O5 0.161400 0.211246 0.633199
O O6 0.192213 0.000000 0.572780
O O7 0.109531 0.272277 0.191411
O O8 0.112812 0.225583 0.099385
O O9 0.000000 0.166091 0.147199
O O10 0.109531 0.000000 0.160795
O O11 0.500000 0.189177 0.754057
O O12 0.384557 0.263997 0.717062
O O13 0.395207 0.000000 0.753381
O O14 0.500000 0.261401 0.047657
O O15 0.574747 0.500000 0.052171
O O16 0.615461 0.276441 0.000000
O O17 0.314023 0.500000 0.695655
O O18 0.250000 0.250000 0.703154
#
# Coordination Sequence:
#
# PCOD8269967 Si02
#       6
#     8  16  16  16  16  16
#     4   9  17  30  49  75 104 129 156 190 226 265
#     4   9  18  32  52  74  95 124 157 191 230 274
#     4   8  13  22  37  57  82 114 152 191 231 278
#     4  10  20  32  46  66  94 127 160 196 240 286
#     4   7   9  14  27  49  76 106 142 184 227 270
#     4  10  20  34  52  73  96 123 159 200 240 283
#
# _framework density 17.685656999999999
#
# number of rings (size 3 to 8) (size 9 to 14) (size 15 to 20)
#    0.000    3.182    0.000    3.000    0.000    2.545 
#    0.000    1.818    0.000    1.636    0.000    3.818 
#    0.000    0.727    0.000    2.000    0.000    5.091 
#
# Total GULP energy -545116.926392 kJ/mol
# GULP energy per Si atom -12389.021054 kJ/mol
# Density = 1.764540 g / cm^3
# Si number density = 17.685657 Si / 1000 Ang^3
#
#
#
# Elastic Constant Matrix: (Units=GPa)
#
#
# Indices 1 2 3 4 5 6 
#
# 1 62.8906 28.7327 56.7152 0.0000 0.0000 0.0000
# 2 28.7327 61.2996 44.5720 0.0000 0.0000 0.0000
# 3 56.7152 44.5720 141.8069 0.0000 0.0000 0.0000
# 4 0.0000 0.0000 0.0000 15.6278 0.0000 0.0000
# 5 0.0000 0.0000 0.0000 0.0000 4.6401 0.0000
# 6 0.0000 0.0000 0.0000 0.0000 0.0000 20.9646
#
#
#
# Elastic Compliance Matrix: (Units=1/GPa)
#
#
# Indices 1 2 3 4 5 6 
#
# 1 0.026531 -0.006119 -0.008688 0.000000 0.000000 0.000000
# 2 -0.006119 0.022557 -0.004643 0.000000 0.000000 0.000000
# 3 -0.008688 -0.004643 0.011986 0.000000 0.000000 0.000000
# 4 0.000000 0.000000 0.000000 0.063989 0.000000 0.000000
# 5 0.000000 0.000000 0.000000 0.000000 0.215512 0.000000
# 6 0.000000 0.000000 0.000000 0.000000 0.000000 0.047699
#
#
# Mechanical properties :
#
#
# Convention : Reuss Voigt Hill
#
# Bulk Modulus (GPa) = 45.09545 58.44853 51.77199
# Shear Modulus (GPa) = 11.50579 17.31165 14.40872
#
# Velocity S-wave (km/s) = 2.55340 3.13206 2.85741
# Velocity P-wave (km/s) = 5.85208 6.79706 6.34219
#
# Compressibility (1/GPa) = 0.02217519
#
# Stress axis : x y z
#
# Youngs Moduli (GPa) = 37.69231 44.33163 83.43221
#
# Poissons Ratio (x) = 0.27125 0.72483
# Poissons Ratio (y) = 0.23063 0.38737
# Poissons Ratio (z) = 0.32746 0.20583
#
# Static dielectric constant tensor:
#      x y z
#    x 2.922660 0.000000 0.000000 
#    y 0.000000 3.079160 0.000000 
#    z 0.000000 0.000000 3.836230 
# 
# 
# High freq. dielectric constant tensor:
#      x y z
#    x 1.630340 0.000000 0.000000 
#    y 0.000000 1.658220 0.000000 
#    z 0.000000 0.000000 1.710830 
# 
# From -- ./inp_files/78088.got.cif
#   From: 2010.03.12/outbox.cif.g09.slc.cpg/sg65_40_cif.got.tgz:78088.got - 2010.04.10 20:52:16.
