data_PCOD8269430
_publ_section_title
;
Structure prediction by ZEFSAII (Michael W. Deem and Ramdas Pophale) SiO2 
 PCOD8269430
Probable space group: C M M M
;
_chemical_formula_sum "Si O2"
_cell_formula_units_Z 88
_cell_length_a 18.590961
_cell_length_b 8.088269
_cell_length_c 29.301443
_cell_angle_alpha 90.000000
_cell_angle_beta 90.000000
_cell_angle_gamma 90.000000
_cell_volume 4406.019703
_symmetry_space_group_name_H-M "C M M M"
_symmetry_group_IT_number 65
_symmetry_cell_setting 'orthorhombic'
loop_
_space_group_symop_operation_xyz
x,y,z
-x,-y,z
x,-y,-z
-x,y,-z
-x,-y,-z
x,y,-z
-x,y,z
x,-y,z
1/2+x,1/2+y,z
1/2-x,1/2-y,z
1/2+x,1/2-y,-z
1/2-x,1/2+y,-z
1/2-x,1/2-y,-z
1/2+x,1/2+y,-z
1/2-x,1/2+y,z
1/2+x,1/2-y,z
loop_
_atom_site_type_symbol
_atom_site_label
_atom_site_fract_x
_atom_site_fract_y
_atom_site_fract_z
Si Si1 0.171533 0.805539 0.552086
Si Si2 0.829839 0.812020 0.284404
Si Si3 0.085812 0.500000 0.948129
Si Si4 0.585451 0.316902 0.893515
Si Si5 0.580771 0.189030 0.202088
Si Si6 0.417964 0.190424 0.633145
O O1 0.159259 0.748727 0.500000
O O2 0.250000 0.750000 0.569075
O O3 0.111907 0.715064 0.582278
O O4 0.163397 0.000000 0.557764
O O5 0.750000 0.750000 0.293286
O O6 0.867150 0.706612 0.244935
O O7 0.872876 0.798700 0.331504
O O8 0.828887 0.000000 0.268149
O O9 0.116917 0.667790 0.924571
O O10 0.000000 0.500000 0.945337
O O11 0.113038 0.500000 0.000000
O O12 0.500000 0.308181 0.896040
O O13 0.612127 0.500000 0.909915
O O14 0.609656 0.293582 0.840948
O O15 0.500000 0.245629 0.216197
O O16 0.579737 0.000000 0.186002
O O17 0.500000 0.251105 0.634149
O O18 0.411810 0.000000 0.647576
#
# Coordination Sequence:
#
# PCOD8269430 Si02
#       6
#    16  16   8  16  16  16
#     4  10  21  38  61  87 115 148 186 230 279 332
#     4  12  25  40  58  81 111 146 183 230 280 336
#     4   9  16  26  40  64 102 144 184 230 282 334
#     4   9  16  27  44  68  99 140 186 228 278 336
#     4  10  19  34  56  80 109 145 184 229 280 336
#     4  11  24  41  60  83 113 148 186 228 278 335
#
# _framework density 19.972674999999999
#
# number of rings (size 3 to 8) (size 9 to 14) (size 15 to 20)
#    0.000    1.727    0.909    4.364    0.000    6.545 
#    0.000    3.636    0.000    0.000    0.000    0.000 
#    0.000    0.727    0.364    0.000    0.000    0.000 
#
# Total GULP energy -545689.325315 kJ/mol
# GULP energy per Si atom -12402.030121 kJ/mol
# Density = 1.992722 g / cm^3
# Si number density = 19.972675 Si / 1000 Ang^3
#
#
#
# Elastic Constant Matrix: (Units=GPa)
#
#
# Indices 1 2 3 4 5 6 
#
# 1 98.1530 24.2898 48.5125 0.0000 0.0000 0.0000
# 2 24.2898 106.2311 40.0690 0.0000 0.0000 0.0000
# 3 48.5125 40.0690 115.5081 0.0000 0.0000 0.0000
# 4 0.0000 0.0000 0.0000 30.6615 0.0000 0.0000
# 5 0.0000 0.0000 0.0000 0.0000 7.0748 0.0000
# 6 0.0000 0.0000 0.0000 0.0000 0.0000 20.8956
#
#
#
# Elastic Compliance Matrix: (Units=1/GPa)
#
#
# Indices 1 2 3 4 5 6 
#
# 1 0.012958 -0.001047 -0.005079 0.000000 0.000000 0.000000
# 2 -0.001047 0.010915 -0.003347 0.000000 0.000000 0.000000
# 3 -0.005079 -0.003347 0.011951 0.000000 0.000000 0.000000
# 4 0.000000 0.000000 0.000000 0.032614 0.000000 0.000000
# 5 0.000000 0.000000 0.000000 0.000000 0.141347 0.000000
# 6 0.000000 0.000000 0.000000 0.000000 0.000000 0.047857
#
#
# Mechanical properties :
#
#
# Convention : Reuss Voigt Hill
#
# Bulk Modulus (GPa) = 59.24522 60.62608 59.93565
# Shear Modulus (GPa) = 17.71707 25.52776 21.62242
#
# Velocity S-wave (km/s) = 2.98160 3.57898 3.29386
# Velocity P-wave (km/s) = 6.44831 6.89197 6.67383
#
# Compressibility (1/GPa) = 0.01687900
#
# Stress axis : x y z
#
# Youngs Moduli (GPa) = 77.17515 91.61569 83.67217
#
# Poissons Ratio (x) = 0.09593 0.42496
# Poissons Ratio (y) = 0.08081 0.28002
# Poissons Ratio (z) = 0.39196 0.30660
#
# Static dielectric constant tensor:
#      x y z
#    x 3.298830 0.000000 0.000000 
#    y 0.000000 3.828200 0.000000 
#    z 0.000000 0.000000 3.587490 
# 
# 
# High freq. dielectric constant tensor:
#      x y z
#    x 1.739380 0.000000 0.000000 
#    y 0.000000 1.795190 0.000000 
#    z 0.000000 0.000000 1.780190 
# 
# From -- ./inp_files/77984.got.cif
#   From: 2010.03.12/outbox.cif.g09.slc.cpg/sg65_39_cif.got.tgz:77984.got - 2010.04.10 20:52:16.
