data_PCOD8269613
_publ_section_title
;
Structure prediction by ZEFSAII (Michael W. Deem and Ramdas Pophale) SiO2 
 PCOD8269613
Probable space group: C M M M
;
_chemical_formula_sum "Si O2"
_cell_formula_units_Z 88
_cell_length_a 14.416315
_cell_length_b 18.606306
_cell_length_c 17.664591
_cell_angle_alpha 90.000000
_cell_angle_beta 90.000000
_cell_angle_gamma 90.000000
_cell_volume 4738.250408
_symmetry_space_group_name_H-M "C M M M"
_symmetry_group_IT_number 65
_symmetry_cell_setting 'orthorhombic'
loop_
_space_group_symop_operation_xyz
x,y,z
-x,-y,z
x,-y,-z
-x,y,-z
-x,-y,-z
x,y,-z
-x,y,z
x,-y,z
1/2+x,1/2+y,z
1/2-x,1/2-y,z
1/2+x,1/2-y,-z
1/2-x,1/2+y,-z
1/2-x,1/2-y,-z
1/2+x,1/2+y,-z
1/2-x,1/2+y,z
1/2+x,1/2-y,z
loop_
_atom_site_type_symbol
_atom_site_label
_atom_site_fract_x
_atom_site_fract_y
_atom_site_fract_z
Si Si1 0.108993 0.347143 0.653622
Si Si2 0.610263 0.918614 0.500000
Si Si3 0.604028 0.299445 0.281690
Si Si4 0.247723 0.919026 0.753912
Si Si5 0.894277 0.752932 0.113272
Si Si6 0.253483 0.867668 0.081769
O O1 0.147160 0.376919 0.573882
O O2 0.132486 0.261637 0.657161
O O3 0.154322 0.392244 0.721914
O O4 0.000000 0.359723 0.663003
O O5 0.500000 0.919196 0.500000
O O6 0.649089 0.000000 0.500000
O O7 0.500000 0.328057 0.295706
O O8 0.670232 0.368031 0.283748
O O9 0.611796 0.256630 0.203427
O O10 0.247957 0.919392 0.845607
O O11 0.227194 0.000000 0.727542
O O12 0.839189 0.819720 0.078595
O O13 0.846294 0.679709 0.087385
O O14 0.000000 0.754758 0.084009
O O15 0.257448 0.908921 0.000000
#
# Coordination Sequence:
#
# PCOD8269613 Si02
#       6
#    16   8  16  16  16  16
#     4  10  19  35  59  83 108 138 171 212 258 311
#     4   9  18  32  53  86 120 142 167 207 258 316
#     4   9  18  34  56  77 101 135 179 223 259 307
#     4  11  22  35  52  74 107 145 178 218 267 319
#     4   9  16  30  51  73  97 129 170 219 268 311
#     4  10  20  31  46  72 101 132 177 222 263 316
#
# _framework density 18.572257
#
# number of rings (size 3 to 8) (size 9 to 14) (size 15 to 20)
#    0.000    2.273    1.818    2.182    0.000    3.273 
#    0.000    1.818    0.000    0.000    0.000    7.636 
#    0.000    5.818    0.000    0.000    0.000    0.000 
#
# Total GULP energy -545374.520355 kJ/mol
# GULP energy per Si atom -12394.875463 kJ/mol
# Density = 1.852999 g / cm^3
# Si number density = 18.572257 Si / 1000 Ang^3
#
#
#
# Elastic Constant Matrix: (Units=GPa)
#
#
# Indices 1 2 3 4 5 6 
#
# 1 101.5256 48.9524 32.9554 0.0000 0.0000 0.0000
# 2 48.9524 122.6953 50.6117 0.0000 0.0000 0.0000
# 3 32.9554 50.6117 84.9946 0.0000 0.0000 0.0000
# 4 0.0000 0.0000 0.0000 11.1892 0.0000 0.0000
# 5 0.0000 0.0000 0.0000 0.0000 12.3637 0.0000
# 6 0.0000 0.0000 0.0000 0.0000 0.0000 16.6541
#
#
#
# Elastic Compliance Matrix: (Units=1/GPa)
#
#
# Indices 1 2 3 4 5 6 
#
# 1 0.012586 -0.003988 -0.002505 0.000000 0.000000 0.000000
# 2 -0.003988 0.012068 -0.005640 0.000000 0.000000 0.000000
# 3 -0.002505 -0.005640 0.016095 0.000000 0.000000 0.000000
# 4 0.000000 0.000000 0.000000 0.089372 0.000000 0.000000
# 5 0.000000 0.000000 0.000000 0.000000 0.080882 0.000000
# 6 0.000000 0.000000 0.000000 0.000000 0.000000 0.060045
#
#
# Mechanical properties :
#
#
# Convention : Reuss Voigt Hill
#
# Bulk Modulus (GPa) = 60.66933 63.80607 62.23770
# Shear Modulus (GPa) = 16.62191 19.82114 18.22152
#
# Velocity S-wave (km/s) = 2.99488 3.27041 3.13567
# Velocity P-wave (km/s) = 6.68555 6.97789 6.83329
#
# Compressibility (1/GPa) = 0.01648279
#
# Stress axis : x y z
#
# Youngs Moduli (GPa) = 79.45444 82.86535 62.13083
#
# Poissons Ratio (x) = 0.33047 0.15565
# Poissons Ratio (y) = 0.31687 0.35040
# Poissons Ratio (z) = 0.19905 0.46733
#
# Static dielectric constant tensor:
#      x y z
#    x 3.446690 0.000000 0.000000 
#    y 0.000000 3.173950 0.000000 
#    z 0.000000 0.000000 3.574010 
# 
# 
# High freq. dielectric constant tensor:
#      x y z
#    x 1.714120 0.000000 0.000000 
#    y 0.000000 1.694850 0.000000 
#    z 0.000000 0.000000 1.718640 
# 
# From -- ./inp_files/53030.got.cif
#   From: 2010.03.12/outbox.cif.g09.slc.cpg/sg65_27_cif.got.tgz:53030.got - 2010.04.10 20:52:16.
