data_PCOD8269052
_publ_section_title
;
Structure prediction by ZEFSAII (Michael W. Deem and Ramdas Pophale) SiO2 
 PCOD8269052
Probable space group: C M M M
;
_chemical_formula_sum "Si O2"
_cell_formula_units_Z 88
_cell_length_a 19.049588
_cell_length_b 9.227914
_cell_length_c 27.680998
_cell_angle_alpha 90.000000
_cell_angle_beta 90.000000
_cell_angle_gamma 90.000000
_cell_volume 4865.986164
_symmetry_space_group_name_H-M "C M M M"
_symmetry_group_IT_number 65
_symmetry_cell_setting 'orthorhombic'
loop_
_space_group_symop_operation_xyz
x,y,z
-x,-y,z
x,-y,-z
-x,y,-z
-x,-y,-z
x,y,-z
-x,y,z
x,-y,z
1/2+x,1/2+y,z
1/2-x,1/2-y,z
1/2+x,1/2-y,-z
1/2-x,1/2+y,-z
1/2-x,1/2-y,-z
1/2+x,1/2+y,-z
1/2-x,1/2+y,z
1/2+x,1/2-y,z
loop_
_atom_site_type_symbol
_atom_site_label
_atom_site_fract_x
_atom_site_fract_y
_atom_site_fract_z
Si Si1 0.320094 0.829807 0.876197
Si Si2 0.680127 0.336189 0.500000
Si Si3 0.818489 0.667184 0.233593
Si Si4 0.581197 0.168379 0.319061
Si Si5 0.582515 0.336191 0.945380
Si Si6 0.824814 0.829629 0.394922
O O1 0.250000 0.750000 0.893789
O O2 0.337677 0.786429 0.820936
O O3 0.383571 0.778119 0.909272
O O4 0.309583 0.000000 0.882496
O O5 0.705093 0.500000 0.500000
O O6 0.750000 0.250000 0.500000
O O7 0.641413 0.303473 0.551050
O O8 0.798347 0.500000 0.235910
O O9 0.750000 0.750000 0.253087
O O10 0.884827 0.703682 0.267099
O O11 0.500000 0.212186 0.316011
O O12 0.618041 0.265340 0.359180
O O13 0.590789 0.000000 0.332571
O O14 0.500000 0.315948 0.941229
O O15 0.604010 0.500000 0.931092
O O16 0.607359 0.303216 0.000000
O O17 0.750000 0.750000 0.388589
O O18 0.813763 0.000000 0.384322
#
# Coordination Sequence:
#
# PCOD8269052 Si02
#       6
#    16   8  16  16  16  16
#     4  10  20  34  54  79 105 133 168 210 254 301
#     4   8  16  30  49  74 101 129 163 207 253 296
#     4   9  19  35  54  75 100 132 168 208 254 302
#     4  10  21  36  52  73 104 138 170 207 253 302
#     4   9  19  36  55  75 103 138 172 208 253 302
#     4  10  19  33  54  78 103 132 169 210 253 301
#
# _framework density 18.084719
#
# number of rings (size 3 to 8) (size 9 to 14) (size 15 to 20)
#    0.000    2.545    0.000    2.182    0.000    5.818 
#    0.000    3.182    0.000    2.727    0.000    0.000 
#    0.000    0.000    0.000    0.000    0.000    0.000 
#
# Total GULP energy -545438.435648 kJ/mol
# GULP energy per Si atom -12396.328083 kJ/mol
# Density = 1.804356 g / cm^3
# Si number density = 18.084719 Si / 1000 Ang^3
#
#
#
# Elastic Constant Matrix: (Units=GPa)
#
#
# Indices 1 2 3 4 5 6 
#
# 1 103.4425 53.3870 66.4764 0.0000 0.0000 0.0000
# 2 53.3870 83.6344 58.6600 0.0000 0.0000 0.0000
# 3 66.4764 58.6600 112.2353 0.0000 0.0000 0.0000
# 4 0.0000 0.0000 0.0000 27.9495 0.0000 0.0000
# 5 0.0000 0.0000 0.0000 0.0000 11.0128 0.0000
# 6 0.0000 0.0000 0.0000 0.0000 0.0000 31.1027
#
#
#
# Elastic Compliance Matrix: (Units=1/GPa)
#
#
# Indices 1 2 3 4 5 6 
#
# 1 0.017389 -0.006119 -0.007101 0.000000 0.000000 0.000000
# 2 -0.006119 0.021030 -0.007367 0.000000 0.000000 0.000000
# 3 -0.007101 -0.007367 0.016966 0.000000 0.000000 0.000000
# 4 0.000000 0.000000 0.000000 0.035779 0.000000 0.000000
# 5 0.000000 0.000000 0.000000 0.000000 0.090803 0.000000
# 6 0.000000 0.000000 0.000000 0.000000 0.000000 0.032152
#
#
# Mechanical properties :
#
#
# Convention : Reuss Voigt Hill
#
# Bulk Modulus (GPa) = 70.37124 72.92877 71.65001
# Shear Modulus (GPa) = 19.22855 22.06560 20.64708
#
# Velocity S-wave (km/s) = 3.26429 3.49682 3.38255
# Velocity P-wave (km/s) = 7.29410 7.53109 7.41354
#
# Compressibility (1/GPa) = 0.01421035
#
# Stress axis : x y z
#
# Youngs Moduli (GPa) = 57.50809 47.55080 58.94112
#
# Poissons Ratio (x) = 0.29098 0.41854
# Poissons Ratio (y) = 0.35192 0.43422
# Poissons Ratio (z) = 0.40837 0.35030
#
# Static dielectric constant tensor:
#      x y z
#    x 3.114600 0.000000 0.000000 
#    y 0.000000 3.398290 0.000000 
#    z 0.000000 0.000000 4.094540 
# 
# 
# High freq. dielectric constant tensor:
#      x y z
#    x 1.678980 0.000000 0.000000 
#    y 0.000000 1.705710 0.000000 
#    z 0.000000 0.000000 1.714620 
# 
# From -- ./inp_files/76490.got.cif
#   From: 2010.03.12/outbox.cif.g09.slc.cpg/sg65_39_cif.got.tgz:76490.got - 2010.04.10 20:52:16.
