data_PCOD8269998
_publ_section_title
;
Structure prediction by ZEFSAII (Michael W. Deem and Ramdas Pophale) SiO2 
 PCOD8269998
Probable space group: C M M M
;
_chemical_formula_sum "Si O2"
_cell_formula_units_Z 80
_cell_length_a 10.060897
_cell_length_b 18.381503
_cell_length_c 24.420909
_cell_angle_alpha 90.000000
_cell_angle_beta 90.000000
_cell_angle_gamma 90.000000
_cell_volume 4516.266358
_symmetry_space_group_name_H-M "C M M M"
_symmetry_group_IT_number 65
_symmetry_cell_setting 'orthorhombic'
loop_
_space_group_symop_operation_xyz
x,y,z
-x,-y,z
x,-y,-z
-x,y,-z
-x,-y,-z
x,y,-z
-x,y,z
x,-y,z
1/2+x,1/2+y,z
1/2-x,1/2-y,z
1/2+x,1/2-y,-z
1/2-x,1/2+y,-z
1/2-x,1/2-y,-z
1/2+x,1/2+y,-z
1/2-x,1/2+y,z
1/2+x,1/2-y,z
loop_
_atom_site_type_symbol
_atom_site_label
_atom_site_fract_x
_atom_site_fract_y
_atom_site_fract_z
Si Si1 0.849461 0.084199 0.151334
Si Si2 0.351058 0.086418 0.060851
Si Si3 0.342794 0.681049 0.743310
Si Si4 0.000000 0.166647 0.439381
Si Si5 0.000000 0.659531 0.563135
Si Si6 0.754669 0.836591 0.372924
O O1 0.753315 0.117948 0.104780
O O2 0.825365 0.125201 0.207690
O O3 0.000000 0.094603 0.130479
O O4 0.816735 0.000000 0.162115
O O5 0.500000 0.111145 0.077436
O O6 0.341892 0.000000 0.060017
O O7 0.316184 0.116073 0.000000
O O8 0.500000 0.702549 0.734704
O O9 0.250000 0.750000 0.756662
O O10 0.283024 0.640217 0.689761
O O11 0.127092 0.133663 0.409847
O O12 0.000000 0.135624 0.500000
O O13 0.000000 0.253771 0.439063
O O14 0.876359 0.630253 0.598917
O O15 0.000000 0.629935 0.500000
O O16 0.750000 0.750000 0.373742
#
# Coordination Sequence:
#
# PCOD8269998 Si02
#       6
#    16  16  16   8   8  16
#     4   9  18  32  49  71  98 124 155 194 232 272
#     4   8  14  26  45  70  98 124 151 187 232 277
#     4  10  20  32  47  67  93 127 160 191 229 275
#     4   9  14  22  36  54  79 111 144 179 226 274
#     4   9  16  24  36  56  83 113 146 183 228 276
#     4   9  16  25  37  56  83 115 148 183 225 274
#
# _framework density 17.713746
#
# number of rings (size 3 to 8) (size 9 to 14) (size 15 to 20)
#    0.000    3.000    1.000    1.200    4.200    3.600 
#    0.000    2.000    0.000    0.600    0.000    0.000 
#    0.000    4.800    0.000    0.000    0.000    0.000 
#
# Total GULP energy -495648.377569 kJ/mol
# GULP energy per Si atom -12391.209439 kJ/mol
# Density = 1.767343 g / cm^3
# Si number density = 17.713746 Si / 1000 Ang^3
#
#
#
# Elastic Constant Matrix: (Units=GPa)
#
#
# Indices 1 2 3 4 5 6 
#
# 1 161.5333 23.7549 104.7362 0.0000 0.0000 0.0000
# 2 23.7549 18.0965 26.9598 0.0000 0.0000 0.0000
# 3 104.7362 26.9598 167.6810 0.0000 0.0000 0.0000
# 4 0.0000 0.0000 0.0000 -92.1369 0.0000 0.0000
# 5 0.0000 0.0000 0.0000 0.0000 40.0103 0.0000
# 6 0.0000 0.0000 0.0000 0.0000 0.0000 9.0242
#
#
#
# Elastic Compliance Matrix: (Units=1/GPa)
#
#
# Indices 1 2 3 4 5 6 
#
# 1 0.010795 -0.005424 -0.005870 0.000000 0.000000 0.000000
# 2 -0.005424 0.075390 -0.008733 0.000000 0.000000 0.000000
# 3 -0.005870 -0.008733 0.011035 0.000000 0.000000 0.000000
# 4 0.000000 0.000000 0.000000 -0.010853 0.000000 0.000000
# 5 0.000000 0.000000 0.000000 0.000000 0.024994 0.000000
# 6 0.000000 0.000000 0.000000 0.000000 0.000000 0.110813
#
#
# Mechanical properties :
#
#
# Convention : Reuss Voigt Hill
#
# Bulk Modulus (GPa) = 17.49359 73.13472 45.31415
# Shear Modulus (GPa) = 17.77569 4.17018 10.97293
#
# Velocity S-wave (km/s) = 3.17124 1.53601 2.49159
# Velocity P-wave (km/s) = 4.82765 6.67251 5.82360
#
# Compressibility (1/GPa) = 0.05716379
#
# Stress axis : x y z
#
# Youngs Moduli (GPa) = 92.63844 13.26430 90.62424
#
# Poissons Ratio (x) = 0.07195 0.53200
# Poissons Ratio (y) = 0.50250 0.79144
# Poissons Ratio (z) = 0.54382 0.11584
#
# Static dielectric constant tensor:
#      x y z
#    x 3.663220 0.000000 0.000000 
#    y 0.000000 2.562960 0.000000 
#    z 0.000000 0.000000 3.609730 
# 
# 
# High freq. dielectric constant tensor:
#      x y z
#    x 1.702100 0.000000 0.000000 
#    y 0.000000 1.603410 0.000000 
#    z 0.000000 0.000000 1.702430 
# 
# From -- ./inp_files/67794.got.cif
#   From: 2010.03.12/outbox.cif.g09.slc.cpg/sg65_34_cif.got.tgz:67794.got - 2010.04.10 20:52:16.
