data_PCOD8269901
_publ_section_title
;
Structure prediction by ZEFSAII (Michael W. Deem and Ramdas Pophale) SiO2 
 PCOD8269901
Probable space group: C M M M
;
_chemical_formula_sum "Si O2"
_cell_formula_units_Z 96
_cell_length_a 30.279917
_cell_length_b 17.049383
_cell_length_c 11.876477
_cell_angle_alpha 90.000000
_cell_angle_beta 90.000000
_cell_angle_gamma 90.000000
_cell_volume 6131.277595
_symmetry_space_group_name_H-M "C M M M"
_symmetry_group_IT_number 65
_symmetry_cell_setting 'orthorhombic'
loop_
_space_group_symop_operation_xyz
x,y,z
-x,-y,z
x,-y,-z
-x,y,-z
-x,-y,-z
x,y,-z
-x,y,z
x,-y,z
1/2+x,1/2+y,z
1/2-x,1/2-y,z
1/2+x,1/2-y,-z
1/2-x,1/2+y,-z
1/2-x,1/2-y,-z
1/2+x,1/2+y,-z
1/2-x,1/2+y,z
1/2+x,1/2-y,z
loop_
_atom_site_type_symbol
_atom_site_label
_atom_site_fract_x
_atom_site_fract_y
_atom_site_fract_z
Si Si1 0.143244 0.735552 0.370381
Si Si2 0.083886 0.145830 0.732936
Si Si3 0.161460 0.911822 0.875300
Si Si4 0.000000 0.093550 0.134451
Si Si5 0.548468 0.590936 0.500000
Si Si6 0.722539 0.676167 0.722358
Si Si7 0.196355 0.587335 0.632834
O O1 0.127091 0.731111 0.500000
O O2 0.103466 0.765857 0.288245
O O3 0.184425 0.796466 0.364865
O O4 0.159549 0.650219 0.324783
O O5 0.119953 0.092246 0.792813
O O6 0.075833 0.112940 0.609374
O O7 0.041026 0.140367 0.811929
O O8 0.201603 0.858493 0.835099
O O9 0.178968 0.000000 0.876766
O O10 0.146920 0.884391 0.000000
O O11 0.000000 0.000000 0.166499
O O12 0.000000 0.103404 0.000000
O O13 0.540289 0.500000 0.500000
O O14 0.500000 0.632506 0.500000
O O15 0.750000 0.750000 0.764573
O O16 0.754035 0.612093 0.664990
O O17 0.194034 0.586286 0.500000
O O18 0.186151 0.500000 0.681330
#
# Coordination Sequence:
#
# PCOD8269901 Si02
#       7
#    16  16  16   8   8  16  16
#     4   9  17  29  43  65  94 124 150 185 233 272
#     4  11  20  32  47  66  92 120 152 183 222 270
#     4  10  20  32  44  59  85 120 156 191 223 260
#     4  11  22  35  51  69  94 126 156 186 219 262
#     4  11  20  30  46  68  92 115 145 187 222 266
#     4   9  17  28  44  63  87 118 153 193 232 269
#     4   9  16  27  45  67  92 121 154 188 227 279
#
# _framework density 15.657422
#
# number of rings (size 3 to 8) (size 9 to 14) (size 15 to 20)
#    0.000    2.167    1.667    3.000    0.000    3.667 
#    0.000    0.000    0.000    0.000    0.000    0.583 
#    0.000    4.000    0.000    0.000    0.000    0.000 
#
# Total GULP energy -594830.710484 kJ/mol
# GULP energy per Si atom -12392.306468 kJ/mol
# Density = 1.562179 g / cm^3
# Si number density = 15.657422 Si / 1000 Ang^3
#
#
#
# Elastic Constant Matrix: (Units=GPa)
#
#
# Indices 1 2 3 4 5 6 
#
# 1 87.1132 48.1812 31.8182 0.0000 0.0000 0.0000
# 2 48.1812 99.7958 31.7083 0.0000 0.0000 0.0000
# 3 31.8182 31.7083 76.5972 0.0000 0.0000 0.0000
# 4 0.0000 0.0000 0.0000 19.0703 0.0000 0.0000
# 5 0.0000 0.0000 0.0000 0.0000 21.0990 0.0000
# 6 0.0000 0.0000 0.0000 0.0000 0.0000 19.5378
#
#
#
# Elastic Compliance Matrix: (Units=1/GPa)
#
#
# Indices 1 2 3 4 5 6 
#
# 1 0.016735 -0.006760 -0.004153 0.000000 0.000000 0.000000
# 2 -0.006760 0.014269 -0.003099 0.000000 0.000000 0.000000
# 3 -0.004153 -0.003099 0.016063 0.000000 0.000000 0.000000
# 4 0.000000 0.000000 0.000000 0.052438 0.000000 0.000000
# 5 0.000000 0.000000 0.000000 0.000000 0.047396 0.000000
# 6 0.000000 0.000000 0.000000 0.000000 0.000000 0.051183
#
#
# Mechanical properties :
#
#
# Convention : Reuss Voigt Hill
#
# Bulk Modulus (GPa) = 52.51212 54.10239 53.30725
# Shear Modulus (GPa) = 21.50952 22.06131 21.78541
#
# Velocity S-wave (km/s) = 3.71045 3.75774 3.73417
# Velocity P-wave (km/s) = 7.20885 7.31138 7.26030
#
# Compressibility (1/GPa) = 0.01904322
#
# Stress axis : x y z
#
# Youngs Moduli (GPa) = 59.75410 70.08327 62.25376
#
# Poissons Ratio (x) = 0.47377 0.25856
# Poissons Ratio (y) = 0.40394 0.19290
# Poissons Ratio (z) = 0.24818 0.21716
#
# Static dielectric constant tensor:
#      x y z
#    x 3.129270 0.000000 0.000000 
#    y 0.000000 3.217180 0.000000 
#    z 0.000000 0.000000 2.933200 
# 
# 
# High freq. dielectric constant tensor:
#      x y z
#    x 1.594490 0.000000 0.000000 
#    y 0.000000 1.585280 0.000000 
#    z 0.000000 0.000000 1.594140 
# 
# From -- ./inp_files/33894.got.cif
#   From: 2010.03.12/outbox.cif.g09.slc.cpg/sg65_17_cif.got.tgz:33894.got - 2010.04.10 20:52:16.
