data_PCOD8269596
_publ_section_title
;
Structure prediction by ZEFSAII (Michael W. Deem and Ramdas Pophale) SiO2 
 PCOD8269596
Probable space group: C M M M
;
_chemical_formula_sum "Si O2"
_cell_formula_units_Z 88
_cell_length_a 28.737251
_cell_length_b 9.063746
_cell_length_c 18.129654
_cell_angle_alpha 90.000000
_cell_angle_beta 90.000000
_cell_angle_gamma 90.000000
_cell_volume 4722.179196
_symmetry_space_group_name_H-M "C M M M"
_symmetry_group_IT_number 65
_symmetry_cell_setting 'orthorhombic'
loop_
_space_group_symop_operation_xyz
x,y,z
-x,-y,z
x,-y,-z
-x,y,-z
-x,-y,-z
x,y,-z
-x,y,z
x,-y,z
1/2+x,1/2+y,z
1/2-x,1/2-y,z
1/2+x,1/2-y,-z
1/2-x,1/2+y,-z
1/2-x,1/2-y,-z
1/2+x,1/2+y,-z
1/2-x,1/2+y,z
1/2+x,1/2-y,z
loop_
_atom_site_type_symbol
_atom_site_label
_atom_site_fract_x
_atom_site_fract_y
_atom_site_fract_z
Si Si1 0.447612 0.328384 0.140327
Si Si2 0.200675 0.172926 0.500000
Si Si3 0.148874 0.825802 0.351986
Si Si4 0.550155 0.325795 0.305965
Si Si5 0.200215 0.675657 0.782506
Si Si6 0.361797 0.829327 0.081944
O O1 0.500000 0.298233 0.112001
O O2 0.435757 0.500000 0.138160
O O3 0.441542 0.265327 0.223322
O O4 0.411612 0.248307 0.087187
O O5 0.250000 0.250000 0.500000
O O6 0.171742 0.222414 0.571345
O O7 0.209574 0.000000 0.500000
O O8 0.094015 0.781804 0.356909
O O9 0.171917 0.732569 0.287489
O O10 0.155279 0.000000 0.336311
O O11 0.500000 0.265090 0.336651
O O12 0.546241 0.500000 0.300458
O O13 0.205558 0.500000 0.777848
O O14 0.250000 0.750000 0.782074
O O15 0.174523 0.729046 0.857128
O O16 0.370907 0.000000 0.095744
O O17 0.341345 0.799147 0.000000
#
# Coordination Sequence:
#
# PCOD8269596 Si02
#       6
#    16   8  16  16  16  16
#     4   9  17  31  53  80 107 138 178 219 261 312
#     4  10  22  36  53  81 111 143 178 220 267 316
#     4  10  19  35  58  82 111 142 177 216 261 314
#     4   8  14  27  51  80 108 138 171 211 258 306
#     4  11  23  38  57  79 102 134 179 223 269 321
#     4  10  22  38  53  74 107 141 175 220 271 321
#
# _framework density 18.635465
#
# number of rings (size 3 to 8) (size 9 to 14) (size 15 to 20)
#    0.000    2.364    1.818    2.182    0.000    4.364 
#    0.000    2.273    0.000    3.273    0.000    0.000 
#    0.000    2.182    0.000    0.000    0.000    0.000 
#
# Total GULP energy -545414.956008 kJ/mol
# GULP energy per Si atom -12395.794455 kJ/mol
# Density = 1.859305 g / cm^3
# Si number density = 18.635465 Si / 1000 Ang^3
#
#
#
# Elastic Constant Matrix: (Units=GPa)
#
#
# Indices 1 2 3 4 5 6 
#
# 1 160.7460 39.6465 77.6823 0.0000 0.0000 0.0000
# 2 39.6465 38.7118 35.9350 0.0000 0.0000 0.0000
# 3 77.6823 35.9350 127.9473 0.0000 0.0000 0.0000
# 4 0.0000 0.0000 0.0000 22.7418 0.0000 0.0000
# 5 0.0000 0.0000 0.0000 0.0000 22.2758 0.0000
# 6 0.0000 0.0000 0.0000 0.0000 0.0000 21.9543
#
#
#
# Elastic Compliance Matrix: (Units=1/GPa)
#
#
# Indices 1 2 3 4 5 6 
#
# 1 0.009758 -0.006079 -0.004217 0.000000 0.000000 0.000000
# 2 -0.006079 0.038729 -0.007186 0.000000 0.000000 0.000000
# 3 -0.004217 -0.007186 0.012395 0.000000 0.000000 0.000000
# 4 0.000000 0.000000 0.000000 0.043972 0.000000 0.000000
# 5 0.000000 0.000000 0.000000 0.000000 0.044892 0.000000
# 6 0.000000 0.000000 0.000000 0.000000 0.000000 0.045549
#
#
# Mechanical properties :
#
#
# Convention : Reuss Voigt Hill
#
# Bulk Modulus (GPa) = 38.58624 70.43699 54.51162
# Shear Modulus (GPa) = 20.92931 25.00377 22.96654
#
# Velocity S-wave (km/s) = 3.35489 3.66694 3.51438
# Velocity P-wave (km/s) = 5.97978 7.47047 6.76630
#
# Compressibility (1/GPa) = 0.02591597
#
# Stress axis : x y z
#
# Youngs Moduli (GPa) = 102.47491 25.82060 80.68015
#
# Poissons Ratio (x) = 0.15697 0.34026
# Poissons Ratio (y) = 0.62297 0.57979
# Poissons Ratio (z) = 0.43218 0.18556
#
# Static dielectric constant tensor:
#      x y z
#    x 3.823600 0.000000 0.000000 
#    y 0.000000 3.186200 0.000000 
#    z 0.000000 0.000000 3.448570 
# 
# 
# High freq. dielectric constant tensor:
#      x y z
#    x 1.738920 0.000000 0.000000 
#    y 0.000000 1.697360 0.000000 
#    z 0.000000 0.000000 1.713200 
# 
# From -- ./inp_files/50293.got.cif
#   From: 2010.03.12/outbox.cif.g09.slc.cpg/sg65_26_cif.got.tgz:50293.got - 2010.04.10 20:52:16.
