data_PCOD8269830
_publ_section_title
;
Structure prediction by ZEFSAII (Michael W. Deem and Ramdas Pophale) SiO2 
 PCOD8269830
Probable space group: C M M M
;
_chemical_formula_sum "Si O2"
_cell_formula_units_Z 64
_cell_length_a 9.587280
_cell_length_b 41.136274
_cell_length_c 8.992975
_cell_angle_alpha 90.000000
_cell_angle_beta 90.000000
_cell_angle_gamma 90.000000
_cell_volume 3546.694238
_symmetry_space_group_name_H-M "C M M M"
_symmetry_group_IT_number 65
_symmetry_cell_setting 'orthorhombic'
loop_
_space_group_symop_operation_xyz
x,y,z
-x,-y,z
x,-y,-z
-x,y,-z
-x,-y,-z
x,y,-z
-x,y,z
x,-y,z
1/2+x,1/2+y,z
1/2-x,1/2-y,z
1/2+x,1/2-y,-z
1/2-x,1/2+y,-z
1/2-x,1/2-y,-z
1/2+x,1/2+y,-z
1/2-x,1/2+y,z
1/2+x,1/2-y,z
loop_
_atom_site_type_symbol
_atom_site_label
_atom_site_fract_x
_atom_site_fract_y
_atom_site_fract_z
Si Si1 0.653594 0.778076 0.676288
Si Si2 0.156335 0.536090 0.176797
Si Si3 0.341713 0.594655 0.176729
Si Si4 0.337868 0.850960 0.673261
O O1 0.647112 0.774417 0.500000
O O2 0.500000 0.773013 0.743840
O O3 0.750000 0.750000 0.747157
O O4 0.792604 0.685803 0.715587
O O5 0.199553 0.500000 0.232759
O O6 0.264850 0.562467 0.240662
O O7 0.000000 0.544546 0.233294
O O8 0.158145 0.536759 0.000000
O O9 0.500000 0.594929 0.237235
O O10 0.260475 0.626170 0.231190
O O11 0.339816 0.594610 0.000000
O O12 0.312794 0.857807 0.500000
O O13 0.500000 0.856777 0.713806
#
# Coordination Sequence:
#
# PCOD8269830 Si02
#       4
#    16  16  16  16
#     4   8  14  25  42  65  90 114 144 184 227 269
#     4   8  14  26  45  67  89 116 152 190 226 267
#     4  10  20  31  45  69  98 125 153 187 229 274
#     4   9  18  32  49  69  93 122 156 191 227 271
#
# _framework density 18.044972999999999
#
# number of rings (size 3 to 8) (size 9 to 14) (size 15 to 20)
#    0.000    3.250    0.000    3.000    0.000    3.500 
#    0.000    5.000    0.000    1.500    0.000    5.250 
#    0.000    0.000    0.000    0.000    0.000    0.000 
#
# Total GULP energy -396596.571380 kJ/mol
# GULP energy per Si atom -12393.642856 kJ/mol
# Density = 1.800390 g / cm^3
# Si number density = 18.044973 Si / 1000 Ang^3
#
#
#
# Elastic Constant Matrix: (Units=GPa)
#
#
# Indices 1 2 3 4 5 6 
#
# 1 122.2402 93.3672 15.6901 0.0000 0.0000 0.0000
# 2 93.3672 158.2812 14.9204 0.0000 0.0000 0.0000
# 3 15.6901 14.9204 8.2933 0.0000 0.0000 0.0000
# 4 0.0000 0.0000 0.0000 31.4258 0.0000 0.0000
# 5 0.0000 0.0000 0.0000 0.0000 19.0511 0.0000
# 6 0.0000 0.0000 0.0000 0.0000 0.0000 38.6302
#
#
#
# Elastic Compliance Matrix: (Units=1/GPa)
#
#
# Indices 1 2 3 4 5 6 
#
# 1 0.016591 -0.008222 -0.016596 0.000000 0.000000 0.000000
# 2 -0.008222 0.011683 -0.005463 0.000000 0.000000 0.000000
# 3 -0.016596 -0.005463 0.161805 0.000000 0.000000 0.000000
# 4 0.000000 0.000000 0.000000 0.031821 0.000000 0.000000
# 5 0.000000 0.000000 0.000000 0.000000 0.052490 0.000000
# 6 0.000000 0.000000 0.000000 0.000000 0.000000 0.025886
#
#
# Mechanical properties :
#
#
# Convention : Reuss Voigt Hill
#
# Bulk Modulus (GPa) = 7.72098 59.64111 33.68104
# Shear Modulus (GPa) = 12.37587 28.81054 20.59321
#
# Velocity S-wave (km/s) = 2.62169 4.00008 3.38185
# Velocity P-wave (km/s) = 3.66774 7.37952 5.82708
#
# Compressibility (1/GPa) = 0.12951724
#
# Stress axis : x y z
#
# Youngs Moduli (GPa) = 60.27374 85.59411 6.18026
#
# Poissons Ratio (x) = 0.70378 0.10257
# Poissons Ratio (y) = 0.49559 0.03376
# Poissons Ratio (z) = 1.00029 0.46761
#
# Static dielectric constant tensor:
#      x y z
#    x 3.656300 0.000000 0.000000 
#    y 0.000000 3.634810 0.000000 
#    z 0.000000 0.000000 2.728020 
# 
# 
# High freq. dielectric constant tensor:
#      x y z
#    x 1.699440 0.000000 0.000000 
#    y 0.000000 1.715090 0.000000 
#    z 0.000000 0.000000 1.635980 
# 
# From -- ./inp_files/20927.got.cif
#   From: 2010.03.12/outbox.cif.g09.slc.cpg/sg65_11_cif.got.tgz:20927.got - 2010.04.10 20:52:16.
