data_PCOD8269668
_publ_section_title
;
Structure prediction by ZEFSAII (Michael W. Deem and Ramdas Pophale) SiO2 
 PCOD8269668
Probable space group: C M M M
;
_chemical_formula_sum "Si O2"
_cell_formula_units_Z 64
_cell_length_a 22.936773
_cell_length_b 13.547301
_cell_length_c 11.250269
_cell_angle_alpha 90.000000
_cell_angle_beta 90.000000
_cell_angle_gamma 90.000000
_cell_volume 3495.811474
_symmetry_space_group_name_H-M "C M M M"
_symmetry_group_IT_number 65
_symmetry_cell_setting 'orthorhombic'
loop_
_space_group_symop_operation_xyz
x,y,z
-x,-y,z
x,-y,-z
-x,y,-z
-x,-y,-z
x,y,-z
-x,y,z
x,-y,z
1/2+x,1/2+y,z
1/2-x,1/2-y,z
1/2+x,1/2-y,-z
1/2-x,1/2+y,-z
1/2-x,1/2-y,-z
1/2+x,1/2+y,-z
1/2-x,1/2+y,z
1/2+x,1/2-y,z
loop_
_atom_site_type_symbol
_atom_site_label
_atom_site_fract_x
_atom_site_fract_y
_atom_site_fract_z
Si Si1 0.566889 0.731403 0.000000
Si Si2 0.718068 0.886707 0.253286
Si Si3 0.332370 0.112548 0.000000
Si Si4 0.329471 0.297979 0.363197
Si Si5 0.066611 0.885666 0.762073
O O1 0.608436 0.825404 0.000000
O O2 0.580552 0.664270 0.112915
O O3 0.500000 0.768469 0.000000
O O4 0.707396 0.864862 0.114383
O O5 0.675323 0.818142 0.331796
O O6 0.784967 0.860134 0.281570
O O7 0.704956 0.000000 0.286260
O O8 0.353697 0.000000 0.000000
O O9 0.313277 0.314846 0.500000
O O10 0.394562 0.335583 0.339791
O O11 0.000000 0.869901 0.723280
O O12 0.082272 0.000000 0.774182
#
# Coordination Sequence:
#
# PCOD8269668 Si02
#       5
#     8  16   8  16  16
#     4  10  19  36  59  83 113 146 183 231 284 337
#     4  10  21  37  57  84 115 144 182 230 280 335
#     4  10  20  36  59  87 114 144 180 225 287 341
#     4  11  23  37  57  82 111 154 195 226 271 327
#     4  10  21  37  58  84 113 146 186 234 284 332
#
# _framework density 18.307623
#
# number of rings (size 3 to 8) (size 9 to 14) (size 15 to 20)
#    0.000    1.750    2.500    2.625    0.000    8.750 
#    0.000    3.750    0.000    0.750    0.000    1.750 
#    0.000    0.000    0.000    0.000    0.000    0.000 
#
# Total GULP energy -396884.806987 kJ/mol
# GULP energy per Si atom -12402.650218 kJ/mol
# Density = 1.826595 g / cm^3
# Si number density = 18.307623 Si / 1000 Ang^3
#
#
#
# Elastic Constant Matrix: (Units=GPa)
#
#
# Indices 1 2 3 4 5 6 
#
# 1 108.6964 69.1497 61.3391 0.0000 0.0000 0.0000
# 2 69.1497 127.7110 53.7796 0.0000 0.0000 0.0000
# 3 61.3391 53.7796 115.7066 0.0000 0.0000 0.0000
# 4 0.0000 0.0000 0.0000 17.9995 0.0000 0.0000
# 5 0.0000 0.0000 0.0000 0.0000 21.7805 0.0000
# 6 0.0000 0.0000 0.0000 0.0000 0.0000 30.8023
#
#
#
# Elastic Compliance Matrix: (Units=1/GPa)
#
#
# Indices 1 2 3 4 5 6 
#
# 1 0.016639 -0.006583 -0.005761 0.000000 0.000000 0.000000
# 2 -0.006583 0.012340 -0.002246 0.000000 0.000000 0.000000
# 3 -0.005761 -0.002246 0.012740 0.000000 0.000000 0.000000
# 4 0.000000 0.000000 0.000000 0.055557 0.000000 0.000000
# 5 0.000000 0.000000 0.000000 0.000000 0.045913 0.000000
# 6 0.000000 0.000000 0.000000 0.000000 0.000000 0.032465
#
#
# Mechanical properties :
#
#
# Convention : Reuss Voigt Hill
#
# Bulk Modulus (GPa) = 79.74567 80.07231 79.90899
# Shear Modulus (GPa) = 23.92179 25.30619 24.61399
#
# Velocity S-wave (km/s) = 3.61869 3.72193 3.67067
# Velocity P-wave (km/s) = 7.81749 7.89319 7.85543
#
# Compressibility (1/GPa) = 0.01253987
#
# Stress axis : x y z
#
# Youngs Moduli (GPa) = 60.09964 81.03432 78.49077
#
# Poissons Ratio (x) = 0.53348 0.45218
# Poissons Ratio (y) = 0.39566 0.17627
# Poissons Ratio (z) = 0.34623 0.18198
#
# Static dielectric constant tensor:
#      x y z
#    x 3.298750 0.000000 0.000000 
#    y 0.000000 3.514970 0.000000 
#    z 0.000000 0.000000 3.346530 
# 
# 
# High freq. dielectric constant tensor:
#      x y z
#    x 1.703990 0.000000 0.000000 
#    y 0.000000 1.718080 0.000000 
#    z 0.000000 0.000000 1.712150 
# 
# From -- ./inp_files/6719.got.cif
#   From: 2010.03.12/outbox.cif.g09.slc.cpg/sg65_4_cif.got.tgz:6719.got - 2010.04.10 20:52:16.
