data_PCOD8269833
_publ_section_title
;
Structure prediction by ZEFSAII (Michael W. Deem and Ramdas Pophale) SiO2 
 PCOD8269833
Probable space group: C M M M
;
_chemical_formula_sum "Si O2"
_cell_formula_units_Z 96
_cell_length_a 18.941433
_cell_length_b 30.321216
_cell_length_c 9.319284
_cell_angle_alpha 90.000000
_cell_angle_beta 90.000000
_cell_angle_gamma 90.000000
_cell_volume 5352.319044
_symmetry_space_group_name_H-M "C M M M"
_symmetry_group_IT_number 65
_symmetry_cell_setting 'orthorhombic'
loop_
_space_group_symop_operation_xyz
x,y,z
-x,-y,z
x,-y,-z
-x,y,-z
-x,-y,-z
x,y,-z
-x,y,z
x,-y,z
1/2+x,1/2+y,z
1/2-x,1/2-y,z
1/2+x,1/2-y,-z
1/2-x,1/2+y,-z
1/2-x,1/2-y,-z
1/2+x,1/2+y,-z
1/2-x,1/2+y,z
1/2+x,1/2-y,z
loop_
_atom_site_type_symbol
_atom_site_label
_atom_site_fract_x
_atom_site_fract_y
_atom_site_fract_z
Si Si1 0.418154 0.128551 0.668124
Si Si2 0.335275 0.448702 0.663489
Si Si3 0.664252 0.201855 0.830054
Si Si4 0.919319 0.121062 0.169563
Si Si5 0.676651 0.951316 0.329485
Si Si6 0.676768 0.300529 0.830200
O O1 0.403771 0.135026 0.500000
O O2 0.500000 0.121200 0.701456
O O3 0.392128 0.171828 0.749611
O O4 0.377184 0.085542 0.728708
O O5 0.343043 0.432411 0.500000
O O6 0.353275 0.500000 0.675397
O O7 0.390922 0.423598 0.761657
O O8 0.255953 0.439370 0.720642
O O9 0.651397 0.252247 0.779039
O O10 0.743410 0.188521 0.781217
O O11 0.653893 0.196402 0.000000
O O12 0.875555 0.162553 0.232402
O O13 0.000000 0.128095 0.214481
O O14 0.910423 0.117101 0.000000
O O15 0.675036 0.953193 0.500000
O O16 0.655163 0.000000 0.270135
O O17 0.675109 0.300241 0.000000
#
# Coordination Sequence:
#
# PCOD8269833 Si02
#       6
#    16  16  16  16  16  16
#     4  10  20  31  45  71 104 129 152 191 238 279
#     4   9  18  33  52  71  91 119 157 198 235 274
#     4   9  17  32  54  73  91 122 162 198 233 278
#     4  10  20  32  47  69  97 126 154 188 232 280
#     4   8  15  30  51  71  91 121 161 197 230 274
#     4   8  16  32  52  73  94 119 158 202 235 270
#
# _framework density 17.936150999999999
#
# number of rings (size 3 to 8) (size 9 to 14) (size 15 to 20)
#    0.000    3.000    0.000    3.000    0.000    2.333 
#    0.000    7.500    0.000    1.500    0.000    1.167 
#    0.000    0.000    0.000    0.000    0.000    0.000 
#
# Total GULP energy -595080.437732 kJ/mol
# GULP energy per Si atom -12397.509119 kJ/mol
# Density = 1.789533 g / cm^3
# Si number density = 17.936151 Si / 1000 Ang^3
#
#
#
# Elastic Constant Matrix: (Units=GPa)
#
#
# Indices 1 2 3 4 5 6 
#
# 1 114.8309 68.6474 36.4415 0.0000 0.0000 0.0000
# 2 68.6474 106.7513 32.5281 0.0000 0.0000 0.0000
# 3 36.4415 32.5281 26.2565 0.0000 0.0000 0.0000
# 4 0.0000 0.0000 0.0000 27.0397 0.0000 0.0000
# 5 0.0000 0.0000 0.0000 0.0000 24.2493 0.0000
# 6 0.0000 0.0000 0.0000 0.0000 0.0000 22.7479
#
#
#
# Elastic Compliance Matrix: (Units=1/GPa)
#
#
# Indices 1 2 3 4 5 6 
#
# 1 0.017876 -0.006322 -0.016978 0.000000 0.000000 0.000000
# 2 -0.006322 0.017284 -0.012638 0.000000 0.000000 0.000000
# 3 -0.016978 -0.012638 0.077306 0.000000 0.000000 0.000000
# 4 0.000000 0.000000 0.000000 0.036983 0.000000 0.000000
# 5 0.000000 0.000000 0.000000 0.000000 0.041238 0.000000
# 6 0.000000 0.000000 0.000000 0.000000 0.000000 0.043960
#
#
# Mechanical properties :
#
#
# Convention : Reuss Voigt Hill
#
# Bulk Modulus (GPa) = 24.63651 58.11918 41.37784
# Shear Modulus (GPa) = 15.62244 22.15549 18.88897
#
# Velocity S-wave (km/s) = 2.95448 3.51841 3.24871
# Velocity P-wave (km/s) = 5.04025 6.99853 6.09850
#
# Compressibility (1/GPa) = 0.04059016
#
# Stress axis : x y z
#
# Youngs Moduli (GPa) = 55.94224 57.85759 12.93555
#
# Poissons Ratio (x) = 0.36576 0.21962
# Poissons Ratio (y) = 0.35365 0.16348
# Poissons Ratio (z) = 0.94978 0.73122
#
# Static dielectric constant tensor:
#      x y z
#    x 3.413860 0.000000 0.000000 
#    y 0.000000 3.595330 0.000000 
#    z 0.000000 0.000000 2.901020 
# 
# 
# High freq. dielectric constant tensor:
#      x y z
#    x 1.694820 0.000000 0.000000 
#    y 0.000000 1.706020 0.000000 
#    z 0.000000 0.000000 1.652470 
# 
# From -- ./inp_files/12302.got.cif
#   From: 2010.03.12/outbox.cif.g09.slc.cpg/sg65_7_cif.got.tgz:12302.got - 2010.04.10 20:52:16.
