data_PCOD8269339
_publ_section_title
;
Structure prediction by ZEFSAII (Michael W. Deem and Ramdas Pophale) SiO2 
 PCOD8269339
Probable space group: C M M M
;
_chemical_formula_sum "Si O2"
_cell_formula_units_Z 104
_cell_length_a 18.100081
_cell_length_b 14.554968
_cell_length_c 19.441223
_cell_angle_alpha 90.000000
_cell_angle_beta 90.000000
_cell_angle_gamma 90.000000
_cell_volume 5121.714374
_symmetry_space_group_name_H-M "C M M M"
_symmetry_group_IT_number 65
_symmetry_cell_setting 'orthorhombic'
loop_
_space_group_symop_operation_xyz
x,y,z
-x,-y,z
x,-y,-z
-x,y,-z
-x,-y,-z
x,y,-z
-x,y,z
x,-y,z
1/2+x,1/2+y,z
1/2-x,1/2-y,z
1/2+x,1/2-y,-z
1/2-x,1/2+y,-z
1/2-x,1/2-y,-z
1/2+x,1/2+y,-z
1/2-x,1/2+y,z
1/2+x,1/2-y,z
loop_
_atom_site_type_symbol
_atom_site_label
_atom_site_fract_x
_atom_site_fract_y
_atom_site_fract_z
Si Si1 0.182279 0.897814 0.686695
Si Si2 0.916369 0.790009 0.919345
Si Si3 0.689785 0.105636 0.579435
Si Si4 0.913327 0.898863 0.500000
Si Si5 0.281019 0.649609 0.835079
Si Si6 0.646846 0.900791 0.078365
Si Si7 0.413294 0.734502 0.378549
O O1 0.243369 0.869823 0.629993
O O2 0.215258 0.902312 0.762724
O O3 0.120724 0.815815 0.688606
O O4 0.150463 0.000000 0.669483
O O5 0.860062 0.850202 0.874105
O O6 0.906959 0.682094 0.899552
O O7 0.000000 0.818995 0.900797
O O8 0.900355 0.806526 0.000000
O O9 0.712428 0.126004 0.500000
O O10 0.620111 0.167195 0.602119
O O11 0.665033 0.000000 0.588235
O O12 0.889210 0.841532 0.565735
O O13 0.000000 0.912745 0.500000
O O14 0.874378 0.000000 0.500000
O O15 0.250000 0.750000 0.821797
O O16 0.223094 0.594845 0.880620
O O17 0.606604 0.000000 0.088721
O O18 0.670400 0.885541 0.000000
O O19 0.500000 0.749223 0.370522
#
# Coordination Sequence:
#
# PCOD8269339 Si02
#       7
#    16  16  16   8  16  16  16
#     4  11  24  39  58  83 111 148 189 233 283 333
#     4   9  18  32  52  80 112 145 181 222 273 329
#     4  10  22  40  61  86 114 144 182 228 280 338
#     4   9  18  32  50  75 107 141 175 214 262 316
#     4  10  19  34  54  77 107 145 188 231 272 324
#     4   9  17  30  52  80 108 141 181 226 273 323
#     4  11  22  37  58  84 112 145 182 226 277 332
#
# _framework density 20.305700999999999
#
# number of rings (size 3 to 8) (size 9 to 14) (size 15 to 20)
#    0.000    2.077    0.769    2.769    1.077    4.615 
#    0.000    2.308    0.000    1.385    0.000    9.692 
#    0.000    0.000    0.000    0.000    0.000    0.000 
#
# Total GULP energy -644560.395432 kJ/mol
# GULP energy per Si atom -12395.392220 kJ/mol
# Density = 2.025948 g / cm^3
# Si number density = 20.305701 Si / 1000 Ang^3
#
#
#
# Elastic Constant Matrix: (Units=GPa)
#
#
# Indices 1 2 3 4 5 6 
#
# 1 107.4071 31.1989 42.0649 0.0000 0.0000 0.0000
# 2 31.1989 86.5577 17.6638 0.0000 0.0000 0.0000
# 3 42.0649 17.6638 80.6497 0.0000 0.0000 0.0000
# 4 0.0000 0.0000 0.0000 23.4944 0.0000 0.0000
# 5 0.0000 0.0000 0.0000 0.0000 15.8691 0.0000
# 6 0.0000 0.0000 0.0000 0.0000 0.0000 25.7510
#
#
#
# Elastic Compliance Matrix: (Units=1/GPa)
#
#
# Indices 1 2 3 4 5 6 
#
# 1 0.012559 -0.003339 -0.005819 0.000000 0.000000 0.000000
# 2 -0.003339 0.012981 -0.001101 0.000000 0.000000 0.000000
# 3 -0.005819 -0.001101 0.015676 0.000000 0.000000 0.000000
# 4 0.000000 0.000000 0.000000 0.042563 0.000000 0.000000
# 5 0.000000 0.000000 0.000000 0.000000 0.063016 0.000000
# 6 0.000000 0.000000 0.000000 0.000000 0.000000 0.038834
#
#
# Mechanical properties :
#
#
# Convention : Reuss Voigt Hill
#
# Bulk Modulus (GPa) = 48.31770 50.71884 49.51827
# Shear Modulus (GPa) = 23.46887 25.26868 24.36877
#
# Velocity S-wave (km/s) = 3.40336 3.53145 3.46800
# Velocity P-wave (km/s) = 6.26822 6.45446 6.36202
#
# Compressibility (1/GPa) = 0.02069635
#
# Stress axis : x y z
#
# Youngs Moduli (GPa) = 79.62135 77.03325 63.79287
#
# Poissons Ratio (x) = 0.25724 0.37123
# Poissons Ratio (y) = 0.26589 0.07026
# Poissons Ratio (z) = 0.46334 0.08485
#
# Static dielectric constant tensor:
#      x y z
#    x 3.456790 0.000000 0.000000 
#    y 0.000000 3.792350 0.000000 
#    z 0.000000 0.000000 3.627460 
# 
# 
# High freq. dielectric constant tensor:
#      x y z
#    x 1.776060 0.000000 0.000000 
#    y 0.000000 1.801160 0.000000 
#    z 0.000000 0.000000 1.788950 
# 
# From -- ./inp_files/63808.got.cif
#   From: 2010.03.12/outbox.cif.g09.slc.cpg/sg65_32_cif.got.tgz:63808.got - 2010.04.10 20:52:16.
