data_PCOD8269642
_publ_section_title
;
Structure prediction by ZEFSAII (Michael W. Deem and Ramdas Pophale) SiO2 
 PCOD8269642
Probable space group: C M M M
;
_chemical_formula_sum "Si O2"
_cell_formula_units_Z 104
_cell_length_a 17.945346
_cell_length_b 17.593191
_cell_length_c 17.338678
_cell_angle_alpha 90.000000
_cell_angle_beta 90.000000
_cell_angle_gamma 90.000000
_cell_volume 5474.096325
_symmetry_space_group_name_H-M "C M M M"
_symmetry_group_IT_number 65
_symmetry_cell_setting 'orthorhombic'
loop_
_space_group_symop_operation_xyz
x,y,z
-x,-y,z
x,-y,-z
-x,y,-z
-x,-y,-z
x,y,-z
-x,y,z
x,-y,z
1/2+x,1/2+y,z
1/2-x,1/2-y,z
1/2+x,1/2-y,-z
1/2-x,1/2+y,-z
1/2-x,1/2-y,-z
1/2+x,1/2+y,-z
1/2-x,1/2+y,z
1/2+x,1/2-y,z
loop_
_atom_site_type_symbol
_atom_site_label
_atom_site_fract_x
_atom_site_fract_y
_atom_site_fract_z
Si Si1 0.080816 0.411733 0.208322
Si Si2 0.087341 0.915931 0.000000
Si Si3 0.676370 0.090076 0.353122
Si Si4 0.669199 0.167009 0.089013
Si Si5 0.086169 0.722390 0.412771
Si Si6 0.831308 0.836249 0.864752
Si Si7 0.192383 0.816844 0.694808
O O1 0.069299 0.500000 0.212876
O O2 0.141940 0.386511 0.270348
O O3 0.109219 0.390623 0.123525
O O4 0.000000 0.372935 0.224228
O O5 0.108824 0.875310 0.080068
O O6 0.000000 0.919960 0.000000
O O7 0.122765 0.000000 0.000000
O O8 0.627427 0.139938 0.412478
O O9 0.762531 0.117525 0.352203
O O10 0.671127 0.000000 0.372582
O O11 0.751851 0.135329 0.103283
O O12 0.658719 0.246525 0.130859
O O13 0.652552 0.177189 0.000000
O O14 0.091241 0.753239 0.500000
O O15 0.125903 0.784282 0.357804
O O16 0.000000 0.712830 0.387362
O O17 0.840366 0.854866 0.773444
O O18 0.250000 0.750000 0.716857
#
# Coordination Sequence:
#
# PCOD8269642 Si02
#       7
#    16   8  16  16  16  16  16
#     4  10  21  35  51  78 117 152 185 229 278 335
#     4  11  26  41  52  76 112 147 188 241 294 340
#     4  10  20  35  57  87 119 152 193 236 287 347
#     4  11  19  33  55  79 105 139 189 232 278 338
#     4  10  22  39  59  87 121 155 191 233 287 347
#     4  11  19  37  58  78 104 141 186 239 285 331
#     4  10  19  35  63  88 113 149 193 244 285 338
#
# _framework density 18.998570000000001
#
# number of rings (size 3 to 8) (size 9 to 14) (size 15 to 20)
#    0.000    1.615    4.615    1.846    0.000    7.077 
#    0.000    1.538    0.000    0.462    0.000    1.077 
#    0.000    0.000    0.000    0.000    0.000    0.000 
#
# Total GULP energy -644606.384882 kJ/mol
# GULP energy per Si atom -12396.276632 kJ/mol
# Density = 1.895533 g / cm^3
# Si number density = 18.998570 Si / 1000 Ang^3
#
#
#
# Elastic Constant Matrix: (Units=GPa)
#
#
# Indices 1 2 3 4 5 6 
#
# 1 88.3148 33.2505 43.7671 0.0000 0.0000 0.0000
# 2 33.2505 42.0491 23.5112 0.0000 0.0000 0.0000
# 3 43.7671 23.5112 91.8774 0.0000 0.0000 0.0000
# 4 0.0000 0.0000 0.0000 23.4756 0.0000 0.0000
# 5 0.0000 0.0000 0.0000 0.0000 34.9991 0.0000
# 6 0.0000 0.0000 0.0000 0.0000 0.0000 24.4589
#
#
#
# Elastic Compliance Matrix: (Units=1/GPa)
#
#
# Indices 1 2 3 4 5 6 
#
# 1 0.018528 -0.011339 -0.005925 0.000000 0.000000 0.000000
# 2 -0.011339 0.034691 -0.003476 0.000000 0.000000 0.000000
# 3 -0.005925 -0.003476 0.014596 0.000000 0.000000 0.000000
# 4 0.000000 0.000000 0.000000 0.042597 0.000000 0.000000
# 5 0.000000 0.000000 0.000000 0.000000 0.028572 0.000000
# 6 0.000000 0.000000 0.000000 0.000000 0.000000 0.040885
#
#
# Mechanical properties :
#
#
# Convention : Reuss Voigt Hill
#
# Bulk Modulus (GPa) = 37.96979 47.03321 42.50150
# Shear Modulus (GPa) = 21.72709 24.70091 23.21400
#
# Velocity S-wave (km/s) = 3.38541 3.60967 3.49933
# Velocity P-wave (km/s) = 5.94225 6.49483 6.22468
#
# Compressibility (1/GPa) = 0.02633673
#
# Stress axis : x y z
#
# Youngs Moduli (GPa) = 53.97169 28.82565 68.51241
#
# Poissons Ratio (x) = 0.32684 0.40591
# Poissons Ratio (y) = 0.61196 0.23816
# Poissons Ratio (z) = 0.31976 0.10020
#
# Static dielectric constant tensor:
#      x y z
#    x 3.658230 0.000000 0.000000 
#    y 0.000000 3.314240 0.000000 
#    z 0.000000 0.000000 3.420770 
# 
# 
# High freq. dielectric constant tensor:
#      x y z
#    x 1.734070 0.000000 0.000000 
#    y 0.000000 1.716960 0.000000 
#    z 0.000000 0.000000 1.739020 
# 
# From -- ./inp_files/54572.got.cif
#   From: 2010.03.12/outbox.cif.g09.slc.cpg/sg65_28_cif.got.tgz:54572.got - 2010.04.10 20:52:16.
