data_PCOD8269790
_publ_section_title
;
Structure prediction by ZEFSAII (Michael W. Deem and Ramdas Pophale) SiO2 
 PCOD8269790
Probable space group: C M M M
;
_chemical_formula_sum "Si O2"
_cell_formula_units_Z 72
_cell_length_a 28.375296
_cell_length_b 8.860133
_cell_length_c 18.074172
_cell_angle_alpha 90.000000
_cell_angle_beta 90.000000
_cell_angle_gamma 90.000000
_cell_volume 4544.007637
_symmetry_space_group_name_H-M "C M M M"
_symmetry_group_IT_number 65
_symmetry_cell_setting 'orthorhombic'
loop_
_space_group_symop_operation_xyz
x,y,z
-x,-y,z
x,-y,-z
-x,y,-z
-x,-y,-z
x,y,-z
-x,y,z
x,-y,z
1/2+x,1/2+y,z
1/2-x,1/2-y,z
1/2+x,1/2-y,-z
1/2-x,1/2+y,-z
1/2-x,1/2-y,-z
1/2+x,1/2+y,-z
1/2-x,1/2+y,z
1/2+x,1/2-y,z
loop_
_atom_site_type_symbol
_atom_site_label
_atom_site_fract_x
_atom_site_fract_y
_atom_site_fract_z
Si Si1 0.055328 0.674149 0.227492
Si Si2 0.444118 0.330719 0.081048
Si Si3 0.890086 0.821570 0.641247
Si Si4 0.798947 0.322303 0.585038
Si Si5 0.052588 0.179360 0.500000
O O1 0.066806 0.500000 0.241875
O O2 0.073197 0.717705 0.145143
O O3 0.083806 0.776936 0.284024
O O4 0.000000 0.708762 0.237057
O O5 0.500000 0.331436 0.079181
O O6 0.425741 0.500000 0.097928
O O7 0.425316 0.277244 0.000000
O O8 0.839213 0.743996 0.637771
O O9 0.920918 0.760744 0.572591
O O10 0.883467 0.000000 0.637994
O O11 0.809724 0.277431 0.500000
O O12 0.795801 0.500000 0.595553
O O13 0.750000 0.250000 0.611049
O O14 0.000000 0.247583 0.500000
O O15 0.050648 0.000000 0.500000
#
# Coordination Sequence:
#
# PCOD8269790 Si02
#       5
#    16  16  16  16   8
#     4  10  20  31  43  64  95 128 160 194 234 277
#     4   8  14  26  44  64  86 116 155 194 231 273
#     4  11  20  32  49  67  91 121 158 197 236 278
#     4  10  20  34  52  71  92 115 147 190 239 287
#     4   9  18  30  44  63  86 117 158 197 228 265
#
# _framework density 15.845045000000001
#
# number of rings (size 3 to 8) (size 9 to 14) (size 15 to 20)
#    0.000    2.333    1.111    3.333    0.000    3.556 
#    0.000    2.222    0.000    2.667    0.000    0.000 
#    0.000    0.889    0.000    3.333    0.000    5.111 
#
# Total GULP energy -446379.311489 kJ/mol
# GULP energy per Si atom -12399.425319 kJ/mol
# Density = 1.580898 g / cm^3
# Si number density = 15.845045 Si / 1000 Ang^3
#
#
#
# Elastic Constant Matrix: (Units=GPa)
#
#
# Indices 1 2 3 4 5 6 
#
# 1 80.8336 33.3373 38.3288 0.0000 0.0000 0.0000
# 2 33.3373 64.1044 28.7934 0.0000 0.0000 0.0000
# 3 38.3288 28.7934 98.1701 0.0000 0.0000 0.0000
# 4 0.0000 0.0000 0.0000 24.4239 0.0000 0.0000
# 5 0.0000 0.0000 0.0000 0.0000 4.5322 0.0000
# 6 0.0000 0.0000 0.0000 0.0000 0.0000 23.1176
#
#
#
# Elastic Compliance Matrix: (Units=1/GPa)
#
#
# Indices 1 2 3 4 5 6 
#
# 1 0.017514 -0.006953 -0.004799 0.000000 0.000000 0.000000
# 2 -0.006953 0.020726 -0.003365 0.000000 0.000000 0.000000
# 3 -0.004799 -0.003365 0.013047 0.000000 0.000000 0.000000
# 4 0.000000 0.000000 0.000000 0.040944 0.000000 0.000000
# 5 0.000000 0.000000 0.000000 0.000000 0.220643 0.000000
# 6 0.000000 0.000000 0.000000 0.000000 0.000000 0.043257
#
#
# Mechanical properties :
#
#
# Convention : Reuss Voigt Hill
#
# Bulk Modulus (GPa) = 47.49403 49.33634 48.41519
# Shear Modulus (GPa) = 12.71032 19.92464 16.31748
#
# Velocity S-wave (km/s) = 2.83532 3.54993 3.21256
# Velocity P-wave (km/s) = 6.38419 6.92871 6.66201
#
# Compressibility (1/GPa) = 0.02105528
#
# Stress axis : x y z
#
# Youngs Moduli (GPa) = 57.09749 48.24746 76.64696
#
# Poissons Ratio (x) = 0.33545 0.36781
# Poissons Ratio (y) = 0.39698 0.25788
# Poissons Ratio (z) = 0.27400 0.16233
#
# Static dielectric constant tensor:
#      x y z
#    x 2.791640 0.000000 0.000000 
#    y 0.000000 2.968740 0.000000 
#    z 0.000000 0.000000 3.179860 
# 
# 
# High freq. dielectric constant tensor:
#      x y z
#    x 1.573510 0.000000 0.000000 
#    y 0.000000 1.611910 0.000000 
#    z 0.000000 0.000000 1.602180 
# 
# From -- ./inp_files/36562.got.cif
#   From: 2010.03.12/outbox.cif.g09.slc.cpg/sg65_19_cif.got.tgz:36562.got - 2010.04.10 20:52:16.
