data_PCOD8269854
_publ_section_title
;
Structure prediction by ZEFSAII (Michael W. Deem and Ramdas Pophale) SiO2 
 PCOD8269854
Probable space group: C M M M
;
_chemical_formula_sum "Si O2"
_cell_formula_units_Z 104
_cell_length_a 8.962314
_cell_length_b 29.851953
_cell_length_c 22.929091
_cell_angle_alpha 90.000000
_cell_angle_beta 90.000000
_cell_angle_gamma 90.000000
_cell_volume 6134.508078
_symmetry_space_group_name_H-M "C M M M"
_symmetry_group_IT_number 65
_symmetry_cell_setting 'orthorhombic'
loop_
_space_group_symop_operation_xyz
x,y,z
-x,-y,z
x,-y,-z
-x,y,-z
-x,-y,-z
x,y,-z
-x,y,z
x,-y,z
1/2+x,1/2+y,z
1/2-x,1/2-y,z
1/2+x,1/2-y,-z
1/2-x,1/2+y,-z
1/2-x,1/2-y,-z
1/2+x,1/2+y,-z
1/2-x,1/2+y,z
1/2+x,1/2-y,z
loop_
_atom_site_type_symbol
_atom_site_label
_atom_site_fract_x
_atom_site_fract_y
_atom_site_fract_z
Si Si1 0.673248 0.500000 0.436457
Si Si2 0.166709 0.447023 0.063831
Si Si3 0.322396 0.704583 0.682389
Si Si4 0.168067 0.380443 0.732835
Si Si5 0.326379 0.177591 0.434633
Si Si6 0.675060 0.552004 0.820802
Si Si7 0.162909 0.417959 0.605451
O O1 0.500000 0.500000 0.443968
O O2 0.751121 0.500000 0.500000
O O3 0.715811 0.456055 0.401362
O O4 0.163338 0.500000 0.060721
O O5 0.281253 0.431983 0.113982
O O6 0.000000 0.429262 0.078529
O O7 0.217696 0.428418 0.000000
O O8 0.500000 0.706330 0.685991
O O9 0.250000 0.750000 0.707403
O O10 0.263395 0.664757 0.723751
O O11 0.275081 0.700830 0.614209
O O12 0.243089 0.414504 0.777471
O O13 0.160882 0.405665 0.672402
O O14 0.000000 0.368281 0.753699
O O15 0.287775 0.195342 0.500000
O O16 0.500000 0.186518 0.418932
O O17 0.293639 0.124586 0.433876
O O18 0.500000 0.557465 0.812428
O O19 0.723424 0.500000 0.809673
O O20 0.000000 0.435943 0.586538
#
# Coordination Sequence:
#
# PCOD8269854 Si02
#       7
#     8  16  16  16  16  16  16
#     4  11  23  33  43  63  89 117 152 195 240 287
#     4   8  14  26  44  66  95 135 179 215 247 285
#     4  11  22  37  56  76  99 125 156 196 248 303
#     4  10  21  37  54  72  96 127 166 206 248 294
#     4   9  18  34  54  74  95 119 151 192 239 295
#     4  10  20  31  46  73 106 139 174 211 252 293
#     4   9  19  34  50  66  85 117 157 196 239 286
#
# _framework density 16.953274
#
# number of rings (size 3 to 8) (size 9 to 14) (size 15 to 20)
#    0.000    2.385    0.000    4.385    1.077    6.154 
#    0.000    1.538    0.000    0.000    0.000    0.000 
#    0.000    0.615    0.000    2.308    0.000    3.538 
#
# Total GULP energy -644526.101353 kJ/mol
# GULP energy per Si atom -12394.732718 kJ/mol
# Density = 1.691469 g / cm^3
# Si number density = 16.953274 Si / 1000 Ang^3
#
#
#
# Elastic Constant Matrix: (Units=GPa)
#
#
# Indices 1 2 3 4 5 6 
#
# 1 112.0307 53.9597 39.2207 0.0000 0.0000 0.0000
# 2 53.9597 88.4436 36.3491 0.0000 0.0000 0.0000
# 3 39.2207 36.3491 77.8263 0.0000 0.0000 0.0000
# 4 0.0000 0.0000 0.0000 22.2090 0.0000 0.0000
# 5 0.0000 0.0000 0.0000 0.0000 27.3185 0.0000
# 6 0.0000 0.0000 0.0000 0.0000 0.0000 24.9343
#
#
#
# Elastic Compliance Matrix: (Units=1/GPa)
#
#
# Indices 1 2 3 4 5 6 
#
# 1 0.013425 -0.006695 -0.003638 0.000000 0.000000 0.000000
# 2 -0.006695 0.017331 -0.004721 0.000000 0.000000 0.000000
# 3 -0.003638 -0.004721 0.016888 0.000000 0.000000 0.000000
# 4 0.000000 0.000000 0.000000 0.045027 0.000000 0.000000
# 5 0.000000 0.000000 0.000000 0.000000 0.036605 0.000000
# 6 0.000000 0.000000 0.000000 0.000000 0.000000 0.040105
#
#
# Mechanical properties :
#
#
# Convention : Reuss Voigt Hill
#
# Bulk Modulus (GPa) = 57.02811 59.70662 58.36737
# Shear Modulus (GPa) = 24.35053 24.81044 24.58049
#
# Velocity S-wave (km/s) = 3.79401 3.82967 3.81188
# Velocity P-wave (km/s) = 7.27352 7.40608 7.34010
#
# Compressibility (1/GPa) = 0.01753521
#
# Stress axis : x y z
#
# Youngs Moduli (GPa) = 74.49042 57.69860 59.21529
#
# Poissons Ratio (x) = 0.38629 0.21545
# Poissons Ratio (y) = 0.49872 0.27954
# Poissons Ratio (z) = 0.27102 0.27238
#
# Static dielectric constant tensor:
#      x y z
#    x 3.261020 0.000000 0.000000 
#    y 0.000000 3.028790 0.000000 
#    z 0.000000 0.000000 3.373250 
# 
# 
# High freq. dielectric constant tensor:
#      x y z
#    x 1.660590 0.000000 0.000000 
#    y 0.000000 1.630020 0.000000 
#    z 0.000000 0.000000 1.639090 
# 
# From -- ./inp_files/68521.got.cif
#   From: 2010.03.12/outbox.cif.g09.slc.cpg/sg65_35_cif.got.tgz:68521.got - 2010.04.10 20:52:16.
