data_PCOD8269625
_publ_section_title
;
Structure prediction by ZEFSAII (Michael W. Deem and Ramdas Pophale) SiO2 
 PCOD8269625
Probable space group: C M M M
;
_chemical_formula_sum "Si O2"
_cell_formula_units_Z 96
_cell_length_a 18.423563
_cell_length_b 20.593245
_cell_length_c 13.805708
_cell_angle_alpha 90.000000
_cell_angle_beta 90.000000
_cell_angle_gamma 90.000000
_cell_volume 5237.898684
_symmetry_space_group_name_H-M "C M M M"
_symmetry_group_IT_number 65
_symmetry_cell_setting 'orthorhombic'
loop_
_space_group_symop_operation_xyz
x,y,z
-x,-y,z
x,-y,-z
-x,y,-z
-x,-y,-z
x,y,-z
-x,y,z
x,-y,z
1/2+x,1/2+y,z
1/2-x,1/2-y,z
1/2+x,1/2-y,-z
1/2-x,1/2+y,-z
1/2-x,1/2-y,-z
1/2+x,1/2+y,-z
1/2-x,1/2+y,z
1/2+x,1/2-y,z
loop_
_atom_site_type_symbol
_atom_site_label
_atom_site_fract_x
_atom_site_fract_y
_atom_site_fract_z
Si Si1 0.415271 0.874968 0.111370
Si Si2 0.419361 0.189685 0.613268
Si Si3 0.913877 0.823052 0.302947
Si Si4 0.309977 0.573909 0.610886
Si Si5 0.660650 0.073530 0.291997
Si Si6 0.914521 0.773057 0.895681
O O1 0.500000 0.887266 0.136969
O O2 0.362430 0.917212 0.179876
O O3 0.392207 0.800530 0.130657
O O4 0.400689 0.894580 0.000000
O O5 0.419859 0.197569 0.500000
O O6 0.500000 0.184768 0.656975
O O7 0.383119 0.254792 0.656024
O O8 0.380647 0.123473 0.640179
O O9 0.877457 0.882094 0.358528
O O10 0.891711 0.823081 0.188812
O O11 0.000000 0.829251 0.319060
O O12 0.285935 0.590152 0.500000
O O13 0.336990 0.500000 0.617396
O O14 0.245528 0.586294 0.687621
O O15 0.641122 0.000000 0.323558
O O16 0.000000 0.773058 0.906967
O O17 0.880004 0.793817 0.000000
#
# Coordination Sequence:
#
# PCOD8269625 Si02
#       6
#    16  16  16  16  16  16
#     4   9  17  32  55  82 112 146 185 226 266 312
#     4  10  20  33  51  78 107 136 178 226 269 320
#     4  10  19  35  60  85 108 134 173 232 289 328
#     4  10  23  41  57  76 105 144 188 228 273 332
#     4  11  22  36  52  72 109 153 184 218 266 319
#     4   8  14  28  53  82 110 138 168 209 265 325
#
# _framework density 18.327960999999998
#
# number of rings (size 3 to 8) (size 9 to 14) (size 15 to 20)
#    0.000    2.333    1.667    2.500    0.000    4.667 
#    0.000    5.000    0.000    3.500    0.000    2.333 
#    0.000    0.000    0.000    0.000    0.000    0.000 
#
# Total GULP energy -594885.194851 kJ/mol
# GULP energy per Si atom -12393.441559 kJ/mol
# Density = 1.828625 g / cm^3
# Si number density = 18.327961 Si / 1000 Ang^3
#
#
#
# Elastic Constant Matrix: (Units=GPa)
#
#
# Indices 1 2 3 4 5 6 
#
# 1 62.0557 47.6552 47.6582 0.0000 0.0000 0.0000
# 2 47.6552 97.9402 53.6867 0.0000 0.0000 0.0000
# 3 47.6582 53.6867 106.9339 0.0000 0.0000 0.0000
# 4 0.0000 0.0000 0.0000 19.9673 0.0000 0.0000
# 5 0.0000 0.0000 0.0000 0.0000 25.8868 0.0000
# 6 0.0000 0.0000 0.0000 0.0000 0.0000 33.6907
#
#
#
# Elastic Compliance Matrix: (Units=1/GPa)
#
#
# Indices 1 2 3 4 5 6 
#
# 1 0.030410 -0.010165 -0.008450 0.000000 0.000000 0.000000
# 2 -0.010165 0.017485 -0.004248 0.000000 0.000000 0.000000
# 3 -0.008450 -0.004248 0.015250 0.000000 0.000000 0.000000
# 4 0.000000 0.000000 0.000000 0.050082 0.000000 0.000000
# 5 0.000000 0.000000 0.000000 0.000000 0.038630 0.000000
# 6 0.000000 0.000000 0.000000 0.000000 0.000000 0.029682
#
#
# Mechanical properties :
#
#
# Convention : Reuss Voigt Hill
#
# Bulk Modulus (GPa) = 57.40662 62.76999 60.08831
# Shear Modulus (GPa) = 21.45276 23.77096 22.61186
#
# Velocity S-wave (km/s) = 3.42496 3.60526 3.51627
# Velocity P-wave (km/s) = 6.85787 7.18701 7.02437
#
# Compressibility (1/GPa) = 0.01741959
#
# Stress axis : x y z
#
# Youngs Moduli (GPa) = 32.88403 57.19222 65.57281
#
# Poissons Ratio (x) = 0.58135 0.55407
# Poissons Ratio (y) = 0.33426 0.27856
# Poissons Ratio (z) = 0.27786 0.24296
#
# Static dielectric constant tensor:
#      x y z
#    x 3.050450 0.000000 0.000000 
#    y 0.000000 3.287480 0.000000 
#    z 0.000000 0.000000 4.076280 
# 
# 
# High freq. dielectric constant tensor:
#      x y z
#    x 1.674390 0.000000 0.000000 
#    y 0.000000 1.698850 0.000000 
#    z 0.000000 0.000000 1.730230 
# 
# From -- ./inp_files/40346.got.cif
#   From: 2010.03.12/outbox.cif.g09.slc.cpg/sg65_21_cif.got.tgz:40346.got - 2010.04.10 20:52:16.
