data_PCOD8269298
_publ_section_title
;
Structure prediction by ZEFSAII (Michael W. Deem and Ramdas Pophale) SiO2 
 PCOD8269298
Probable space group: C M M M
;
_chemical_formula_sum "Si O2"
_cell_formula_units_Z 88
_cell_length_a 23.698543
_cell_length_b 9.007739
_cell_length_c 23.406445
_cell_angle_alpha 90.000000
_cell_angle_beta 90.000000
_cell_angle_gamma 90.000000
_cell_volume 4996.580603
_symmetry_space_group_name_H-M "C M M M"
_symmetry_group_IT_number 65
_symmetry_cell_setting 'orthorhombic'
loop_
_space_group_symop_operation_xyz
x,y,z
-x,-y,z
x,-y,-z
-x,y,-z
-x,-y,-z
x,y,-z
-x,y,z
x,-y,z
1/2+x,1/2+y,z
1/2-x,1/2-y,z
1/2+x,1/2-y,-z
1/2-x,1/2+y,-z
1/2-x,1/2-y,-z
1/2+x,1/2+y,-z
1/2-x,1/2+y,z
1/2+x,1/2-y,z
loop_
_atom_site_type_symbol
_atom_site_label
_atom_site_fract_x
_atom_site_fract_y
_atom_site_fract_z
Si Si1 0.191101 0.827814 0.500000
Si Si2 0.109725 0.669693 0.064192
Si Si3 0.121413 0.175847 0.732342
Si Si4 0.000000 0.824281 0.104494
Si Si5 0.810281 0.825849 0.376721
Si Si6 0.310339 0.175137 0.833462
Si Si7 0.500000 0.674977 0.232694
O O1 0.250000 0.750000 0.500000
O O2 0.161644 0.785359 0.560725
O O3 0.203799 0.000000 0.500000
O O4 0.091807 0.500000 0.075545
O O5 0.158738 0.717978 0.107631
O O6 0.055064 0.770425 0.071626
O O7 0.133178 0.691368 0.000000
O O8 0.145837 0.227124 0.671248
O O9 0.154173 0.261382 0.781297
O O10 0.055949 0.226614 0.733576
O O11 0.127934 0.000000 0.742423
O O12 0.000000 0.757919 0.168778
O O13 0.000000 0.000000 0.104666
O O14 0.750000 0.750000 0.367122
O O15 0.799395 0.000000 0.371332
O O16 0.250000 0.250000 0.834371
O O17 0.303198 0.000000 0.825679
O O18 0.500000 0.500000 0.227032
#
# Coordination Sequence:
#
# PCOD8269298 Si02
#       7
#     8  16  16   8  16  16   8
#     4   8  14  26  42  67  97 129 165 202 239 284
#     4  10  22  39  56  75 102 134 165 202 251 302
#     4  10  19  34  53  74 100 133 167 205 250 297
#     4  11  20  34  57  82 103 128 165 209 250 295
#     4   9  17  28  47  71 100 132 165 202 245 291
#     4  11  23  37  54  75 100 131 165 204 249 300
#     4   9  18  32  52  74 100 129 161 202 249 293
#
# _framework density 17.612044000000001
#
# number of rings (size 3 to 8) (size 9 to 14) (size 15 to 20)
#    0.000    2.182    1.818    1.636    0.000    4.727 
#    0.000    0.455    0.000    0.545    0.000    3.818 
#    0.000    0.000    0.000   15.000    0.000   11.091 
#
# Total GULP energy -545370.159178 kJ/mol
# GULP energy per Si atom -12394.776345 kJ/mol
# Density = 1.757196 g / cm^3
# Si number density = 17.612044 Si / 1000 Ang^3
#
#
#
# Elastic Constant Matrix: (Units=GPa)
#
#
# Indices 1 2 3 4 5 6 
#
# 1 136.9093 40.1770 81.3794 0.0000 0.0000 0.0000
# 2 40.1770 45.6200 39.2269 0.0000 0.0000 0.0000
# 3 81.3794 39.2269 178.1837 0.0000 0.0000 0.0000
# 4 0.0000 0.0000 0.0000 21.5720 0.0000 0.0000
# 5 0.0000 0.0000 0.0000 0.0000 28.2223 0.0000
# 6 0.0000 0.0000 0.0000 0.0000 0.0000 78.4333
#
#
#
# Elastic Compliance Matrix: (Units=1/GPa)
#
#
# Indices 1 2 3 4 5 6 
#
# 1 0.011582 -0.006971 -0.003755 0.000000 0.000000 0.000000
# 2 -0.006971 0.031235 -0.003692 0.000000 0.000000 0.000000
# 3 -0.003755 -0.003692 0.008140 0.000000 0.000000 0.000000
# 4 0.000000 0.000000 0.000000 0.046356 0.000000 0.000000
# 5 0.000000 0.000000 0.000000 0.000000 0.035433 0.000000
# 6 0.000000 0.000000 0.000000 0.000000 0.000000 0.012750
#
#
# Mechanical properties :
#
#
# Convention : Reuss Voigt Hill
#
# Bulk Modulus (GPa) = 45.20921 75.80883 60.50902
# Shear Modulus (GPa) = 27.51704 38.97418 33.24561
#
# Velocity S-wave (km/s) = 3.95701 4.70928 4.34944
# Velocity P-wave (km/s) = 6.82660 8.52684 7.72364
#
# Compressibility (1/GPa) = 0.02211939
#
# Stress axis : x y z
#
# Youngs Moduli (GPa) = 86.34253 32.01571 122.85059
#
# Poissons Ratio (x) = 0.22319 0.46129
# Poissons Ratio (y) = 0.60192 0.45361
# Poissons Ratio (z) = 0.32421 0.11821
#
# Static dielectric constant tensor:
#      x y z
#    x 3.349650 0.000000 0.000000 
#    y 0.000000 3.631150 0.000000 
#    z 0.000000 0.000000 3.856500 
# 
# 
# High freq. dielectric constant tensor:
#      x y z
#    x 1.663230 0.000000 0.000000 
#    y 0.000000 1.673800 0.000000 
#    z 0.000000 0.000000 1.696970 
# 
# From -- ./inp_files/65265.got.cif
#   From: 2010.03.12/outbox.cif.g09.slc.cpg/sg65_33_cif.got.tgz:65265.got - 2010.04.10 20:52:16.
