data_PCOD8269900
_publ_section_title
;
Structure prediction by ZEFSAII (Michael W. Deem and Ramdas Pophale) SiO2 
 PCOD8269900
Probable space group: C M M M
;
_chemical_formula_sum "Si O2"
_cell_formula_units_Z 88
_cell_length_a 29.848471
_cell_length_b 18.497461
_cell_length_c 8.937235
_cell_angle_alpha 90.000000
_cell_angle_beta 90.000000
_cell_angle_gamma 90.000000
_cell_volume 4934.434484
_symmetry_space_group_name_H-M "C M M M"
_symmetry_group_IT_number 65
_symmetry_cell_setting 'orthorhombic'
loop_
_space_group_symop_operation_xyz
x,y,z
-x,-y,z
x,-y,-z
-x,y,-z
-x,-y,-z
x,y,-z
-x,y,z
x,-y,z
1/2+x,1/2+y,z
1/2-x,1/2-y,z
1/2+x,1/2-y,-z
1/2-x,1/2+y,-z
1/2-x,1/2-y,-z
1/2+x,1/2+y,-z
1/2-x,1/2+y,z
1/2+x,1/2-y,z
loop_
_atom_site_type_symbol
_atom_site_label
_atom_site_fract_x
_atom_site_fract_y
_atom_site_fract_z
Si Si1 0.844409 0.000000 0.331308
Si Si2 0.262193 0.000000 0.331484
Si Si3 0.158832 0.288094 0.322593
Si Si4 0.236542 0.642823 0.826342
Si Si5 0.658015 0.354988 0.826228
Si Si6 0.500000 0.915150 0.662001
Si Si7 0.903534 0.581330 0.678796
O O1 0.791097 0.000000 0.332379
O O2 0.861733 0.071632 0.246022
O O3 0.863380 0.000000 0.500000
O O4 0.281401 0.931309 0.245172
O O5 0.281668 0.000000 0.500000
O O6 0.160658 0.281881 0.500000
O O7 0.209277 0.293677 0.256419
O O8 0.136711 0.214891 0.255736
O O9 0.131168 0.357948 0.265520
O O10 0.289015 0.649580 0.798985
O O11 0.224515 0.645791 0.000000
O O12 0.645347 0.354769 0.000000
O O13 0.500000 0.875754 0.500000
O O14 0.547056 0.896325 0.745387
O O15 0.500000 0.000000 0.634965
O O16 0.906599 0.581765 0.500000
O O17 0.889428 0.500000 0.732604
#
# Coordination Sequence:
#
# PCOD8269900 Si02
#       7
#     8   8  16  16  16   8  16
#     4   9  17  31  51  69  83 104 145 194 235 273
#     4   9  17  29  45  63  81 106 145 192 233 271
#     4  11  21  29  43  67  94 119 151 196 237 272
#     4  10  20  32  44  59  83 120 159 193 230 277
#     4  10  20  34  48  62  86 121 158 193 232 278
#     4   7  10  22  44  64  87 120 153 184 226 278
#     4   8  15  27  43  66  94 123 154 191 233 274
#
# _framework density 17.833857999999999
#
# number of rings (size 3 to 8) (size 9 to 14) (size 15 to 20)
#    0.000    2.636    0.000    3.818    1.273    6.545 
#    0.000    0.000    0.000    0.000    0.000    2.545 
#    0.000    9.455    0.000    8.545    0.000    1.636 
#
# Total GULP energy -545248.248522 kJ/mol
# GULP energy per Si atom -12392.005648 kJ/mol
# Density = 1.779327 g / cm^3
# Si number density = 17.833858 Si / 1000 Ang^3
#
#
#
# Elastic Constant Matrix: (Units=GPa)
#
#
# Indices 1 2 3 4 5 6 
#
# 1 32.8852 16.1702 16.1903 0.0000 0.0000 0.0000
# 2 16.1702 136.1614 50.6244 0.0000 0.0000 0.0000
# 3 16.1903 50.6244 85.2157 0.0000 0.0000 0.0000
# 4 0.0000 0.0000 0.0000 30.6430 0.0000 0.0000
# 5 0.0000 0.0000 0.0000 0.0000 3.9016 0.0000
# 6 0.0000 0.0000 0.0000 0.0000 0.0000 7.3144
#
#
#
# Elastic Compliance Matrix: (Units=1/GPa)
#
#
# Indices 1 2 3 4 5 6 
#
# 1 0.034008 -0.002100 -0.005214 0.000000 0.000000 0.000000
# 2 -0.002100 0.009556 -0.005278 0.000000 0.000000 0.000000
# 3 -0.005214 -0.005278 0.015861 0.000000 0.000000 0.000000
# 4 0.000000 0.000000 0.000000 0.032634 0.000000 0.000000
# 5 0.000000 0.000000 0.000000 0.000000 0.256307 0.000000
# 6 0.000000 0.000000 0.000000 0.000000 0.000000 0.136717
#
#
# Mechanical properties :
#
#
# Convention : Reuss Voigt Hill
#
# Bulk Modulus (GPa) = 29.20420 46.69245 37.94832
# Shear Modulus (GPa) = 9.58440 19.79028 14.68734
#
# Velocity S-wave (km/s) = 2.32076 3.33483 2.87290
# Velocity P-wave (km/s) = 4.85721 6.40835 5.68592
#
# Compressibility (1/GPa) = 0.03424165
#
# Stress axis : x y z
#
# Youngs Moduli (GPa) = 29.40448 104.64672 63.04803
#
# Poissons Ratio (x) = 0.21980 0.32871
# Poissons Ratio (y) = 0.06176 0.33276
# Poissons Ratio (z) = 0.15330 0.55231
#
# Static dielectric constant tensor:
#      x y z
#    x 3.128370 0.000000 0.000000 
#    y 0.000000 3.489490 0.000000 
#    z 0.000000 0.000000 3.117780 
# 
# 
# High freq. dielectric constant tensor:
#      x y z
#    x 1.633100 0.000000 0.000000 
#    y 0.000000 1.697340 0.000000 
#    z 0.000000 0.000000 1.673000 
# 
# From -- ./inp_files/18360.got.cif
#   From: 2010.03.12/outbox.cif.g09.slc.cpg/sg65_10_cif.got.tgz:18360.got - 2010.04.10 20:52:16.
