data_PCOD8269083
_publ_section_title
;
Structure prediction by ZEFSAII (Michael W. Deem and Ramdas Pophale) SiO2 
 PCOD8269083
Probable space group: C M M M
;
_chemical_formula_sum "Si O2"
_cell_formula_units_Z 104
_cell_length_a 8.700098
_cell_length_b 19.470339
_cell_length_c 33.004335
_cell_angle_alpha 90.000000
_cell_angle_beta 90.000000
_cell_angle_gamma 90.000000
_cell_volume 5590.731616
_symmetry_space_group_name_H-M "C M M M"
_symmetry_group_IT_number 65
_symmetry_cell_setting 'orthorhombic'
loop_
_space_group_symop_operation_xyz
x,y,z
-x,-y,z
x,-y,-z
-x,y,-z
-x,-y,-z
x,y,-z
-x,y,z
x,-y,z
1/2+x,1/2+y,z
1/2-x,1/2-y,z
1/2+x,1/2-y,-z
1/2-x,1/2+y,-z
1/2-x,1/2-y,-z
1/2+x,1/2+y,-z
1/2-x,1/2+y,z
1/2+x,1/2-y,z
loop_
_atom_site_type_symbol
_atom_site_label
_atom_site_fract_x
_atom_site_fract_y
_atom_site_fract_z
Si Si1 0.675907 0.079742 0.546413
Si Si2 0.320895 0.920883 0.844001
Si Si3 0.179644 0.822086 0.608900
Si Si4 0.680838 0.177084 0.694281
Si Si5 0.322330 0.419786 0.240524
Si Si6 0.818087 0.173810 0.912120
Si Si7 0.177325 0.176996 0.000000
O O1 0.712173 0.098527 0.500000
O O2 0.500000 0.098357 0.556830
O O3 0.790050 0.121877 0.574624
O O4 0.706874 0.000000 0.554340
O O5 0.500000 0.908388 0.836262
O O6 0.229872 0.897118 0.804132
O O7 0.264002 0.876020 0.881108
O O8 0.285202 0.000000 0.854162
O O9 0.250000 0.750000 0.594502
O O10 0.253512 0.846698 0.651025
O O11 0.000000 0.812851 0.615627
O O12 0.500000 0.184875 0.690691
O O13 0.750000 0.250000 0.707822
O O14 0.721492 0.119926 0.726934
O O15 0.500000 0.400753 0.246227
O O16 0.290957 0.500000 0.247139
O O17 0.750000 0.250000 0.907536
O O18 0.779546 0.141187 0.957053
O O19 0.000000 0.176102 0.903852
O O20 0.250000 0.250000 0.000000
O O21 0.000000 0.192031 0.000000
#
# Coordination Sequence:
#
# PCOD8269083 Si02
#       7
#    16  16  16  16  16  16   8
#     4   9  19  37  59  82 110 144 182 225 272 320
#     4  10  21  37  55  77 107 141 177 218 265 315
#     4  11  22  37  57  81 111 145 182 223 268 319
#     4  11  22  38  59  82 111 143 178 221 268 317
#     4  10  21  38  59  82 108 139 177 219 264 316
#     4  10  19  33  54  79 106 137 176 219 265 315
#     4   8  16  30  49  74 103 135 171 215 263 312
#
# _framework density 18.602217
#
# number of rings (size 3 to 8) (size 9 to 14) (size 15 to 20)
#    0.000    2.000    0.000    5.538    0.000    4.615 
#    0.000    4.231    0.000    2.308    0.000    0.000 
#    0.000    0.000    0.000    0.000    0.000    0.000 
#
# Total GULP energy -644759.400645 kJ/mol
# GULP energy per Si atom -12399.219243 kJ/mol
# Density = 1.855988 g / cm^3
# Si number density = 18.602217 Si / 1000 Ang^3
#
#
#
# Elastic Constant Matrix: (Units=GPa)
#
#
# Indices 1 2 3 4 5 6 
#
# 1 114.2916 41.1528 50.0585 0.0000 0.0000 0.0000
# 2 41.1528 70.0893 66.1772 0.0000 0.0000 0.0000
# 3 50.0585 66.1772 124.5201 0.0000 0.0000 0.0000
# 4 0.0000 0.0000 0.0000 46.1507 0.0000 0.0000
# 5 0.0000 0.0000 0.0000 0.0000 32.2432 0.0000
# 6 0.0000 0.0000 0.0000 0.0000 0.0000 31.0013
#
#
#
# Elastic Compliance Matrix: (Units=1/GPa)
#
#
# Indices 1 2 3 4 5 6 
#
# 1 0.011350 -0.004729 -0.002050 0.000000 0.000000 0.000000
# 2 -0.004729 0.030608 -0.014366 0.000000 0.000000 0.000000
# 3 -0.002050 -0.014366 0.016490 0.000000 0.000000 0.000000
# 4 0.000000 0.000000 0.000000 0.021668 0.000000 0.000000
# 5 0.000000 0.000000 0.000000 0.000000 0.031014 0.000000
# 6 0.000000 0.000000 0.000000 0.000000 0.000000 0.032257
#
#
# Mechanical properties :
#
#
# Convention : Reuss Voigt Hill
#
# Bulk Modulus (GPa) = 61.88505 69.29756 65.59131
# Shear Modulus (GPa) = 26.16950 31.97987 29.07468
#
# Velocity S-wave (km/s) = 3.75480 4.15075 3.95773
# Velocity P-wave (km/s) = 7.22065 7.76562 7.49809
#
# Compressibility (1/GPa) = 0.01615899
#
# Stress axis : x y z
#
# Youngs Moduli (GPa) = 88.10575 32.67104 60.64410
#
# Poissons Ratio (x) = 0.15450 0.12430
# Poissons Ratio (y) = 0.41665 0.87120
# Poissons Ratio (z) = 0.18058 0.46935
#
# Static dielectric constant tensor:
#      x y z
#    x 3.529350 0.000000 0.000000 
#    y 0.000000 3.255570 0.000000 
#    z 0.000000 0.000000 3.593590 
# 
# 
# High freq. dielectric constant tensor:
#      x y z
#    x 1.736780 0.000000 0.000000 
#    y 0.000000 1.707230 0.000000 
#    z 0.000000 0.000000 1.735170 
# 
# From -- ./inp_files/73341.got.cif
#   From: 2010.03.12/outbox.cif.g09.slc.cpg/sg65_37_cif.got.tgz:73341.got - 2010.04.10 20:52:16.
