data_PCOD8269530
_publ_section_title
;
Structure prediction by ZEFSAII (Michael W. Deem and Ramdas Pophale) SiO2 
 PCOD8269530
Probable space group: C M M M
;
_chemical_formula_sum "Si O2"
_cell_formula_units_Z 112
_cell_length_a 15.302070
_cell_length_b 25.346150
_cell_length_c 13.924237
_cell_angle_alpha 90.000000
_cell_angle_beta 90.000000
_cell_angle_gamma 90.000000
_cell_volume 5400.495291
_symmetry_space_group_name_H-M "C M M M"
_symmetry_group_IT_number 65
_symmetry_cell_setting 'orthorhombic'
loop_
_space_group_symop_operation_xyz
x,y,z
-x,-y,z
x,-y,-z
-x,y,-z
-x,-y,-z
x,y,-z
-x,y,z
x,-y,z
1/2+x,1/2+y,z
1/2-x,1/2-y,z
1/2+x,1/2-y,-z
1/2-x,1/2+y,-z
1/2-x,1/2-y,-z
1/2+x,1/2+y,-z
1/2-x,1/2+y,z
1/2+x,1/2-y,z
loop_
_atom_site_type_symbol
_atom_site_label
_atom_site_fract_x
_atom_site_fract_y
_atom_site_fract_z
Si Si1 0.242349 0.098492 0.112403
Si Si2 0.645582 0.251285 0.701632
Si Si3 0.170651 0.787579 0.896858
Si Si4 0.403504 0.441700 0.239583
Si Si5 0.650324 0.357235 0.392648
Si Si6 0.357477 0.142914 0.610026
Si Si7 0.098815 0.439081 0.236357
O O1 0.211786 0.157288 0.138294
O O2 0.167648 0.061107 0.155175
O O3 0.336188 0.087377 0.159903
O O4 0.252020 0.087948 0.000000
O O5 0.750000 0.250000 0.706690
O O6 0.610872 0.263955 0.810601
O O7 0.615205 0.298827 0.632995
O O8 0.607394 0.196403 0.661636
O O9 0.250000 0.750000 0.918728
O O10 0.119486 0.794025 0.000000
O O11 0.500000 0.432177 0.194810
O O12 0.396717 0.500000 0.285062
O O13 0.390211 0.400544 0.324214
O O14 0.619521 0.370146 0.500000
O O15 0.753964 0.359182 0.383393
O O16 0.389857 0.142726 0.500000
O O17 0.396353 0.091836 0.662682
O O18 0.124925 0.500000 0.254586
O O19 0.000000 0.435164 0.195897
#
# Coordination Sequence:
#
# PCOD8269530 Si02
#       7
#    16  16  16  16  16  16  16
#     4  11  22  41  67  92 122 160 203 250 302 364
#     4   9  15  30  55  86 125 155 195 249 301 357
#     4   9  16  28  56  92 121 156 198 237 294 363
#     4  11  24  41  60  86 122 159 200 251 302 356
#     4  10  19  34  59  88 119 160 205 248 303 365
#     4  10  20  35  60  91 122 162 207 251 305 364
#     4  11  24  41  61  88 123 161 205 258 312 364
#
# _framework density 20.738838000000001
#
# number of rings (size 3 to 8) (size 9 to 14) (size 15 to 20)
#    0.000    1.857    2.857    2.571    0.000    4.571 
#    0.000    5.000    0.000    1.714    0.000    4.000 
#    0.000    0.000    0.000    0.000    0.000    0.000 
#
# Total GULP energy -694139.094259 kJ/mol
# GULP energy per Si atom -12395.340969 kJ/mol
# Density = 2.069164 g / cm^3
# Si number density = 20.738838 Si / 1000 Ang^3
#
#
#
# Elastic Constant Matrix: (Units=GPa)
#
#
# Indices 1 2 3 4 5 6 
#
# 1 70.9176 20.2306 43.1782 0.0000 0.0000 0.0000
# 2 20.2306 130.5962 59.5744 0.0000 0.0000 0.0000
# 3 43.1782 59.5744 150.9893 0.0000 0.0000 0.0000
# 4 0.0000 0.0000 0.0000 19.7247 0.0000 0.0000
# 5 0.0000 0.0000 0.0000 0.0000 6.0639 0.0000
# 6 0.0000 0.0000 0.0000 0.0000 0.0000 -10.9238
#
#
#
# Elastic Compliance Matrix: (Units=1/GPa)
#
#
# Indices 1 2 3 4 5 6 
#
# 1 0.017101 -0.000510 -0.004689 0.000000 0.000000 0.000000
# 2 -0.000510 0.009353 -0.003544 0.000000 0.000000 0.000000
# 3 -0.004689 -0.003544 0.009362 0.000000 0.000000 0.000000
# 4 0.000000 0.000000 0.000000 0.050698 0.000000 0.000000
# 5 0.000000 0.000000 0.000000 0.000000 0.164910 0.000000
# 6 0.000000 0.000000 0.000000 0.000000 0.000000 -0.091544
#
#
# Mechanical properties :
#
#
# Convention : Reuss Voigt Hill
#
# Bulk Modulus (GPa) = 54.55715 66.49660 60.52687
# Shear Modulus (GPa) = 27.25105 18.27429 22.76267
#
# Velocity S-wave (km/s) = 3.62886 2.97166 3.31658
# Velocity P-wave (km/s) = 6.62737 6.62629 6.62683
#
# Compressibility (1/GPa) = 0.01832940
#
# Stress axis : x y z
#
# Youngs Moduli (GPa) = 58.47476 106.91635 106.80945
#
# Poissons Ratio (x) = 0.05454 0.50085
# Poissons Ratio (y) = 0.02983 0.37859
# Poissons Ratio (z) = 0.27420 0.37896
#
# Static dielectric constant tensor:
#      x y z
#    x 3.457780 0.000000 0.000000 
#    y 0.000000 13.358490 0.000000 
#    z 0.000000 0.000000 4.067240 
# 
# 
# High freq. dielectric constant tensor:
#      x y z
#    x 1.780410 0.000000 0.000000 
#    y 0.000000 1.825460 0.000000 
#    z 0.000000 0.000000 1.816970 
# 
# From -- ./inp_files/40754.got.cif
#   From: 2010.03.12/outbox.cif.g09.slc.cpg/sg65_21_cif.got.tgz:40754.got - 2010.04.10 20:52:16.
