data_PCOD8269280
_publ_section_title
;
Structure prediction by ZEFSAII (Michael W. Deem and Ramdas Pophale) SiO2 
 PCOD8269280
Probable space group: C M M M
;
_chemical_formula_sum "Si O2"
_cell_formula_units_Z 96
_cell_length_a 30.534755
_cell_length_b 19.531902
_cell_length_c 9.241479
_cell_angle_alpha 90.000000
_cell_angle_beta 90.000000
_cell_angle_gamma 90.000000
_cell_volume 5511.635101
_symmetry_space_group_name_H-M "C M M M"
_symmetry_group_IT_number 65
_symmetry_cell_setting 'orthorhombic'
loop_
_space_group_symop_operation_xyz
x,y,z
-x,-y,z
x,-y,-z
-x,y,-z
-x,-y,-z
x,y,-z
-x,y,z
x,-y,z
1/2+x,1/2+y,z
1/2-x,1/2-y,z
1/2+x,1/2-y,-z
1/2-x,1/2+y,-z
1/2-x,1/2-y,-z
1/2+x,1/2+y,-z
1/2-x,1/2+y,z
1/2+x,1/2-y,z
loop_
_atom_site_type_symbol
_atom_site_label
_atom_site_fract_x
_atom_site_fract_y
_atom_site_fract_z
Si Si1 0.208283 0.204864 0.669717
Si Si2 0.123607 0.708402 0.333384
Si Si3 0.173606 0.576482 0.335995
Si Si4 0.761929 0.922292 0.169776
Si Si5 0.448054 0.572165 0.161476
Si Si6 0.950214 0.219298 0.172503
O O1 0.210682 0.189865 0.500000
O O2 0.250000 0.250000 0.719065
O O3 0.164650 0.245270 0.713706
O O4 0.206473 0.132244 0.752701
O O5 0.111886 0.721085 0.500000
O O6 0.134772 0.629176 0.302095
O O7 0.081079 0.723703 0.238543
O O8 0.191138 0.589056 0.500000
O O9 0.154533 0.500000 0.318248
O O10 0.213047 0.589505 0.226959
O O11 0.777581 0.000000 0.205074
O O12 0.762280 0.908298 0.000000
O O13 0.500000 0.574834 0.151232
O O14 0.433583 0.500000 0.240893
O O15 0.433888 0.644284 0.234305
O O16 0.428439 0.569614 0.000000
O O17 0.000000 0.234876 0.221197
O O18 0.946854 0.219641 0.000000
#
# Coordination Sequence:
#
# PCOD8269280 Si02
#       6
#    16  16  16  16  16  16
#     4  10  19  34  52  72 100 134 170 205 245 301
#     4  10  20  33  51  76 100 126 165 209 251 297
#     4   9  17  32  53  73  96 129 167 206 249 299
#     4  10  20  32  48  74 105 135 169 208 250 295
#     4   7  10  20  41  66  88 113 151 195 232 272
#     4   9  18  32  50  73 100 131 166 203 250 305
#
# _framework density 17.4177
#
# number of rings (size 3 to 8) (size 9 to 14) (size 15 to 20)
#    0.000    2.833    1.667    2.000    0.000    3.000 
#    0.000    0.833    0.000    4.000    0.000    5.833 
#    0.000    0.000    0.000    0.000    0.000    0.000 
#
# Total GULP energy -594752.494867 kJ/mol
# GULP energy per Si atom -12390.676976 kJ/mol
# Density = 1.737806 g / cm^3
# Si number density = 17.417700 Si / 1000 Ang^3
#
#
#
# Elastic Constant Matrix: (Units=GPa)
#
#
# Indices 1 2 3 4 5 6 
#
# 1 77.4167 51.8192 29.5157 0.0000 0.0000 0.0000
# 2 51.8192 133.1634 43.9688 0.0000 0.0000 0.0000
# 3 29.5157 43.9688 45.8206 0.0000 0.0000 0.0000
# 4 0.0000 0.0000 0.0000 26.1964 0.0000 0.0000
# 5 0.0000 0.0000 0.0000 0.0000 24.6215 0.0000
# 6 0.0000 0.0000 0.0000 0.0000 0.0000 22.4003
#
#
#
# Elastic Compliance Matrix: (Units=1/GPa)
#
#
# Indices 1 2 3 4 5 6 
#
# 1 0.019108 -0.004935 -0.007573 0.000000 0.000000 0.000000
# 2 -0.004935 0.012267 -0.008592 0.000000 0.000000 0.000000
# 3 -0.007573 -0.008592 0.034947 0.000000 0.000000 0.000000
# 4 0.000000 0.000000 0.000000 0.038173 0.000000 0.000000
# 5 0.000000 0.000000 0.000000 0.000000 0.040615 0.000000
# 6 0.000000 0.000000 0.000000 0.000000 0.000000 0.044642
#
#
# Mechanical properties :
#
#
# Convention : Reuss Voigt Hill
#
# Bulk Modulus (GPa) = 41.45626 56.33424 48.89525
# Shear Modulus (GPa) = 20.83393 23.38344 22.10868
#
# Velocity S-wave (km/s) = 3.46227 3.66800 3.56662
# Velocity P-wave (km/s) = 6.31158 7.09594 6.71522
#
# Compressibility (1/GPa) = 0.02412181
#
# Stress axis : x y z
#
# Youngs Moduli (GPa) = 52.33517 81.51885 28.61453
#
# Poissons Ratio (x) = 0.40231 0.21669
# Poissons Ratio (y) = 0.25828 0.24586
# Poissons Ratio (z) = 0.39631 0.70044
#
# Static dielectric constant tensor:
#      x y z
#    x 2.879390 0.000000 0.000000 
#    y 0.000000 3.684070 0.000000 
#    z 0.000000 0.000000 3.017800 
# 
# 
# High freq. dielectric constant tensor:
#      x y z
#    x 1.634500 0.000000 0.000000 
#    y 0.000000 1.690240 0.000000 
#    z 0.000000 0.000000 1.647940 
# 
# From -- ./inp_files/16328.got.cif
#   From: 2010.03.12/outbox.cif.g09.slc.cpg/sg65_9_cif.got.tgz:16328.got - 2010.04.10 20:52:16.
