data_PCOD8269663
_publ_section_title
;
Structure prediction by ZEFSAII (Michael W. Deem and Ramdas Pophale) SiO2 
 PCOD8269663
Probable space group: C M M M
;
_chemical_formula_sum "Si O2"
_cell_formula_units_Z 128
_cell_length_a 17.564806
_cell_length_b 18.479339
_cell_length_c 20.729761
_cell_angle_alpha 90.000000
_cell_angle_beta 90.000000
_cell_angle_gamma 90.000000
_cell_volume 6728.590298
_symmetry_space_group_name_H-M "C M M M"
_symmetry_group_IT_number 65
_symmetry_cell_setting 'orthorhombic'
loop_
_space_group_symop_operation_xyz
x,y,z
-x,-y,z
x,-y,-z
-x,y,-z
-x,-y,-z
x,y,-z
-x,y,z
x,-y,z
1/2+x,1/2+y,z
1/2-x,1/2-y,z
1/2+x,1/2-y,-z
1/2-x,1/2+y,-z
1/2-x,1/2-y,-z
1/2+x,1/2+y,-z
1/2-x,1/2+y,z
1/2+x,1/2-y,z
loop_
_atom_site_type_symbol
_atom_site_label
_atom_site_fract_x
_atom_site_fract_y
_atom_site_fract_z
Si Si1 0.776225 0.666600 0.209285
Si Si2 0.413381 0.417327 0.903021
Si Si3 0.778171 0.825009 0.427482
Si Si4 0.368364 0.581378 0.241149
Si Si5 0.238095 0.164512 0.069369
Si Si6 0.868277 0.585162 0.572806
Si Si7 0.581854 0.326389 0.348610
Si Si8 0.085400 0.668277 0.697208
O O1 0.750000 0.750000 0.209348
O O2 0.711843 0.622541 0.246272
O O3 0.780833 0.636813 0.134465
O O4 0.855009 0.647812 0.246039
O O5 0.500000 0.396567 0.924983
O O6 0.394685 0.500000 0.925642
O O7 0.410268 0.413020 0.826513
O O8 0.351166 0.360514 0.930194
O O9 0.798564 0.805005 0.500000
O O10 0.750000 0.750000 0.393675
O O11 0.718213 0.889078 0.420621
O O12 0.855248 0.855037 0.397368
O O13 0.351377 0.500000 0.261475
O O14 0.426362 0.617221 0.290737
O O15 0.250000 0.250000 0.069012
O O16 0.271342 0.135297 0.000000
O O17 0.898659 0.606315 0.500000
O O18 0.872459 0.500000 0.581765
O O19 0.914279 0.620617 0.631613
O O20 0.500000 0.321050 0.383689
O O21 0.606612 0.249057 0.321594
O O22 0.000000 0.661977 0.726147
#
# Coordination Sequence:
#
# PCOD8269663 Si02
#       8
#    16  16  16  16  16  16  16  16
#     4  10  19  36  58  79 109 151 190 236 284 330
#     4   9  18  33  55  85 119 150 183 232 293 346
#     4  10  20  36  56  76 103 140 180 223 267 322
#     4  10  20  34  55  82 111 147 186 223 270 335
#     4   9  19  35  53  78 114 157 200 236 276 338
#     4  10  22  40  62  86 111 144 185 231 285 339
#     4  11  22  33  51  80 111 144 180 221 272 328
#     4  11  23  36  55  84 113 144 187 233 282 339
#
# _framework density 19.023301
#
# number of rings (size 3 to 8) (size 9 to 14) (size 15 to 20)
#    0.000    2.000    2.500    1.125    0.000    4.000 
#    0.000    2.500    0.000    1.125    0.000    2.625 
#    0.000    0.500    0.000   13.500    0.000    0.000 
#
# Total GULP energy -792859.364226 kJ/mol
# GULP energy per Si atom -12388.427566 kJ/mol
# Density = 1.898000 g / cm^3
# Si number density = 19.023301 Si / 1000 Ang^3
#
#
#
# Elastic Constant Matrix: (Units=GPa)
#
#
# Indices 1 2 3 4 5 6 
#
# 1 105.5350 26.2801 48.4026 0.0000 0.0000 0.0000
# 2 26.2801 92.5508 23.1576 0.0000 0.0000 0.0000
# 3 48.4026 23.1576 98.4593 0.0000 0.0000 0.0000
# 4 0.0000 0.0000 0.0000 49.9460 0.0000 0.0000
# 5 0.0000 0.0000 0.0000 0.0000 9.4513 0.0000
# 6 0.0000 0.0000 0.0000 0.0000 0.0000 4.5763
#
#
#
# Elastic Compliance Matrix: (Units=1/GPa)
#
#
# Indices 1 2 3 4 5 6 
#
# 1 0.012627 -0.002159 -0.005700 0.000000 0.000000 0.000000
# 2 -0.002159 0.011850 -0.001725 0.000000 0.000000 0.000000
# 3 -0.005700 -0.001725 0.013364 0.000000 0.000000 0.000000
# 4 0.000000 0.000000 0.000000 0.020022 0.000000 0.000000
# 5 0.000000 0.000000 0.000000 0.000000 0.105806 0.000000
# 6 0.000000 0.000000 0.000000 0.000000 0.000000 0.218518
#
#
# Mechanical properties :
#
#
# Convention : Reuss Voigt Hill
#
# Bulk Modulus (GPa) = 53.55558 54.69173 54.12365
# Shear Modulus (GPa) = 12.26753 26.04170 19.15462
#
# Velocity S-wave (km/s) = 2.54218 3.70393 3.17662
# Velocity P-wave (km/s) = 6.06883 6.86326 6.47823
#
# Compressibility (1/GPa) = 0.01867219
#
# Stress axis : x y z
#
# Youngs Moduli (GPa) = 79.19295 84.38968 74.82623
#
# Poissons Ratio (x) = 0.18223 0.42649
# Poissons Ratio (y) = 0.17101 0.12911
# Poissons Ratio (z) = 0.45138 0.14561
#
# Static dielectric constant tensor:
#      x y z
#    x 3.373020 0.000000 0.000000 
#    y 0.000000 3.475300 0.000000 
#    z 0.000000 0.000000 3.798730 
# 
# 
# High freq. dielectric constant tensor:
#      x y z
#    x 1.729370 0.000000 0.000000 
#    y 0.000000 1.725910 0.000000 
#    z 0.000000 0.000000 1.745020 
# 
# From -- ./inp_files/64097.got.cif
#   From: 2010.03.12/outbox.cif.g09.slc.cpg/sg65_33_cif.got.tgz:64097.got - 2010.04.10 20:52:16.
