data_PCOD8269904
_publ_section_title
;
Structure prediction by ZEFSAII (Michael W. Deem and Ramdas Pophale) SiO2 
 PCOD8269904
Probable space group: C M M M
;
_chemical_formula_sum "Si O2"
_cell_formula_units_Z 104
_cell_length_a 9.078520
_cell_length_b 28.126827
_cell_length_c 28.559580
_cell_angle_alpha 90.000000
_cell_angle_beta 90.000000
_cell_angle_gamma 90.000000
_cell_volume 7292.687652
_symmetry_space_group_name_H-M "C M M M"
_symmetry_group_IT_number 65
_symmetry_cell_setting 'orthorhombic'
loop_
_space_group_symop_operation_xyz
x,y,z
-x,-y,z
x,-y,-z
-x,y,-z
-x,-y,-z
x,y,-z
-x,y,z
x,-y,z
1/2+x,1/2+y,z
1/2-x,1/2-y,z
1/2+x,1/2-y,-z
1/2-x,1/2+y,-z
1/2-x,1/2-y,-z
1/2+x,1/2+y,-z
1/2-x,1/2+y,z
1/2+x,1/2-y,z
loop_
_atom_site_type_symbol
_atom_site_label
_atom_site_fract_x
_atom_site_fract_y
_atom_site_fract_z
Si Si1 0.165586 0.943480 0.448498
Si Si2 0.834581 0.556777 0.359000
Si Si3 0.671497 0.944118 0.824979
Si Si4 0.174028 0.898277 0.912313
Si Si5 0.167657 0.443747 0.000000
Si Si6 0.665550 0.556437 0.268410
Si Si7 0.328768 0.296333 0.053184
O O1 0.222327 0.926962 0.500000
O O2 0.269340 0.922782 0.407687
O O3 0.000000 0.924728 0.440194
O O4 0.165906 0.000000 0.446167
O O5 0.832581 0.500000 0.359079
O O6 0.738536 0.576637 0.315823
O O7 0.000000 0.576040 0.353633
O O8 0.500000 0.930819 0.827407
O O9 0.761098 0.915929 0.863774
O O10 0.735380 0.927214 0.775231
O O11 0.695966 0.000000 0.832884
O O12 0.248946 0.926424 0.954207
O O13 0.210725 0.842392 0.916239
O O14 0.000000 0.907832 0.914478
O O15 0.168346 0.500000 0.000000
O O16 0.000000 0.424486 0.000000
O O17 0.500000 0.576916 0.263538
O O18 0.660603 0.500000 0.270780
O O19 0.500000 0.285612 0.054059
O O20 0.250000 0.250000 0.074794
O O21 0.274435 0.305715 0.000000
#
# Coordination Sequence:
#
# PCOD8269904 Si02
#       7
#    16  16  16  16   8  16  16
#     4   8  13  20  28  38  54  77 105 138 178 225
#     4   9  15  21  30  44  61  81 107 143 185 226
#     4  10  20  32  44  60  82 105 131 162 194 230
#     4  11  21  34  49  66  86 107 132 159 190 230
#     4  11  23  35  46  63  86 111 138 163 188 223
#     4   9  16  26  39  52  66  89 121 153 187 226
#     4   9  18  33  50  69  88 105 128 157 188 225
#
# _framework density 14.260859999999999
#
# number of rings (size 3 to 8) (size 9 to 14) (size 15 to 20)
#    0.000    2.538    0.769    3.000    0.000    8.615 
#    0.000    1.538    0.000    0.000    0.000    0.000 
#    0.000    0.000    0.000    0.000    0.000    0.000 
#
# Total GULP energy -644666.181082 kJ/mol
# GULP energy per Si atom -12397.426559 kJ/mol
# Density = 1.422840 g / cm^3
# Si number density = 14.260860 Si / 1000 Ang^3
#
#
#
# Elastic Constant Matrix: (Units=GPa)
#
#
# Indices 1 2 3 4 5 6 
#
# 1 104.3292 32.4725 58.6083 0.0000 0.0000 0.0000
# 2 32.4725 38.6093 29.5238 0.0000 0.0000 0.0000
# 3 58.6083 29.5238 118.8107 0.0000 0.0000 0.0000
# 4 0.0000 0.0000 0.0000 -6.0720 0.0000 0.0000
# 5 0.0000 0.0000 0.0000 0.0000 26.9261 0.0000
# 6 0.0000 0.0000 0.0000 0.0000 0.0000 15.1409
#
#
#
# Elastic Compliance Matrix: (Units=1/GPa)
#
#
# Indices 1 2 3 4 5 6 
#
# 1 0.015346 -0.008788 -0.005386 0.000000 0.000000 0.000000
# 2 -0.008788 0.037009 -0.004861 0.000000 0.000000 0.000000
# 3 -0.005386 -0.004861 0.012282 0.000000 0.000000 0.000000
# 4 0.000000 0.000000 0.000000 -0.164690 0.000000 0.000000
# 5 0.000000 0.000000 0.000000 0.000000 0.037139 0.000000
# 6 0.000000 0.000000 0.000000 0.000000 0.000000 0.066046
#
#
# Mechanical properties :
#
#
# Convention : Reuss Voigt Hill
#
# Bulk Modulus (GPa) = 37.64295 55.88426 46.76361
# Shear Modulus (GPa) = 99.88053 16.60862 58.24457
#
# Velocity S-wave (km/s) = 8.37796 3.41637 6.39773
# Velocity P-wave (km/s) = 10.95629 7.40502 9.35079
#
# Compressibility (1/GPa) = 0.02656540
#
# Stress axis : x y z
#
# Youngs Moduli (GPa) = 65.16257 27.02020 81.42097
#
# Poissons Ratio (x) = 0.23746 0.43856
# Poissons Ratio (y) = 0.57266 0.39583
# Poissons Ratio (z) = 0.35099 0.13136
#
# Static dielectric constant tensor:
#      x y z
#    x 3.015580 0.000000 0.000000 
#    y 0.000000 2.344330 0.000000 
#    z 0.000000 0.000000 3.300850 
# 
# 
# High freq. dielectric constant tensor:
#      x y z
#    x 1.563030 0.000000 0.000000 
#    y 0.000000 1.470760 0.000000 
#    z 0.000000 0.000000 1.549830 
# 
# From -- ./inp_files/73598.got.cif
#   From: 2010.03.12/outbox.cif.g09.slc.cpg/sg65_37_cif.got.tgz:73598.got - 2010.04.10 20:52:16.
