data_PCOD8269437
_publ_section_title
;
Structure prediction by ZEFSAII (Michael W. Deem and Ramdas Pophale) SiO2 
 PCOD8269437
Probable space group: C M M M
;
_chemical_formula_sum "Si O2"
_cell_formula_units_Z 88
_cell_length_a 17.900960
_cell_length_b 28.329014
_cell_length_c 9.241596
_cell_angle_alpha 90.000000
_cell_angle_beta 90.000000
_cell_angle_gamma 90.000000
_cell_volume 4686.566247
_symmetry_space_group_name_H-M "C M M M"
_symmetry_group_IT_number 65
_symmetry_cell_setting 'orthorhombic'
loop_
_space_group_symop_operation_xyz
x,y,z
-x,-y,z
x,-y,-z
-x,y,-z
-x,-y,-z
x,y,-z
-x,y,z
x,-y,z
1/2+x,1/2+y,z
1/2-x,1/2-y,z
1/2+x,1/2-y,-z
1/2-x,1/2+y,-z
1/2-x,1/2-y,-z
1/2+x,1/2+y,-z
1/2-x,1/2+y,z
1/2+x,1/2-y,z
loop_
_atom_site_type_symbol
_atom_site_label
_atom_site_fract_x
_atom_site_fract_y
_atom_site_fract_z
Si Si1 0.180076 0.719365 0.330075
Si Si2 0.914560 0.555330 0.164158
Si Si3 0.856019 0.111035 0.828621
Si Si4 0.293443 0.887405 0.328651
Si Si5 0.086121 0.788043 0.835011
Si Si6 0.500000 0.446449 0.171940
O O1 0.169451 0.722369 0.500000
O O2 0.250000 0.750000 0.276013
O O3 0.190050 0.665929 0.278042
O O4 0.107026 0.742313 0.258566
O O5 0.903149 0.500000 0.185212
O O6 0.862871 0.581399 0.279058
O O7 0.000000 0.569499 0.196684
O O8 0.893398 0.569914 0.000000
O O9 0.781661 0.093561 0.747492
O O10 0.869156 0.165477 0.785179
O O11 0.925558 0.079817 0.771762
O O12 0.845574 0.104924 0.000000
O O13 0.283441 0.891303 0.500000
O O14 0.000000 0.799979 0.812874
O O15 0.104560 0.775803 0.000000
O O16 0.500000 0.500000 0.230569
O O17 0.500000 0.444985 0.000000
#
# Coordination Sequence:
#
# PCOD8269437 Si02
#       6
#    16  16  16  16  16   8
#     4  10  21  37  53  75 111 151 189 225 269 328
#     4   9  20  41  66  88 112 145 185 230 283 343
#     4  10  19  34  56  81 110 147 192 238 284 336
#     4  11  23  37  57  86 119 152 189 233 281 336
#     4  10  20  34  54  80 108 142 189 239 282 327
#     4   9  18  34  57  83 111 145 187 237 288 337
#
# _framework density 18.777073999999999
#
# number of rings (size 3 to 8) (size 9 to 14) (size 15 to 20)
#    0.000    2.091    2.727    1.091    0.000    4.364 
#    0.000    6.818    0.000    0.545    0.000    0.000 
#    0.000    0.000    0.000    0.000    0.000    0.000 
#
# Total GULP energy -545706.377170 kJ/mol
# GULP energy per Si atom -12402.417663 kJ/mol
# Density = 1.873434 g / cm^3
# Si number density = 18.777074 Si / 1000 Ang^3
#
#
#
# Elastic Constant Matrix: (Units=GPa)
#
#
# Indices 1 2 3 4 5 6 
#
# 1 111.5699 58.7073 44.0528 0.0000 0.0000 0.0000
# 2 58.7073 87.4817 36.8158 0.0000 0.0000 0.0000
# 3 44.0528 36.8158 48.3986 0.0000 0.0000 0.0000
# 4 0.0000 0.0000 0.0000 27.6277 0.0000 0.0000
# 5 0.0000 0.0000 0.0000 0.0000 19.4320 0.0000
# 6 0.0000 0.0000 0.0000 0.0000 0.0000 35.6984
#
#
#
# Elastic Compliance Matrix: (Units=1/GPa)
#
#
# Indices 1 2 3 4 5 6 
#
# 1 0.016448 -0.006968 -0.009671 0.000000 0.000000 0.000000
# 2 -0.006968 0.019765 -0.008693 0.000000 0.000000 0.000000
# 3 -0.009671 -0.008693 0.036076 0.000000 0.000000 0.000000
# 4 0.000000 0.000000 0.000000 0.036196 0.000000 0.000000
# 5 0.000000 0.000000 0.000000 0.000000 0.051461 0.000000
# 6 0.000000 0.000000 0.000000 0.000000 0.000000 0.028012
#
#
# Mechanical properties :
#
#
# Convention : Reuss Voigt Hill
#
# Bulk Modulus (GPa) = 46.23860 58.51135 52.37498
# Shear Modulus (GPa) = 20.33920 23.74324 22.04122
#
# Velocity S-wave (km/s) = 3.29476 3.55981 3.42985
# Velocity P-wave (km/s) = 6.25719 6.93722 6.60596
#
# Compressibility (1/GPa) = 0.02162695
#
# Stress axis : x y z
#
# Youngs Moduli (GPa) = 60.79784 50.59356 27.71900
#
# Poissons Ratio (x) = 0.35254 0.26806
# Poissons Ratio (y) = 0.42365 0.24095
# Poissons Ratio (z) = 0.58795 0.43979
#
# Static dielectric constant tensor:
#      x y z
#    x 3.440840 0.000000 0.000000 
#    y 0.000000 3.498550 0.000000 
#    z 0.000000 0.000000 3.194580 
# 
# 
# High freq. dielectric constant tensor:
#      x y z
#    x 1.737140 0.000000 0.000000 
#    y 0.000000 1.727830 0.000000 
#    z 0.000000 0.000000 1.711430 
# 
# From -- ./inp_files/10138.got.cif
#   From: 2010.03.12/outbox.cif.g09.slc.cpg/sg65_6_cif.got.tgz:10138.got - 2010.04.10 20:52:16.
