data_PCOD8269432
_publ_section_title
;
Structure prediction by ZEFSAII (Michael W. Deem and Ramdas Pophale) SiO2 
 PCOD8269432
Probable space group: C M M M
;
_chemical_formula_sum "Si O2"
_cell_formula_units_Z 104
_cell_length_a 21.736378
_cell_length_b 26.747023
_cell_length_c 10.092714
_cell_angle_alpha 90.000000
_cell_angle_beta 90.000000
_cell_angle_gamma 90.000000
_cell_volume 5867.736404
_symmetry_space_group_name_H-M "C M M M"
_symmetry_group_IT_number 65
_symmetry_cell_setting 'orthorhombic'
loop_
_space_group_symop_operation_xyz
x,y,z
-x,-y,z
x,-y,-z
-x,y,-z
-x,-y,-z
x,y,-z
-x,y,z
x,-y,z
1/2+x,1/2+y,z
1/2-x,1/2-y,z
1/2+x,1/2-y,-z
1/2-x,1/2+y,-z
1/2-x,1/2-y,-z
1/2+x,1/2+y,-z
1/2-x,1/2+y,z
1/2+x,1/2-y,z
loop_
_atom_site_type_symbol
_atom_site_label
_atom_site_fract_x
_atom_site_fract_y
_atom_site_fract_z
Si Si1 0.429284 0.702139 0.347992
Si Si2 0.000000 0.444493 0.842750
Si Si3 0.276285 0.058518 0.650303
Si Si4 0.124303 0.395430 0.154497
Si Si5 0.066460 0.057900 0.857597
Si Si6 0.354127 0.395347 0.351541
Si Si7 0.429477 0.209360 0.850078
O O1 0.421583 0.719454 0.500000
O O2 0.500000 0.684304 0.322613
O O3 0.379189 0.659580 0.312825
O O4 0.411981 0.747878 0.253388
O O5 0.060882 0.417840 0.790621
O O6 0.000000 0.500000 0.784936
O O7 0.000000 0.443281 0.000000
O O8 0.302256 0.062331 0.500000
O O9 0.323320 0.079991 0.756839
O O10 0.218420 0.096047 0.662947
O O11 0.260413 0.000000 0.681424
O O12 0.118367 0.335831 0.173563
O O13 0.136603 0.408800 0.000000
O O14 0.115856 0.065292 0.745184
O O15 0.000000 0.081631 0.818750
O O16 0.057775 0.000000 0.876051
O O17 0.087969 0.080771 0.000000
O O18 0.375962 0.407720 0.500000
O O19 0.500000 0.190886 0.829459
O O20 0.421814 0.229842 0.000000
#
# Coordination Sequence:
#
# PCOD8269432 Si02
#       7
#    16   8  16  16  16  16  16
#     4   9  18  32  52  79 106 132 171 220 265 310
#     4   9  16  28  51  81 107 129 161 209 258 305
#     4  10  22  38  53  73 105 142 178 217 262 311
#     4  10  19  34  56  81 105 134 173 213 257 313
#     4   9  18  31  47  71 102 131 164 214 272 322
#     4  10  20  35  53  72  99 139 183 222 258 303
#     4   9  17  32  54  80 108 135 166 209 262 317
#
# _framework density 17.724042000000001
#
# number of rings (size 3 to 8) (size 9 to 14) (size 15 to 20)
#    0.000    2.538    0.769    1.846    0.000    4.615 
#    0.000    3.462    0.000    6.000    0.000    0.000 
#    0.000    0.000    0.000    0.000    0.000    0.000 
#
# Total GULP energy -644358.171412 kJ/mol
# GULP energy per Si atom -12391.503296 kJ/mol
# Density = 1.768370 g / cm^3
# Si number density = 17.724042 Si / 1000 Ang^3
#
#
#
# Elastic Constant Matrix: (Units=GPa)
#
#
# Indices 1 2 3 4 5 6 
#
# 1 91.6006 51.3262 60.0978 0.0000 0.0000 0.0000
# 2 51.3262 97.1969 55.7642 0.0000 0.0000 0.0000
# 3 60.0978 55.7642 97.7731 0.0000 0.0000 0.0000
# 4 0.0000 0.0000 0.0000 29.8611 0.0000 0.0000
# 5 0.0000 0.0000 0.0000 0.0000 33.1547 0.0000
# 6 0.0000 0.0000 0.0000 0.0000 0.0000 27.7832
#
#
#
# Elastic Compliance Matrix: (Units=1/GPa)
#
#
# Indices 1 2 3 4 5 6 
#
# 1 0.019914 -0.005192 -0.009279 0.000000 0.000000 0.000000
# 2 -0.005192 0.016646 -0.006302 0.000000 0.000000 0.000000
# 3 -0.009279 -0.006302 0.019526 0.000000 0.000000 0.000000
# 4 0.000000 0.000000 0.000000 0.033488 0.000000 0.000000
# 5 0.000000 0.000000 0.000000 0.000000 0.030162 0.000000
# 6 0.000000 0.000000 0.000000 0.000000 0.000000 0.035993
#
#
# Mechanical properties :
#
#
# Convention : Reuss Voigt Hill
#
# Bulk Modulus (GPa) = 68.78355 68.99412 68.88883
# Shear Modulus (GPa) = 24.73732 26.11862 25.42797
#
# Velocity S-wave (km/s) = 3.73995 3.84295 3.79180
# Velocity P-wave (km/s) = 7.58564 7.66175 7.62379
#
# Compressibility (1/GPa) = 0.01453836
#
# Stress axis : x y z
#
# Youngs Moduli (GPa) = 50.21506 60.07400 51.21380
#
# Poissons Ratio (x) = 0.31192 0.47523
# Poissons Ratio (y) = 0.26073 0.32277
# Poissons Ratio (z) = 0.46596 0.37861
#
# Static dielectric constant tensor:
#      x y z
#    x 3.272520 0.000000 0.000000 
#    y 0.000000 3.205550 0.000000 
#    z 0.000000 0.000000 3.360040 
# 
# 
# High freq. dielectric constant tensor:
#      x y z
#    x 1.668960 0.000000 0.000000 
#    y 0.000000 1.678630 0.000000 
#    z 0.000000 0.000000 1.687930 
# 
# From -- ./inp_files/12763.got.cif
#   From: 2010.03.12/outbox.cif.g09.slc.cpg/sg65_7_cif.got.tgz:12763.got - 2010.04.10 20:52:16.
