data_PCOD8269254
_publ_section_title
;
Structure prediction by ZEFSAII (Michael W. Deem and Ramdas Pophale) SiO2 
 PCOD8269254
Probable space group: C M M M
;
_chemical_formula_sum "Si O2"
_cell_formula_units_Z 72
_cell_length_a 24.277002
_cell_length_b 9.168575
_cell_length_c 16.706166
_cell_angle_alpha 90.000000
_cell_angle_beta 90.000000
_cell_angle_gamma 90.000000
_cell_volume 3718.550540
_symmetry_space_group_name_H-M "C M M M"
_symmetry_group_IT_number 65
_symmetry_cell_setting 'orthorhombic'
loop_
_space_group_symop_operation_xyz
x,y,z
-x,-y,z
x,-y,-z
-x,y,-z
-x,-y,-z
x,y,-z
-x,y,z
x,-y,z
1/2+x,1/2+y,z
1/2-x,1/2-y,z
1/2+x,1/2-y,-z
1/2-x,1/2+y,-z
1/2-x,1/2-y,-z
1/2+x,1/2+y,-z
1/2-x,1/2+y,z
1/2+x,1/2-y,z
loop_
_atom_site_type_symbol
_atom_site_label
_atom_site_fract_x
_atom_site_fract_y
_atom_site_fract_z
Si Si1 0.000000 0.661158 0.735700
Si Si2 0.194658 0.668109 0.594042
Si Si3 0.691653 0.171398 0.000000
Si Si4 0.000000 0.257637 0.910325
Si Si5 0.620682 0.340597 0.118962
Si Si6 0.892102 0.167860 0.699807
O O1 0.050399 0.750803 0.701509
O O2 0.000000 0.500000 0.698038
O O3 0.000000 0.637067 0.832817
O O4 0.184396 0.680406 0.500000
O O5 0.198519 0.500000 0.621547
O O6 0.250000 0.750000 0.619979
O O7 0.144934 0.748479 0.636713
O O8 0.750000 0.250000 0.000000
O O9 0.655758 0.214934 0.076964
O O10 0.701359 0.000000 0.000000
O O11 0.055631 0.163346 0.901888
O O12 0.000000 0.332400 0.000000
O O13 0.641139 0.500000 0.090154
O O14 0.633938 0.322487 0.212191
O O15 0.899896 0.000000 0.673244
#
# Coordination Sequence:
#
# PCOD8269254 Si02
#       6
#     8  16   8   8  16  16
#     4  10  21  36  55  83 121 157 192 240 287 341
#     4  10  21  38  62  91 120 151 189 236 288 342
#     4  12  26  41  56  75 105 146 192 240 287 338
#     4  10  19  33  57  90 114 147 187 235 287 343
#     4  10  21  38  59  84 113 149 190 232 283 340
#     4  10  21  38  60  86 117 154 192 234 286 345
#
# _framework density 19.362382
#
# number of rings (size 3 to 8) (size 9 to 14) (size 15 to 20)
#    0.000    1.778    1.111    3.000    0.000   10.000 
#    0.000    0.556    0.000    3.333    0.000    0.000 
#    0.000    0.000    0.000    0.000    0.000    0.000 
#
# Total GULP energy -446229.746946 kJ/mol
# GULP energy per Si atom -12395.270748 kJ/mol
# Density = 1.931831 g / cm^3
# Si number density = 19.362382 Si / 1000 Ang^3
#
#
#
# Elastic Constant Matrix: (Units=GPa)
#
#
# Indices 1 2 3 4 5 6 
#
# 1 128.0768 79.7492 47.5526 0.0000 0.0000 0.0000
# 2 79.7492 191.9784 46.3947 0.0000 0.0000 0.0000
# 3 47.5526 46.3947 52.6558 0.0000 0.0000 0.0000
# 4 0.0000 0.0000 0.0000 27.6495 0.0000 0.0000
# 5 0.0000 0.0000 0.0000 0.0000 71.8055 0.0000
# 6 0.0000 0.0000 0.0000 0.0000 0.0000 30.9675
#
#
#
# Elastic Compliance Matrix: (Units=1/GPa)
#
#
# Indices 1 2 3 4 5 6 
#
# 1 0.013219 -0.003311 -0.009020 0.000000 0.000000 0.000000
# 2 -0.003311 0.007448 -0.003572 0.000000 0.000000 0.000000
# 3 -0.009020 -0.003572 0.030284 0.000000 0.000000 0.000000
# 4 0.000000 0.000000 0.000000 0.036167 0.000000 0.000000
# 5 0.000000 0.000000 0.000000 0.000000 0.013927 0.000000
# 6 0.000000 0.000000 0.000000 0.000000 0.000000 0.032292
#
#
# Mechanical properties :
#
#
# Convention : Reuss Voigt Hill
#
# Bulk Modulus (GPa) = 52.23459 80.01155 66.12307
# Shear Modulus (GPa) = 29.15065 39.35214 34.25139
#
# Velocity S-wave (km/s) = 3.88433 4.51311 4.21047
# Velocity P-wave (km/s) = 6.86682 8.28073 7.60670
#
# Compressibility (1/GPa) = 0.01914440
#
# Stress axis : x y z
#
# Youngs Moduli (GPa) = 75.65115 134.27142 33.02074
#
# Poissons Ratio (x) = 0.44461 0.29784
# Poissons Ratio (y) = 0.25050 0.11794
# Poissons Ratio (z) = 0.68237 0.47957
#
# Static dielectric constant tensor:
#      x y z
#    x 3.393910 0.000000 0.000000 
#    y 0.000000 3.596260 0.000000 
#    z 0.000000 0.000000 3.524070 
# 
# 
# High freq. dielectric constant tensor:
#      x y z
#    x 1.754100 0.000000 0.000000 
#    y 0.000000 1.762760 0.000000 
#    z 0.000000 0.000000 1.746280 
# 
# From -- ./inp_files/46530.got.cif
#   From: 2010.03.12/outbox.cif.g09.slc.cpg/sg65_24_cif.got.tgz:46530.got - 2010.04.10 20:52:16.
