data_PCOD8269583
_publ_section_title
;
Structure prediction by ZEFSAII (Michael W. Deem and Ramdas Pophale) SiO2 
 PCOD8269583
Probable space group: C M M M
;
_chemical_formula_sum "Si O2"
_cell_formula_units_Z 88
_cell_length_a 8.574291
_cell_length_b 25.768769
_cell_length_c 20.717205
_cell_angle_alpha 90.000000
_cell_angle_beta 90.000000
_cell_angle_gamma 90.000000
_cell_volume 4577.444155
_symmetry_space_group_name_H-M "C M M M"
_symmetry_group_IT_number 65
_symmetry_cell_setting 'orthorhombic'
loop_
_space_group_symop_operation_xyz
x,y,z
-x,-y,z
x,-y,-z
-x,y,-z
-x,-y,-z
x,y,-z
-x,y,z
x,-y,z
1/2+x,1/2+y,z
1/2-x,1/2-y,z
1/2+x,1/2-y,-z
1/2-x,1/2+y,-z
1/2-x,1/2-y,-z
1/2+x,1/2+y,-z
1/2-x,1/2+y,z
1/2+x,1/2-y,z
loop_
_atom_site_type_symbol
_atom_site_label
_atom_site_fract_x
_atom_site_fract_y
_atom_site_fract_z
Si Si1 0.680740 0.000000 0.148367
Si Si2 0.184922 0.694817 0.143102
Si Si3 0.180112 0.904392 0.075824
Si Si4 0.683618 0.195920 0.709205
Si Si5 0.314718 0.095719 0.636674
Si Si6 0.314430 0.058600 0.500000
Si Si7 0.181675 0.000000 0.712979
O O1 0.715729 0.948875 0.107384
O O2 0.787366 0.000000 0.211268
O O3 0.500000 0.000000 0.168559
O O4 0.250000 0.750000 0.118988
O O5 0.265334 0.651400 0.100133
O O6 0.235956 0.685553 0.217262
O O7 0.000000 0.692846 0.134272
O O8 0.000000 0.913464 0.093983
O O9 0.206959 0.906951 0.000000
O O10 0.500000 0.198632 0.704609
O O11 0.750000 0.250000 0.682880
O O12 0.750232 0.150115 0.664026
O O13 0.500000 0.094628 0.638161
O O14 0.252246 0.088101 0.563649
O O15 0.256558 0.050627 0.682526
O O16 0.500000 0.057031 0.500000
O O17 0.248487 0.000000 0.500000
O O18 0.000000 0.000000 0.698801
#
# Coordination Sequence:
#
# PCOD8269583 Si02
#       7
#     8  16  16  16  16   8   8
#     4  12  25  41  61  84 112 149 191 233 278 337
#     4  10  20  36  58  84 112 147 192 241 293 341
#     4  11  24  41  60  84 116 151 186 230 285 343
#     4   9  19  34  55  80 108 143 183 232 281 329
#     4  10  19  35  57  82 112 149 193 232 275 335
#     4   9  16  30  55  82 110 150 192 232 275 328
#     4  12  24  36  56  86 115 144 180 233 292 336
#
# _framework density 19.224702000000001
#
# number of rings (size 3 to 8) (size 9 to 14) (size 15 to 20)
#    0.000    1.727    0.909    4.091    0.000    5.818 
#    0.000    1.364    0.000    0.000    0.000    0.000 
#    0.000    0.000    0.000    0.000    0.000    0.000 
#
# Total GULP energy -545747.496875 kJ/mol
# GULP energy per Si atom -12403.352202 kJ/mol
# Density = 1.918095 g / cm^3
# Si number density = 19.224702 Si / 1000 Ang^3
#
#
#
# Elastic Constant Matrix: (Units=GPa)
#
#
# Indices 1 2 3 4 5 6 
#
# 1 23.0504 16.9267 17.9934 0.0000 0.0000 0.0000
# 2 16.9267 133.0301 51.9051 0.0000 0.0000 0.0000
# 3 17.9934 51.9051 97.1090 0.0000 0.0000 0.0000
# 4 0.0000 0.0000 0.0000 -29.2519 0.0000 0.0000
# 5 0.0000 0.0000 0.0000 0.0000 17.1342 0.0000
# 6 0.0000 0.0000 0.0000 0.0000 0.0000 28.6318
#
#
#
# Elastic Compliance Matrix: (Units=1/GPa)
#
#
# Indices 1 2 3 4 5 6 
#
# 1 0.052059 -0.003614 -0.007714 0.000000 0.000000 0.000000
# 2 -0.003614 0.009749 -0.004541 0.000000 0.000000 0.000000
# 3 -0.007714 -0.004541 0.014154 0.000000 0.000000 0.000000
# 4 0.000000 0.000000 0.000000 -0.034186 0.000000 0.000000
# 5 0.000000 0.000000 0.000000 0.000000 0.058363 0.000000
# 6 0.000000 0.000000 0.000000 0.000000 0.000000 0.034926
#
#
# Mechanical properties :
#
#
# Convention : Reuss Voigt Hill
#
# Bulk Modulus (GPa) = 22.61255 47.42665 35.01960
# Shear Modulus (GPa) = 27.54129 14.39377 20.96753
#
# Velocity S-wave (km/s) = 3.78908 2.73923 3.30609
# Velocity P-wave (km/s) = 5.56152 5.89302 5.72967
#
# Compressibility (1/GPa) = 0.04422324
#
# Stress axis : x y z
#
# Youngs Moduli (GPa) = 19.20893 102.57701 70.64972
#
# Poissons Ratio (x) = 0.37072 0.54502
# Poissons Ratio (y) = 0.06942 0.32083
# Poissons Ratio (z) = 0.14818 0.46581
#
# Static dielectric constant tensor:
#      x y z
#    x 3.415190 0.000000 0.000000 
#    y 0.000000 3.729920 0.000000 
#    z 0.000000 0.000000 3.710680 
# 
# 
# High freq. dielectric constant tensor:
#      x y z
#    x 1.739680 0.000000 0.000000 
#    y 0.000000 1.760390 0.000000 
#    z 0.000000 0.000000 1.749170 
# 
# From -- ./inp_files/59871.got.cif
#   From: 2010.03.12/outbox.cif.g09.slc.cpg/sg65_30_cif.got.tgz:59871.got - 2010.04.10 20:52:16.
