data_PCOD8269337
_publ_section_title
;
Structure prediction by ZEFSAII (Michael W. Deem and Ramdas Pophale) SiO2 
 PCOD8269337
Probable space group: C M M M
;
_chemical_formula_sum "Si O2"
_cell_formula_units_Z 88
_cell_length_a 8.671339
_cell_length_b 29.686533
_cell_length_c 17.434150
_cell_angle_alpha 90.000000
_cell_angle_beta 90.000000
_cell_angle_gamma 90.000000
_cell_volume 4487.933611
_symmetry_space_group_name_H-M "C M M M"
_symmetry_group_IT_number 65
_symmetry_cell_setting 'orthorhombic'
loop_
_space_group_symop_operation_xyz
x,y,z
-x,-y,z
x,-y,-z
-x,y,-z
-x,-y,-z
x,y,-z
-x,y,z
x,-y,z
1/2+x,1/2+y,z
1/2-x,1/2-y,z
1/2+x,1/2-y,-z
1/2-x,1/2+y,-z
1/2-x,1/2-y,-z
1/2+x,1/2+y,-z
1/2-x,1/2+y,z
1/2+x,1/2-y,z
loop_
_atom_site_type_symbol
_atom_site_label
_atom_site_fract_x
_atom_site_fract_y
_atom_site_fract_z
Si Si1 0.684901 0.448560 0.000000
Si Si2 0.683056 0.703980 0.194329
Si Si3 0.821965 0.673201 0.345259
Si Si4 0.676288 0.393486 0.856778
Si Si5 0.181925 0.000000 0.586981
Si Si6 0.677878 0.583193 0.310111
Si Si7 0.681060 0.298555 0.500000
O O1 0.752600 0.421407 0.073616
O O2 0.747839 0.500000 0.000000
O O3 0.500000 0.449955 0.000000
O O4 0.500000 0.705491 0.191811
O O5 0.750000 0.750000 0.155185
O O6 0.739182 0.704513 0.282501
O O7 0.746114 0.657505 0.154611
O O8 0.802276 0.621468 0.324151
O O9 0.738666 0.675934 0.425917
O O10 0.000000 0.687125 0.350644
O O11 0.500000 0.385168 0.878280
O O12 0.689502 0.425410 0.781384
O O13 0.235626 0.957556 0.637021
O O14 0.252640 0.000000 0.500000
O O15 0.000000 0.000000 0.579950
O O16 0.500000 0.596841 0.329960
O O17 0.500000 0.296376 0.500000
O O18 0.750000 0.250000 0.500000
#
# Coordination Sequence:
#
# PCOD8269337 Si02
#       7
#     8  16  16  16   8  16   8
#     4   9  16  26  47  78 111 143 177 223 280 327
#     4  10  19  34  54  77 106 141 180 220 269 325
#     4  11  22  36  53  76 105 139 180 223 271 324
#     4   8  16  29  46  74 109 142 175 221 273 326
#     4   9  18  30  49  76 102 136 184 230 274 324
#     4   9  18  33  52  75 105 141 181 226 275 326
#     4  12  24  38  54  75 104 137 174 220 271 322
#
# _framework density 19.608132999999999
#
# number of rings (size 3 to 8) (size 9 to 14) (size 15 to 20)
#    0.000    2.364    0.000    4.636    2.545    0.000 
#    0.000    0.909    0.000    0.545    0.000   15.273 
#    0.000   18.182    0.000    0.000    0.000    0.000 
#
# Total GULP energy -545176.939134 kJ/mol
# GULP energy per Si atom -12390.384980 kJ/mol
# Density = 1.956350 g / cm^3
# Si number density = 19.608133 Si / 1000 Ang^3
#
#
#
# Elastic Constant Matrix: (Units=GPa)
#
#
# Indices 1 2 3 4 5 6 
#
# 1 69.0308 20.1987 22.1563 0.0000 0.0000 0.0000
# 2 20.1987 133.2234 66.7315 0.0000 0.0000 0.0000
# 3 22.1563 66.7315 131.6460 0.0000 0.0000 0.0000
# 4 0.0000 0.0000 0.0000 27.5208 0.0000 0.0000
# 5 0.0000 0.0000 0.0000 0.0000 10.3133 0.0000
# 6 0.0000 0.0000 0.0000 0.0000 0.0000 24.1601
#
#
#
# Elastic Compliance Matrix: (Units=1/GPa)
#
#
# Indices 1 2 3 4 5 6 
#
# 1 0.015506 -0.001399 -0.001901 0.000000 0.000000 0.000000
# 2 -0.001399 0.010187 -0.004928 0.000000 0.000000 0.000000
# 3 -0.001901 -0.004928 0.010414 0.000000 0.000000 0.000000
# 4 0.000000 0.000000 0.000000 0.036336 0.000000 0.000000
# 5 0.000000 0.000000 0.000000 0.000000 0.096962 0.000000
# 6 0.000000 0.000000 0.000000 0.000000 0.000000 0.041391
#
#
# Mechanical properties :
#
#
# Convention : Reuss Voigt Hill
#
# Bulk Modulus (GPa) = 50.88755 61.34147 56.11451
# Shear Modulus (GPa) = 21.38566 27.38642 24.38604
#
# Velocity S-wave (km/s) = 3.30609 3.74128 3.53040
# Velocity P-wave (km/s) = 6.37042 7.07209 6.73041
#
# Compressibility (1/GPa) = 0.01965117
#
# Stress axis : x y z
#
# Youngs Moduli (GPa) = 64.49275 98.16567 96.02334
#
# Poissons Ratio (x) = 0.13733 0.18249
# Poissons Ratio (y) = 0.09022 0.47323
# Poissons Ratio (z) = 0.12257 0.48379
#
# Static dielectric constant tensor:
#      x y z
#    x 3.157160 0.000000 0.000000 
#    y 0.000000 3.823990 0.000000 
#    z 0.000000 0.000000 3.642500 
# 
# 
# High freq. dielectric constant tensor:
#      x y z
#    x 1.722790 0.000000 0.000000 
#    y 0.000000 1.770950 0.000000 
#    z 0.000000 0.000000 1.759030 
# 
# From -- ./inp_files/50545.got.cif
#   From: 2010.03.12/outbox.cif.g09.slc.cpg/sg65_26_cif.got.tgz:50545.got - 2010.04.10 20:52:16.
