data_PCOD8269107
_publ_section_title
;
Structure prediction by ZEFSAII (Michael W. Deem and Ramdas Pophale) SiO2 
 PCOD8269107
Probable space group: C M M M
;
_chemical_formula_sum "Si O2"
_cell_formula_units_Z 88
_cell_length_a 8.850296
_cell_length_b 28.849120
_cell_length_c 17.441231
_cell_angle_alpha 90.000000
_cell_angle_beta 90.000000
_cell_angle_gamma 90.000000
_cell_volume 4453.151806
_symmetry_space_group_name_H-M "C M M M"
_symmetry_group_IT_number 65
_symmetry_cell_setting 'orthorhombic'
loop_
_space_group_symop_operation_xyz
x,y,z
-x,-y,z
x,-y,-z
-x,y,-z
-x,-y,-z
x,y,-z
-x,y,z
x,-y,z
1/2+x,1/2+y,z
1/2-x,1/2-y,z
1/2+x,1/2-y,-z
1/2-x,1/2+y,-z
1/2-x,1/2-y,-z
1/2+x,1/2+y,-z
1/2-x,1/2+y,z
1/2+x,1/2-y,z
loop_
_atom_site_type_symbol
_atom_site_label
_atom_site_fract_x
_atom_site_fract_y
_atom_site_fract_z
Si Si1 0.667920 0.824872 0.349519
Si Si2 0.820799 0.000000 0.588635
Si Si3 0.667134 0.929304 0.698596
Si Si4 0.678681 0.295961 0.799910
Si Si5 0.821340 0.898292 0.153708
Si Si6 0.320436 0.447409 0.000000
Si Si7 0.821916 0.200140 0.500000
O O1 0.500000 0.803160 0.362195
O O2 0.650399 0.876782 0.323736
O O3 0.757286 0.795541 0.286328
O O4 0.765328 0.826862 0.426022
O O5 0.760353 0.954980 0.632591
O O6 0.764429 0.000000 0.500000
O O7 0.000000 0.000000 0.591467
O O8 0.500000 0.951662 0.706624
O O9 0.751563 0.930826 0.780202
O O10 0.500000 0.290760 0.798698
O O11 0.750000 0.250000 0.841090
O O12 0.727616 0.343909 0.841962
O O13 0.761829 0.919289 0.073921
O O14 0.000000 0.902067 0.162317
O O15 0.256321 0.500000 0.000000
O O16 0.500000 0.448845 0.000000
O O17 0.750000 0.250000 0.500000
O O18 0.000000 0.202908 0.500000
#
# Coordination Sequence:
#
# PCOD8269107 Si02
#       7
#    16   8  16  16  16   8   8
#     4  10  21  37  55  77 107 143 184 230 285 342
#     4  11  25  41  59  84 113 150 197 243 286 337
#     4  10  22  39  60  84 114 151 188 234 289 345
#     4  10  19  33  54  80 111 149 191 233 280 336
#     4   9  19  36  59  88 119 152 192 237 286 346
#     4   9  18  34  60  91 119 149 190 238 291 346
#     4  12  24  36  52  75 106 141 182 232 283 336
#
# _framework density 19.761285000000001
#
# number of rings (size 3 to 8) (size 9 to 14) (size 15 to 20)
#    0.000    2.000    0.000    3.273    2.545    3.636 
#    0.000    0.909    0.000    0.545    0.000    0.000 
#    0.000    0.000    0.000    0.000    0.000    0.000 
#
# Total GULP energy -545480.841750 kJ/mol
# GULP energy per Si atom -12397.291858 kJ/mol
# Density = 1.971631 g / cm^3
# Si number density = 19.761285 Si / 1000 Ang^3
#
#
#
# Elastic Constant Matrix: (Units=GPa)
#
#
# Indices 1 2 3 4 5 6 
#
# 1 100.5965 34.8224 48.3401 0.0000 0.0000 0.0000
# 2 34.8224 101.4634 57.1378 0.0000 0.0000 0.0000
# 3 48.3401 57.1378 156.1276 0.0000 0.0000 0.0000
# 4 0.0000 0.0000 0.0000 19.1577 0.0000 0.0000
# 5 0.0000 0.0000 0.0000 0.0000 17.0817 0.0000
# 6 0.0000 0.0000 0.0000 0.0000 0.0000 25.7803
#
#
#
# Elastic Compliance Matrix: (Units=1/GPa)
#
#
# Indices 1 2 3 4 5 6 
#
# 1 0.012197 -0.002594 -0.002827 0.000000 0.000000 0.000000
# 2 -0.002594 0.012966 -0.003942 0.000000 0.000000 0.000000
# 3 -0.002827 -0.003942 0.008723 0.000000 0.000000 0.000000
# 4 0.000000 0.000000 0.000000 0.052198 0.000000 0.000000
# 5 0.000000 0.000000 0.000000 0.000000 0.058542 0.000000
# 6 0.000000 0.000000 0.000000 0.000000 0.000000 0.038789
#
#
# Mechanical properties :
#
#
# Convention : Reuss Voigt Hill
#
# Bulk Modulus (GPa) = 65.96383 70.97648 68.47016
# Shear Modulus (GPa) = 24.13179 26.92974 25.53077
#
# Velocity S-wave (km/s) = 3.49831 3.69555 3.59828
# Velocity P-wave (km/s) = 7.05481 7.36236 7.21023
#
# Compressibility (1/GPa) = 0.01515982
#
# Stress axis : x y z
#
# Youngs Moduli (GPa) = 81.98602 77.12538 114.63962
#
# Poissons Ratio (x) = 0.20007 0.32410
# Poissons Ratio (y) = 0.21267 0.45190
# Poissons Ratio (z) = 0.23179 0.30402
#
# Static dielectric constant tensor:
#      x y z
#    x 4.373280 0.000000 0.000000 
#    y 0.000000 3.756260 0.000000 
#    z 0.000000 0.000000 3.458530 
# 
# 
# High freq. dielectric constant tensor:
#      x y z
#    x 1.771290 0.000000 0.000000 
#    y 0.000000 1.781420 0.000000 
#    z 0.000000 0.000000 1.757150 
# 
# From -- ./inp_files/50532.got.cif
#   From: 2010.03.12/outbox.cif.g09.slc.cpg/sg65_26_cif.got.tgz:50532.got - 2010.04.10 20:52:16.
