data_PCOD8269470
_publ_section_title
;
Structure prediction by ZEFSAII (Michael W. Deem and Ramdas Pophale) SiO2 
 PCOD8269470
Probable space group: C M M M
;
_chemical_formula_sum "Si O2"
_cell_formula_units_Z 80
_cell_length_a 8.810112
_cell_length_b 18.133479
_cell_length_c 26.121913
_cell_angle_alpha 90.000000
_cell_angle_beta 90.000000
_cell_angle_gamma 90.000000
_cell_volume 4173.184079
_symmetry_space_group_name_H-M "C M M M"
_symmetry_group_IT_number 65
_symmetry_cell_setting 'orthorhombic'
loop_
_space_group_symop_operation_xyz
x,y,z
-x,-y,z
x,-y,-z
-x,y,-z
-x,-y,-z
x,y,-z
-x,y,z
x,-y,z
1/2+x,1/2+y,z
1/2-x,1/2-y,z
1/2+x,1/2-y,-z
1/2-x,1/2+y,-z
1/2-x,1/2-y,-z
1/2+x,1/2+y,-z
1/2-x,1/2+y,z
1/2+x,1/2-y,z
loop_
_atom_site_type_symbol
_atom_site_label
_atom_site_fract_x
_atom_site_fract_y
_atom_site_fract_z
Si Si1 0.671689 0.413058 0.000000
Si Si2 0.823679 0.086597 0.594072
Si Si3 0.820690 0.331318 0.686270
Si Si4 0.174720 0.327534 0.797442
Si Si5 0.679470 0.830344 0.500000
Si Si6 0.179126 0.330626 0.091796
O O1 0.754484 0.385765 0.949371
O O2 0.678638 0.500000 0.000000
O O3 0.500000 0.383483 0.000000
O O4 0.760311 0.112628 0.648354
O O5 0.731162 0.126476 0.549964
O O6 0.000000 0.107428 0.589177
O O7 0.797439 0.000000 0.588722
O O8 0.750000 0.250000 0.680190
O O9 0.789181 0.367307 0.743167
O O10 0.000000 0.326304 0.674739
O O11 0.250000 0.250000 0.793816
O O12 0.221748 0.365298 0.851632
O O13 0.000000 0.309895 0.800800
O O14 0.500000 0.823111 0.500000
O O15 0.750000 0.750000 0.500000
O O16 0.250000 0.250000 0.084717
O O17 0.000000 0.324273 0.083563
#
# Coordination Sequence:
#
# PCOD8269470 Si02
#       6
#     8  16  16  16   8  16
#     4  11  24  39  52  71 103 141 180 223 272 325
#     4  11  24  41  59  82 115 151 186 226 272 321
#     4  10  19  34  57  84 114 146 183 224 267 318
#     4   8  16  30  51  80 109 138 174 220 268 314
#     4  12  25  42  65  89 113 143 183 228 275 326
#     4  10  19  34  57  82 107 137 177 222 270 323
#
# _framework density 19.170014999999999
#
# number of rings (size 3 to 8) (size 9 to 14) (size 15 to 20)
#    0.000    1.900    0.000    4.200    0.000    5.200 
#    0.000    1.000    0.000    6.000    0.000    0.000 
#    0.000    0.000    0.000    0.000    0.000    0.000 
#
# Total GULP energy -495646.350087 kJ/mol
# GULP energy per Si atom -12391.158752 kJ/mol
# Density = 1.912638 g / cm^3
# Si number density = 19.170015 Si / 1000 Ang^3
#
#
#
# Elastic Constant Matrix: (Units=GPa)
#
#
# Indices 1 2 3 4 5 6 
#
# 1 120.8793 51.9385 70.2449 0.0000 0.0000 0.0000
# 2 51.9385 70.9152 56.2267 0.0000 0.0000 0.0000
# 3 70.2449 56.2267 170.3793 0.0000 0.0000 0.0000
# 4 0.0000 0.0000 0.0000 -17.3937 0.0000 0.0000
# 5 0.0000 0.0000 0.0000 0.0000 37.5209 0.0000
# 6 0.0000 0.0000 0.0000 0.0000 0.0000 28.6420
#
#
#
# Elastic Compliance Matrix: (Units=1/GPa)
#
#
# Indices 1 2 3 4 5 6 
#
# 1 0.013136 -0.007215 -0.003035 0.000000 0.000000 0.000000
# 2 -0.007215 0.023061 -0.004636 0.000000 0.000000 0.000000
# 3 -0.003035 -0.004636 0.008650 0.000000 0.000000 0.000000
# 4 0.000000 0.000000 0.000000 -0.057492 0.000000 0.000000
# 5 0.000000 0.000000 0.000000 0.000000 0.026652 0.000000
# 6 0.000000 0.000000 0.000000 0.000000 0.000000 0.034914
#
#
# Mechanical properties :
#
#
# Convention : Reuss Voigt Hill
#
# Bulk Modulus (GPa) = 66.32753 79.88822 73.10788
# Shear Modulus (GPa) = 59.72442 22.00477 40.86460
#
# Velocity S-wave (km/s) = 5.58773 3.39171 4.62204
# Velocity P-wave (km/s) = 8.73528 7.55660 8.16723
#
# Compressibility (1/GPa) = 0.01507670
#
# Stress axis : x y z
#
# Youngs Moduli (GPa) = 76.12451 43.36316 115.60149
#
# Poissons Ratio (x) = 0.31285 0.35085
# Poissons Ratio (y) = 0.54922 0.53591
# Poissons Ratio (z) = 0.23104 0.20102
#
# Static dielectric constant tensor:
#      x y z
#    x 3.716980 0.000000 0.000000 
#    y 0.000000 3.153940 0.000000 
#    z 0.000000 0.000000 4.367380 
# 
# 
# High freq. dielectric constant tensor:
#      x y z
#    x 1.762820 0.000000 0.000000 
#    y 0.000000 1.710450 0.000000 
#    z 0.000000 0.000000 1.778960 
# 
# From -- ./inp_files/72880.got.cif
#   From: 2010.03.12/outbox.cif.g09.slc.cpg/sg65_37_cif.got.tgz:72880.got - 2010.04.10 20:52:16.
