data_PCOD8269620
_publ_section_title
;
Structure prediction by ZEFSAII (Michael W. Deem and Ramdas Pophale) SiO2 
 PCOD8269620
Probable space group: C M M M
;
_chemical_formula_sum "Si O2"
_cell_formula_units_Z 96
_cell_length_a 28.492800
_cell_length_b 12.582029
_cell_length_c 11.729798
_cell_angle_alpha 90.000000
_cell_angle_beta 90.000000
_cell_angle_gamma 90.000000
_cell_volume 4205.100161
_symmetry_space_group_name_H-M "C M M M"
_symmetry_group_IT_number 65
_symmetry_cell_setting 'orthorhombic'
loop_
_space_group_symop_operation_xyz
x,y,z
-x,-y,z
x,-y,-z
-x,y,-z
-x,-y,-z
x,y,-z
-x,y,z
x,-y,z
1/2+x,1/2+y,z
1/2-x,1/2-y,z
1/2+x,1/2-y,-z
1/2-x,1/2+y,-z
1/2-x,1/2-y,-z
1/2+x,1/2+y,-z
1/2-x,1/2+y,z
1/2+x,1/2-y,z
loop_
_atom_site_type_symbol
_atom_site_label
_atom_site_fract_x
_atom_site_fract_y
_atom_site_fract_z
Si Si1 0.635537 0.622158 0.124878
Si Si2 0.396381 0.369733 0.500000
Si Si3 0.210471 0.160929 0.500000
Si Si4 0.814279 0.374904 0.127959
Si Si5 0.080486 0.623020 0.868594
Si Si6 0.052733 0.190711 0.729916
Si Si7 0.274905 0.617204 0.750865
O O1 0.648663 0.500000 0.116811
O O2 0.584518 0.627244 0.181309
O O3 0.679152 0.676346 0.195121
O O4 0.633606 0.674806 0.000000
O O5 0.392252 0.500000 0.500000
O O6 0.345275 0.312865 0.500000
O O7 0.424800 0.324355 0.606442
O O8 0.250000 0.250000 0.500000
O O9 0.219963 0.098399 0.383871
O O10 0.822367 0.500000 0.147063
O O11 0.866757 0.326658 0.146189
O O12 0.775045 0.326641 0.216223
O O13 0.796032 0.352619 0.000000
O O14 0.077407 0.500000 0.835116
O O15 0.049870 0.687328 0.776059
O O16 0.063598 0.638105 0.000000
O O17 0.000000 0.144292 0.727251
O O18 0.270981 0.500000 0.806017
#
# Coordination Sequence:
#
# PCOD8269620 Si02
#       7
#    16   8   8  16  16  16  16
#     4  10  21  37  60  93 133 171 211 271 343 408
#     4  12  27  52  75  94 132 183 231 279 339 407
#     4  12  26  39  61  94 127 164 215 264 320 392
#     4   8  15  30  56  89 125 165 206 246 299 384
#     4   9  20  41  68 100 141 184 220 268 343 422
#     4  12  26  43  68  97 125 169 234 294 339 399
#     4  10  19  35  59  87 124 170 213 255 319 399
#
# _framework density 22.829419999999999
#
# number of rings (size 3 to 8) (size 9 to 14) (size 15 to 20)
#    0.000    1.833    1.667    3.500    2.333    5.333 
#    0.000    2.083    0.000    5.000    0.000    0.000 
#    0.000    0.000    0.000    0.000    0.000    0.000 
#
# Total GULP energy -594797.080204 kJ/mol
# GULP energy per Si atom -12391.605838 kJ/mol
# Density = 2.277746 g / cm^3
# Si number density = 22.829420 Si / 1000 Ang^3
#
#
#
# Elastic Constant Matrix: (Units=GPa)
#
#
# Indices 1 2 3 4 5 6 
#
# 1 179.2422 30.8992 70.6809 0.0000 0.0000 0.0000
# 2 30.8992 56.8657 19.6384 0.0000 0.0000 0.0000
# 3 70.6809 19.6384 163.4223 0.0000 0.0000 0.0000
# 4 0.0000 0.0000 0.0000 16.8163 0.0000 0.0000
# 5 0.0000 0.0000 0.0000 0.0000 3.5647 0.0000
# 6 0.0000 0.0000 0.0000 0.0000 0.0000 24.2324
#
#
#
# Elastic Compliance Matrix: (Units=1/GPa)
#
#
# Indices 1 2 3 4 5 6 
#
# 1 0.007170 -0.002948 -0.002747 0.000000 0.000000 0.000000
# 2 -0.002948 0.019558 -0.001075 0.000000 0.000000 0.000000
# 3 -0.002747 -0.001075 0.007436 0.000000 0.000000 0.000000
# 4 0.000000 0.000000 0.000000 0.059466 0.000000 0.000000
# 5 0.000000 0.000000 0.000000 0.000000 0.280529 0.000000
# 6 0.000000 0.000000 0.000000 0.000000 0.000000 0.041267
#
#
# Mechanical properties :
#
#
# Convention : Reuss Voigt Hill
#
# Bulk Modulus (GPa) = 48.48467 71.32970 59.90719
# Shear Modulus (GPa) = 11.47203 27.47678 19.47440
#
# Velocity S-wave (km/s) = 2.24411 3.47301 2.92385
# Velocity P-wave (km/s) = 5.29137 6.88440 6.13977
#
# Compressibility (1/GPa) = 0.02062508
#
# Stress axis : x y z
#
# Youngs Moduli (GPa) = 139.46214 51.12918 134.47256
#
# Poissons Ratio (x) = 0.15070 0.36940
# Poissons Ratio (y) = 0.41107 0.14462
# Poissons Ratio (z) = 0.38311 0.05499
#
# Static dielectric constant tensor:
#      x y z
#    x 4.261300 0.000000 0.000000 
#    y 0.000000 4.183560 0.000000 
#    z 0.000000 0.000000 4.310600 
# 
# 
# High freq. dielectric constant tensor:
#      x y z
#    x 1.908480 0.000000 0.000000 
#    y 0.000000 1.924950 0.000000 
#    z 0.000000 0.000000 1.887630 
# 
# From -- ./inp_files/33913.got.cif
#   From: 2010.03.12/outbox.cif.g09.slc.cpg/sg65_17_cif.got.tgz:33913.got - 2010.04.10 20:52:16.
