data_PCOD8269674
_publ_section_title
;
Structure prediction by ZEFSAII (Michael W. Deem and Ramdas Pophale) SiO2 
 PCOD8269674
Probable space group: C M M M
;
_chemical_formula_sum "Si O2"
_cell_formula_units_Z 80
_cell_length_a 23.405190
_cell_length_b 19.480098
_cell_length_c 9.043049
_cell_angle_alpha 90.000000
_cell_angle_beta 90.000000
_cell_angle_gamma 90.000000
_cell_volume 4123.046117
_symmetry_space_group_name_H-M "C M M M"
_symmetry_group_IT_number 65
_symmetry_cell_setting 'orthorhombic'
loop_
_space_group_symop_operation_xyz
x,y,z
-x,-y,z
x,-y,-z
-x,y,-z
-x,-y,-z
x,y,-z
-x,y,z
x,-y,z
1/2+x,1/2+y,z
1/2-x,1/2-y,z
1/2+x,1/2-y,-z
1/2-x,1/2+y,-z
1/2-x,1/2-y,-z
1/2+x,1/2+y,-z
1/2-x,1/2+y,z
1/2+x,1/2-y,z
loop_
_atom_site_type_symbol
_atom_site_label
_atom_site_fract_x
_atom_site_fract_y
_atom_site_fract_z
Si Si1 0.621682 0.188998 0.327937
Si Si2 0.840203 0.077146 0.174954
Si Si3 0.934437 0.818615 0.174799
Si Si4 0.566650 0.925186 0.837980
Si Si5 0.735978 0.170440 0.831957
O O1 0.624506 0.205243 0.500000
O O2 0.600318 0.256716 0.246187
O O3 0.578434 0.127781 0.293117
O O4 0.681742 0.159466 0.271233
O O5 0.900917 0.111663 0.219109
O O6 0.787832 0.124242 0.233242
O O7 0.837304 0.000000 0.242626
O O8 0.835919 0.073369 0.000000
O O9 0.000000 0.822853 0.232337
O O10 0.933384 0.806745 0.000000
O O11 0.500000 0.933742 0.848827
O O12 0.593856 0.000000 0.801679
O O13 0.589490 0.899691 0.000000
O O14 0.750000 0.250000 0.825103
O O15 0.722182 0.148241 0.000000
#
# Coordination Sequence:
#
# PCOD8269674 Si02
#       5
#    16  16  16  16  16
#     4  12  24  35  54  84 119 151 189 235 282 342
#     4   9  18  34  58  88 115 142 185 241 293 337
#     4  10  20  36  59  85 114 150 192 236 284 343
#     4   9  19  37  59  81 108 146 192 238 283 333
#     4  10  19  36  60  81 108 146 188 232 281 337
#
# _framework density 19.403130000000001
#
# number of rings (size 3 to 8) (size 9 to 14) (size 15 to 20)
#    0.000    2.000    2.000    3.000    0.000    5.200 
#    0.000    5.000    0.000    1.800    0.000    1.400 
#    0.000    0.000    0.000    0.000    0.000    0.000 
#
# Total GULP energy -495778.428227 kJ/mol
# GULP energy per Si atom -12394.460706 kJ/mol
# Density = 1.935897 g / cm^3
# Si number density = 19.403130 Si / 1000 Ang^3
#
#
#
# Elastic Constant Matrix: (Units=GPa)
#
#
# Indices 1 2 3 4 5 6 
#
# 1 119.1117 58.7100 27.8909 0.0000 0.0000 0.0000
# 2 58.7100 134.9077 26.0169 0.0000 0.0000 0.0000
# 3 27.8909 26.0169 43.8174 0.0000 0.0000 0.0000
# 4 0.0000 0.0000 0.0000 19.9744 0.0000 0.0000
# 5 0.0000 0.0000 0.0000 0.0000 -10.5397 0.0000
# 6 0.0000 0.0000 0.0000 0.0000 0.0000 32.7107
#
#
#
# Elastic Compliance Matrix: (Units=1/GPa)
#
#
# Indices 1 2 3 4 5 6 
#
# 1 0.011562 -0.004080 -0.004938 0.000000 0.000000 0.000000
# 2 -0.004080 0.009810 -0.003228 0.000000 0.000000 0.000000
# 3 -0.004938 -0.003228 0.027882 0.000000 0.000000 0.000000
# 4 0.000000 0.000000 0.000000 0.050064 0.000000 0.000000
# 5 0.000000 0.000000 0.000000 0.000000 -0.094880 0.000000
# 6 0.000000 0.000000 0.000000 0.000000 0.000000 0.030571
#
#
# Mechanical properties :
#
#
# Convention : Reuss Voigt Hill
#
# Bulk Modulus (GPa) = 40.38154 58.11917 49.25036
# Shear Modulus (GPa) = 73.79502 20.77701 47.28601
#
# Velocity S-wave (km/s) = 6.17374 3.27587 4.94198
# Velocity P-wave (km/s) = 8.46624 6.65785 7.61591
#
# Compressibility (1/GPa) = 0.02476379
#
# Stress axis : x y z
#
# Youngs Moduli (GPa) = 86.48658 101.93223 35.86595
#
# Poissons Ratio (x) = 0.41585 0.17709
# Poissons Ratio (y) = 0.35283 0.11578
# Poissons Ratio (z) = 0.42703 0.32906
#
# Static dielectric constant tensor:
#      x y z
#    x 3.811320 0.000000 0.000000 
#    y 0.000000 3.830170 0.000000 
#    z 0.000000 0.000000 3.194120 
# 
# 
# High freq. dielectric constant tensor:
#      x y z
#    x 1.761530 0.000000 0.000000 
#    y 0.000000 1.762200 0.000000 
#    z 0.000000 0.000000 1.711670 
# 
# From -- ./inp_files/16046.got.cif
#   From: 2010.03.12/outbox.cif.g09.slc.cpg/sg65_9_cif.got.tgz:16046.got - 2010.04.10 20:52:16.
