data_PCOD8269706
_publ_section_title
;
Structure prediction by ZEFSAII (Michael W. Deem and Ramdas Pophale) SiO2 
 PCOD8269706
Probable space group: C M M M
;
_chemical_formula_sum "Si O2"
_cell_formula_units_Z 96
_cell_length_a 28.081414
_cell_length_b 31.955378
_cell_length_c 7.758118
_cell_angle_alpha 90.000000
_cell_angle_beta 90.000000
_cell_angle_gamma 90.000000
_cell_volume 6961.764249
_symmetry_space_group_name_H-M "C M M M"
_symmetry_group_IT_number 65
_symmetry_cell_setting 'orthorhombic'
loop_
_space_group_symop_operation_xyz
x,y,z
-x,-y,z
x,-y,-z
-x,y,-z
-x,-y,-z
x,y,-z
-x,y,z
x,-y,z
1/2+x,1/2+y,z
1/2-x,1/2-y,z
1/2+x,1/2-y,-z
1/2-x,1/2+y,-z
1/2-x,1/2-y,-z
1/2+x,1/2+y,-z
1/2-x,1/2+y,z
1/2+x,1/2-y,z
loop_
_atom_site_type_symbol
_atom_site_label
_atom_site_fract_x
_atom_site_fract_y
_atom_site_fract_z
Si Si1 0.728668 0.315388 0.000000
Si Si2 0.947383 0.627138 0.297245
Si Si3 0.295323 0.045298 0.695030
Si Si4 0.764130 0.366897 0.300607
Si Si5 0.860778 0.316343 0.301812
Si Si6 0.398566 0.046011 0.195799
Si Si7 0.674190 0.235290 0.000000
O O1 0.727444 0.343131 0.174646
O O2 0.682540 0.285304 0.000000
O O3 0.775803 0.287977 0.000000
O O4 0.944543 0.624861 0.500000
O O5 0.907870 0.659923 0.232590
O O6 0.938589 0.580569 0.227425
O O7 0.000000 0.641395 0.234614
O O8 0.278547 0.041515 0.500000
O O9 0.266862 0.085184 0.770675
O O10 0.351561 0.055112 0.693184
O O11 0.284735 0.000000 0.787856
O O12 0.746634 0.363758 0.500000
O O13 0.816793 0.347863 0.284787
O O14 0.866085 0.300601 0.500000
O O15 0.854069 0.276842 0.174647
O O16 0.419769 0.000000 0.241451
O O17 0.381221 0.047489 0.000000
#
# Coordination Sequence:
#
# PCOD8269706 Si02
#       7
#     8  16  16  16  16  16   8
#     4   9  18  28  41  60  76  91 115 145 181 232
#     4  10  20  32  44  56  70  93 125 157 193 234
#     4   9  16  26  40  56  74  99 129 155 183 224
#     4   9  16  26  41  58  77  98 120 149 185 222
#     4   9  17  29  43  58  75  95 120 150 187 231
#     4  10  20  29  39  55  72  93 123 159 197 233
#     4   9  18  30  43  58  74  94 114 140 186 236
#
# _framework density 13.789609
#
# number of rings (size 3 to 8) (size 9 to 14) (size 15 to 20)
#    0.000    2.667    1.667    0.500    2.333    2.333 
#    0.000    5.000    0.000    0.000    0.000    0.000 
#    0.000    0.000    0.000    0.000    0.000    0.000 
#
# Total GULP energy -594746.114359 kJ/mol
# GULP energy per Si atom -12390.544049 kJ/mol
# Density = 1.375822 g / cm^3
# Si number density = 13.789609 Si / 1000 Ang^3
#
#
#
# Elastic Constant Matrix: (Units=GPa)
#
#
# Indices 1 2 3 4 5 6 
#
# 1 37.3077 44.2860 23.8404 0.0000 0.0000 0.0000
# 2 44.2860 95.5810 43.3152 0.0000 0.0000 0.0000
# 3 23.8404 43.3152 55.2685 0.0000 0.0000 0.0000
# 4 0.0000 0.0000 0.0000 19.5802 0.0000 0.0000
# 5 0.0000 0.0000 0.0000 0.0000 9.5098 0.0000
# 6 0.0000 0.0000 0.0000 0.0000 0.0000 18.4013
#
#
#
# Elastic Compliance Matrix: (Units=1/GPa)
#
#
# Indices 1 2 3 4 5 6 
#
# 1 0.061015 -0.025345 -0.006456 0.000000 0.000000 0.000000
# 2 -0.025345 0.026753 -0.010034 0.000000 0.000000 0.000000
# 3 -0.006456 -0.010034 0.028742 0.000000 0.000000 0.000000
# 4 0.000000 0.000000 0.000000 0.051072 0.000000 0.000000
# 5 0.000000 0.000000 0.000000 0.000000 0.105155 0.000000
# 6 0.000000 0.000000 0.000000 0.000000 0.000000 0.054344
#
#
# Mechanical properties :
#
#
# Convention : Reuss Voigt Hill
#
# Bulk Modulus (GPa) = 30.45027 45.67115 38.06071
# Shear Modulus (GPa) = 11.85687 14.61264 13.23475
#
# Velocity S-wave (km/s) = 2.93548 3.25881 3.10136
# Velocity P-wave (km/s) = 5.79822 6.88126 6.36283
#
# Compressibility (1/GPa) = 0.03284044
#
# Stress axis : x y z
#
# Youngs Moduli (GPa) = 16.38943 37.37953 34.79203
#
# Poissons Ratio (x) = 0.94737 0.22461
# Poissons Ratio (y) = 0.41538 0.34911
# Poissons Ratio (z) = 0.10581 0.37507
#
# Static dielectric constant tensor:
#      x y z
#    x 2.451500 0.000000 0.000000 
#    y 0.000000 2.921170 0.000000 
#    z 0.000000 0.000000 2.833620 
# 
# 
# High freq. dielectric constant tensor:
#      x y z
#    x 1.458730 0.000000 0.000000 
#    y 0.000000 1.513280 0.000000 
#    z 0.000000 0.000000 1.537660 
# 
# From -- ./inp_files/14645.got.cif
#   From: 2010.03.12/outbox.cif.g09.slc.cpg/sg65_8_cif.got.tgz:14645.got - 2010.04.10 20:52:16.
