data_PCOD8269474
_publ_section_title
;
Structure prediction by ZEFSAII (Michael W. Deem and Ramdas Pophale) SiO2 
 PCOD8269474
Probable space group: C M M M
;
_chemical_formula_sum "Si O2"
_cell_formula_units_Z 72
_cell_length_a 8.589831
_cell_length_b 18.924172
_cell_length_c 22.661395
_cell_angle_alpha 90.000000
_cell_angle_beta 90.000000
_cell_angle_gamma 90.000000
_cell_volume 3683.733019
_symmetry_space_group_name_H-M "C M M M"
_symmetry_group_IT_number 65
_symmetry_cell_setting 'orthorhombic'
loop_
_space_group_symop_operation_xyz
x,y,z
-x,-y,z
x,-y,-z
-x,y,-z
-x,-y,-z
x,y,-z
-x,y,z
x,-y,z
1/2+x,1/2+y,z
1/2-x,1/2-y,z
1/2+x,1/2-y,-z
1/2-x,1/2+y,-z
1/2-x,1/2-y,-z
1/2+x,1/2+y,-z
1/2-x,1/2+y,z
1/2+x,1/2-y,z
loop_
_atom_site_type_symbol
_atom_site_label
_atom_site_fract_x
_atom_site_fract_y
_atom_site_fract_z
Si Si1 0.680860 0.417685 0.833459
Si Si2 0.685203 0.420937 0.500000
Si Si3 0.818475 0.325160 0.931424
Si Si4 0.682543 0.174288 0.267831
Si Si5 0.684497 0.673523 0.607364
O O1 0.500000 0.402921 0.821926
O O2 0.719819 0.500000 0.834373
O O3 0.730535 0.386415 0.896400
O O4 0.780808 0.382647 0.781890
O O5 0.754188 0.500000 0.500000
O O6 0.500000 0.422685 0.500000
O O7 0.745916 0.381170 0.441629
O O8 0.750000 0.250000 0.911672
O O9 0.000000 0.326140 0.915926
O O10 0.786641 0.339390 0.000000
O O11 0.500000 0.182472 0.276367
O O12 0.750000 0.250000 0.248609
O O13 0.755931 0.147605 0.329117
O O14 0.500000 0.677566 0.608481
O O15 0.750000 0.750000 0.591029
#
# Coordination Sequence:
#
# PCOD8269474 Si02
#       5
#    16   8  16  16  16
#     4  11  24  40  58  82 114 151 188 228 278 334
#     4   9  19  34  53  79 110 145 182 222 272 329
#     4  10  21  38  61  87 115 148 187 231 277 327
#     4  11  22  38  60  84 112 145 186 233 280 331
#     4  10  19  34  57  82 109 142 183 228 274 326
#
# _framework density 19.545392
#
# number of rings (size 3 to 8) (size 9 to 14) (size 15 to 20)
#    0.000    1.667    0.000    6.333    0.000    4.444 
#    0.000    6.111    0.000    4.667    0.000    0.000 
#    0.000    0.000    0.000    0.000    0.000    0.000 
#
# Total GULP energy -446584.936822 kJ/mol
# GULP energy per Si atom -12405.137134 kJ/mol
# Density = 1.950091 g / cm^3
# Si number density = 19.545392 Si / 1000 Ang^3
#
#
#
# Elastic Constant Matrix: (Units=GPa)
#
#
# Indices 1 2 3 4 5 6 
#
# 1 88.6349 38.1797 31.3947 0.0000 0.0000 0.0000
# 2 38.1797 125.0921 76.3833 0.0000 0.0000 0.0000
# 3 31.3947 76.3833 118.6246 0.0000 0.0000 0.0000
# 4 0.0000 0.0000 0.0000 17.5923 0.0000 0.0000
# 5 0.0000 0.0000 0.0000 0.0000 23.6643 0.0000
# 6 0.0000 0.0000 0.0000 0.0000 0.0000 29.6466
#
#
#
# Elastic Compliance Matrix: (Units=1/GPa)
#
#
# Indices 1 2 3 4 5 6 
#
# 1 0.013145 -0.003111 -0.001476 0.000000 0.000000 0.000000
# 2 -0.003111 0.013910 -0.008133 0.000000 0.000000 0.000000
# 3 -0.001476 -0.008133 0.014058 0.000000 0.000000 0.000000
# 4 0.000000 0.000000 0.000000 0.056843 0.000000 0.000000
# 5 0.000000 0.000000 0.000000 0.000000 0.042258 0.000000
# 6 0.000000 0.000000 0.000000 0.000000 0.000000 0.033731
#
#
# Mechanical properties :
#
#
# Convention : Reuss Voigt Hill
#
# Bulk Modulus (GPa) = 63.80606 69.36302 66.58454
# Shear Modulus (GPa) = 24.43693 26.60691 25.52192
#
# Velocity S-wave (km/s) = 3.53975 3.69357 3.61747
# Velocity P-wave (km/s) = 7.03010 7.33179 7.18253
#
# Compressibility (1/GPa) = 0.01567249
#
# Stress axis : x y z
#
# Youngs Moduli (GPa) = 76.07462 71.89067 71.13535
#
# Poissons Ratio (x) = 0.22364 0.10498
# Poissons Ratio (y) = 0.23666 0.57858
# Poissons Ratio (z) = 0.11227 0.58472
#
# Static dielectric constant tensor:
#      x y z
#    x 3.599120 0.000000 0.000000 
#    y 0.000000 3.605560 0.000000 
#    z 0.000000 0.000000 3.700980 
# 
# 
# High freq. dielectric constant tensor:
#      x y z
#    x 1.767470 0.000000 0.000000 
#    y 0.000000 1.756590 0.000000 
#    z 0.000000 0.000000 1.775430 
# 
# From -- ./inp_files/67063.got.cif
#   From: 2010.03.12/outbox.cif.g09.slc.cpg/sg65_34_cif.got.tgz:67063.got - 2010.04.10 20:52:16.
