data_PCOD8269554
_publ_section_title
;
Structure prediction by ZEFSAII (Michael W. Deem and Ramdas Pophale) SiO2 
 PCOD8269554
Probable space group: C M M M
;
_chemical_formula_sum "Si O2"
_cell_formula_units_Z 80
_cell_length_a 34.798473
_cell_length_b 7.730523
_cell_length_c 17.025472
_cell_angle_alpha 90.000000
_cell_angle_beta 90.000000
_cell_angle_gamma 90.000000
_cell_volume 4580.028963
_symmetry_space_group_name_H-M "C M M M"
_symmetry_group_IT_number 65
_symmetry_cell_setting 'orthorhombic'
loop_
_space_group_symop_operation_xyz
x,y,z
-x,-y,z
x,-y,-z
-x,y,-z
-x,-y,-z
x,y,-z
-x,y,z
x,-y,z
1/2+x,1/2+y,z
1/2-x,1/2-y,z
1/2+x,1/2-y,-z
1/2-x,1/2+y,-z
1/2-x,1/2-y,-z
1/2+x,1/2+y,-z
1/2-x,1/2+y,z
1/2+x,1/2-y,z
loop_
_atom_site_type_symbol
_atom_site_label
_atom_site_fract_x
_atom_site_fract_y
_atom_site_fract_z
Si Si1 0.064584 0.309296 0.588560
Si Si2 0.345558 0.500000 0.910556
Si Si3 0.295007 0.702549 0.500000
Si Si4 0.789681 0.687763 0.908532
Si Si5 0.958789 0.000000 0.688165
Si Si6 0.625461 0.500000 0.253275
Si Si7 0.350909 0.197123 0.637605
O O1 0.050097 0.300123 0.500000
O O2 0.056643 0.500000 0.624180
O O3 0.040303 0.171482 0.635948
O O4 0.110145 0.269824 0.589231
O O5 0.321785 0.328215 0.893675
O O6 0.376240 0.500000 0.841412
O O7 0.362452 0.500000 0.000000
O O8 0.300582 0.500000 0.500000
O O9 0.250000 0.750000 0.500000
O O10 0.314957 0.774953 0.420888
O O11 0.801821 0.500000 0.873278
O O12 0.750000 0.750000 0.867944
O O13 0.781857 0.665460 0.000000
O O14 0.920410 0.000000 0.738503
O O15 0.000000 0.000000 0.734995
O O16 0.647355 0.331904 0.289247
O O17 0.348535 0.000000 0.670131
#
# Coordination Sequence:
#
# PCOD8269554 Si02
#       7
#    16   8   8  16   8   8  16
#     4   9  17  29  50  76 102 135 168 204 256 310
#     4  10  20  34  54  79 104 136 178 220 269 331
#     4  12  22  34  56  79 105 147 193 236 261 296
#     4   9  15  26  48  75 101 129 162 200 247 305
#     4  10  21  34  50  73 102 134 170 212 260 319
#     4  10  22  38  56  75 104 142 174 220 278 326
#     4  10  19  35  55  76 103 140 186 222 262 314
#
# _framework density 17.467140000000001
#
# number of rings (size 3 to 8) (size 9 to 14) (size 15 to 20)
#    0.000    2.200    3.000    1.200    0.000    2.000 
#    0.000    2.000    0.000    0.300    0.000    0.000 
#    0.000    0.000    0.000   15.000    0.000    0.000 
#
# Total GULP energy -495532.223389 kJ/mol
# GULP energy per Si atom -12388.305585 kJ/mol
# Density = 1.742738 g / cm^3
# Si number density = 17.467140 Si / 1000 Ang^3
#
#
#
# Elastic Constant Matrix: (Units=GPa)
#
#
# Indices 1 2 3 4 5 6 
#
# 1 96.8389 32.3624 38.4771 0.0000 0.0000 0.0000
# 2 32.3624 147.7424 35.9010 0.0000 0.0000 0.0000
# 3 38.4771 35.9010 88.2356 0.0000 0.0000 0.0000
# 4 0.0000 0.0000 0.0000 24.9676 0.0000 0.0000
# 5 0.0000 0.0000 0.0000 0.0000 11.1001 0.0000
# 6 0.0000 0.0000 0.0000 0.0000 0.0000 6.3141
#
#
#
# Elastic Compliance Matrix: (Units=1/GPa)
#
#
# Indices 1 2 3 4 5 6 
#
# 1 0.012827 -0.001610 -0.004938 0.000000 0.000000 0.000000
# 2 -0.001610 0.007713 -0.002436 0.000000 0.000000 0.000000
# 3 -0.004938 -0.002436 0.014478 0.000000 0.000000 0.000000
# 4 0.000000 0.000000 0.000000 0.040052 0.000000 0.000000
# 5 0.000000 0.000000 0.000000 0.000000 0.090089 0.000000
# 6 0.000000 0.000000 0.000000 0.000000 0.000000 0.158375
#
#
# Mechanical properties :
#
#
# Convention : Reuss Voigt Hill
#
# Bulk Modulus (GPa) = 58.65442 60.69977 59.67710
# Shear Modulus (GPa) = 14.40150 23.54812 18.97481
#
# Velocity S-wave (km/s) = 2.87451 3.67568 3.29950
# Velocity P-wave (km/s) = 6.68355 7.26915 6.98249
#
# Compressibility (1/GPa) = 0.01704901
#
# Stress axis : x y z
#
# Youngs Moduli (GPa) = 77.96353 129.64874 69.06985
#
# Poissons Ratio (x) = 0.20868 0.34109
# Poissons Ratio (y) = 0.12549 0.16828
# Poissons Ratio (z) = 0.38501 0.31588
#
# Static dielectric constant tensor:
#      x y z
#    x 3.097890 0.000000 0.000000 
#    y 0.000000 3.378820 0.000000 
#    z 0.000000 0.000000 2.851140 
# 
# 
# High freq. dielectric constant tensor:
#      x y z
#    x 1.657150 0.000000 0.000000 
#    y 0.000000 1.704820 0.000000 
#    z 0.000000 0.000000 1.624750 
# 
# From -- ./inp_files/57937.got.cif
#   From: 2010.03.12/outbox.cif.g09.slc.cpg/sg65_29_cif.got.tgz:57937.got - 2010.04.10 20:52:16.
