data_PCOD8269763
_publ_section_title
;
Structure prediction by ZEFSAII (Michael W. Deem and Ramdas Pophale) SiO2 
 PCOD8269763
Probable space group: C M M M
;
_chemical_formula_sum "Si O2"
_cell_formula_units_Z 88
_cell_length_a 29.564589
_cell_length_b 9.210002
_cell_length_c 22.956036
_cell_angle_alpha 90.000000
_cell_angle_beta 90.000000
_cell_angle_gamma 90.000000
_cell_volume 6250.697294
_symmetry_space_group_name_H-M "C M M M"
_symmetry_group_IT_number 65
_symmetry_cell_setting 'orthorhombic'
loop_
_space_group_symop_operation_xyz
x,y,z
-x,-y,z
x,-y,-z
-x,y,-z
-x,-y,-z
x,y,-z
-x,y,z
x,-y,z
1/2+x,1/2+y,z
1/2-x,1/2-y,z
1/2+x,1/2-y,-z
1/2-x,1/2+y,-z
1/2-x,1/2-y,-z
1/2+x,1/2+y,-z
1/2-x,1/2+y,z
1/2+x,1/2-y,z
loop_
_atom_site_type_symbol
_atom_site_label
_atom_site_fract_x
_atom_site_fract_y
_atom_site_fract_z
Si Si1 0.793526 0.835395 0.430684
Si Si2 0.553616 0.333686 0.651174
Si Si3 0.446252 0.836732 0.890575
Si Si4 0.945936 0.162538 0.000000
Si Si5 0.053738 0.663074 0.237633
Si Si6 0.117322 0.331407 0.568478
O O1 0.791794 0.837633 0.500000
O O2 0.750000 0.750000 0.405904
O O3 0.837905 0.750659 0.409079
O O4 0.793901 0.000000 0.406310
O O5 0.500000 0.318635 0.646420
O O6 0.569248 0.500000 0.645753
O O7 0.571891 0.272026 0.712931
O O8 0.574112 0.239633 0.599027
O O9 0.500000 0.831318 0.892960
O O10 0.425981 0.737508 0.941850
O O11 0.429729 0.783601 0.826467
O O12 0.429265 0.000000 0.901520
O O13 0.000000 0.169371 0.000000
O O14 0.927697 0.000000 0.000000
O O15 0.071737 0.500000 0.250087
O O16 0.000000 0.661119 0.238410
O O17 0.110484 0.310555 0.500000
O O18 0.121393 0.500000 0.585224
#
# Coordination Sequence:
#
# PCOD8269763 Si02
#       6
#    16  16  16   8  16  16
#     4   9  16  27  44  64  84 102 119 142 176 220
#     4  10  20  31  42  56  74  97 125 159 198 235
#     4   8  13  21  32  44  59  81 108 138 174 215
#     4   9  15  19  25  41  63  83 103 133 174 215
#     4   8  14  25  39  51  63  84 116 151 184 219
#     4  10  20  32  45  60  77  98 125 156 190 228
#
# _framework density 14.078428000000001
#
# number of rings (size 3 to 8) (size 9 to 14) (size 15 to 20)
#    0.000    3.000    0.000    3.000    0.000    6.545 
#    0.000    5.455    0.000    0.000    0.000    0.000 
#    0.000    0.000    0.000    0.000    0.000    0.000 
#
# Total GULP energy -545366.157471 kJ/mol
# GULP energy per Si atom -12394.685397 kJ/mol
# Density = 1.404639 g / cm^3
# Si number density = 14.078428 Si / 1000 Ang^3
#
#
#
# Elastic Constant Matrix: (Units=GPa)
#
#
# Indices 1 2 3 4 5 6 
#
# 1 29.4125 30.7159 24.6370 0.0000 0.0000 0.0000
# 2 30.7159 121.6056 55.2812 0.0000 0.0000 0.0000
# 3 24.6370 55.2812 71.6128 0.0000 0.0000 0.0000
# 4 0.0000 0.0000 0.0000 21.3408 0.0000 0.0000
# 5 0.0000 0.0000 0.0000 0.0000 0.6941 0.0000
# 6 0.0000 0.0000 0.0000 0.0000 0.0000 18.7269
#
#
#
# Elastic Compliance Matrix: (Units=1/GPa)
#
#
# Indices 1 2 3 4 5 6 
#
# 1 0.052075 -0.007717 -0.011958 0.000000 0.000000 0.000000
# 2 -0.007717 0.013813 -0.008008 0.000000 0.000000 0.000000
# 3 -0.011958 -0.008008 0.024259 0.000000 0.000000 0.000000
# 4 0.000000 0.000000 0.000000 0.046859 0.000000 0.000000
# 5 0.000000 0.000000 0.000000 0.000000 1.440806 0.000000
# 6 0.000000 0.000000 0.000000 0.000000 0.000000 0.053399
#
#
# Mechanical properties :
#
#
# Convention : Reuss Voigt Hill
#
# Bulk Modulus (GPa) = 28.75130 49.32211 39.03671
# Shear Modulus (GPa) = 2.94434 15.61881 9.28158
#
# Velocity S-wave (km/s) = 1.44773 3.33440 2.57042
# Velocity P-wave (km/s) = 4.82298 7.06641 6.04960
#
# Compressibility (1/GPa) = 0.03478103
#
# Stress axis : x y z
#
# Youngs Moduli (GPa) = 19.20311 72.39605 41.22109
#
# Poissons Ratio (x) = 0.55871 0.49292
# Poissons Ratio (y) = 0.14820 0.33009
# Poissons Ratio (z) = 0.22963 0.57973
#
# Static dielectric constant tensor:
#      x y z
#    x 2.338710 0.000000 0.000000 
#    y 0.000000 2.989630 0.000000 
#    z 0.000000 0.000000 2.889640 
# 
# 
# High freq. dielectric constant tensor:
#      x y z
#    x 1.472770 0.000000 0.000000 
#    y 0.000000 1.553240 0.000000 
#    z 0.000000 0.000000 1.525740 
# 
# From -- ./inp_files/66251.got.cif
#   From: 2010.03.12/outbox.cif.g09.slc.cpg/sg65_34_cif.got.tgz:66251.got - 2010.04.10 20:52:16.
