data_PCOD8269955
_publ_section_title
;
Structure prediction by ZEFSAII (Michael W. Deem and Ramdas Pophale) SiO2 
 PCOD8269955
Probable space group: C M M M
;
_chemical_formula_sum "Si O2"
_cell_formula_units_Z 104
_cell_length_a 9.607796
_cell_length_b 18.901894
_cell_length_c 33.865847
_cell_angle_alpha 90.000000
_cell_angle_beta 90.000000
_cell_angle_gamma 90.000000
_cell_volume 6150.225485
_symmetry_space_group_name_H-M "C M M M"
_symmetry_group_IT_number 65
_symmetry_cell_setting 'orthorhombic'
loop_
_space_group_symop_operation_xyz
x,y,z
-x,-y,z
x,-y,-z
-x,y,-z
-x,-y,-z
x,y,-z
-x,y,z
x,-y,z
1/2+x,1/2+y,z
1/2-x,1/2-y,z
1/2+x,1/2-y,-z
1/2-x,1/2+y,-z
1/2-x,1/2-y,-z
1/2+x,1/2+y,-z
1/2-x,1/2+y,z
1/2+x,1/2-y,z
loop_
_atom_site_type_symbol
_atom_site_label
_atom_site_fract_x
_atom_site_fract_y
_atom_site_fract_z
Si Si1 0.843263 0.682306 0.500000
Si Si2 0.834873 0.578345 0.653090
Si Si3 0.162546 0.321077 0.585203
Si Si4 0.164949 0.420717 0.740793
Si Si5 0.843687 0.915969 0.956531
Si Si6 0.335799 0.821670 0.810563
Si Si7 0.160935 0.581328 0.884913
O O1 0.750000 0.750000 0.500000
O O2 0.817561 0.641154 0.541685
O O3 0.000000 0.710954 0.500000
O O4 0.774484 0.500000 0.645914
O O5 0.774266 0.628573 0.619017
O O6 0.789849 0.604558 0.696835
O O7 0.000000 0.576199 0.650101
O O8 0.250000 0.250000 0.587118
O O9 0.000000 0.304397 0.592990
O O10 0.223783 0.500000 0.749340
O O11 0.220727 0.363696 0.772131
O O12 0.000000 0.424626 0.744267
O O13 0.743003 0.886752 0.922469
O O14 0.000000 0.889724 0.947504
O O15 0.837927 0.000000 0.956594
O O16 0.796570 0.888313 0.000000
O O17 0.500000 0.804631 0.807789
O O18 0.250000 0.750000 0.814590
O O19 0.301150 0.871369 0.847495
O O20 0.202814 0.500000 0.875568
O O21 0.000000 0.586462 0.895782
#
# Coordination Sequence:
#
# PCOD8269955 Si02
#       7
#     8  16  16  16  16  16  16
#     4   8  14  24  37  55  81 111 141 174 212 252
#     4   8  14  25  42  64  87 110 139 176 216 258
#     4   9  16  26  41  61  84 111 144 179 214 254
#     4   8  14  27  47  66  84 111 146 179 211 253
#     4   8  14  25  42  66  94 119 143 175 216 258
#     4  10  20  32  46  66  91 116 143 178 218 257
#     4   9  17  29  46  67  89 115 148 182 213 249
#
# _framework density 16.909949000000001
#
# number of rings (size 3 to 8) (size 9 to 14) (size 15 to 20)
#    0.000    3.385    0.000    1.846    0.000    3.385 
#    0.000    1.923    0.000    4.615    0.000    2.154 
#    0.000    6.154    0.000    0.000    0.000    0.000 
#
# Total GULP energy -644203.119340 kJ/mol
# GULP energy per Si atom -12388.521526 kJ/mol
# Density = 1.687146 g / cm^3
# Si number density = 16.909949 Si / 1000 Ang^3
#
#
#
# Elastic Constant Matrix: (Units=GPa)
#
#
# Indices 1 2 3 4 5 6 
#
# 1 35.9693 31.4660 50.1839 0.0000 0.0000 0.0000
# 2 31.4660 78.6117 76.0152 0.0000 0.0000 0.0000
# 3 50.1839 76.0152 182.5256 0.0000 0.0000 0.0000
# 4 0.0000 0.0000 0.0000 13.6895 0.0000 0.0000
# 5 0.0000 0.0000 0.0000 0.0000 16.1383 0.0000
# 6 0.0000 0.0000 0.0000 0.0000 0.0000 18.6224
#
#
#
# Elastic Compliance Matrix: (Units=1/GPa)
#
#
# Indices 1 2 3 4 5 6 
#
# 1 0.050521 -0.011369 -0.009156 0.000000 0.000000 0.000000
# 2 -0.011369 0.023856 -0.006809 0.000000 0.000000 0.000000
# 3 -0.009156 -0.006809 0.010832 0.000000 0.000000 0.000000
# 4 0.000000 0.000000 0.000000 0.073048 0.000000 0.000000
# 5 0.000000 0.000000 0.000000 0.000000 0.061964 0.000000
# 6 0.000000 0.000000 0.000000 0.000000 0.000000 0.053699
#
#
# Mechanical properties :
#
#
# Convention : Reuss Voigt Hill
#
# Bulk Modulus (GPa) = 32.74300 68.04851 50.39576
# Shear Modulus (GPa) = 14.75940 18.98615 16.87277
#
# Velocity S-wave (km/s) = 2.95756 3.35443 3.16223
# Velocity P-wave (km/s) = 5.57388 7.43855 6.57267
#
# Compressibility (1/GPa) = 0.03054088
#
# Stress axis : x y z
#
# Youngs Moduli (GPa) = 19.79389 41.91871 92.32127
#
# Poissons Ratio (x) = 0.47656 0.84525
# Poissons Ratio (y) = 0.22503 0.62864
# Poissons Ratio (z) = 0.18122 0.28544
#
# Static dielectric constant tensor:
#      x y z
#    x 2.845840 0.000000 0.000000 
#    y 0.000000 3.009430 0.000000 
#    z 0.000000 0.000000 3.807380 
# 
# 
# High freq. dielectric constant tensor:
#      x y z
#    x 1.616270 0.000000 0.000000 
#    y 0.000000 1.616820 0.000000 
#    z 0.000000 0.000000 1.676330 
# 
# From -- ./inp_files/74392.got.cif
#   From: 2010.03.12/outbox.cif.g09.slc.cpg/sg65_38_cif.got.tgz:74392.got - 2010.04.10 20:52:16.
