data_PCOD8269611
_publ_section_title
;
Structure prediction by ZEFSAII (Michael W. Deem and Ramdas Pophale) SiO2 
 PCOD8269611
Probable space group: C M M M
;
_chemical_formula_sum "Si O2"
_cell_formula_units_Z 88
_cell_length_a 8.822429
_cell_length_b 25.778293
_cell_length_c 20.675369
_cell_angle_alpha 90.000000
_cell_angle_beta 90.000000
_cell_angle_gamma 90.000000
_cell_volume 4702.140448
_symmetry_space_group_name_H-M "C M M M"
_symmetry_group_IT_number 65
_symmetry_cell_setting 'orthorhombic'
loop_
_space_group_symop_operation_xyz
x,y,z
-x,-y,z
x,-y,-z
-x,y,-z
-x,-y,-z
x,y,-z
-x,y,z
x,-y,z
1/2+x,1/2+y,z
1/2-x,1/2-y,z
1/2+x,1/2-y,-z
1/2-x,1/2+y,-z
1/2-x,1/2-y,-z
1/2+x,1/2+y,-z
1/2-x,1/2+y,z
1/2+x,1/2-y,z
loop_
_atom_site_type_symbol
_atom_site_label
_atom_site_fract_x
_atom_site_fract_y
_atom_site_fract_z
Si Si1 0.680397 0.000000 0.138499
Si Si2 0.179446 0.695974 0.146885
Si Si3 0.174166 0.899865 0.076444
Si Si4 0.322123 0.196913 0.705201
Si Si5 0.319930 0.095624 0.630417
Si Si6 0.179488 0.059396 0.500000
Si Si7 0.320353 0.000000 0.715484
O O1 0.739601 0.050440 0.102806
O O2 0.500000 0.000000 0.136970
O O3 0.743391 0.000000 0.211834
O O4 0.250000 0.750000 0.122824
O O5 0.247514 0.651275 0.103187
O O6 0.226975 0.685425 0.221120
O O7 0.000000 0.697647 0.138102
O O8 0.000000 0.901780 0.098690
O O9 0.189028 0.899413 0.000000
O O10 0.500000 0.203266 0.700685
O O11 0.250000 0.250000 0.679121
O O12 0.265544 0.150015 0.660392
O O13 0.500000 0.092910 0.621967
O O14 0.242081 0.089596 0.561600
O O15 0.260843 0.050668 0.678190
O O16 0.000000 0.061364 0.500000
O O17 0.238534 0.000000 0.500000
O O18 0.500000 0.000000 0.717754
#
# Coordination Sequence:
#
# PCOD8269611 Si02
#       7
#     8  16  16  16  16   8   8
#     4  11  22  38  60  85 112 144 185 234 287 340
#     4  10  20  37  61  87 115 145 184 234 286 336
#     4  11  24  40  56  78 112 152 192 233 279 336
#     4   9  19  35  57  85 113 143 182 227 273 327
#     4  10  19  35  59  82 107 145 187 219 263 326
#     4  11  23  37  52  79 118 147 178 224 273 320
#     4   9  18  33  57  85 109 134 175 230 275 325
#
# _framework density 18.714880000000001
#
# number of rings (size 3 to 8) (size 9 to 14) (size 15 to 20)
#    0.000    1.909    0.909    3.000    0.000    7.636 
#    0.000    4.091    0.000    0.000    0.000    0.000 
#    0.000    0.000    0.000    0.000    0.000    0.000 
#
# Total GULP energy -545761.937277 kJ/mol
# GULP energy per Si atom -12403.680393 kJ/mol
# Density = 1.867228 g / cm^3
# Si number density = 18.714880 Si / 1000 Ang^3
#
#
#
# Elastic Constant Matrix: (Units=GPa)
#
#
# Indices 1 2 3 4 5 6 
#
# 1 70.9281 53.0076 46.7077 0.0000 0.0000 0.0000
# 2 53.0076 165.7336 80.9721 0.0000 0.0000 0.0000
# 3 46.7077 80.9721 109.6810 0.0000 0.0000 0.0000
# 4 0.0000 0.0000 0.0000 36.9774 0.0000 0.0000
# 5 0.0000 0.0000 0.0000 0.0000 22.5921 0.0000
# 6 0.0000 0.0000 0.0000 0.0000 0.0000 23.7639
#
#
#
# Elastic Compliance Matrix: (Units=1/GPa)
#
#
# Indices 1 2 3 4 5 6 
#
# 1 0.020921 -0.003658 -0.006209 0.000000 0.000000 0.000000
# 2 -0.003658 0.010077 -0.005882 0.000000 0.000000 0.000000
# 3 -0.006209 -0.005882 0.016104 0.000000 0.000000 0.000000
# 4 0.000000 0.000000 0.000000 0.027044 0.000000 0.000000
# 5 0.000000 0.000000 0.000000 0.000000 0.044263 0.000000
# 6 0.000000 0.000000 0.000000 0.000000 0.000000 0.042081
#
#
# Mechanical properties :
#
#
# Convention : Reuss Voigt Hill
#
# Bulk Modulus (GPa) = 64.08227 78.63527 71.35877
# Shear Modulus (GPa) = 25.35641 27.71037 26.53339
#
# Velocity S-wave (km/s) = 3.68486 3.85211 3.76941
# Velocity P-wave (km/s) = 7.24016 7.86726 7.56021
#
# Compressibility (1/GPa) = 0.01560494
#
# Stress axis : x y z
#
# Youngs Moduli (GPa) = 47.79861 99.23150 62.09736
#
# Poissons Ratio (x) = 0.36298 0.38555
# Poissons Ratio (y) = 0.17484 0.36525
# Poissons Ratio (z) = 0.29677 0.58368
#
# Static dielectric constant tensor:
#      x y z
#    x 3.392820 0.000000 0.000000 
#    y 0.000000 3.572190 0.000000 
#    z 0.000000 0.000000 3.507580 
# 
# 
# High freq. dielectric constant tensor:
#      x y z
#    x 1.722160 0.000000 0.000000 
#    y 0.000000 1.739900 0.000000 
#    z 0.000000 0.000000 1.728550 
# 
# From -- ./inp_files/59874.got.cif
#   From: 2010.03.12/outbox.cif.g09.slc.cpg/sg65_30_cif.got.tgz:59874.got - 2010.04.10 20:52:16.
