data_PCOD8269222
_publ_section_title
;
Structure prediction by ZEFSAII (Michael W. Deem and Ramdas Pophale) SiO2 
 PCOD8269222
Probable space group: C M M M
;
_chemical_formula_sum "Si O2"
_cell_formula_units_Z 88
_cell_length_a 15.844545
_cell_length_b 8.993676
_cell_length_c 30.219520
_cell_angle_alpha 90.000000
_cell_angle_beta 90.000000
_cell_angle_gamma 90.000000
_cell_volume 4306.302877
_symmetry_space_group_name_H-M "C M M M"
_symmetry_group_IT_number 65
_symmetry_cell_setting 'orthorhombic'
loop_
_space_group_symop_operation_xyz
x,y,z
-x,-y,z
x,-y,-z
-x,y,-z
-x,-y,-z
x,y,-z
-x,y,z
x,-y,z
1/2+x,1/2+y,z
1/2-x,1/2-y,z
1/2+x,1/2-y,-z
1/2-x,1/2+y,-z
1/2-x,1/2-y,-z
1/2+x,1/2+y,-z
1/2-x,1/2+y,z
1/2+x,1/2-y,z
loop_
_atom_site_type_symbol
_atom_site_label
_atom_site_fract_x
_atom_site_fract_y
_atom_site_fract_z
Si Si1 0.836122 0.322918 0.103340
Si Si2 0.160612 0.824761 0.452160
Si Si3 0.902651 0.163996 0.360232
Si Si4 0.099093 0.827205 0.188789
Si Si5 0.600393 0.165296 0.723142
Si Si6 0.500000 0.823478 0.049819
O O1 0.827768 0.500000 0.102343
O O2 0.750000 0.250000 0.084379
O O3 0.849744 0.267940 0.153201
O O4 0.915327 0.266102 0.074069
O O5 0.118763 0.781243 0.500000
O O6 0.250000 0.750000 0.447937
O O7 0.106740 0.769429 0.409943
O O8 0.172308 0.000000 0.450170
O O9 0.861643 0.269805 0.322885
O O10 0.000000 0.149400 0.349055
O O11 0.860687 0.000000 0.357205
O O12 0.129205 0.771079 0.236780
O O13 0.000000 0.798415 0.181925
O O14 0.121996 0.000000 0.183891
O O15 0.500000 0.158175 0.720896
O O16 0.637340 0.000000 0.730126
O O17 0.500000 0.000000 0.049959
O O18 0.500000 0.760240 0.000000
#
# Coordination Sequence:
#
# PCOD8269222 Si02
#       6
#    16  16  16  16  16   8
#     4  11  22  38  61  90 124 161 203 250 299 351
#     4   9  18  32  49  68  91 123 162 204 254 314
#     4   9  17  30  48  71  99 129 166 213 263 314
#     4  10  19  33  56  83 113 149 192 237 284 340
#     4   9  17  29  48  75 106 140 178 218 268 328
#     4   9  20  40  65  91 123 165 207 247 298 357
#
# _framework density 20.435164
#
# number of rings (size 3 to 8) (size 9 to 14) (size 15 to 20)
#    0.000    2.455    0.909    1.636    0.000    4.364 
#    0.000    2.727    0.000    6.000    0.000    5.091 
#    0.000    0.000    0.000    0.000    0.000    0.000 
#
# Total GULP energy -545360.387771 kJ/mol
# GULP energy per Si atom -12394.554268 kJ/mol
# Density = 2.038865 g / cm^3
# Si number density = 20.435164 Si / 1000 Ang^3
#
#
#
# Elastic Constant Matrix: (Units=GPa)
#
#
# Indices 1 2 3 4 5 6 
#
# 1 73.0600 31.8978 46.0430 0.0000 0.0000 0.0000
# 2 31.8978 80.1476 45.0716 0.0000 0.0000 0.0000
# 3 46.0430 45.0716 156.8203 0.0000 0.0000 0.0000
# 4 0.0000 0.0000 0.0000 25.3415 0.0000 0.0000
# 5 0.0000 0.0000 0.0000 0.0000 41.3960 0.0000
# 6 0.0000 0.0000 0.0000 0.0000 0.0000 24.6752
#
#
#
# Elastic Compliance Matrix: (Units=1/GPa)
#
#
# Indices 1 2 3 4 5 6 
#
# 1 0.018397 -0.005110 -0.003933 0.000000 0.000000 0.000000
# 2 -0.005110 0.016302 -0.003185 0.000000 0.000000 0.000000
# 3 -0.003933 -0.003185 0.008447 0.000000 0.000000 0.000000
# 4 0.000000 0.000000 0.000000 0.039461 0.000000 0.000000
# 5 0.000000 0.000000 0.000000 0.000000 0.024157 0.000000
# 6 0.000000 0.000000 0.000000 0.000000 0.000000 0.040527
#
#
# Mechanical properties :
#
#
# Convention : Reuss Voigt Hill
#
# Bulk Modulus (GPa) = 53.50482 61.78362 57.64422
# Shear Modulus (GPa) = 28.09378 30.75024 29.42201
#
# Velocity S-wave (km/s) = 3.71182 3.88335 3.79855
# Velocity P-wave (km/s) = 6.67905 7.09977 6.89262
#
# Compressibility (1/GPa) = 0.01868990
#
# Stress axis : x y z
#
# Youngs Moduli (GPa) = 54.35711 61.34282 118.38866
#
# Poissons Ratio (x) = 0.31347 0.46558
# Poissons Ratio (y) = 0.27777 0.37706
# Poissons Ratio (z) = 0.21377 0.19537
#
# Static dielectric constant tensor:
#      x y z
#    x 3.451600 0.000000 0.000000 
#    y 0.000000 3.680200 0.000000 
#    z 0.000000 0.000000 4.039940 
# 
# 
# High freq. dielectric constant tensor:
#      x y z
#    x 1.767980 0.000000 0.000000 
#    y 0.000000 1.789190 0.000000 
#    z 0.000000 0.000000 1.811140 
# 
# From -- ./inp_files/77808.got.cif
#   From: 2010.03.12/outbox.cif.g09.slc.cpg/sg65_39_cif.got.tgz:77808.got - 2010.04.10 20:52:16.
