data_PCOD8269945
_publ_section_title
;
Structure prediction by ZEFSAII (Michael W. Deem and Ramdas Pophale) SiO2 
 PCOD8269945
Probable space group: C M M M
;
_chemical_formula_sum "Si O2"
_cell_formula_units_Z 104
_cell_length_a 9.300565
_cell_length_b 26.772989
_cell_length_c 27.127414
_cell_angle_alpha 90.000000
_cell_angle_beta 90.000000
_cell_angle_gamma 90.000000
_cell_volume 6754.832546
_symmetry_space_group_name_H-M "C M M M"
_symmetry_group_IT_number 65
_symmetry_cell_setting 'orthorhombic'
loop_
_space_group_symop_operation_xyz
x,y,z
-x,-y,z
x,-y,-z
-x,y,-z
-x,-y,-z
x,y,-z
-x,y,z
x,-y,z
1/2+x,1/2+y,z
1/2-x,1/2-y,z
1/2+x,1/2-y,-z
1/2-x,1/2+y,-z
1/2-x,1/2-y,-z
1/2+x,1/2+y,-z
1/2-x,1/2+y,z
1/2+x,1/2-y,z
loop_
_atom_site_type_symbol
_atom_site_label
_atom_site_fract_x
_atom_site_fract_y
_atom_site_fract_z
Si Si1 0.834004 0.199060 0.447941
Si Si2 0.168767 0.138853 0.753210
Si Si3 0.668151 0.698071 0.341335
Si Si4 0.168484 0.099364 0.102731
Si Si5 0.834488 0.557489 0.192959
Si Si6 0.835368 0.799242 0.847820
Si Si7 0.329583 0.556149 0.000000
O O1 0.799407 0.169183 0.500000
O O2 0.750000 0.250000 0.449330
O O3 0.797554 0.172683 0.395392
O O4 0.000000 0.213471 0.447192
O O5 0.218050 0.158847 0.699911
O O6 0.258210 0.088899 0.763799
O O7 0.208148 0.180669 0.793809
O O8 0.000000 0.125803 0.755689
O O9 0.500000 0.709659 0.334703
O O10 0.750000 0.750000 0.334465
O O11 0.256044 0.065830 0.141016
O O12 0.198050 0.157929 0.111934
O O13 0.224160 0.085675 0.048240
O O14 0.000000 0.087139 0.110056
O O15 0.821702 0.500000 0.208194
O O16 0.000000 0.574200 0.188008
O O17 0.750000 0.750000 0.862255
O O18 0.000000 0.783586 0.848661
O O19 0.266030 0.500000 0.000000
O O20 0.500000 0.553894 0.000000
#
# Coordination Sequence:
#
# PCOD8269945 Si02
#       7
#    16  16  16  16  16  16   8
#     4   8  13  21  33  50  75 108 142 173 205 241
#     4   9  18  30  43  61  83 109 142 175 206 244
#     4   9  16  25  38  58  84 113 145 177 208 244
#     4   9  18  32  49  69  89 110 140 172 201 240
#     4  10  20  32  46  65  87 109 133 164 207 255
#     4   9  17  28  42  60  83 111 140 169 200 235
#     4   9  16  28  50  73  87 105 137 175 210 243
#
# _framework density 15.396385
#
# number of rings (size 3 to 8) (size 9 to 14) (size 15 to 20)
#    0.000    3.000    0.000    2.308    0.000    4.923 
#    0.000    0.769    0.000    1.385    0.000    0.000 
#    0.000    0.615    0.000    7.692    0.000    1.231 
#
# Total GULP energy -644300.252073 kJ/mol
# GULP energy per Si atom -12390.389463 kJ/mol
# Density = 1.536134 g / cm^3
# Si number density = 15.396385 Si / 1000 Ang^3
#
#
#
# Elastic Constant Matrix: (Units=GPa)
#
#
# Indices 1 2 3 4 5 6 
#
# 1 47.8539 37.2796 35.1969 0.0000 0.0000 0.0000
# 2 37.2796 84.1700 60.0238 0.0000 0.0000 0.0000
# 3 35.1969 60.0238 162.4777 0.0000 0.0000 0.0000
# 4 0.0000 0.0000 0.0000 15.1457 0.0000 0.0000
# 5 0.0000 0.0000 0.0000 0.0000 12.8312 0.0000
# 6 0.0000 0.0000 0.0000 0.0000 0.0000 24.1244
#
#
#
# Elastic Compliance Matrix: (Units=1/GPa)
#
#
# Indices 1 2 3 4 5 6 
#
# 1 0.032549 -0.012746 -0.002342 0.000000 0.000000 0.000000
# 2 -0.012746 0.021121 -0.005042 0.000000 0.000000 0.000000
# 3 -0.002342 -0.005042 0.008525 0.000000 0.000000 0.000000
# 4 0.000000 0.000000 0.000000 0.066025 0.000000 0.000000
# 5 0.000000 0.000000 0.000000 0.000000 0.077935 0.000000
# 6 0.000000 0.000000 0.000000 0.000000 0.000000 0.041452
#
#
# Mechanical properties :
#
#
# Convention : Reuss Voigt Hill
#
# Bulk Modulus (GPa) = 45.58869 62.16693 53.87781
# Shear Modulus (GPa) = 16.93888 21.22035 19.07962
#
# Velocity S-wave (km/s) = 3.32050 3.71653 3.52408
# Velocity P-wave (km/s) = 6.66148 7.67347 7.18531
#
# Compressibility (1/GPa) = 0.02193526
#
# Stress axis : x y z
#
# Youngs Moduli (GPa) = 30.72274 47.34538 117.30692
#
# Poissons Ratio (x) = 0.60346 0.27477
# Poissons Ratio (y) = 0.39159 0.59143
# Poissons Ratio (z) = 0.07196 0.23870
#
# Static dielectric constant tensor:
#      x y z
#    x 2.836150 0.000000 0.000000 
#    y 0.000000 2.648590 0.000000 
#    z 0.000000 0.000000 3.486820 
# 
# 
# High freq. dielectric constant tensor:
#      x y z
#    x 1.586940 0.000000 0.000000 
#    y 0.000000 1.555110 0.000000 
#    z 0.000000 0.000000 1.598220 
# 
# From -- ./inp_files/73809.got.cif
#   From: 2010.03.12/outbox.cif.g09.slc.cpg/sg65_37_cif.got.tgz:73809.got - 2010.04.10 20:52:16.
