data_PCOD8269213
_publ_section_title
;
Structure prediction by ZEFSAII (Michael W. Deem and Ramdas Pophale) SiO2 
 PCOD8269213
Probable space group: C M M M
;
_chemical_formula_sum "Si O2"
_cell_formula_units_Z 72
_cell_length_a 19.178686
_cell_length_b 22.673587
_cell_length_c 8.932005
_cell_angle_alpha 90.000000
_cell_angle_beta 90.000000
_cell_angle_gamma 90.000000
_cell_volume 3884.078851
_symmetry_space_group_name_H-M "C M M M"
_symmetry_group_IT_number 65
_symmetry_cell_setting 'orthorhombic'
loop_
_space_group_symop_operation_xyz
x,y,z
-x,-y,z
x,-y,-z
-x,y,-z
-x,-y,-z
x,y,-z
-x,y,z
x,-y,z
1/2+x,1/2+y,z
1/2-x,1/2-y,z
1/2+x,1/2-y,-z
1/2-x,1/2+y,-z
1/2-x,1/2-y,-z
1/2+x,1/2+y,-z
1/2-x,1/2+y,z
1/2+x,1/2-y,z
loop_
_atom_site_type_symbol
_atom_site_label
_atom_site_fract_x
_atom_site_fract_y
_atom_site_fract_z
Si Si1 0.922446 0.334789 0.822601
Si Si2 0.673620 0.728888 0.176982
Si Si3 0.825358 0.105502 0.322800
Si Si4 0.184036 0.432245 0.826994
Si Si5 0.921839 0.000000 0.677905
O O1 0.881688 0.277083 0.765282
O O2 0.881451 0.393493 0.772187
O O3 0.000000 0.335932 0.751931
O O4 0.927352 0.332786 0.000000
O O5 0.750000 0.750000 0.227912
O O6 0.653471 0.667878 0.254052
O O7 0.670932 0.720044 0.000000
O O8 0.825525 0.110499 0.500000
O O9 0.749710 0.084691 0.271788
O O10 0.881746 0.058077 0.264535
O O11 0.163301 0.500000 0.803147
O O12 0.202262 0.418352 0.000000
O O13 0.923690 0.000000 0.500000
O O14 0.000000 0.000000 0.744545
#
# Coordination Sequence:
#
# PCOD8269213 Si02
#       5
#    16  16  16  16   8
#     4   9  18  33  53  79 110 142 176 218 268 317
#     4  10  19  34  55  78 107 142 177 218 269 316
#     4  11  21  34  56  82 106 138 181 222 262 319
#     4  10  19  33  56  82 108 140 178 221 264 312
#     4   9  20  38  55  75 108 145 176 216 271 319
#
# _framework density 18.537213999999999
#
# number of rings (size 3 to 8) (size 9 to 14) (size 15 to 20)
#    0.000    2.111    3.333    0.667    0.000    1.778 
#    0.000    2.222    0.000    6.667    0.000    1.556 
#    0.000    0.000    0.000    0.000    0.000    0.000 
#
# Total GULP energy -446443.626348 kJ/mol
# GULP energy per Si atom -12401.211843 kJ/mol
# Density = 1.849502 g / cm^3
# Si number density = 18.537214 Si / 1000 Ang^3
#
#
#
# Elastic Constant Matrix: (Units=GPa)
#
#
# Indices 1 2 3 4 5 6 
#
# 1 167.8109 90.4915 18.4463 0.0000 0.0000 0.0000
# 2 90.4915 186.7438 32.2042 0.0000 0.0000 0.0000
# 3 18.4463 32.2042 26.2936 0.0000 0.0000 0.0000
# 4 0.0000 0.0000 0.0000 25.1764 0.0000 0.0000
# 5 0.0000 0.0000 0.0000 0.0000 17.1685 0.0000
# 6 0.0000 0.0000 0.0000 0.0000 0.0000 35.0422
#
#
#
# Elastic Compliance Matrix: (Units=1/GPa)
#
#
# Indices 1 2 3 4 5 6 
#
# 1 0.008092 -0.003730 -0.001108 0.000000 0.000000 0.000000
# 2 -0.003730 0.008508 -0.007804 0.000000 0.000000 0.000000
# 3 -0.001108 -0.007804 0.048368 0.000000 0.000000 0.000000
# 4 0.000000 0.000000 0.000000 0.039720 0.000000 0.000000
# 5 0.000000 0.000000 0.000000 0.000000 0.058246 0.000000
# 6 0.000000 0.000000 0.000000 0.000000 0.000000 0.028537
#
#
# Mechanical properties :
#
#
# Convention : Reuss Voigt Hill
#
# Bulk Modulus (GPa) = 25.19950 73.68139 49.44044
# Shear Modulus (GPa) = 21.74056 31.45785 26.59920
#
# Velocity S-wave (km/s) = 3.42834 4.12395 3.79213
# Velocity P-wave (km/s) = 5.41247 7.90633 6.77514
#
# Compressibility (1/GPa) = 0.03968332
#
# Stress axis : x y z
#
# Youngs Moduli (GPa) = 123.57183 117.53193 20.67484
#
# Poissons Ratio (x) = 0.43842 0.02292
# Poissons Ratio (y) = 0.46095 0.16135
# Poissons Ratio (z) = 0.13698 0.91722
#
# Static dielectric constant tensor:
#      x y z
#    x 3.661310 0.000000 0.000000 
#    y 0.000000 3.705870 0.000000 
#    z 0.000000 0.000000 3.040680 
# 
# 
# High freq. dielectric constant tensor:
#      x y z
#    x 1.720010 0.000000 0.000000 
#    y 0.000000 1.739020 0.000000 
#    z 0.000000 0.000000 1.680590 
# 
# From -- ./inp_files/9203.got.cif
#   From: 2010.03.12/outbox.cif.g09.slc.cpg/sg65_5_cif.got.tgz:9203.got - 2010.04.10 20:52:16.
