data_PCOD8269463
_publ_section_title
;
Structure prediction by ZEFSAII (Michael W. Deem and Ramdas Pophale) SiO2 
 PCOD8269463
Probable space group: C M M M
;
_chemical_formula_sum "Si O2"
_cell_formula_units_Z 88
_cell_length_a 8.637831
_cell_length_b 18.881643
_cell_length_c 28.724959
_cell_angle_alpha 90.000000
_cell_angle_beta 90.000000
_cell_angle_gamma 90.000000
_cell_volume 4684.938588
_symmetry_space_group_name_H-M "C M M M"
_symmetry_group_IT_number 65
_symmetry_cell_setting 'orthorhombic'
loop_
_space_group_symop_operation_xyz
x,y,z
-x,-y,z
x,-y,-z
-x,y,-z
-x,-y,-z
x,y,-z
-x,y,z
x,-y,z
1/2+x,1/2+y,z
1/2-x,1/2-y,z
1/2+x,1/2-y,-z
1/2-x,1/2+y,-z
1/2-x,1/2-y,-z
1/2+x,1/2+y,-z
1/2-x,1/2+y,z
1/2+x,1/2-y,z
loop_
_atom_site_type_symbol
_atom_site_label
_atom_site_fract_x
_atom_site_fract_y
_atom_site_fract_z
Si Si1 0.682659 0.327507 0.049108
Si Si2 0.316101 0.325906 0.584687
Si Si3 0.183015 0.827740 0.850375
Si Si4 0.818284 0.917784 0.763424
Si Si5 0.182365 0.674260 0.316353
Si Si6 0.183958 0.079009 0.500000
O O1 0.500000 0.321720 0.049596
O O2 0.750000 0.250000 0.047659
O O3 0.735855 0.360629 0.098883
O O4 0.733908 0.366790 0.000000
O O5 0.500000 0.321556 0.587099
O O6 0.250000 0.250000 0.570314
O O7 0.252046 0.350462 0.634476
O O8 0.257059 0.381387 0.546225
O O9 0.250000 0.750000 0.841330
O O10 0.241874 0.881169 0.810837
O O11 0.000000 0.820617 0.848174
O O12 0.724844 0.885262 0.720717
O O13 0.000000 0.905012 0.755537
O O14 0.777448 0.000000 0.766989
O O15 0.250000 0.750000 0.300539
O O16 0.000000 0.682077 0.321133
O O17 0.000000 0.076980 0.500000
O O18 0.253607 0.000000 0.500000
#
# Coordination Sequence:
#
# PCOD8269463 Si02
#       6
#    16  16  16  16  16   8
#     4   8  13  22  38  62  91 119 150 193 243 291
#     4  10  19  34  57  81 106 136 170 208 250 296
#     4   9  17  29  47  70  94 124 162 203 247 296
#     4  10  21  36  52  71  99 135 171 208 254 305
#     4  11  22  37  57  80 105 132 169 213 257 305
#     4   9  19  34  53  79 108 139 174 208 244 291
#
# _framework density 18.783597
#
# number of rings (size 3 to 8) (size 9 to 14) (size 15 to 20)
#    0.000    2.455    0.000    4.091    0.000    3.273 
#    0.000    3.182    0.000    4.364    0.000    3.818 
#    0.000    0.000    0.000   31.091    0.000   15.636 
#
# Total GULP energy -545191.990725 kJ/mol
# GULP energy per Si atom -12390.727062 kJ/mol
# Density = 1.874084 g / cm^3
# Si number density = 18.783597 Si / 1000 Ang^3
#
#
#
# Elastic Constant Matrix: (Units=GPa)
#
#
# Indices 1 2 3 4 5 6 
#
# 1 57.9550 28.2881 40.1569 0.0000 0.0000 0.0000
# 2 28.2881 105.3969 93.9913 0.0000 0.0000 0.0000
# 3 40.1569 93.9913 188.0566 0.0000 0.0000 0.0000
# 4 0.0000 0.0000 0.0000 5.7299 0.0000 0.0000
# 5 0.0000 0.0000 0.0000 0.0000 8.1603 0.0000
# 6 0.0000 0.0000 0.0000 0.0000 0.0000 21.1331
#
#
#
# Elastic Compliance Matrix: (Units=1/GPa)
#
#
# Indices 1 2 3 4 5 6 
#
# 1 0.020737 -0.002917 -0.002970 0.000000 0.000000 0.000000
# 2 -0.002917 0.017528 -0.008138 0.000000 0.000000 0.000000
# 3 -0.002970 -0.008138 0.010019 0.000000 0.000000 0.000000
# 4 0.000000 0.000000 0.000000 0.174524 0.000000 0.000000
# 5 0.000000 0.000000 0.000000 0.000000 0.122544 0.000000
# 6 0.000000 0.000000 0.000000 0.000000 0.000000 0.047319
#
#
# Mechanical properties :
#
#
# Convention : Reuss Voigt Hill
#
# Bulk Modulus (GPa) = 49.42159 75.14235 62.28197
# Shear Modulus (GPa) = 11.69687 19.60280 15.64983
#
# Velocity S-wave (km/s) = 2.49814 3.23400 2.88959
# Velocity P-wave (km/s) = 5.88974 7.35093 6.66053
#
# Compressibility (1/GPa) = 0.02023407
#
# Stress axis : x y z
#
# Youngs Moduli (GPa) = 48.22413 57.05221 99.81068
#
# Poissons Ratio (x) = 0.16642 0.29645
# Poissons Ratio (y) = 0.14066 0.81222
# Poissons Ratio (z) = 0.14323 0.46427
#
# Static dielectric constant tensor:
#      x y z
#    x 3.105650 0.000000 0.000000 
#    y 0.000000 3.244290 0.000000 
#    z 0.000000 0.000000 4.193570 
# 
# 
# High freq. dielectric constant tensor:
#      x y z
#    x 1.718560 0.000000 0.000000 
#    y 0.000000 1.693680 0.000000 
#    z 0.000000 0.000000 1.760530 
# 
# From -- ./inp_files/76685.got.cif
#   From: 2010.03.12/outbox.cif.g09.slc.cpg/sg65_39_cif.got.tgz:76685.got - 2010.04.10 20:52:16.
