data_PCOD8269241
_publ_section_title
;
Structure prediction by ZEFSAII (Michael W. Deem and Ramdas Pophale) SiO2 
 PCOD8269241
Probable space group: C M M M
;
_chemical_formula_sum "Si O2"
_cell_formula_units_Z 88
_cell_length_a 20.889279
_cell_length_b 18.516092
_cell_length_c 12.641959
_cell_angle_alpha 90.000000
_cell_angle_beta 90.000000
_cell_angle_gamma 90.000000
_cell_volume 4889.755658
_symmetry_space_group_name_H-M "C M M M"
_symmetry_group_IT_number 65
_symmetry_cell_setting 'orthorhombic'
loop_
_space_group_symop_operation_xyz
x,y,z
-x,-y,z
x,-y,-z
-x,y,-z
-x,-y,-z
x,y,-z
-x,y,z
x,-y,z
1/2+x,1/2+y,z
1/2-x,1/2-y,z
1/2+x,1/2-y,-z
1/2-x,1/2+y,-z
1/2-x,1/2-y,-z
1/2+x,1/2+y,-z
1/2-x,1/2+y,z
1/2+x,1/2-y,z
loop_
_atom_site_type_symbol
_atom_site_label
_atom_site_fract_x
_atom_site_fract_y
_atom_site_fract_z
Si Si1 0.786076 0.822104 0.121130
Si Si2 0.571333 0.160287 0.274030
Si Si3 0.571806 0.834039 0.500000
Si Si4 0.319712 0.284121 0.500000
Si Si5 0.000000 0.085532 0.623423
Si Si6 0.332812 0.082120 0.879060
Si Si7 0.884489 0.177200 0.299320
O O1 0.750000 0.750000 0.161899
O O2 0.739266 0.890136 0.133507
O O3 0.849026 0.838234 0.188961
O O4 0.808040 0.811085 0.000000
O O5 0.500000 0.147263 0.229482
O O6 0.579347 0.121033 0.389870
O O7 0.620486 0.129873 0.190578
O O8 0.582131 0.244977 0.293537
O O9 0.500000 0.798818 0.500000
O O10 0.625853 0.774955 0.500000
O O11 0.250000 0.250000 0.500000
O O12 0.331033 0.329652 0.607249
O O13 0.937523 0.116525 0.681349
O O14 0.000000 0.108206 0.500000
O O15 0.000000 0.000000 0.637184
O O16 0.335285 0.000000 0.839884
O O17 0.355619 0.089456 0.000000
#
# Coordination Sequence:
#
# PCOD8269241 Si02
#       7
#    16  16   8   8   8  16  16
#     4  10  20  36  59  87 116 151 196 245 297 358
#     4  10  19  33  57  84 109 148 195 236 284 338
#     4   8  18  32  51  77 113 148 186 230 280 341
#     4  10  20  28  52  90 117 143 191 249 299 336
#     4  11  24  42  61  89 126 165 201 246 305 366
#     4  10  22  39  57  81 116 153 188 236 299 356
#     4  11  20  35  61  86 117 152 200 246 293 347
#
# _framework density 17.996808999999999
#
# number of rings (size 3 to 8) (size 9 to 14) (size 15 to 20)
#    0.000    1.909    3.636    0.545    3.818    1.455 
#    0.000    1.818    0.000    2.182    0.000    0.000 
#    0.000    0.000    0.000    0.000    0.000    0.000 
#
# Total GULP energy -545400.869385 kJ/mol
# GULP energy per Si atom -12395.474304 kJ/mol
# Density = 1.795585 g / cm^3
# Si number density = 17.996809 Si / 1000 Ang^3
#
#
#
# Elastic Constant Matrix: (Units=GPa)
#
#
# Indices 1 2 3 4 5 6 
#
# 1 113.6340 29.0943 62.8919 0.0000 0.0000 0.0000
# 2 29.0943 74.8477 29.9750 0.0000 0.0000 0.0000
# 3 62.8919 29.9750 101.5195 0.0000 0.0000 0.0000
# 4 0.0000 0.0000 0.0000 18.6226 0.0000 0.0000
# 5 0.0000 0.0000 0.0000 0.0000 32.4978 0.0000
# 6 0.0000 0.0000 0.0000 0.0000 0.0000 23.9804
#
#
#
# Elastic Compliance Matrix: (Units=1/GPa)
#
#
# Indices 1 2 3 4 5 6 
#
# 1 0.013700 -0.002185 -0.007842 0.000000 0.000000 0.000000
# 2 -0.002185 0.015501 -0.003223 0.000000 0.000000 0.000000
# 3 -0.007842 -0.003223 0.015660 0.000000 0.000000 0.000000
# 4 0.000000 0.000000 0.000000 0.053698 0.000000 0.000000
# 5 0.000000 0.000000 0.000000 0.000000 0.030771 0.000000
# 6 0.000000 0.000000 0.000000 0.000000 0.000000 0.041701
#
#
# Mechanical properties :
#
#
# Convention : Reuss Voigt Hill
#
# Bulk Modulus (GPa) = 54.46481 59.32485 56.89483
# Shear Modulus (GPa) = 24.55180 26.22284 25.38732
#
# Velocity S-wave (km/s) = 3.69756 3.82132 3.75995
# Velocity P-wave (km/s) = 6.96839 7.24607 7.10859
#
# Compressibility (1/GPa) = 0.01836048
#
# Stress axis : x y z
#
# Youngs Moduli (GPa) = 72.99375 64.51380 63.85601
#
# Poissons Ratio (x) = 0.14094 0.50076
# Poissons Ratio (y) = 0.15947 0.20583
# Poissons Ratio (z) = 0.57242 0.20795
#
# Static dielectric constant tensor:
#      x y z
#    x 3.228730 0.000000 0.000000 
#    y 0.000000 3.090910 0.000000 
#    z 0.000000 0.000000 3.699820 
# 
# 
# High freq. dielectric constant tensor:
#      x y z
#    x 1.699640 0.000000 0.000000 
#    y 0.000000 1.663670 0.000000 
#    z 0.000000 0.000000 1.711360 
# 
# From -- ./inp_files/28757.got.cif
#   From: 2010.03.12/outbox.cif.g09.slc.cpg/sg65_15_cif.got.tgz:28757.got - 2010.04.10 20:52:16.
