data_PCOD8269025
_publ_section_title
;
Structure prediction by ZEFSAII (Michael W. Deem and Ramdas Pophale) SiO2 
 PCOD8269025
Probable space group: C M M M
;
_chemical_formula_sum "Si O2"
_cell_formula_units_Z 88
_cell_length_a 13.751027
_cell_length_b 18.854032
_cell_length_c 18.851289
_cell_angle_alpha 90.000000
_cell_angle_beta 90.000000
_cell_angle_gamma 90.000000
_cell_volume 4887.428602
_symmetry_space_group_name_H-M "C M M M"
_symmetry_group_IT_number 65
_symmetry_cell_setting 'orthorhombic'
loop_
_space_group_symop_operation_xyz
x,y,z
-x,-y,z
x,-y,-z
-x,y,-z
-x,-y,-z
x,y,-z
-x,y,z
x,-y,z
1/2+x,1/2+y,z
1/2-x,1/2-y,z
1/2+x,1/2-y,-z
1/2-x,1/2+y,-z
1/2-x,1/2-y,-z
1/2+x,1/2+y,-z
1/2-x,1/2+y,z
1/2+x,1/2-y,z
loop_
_atom_site_type_symbol
_atom_site_label
_atom_site_fract_x
_atom_site_fract_y
_atom_site_fract_z
Si Si1 0.610685 0.080495 0.315516
Si Si2 0.732120 0.829864 0.582181
Si Si3 0.894237 0.084666 0.810822
Si Si4 0.500000 0.084452 0.081570
Si Si5 0.687388 0.082001 0.838212
Si Si6 0.609343 0.579805 0.349788
O O1 0.500000 0.095528 0.295084
O O2 0.642940 0.135438 0.375435
O O3 0.673299 0.093522 0.245275
O O4 0.624355 0.000000 0.343107
O O5 0.703989 0.832122 0.500000
O O6 0.750000 0.750000 0.608327
O O7 0.829831 0.873298 0.596102
O O8 0.797800 0.112002 0.854336
O O9 0.885630 0.111154 0.729794
O O10 0.000000 0.110908 0.842205
O O11 0.894114 0.000000 0.810409
O O12 0.401315 0.117425 0.117141
O O13 0.500000 0.000000 0.092526
O O14 0.500000 0.106907 0.000000
O O15 0.685799 0.000000 0.858827
O O16 0.500000 0.580704 0.378407
O O17 0.651806 0.500000 0.350533
#
# Coordination Sequence:
#
# PCOD8269025 Si02
#       6
#    16  16  16   8  16  16
#     4  10  19  33  54  75  93 123 171 219 257 298
#     4  11  24  37  47  64  96 135 166 201 259 319
#     4   8  13  22  41  68  90 111 150 204 252 286
#     4   9  16  24  38  68 107 139 161 187 241 312
#     4   9  14  24  44  68  95 127 160 199 247 295
#     4   9  17  31  52  73  89 112 157 214 257 293
#
# _framework density 18.005379000000001
#
# number of rings (size 3 to 8) (size 9 to 14) (size 15 to 20)
#    0.000    2.636    2.727    1.636    0.000    2.909 
#    0.000    3.636    0.000    0.545    0.000    3.818 
#    0.000    0.727    0.000    0.000    0.000    0.000 
#
# Total GULP energy -545100.694084 kJ/mol
# GULP energy per Si atom -12388.652138 kJ/mol
# Density = 1.796440 g / cm^3
# Si number density = 18.005379 Si / 1000 Ang^3
#
#
#
# Elastic Constant Matrix: (Units=GPa)
#
#
# Indices 1 2 3 4 5 6 
#
# 1 168.7926 24.1387 35.4727 0.0000 0.0000 0.0000
# 2 24.1387 47.3927 18.1889 0.0000 0.0000 0.0000
# 3 35.4727 18.1889 46.3089 0.0000 0.0000 0.0000
# 4 0.0000 0.0000 0.0000 1.4957 0.0000 0.0000
# 5 0.0000 0.0000 0.0000 0.0000 21.2237 0.0000
# 6 0.0000 0.0000 0.0000 0.0000 0.0000 8.0748
#
#
#
# Elastic Compliance Matrix: (Units=1/GPa)
#
#
# Indices 1 2 3 4 5 6 
#
# 1 0.007193 -0.001824 -0.004793 0.000000 0.000000 0.000000
# 2 -0.001824 0.025308 -0.008543 0.000000 0.000000 0.000000
# 3 -0.004793 -0.008543 0.028621 0.000000 0.000000 0.000000
# 4 0.000000 0.000000 0.000000 0.668571 0.000000 0.000000
# 5 0.000000 0.000000 0.000000 0.000000 0.047117 0.000000
# 6 0.000000 0.000000 0.000000 0.000000 0.000000 0.123842
#
#
# Mechanical properties :
#
#
# Convention : Reuss Voigt Hill
#
# Bulk Modulus (GPa) = 32.46608 46.45496 39.46052
# Shear Modulus (GPa) = 5.31214 18.47177 11.89196
#
# Velocity S-wave (km/s) = 1.71951 3.20645 2.57274
# Velocity P-wave (km/s) = 4.69178 6.29007 5.54877
#
# Compressibility (1/GPa) = 0.03080137
#
# Stress axis : x y z
#
# Youngs Moduli (GPa) = 139.03241 39.51310 34.93904
#
# Poissons Ratio (x) = 0.07207 0.16747
# Poissons Ratio (y) = 0.25357 0.29849
# Poissons Ratio (z) = 0.66641 0.33757
#
# Static dielectric constant tensor:
#      x y z
#    x 3.865380 0.000000 0.000000 
#    y 0.000000 2.833330 0.000000 
#    z 0.000000 0.000000 2.970570 
# 
# 
# High freq. dielectric constant tensor:
#      x y z
#    x 1.729630 0.000000 0.000000 
#    y 0.000000 1.632260 0.000000 
#    z 0.000000 0.000000 1.658530 
# 
# From -- ./inp_files/53019.got.cif
#   From: 2010.03.12/outbox.cif.g09.slc.cpg/sg65_27_cif.got.tgz:53019.got - 2010.04.10 20:52:16.
