data_PCOD8269379
_publ_section_title
;
Structure prediction by ZEFSAII (Michael W. Deem and Ramdas Pophale) SiO2 
 PCOD8269379
Probable space group: C M M M
;
_chemical_formula_sum "Si O2"
_cell_formula_units_Z 88
_cell_length_a 28.215979
_cell_length_b 18.152562
_cell_length_c 9.751178
_cell_angle_alpha 90.000000
_cell_angle_beta 90.000000
_cell_angle_gamma 90.000000
_cell_volume 4994.478367
_symmetry_space_group_name_H-M "C M M M"
_symmetry_group_IT_number 65
_symmetry_cell_setting 'orthorhombic'
loop_
_space_group_symop_operation_xyz
x,y,z
-x,-y,z
x,-y,-z
-x,y,-z
-x,-y,-z
x,y,-z
-x,y,z
x,-y,z
1/2+x,1/2+y,z
1/2-x,1/2-y,z
1/2+x,1/2-y,-z
1/2-x,1/2+y,-z
1/2-x,1/2-y,-z
1/2+x,1/2+y,-z
1/2-x,1/2+y,z
1/2+x,1/2-y,z
loop_
_atom_site_type_symbol
_atom_site_label
_atom_site_fract_x
_atom_site_fract_y
_atom_site_fract_z
Si Si1 0.389640 0.180702 0.839682
Si Si2 0.444148 0.412625 0.500000
Si Si3 0.701559 0.915601 0.842608
Si Si4 0.768804 0.169870 0.657435
Si Si5 0.055617 0.581125 0.649910
Si Si6 0.122832 0.186546 0.350907
O O1 0.341341 0.138502 0.805014
O O2 0.431713 0.134961 0.772846
O O3 0.391427 0.260947 0.772796
O O4 0.398943 0.188938 0.000000
O O5 0.438488 0.500000 0.500000
O O6 0.500000 0.390204 0.500000
O O7 0.416658 0.379055 0.365680
O O8 0.745354 0.893850 0.747756
O O9 0.686742 0.000000 0.813983
O O10 0.716740 0.904917 0.000000
O O11 0.754032 0.157998 0.500000
O O12 0.750000 0.250000 0.707282
O O13 0.824603 0.157159 0.680663
O O14 0.074379 0.608524 0.500000
O O15 0.076733 0.500000 0.680256
O O16 0.000000 0.576411 0.644328
O O17 0.124775 0.228290 0.500000
#
# Coordination Sequence:
#
# PCOD8269379 Si02
#       6
#    16   8  16  16  16  16
#     4  11  21  34  53  79 115 151 187 230 277 333
#     4   9  20  40  65  88 109 139 180 233 292 348
#     4  10  22  36  51  76 113 158 198 227 269 335
#     4  10  19  34  55  79 110 143 182 238 287 327
#     4   9  19  35  53  73 102 144 192 239 283 325
#     4   9  20  36  58  85 109 138 183 228 279 344
#
# _framework density 17.619458000000002
#
# number of rings (size 3 to 8) (size 9 to 14) (size 15 to 20)
#    0.545    1.727    1.818    1.636    0.000    5.091 
#    0.000    0.909    0.000    0.545    0.000    1.273 
#    0.000    0.000    0.000    0.000    0.000    0.000 
#
# Total GULP energy -545302.459022 kJ/mol
# GULP energy per Si atom -12393.237705 kJ/mol
# Density = 1.757936 g / cm^3
# Si number density = 17.619458 Si / 1000 Ang^3
#
#
#
# Elastic Constant Matrix: (Units=GPa)
#
#
# Indices 1 2 3 4 5 6 
#
# 1 93.4021 48.2414 36.3198 0.0000 0.0000 0.0000
# 2 48.2414 100.7146 54.6705 0.0000 0.0000 0.0000
# 3 36.3198 54.6705 94.6257 0.0000 0.0000 0.0000
# 4 0.0000 0.0000 0.0000 16.2330 0.0000 0.0000
# 5 0.0000 0.0000 0.0000 0.0000 23.6776 0.0000
# 6 0.0000 0.0000 0.0000 0.0000 0.0000 35.6391
#
#
#
# Elastic Compliance Matrix: (Units=1/GPa)
#
#
# Indices 1 2 3 4 5 6 
#
# 1 0.014553 -0.005738 -0.002271 0.000000 0.000000 0.000000
# 2 -0.005738 0.016728 -0.007462 0.000000 0.000000 0.000000
# 3 -0.002271 -0.007462 0.015751 0.000000 0.000000 0.000000
# 4 0.000000 0.000000 0.000000 0.061603 0.000000 0.000000
# 5 0.000000 0.000000 0.000000 0.000000 0.042234 0.000000
# 6 0.000000 0.000000 0.000000 0.000000 0.000000 0.028059
#
#
# Mechanical properties :
#
#
# Convention : Reuss Voigt Hill
#
# Bulk Modulus (GPa) = 62.15073 63.02287 62.58680
# Shear Modulus (GPa) = 23.23052 25.07733 24.15392
#
# Velocity S-wave (km/s) = 3.63500 3.77672 3.70654
# Velocity P-wave (km/s) = 7.27792 7.40707 7.34278
#
# Compressibility (1/GPa) = 0.01608992
#
# Stress axis : x y z
#
# Youngs Moduli (GPa) = 68.71400 59.77839 63.48844
#
# Poissons Ratio (x) = 0.34303 0.14415
# Poissons Ratio (y) = 0.39430 0.47378
# Poissons Ratio (z) = 0.15602 0.44609
#
# Static dielectric constant tensor:
#      x y z
#    x 3.210250 0.000000 0.000000 
#    y 0.000000 3.138930 0.000000 
#    z 0.000000 0.000000 3.234010 
# 
# 
# High freq. dielectric constant tensor:
#      x y z
#    x 1.678990 0.000000 0.000000 
#    y 0.000000 1.667580 0.000000 
#    z 0.000000 0.000000 1.673830 
# 
# From -- ./inp_files/18516.got.cif
#   From: 2010.03.12/outbox.cif.g09.slc.cpg/sg65_10_cif.got.tgz:18516.got - 2010.04.10 20:52:16.
