data_PCOD8269120
_publ_section_title
;
Structure prediction by ZEFSAII (Michael W. Deem and Ramdas Pophale) SiO2 
 PCOD8269120
Probable space group: C M M M
;
_chemical_formula_sum "Si O2"
_cell_formula_units_Z 112
_cell_length_a 13.857004
_cell_length_b 13.873766
_cell_length_c 30.464147
_cell_angle_alpha 90.000000
_cell_angle_beta 90.000000
_cell_angle_gamma 90.000000
_cell_volume 5856.696647
_symmetry_space_group_name_H-M "C M M M"
_symmetry_group_IT_number 65
_symmetry_cell_setting 'orthorhombic'
loop_
_space_group_symop_operation_xyz
x,y,z
-x,-y,z
x,-y,-z
-x,y,-z
-x,-y,-z
x,y,-z
-x,y,z
x,-y,z
1/2+x,1/2+y,z
1/2-x,1/2-y,z
1/2+x,1/2-y,-z
1/2-x,1/2+y,-z
1/2-x,1/2-y,-z
1/2+x,1/2+y,-z
1/2-x,1/2+y,z
1/2+x,1/2-y,z
loop_
_atom_site_type_symbol
_atom_site_label
_atom_site_fract_x
_atom_site_fract_y
_atom_site_fract_z
Si Si1 0.717497 0.613213 0.366365
Si Si2 0.390570 0.214032 0.226713
Si Si3 0.109782 0.283547 0.948838
Si Si4 0.784051 0.890349 0.088210
Si Si5 0.609842 0.218833 0.671565
Si Si6 0.107654 0.114021 0.451679
Si Si7 0.284835 0.609511 0.190536
O O1 0.704272 0.500000 0.357811
O O2 0.648465 0.671659 0.333094
O O3 0.827924 0.645146 0.358274
O O4 0.686172 0.645515 0.415498
O O5 0.500000 0.201470 0.210711
O O6 0.380064 0.189539 0.277876
O O7 0.357248 0.323652 0.218002
O O8 0.325711 0.139200 0.199680
O O9 0.140907 0.173815 0.939092
O O10 0.174571 0.357700 0.921353
O O11 0.000000 0.299032 0.934114
O O12 0.124152 0.304509 0.000000
O O13 0.806012 0.876985 0.139353
O O14 0.797914 0.000000 0.073138
O O15 0.500000 0.211620 0.655429
O O16 0.138179 0.153340 0.500000
O O17 0.000000 0.152806 0.439486
O O18 0.103328 0.000000 0.453142
O O19 0.301731 0.500000 0.205585
#
# Coordination Sequence:
#
# PCOD8269120 Si02
#       7
#    16  16  16  16  16  16  16
#     4  10  19  33  55  76  99 136 174 210 255 306
#     4  10  21  37  55  74 103 140 171 209 260 308
#     4  10  21  36  55  79 106 139 177 212 250 302
#     4  10  21  36  55  79 107 137 169 212 262 306
#     4  10  22  36  50  76 108 134 169 215 259 306
#     4   8  14  26  47  76 105 132 168 213 257 303
#     4  10  21  36  55  80 105 132 172 216 257 306
#
# _framework density 19.123408000000001
#
# number of rings (size 3 to 8) (size 9 to 14) (size 15 to 20)
#    0.000    2.286    0.000    5.143    0.000    8.000 
#    0.000    8.571    0.000    1.286    0.000    2.000 
#    0.000    0.000    0.000    0.000    0.000    0.000 
#
# Total GULP energy -694316.675975 kJ/mol
# GULP energy per Si atom -12398.512071 kJ/mol
# Density = 1.907988 g / cm^3
# Si number density = 19.123408 Si / 1000 Ang^3
#
#
#
# Elastic Constant Matrix: (Units=GPa)
#
#
# Indices 1 2 3 4 5 6 
#
# 1 89.7341 -7.3727 22.5883 0.0000 0.0000 0.0000
# 2 -7.3727 56.3162 12.5714 0.0000 0.0000 0.0000
# 3 22.5883 12.5714 50.5305 0.0000 0.0000 0.0000
# 4 0.0000 0.0000 0.0000 22.5869 0.0000 0.0000
# 5 0.0000 0.0000 0.0000 0.0000 22.0091 0.0000
# 6 0.0000 0.0000 0.0000 0.0000 0.0000 13.6637
#
#
#
# Elastic Compliance Matrix: (Units=1/GPa)
#
#
# Indices 1 2 3 4 5 6 
#
# 1 0.013078 0.003195 -0.006641 0.000000 0.000000 0.000000
# 2 0.003195 0.019581 -0.006300 0.000000 0.000000 0.000000
# 3 -0.006641 -0.006300 0.024326 0.000000 0.000000 0.000000
# 4 0.000000 0.000000 0.000000 0.044274 0.000000 0.000000
# 5 0.000000 0.000000 0.000000 0.000000 0.045436 0.000000
# 6 0.000000 0.000000 0.000000 0.000000 0.000000 0.073187
#
#
# Mechanical properties :
#
#
# Convention : Reuss Voigt Hill
#
# Bulk Modulus (GPa) = 26.67136 28.01719 27.34428
# Shear Modulus (GPa) = 19.85139 22.90486 21.37813
#
# Velocity S-wave (km/s) = 3.22540 3.46459 3.34713
# Velocity P-wave (km/s) = 5.27714 5.53959 5.40996
#
# Compressibility (1/GPa) = 0.03749340
#
# Stress axis : x y z
#
# Youngs Moduli (GPa) = 76.46301 51.06889 41.10826
#
# Poissons Ratio (x) = -0.16315 0.27300
# Poissons Ratio (y) = -0.24427 0.25897
# Poissons Ratio (z) = 0.50779 0.32172
#
# Static dielectric constant tensor:
#      x y z
#    x 3.567930 0.000000 0.000000 
#    y 0.000000 3.375370 0.000000 
#    z 0.000000 0.000000 3.641270 
# 
# 
# High freq. dielectric constant tensor:
#      x y z
#    x 1.742050 0.000000 0.000000 
#    y 0.000000 1.728300 0.000000 
#    z 0.000000 0.000000 1.750120 
# 
# From -- ./inp_files/74887.got.cif
#   From: 2010.03.12/outbox.cif.g09.slc.cpg/sg65_38_cif.got.tgz:74887.got - 2010.04.10 20:52:16.
