data_PCOD8269709
_publ_section_title
;
Structure prediction by ZEFSAII (Michael W. Deem and Ramdas Pophale) SiO2 
 PCOD8269709
Probable space group: C M M M
;
_chemical_formula_sum "Si O2"
_cell_formula_units_Z 56
_cell_length_a 14.170508
_cell_length_b 25.087106
_cell_length_c 9.531233
_cell_angle_alpha 90.000000
_cell_angle_beta 90.000000
_cell_angle_gamma 90.000000
_cell_volume 3388.325083
_symmetry_space_group_name_H-M "C M M M"
_symmetry_group_IT_number 65
_symmetry_cell_setting 'orthorhombic'
loop_
_space_group_symop_operation_xyz
x,y,z
-x,-y,z
x,-y,-z
-x,y,-z
-x,-y,-z
x,y,-z
-x,y,z
x,-y,z
1/2+x,1/2+y,z
1/2-x,1/2-y,z
1/2+x,1/2-y,-z
1/2-x,1/2+y,-z
1/2-x,1/2-y,-z
1/2+x,1/2+y,-z
1/2-x,1/2+y,z
1/2+x,1/2-y,z
loop_
_atom_site_type_symbol
_atom_site_label
_atom_site_fract_x
_atom_site_fract_y
_atom_site_fract_z
Si Si1 0.391919 0.280539 0.841139
Si Si2 0.226012 0.140926 0.655404
Si Si3 0.393399 0.155616 0.160833
Si Si4 0.611090 0.561899 0.500000
O O1 0.500000 0.295720 0.812352
O O2 0.327101 0.312046 0.734664
O O3 0.375696 0.218188 0.817573
O O4 0.363612 0.296058 0.000000
O O5 0.254678 0.161816 0.500000
O O6 0.320074 0.124039 0.740420
O O7 0.157513 0.089246 0.638748
O O8 0.500000 0.140532 0.205081
O O9 0.375937 0.139343 0.000000
O O10 0.636048 0.500000 0.500000
O O11 0.500000 0.572418 0.500000
#
# Coordination Sequence:
#
# PCOD8269709 Si02
#       4
#    16  16  16   8
#     4   9  17  29  46  70 103 138 165 191 229 283
#     4  10  20  29  49  74  94 126 168 204 240 281
#     4   9  18  32  48  70 105 141 164 186 226 282
#     4   9  20  38  54  69  93 123 154 198 258 303
#
# _framework density 16.527341
#
# number of rings (size 3 to 8) (size 9 to 14) (size 15 to 20)
#    0.857    1.857    0.000    4.286    0.000    5.143 
#    0.000    2.857    0.000    5.143    0.000   12.000 
#    0.000    0.000    0.000    0.000    0.000    0.000 
#
# Total GULP energy -347028.432599 kJ/mol
# GULP energy per Si atom -12393.872593 kJ/mol
# Density = 1.648972 g / cm^3
# Si number density = 16.527341 Si / 1000 Ang^3
#
#
#
# Elastic Constant Matrix: (Units=GPa)
#
#
# Indices 1 2 3 4 5 6 
#
# 1 130.4058 44.5112 70.6310 0.0000 0.0000 0.0000
# 2 44.5112 38.3267 27.7745 0.0000 0.0000 0.0000
# 3 70.6310 27.7745 98.4933 0.0000 0.0000 0.0000
# 4 0.0000 0.0000 0.0000 4.0304 0.0000 0.0000
# 5 0.0000 0.0000 0.0000 0.0000 38.8875 0.0000
# 6 0.0000 0.0000 0.0000 0.0000 0.0000 19.3445
#
#
#
# Elastic Compliance Matrix: (Units=1/GPa)
#
#
# Indices 1 2 3 4 5 6 
#
# 1 0.016689 -0.013459 -0.008172 0.000000 0.000000 0.000000
# 2 -0.013459 0.043648 -0.002656 0.000000 0.000000 0.000000
# 3 -0.008172 -0.002656 0.016763 0.000000 0.000000 0.000000
# 4 0.000000 0.000000 0.000000 0.248114 0.000000 0.000000
# 5 0.000000 0.000000 0.000000 0.000000 0.025715 0.000000
# 6 0.000000 0.000000 0.000000 0.000000 0.000000 0.051694
#
#
# Mechanical properties :
#
#
# Convention : Reuss Voigt Hill
#
# Bulk Modulus (GPa) = 35.05966 61.45101 48.25534
# Shear Modulus (GPa) = 10.85291 20.73977 15.79634
#
# Velocity S-wave (km/s) = 2.56533 3.54627 3.09491
# Velocity P-wave (km/s) = 5.48030 7.35052 6.48320
#
# Compressibility (1/GPa) = 0.02852281
#
# Stress axis : x y z
#
# Youngs Moduli (GPa) = 59.92050 22.91065 59.65674
#
# Poissons Ratio (x) = 0.30836 0.48753
# Poissons Ratio (y) = 0.80650 0.15847
# Poissons Ratio (z) = 0.48969 0.06086
#
# Static dielectric constant tensor:
#      x y z
#    x 3.387780 0.000000 0.000000 
#    y 0.000000 2.632990 0.000000 
#    z 0.000000 0.000000 3.113210 
# 
# 
# High freq. dielectric constant tensor:
#      x y z
#    x 1.658310 0.000000 0.000000 
#    y 0.000000 1.582080 0.000000 
#    z 0.000000 0.000000 1.632770 
# 
# From -- ./inp_files/6990.got.cif
#   From: 2010.03.12/outbox.cif.g09.slc.cpg/sg65_4_cif.got.tgz:6990.got - 2010.04.10 20:52:16.
