data_PCOD8269779
_publ_section_title
;
Structure prediction by ZEFSAII (Michael W. Deem and Ramdas Pophale) SiO2 
 PCOD8269779
Probable space group: C M M M
;
_chemical_formula_sum "Si O2"
_cell_formula_units_Z 80
_cell_length_a 20.815002
_cell_length_b 17.819021
_cell_length_c 13.819018
_cell_angle_alpha 90.000000
_cell_angle_beta 90.000000
_cell_angle_gamma 90.000000
_cell_volume 5125.514649
_symmetry_space_group_name_H-M "C M M M"
_symmetry_group_IT_number 65
_symmetry_cell_setting 'orthorhombic'
loop_
_space_group_symop_operation_xyz
x,y,z
-x,-y,z
x,-y,-z
-x,y,-z
-x,-y,-z
x,y,-z
-x,y,z
x,-y,z
1/2+x,1/2+y,z
1/2-x,1/2-y,z
1/2+x,1/2-y,-z
1/2-x,1/2+y,-z
1/2-x,1/2-y,-z
1/2+x,1/2+y,-z
1/2-x,1/2+y,z
1/2+x,1/2-y,z
loop_
_atom_site_type_symbol
_atom_site_label
_atom_site_fract_x
_atom_site_fract_y
_atom_site_fract_z
Si Si1 0.500000 0.315574 0.105673
Si Si2 0.000000 0.636954 0.106428
Si Si3 0.248092 0.915591 0.889903
Si Si4 0.574139 0.912426 0.609817
Si Si5 0.863264 0.804007 0.116378
Si Si6 0.630108 0.857088 0.794612
O O1 0.500000 0.226051 0.100193
O O2 0.431986 0.338589 0.154581
O O3 0.500000 0.352561 0.000000
O O4 0.935436 0.609831 0.159522
O O5 0.000000 0.600919 0.000000
O O6 0.192276 0.860611 0.852204
O O7 0.310935 0.909759 0.824192
O O8 0.221278 0.000000 0.883261
O O9 0.266389 0.894335 0.000000
O O10 0.594681 0.894586 0.500000
O O11 0.500000 0.889865 0.626026
O O12 0.619617 0.862080 0.678968
O O13 0.584139 0.000000 0.632887
O O14 0.851114 0.725989 0.170528
O O15 0.865814 0.790448 0.000000
#
# Coordination Sequence:
#
# PCOD8269779 Si02
#       6
#     8   8  16  16  16  16
#     4   7  12  24  41  60  81 107 142 184 220 253
#     4   9  16  24  38  65  95 117 143 179 217 258
#     4  10  20  31  42  62  94 129 161 189 222 269
#     4   9  18  32  47  65  92 123 153 185 225 274
#     4   9  17  29  46  67  92 121 154 190 227 270
#     4  11  17  28  47  68  88 120 156 190 224 266
#
# _framework density 15.608188999999999
#
# number of rings (size 3 to 8) (size 9 to 14) (size 15 to 20)
#    0.000    2.600    1.000    4.800    0.000    1.600 
#    0.000    0.500    0.000    7.800    0.000    0.000 
#    0.000    0.000    0.000    2.200    0.000    0.200 
#
# Total GULP energy -495692.098968 kJ/mol
# GULP energy per Si atom -12392.302474 kJ/mol
# Density = 1.557266 g / cm^3
# Si number density = 15.608189 Si / 1000 Ang^3
#
#
#
# Elastic Constant Matrix: (Units=GPa)
#
#
# Indices 1 2 3 4 5 6 
#
# 1 100.8991 34.8927 37.3174 0.0000 0.0000 0.0000
# 2 34.8927 58.9431 31.8712 0.0000 0.0000 0.0000
# 3 37.3174 31.8712 82.5662 0.0000 0.0000 0.0000
# 4 0.0000 0.0000 0.0000 12.3856 0.0000 0.0000
# 5 0.0000 0.0000 0.0000 0.0000 19.1442 0.0000
# 6 0.0000 0.0000 0.0000 0.0000 0.0000 15.6397
#
#
#
# Elastic Compliance Matrix: (Units=1/GPa)
#
#
# Indices 1 2 3 4 5 6 
#
# 1 0.013327 -0.005854 -0.003764 0.000000 0.000000 0.000000
# 2 -0.005854 0.024012 -0.006623 0.000000 0.000000 0.000000
# 3 -0.003764 -0.006623 0.016369 0.000000 0.000000 0.000000
# 4 0.000000 0.000000 0.000000 0.080739 0.000000 0.000000
# 5 0.000000 0.000000 0.000000 0.000000 0.052235 0.000000
# 6 0.000000 0.000000 0.000000 0.000000 0.000000 0.063940
#
#
# Mechanical properties :
#
#
# Convention : Reuss Voigt Hill
#
# Bulk Modulus (GPa) = 47.11054 50.06345 48.58700
# Shear Modulus (GPa) = 17.23065 18.65570 17.94318
#
# Velocity S-wave (km/s) = 3.32618 3.46099 3.39425
# Velocity P-wave (km/s) = 6.70821 6.93657 6.82334
#
# Compressibility (1/GPa) = 0.02122667
#
# Stress axis : x y z
#
# Youngs Moduli (GPa) = 75.03301 41.64543 61.09075
#
# Poissons Ratio (x) = 0.24381 0.22993
# Poissons Ratio (y) = 0.43927 0.40460
# Poissons Ratio (z) = 0.28241 0.27581
#
# Static dielectric constant tensor:
#      x y z
#    x 3.212050 0.000000 0.000000 
#    y 0.000000 2.680220 0.000000 
#    z 0.000000 0.000000 2.791990 
# 
# 
# High freq. dielectric constant tensor:
#      x y z
#    x 1.607350 0.000000 0.000000 
#    y 0.000000 1.572270 0.000000 
#    z 0.000000 0.000000 1.562200 
# 
# From -- ./inp_files/26721.got.cif
#   From: 2010.03.12/outbox.cif.g09.slc.cpg/sg65_14_cif.got.tgz:26721.got - 2010.04.10 20:52:16.
