data_PCOD8269368
_publ_section_title
;
Structure prediction by ZEFSAII (Michael W. Deem and Ramdas Pophale) SiO2 
 PCOD8269368
Probable space group: C M M M
;
_chemical_formula_sum "Si O2"
_cell_formula_units_Z 120
_cell_length_a 18.684034
_cell_length_b 19.806288
_cell_length_c 17.552283
_cell_angle_alpha 90.000000
_cell_angle_beta 90.000000
_cell_angle_gamma 90.000000
_cell_volume 6495.421690
_symmetry_space_group_name_H-M "C M M M"
_symmetry_group_IT_number 65
_symmetry_cell_setting 'orthorhombic'
loop_
_space_group_symop_operation_xyz
x,y,z
-x,-y,z
x,-y,-z
-x,y,-z
-x,-y,-z
x,y,-z
-x,y,z
x,-y,z
1/2+x,1/2+y,z
1/2-x,1/2-y,z
1/2+x,1/2-y,-z
1/2-x,1/2+y,-z
1/2-x,1/2-y,-z
1/2+x,1/2+y,-z
1/2-x,1/2+y,z
1/2+x,1/2-y,z
loop_
_atom_site_type_symbol
_atom_site_label
_atom_site_fract_x
_atom_site_fract_y
_atom_site_fract_z
Si Si1 0.221198 0.825012 0.584559
Si Si2 0.415685 0.000000 0.587061
Si Si3 0.639191 0.137723 0.653327
Si Si4 0.921667 0.768817 0.588673
Si Si5 0.827622 0.216953 0.911651
Si Si6 0.880027 0.575729 0.913474
Si Si7 0.219193 0.926909 0.909754
Si Si8 0.079480 0.687170 0.810029
O O1 0.219102 0.858490 0.500000
O O2 0.250000 0.750000 0.575984
O O3 0.274838 0.866286 0.639047
O O4 0.140683 0.818993 0.621252
O O5 0.391375 0.935716 0.635915
O O6 0.500000 0.000000 0.582619
O O7 0.384606 0.000000 0.500000
O O8 0.599788 0.190595 0.598140
O O9 0.626386 0.163580 0.738640
O O10 0.926271 0.783018 0.500000
O O11 0.000000 0.783462 0.626137
O O12 0.750000 0.250000 0.901423
O O13 0.826991 0.138121 0.885160
O O14 0.883245 0.251993 0.855295
O O15 0.852056 0.223764 0.000000
O O16 0.909714 0.500000 0.907580
O O17 0.799961 0.581126 0.879020
O O18 0.930958 0.623629 0.865325
O O19 0.881246 0.601645 0.000000
O O20 0.187499 0.000000 0.881203
O O21 0.224925 0.928760 0.000000
O O22 0.000000 0.710293 0.783946
#
# Coordination Sequence:
#
# PCOD8269368 Si02
#       8
#    16   8  16  16  16  16  16  16
#     4   8  15  30  52  75  99 130 170 214 258 307
#     4  11  22  36  56  76  98 144 198 232 270 327
#     4  11  22  35  48  71 109 145 182 223 266 323
#     4   9  16  30  54  80 105 132 165 211 265 318
#     4  10  19  34  55  78 102 137 186 230 271 326
#     4   9  18  34  54  73  96 133 179 219 264 325
#     4   8  14  29  55  81 101 125 169 228 274 315
#     4  12  25  35  47  71 108 146 176 221 281 329
#
# _framework density 18.474551999999999
#
# number of rings (size 3 to 8) (size 9 to 14) (size 15 to 20)
#    0.000    2.333    1.333    4.400    0.933    4.000 
#    0.000    0.667    0.000    0.400    0.000    2.333 
#    0.000    2.667    2.400    0.000    5.067    0.000 
#
# Total GULP energy -743379.694007 kJ/mol
# GULP energy per Si atom -12389.661567 kJ/mol
# Density = 1.843250 g / cm^3
# Si number density = 18.474552 Si / 1000 Ang^3
#
#
#
# Elastic Constant Matrix: (Units=GPa)
#
#
# Indices 1 2 3 4 5 6 
#
# 1 127.2795 45.1686 38.1334 0.0000 0.0000 0.0000
# 2 45.1686 105.4841 38.3878 0.0000 0.0000 0.0000
# 3 38.1334 38.3878 64.1076 0.0000 0.0000 0.0000
# 4 0.0000 0.0000 0.0000 8.9702 0.0000 0.0000
# 5 0.0000 0.0000 0.0000 0.0000 6.1156 0.0000
# 6 0.0000 0.0000 0.0000 0.0000 0.0000 21.9706
#
#
#
# Elastic Compliance Matrix: (Units=1/GPa)
#
#
# Indices 1 2 3 4 5 6 
#
# 1 0.010147 -0.002747 -0.004391 0.000000 0.000000 0.000000
# 2 -0.002747 0.012865 -0.006070 0.000000 0.000000 0.000000
# 3 -0.004391 -0.006070 0.021845 0.000000 0.000000 0.000000
# 4 0.000000 0.000000 0.000000 0.111480 0.000000 0.000000
# 5 0.000000 0.000000 0.000000 0.000000 0.163517 0.000000
# 6 0.000000 0.000000 0.000000 0.000000 0.000000 0.045515
#
#
# Mechanical properties :
#
#
# Convention : Reuss Voigt Hill
#
# Bulk Modulus (GPa) = 54.22342 60.02789 57.12565
# Shear Modulus (GPa) = 12.56494 19.09005 15.82749
#
# Velocity S-wave (km/s) = 2.61074 3.21801 2.93015
# Velocity P-wave (km/s) = 6.20500 6.80957 6.51430
#
# Compressibility (1/GPa) = 0.01844222
#
# Stress axis : x y z
#
# Youngs Moduli (GPa) = 98.54998 77.72845 45.77671
#
# Poissons Ratio (x) = 0.21353 0.20100
# Poissons Ratio (y) = 0.27073 0.27785
# Poissons Ratio (z) = 0.43272 0.47179
#
# Static dielectric constant tensor:
#      x y z
#    x 3.783380 0.000000 0.000000 
#    y 0.000000 3.545230 0.000000 
#    z 0.000000 0.000000 3.220240 
# 
# 
# High freq. dielectric constant tensor:
#      x y z
#    x 1.703630 0.000000 0.000000 
#    y 0.000000 1.695380 0.000000 
#    z 0.000000 0.000000 1.697140 
# 
# From -- ./inp_files/54986.got.cif
#   From: 2010.03.12/outbox.cif.g09.slc.cpg/sg65_28_cif.got.tgz:54986.got - 2010.04.10 20:52:16.
