data_PCOD8269146
_publ_section_title
;
Structure prediction by ZEFSAII (Michael W. Deem and Ramdas Pophale) SiO2 
 PCOD8269146
Probable space group: C M M M
;
_chemical_formula_sum "Si O2"
_cell_formula_units_Z 104
_cell_length_a 19.840650
_cell_length_b 32.376895
_cell_length_c 9.079738
_cell_angle_alpha 90.000000
_cell_angle_beta 90.000000
_cell_angle_gamma 90.000000
_cell_volume 5832.629764
_symmetry_space_group_name_H-M "C M M M"
_symmetry_group_IT_number 65
_symmetry_cell_setting 'orthorhombic'
loop_
_space_group_symop_operation_xyz
x,y,z
-x,-y,z
x,-y,-z
-x,y,-z
-x,-y,-z
x,y,-z
-x,y,z
x,-y,z
1/2+x,1/2+y,z
1/2-x,1/2-y,z
1/2+x,1/2-y,-z
1/2-x,1/2+y,-z
1/2-x,1/2-y,-z
1/2+x,1/2+y,-z
1/2-x,1/2+y,z
1/2+x,1/2-y,z
loop_
_atom_site_type_symbol
_atom_site_label
_atom_site_fract_x
_atom_site_fract_y
_atom_site_fract_z
Si Si1 0.577639 0.194884 0.170517
Si Si2 0.157728 0.930933 0.827871
Si Si3 0.155498 0.374139 0.327734
Si Si4 0.176289 0.767298 0.829102
Si Si5 0.306519 0.350574 0.673137
Si Si6 0.690128 0.953700 0.830075
Si Si7 0.579488 0.500000 0.333640
O O1 0.500000 0.205367 0.201143
O O2 0.597452 0.153996 0.259010
O O3 0.621528 0.233851 0.223452
O O4 0.592101 0.185836 0.000000
O O5 0.151815 0.885920 0.755751
O O6 0.230644 0.950519 0.797428
O O7 0.102700 0.959347 0.751521
O O8 0.141784 0.927683 0.000000
O O9 0.144023 0.376321 0.500000
O O10 0.227672 0.354592 0.285553
O O11 0.148933 0.420616 0.265601
O O12 0.250000 0.750000 0.797183
O O13 0.164629 0.807373 0.729977
O O14 0.167176 0.779055 0.000000
O O15 0.318374 0.354655 0.500000
O O16 0.666398 0.000000 0.787832
O O17 0.675274 0.944117 0.000000
O O18 0.500000 0.500000 0.336413
O O19 0.608701 0.500000 0.500000
#
# Coordination Sequence:
#
# PCOD8269146 Si02
#       7
#    16  16  16  16  16  16   8
#     4  10  21  37  56  78 106 141 180 221 268 322
#     4  10  19  34  54  77 104 138 181 224 266 316
#     4  10  20  32  50  79 110 141 175 214 264 319
#     4  10  19  33  55  80 105 139 182 228 270 316
#     4  10  20  33  52  80 110 139 174 221 275 324
#     4   9  17  31  52  79 108 136 171 218 267 313
#     4  11  23  37  53  75 107 145 182 223 274 329
#
# _framework density 17.830722000000002
#
# number of rings (size 3 to 8) (size 9 to 14) (size 15 to 20)
#    0.000    2.077    2.308    1.615    0.000    4.000 
#    0.000    0.769    0.000    3.231    0.000    3.231 
#    0.000    0.000    0.000    0.000    0.000    0.000 
#
# Total GULP energy -645004.610317 kJ/mol
# GULP energy per Si atom -12403.934814 kJ/mol
# Density = 1.779014 g / cm^3
# Si number density = 17.830722 Si / 1000 Ang^3
#
#
#
# Elastic Constant Matrix: (Units=GPa)
#
#
# Indices 1 2 3 4 5 6 
#
# 1 72.0808 51.4953 38.9951 0.0000 0.0000 0.0000
# 2 51.4953 147.9995 67.7080 0.0000 0.0000 0.0000
# 3 38.9951 67.7080 92.2400 0.0000 0.0000 0.0000
# 4 0.0000 0.0000 0.0000 11.3769 0.0000 0.0000
# 5 0.0000 0.0000 0.0000 0.0000 20.7112 0.0000
# 6 0.0000 0.0000 0.0000 0.0000 0.0000 26.3578
#
#
#
# Elastic Compliance Matrix: (Units=1/GPa)
#
#
# Indices 1 2 3 4 5 6 
#
# 1 0.019891 -0.004628 -0.005012 0.000000 0.000000 0.000000
# 2 -0.004628 0.011250 -0.006301 0.000000 0.000000 0.000000
# 3 -0.005012 -0.006301 0.017586 0.000000 0.000000 0.000000
# 4 0.000000 0.000000 0.000000 0.087897 0.000000 0.000000
# 5 0.000000 0.000000 0.000000 0.000000 0.048283 0.000000
# 6 0.000000 0.000000 0.000000 0.000000 0.000000 0.037939
#
#
# Mechanical properties :
#
#
# Convention : Reuss Voigt Hill
#
# Bulk Modulus (GPa) = 59.36874 69.85748 64.61311
# Shear Modulus (GPa) = 19.20542 21.96398 20.58470
#
# Velocity S-wave (km/s) = 3.28548 3.51352 3.40141
# Velocity P-wave (km/s) = 6.91090 7.46478 7.19317
#
# Compressibility (1/GPa) = 0.01684388
#
# Stress axis : x y z
#
# Youngs Moduli (GPa) = 50.27391 88.89009 56.86498
#
# Poissons Ratio (x) = 0.41139 0.28500
# Poissons Ratio (y) = 0.23267 0.35832
# Poissons Ratio (z) = 0.25197 0.56012
#
# Static dielectric constant tensor:
#      x y z
#    x 3.004010 0.000000 0.000000 
#    y 0.000000 3.473910 0.000000 
#    z 0.000000 0.000000 3.312140 
# 
# 
# High freq. dielectric constant tensor:
#      x y z
#    x 1.653850 0.000000 0.000000 
#    y 0.000000 1.701790 0.000000 
#    z 0.000000 0.000000 1.696000 
# 
# From -- ./inp_files/12750.got.cif
#   From: 2010.03.12/outbox.cif.g09.slc.cpg/sg65_7_cif.got.tgz:12750.got - 2010.04.10 20:52:16.
