data_PCOD8269593
_publ_section_title
;
Structure prediction by ZEFSAII (Michael W. Deem and Ramdas Pophale) SiO2 
 PCOD8269593
Probable space group: C M M M
;
_chemical_formula_sum "Si O2"
_cell_formula_units_Z 88
_cell_length_a 28.765394
_cell_length_b 9.302796
_cell_length_c 17.985307
_cell_angle_alpha 90.000000
_cell_angle_beta 90.000000
_cell_angle_gamma 90.000000
_cell_volume 4812.842834
_symmetry_space_group_name_H-M "C M M M"
_symmetry_group_IT_number 65
_symmetry_cell_setting 'orthorhombic'
loop_
_space_group_symop_operation_xyz
x,y,z
-x,-y,z
x,-y,-z
-x,y,-z
-x,-y,-z
x,y,-z
-x,y,z
x,-y,z
1/2+x,1/2+y,z
1/2-x,1/2-y,z
1/2+x,1/2-y,-z
1/2-x,1/2+y,-z
1/2-x,1/2-y,-z
1/2+x,1/2+y,-z
1/2-x,1/2+y,z
1/2+x,1/2-y,z
loop_
_atom_site_type_symbol
_atom_site_label
_atom_site_fract_x
_atom_site_fract_y
_atom_site_fract_z
Si Si1 0.794572 0.666044 0.176673
Si Si2 0.896272 0.669044 0.132930
Si Si3 0.945512 0.169595 0.000000
Si Si4 0.389939 0.828794 0.582490
Si Si5 0.794778 0.668058 0.348218
Si Si6 0.551780 0.170705 0.281203
O O1 0.782465 0.500000 0.168691
O O2 0.750000 0.750000 0.143909
O O3 0.841217 0.703914 0.130845
O O4 0.803667 0.707385 0.262227
O O5 0.905230 0.500000 0.118727
O O6 0.922130 0.761747 0.071814
O O7 0.916614 0.718355 0.212200
O O8 0.000000 0.206529 0.000000
O O9 0.936619 0.000000 0.000000
O O10 0.402414 0.771294 0.500000
O O11 0.338582 0.776418 0.604778
O O12 0.426755 0.767117 0.642146
O O13 0.391072 0.000000 0.584446
O O14 0.786476 0.500000 0.358826
O O15 0.750000 0.750000 0.379591
O O16 0.500000 0.234007 0.271546
O O17 0.550417 0.000000 0.285368
#
# Coordination Sequence:
#
# PCOD8269593 Si02
#       6
#    16  16   8  16  16  16
#     4   9  17  30  51  77 105 135 172 214 254 302
#     4  10  19  35  58  81 104 136 177 216 254 305
#     4  11  25  41  56  81 114 139 164 209 264 311
#     4   9  16  26  41  65 100 136 168 209 259 303
#     4   9  16  28  45  68  99 133 169 209 252 298
#     4   9  16  27  46  71  97 129 172 216 255 301
#
# _framework density 18.284412
#
# number of rings (size 3 to 8) (size 9 to 14) (size 15 to 20)
#    0.000    2.636    1.818    0.818    0.000    2.909 
#    0.000    2.273    0.000    0.000    0.000    0.000 
#    0.000    0.000    0.000    5.455    0.000    5.455 
#
# Total GULP energy -545489.072573 kJ/mol
# GULP energy per Si atom -12397.478922 kJ/mol
# Density = 1.824280 g / cm^3
# Si number density = 18.284412 Si / 1000 Ang^3
#
#
#
# Elastic Constant Matrix: (Units=GPa)
#
#
# Indices 1 2 3 4 5 6 
#
# 1 155.7504 46.8310 71.0441 0.0000 0.0000 0.0000
# 2 46.8310 39.1165 37.4091 0.0000 0.0000 0.0000
# 3 71.0441 37.4091 115.4857 0.0000 0.0000 0.0000
# 4 0.0000 0.0000 0.0000 10.5355 0.0000 0.0000
# 5 0.0000 0.0000 0.0000 0.0000 24.5680 0.0000
# 6 0.0000 0.0000 0.0000 0.0000 0.0000 26.3124
#
#
#
# Elastic Compliance Matrix: (Units=1/GPa)
#
#
# Indices 1 2 3 4 5 6 
#
# 1 0.010985 -0.009691 -0.003619 0.000000 0.000000 0.000000
# 2 -0.009691 0.045588 -0.008806 0.000000 0.000000 0.000000
# 3 -0.003619 -0.008806 0.013738 0.000000 0.000000 0.000000
# 4 0.000000 0.000000 0.000000 0.094918 0.000000 0.000000
# 5 0.000000 0.000000 0.000000 0.000000 0.040703 0.000000
# 6 0.000000 0.000000 0.000000 0.000000 0.000000 0.038005
#
#
# Mechanical properties :
#
#
# Convention : Reuss Voigt Hill
#
# Bulk Modulus (GPa) = 38.34297 68.99124 53.66710
# Shear Modulus (GPa) = 16.84296 22.62106 19.73201
#
# Velocity S-wave (km/s) = 3.03836 3.52117 3.28864
# Velocity P-wave (km/s) = 5.77275 7.37195 6.62082
#
# Compressibility (1/GPa) = 0.02608040
#
# Stress axis : x y z
#
# Youngs Moduli (GPa) = 91.03398 21.93560 72.79320
#
# Poissons Ratio (x) = 0.21257 0.26341
# Poissons Ratio (y) = 0.88219 0.64100
# Poissons Ratio (z) = 0.32941 0.19316
#
# Static dielectric constant tensor:
#      x y z
#    x 3.667440 0.000000 0.000000 
#    y 0.000000 2.949250 0.000000 
#    z 0.000000 0.000000 3.410010 
# 
# 
# High freq. dielectric constant tensor:
#      x y z
#    x 1.724000 0.000000 0.000000 
#    y 0.000000 1.657380 0.000000 
#    z 0.000000 0.000000 1.702640 
# 
# From -- ./inp_files/50338.got.cif
#   From: 2010.03.12/outbox.cif.g09.slc.cpg/sg65_26_cif.got.tgz:50338.got - 2010.04.10 20:52:16.
