data_PCOD8269767
_publ_section_title
;
Structure prediction by ZEFSAII (Michael W. Deem and Ramdas Pophale) SiO2 
 PCOD8269767
Probable space group: C M M M
;
_chemical_formula_sum "Si O2"
_cell_formula_units_Z 80
_cell_length_a 9.346766
_cell_length_b 29.999490
_cell_length_c 20.247282
_cell_angle_alpha 90.000000
_cell_angle_beta 90.000000
_cell_angle_gamma 90.000000
_cell_volume 5677.301694
_symmetry_space_group_name_H-M "C M M M"
_symmetry_group_IT_number 65
_symmetry_cell_setting 'orthorhombic'
loop_
_space_group_symop_operation_xyz
x,y,z
-x,-y,z
x,-y,-z
-x,y,-z
-x,-y,-z
x,y,-z
-x,y,z
x,-y,z
1/2+x,1/2+y,z
1/2-x,1/2-y,z
1/2+x,1/2-y,-z
1/2-x,1/2+y,-z
1/2-x,1/2-y,-z
1/2+x,1/2+y,-z
1/2-x,1/2+y,z
1/2+x,1/2-y,z
loop_
_atom_site_type_symbol
_atom_site_label
_atom_site_fract_x
_atom_site_fract_y
_atom_site_fract_z
Si Si1 0.162758 0.707561 0.921406
Si Si2 0.839966 0.947036 0.427853
Si Si3 0.333584 0.947897 0.161148
Si Si4 0.657947 0.947060 0.691562
Si Si5 0.665352 0.378867 0.077950
O O1 0.250000 0.750000 0.893738
O O2 0.245583 0.663722 0.896576
O O3 0.000000 0.707799 0.893839
O O4 0.159702 0.709090 0.000000
O O5 0.775673 0.933556 0.500000
O O6 0.752359 0.925737 0.367091
O O7 0.000000 0.928359 0.422212
O O8 0.840684 0.000000 0.421586
O O9 0.500000 0.935562 0.149717
O O10 0.285206 0.934400 0.235543
O O11 0.232029 0.922597 0.110508
O O12 0.309620 0.000000 0.148863
O O13 0.500000 0.927318 0.682125
O O14 0.653452 0.000000 0.685473
O O15 0.500000 0.373188 0.098633
O O16 0.680218 0.384541 0.000000
#
# Coordination Sequence:
#
# PCOD8269767 Si02
#       5
#    16  16  16  16  16
#     4   9  16  27  44  63  81  99 118 144 183 230
#     4   8  13  20  30  46  67  88 111 142 180 220
#     4   9  18  31  43  54  71  98 132 167 201 235
#     4   8  14  24  36  49  65  87 118 154 188 223
#     4  10  20  31  42  58  78  98 125 161 197 234
#
# _framework density 14.091201
#
# number of rings (size 3 to 8) (size 9 to 14) (size 15 to 20)
#    0.000    3.200    0.000    3.000    0.000    5.600 
#    0.000    6.000    0.000    0.000    0.000    0.000 
#    0.000    0.000    0.000    0.000    0.000    1.000 
#
# Total GULP energy -495701.543597 kJ/mol
# GULP energy per Si atom -12392.538590 kJ/mol
# Density = 1.405913 g / cm^3
# Si number density = 14.091201 Si / 1000 Ang^3
#
#
#
# Elastic Constant Matrix: (Units=GPa)
#
#
# Indices 1 2 3 4 5 6 
#
# 1 103.0023 42.9376 42.8870 0.0000 0.0000 0.0000
# 2 42.9376 50.0015 28.7465 0.0000 0.0000 0.0000
# 3 42.8870 28.7465 50.3829 0.0000 0.0000 0.0000
# 4 0.0000 0.0000 0.0000 0.3499 0.0000 0.0000
# 5 0.0000 0.0000 0.0000 0.0000 25.0981 0.0000
# 6 0.0000 0.0000 0.0000 0.0000 0.0000 20.8819
#
#
#
# Elastic Compliance Matrix: (Units=1/GPa)
#
#
# Indices 1 2 3 4 5 6 
#
# 1 0.017748 -0.009755 -0.009541 0.000000 0.000000 0.000000
# 2 -0.009755 0.035124 -0.011737 0.000000 0.000000 0.000000
# 3 -0.009541 -0.011737 0.034666 0.000000 0.000000 0.000000
# 4 0.000000 0.000000 0.000000 2.858236 0.000000 0.000000
# 5 0.000000 0.000000 0.000000 0.000000 0.039844 0.000000
# 6 0.000000 0.000000 0.000000 0.000000 0.000000 0.047888
#
#
# Mechanical properties :
#
#
# Convention : Reuss Voigt Hill
#
# Bulk Modulus (GPa) = 39.25914 48.05878 43.65896
# Shear Modulus (GPa) = 1.61079 15.18702 8.39890
#
# Velocity S-wave (km/s) = 1.07033 3.28650 2.44404
# Velocity P-wave (km/s) = 5.42667 6.97000 6.24619
#
# Compressibility (1/GPa) = 0.02547177
#
# Stress axis : x y z
#
# Youngs Moduli (GPa) = 56.34527 28.47075 28.84646
#
# Poissons Ratio (x) = 0.27773 0.27524
# Poissons Ratio (y) = 0.54964 0.33856
# Poissons Ratio (z) = 0.53761 0.33415
#
# Static dielectric constant tensor:
#      x y z
#    x 3.006280 0.000000 0.000000 
#    y 0.000000 2.413360 0.000000 
#    z 0.000000 0.000000 2.780990 
# 
# 
# High freq. dielectric constant tensor:
#      x y z
#    x 1.548710 0.000000 0.000000 
#    y 0.000000 1.485870 0.000000 
#    z 0.000000 0.000000 1.519690 
# 
# From -- ./inp_files/50149.got.cif
#   From: 2010.03.12/outbox.cif.g09.slc.cpg/sg65_26_cif.got.tgz:50149.got - 2010.04.10 20:52:16.
