data_PCOD8269401
_publ_section_title
;
Structure prediction by ZEFSAII (Michael W. Deem and Ramdas Pophale) SiO2 
 PCOD8269401
Probable space group: C M M M
;
_chemical_formula_sum "Si O2"
_cell_formula_units_Z 88
_cell_length_a 14.060141
_cell_length_b 26.359946
_cell_length_c 12.574433
_cell_angle_alpha 90.000000
_cell_angle_beta 90.000000
_cell_angle_gamma 90.000000
_cell_volume 4660.393667
_symmetry_space_group_name_H-M "C M M M"
_symmetry_group_IT_number 65
_symmetry_cell_setting 'orthorhombic'
loop_
_space_group_symop_operation_xyz
x,y,z
-x,-y,z
x,-y,-z
-x,y,-z
-x,-y,-z
x,y,-z
-x,y,z
x,-y,z
1/2+x,1/2+y,z
1/2-x,1/2-y,z
1/2+x,1/2-y,-z
1/2-x,1/2+y,-z
1/2-x,1/2-y,-z
1/2+x,1/2+y,-z
1/2-x,1/2+y,z
1/2+x,1/2-y,z
loop_
_atom_site_type_symbol
_atom_site_label
_atom_site_fract_x
_atom_site_fract_y
_atom_site_fract_z
Si Si1 0.796604 0.103671 0.807339
Si Si2 0.386241 0.663542 0.000000
Si Si3 0.391697 0.156612 0.802574
Si Si4 0.611727 0.223623 0.000000
Si Si5 0.887611 0.000000 0.126619
Si Si6 0.641983 0.234864 0.620617
Si Si7 0.896416 0.155138 0.380126
O O1 0.681308 0.108981 0.809138
O O2 0.824866 0.123873 0.691825
O O3 0.831454 0.046678 0.822307
O O4 0.848589 0.136828 0.895333
O O5 0.500000 0.660501 0.000000
O O6 0.343011 0.720279 0.000000
O O7 0.500000 0.136856 0.820464
O O8 0.387142 0.187321 0.692554
O O9 0.356334 0.193884 0.895408
O O10 0.500000 0.231288 0.000000
O O11 0.000000 0.000000 0.156755
O O12 0.875809 0.000000 0.000000
O O13 0.616521 0.219163 0.500000
O O14 0.750000 0.250000 0.634699
O O15 0.588158 0.286257 0.655441
O O16 0.854440 0.153949 0.500000
O O17 0.000000 0.128965 0.374447
#
# Coordination Sequence:
#
# PCOD8269401 Si02
#       7
#    16   8  16   8   8  16  16
#     4  12  23  38  61  84 112 149 193 247 298 350
#     4  11  21  34  57  87 115 149 191 235 291 351
#     4  11  23  38  55  82 121 163 200 238 284 342
#     4   9  21  35  49  79 121 154 188 229 278 343
#     4  11  24  44  66  90 112 135 184 253 317 369
#     4  10  19  34  55  85 124 164 204 241 277 329
#     4  10  20  34  55  85 121 157 191 232 287 350
#
# _framework density 18.882525000000001
#
# number of rings (size 3 to 8) (size 9 to 14) (size 15 to 20)
#    0.000    1.364    2.727    3.818    0.000    3.273 
#    0.000    0.909    0.000    2.182    0.000    0.000 
#    0.000    2.909    0.000    0.000    0.000    0.000 
#
# Total GULP energy -545457.227020 kJ/mol
# GULP energy per Si atom -12396.755160 kJ/mol
# Density = 1.883955 g / cm^3
# Si number density = 18.882525 Si / 1000 Ang^3
#
#
#
# Elastic Constant Matrix: (Units=GPa)
#
#
# Indices 1 2 3 4 5 6 
#
# 1 126.2175 60.3052 33.0422 0.0000 0.0000 0.0000
# 2 60.3052 114.9244 47.4635 0.0000 0.0000 0.0000
# 3 33.0422 47.4635 97.1255 0.0000 0.0000 0.0000
# 4 0.0000 0.0000 0.0000 27.3787 0.0000 0.0000
# 5 0.0000 0.0000 0.0000 0.0000 13.1639 0.0000
# 6 0.0000 0.0000 0.0000 0.0000 0.0000 21.6088
#
#
#
# Elastic Compliance Matrix: (Units=1/GPa)
#
#
# Indices 1 2 3 4 5 6 
#
# 1 0.010670 -0.005137 -0.001120 0.000000 0.000000 0.000000
# 2 -0.005137 0.013374 -0.004788 0.000000 0.000000 0.000000
# 3 -0.001120 -0.004788 0.013017 0.000000 0.000000 0.000000
# 4 0.000000 0.000000 0.000000 0.036525 0.000000 0.000000
# 5 0.000000 0.000000 0.000000 0.000000 0.075966 0.000000
# 6 0.000000 0.000000 0.000000 0.000000 0.000000 0.046278
#
#
# Mechanical properties :
#
#
# Convention : Reuss Voigt Hill
#
# Bulk Modulus (GPa) = 66.79178 68.87658 67.83418
# Shear Modulus (GPa) = 22.43065 25.59403 24.01234
#
# Velocity S-wave (km/s) = 3.45034 3.68562 3.56992
# Velocity P-wave (km/s) = 7.16395 7.39373 7.27975
#
# Compressibility (1/GPa) = 0.01497190
#
# Stress axis : x y z
#
# Youngs Moduli (GPa) = 93.71922 74.77046 76.82323
#
# Poissons Ratio (x) = 0.38406 0.08603
# Poissons Ratio (y) = 0.48139 0.36785
# Poissons Ratio (z) = 0.10495 0.35802
#
# Static dielectric constant tensor:
#      x y z
#    x 3.680310 0.000000 0.000000 
#    y 0.000000 3.273020 0.000000 
#    z 0.000000 0.000000 3.555250 
# 
# 
# High freq. dielectric constant tensor:
#      x y z
#    x 1.749690 0.000000 0.000000 
#    y 0.000000 1.687780 0.000000 
#    z 0.000000 0.000000 1.743040 
# 
# From -- ./inp_files/25217.got.cif
#   From: 2010.03.12/outbox.cif.g09.slc.cpg/sg65_13_cif.got.tgz:25217.got - 2010.04.10 20:52:16.
