data_PCOD8269723
_publ_section_title
;
Structure prediction by ZEFSAII (Michael W. Deem and Ramdas Pophale) SiO2 
 PCOD8269723
Probable space group: C M M M
;
_chemical_formula_sum "Si O2"
_cell_formula_units_Z 104
_cell_length_a 18.970569
_cell_length_b 15.145474
_cell_length_c 21.442577
_cell_angle_alpha 90.000000
_cell_angle_beta 90.000000
_cell_angle_gamma 90.000000
_cell_volume 6160.843904
_symmetry_space_group_name_H-M "C M M M"
_symmetry_group_IT_number 65
_symmetry_cell_setting 'orthorhombic'
loop_
_space_group_symop_operation_xyz
x,y,z
-x,-y,z
x,-y,-z
-x,y,-z
-x,-y,-z
x,y,-z
-x,y,z
x,-y,z
1/2+x,1/2+y,z
1/2-x,1/2-y,z
1/2+x,1/2-y,-z
1/2-x,1/2+y,-z
1/2-x,1/2-y,-z
1/2+x,1/2+y,-z
1/2-x,1/2+y,z
1/2+x,1/2-y,z
loop_
_atom_site_type_symbol
_atom_site_label
_atom_site_fract_x
_atom_site_fract_y
_atom_site_fract_z
Si Si1 0.418542 0.894751 0.135366
Si Si2 0.921034 0.097296 0.790761
Si Si3 0.169691 0.259093 0.790392
Si Si4 0.830057 0.258112 0.642293
Si Si5 0.080119 0.397374 0.571932
Si Si6 0.582857 0.095736 0.000000
Si Si7 0.578856 0.402806 0.357472
O O1 0.500000 0.872063 0.151356
O O2 0.366688 0.847258 0.183553
O O3 0.406838 0.000000 0.139465
O O4 0.397718 0.857480 0.065774
O O5 0.869886 0.172641 0.817333
O O6 0.920397 0.099678 0.716643
O O7 0.000000 0.115880 0.815319
O O8 0.895806 0.000000 0.813560
O O9 0.250000 0.250000 0.812862
O O10 0.164631 0.265460 0.716324
O O11 0.750000 0.250000 0.619689
O O12 0.865125 0.344882 0.614125
O O13 0.869377 0.171428 0.615646
O O14 0.092405 0.373067 0.500000
O O15 0.094606 0.500000 0.583722
O O16 0.000000 0.373688 0.591415
O O17 0.500000 0.080387 0.000000
O O18 0.620013 0.000000 0.000000
O O19 0.500000 0.383343 0.381959
O O20 0.603562 0.500000 0.380495
#
# Coordination Sequence:
#
# PCOD8269723 Si02
#       7
#    16  16  16  16  16   8  16
#     4   9  17  30  49  71  94 122 158 200 242 282
#     4   8  14  26  43  59  78 112 155 189 215 253
#     4  10  20  30  41  67 102 127 149 183 232 284
#     4  10  20  31  46  69  97 126 152 185 231 280
#     4   9  19  36  55  72  91 120 159 198 235 280
#     4   7  12  26  47  68  89 117 157 201 240 277
#     4   8  14  26  44  63  83 111 148 186 221 260
#
# _framework density 16.880804999999999
#
# number of rings (size 3 to 8) (size 9 to 14) (size 15 to 20)
#    0.000    3.154    0.000    3.231    0.000    4.000 
#    0.000    5.000    0.000    0.462    0.000    2.692 
#    0.000    3.077    0.000    0.000    0.000    0.000 
#
# Total GULP energy -644379.992955 kJ/mol
# GULP energy per Si atom -12391.922941 kJ/mol
# Density = 1.684238 g / cm^3
# Si number density = 16.880805 Si / 1000 Ang^3
#
#
#
# Elastic Constant Matrix: (Units=GPa)
#
#
# Indices 1 2 3 4 5 6 
#
# 1 120.9353 71.7660 33.0455 0.0000 0.0000 0.0000
# 2 71.7660 103.1003 28.0924 0.0000 0.0000 0.0000
# 3 33.0455 28.0924 30.5135 0.0000 0.0000 0.0000
# 4 0.0000 0.0000 0.0000 13.4766 0.0000 0.0000
# 5 0.0000 0.0000 0.0000 0.0000 14.7109 0.0000
# 6 0.0000 0.0000 0.0000 0.0000 0.0000 17.1686
#
#
#
# Elastic Compliance Matrix: (Units=1/GPa)
#
#
# Indices 1 2 3 4 5 6 
#
# 1 0.015868 -0.008494 -0.009365 0.000000 0.000000 0.000000
# 2 -0.008494 0.017494 -0.006907 0.000000 0.000000 0.000000
# 3 -0.009365 -0.006907 0.049274 0.000000 0.000000 0.000000
# 4 0.000000 0.000000 0.000000 0.074203 0.000000 0.000000
# 5 0.000000 0.000000 0.000000 0.000000 0.067977 0.000000
# 6 0.000000 0.000000 0.000000 0.000000 0.000000 0.058246
#
#
# Mechanical properties :
#
#
# Convention : Reuss Voigt Hill
#
# Bulk Modulus (GPa) = 30.20820 57.81741 44.01281
# Shear Modulus (GPa) = 14.55064 17.18090 15.86577
#
# Velocity S-wave (km/s) = 2.93911 3.19372 3.06906
# Velocity P-wave (km/s) = 5.42694 6.92276 6.21998
#
# Compressibility (1/GPa) = 0.03310359
#
# Stress axis : x y z
#
# Youngs Moduli (GPa) = 63.01838 57.16357 20.29487
#
# Poissons Ratio (x) = 0.48554 0.19007
# Poissons Ratio (y) = 0.53527 0.14018
# Poissons Ratio (z) = 0.59018 0.39482
#
# Static dielectric constant tensor:
#      x y z
#    x 3.212810 0.000000 0.000000 
#    y 0.000000 3.285100 0.000000 
#    z 0.000000 0.000000 2.897340 
# 
# 
# High freq. dielectric constant tensor:
#      x y z
#    x 1.642830 0.000000 0.000000 
#    y 0.000000 1.653420 0.000000 
#    z 0.000000 0.000000 1.611640 
# 
# From -- ./inp_files/70557.got.cif
#   From: 2010.03.12/outbox.cif.g09.slc.cpg/sg65_36_cif.got.tgz:70557.got - 2010.04.10 20:52:16.
