data_PCOD8269650
_publ_section_title
;
Structure prediction by ZEFSAII (Michael W. Deem and Ramdas Pophale) SiO2 
 PCOD8269650
Probable space group: C M M M
;
_chemical_formula_sum "Si O2"
_cell_formula_units_Z 72
_cell_length_a 10.290847
_cell_length_b 15.377031
_cell_length_c 23.094711
_cell_angle_alpha 90.000000
_cell_angle_beta 90.000000
_cell_angle_gamma 90.000000
_cell_volume 3654.568809
_symmetry_space_group_name_H-M "C M M M"
_symmetry_group_IT_number 65
_symmetry_cell_setting 'orthorhombic'
loop_
_space_group_symop_operation_xyz
x,y,z
-x,-y,z
x,-y,-z
-x,y,-z
-x,-y,-z
x,y,-z
-x,y,z
x,-y,z
1/2+x,1/2+y,z
1/2-x,1/2-y,z
1/2+x,1/2-y,-z
1/2-x,1/2+y,-z
1/2-x,1/2-y,-z
1/2+x,1/2+y,-z
1/2-x,1/2+y,z
1/2+x,1/2-y,z
loop_
_atom_site_type_symbol
_atom_site_label
_atom_site_fract_x
_atom_site_fract_y
_atom_site_fract_z
Si Si1 0.500000 0.257799 0.222704
Si Si2 0.250000 0.250000 0.300301
Si Si3 0.000000 0.596600 0.858413
Si Si4 0.500000 0.403860 0.874661
Si Si5 0.757889 0.350651 0.067295
Si Si6 0.852256 0.672822 0.500000
Si Si7 0.350396 0.901633 0.376393
O O1 0.373144 0.268819 0.260949
O O2 0.500000 0.162660 0.194711
O O3 0.500000 0.332441 0.174966
O O4 0.264136 0.165050 0.340028
O O5 0.873722 0.606611 0.897585
O O6 0.000000 0.500000 0.831313
O O7 0.500000 0.500000 0.846347
O O8 0.376288 0.395423 0.916033
O O9 0.750000 0.250000 0.083900
O O10 0.786421 0.364858 0.000000
O O11 0.750000 0.750000 0.500000
O O12 0.828494 0.612794 0.555560
O O13 0.000000 0.710447 0.500000
O O14 0.500000 0.886065 0.359411
O O15 0.307626 0.000000 0.361377
#
# Coordination Sequence:
#
# PCOD8269650 Si02
#       7
#     8   8   8   8  16   8  16
#     4  12  26  44  63  89 126 164 220 262 310 358
#     4  12  24  41  68  88 123 170 212 270 310 358
#     4  12  25  43  67  92 123 164 209 257 309 372
#     4  12  25  43  65  90 125 164 203 253 315 376
#     4  11  22  41  68  96 127 160 196 250 319 384
#     4  10  19  35  67  96 132 170 205 251 317 384
#     4  10  21  40  66  99 129 165 213 258 314 379
#
# _framework density 19.701366
#
# number of rings (size 3 to 8) (size 9 to 14) (size 15 to 20)
#    0.000    0.889    4.444    3.000    0.000    7.556 
#    0.000    0.000    0.000    0.667    0.000    0.000 
#    0.000    0.000    0.000    0.000    0.000    0.000 
#
# Total GULP energy -446581.340194 kJ/mol
# GULP energy per Si atom -12405.037228 kJ/mol
# Density = 1.965653 g / cm^3
# Si number density = 19.701366 Si / 1000 Ang^3
#
#
#
# Elastic Constant Matrix: (Units=GPa)
#
#
# Indices 1 2 3 4 5 6 
#
# 1 129.8457 47.4897 37.4461 0.0000 0.0000 0.0000
# 2 47.4897 174.4485 60.0509 0.0000 0.0000 0.0000
# 3 37.4461 60.0509 83.4290 0.0000 0.0000 0.0000
# 4 0.0000 0.0000 0.0000 32.9640 0.0000 0.0000
# 5 0.0000 0.0000 0.0000 0.0000 69.3583 0.0000
# 6 0.0000 0.0000 0.0000 0.0000 0.0000 34.8145
#
#
#
# Elastic Compliance Matrix: (Units=1/GPa)
#
#
# Indices 1 2 3 4 5 6 
#
# 1 0.009105 -0.001425 -0.003061 0.000000 0.000000 0.000000
# 2 -0.001425 0.007844 -0.005006 0.000000 0.000000 0.000000
# 3 -0.003061 -0.005006 0.016963 0.000000 0.000000 0.000000
# 4 0.000000 0.000000 0.000000 0.030336 0.000000 0.000000
# 5 0.000000 0.000000 0.000000 0.000000 0.014418 0.000000
# 6 0.000000 0.000000 0.000000 0.000000 0.000000 0.028724
#
#
# Mechanical properties :
#
#
# Convention : Reuss Voigt Hill
#
# Bulk Modulus (GPa) = 66.98820 75.29962 71.14391
# Shear Modulus (GPa) = 38.06605 43.60977 40.83791
#
# Velocity S-wave (km/s) = 4.40039 4.70993 4.55779
# Velocity P-wave (km/s) = 7.73909 8.23902 7.99297
#
# Compressibility (1/GPa) = 0.01492800
#
# Stress axis : x y z
#
# Youngs Moduli (GPa) = 109.82451 127.49374 58.95011
#
# Poissons Ratio (x) = 0.18168 0.18046
# Poissons Ratio (y) = 0.15650 0.29511
# Poissons Ratio (z) = 0.33619 0.63824
#
# Static dielectric constant tensor:
#      x y z
#    x 3.675510 0.000000 0.000000 
#    y 0.000000 3.770300 0.000000 
#    z 0.000000 0.000000 3.634970 
# 
# 
# High freq. dielectric constant tensor:
#      x y z
#    x 1.774250 0.000000 0.000000 
#    y 0.000000 1.778170 0.000000 
#    z 0.000000 0.000000 1.774040 
# 
# From -- ./inp_files/72673.got.cif
#   From: 2010.03.12/outbox.cif.g09.slc.cpg/sg65_37_cif.got.tgz:72673.got - 2010.04.10 20:52:16.
