data_PCOD8269490
_publ_section_title
;
Structure prediction by ZEFSAII (Michael W. Deem and Ramdas Pophale) SiO2 
 PCOD8269490
Probable space group: C M M M
;
_chemical_formula_sum "Si O2"
_cell_formula_units_Z 82
_cell_length_a 17.515751
_cell_length_b 10.264248
_cell_length_c 23.569409
_cell_angle_alpha 90.000000
_cell_angle_beta 90.000000
_cell_angle_gamma 90.000000
_cell_volume 4237.450053
_symmetry_space_group_name_H-M "C M M M"
_symmetry_group_IT_number 65
_symmetry_cell_setting 'orthorhombic'
loop_
_space_group_symop_operation_xyz
x,y,z
-x,-y,z
x,-y,-z
-x,y,-z
-x,-y,-z
x,y,-z
-x,y,z
x,-y,z
1/2+x,1/2+y,z
1/2-x,1/2-y,z
1/2+x,1/2-y,-z
1/2-x,1/2+y,-z
1/2-x,1/2-y,-z
1/2+x,1/2+y,-z
1/2-x,1/2+y,z
1/2+x,1/2-y,z
loop_
_atom_site_type_symbol
_atom_site_label
_atom_site_fract_x
_atom_site_fract_y
_atom_site_fract_z
Si Si1 0.500000 0.500000 0.500000
Si Si2 0.159457 0.749173 0.869295
Si Si3 0.841777 0.000000 0.064181
Si Si4 0.191308 0.500000 0.564075
Si Si5 0.589479 0.852555 0.760866
Si Si6 0.840206 0.500000 0.936437
Si Si7 0.865987 0.000000 0.590355
Si Si8 0.336774 0.766991 0.353871
O O1 0.434629 0.500000 0.547194
O O2 0.250000 0.750000 0.866681
O O3 0.128567 0.745677 0.805211
O O4 0.128164 0.625934 0.904101
O O5 0.127602 0.875175 0.901786
O O6 0.750840 0.000000 0.062007
O O7 0.874353 0.000000 0.000000
O O8 0.158995 0.500000 0.500000
O O9 0.282953 0.500000 0.560872
O O10 0.159672 0.370201 0.594434
O O11 0.500000 0.834722 0.765485
O O12 0.614198 0.820745 0.697496
O O13 0.614820 0.000000 0.775267
O O14 0.873164 0.500000 0.000000
O O15 0.873153 0.870143 0.628220
O O16 0.250000 0.750000 0.333166
#
# Coordination Sequence:
#
# PCOD8269490 Si02
#       8
#     2  16   8   8  16   8   8  16
#     4  12  24  40  56  90 140 156 178 230 298 372
#     4  10  19  34  57  84 114 151 190 234 286 345
#     4   9  18  31  53  89 119 144 183 242 294 331
#     4  10  20  39  65  89 113 150 205 241 284 337
#     4  11  23  40  60  82 115 153 197 245 289 336
#     4   9  16  29  53  83 114 146 189 236 281 337
#     4  10  24  37  61  88 120 160 182 235 295 349
#     4  10  22  41  63  89 116 151 199 246 289 342
#
# _framework density 19.351261000000001
#
# number of rings (size 3 to 8) (size 9 to 14) (size 15 to 20)
#    0.000    1.951    2.439    1.171    2.732    4.293 
#    0.000    1.463    0.000    4.683    0.000    0.000 
#    0.000    0.000    0.000    0.000    0.000    0.000 
#
# Total GULP energy -507946.890593 kJ/mol
# GULP energy per Si atom -12388.948551 kJ/mol
# Density = 1.930722 g / cm^3
# Si number density = 19.351261 Si / 1000 Ang^3
#
#
#
# Elastic Constant Matrix: (Units=GPa)
#
#
# Indices 1 2 3 4 5 6 
#
# 1 39.8651 41.8978 37.6041 0.0000 0.0000 0.0000
# 2 41.8978 154.2023 73.8513 0.0000 0.0000 0.0000
# 3 37.6041 73.8513 155.0044 0.0000 0.0000 0.0000
# 4 0.0000 0.0000 0.0000 159.5143 0.0000 0.0000
# 5 0.0000 0.0000 0.0000 0.0000 11.2122 0.0000
# 6 0.0000 0.0000 0.0000 0.0000 0.0000 8.8940
#
#
#
# Elastic Compliance Matrix: (Units=1/GPa)
#
#
# Indices 1 2 3 4 5 6 
#
# 1 0.038595 -0.007777 -0.005658 0.000000 0.000000 0.000000
# 2 -0.007777 0.009969 -0.002863 0.000000 0.000000 0.000000
# 3 -0.005658 -0.002863 0.009188 0.000000 0.000000 0.000000
# 4 0.000000 0.000000 0.000000 0.006269 0.000000 0.000000
# 5 0.000000 0.000000 0.000000 0.000000 0.089189 0.000000
# 6 0.000000 0.000000 0.000000 0.000000 0.000000 0.112435
#
#
# Mechanical properties :
#
#
# Convention : Reuss Voigt Hill
#
# Bulk Modulus (GPa) = 39.75095 72.86423 56.30759
# Shear Modulus (GPa) = 16.30648 48.97201 32.63924
#
# Velocity S-wave (km/s) = 2.90601 5.03605 4.11137
# Velocity P-wave (km/s) = 5.64324 8.45878 7.19017
#
# Compressibility (1/GPa) = 0.02515663
#
# Stress axis : x y z
#
# Youngs Moduli (GPa) = 25.91015 100.30869 108.83557
#
# Poissons Ratio (x) = 0.78008 0.61578
# Poissons Ratio (y) = 0.20150 0.31161
# Poissons Ratio (z) = 0.14660 0.28720
#
# Static dielectric constant tensor:
#      x y z
#    x 3.202100 0.000000 0.000000 
#    y 0.000000 3.772240 0.000000 
#    z 0.000000 0.000000 3.565930 
# 
# 
# High freq. dielectric constant tensor:
#      x y z
#    x 1.722560 0.000000 0.000000 
#    y 0.000000 1.758060 0.000000 
#    z 0.000000 0.000000 1.767610 
# 
# From -- ./inp_files/63591.got.cif
#   From: 2010.03.12/outbox.cif.g09.slc.cpg/sg65_32_cif.got.tgz:63591.got - 2010.04.10 20:52:16.
