data_PCOD8269952
_publ_section_title
;
Structure prediction by ZEFSAII (Michael W. Deem and Ramdas Pophale) SiO2 
 PCOD8269952
Probable space group: C M M M
;
_chemical_formula_sum "Si O2"
_cell_formula_units_Z 88
_cell_length_a 18.509036
_cell_length_b 9.465926
_cell_length_c 28.822582
_cell_angle_alpha 90.000000
_cell_angle_beta 90.000000
_cell_angle_gamma 90.000000
_cell_volume 5049.865238
_symmetry_space_group_name_H-M "C M M M"
_symmetry_group_IT_number 65
_symmetry_cell_setting 'orthorhombic'
loop_
_space_group_symop_operation_xyz
x,y,z
-x,-y,z
x,-y,-z
-x,y,-z
-x,-y,-z
x,y,-z
-x,y,z
x,-y,z
1/2+x,1/2+y,z
1/2-x,1/2-y,z
1/2+x,1/2-y,-z
1/2-x,1/2+y,-z
1/2-x,1/2-y,-z
1/2+x,1/2+y,-z
1/2-x,1/2+y,z
1/2+x,1/2-y,z
loop_
_atom_site_type_symbol
_atom_site_label
_atom_site_fract_x
_atom_site_fract_y
_atom_site_fract_z
Si Si1 0.416907 0.663168 0.177054
Si Si2 0.676341 0.333312 0.266031
Si Si3 0.918774 0.831019 0.648493
Si Si4 0.323880 0.833870 0.000000
Si Si5 0.916970 0.335654 0.911567
Si Si6 0.085828 0.158260 0.549094
O O1 0.500000 0.698491 0.188316
O O2 0.406447 0.500000 0.164511
O O3 0.371197 0.706775 0.221649
O O4 0.388705 0.751900 0.133263
O O5 0.691308 0.500000 0.268735
O O6 0.750000 0.250000 0.262156
O O7 0.634276 0.277349 0.311429
O O8 0.889505 0.771398 0.598168
O O9 0.000000 0.775561 0.658815
O O10 0.920187 0.000000 0.646854
O O11 0.250000 0.750000 0.000000
O O12 0.369515 0.788473 0.955169
O O13 0.307718 0.000000 0.000000
O O14 0.907810 0.500000 0.900799
O O15 0.000000 0.297619 0.922755
O O16 0.109822 0.234864 0.500000
O O17 0.000000 0.152343 0.551285
O O18 0.116991 0.000000 0.547096
#
# Coordination Sequence:
#
# PCOD8269952 Si02
#       6
#    16  16  16   8  16  16
#     4   9  18  33  52  72  92 116 151 193 231 267
#     4  10  20  32  46  65  91 122 152 184 224 270
#     4   8  13  23  41  62  83 112 150 187 223 265
#     4  10  21  35  51  73 101 130 158 188 222 264
#     4   9  18  34  55  75  95 122 155 189 226 268
#     4   7   9  14  28  54  84 107 132 176 229 268
#
# _framework density 17.426207999999999
#
# number of rings (size 3 to 8) (size 9 to 14) (size 15 to 20)
#    0.000    3.273    0.000    2.455    0.000    5.455 
#    0.000    3.636    0.000    4.909    0.000    0.000 
#    0.000    0.000    0.000    4.545    0.000    3.636 
#
# Total GULP energy -545142.988529 kJ/mol
# GULP energy per Si atom -12389.613376 kJ/mol
# Density = 1.738655 g / cm^3
# Si number density = 17.426208 Si / 1000 Ang^3
#
#
#
# Elastic Constant Matrix: (Units=GPa)
#
#
# Indices 1 2 3 4 5 6 
#
# 1 86.9760 33.7574 84.5430 0.0000 0.0000 0.0000
# 2 33.7574 27.4601 51.4409 0.0000 0.0000 0.0000
# 3 84.5430 51.4409 208.1280 0.0000 0.0000 0.0000
# 4 0.0000 0.0000 0.0000 12.4529 0.0000 0.0000
# 5 0.0000 0.0000 0.0000 0.0000 3.7905 0.0000
# 6 0.0000 0.0000 0.0000 0.0000 0.0000 24.0239
#
#
#
# Elastic Compliance Matrix: (Units=1/GPa)
#
#
# Indices 1 2 3 4 5 6 
#
# 1 0.024145 -0.021060 -0.004603 0.000000 0.000000 0.000000
# 2 -0.021060 0.086184 -0.012746 0.000000 0.000000 0.000000
# 3 -0.004603 -0.012746 0.009825 0.000000 0.000000 0.000000
# 4 0.000000 0.000000 0.000000 0.080303 0.000000 0.000000
# 5 0.000000 0.000000 0.000000 0.000000 0.263818 0.000000
# 6 0.000000 0.000000 0.000000 0.000000 0.000000 0.041625
#
#
# Mechanical properties :
#
#
# Convention : Reuss Voigt Hill
#
# Bulk Modulus (GPa) = 23.07579 73.56076 48.31827
# Shear Modulus (GPa) = 8.37292 18.24166 13.30729
#
# Velocity S-wave (km/s) = 2.19436 3.23893 2.76640
# Velocity P-wave (km/s) = 4.43746 7.50279 6.16372
#
# Compressibility (1/GPa) = 0.04333546
#
# Stress axis : x y z
#
# Youngs Moduli (GPa) = 41.41587 11.60311 101.78270
#
# Poissons Ratio (x) = 0.24436 0.46849
# Poissons Ratio (y) = 0.87222 1.29737
# Poissons Ratio (z) = 0.19063 0.14790
#
# Static dielectric constant tensor:
#      x y z
#    x 3.022500 0.000000 0.000000 
#    y 0.000000 2.821040 0.000000 
#    z 0.000000 0.000000 3.817690 
# 
# 
# High freq. dielectric constant tensor:
#      x y z
#    x 1.648060 0.000000 0.000000 
#    y 0.000000 1.622980 0.000000 
#    z 0.000000 0.000000 1.702110 
# 
# From -- ./inp_files/73126.got.cif
#   From: 2010.03.12/outbox.cif.g09.slc.cpg/sg65_37_cif.got.tgz:73126.got - 2010.04.10 20:52:16.
