data_PCOD8269313
_publ_section_title
;
Structure prediction by ZEFSAII (Michael W. Deem and Ramdas Pophale) SiO2 
 PCOD8269313
Probable space group: C M M M
;
_chemical_formula_sum "Si O2"
_cell_formula_units_Z 48
_cell_length_a 18.234347
_cell_length_b 19.421581
_cell_length_c 7.829881
_cell_angle_alpha 90.000000
_cell_angle_beta 90.000000
_cell_angle_gamma 90.000000
_cell_volume 2772.872861
_symmetry_space_group_name_H-M "C M M M"
_symmetry_group_IT_number 65
_symmetry_cell_setting 'orthorhombic'
loop_
_space_group_symop_operation_xyz
x,y,z
-x,-y,z
x,-y,-z
-x,y,-z
-x,-y,-z
x,y,-z
-x,y,z
x,-y,z
1/2+x,1/2+y,z
1/2-x,1/2-y,z
1/2+x,1/2-y,-z
1/2-x,1/2+y,-z
1/2-x,1/2-y,-z
1/2+x,1/2+y,-z
1/2-x,1/2+y,z
1/2+x,1/2-y,z
loop_
_atom_site_type_symbol
_atom_site_label
_atom_site_fract_x
_atom_site_fract_y
_atom_site_fract_z
Si Si1 0.832671 0.076205 0.689367
Si Si2 0.192447 0.422698 0.500000
Si Si3 0.916037 0.797466 0.189541
Si Si4 0.413742 0.202333 0.500000
O O1 0.869171 0.080990 0.500000
O O2 0.744537 0.087726 0.667485
O O3 0.867690 0.133508 0.809710
O O4 0.847271 0.000000 0.767141
O O5 0.159753 0.500000 0.500000
O O6 0.125190 0.370883 0.500000
O O7 0.888149 0.743700 0.331457
O O8 0.000000 0.817576 0.228266
O O9 0.908178 0.764702 0.000000
O O10 0.500000 0.188331 0.500000
#
# Coordination Sequence:
#
# PCOD8269313 Si02
#       4
#    16   8  16   8
#     4   8  16  31  50  69  97 134 161 196 241 279
#     4   8  17  34  54  74  96 124 163 208 250 296
#     4  10  20  32  48  74 104 133 167 200 235 286
#     4  10  19  34  54  72  98 130 159 204 256 292
#
# _framework density 17.310566999999999
#
# number of rings (size 3 to 8) (size 9 to 14) (size 15 to 20)
#    1.000    2.000    1.667    0.000    0.000    4.333 
#    0.000    6.667    0.000    3.000    0.000    4.667 
#    0.000    0.000    0.000    0.000    0.000    0.000 
#
# Total GULP energy -297342.952738 kJ/mol
# GULP energy per Si atom -12389.289697 kJ/mol
# Density = 1.727117 g / cm^3
# Si number density = 17.310567 Si / 1000 Ang^3
#
#
#
# Elastic Constant Matrix: (Units=GPa)
#
#
# Indices 1 2 3 4 5 6 
#
# 1 52.6666 58.6285 26.5900 0.0000 0.0000 0.0000
# 2 58.6285 132.6442 47.9691 0.0000 0.0000 0.0000
# 3 26.5900 47.9691 91.1863 0.0000 0.0000 0.0000
# 4 0.0000 0.0000 0.0000 8.0401 0.0000 0.0000
# 5 0.0000 0.0000 0.0000 0.0000 13.0511 0.0000
# 6 0.0000 0.0000 0.0000 0.0000 0.0000 31.4670
#
#
#
# Elastic Compliance Matrix: (Units=1/GPa)
#
#
# Indices 1 2 3 4 5 6 
#
# 1 0.037937 -0.015767 -0.002768 0.000000 0.000000 0.000000
# 2 -0.015767 0.015863 -0.003747 0.000000 0.000000 0.000000
# 3 -0.002768 -0.003747 0.013745 0.000000 0.000000 0.000000
# 4 0.000000 0.000000 0.000000 0.124377 0.000000 0.000000
# 5 0.000000 0.000000 0.000000 0.000000 0.076622 0.000000
# 6 0.000000 0.000000 0.000000 0.000000 0.000000 0.031779
#
#
# Mechanical properties :
#
#
# Convention : Reuss Voigt Hill
#
# Bulk Modulus (GPa) = 43.51558 60.31914 51.91736
# Shear Modulus (GPa) = 14.18251 20.06561 17.12406
#
# Velocity S-wave (km/s) = 2.86544 3.40833 3.14861
# Velocity P-wave (km/s) = 6.01169 7.09999 6.57838
#
# Compressibility (1/GPa) = 0.02298028
#
# Stress axis : x y z
#
# Youngs Moduli (GPa) = 26.35979 63.03969 72.75390
#
# Poissons Ratio (x) = 0.99394 0.20139
# Poissons Ratio (y) = 0.41561 0.27262
# Poissons Ratio (z) = 0.07297 0.23622
#
# Static dielectric constant tensor:
#      x y z
#    x 2.926300 0.000000 0.000000 
#    y 0.000000 3.007520 0.000000 
#    z 0.000000 0.000000 3.069280 
# 
# 
# High freq. dielectric constant tensor:
#      x y z
#    x 1.645540 0.000000 0.000000 
#    y 0.000000 1.660100 0.000000 
#    z 0.000000 0.000000 1.649980 
# 
# From -- ./inp_files/8176.got.cif
#   From: 2010.03.12/outbox.cif.g09.slc.cpg/sg65_5_cif.got.tgz:8176.got - 2010.04.10 20:52:16.
