data_PCOD8269149
_publ_section_title
;
Structure prediction by ZEFSAII (Michael W. Deem and Ramdas Pophale) SiO2 
 PCOD8269149
Probable space group: C M M M
;
_chemical_formula_sum "Si O2"
_cell_formula_units_Z 64
_cell_length_a 17.921851
_cell_length_b 20.818288
_cell_length_c 8.589718
_cell_angle_alpha 90.000000
_cell_angle_beta 90.000000
_cell_angle_gamma 90.000000
_cell_volume 3204.843161
_symmetry_space_group_name_H-M "C M M M"
_symmetry_group_IT_number 65
_symmetry_cell_setting 'orthorhombic'
loop_
_space_group_symop_operation_xyz
x,y,z
-x,-y,z
x,-y,-z
-x,y,-z
-x,-y,-z
x,y,-z
-x,y,z
x,-y,z
1/2+x,1/2+y,z
1/2-x,1/2-y,z
1/2+x,1/2-y,-z
1/2-x,1/2+y,-z
1/2-x,1/2-y,-z
1/2+x,1/2+y,-z
1/2-x,1/2+y,z
1/2+x,1/2-y,z
loop_
_atom_site_type_symbol
_atom_site_label
_atom_site_fract_x
_atom_site_fract_y
_atom_site_fract_z
Si Si1 0.412473 0.620032 0.819386
Si Si2 0.915564 0.624051 0.185834
Si Si3 0.665922 0.250472 0.185180
Si Si4 0.167377 0.000000 0.679928
Si Si5 0.670451 0.000000 0.816378
O O1 0.500000 0.626069 0.792372
O O2 0.374962 0.685284 0.757453
O O3 0.381288 0.561990 0.718979
O O4 0.393280 0.607648 0.000000
O O5 0.877544 0.688669 0.251905
O O6 0.869717 0.563278 0.252175
O O7 0.000000 0.620161 0.248227
O O8 0.914570 0.624484 0.000000
O O9 0.750000 0.250000 0.250666
O O10 0.665968 0.247839 0.000000
O O11 0.242945 0.000000 0.777168
O O12 0.188313 0.000000 0.500000
O O13 0.661409 0.000000 0.000000
#
# Coordination Sequence:
#
# PCOD8269149 Si02
#       5
#    16  16  16   8   8
#     4  10  20  35  56  80 105 136 175 216 258 307
#     4   9  16  27  48  81 114 139 169 213 260 303
#     4   9  16  27  47  78 113 142 168 206 256 305
#     4  12  25  38  53  74 103 138 175 218 268 316
#     4  10  19  33  55  80 107 139 175 214 256 306
#
# _framework density 19.969776
#
# number of rings (size 3 to 8) (size 9 to 14) (size 15 to 20)
#    0.000    2.250    0.000    4.125    0.000   10.500 
#    0.000    0.000    0.000    8.250    0.000    0.000 
#    0.000    0.000    0.000    0.000    0.000    0.000 
#
# Total GULP energy -396863.218509 kJ/mol
# GULP energy per Si atom -12401.975578 kJ/mol
# Density = 1.992432 g / cm^3
# Si number density = 19.969776 Si / 1000 Ang^3
#
#
#
# Elastic Constant Matrix: (Units=GPa)
#
#
# Indices 1 2 3 4 5 6 
#
# 1 140.7229 76.0471 7.0455 0.0000 0.0000 0.0000
# 2 76.0471 195.2737 17.0608 0.0000 0.0000 0.0000
# 3 7.0455 17.0608 11.6657 0.0000 0.0000 0.0000
# 4 0.0000 0.0000 0.0000 -1.9843 0.0000 0.0000
# 5 0.0000 0.0000 0.0000 0.0000 2.8195 0.0000
# 6 0.0000 0.0000 0.0000 0.0000 0.0000 48.7180
#
#
#
# Elastic Compliance Matrix: (Units=1/GPa)
#
#
# Indices 1 2 3 4 5 6 
#
# 1 0.009002 -0.003475 -0.000355 0.000000 0.000000 0.000000
# 2 -0.003475 0.007212 -0.008449 0.000000 0.000000 0.000000
# 3 -0.000355 -0.008449 0.098293 0.000000 0.000000 0.000000
# 4 0.000000 0.000000 0.000000 -0.503945 0.000000 0.000000
# 5 0.000000 0.000000 0.000000 0.000000 0.354667 0.000000
# 6 0.000000 0.000000 0.000000 0.000000 0.000000 0.020526
#
#
# Mechanical properties :
#
#
# Convention : Reuss Voigt Hill
#
# Bulk Modulus (GPa) = 11.11744 60.88548 36.00146
# Shear Modulus (GPa) = 124.08074 26.41123 75.24598
#
# Velocity S-wave (km/s) = 7.89108 3.64065 6.14506
# Velocity P-wave (km/s) = 9.41301 6.94460 8.27140
#
# Compressibility (1/GPa) = 0.08994879
#
# Stress axis : x y z
#
# Youngs Moduli (GPa) = 111.09141 138.65097 10.17366
#
# Poissons Ratio (x) = 0.48175 0.00361
# Poissons Ratio (y) = 0.38599 0.08596
# Poissons Ratio (z) = 0.03945 1.17152
#
# Static dielectric constant tensor:
#      x y z
#    x 3.782040 0.000000 0.000000 
#    y 0.000000 3.959300 0.000000 
#    z 0.000000 0.000000 2.925460 
# 
# 
# High freq. dielectric constant tensor:
#      x y z
#    x 1.798710 0.000000 0.000000 
#    y 0.000000 1.801450 0.000000 
#    z 0.000000 0.000000 1.707150 
# 
# From -- ./inp_files/8845.got.cif
#   From: 2010.03.12/outbox.cif.g09.slc.cpg/sg65_5_cif.got.tgz:8845.got - 2010.04.10 20:52:16.
