data_PCOD8269181
_publ_section_title
;
Structure prediction by ZEFSAII (Michael W. Deem and Ramdas Pophale) SiO2 
 PCOD8269181
Probable space group: C M M M
;
_chemical_formula_sum "Si O2"
_cell_formula_units_Z 72
_cell_length_a 8.831638
_cell_length_b 15.559687
_cell_length_c 26.485613
_cell_angle_alpha 90.000000
_cell_angle_beta 90.000000
_cell_angle_gamma 90.000000
_cell_volume 3639.587333
_symmetry_space_group_name_H-M "C M M M"
_symmetry_group_IT_number 65
_symmetry_cell_setting 'orthorhombic'
loop_
_space_group_symop_operation_xyz
x,y,z
-x,-y,z
x,-y,-z
-x,y,-z
-x,-y,-z
x,y,-z
-x,y,z
x,-y,z
1/2+x,1/2+y,z
1/2-x,1/2-y,z
1/2+x,1/2-y,-z
1/2-x,1/2+y,-z
1/2-x,1/2-y,-z
1/2+x,1/2+y,-z
1/2-x,1/2+y,z
1/2+x,1/2-y,z
loop_
_atom_site_type_symbol
_atom_site_label
_atom_site_fract_x
_atom_site_fract_y
_atom_site_fract_z
Si Si1 0.324209 0.601212 0.897783
Si Si2 0.680038 0.000000 0.734047
Si Si3 0.670965 0.102184 0.000000
Si Si4 0.678765 0.838172 0.442355
Si Si5 0.320445 0.162321 0.797298
Si Si6 0.319445 0.000000 0.379775
O O1 0.500000 0.625025 0.894168
O O2 0.296562 0.500000 0.892073
O O3 0.259409 0.635785 0.950802
O O4 0.233492 0.649659 0.854386
O O5 0.740613 0.084439 0.762698
O O6 0.500000 0.000000 0.733939
O O7 0.743850 0.000000 0.677163
O O8 0.500000 0.138221 0.000000
O O9 0.670287 0.000000 0.000000
O O10 0.728690 0.855545 0.500000
O O11 0.500000 0.830658 0.437780
O O12 0.750000 0.750000 0.421873
O O13 0.742279 0.915728 0.408344
O O14 0.500000 0.168120 0.796036
O O15 0.250000 0.250000 0.775301
O O16 0.500000 0.000000 0.380680
#
# Coordination Sequence:
#
# PCOD8269181 Si02
#       6
#    16   8   8  16  16   8
#     4  10  19  33  55  82 112 144 181 224 271 325
#     4   9  20  37  57  79 107 142 182 231 281 330
#     4   9  17  29  50  81 114 148 181 216 267 327
#     4   9  17  30  51  79 111 146 184 225 270 323
#     4  11  22  38  58  81 107 141 184 228 279 333
#     4   9  17  32  54  78 105 143 188 227 270 326
#
# _framework density 19.782461000000001
#
# number of rings (size 3 to 8) (size 9 to 14) (size 15 to 20)
#    0.000    2.333    1.111    2.000    0.000    4.444 
#    0.000    1.111    0.000    6.667    0.000    0.000 
#    0.000    0.000    0.000    0.000    0.000    0.000 
#
# Total GULP energy -446484.005743 kJ/mol
# GULP energy per Si atom -12402.333493 kJ/mol
# Density = 1.973744 g / cm^3
# Si number density = 19.782461 Si / 1000 Ang^3
#
#
#
# Elastic Constant Matrix: (Units=GPa)
#
#
# Indices 1 2 3 4 5 6 
#
# 1 64.1817 38.3726 27.6860 0.0000 0.0000 0.0000
# 2 38.3726 154.2007 85.9975 0.0000 0.0000 0.0000
# 3 27.6860 85.9975 143.0530 0.0000 0.0000 0.0000
# 4 0.0000 0.0000 0.0000 7.7831 0.0000 0.0000
# 5 0.0000 0.0000 0.0000 0.0000 16.1624 0.0000
# 6 0.0000 0.0000 0.0000 0.0000 0.0000 30.0822
#
#
#
# Elastic Compliance Matrix: (Units=1/GPa)
#
#
# Indices 1 2 3 4 5 6 
#
# 1 0.018444 -0.003910 -0.001219 0.000000 0.000000 0.000000
# 2 -0.003910 0.010585 -0.005606 0.000000 0.000000 0.000000
# 3 -0.001219 -0.005606 0.010597 0.000000 0.000000 0.000000
# 4 0.000000 0.000000 0.000000 0.128483 0.000000 0.000000
# 5 0.000000 0.000000 0.000000 0.000000 0.061872 0.000000
# 6 0.000000 0.000000 0.000000 0.000000 0.000000 0.033242
#
#
# Mechanical properties :
#
#
# Convention : Reuss Voigt Hill
#
# Bulk Modulus (GPa) = 55.08190 73.94973 64.51582
# Shear Modulus (GPa) = 17.19717 24.76418 20.98067
#
# Velocity S-wave (km/s) = 2.95161 3.54195 3.26017
# Velocity P-wave (km/s) = 6.28652 7.36138 6.84508
#
# Compressibility (1/GPa) = 0.01815478
#
# Stress axis : x y z
#
# Youngs Moduli (GPa) = 54.21730 94.47617 94.36918
#
# Poissons Ratio (x) = 0.36939 0.11505
# Poissons Ratio (y) = 0.21198 0.52907
# Poissons Ratio (z) = 0.06610 0.52967
#
# Static dielectric constant tensor:
#      x y z
#    x 3.360150 0.000000 0.000000 
#    y 0.000000 3.703330 0.000000 
#    z 0.000000 0.000000 3.710760 
# 
# 
# High freq. dielectric constant tensor:
#      x y z
#    x 1.750160 0.000000 0.000000 
#    y 0.000000 1.772830 0.000000 
#    z 0.000000 0.000000 1.769340 
# 
# From -- ./inp_files/72636.got.cif
#   From: 2010.03.12/outbox.cif.g09.slc.cpg/sg65_37_cif.got.tgz:72636.got - 2010.04.10 20:52:16.
