data_PCOD8269371
_publ_section_title
;
Structure prediction by ZEFSAII (Michael W. Deem and Ramdas Pophale) SiO2 
 PCOD8269371
Probable space group: C M M M
;
_chemical_formula_sum "Si O2"
_cell_formula_units_Z 104
_cell_length_a 26.631125
_cell_length_b 23.348153
_cell_length_c 9.091922
_cell_angle_alpha 90.000000
_cell_angle_beta 90.000000
_cell_angle_gamma 90.000000
_cell_volume 5653.244188
_symmetry_space_group_name_H-M "C M M M"
_symmetry_group_IT_number 65
_symmetry_cell_setting 'orthorhombic'
loop_
_space_group_symop_operation_xyz
x,y,z
-x,-y,z
x,-y,-z
-x,y,-z
-x,-y,-z
x,y,-z
-x,y,z
x,-y,z
1/2+x,1/2+y,z
1/2-x,1/2-y,z
1/2+x,1/2-y,-z
1/2-x,1/2+y,-z
1/2-x,1/2-y,-z
1/2+x,1/2+y,-z
1/2-x,1/2+y,z
1/2+x,1/2-y,z
loop_
_atom_site_type_symbol
_atom_site_label
_atom_site_fract_x
_atom_site_fract_y
_atom_site_fract_z
Si Si1 0.944808 0.566653 0.839643
Si Si2 0.822431 0.065030 0.672934
Si Si3 0.208479 0.563686 0.674390
Si Si4 0.942049 0.259652 0.174140
Si Si5 0.379144 0.143128 0.329582
Si Si6 0.906212 0.134621 0.173925
Si Si7 0.000000 0.063618 0.175183
O O1 0.949018 0.500000 0.818801
O O2 0.915774 0.590038 0.698989
O O3 0.000000 0.594625 0.838057
O O4 0.920153 0.581714 0.000000
O O5 0.828086 0.074109 0.500000
O O6 0.765310 0.075893 0.724303
O O7 0.854955 0.112935 0.754207
O O8 0.838540 0.000000 0.716013
O O9 0.204874 0.560924 0.500000
O O10 0.191817 0.500000 0.734810
O O11 0.174424 0.617647 0.728568
O O12 0.901636 0.304134 0.238535
O O13 0.920230 0.198524 0.223426
O O14 0.000000 0.267139 0.231507
O O15 0.942105 0.265860 0.000000
O O16 0.377292 0.160205 0.500000
O O17 0.950632 0.094717 0.234700
O O18 0.900378 0.130260 0.000000
O O19 0.000000 0.000000 0.239658
O O20 0.000000 0.064690 0.000000
#
# Coordination Sequence:
#
# PCOD8269371 Si02
#       7
#    16  16  16  16  16  16   8
#     4   9  18  32  48  68  98 134 167 205 263 328
#     4   9  18  34  56  80 107 138 167 202 259 321
#     4   8  16  33  54  75 103 138 172 209 259 318
#     4  10  21  38  55  71 101 145 183 212 255 316
#     4  11  21  32  51  77 100 130 178 227 265 300
#     4  10  19  34  55  79 104 136 176 214 253 302
#     4   9  16  28  51  81 107 129 160 205 254 305
#
# _framework density 18.396516999999999
#
# number of rings (size 3 to 8) (size 9 to 14) (size 15 to 20)
#    0.000    2.538    0.769    3.231    0.000    4.923 
#    0.000    3.462    0.000    7.846    0.000    0.000 
#    0.000    0.000    0.000    0.000    0.000    0.000 
#
# Total GULP energy -644250.668448 kJ/mol
# GULP energy per Si atom -12389.435932 kJ/mol
# Density = 1.835465 g / cm^3
# Si number density = 18.396517 Si / 1000 Ang^3
#
#
#
# Elastic Constant Matrix: (Units=GPa)
#
#
# Indices 1 2 3 4 5 6 
#
# 1 125.1602 83.6037 26.9459 0.0000 0.0000 0.0000
# 2 83.6037 122.7447 27.8764 0.0000 0.0000 0.0000
# 3 26.9459 27.8764 24.2646 0.0000 0.0000 0.0000
# 4 0.0000 0.0000 0.0000 28.0008 0.0000 0.0000
# 5 0.0000 0.0000 0.0000 0.0000 25.9896 0.0000
# 6 0.0000 0.0000 0.0000 0.0000 0.0000 36.7622
#
#
#
# Elastic Compliance Matrix: (Units=1/GPa)
#
#
# Indices 1 2 3 4 5 6 
#
# 1 0.015460 -0.008972 -0.006861 0.000000 0.000000 0.000000
# 2 -0.008972 0.016230 -0.008682 0.000000 0.000000 0.000000
# 3 -0.006861 -0.008682 0.058806 0.000000 0.000000 0.000000
# 4 0.000000 0.000000 0.000000 0.035713 0.000000 0.000000
# 5 0.000000 0.000000 0.000000 0.000000 0.038477 0.000000
# 6 0.000000 0.000000 0.000000 0.000000 0.000000 0.027202
#
#
# Mechanical properties :
#
#
# Convention : Reuss Voigt Hill
#
# Bulk Modulus (GPa) = 24.11638 61.00237 42.55938
# Shear Modulus (GPa) = 19.62792 27.06675 23.34734
#
# Velocity S-wave (km/s) = 3.26994 3.83991 3.56633
# Velocity P-wave (km/s) = 5.23396 7.27266 6.33585
#
# Compressibility (1/GPa) = 0.04146558
#
# Stress axis : x y z
#
# Youngs Moduli (GPa) = 64.68416 61.61573 17.00506
#
# Poissons Ratio (x) = 0.55280 0.11667
# Poissons Ratio (y) = 0.58033 0.14764
# Poissons Ratio (z) = 0.44379 0.53496
#
# Static dielectric constant tensor:
#      x y z
#    x 3.597820 0.000000 0.000000 
#    y 0.000000 3.524440 0.000000 
#    z 0.000000 0.000000 3.090560 
# 
# 
# High freq. dielectric constant tensor:
#      x y z
#    x 1.714360 0.000000 0.000000 
#    y 0.000000 1.715950 0.000000 
#    z 0.000000 0.000000 1.682230 
# 
# From -- ./inp_files/16745.got.cif
#   From: 2010.03.12/outbox.cif.g09.slc.cpg/sg65_9_cif.got.tgz:16745.got - 2010.04.10 20:52:16.
