data_PCOD8269822
_publ_section_title
;
Structure prediction by ZEFSAII (Michael W. Deem and Ramdas Pophale) SiO2 
 PCOD8269822
Probable space group: C M M M
;
_chemical_formula_sum "Si O2"
_cell_formula_units_Z 88
_cell_length_a 28.887953
_cell_length_b 19.827729
_cell_length_c 9.374276
_cell_angle_alpha 90.000000
_cell_angle_beta 90.000000
_cell_angle_gamma 90.000000
_cell_volume 5369.421275
_symmetry_space_group_name_H-M "C M M M"
_symmetry_group_IT_number 65
_symmetry_cell_setting 'orthorhombic'
loop_
_space_group_symop_operation_xyz
x,y,z
-x,-y,z
x,-y,-z
-x,y,-z
-x,-y,-z
x,y,-z
-x,y,z
x,-y,z
1/2+x,1/2+y,z
1/2-x,1/2-y,z
1/2+x,1/2-y,-z
1/2-x,1/2+y,-z
1/2-x,1/2-y,-z
1/2+x,1/2+y,-z
1/2-x,1/2+y,z
1/2+x,1/2-y,z
loop_
_atom_site_type_symbol
_atom_site_label
_atom_site_fract_x
_atom_site_fract_y
_atom_site_fract_z
Si Si1 0.806110 0.926161 0.334624
Si Si2 0.250000 0.250000 0.752235
Si Si3 0.945907 0.577189 0.337256
Si Si4 0.345386 0.711079 0.659035
Si Si5 0.277915 0.887004 0.156517
Si Si6 0.375772 0.834908 0.830594
O O1 0.796223 0.912922 0.500000
O O2 0.841247 0.866820 0.281662
O O3 0.755324 0.927984 0.261916
O O4 0.829032 0.000000 0.308262
O O5 0.293251 0.261322 0.648100
O O6 0.257889 0.188095 0.858304
O O7 0.930868 0.592344 0.500000
O O8 0.934021 0.500000 0.298130
O O9 0.920091 0.626856 0.229826
O O10 0.000000 0.590709 0.317933
O O11 0.367439 0.712886 0.500000
O O12 0.374565 0.759089 0.764527
O O13 0.330927 0.880272 0.212096
O O14 0.276910 0.921095 0.000000
O O15 0.379578 0.826802 0.000000
#
# Coordination Sequence:
#
# PCOD8269822 Si02
#       6
#    16   8  16  16  16  16
#     4   9  18  30  42  59  85 118 156 195 232 266
#     4   8  14  24  40  58  78 106 144 186 224 260
#     4   9  19  36  55  72  90 114 144 177 215 261
#     4   9  16  27  44  62  83 114 151 189 226 263
#     4   9  17  27  39  57  82 113 147 182 220 260
#     4  10  20  31  45  67  93 118 147 184 222 264
#
# _framework density 16.389102999999999
#
# number of rings (size 3 to 8) (size 9 to 14) (size 15 to 20)
#    0.000    2.909    0.000    1.636    0.000   11.273 
#    0.000    4.545    0.000    0.000    0.000    0.000 
#    0.000    0.727    0.000    8.364    0.000    2.364 
#
# Total GULP energy -545114.439861 kJ/mol
# GULP energy per Si atom -12388.964542 kJ/mol
# Density = 1.635180 g / cm^3
# Si number density = 16.389103 Si / 1000 Ang^3
#
#
#
# Elastic Constant Matrix: (Units=GPa)
#
#
# Indices 1 2 3 4 5 6 
#
# 1 48.3386 37.7880 30.1362 0.0000 0.0000 0.0000
# 2 37.7880 117.7162 43.5935 0.0000 0.0000 0.0000
# 3 30.1362 43.5935 73.3759 0.0000 0.0000 0.0000
# 4 0.0000 0.0000 0.0000 12.2925 0.0000 0.0000
# 5 0.0000 0.0000 0.0000 0.0000 19.8926 0.0000
# 6 0.0000 0.0000 0.0000 0.0000 0.0000 23.4829
#
#
#
# Elastic Compliance Matrix: (Units=1/GPa)
#
#
# Indices 1 2 3 4 5 6 
#
# 1 0.031590 -0.006841 -0.008910 0.000000 0.000000 0.000000
# 2 -0.006841 0.012373 -0.004541 0.000000 0.000000 0.000000
# 3 -0.008910 -0.004541 0.019986 0.000000 0.000000 0.000000
# 4 0.000000 0.000000 0.000000 0.081350 0.000000 0.000000
# 5 0.000000 0.000000 0.000000 0.000000 0.050270 0.000000
# 6 0.000000 0.000000 0.000000 0.000000 0.000000 0.042584
#
#
# Mechanical properties :
#
#
# Convention : Reuss Voigt Hill
#
# Bulk Modulus (GPa) = 42.80033 51.38514 47.09274
# Shear Modulus (GPa) = 17.45042 19.66112 18.55577
#
# Velocity S-wave (km/s) = 3.26660 3.46735 3.36847
# Velocity P-wave (km/s) = 6.35605 6.88849 6.62762
#
# Compressibility (1/GPa) = 0.02336431
#
# Stress axis : x y z
#
# Youngs Moduli (GPa) = 31.65532 80.82270 50.03554
#
# Poissons Ratio (x) = 0.55292 0.44582
# Poissons Ratio (y) = 0.21656 0.22722
# Poissons Ratio (z) = 0.28205 0.36702
#
# Static dielectric constant tensor:
#      x y z
#    x 2.725930 0.000000 0.000000 
#    y 0.000000 3.272530 0.000000 
#    z 0.000000 0.000000 2.980200 
# 
# 
# High freq. dielectric constant tensor:
#      x y z
#    x 1.578230 0.000000 0.000000 
#    y 0.000000 1.633920 0.000000 
#    z 0.000000 0.000000 1.630670 
# 
# From -- ./inp_files/18504.got.cif
#   From: 2010.03.12/outbox.cif.g09.slc.cpg/sg65_10_cif.got.tgz:18504.got - 2010.04.10 20:52:16.
