data_PCOD8269742
_publ_section_title
;
Structure prediction by ZEFSAII (Michael W. Deem and Ramdas Pophale) SiO2 
 PCOD8269742
Probable space group: C M M M
;
_chemical_formula_sum "Si O2"
_cell_formula_units_Z 56
_cell_length_a 8.996737
_cell_length_b 27.802206
_cell_length_c 13.631244
_cell_angle_alpha 90.000000
_cell_angle_beta 90.000000
_cell_angle_gamma 90.000000
_cell_volume 3409.571276
_symmetry_space_group_name_H-M "C M M M"
_symmetry_group_IT_number 65
_symmetry_cell_setting 'orthorhombic'
loop_
_space_group_symop_operation_xyz
x,y,z
-x,-y,z
x,-y,-z
-x,y,-z
-x,-y,-z
x,y,-z
-x,y,z
x,-y,z
1/2+x,1/2+y,z
1/2-x,1/2-y,z
1/2+x,1/2-y,-z
1/2-x,1/2+y,-z
1/2-x,1/2-y,-z
1/2+x,1/2+y,-z
1/2-x,1/2+y,z
1/2+x,1/2-y,z
loop_
_atom_site_type_symbol
_atom_site_label
_atom_site_fract_x
_atom_site_fract_y
_atom_site_fract_z
Si Si1 0.334344 0.879279 0.236772
Si Si2 0.171684 0.054205 0.385479
Si Si3 0.174779 0.199431 0.111441
Si Si4 0.000000 0.553173 0.885251
O O1 0.500000 0.859569 0.265200
O O2 0.261470 0.904016 0.330967
O O3 0.233087 0.837544 0.192531
O O4 0.351709 0.920071 0.152920
O O5 0.195211 0.063433 0.500000
O O6 0.000000 0.059079 0.356225
O O7 0.226989 0.000000 0.358678
O O8 0.250000 0.250000 0.134326
O O9 0.000000 0.205193 0.124627
O O10 0.214424 0.182811 0.000000
O O11 0.000000 0.500000 0.841277
O O12 0.000000 0.553088 0.000000
#
# Coordination Sequence:
#
# PCOD8269742 Si02
#       4
#    16  16  16   8
#     4  10  20  30  50  73 103 136 171 212 257 314
#     4   9  18  33  52  74 102 135 173 219 267 313
#     4  10  20  34  53  76 103 135 174 220 266 313
#     4   9  18  30  45  69 103 139 172 206 250 301
#
# _framework density 16.424351999999999
#
# number of rings (size 3 to 8) (size 9 to 14) (size 15 to 20)
#    0.857    1.571    0.000    4.286    0.000    1.714 
#    0.000    1.429    0.000    0.857    0.000   12.000 
#    0.000    0.000    0.000    0.000    0.000    0.000 
#
# Total GULP energy -346985.707503 kJ/mol
# GULP energy per Si atom -12392.346697 kJ/mol
# Density = 1.638697 g / cm^3
# Si number density = 16.424352 Si / 1000 Ang^3
#
#
#
# Elastic Constant Matrix: (Units=GPa)
#
#
# Indices 1 2 3 4 5 6 
#
# 1 90.7968 52.5632 41.8931 0.0000 0.0000 0.0000
# 2 52.5632 99.8256 49.6726 0.0000 0.0000 0.0000
# 3 41.8931 49.6726 67.6960 0.0000 0.0000 0.0000
# 4 0.0000 0.0000 0.0000 31.1346 0.0000 0.0000
# 5 0.0000 0.0000 0.0000 0.0000 29.3569 0.0000
# 6 0.0000 0.0000 0.0000 0.0000 0.0000 29.3946
#
#
#
# Elastic Compliance Matrix: (Units=1/GPa)
#
#
# Indices 1 2 3 4 5 6 
#
# 1 0.017435 -0.006004 -0.006384 0.000000 0.000000 0.000000
# 2 -0.006004 0.017846 -0.009379 0.000000 0.000000 0.000000
# 3 -0.006384 -0.009379 0.025605 0.000000 0.000000 0.000000
# 4 0.000000 0.000000 0.000000 0.032119 0.000000 0.000000
# 5 0.000000 0.000000 0.000000 0.000000 0.034064 0.000000
# 6 0.000000 0.000000 0.000000 0.000000 0.000000 0.034020
#
#
# Mechanical properties :
#
#
# Convention : Reuss Voigt Hill
#
# Bulk Modulus (GPa) = 57.63235 60.73069 59.18152
# Shear Modulus (GPa) = 23.76373 25.58987 24.67680
#
# Velocity S-wave (km/s) = 3.80789 3.95149 3.88035
# Velocity P-wave (km/s) = 7.38235 7.60758 7.49581
#
# Compressibility (1/GPa) = 0.01735137
#
# Stress axis : x y z
#
# Youngs Moduli (GPa) = 57.35684 56.03607 39.05519
#
# Poissons Ratio (x) = 0.33641 0.24934
# Poissons Ratio (y) = 0.34434 0.36631
# Poissons Ratio (z) = 0.36618 0.52557
#
# Static dielectric constant tensor:
#      x y z
#    x 3.098520 0.000000 0.000000 
#    y 0.000000 3.086050 0.000000 
#    z 0.000000 0.000000 2.893670 
# 
# 
# High freq. dielectric constant tensor:
#      x y z
#    x 1.633120 0.000000 0.000000 
#    y 0.000000 1.627460 0.000000 
#    z 0.000000 0.000000 1.620870 
# 
# From -- ./inp_files/35772.got.cif
#   From: 2010.03.12/outbox.cif.g09.slc.cpg/sg65_18_cif.got.tgz:35772.got - 2010.04.10 20:52:16.
