data_PCOD8269824
_publ_section_title
;
Structure prediction by ZEFSAII (Michael W. Deem and Ramdas Pophale) SiO2 
 PCOD8269824
Probable space group: C M M M
;
_chemical_formula_sum "Si O2"
_cell_formula_units_Z 80
_cell_length_a 17.014601
_cell_length_b 15.275177
_cell_length_c 18.680228
_cell_angle_alpha 90.000000
_cell_angle_beta 90.000000
_cell_angle_gamma 90.000000
_cell_volume 4855.010719
_symmetry_space_group_name_H-M "C M M M"
_symmetry_group_IT_number 65
_symmetry_cell_setting 'orthorhombic'
loop_
_space_group_symop_operation_xyz
x,y,z
-x,-y,z
x,-y,-z
-x,y,-z
-x,-y,-z
x,y,-z
-x,y,z
x,-y,z
1/2+x,1/2+y,z
1/2-x,1/2-y,z
1/2+x,1/2-y,-z
1/2-x,1/2+y,-z
1/2-x,1/2-y,-z
1/2+x,1/2+y,-z
1/2-x,1/2+y,z
1/2+x,1/2-y,z
loop_
_atom_site_type_symbol
_atom_site_label
_atom_site_fract_x
_atom_site_fract_y
_atom_site_fract_z
Si Si1 0.807541 0.175798 0.799618
Si Si2 0.413233 0.397020 0.920532
Si Si3 0.858644 0.098953 0.583498
Si Si4 0.790632 0.402328 0.673702
Si Si5 0.411356 0.750375 0.318861
O O1 0.750000 0.250000 0.829948
O O2 0.843272 0.126874 0.867144
O O3 0.757168 0.113493 0.747304
O O4 0.880535 0.216456 0.756932
O O5 0.500000 0.361862 0.896522
O O6 0.417228 0.500000 0.923628
O O7 0.393626 0.360135 0.000000
O O8 0.864809 0.118460 0.500000
O O9 0.768312 0.107760 0.607268
O O10 0.910272 0.171435 0.623883
O O11 0.889112 0.000000 0.601134
O O12 0.826641 0.500000 0.677029
O O13 0.858947 0.333041 0.657782
O O14 0.500000 0.783551 0.310136
#
# Coordination Sequence:
#
# PCOD8269824 Si02
#       5
#    16  16  16  16  16
#     4   9  17  30  47  65  87 115 150 188 218 255
#     4   9  17  28  43  65  92 119 144 174 218 268
#     4   9  18  33  51  68  88 116 149 185 223 264
#     4   9  18  32  49  67  87 117 154 186 220 262
#     4  10  20  31  45  68  94 118 146 183 227 269
#
# _framework density 16.477820999999999
#
# number of rings (size 3 to 8) (size 9 to 14) (size 15 to 20)
#    0.000    2.800    0.000    3.600    0.000    4.000 
#    0.000    1.000    0.000    0.000    0.000    4.200 
#    0.000    0.000    0.000   37.200    0.000    1.600 
#
# Total GULP energy -495765.065142 kJ/mol
# GULP energy per Si atom -12394.126629 kJ/mol
# Density = 1.644032 g / cm^3
# Si number density = 16.477821 Si / 1000 Ang^3
#
#
#
# Elastic Constant Matrix: (Units=GPa)
#
#
# Indices 1 2 3 4 5 6 
#
# 1 90.9804 34.3880 34.2564 0.0000 0.0000 0.0000
# 2 34.3880 76.8977 21.4045 0.0000 0.0000 0.0000
# 3 34.2564 21.4045 73.2281 0.0000 0.0000 0.0000
# 4 0.0000 0.0000 0.0000 23.6825 0.0000 0.0000
# 5 0.0000 0.0000 0.0000 0.0000 -4.1949 0.0000
# 6 0.0000 0.0000 0.0000 0.0000 0.0000 15.2545
#
#
#
# Elastic Compliance Matrix: (Units=1/GPa)
#
#
# Indices 1 2 3 4 5 6 
#
# 1 0.015028 -0.005185 -0.005514 0.000000 0.000000 0.000000
# 2 -0.005185 0.015945 -0.002235 0.000000 0.000000 0.000000
# 3 -0.005514 -0.002235 0.016889 0.000000 0.000000 0.000000
# 4 0.000000 0.000000 0.000000 0.042225 0.000000 0.000000
# 5 0.000000 0.000000 0.000000 0.000000 -0.238386 0.000000
# 6 0.000000 0.000000 0.000000 0.000000 0.000000 0.065554
#
#
# Mechanical properties :
#
#
# Convention : Reuss Voigt Hill
#
# Bulk Modulus (GPa) = 45.47034 46.80043 46.13539
# Shear Modulus (GPa) = -100.91905 17.01890 -41.95008
#
# Velocity S-wave (km/s) = -7.83443 3.21726 -5.05112
# Velocity P-wave (km/s) = 7.36091 6.50114 2.44113
#
# Compressibility (1/GPa) = 0.02199236
#
# Stress axis : x y z
#
# Youngs Moduli (GPa) = 66.54447 62.71465 59.21056
#
# Poissons Ratio (x) = 0.32519 0.32650
# Poissons Ratio (y) = 0.34505 0.13234
# Poissons Ratio (z) = 0.36695 0.14017
#
# Static dielectric constant tensor:
#      x y z
#    x 3.029120 0.000000 0.000000 
#    y 0.000000 3.137630 0.000000 
#    z 0.000000 0.000000 3.031690 
# 
# 
# High freq. dielectric constant tensor:
#      x y z
#    x 1.625100 0.000000 0.000000 
#    y 0.000000 1.629430 0.000000 
#    z 0.000000 0.000000 1.626890 
# 
# From -- ./inp_files/52866.got.cif
#   From: 2010.03.12/outbox.cif.g09.slc.cpg/sg65_27_cif.got.tgz:52866.got - 2010.04.10 20:52:16.
