data_PCOD8269116
_publ_section_title
;
Structure prediction by ZEFSAII (Michael W. Deem and Ramdas Pophale) SiO2 
 PCOD8269116
Probable space group: C M M M
;
_chemical_formula_sum "Si O2"
_cell_formula_units_Z 88
_cell_length_a 13.696173
_cell_length_b 32.356532
_cell_length_c 11.721779
_cell_angle_alpha 90.000000
_cell_angle_beta 90.000000
_cell_angle_gamma 90.000000
_cell_volume 5194.631317
_symmetry_space_group_name_H-M "C M M M"
_symmetry_group_IT_number 65
_symmetry_cell_setting 'orthorhombic'
loop_
_space_group_symop_operation_xyz
x,y,z
-x,-y,z
x,-y,-z
-x,y,-z
-x,-y,-z
x,y,-z
-x,y,z
x,-y,z
1/2+x,1/2+y,z
1/2-x,1/2-y,z
1/2+x,1/2-y,-z
1/2-x,1/2+y,-z
1/2-x,1/2-y,-z
1/2+x,1/2+y,-z
1/2-x,1/2+y,z
1/2+x,1/2-y,z
loop_
_atom_site_type_symbol
_atom_site_label
_atom_site_fract_x
_atom_site_fract_y
_atom_site_fract_z
Si Si1 0.717351 0.203233 0.500000
Si Si2 0.884707 0.691671 0.735775
Si Si3 0.384215 0.500000 0.627967
Si Si4 0.887019 0.226896 0.869221
Si Si5 0.612775 0.413424 0.723153
Si Si6 0.609837 0.640457 0.500000
Si Si7 0.767189 0.853596 0.865915
O O1 0.750000 0.250000 0.500000
O O2 0.650765 0.191678 0.393236
O O3 0.817900 0.178579 0.500000
O O4 0.851194 0.734520 0.794729
O O5 0.836742 0.653268 0.804104
O O6 0.000000 0.685565 0.741902
O O7 0.500000 0.500000 0.615094
O O8 0.338866 0.500000 0.500000
O O9 0.350171 0.540180 0.698194
O O10 0.833070 0.185560 0.829873
O O11 0.000000 0.217769 0.849082
O O12 0.863953 0.238115 0.000000
O O13 0.500000 0.412918 0.762802
O O14 0.628349 0.387414 0.609403
O O15 0.679878 0.395087 0.823325
O O16 0.500000 0.658500 0.500000
O O17 0.751167 0.857413 0.000000
#
# Coordination Sequence:
#
# PCOD8269116 Si02
#       7
#     8  16   8  16  16   8  16
#     4  12  23  37  51  74 110 143 174 218 269 315
#     4  11  23  36  50  71 100 139 183 227 267 305
#     4   9  16  30  53  81 110 139 169 204 256 324
#     4   9  18  33  51  70  95 132 178 221 260 306
#     4  10  19  33  54  82 110 136 170 213 259 318
#     4  10  20  34  56  79 104 138 178 213 251 304
#     4  11  21  34  52  74 102 138 179 222 263 309
#
# _framework density 16.940567999999999
#
# number of rings (size 3 to 8) (size 9 to 14) (size 15 to 20)
#    0.000    1.727    2.727    3.000    0.000    4.364 
#    0.000    0.455    0.000    1.636    0.000    0.636 
#    0.000    3.636    0.000    0.000    0.000    0.000 
#
# Total GULP energy -545741.910435 kJ/mol
# GULP energy per Si atom -12403.225237 kJ/mol
# Density = 1.690201 g / cm^3
# Si number density = 16.940568 Si / 1000 Ang^3
#
#
#
# Elastic Constant Matrix: (Units=GPa)
#
#
# Indices 1 2 3 4 5 6 
#
# 1 77.9949 55.6456 43.3755 0.0000 0.0000 0.0000
# 2 55.6456 115.7982 50.9661 0.0000 0.0000 0.0000
# 3 43.3755 50.9661 109.6068 0.0000 0.0000 0.0000
# 4 0.0000 0.0000 0.0000 13.6685 0.0000 0.0000
# 5 0.0000 0.0000 0.0000 0.0000 7.6592 0.0000
# 6 0.0000 0.0000 0.0000 0.0000 0.0000 20.5549
#
#
#
# Elastic Compliance Matrix: (Units=1/GPa)
#
#
# Indices 1 2 3 4 5 6 
#
# 1 0.021203 -0.008167 -0.004593 0.000000 0.000000 0.000000
# 2 -0.008167 0.014004 -0.003280 0.000000 0.000000 0.000000
# 3 -0.004593 -0.003280 0.012466 0.000000 0.000000 0.000000
# 4 0.000000 0.000000 0.000000 0.073161 0.000000 0.000000
# 5 0.000000 0.000000 0.000000 0.000000 0.130561 0.000000
# 6 0.000000 0.000000 0.000000 0.000000 0.000000 0.048650
#
#
# Mechanical properties :
#
#
# Convention : Reuss Voigt Hill
#
# Bulk Modulus (GPa) = 64.13137 67.04161 65.58649
# Shear Modulus (GPa) = 14.82262 18.60403 16.71332
#
# Velocity S-wave (km/s) = 2.96121 3.31750 3.14440
# Velocity P-wave (km/s) = 7.04490 7.37122 7.20990
#
# Compressibility (1/GPa) = 0.01559299
#
# Stress axis : x y z
#
# Youngs Moduli (GPa) = 47.16416 71.40922 80.21749
#
# Poissons Ratio (x) = 0.58321 0.36844
# Poissons Ratio (y) = 0.38520 0.26308
# Poissons Ratio (z) = 0.21662 0.23419
#
# Static dielectric constant tensor:
#      x y z
#    x 3.149020 0.000000 0.000000 
#    y 0.000000 3.193540 0.000000 
#    z 0.000000 0.000000 3.264120 
# 
# 
# High freq. dielectric constant tensor:
#      x y z
#    x 1.641880 0.000000 0.000000 
#    y 0.000000 1.630390 0.000000 
#    z 0.000000 0.000000 1.663310 
# 
# From -- ./inp_files/25399.got.cif
#   From: 2010.03.12/outbox.cif.g09.slc.cpg/sg65_13_cif.got.tgz:25399.got - 2010.04.10 20:52:16.
