data_PCOD8269588
_publ_section_title
;
Structure prediction by ZEFSAII (Michael W. Deem and Ramdas Pophale) SiO2 
 PCOD8269588
Probable space group: C M M M
;
_chemical_formula_sum "Si O2"
_cell_formula_units_Z 88
_cell_length_a 13.766714
_cell_length_b 18.316828
_cell_length_c 19.075715
_cell_angle_alpha 90.000000
_cell_angle_beta 90.000000
_cell_angle_gamma 90.000000
_cell_volume 4810.180603
_symmetry_space_group_name_H-M "C M M M"
_symmetry_group_IT_number 65
_symmetry_cell_setting 'orthorhombic'
loop_
_space_group_symop_operation_xyz
x,y,z
-x,-y,z
x,-y,-z
-x,y,-z
-x,-y,-z
x,y,-z
-x,y,z
x,-y,z
1/2+x,1/2+y,z
1/2-x,1/2-y,z
1/2+x,1/2-y,-z
1/2-x,1/2+y,-z
1/2-x,1/2-y,-z
1/2+x,1/2+y,-z
1/2-x,1/2+y,z
1/2+x,1/2-y,z
loop_
_atom_site_type_symbol
_atom_site_label
_atom_site_fract_x
_atom_site_fract_y
_atom_site_fract_z
Si Si1 0.108907 0.676500 0.669685
Si Si2 0.891198 0.286496 0.172909
Si Si3 0.212031 0.085168 0.316438
Si Si4 0.199076 0.865018 0.839354
Si Si5 0.388929 0.500000 0.082892
Si Si6 0.384890 0.309064 0.578602
O O1 0.113241 0.719310 0.743144
O O2 0.175110 0.604761 0.671169
O O3 0.151283 0.732585 0.612069
O O4 0.000000 0.650401 0.652207
O O5 0.863464 0.207058 0.143168
O O6 0.813650 0.347471 0.147661
O O7 0.000000 0.308074 0.147285
O O8 0.177935 0.110433 0.239877
O O9 0.147584 0.122364 0.375788
O O10 0.197384 0.000000 0.324346
O O11 0.167309 0.928456 0.891397
O O12 0.500000 0.500000 0.110827
O O13 0.386772 0.500000 0.000000
O O14 0.342976 0.315690 0.500000
O O15 0.500000 0.308457 0.578464
#
# Coordination Sequence:
#
# PCOD8269588 Si02
#       6
#    16  16  16  16   8  16
#     4   9  18  33  53  76 103 137 181 227 265 313
#     4   9  17  32  57  85 110 142 185 231 272 312
#     4  11  21  33  51  79 110 140 177 218 272 327
#     4  10  19  35  57  83 114 143 182 230 270 322
#     4  11  24  40  59  85 116 150 183 218 271 333
#     4  10  21  36  53  74 103 141 184 228 274 323
#
# _framework density 18.294530999999999
#
# number of rings (size 3 to 8) (size 9 to 14) (size 15 to 20)
#    0.000    2.091    2.727    1.091    0.000    3.273 
#    0.000    3.182    0.000    2.182    0.000    3.818 
#    0.000    0.000    0.000    0.000    0.000    0.000 
#
# Total GULP energy -545595.663552 kJ/mol
# GULP energy per Si atom -12399.901444 kJ/mol
# Density = 1.825289 g / cm^3
# Si number density = 18.294531 Si / 1000 Ang^3
#
#
#
# Elastic Constant Matrix: (Units=GPa)
#
#
# Indices 1 2 3 4 5 6 
#
# 1 88.0066 28.5418 35.0817 0.0000 0.0000 0.0000
# 2 28.5418 89.9992 35.3169 0.0000 0.0000 0.0000
# 3 35.0817 35.3169 64.0762 0.0000 0.0000 0.0000
# 4 0.0000 0.0000 0.0000 26.0073 0.0000 0.0000
# 5 0.0000 0.0000 0.0000 0.0000 19.6416 0.0000
# 6 0.0000 0.0000 0.0000 0.0000 0.0000 23.2982
#
#
#
# Elastic Compliance Matrix: (Units=1/GPa)
#
#
# Indices 1 2 3 4 5 6 
#
# 1 0.014793 -0.001931 -0.007035 0.000000 0.000000 0.000000
# 2 -0.001931 0.014430 -0.006896 0.000000 0.000000 0.000000
# 3 -0.007035 -0.006896 0.023259 0.000000 0.000000 0.000000
# 4 0.000000 0.000000 0.000000 0.038451 0.000000 0.000000
# 5 0.000000 0.000000 0.000000 0.000000 0.050912 0.000000
# 6 0.000000 0.000000 0.000000 0.000000 0.000000 0.042922
#
#
# Mechanical properties :
#
#
# Convention : Reuss Voigt Hill
#
# Bulk Modulus (GPa) = 48.17417 48.88477 48.52947
# Shear Modulus (GPa) = 22.38032 23.33218 22.85625
#
# Velocity S-wave (km/s) = 3.50141 3.57510 3.53845
# Velocity P-wave (km/s) = 6.53730 6.61972 6.57864
#
# Compressibility (1/GPa) = 0.02075801
#
# Stress axis : x y z
#
# Youngs Moduli (GPa) = 67.59781 69.30182 42.99392
#
# Poissons Ratio (x) = 0.13381 0.30247
# Poissons Ratio (y) = 0.13052 0.29649
# Poissons Ratio (z) = 0.47556 0.47791
#
# Static dielectric constant tensor:
#      x y z
#    x 3.665340 0.000000 0.000000 
#    y 0.000000 3.200050 0.000000 
#    z 0.000000 0.000000 3.219050 
# 
# 
# High freq. dielectric constant tensor:
#      x y z
#    x 1.722770 0.000000 0.000000 
#    y 0.000000 1.697440 0.000000 
#    z 0.000000 0.000000 1.684810 
# 
# From -- ./inp_files/52977.got.cif
#   From: 2010.03.12/outbox.cif.g09.slc.cpg/sg65_27_cif.got.tgz:52977.got - 2010.04.10 20:52:16.
