data_PCOD8269367
_publ_section_title
;
Structure prediction by ZEFSAII (Michael W. Deem and Ramdas Pophale) SiO2 
 PCOD8269367
Probable space group: C M M M
;
_chemical_formula_sum "Si O2"
_cell_formula_units_Z 104
_cell_length_a 9.358191
_cell_length_b 28.460285
_cell_length_c 22.944651
_cell_angle_alpha 90.000000
_cell_angle_beta 90.000000
_cell_angle_gamma 90.000000
_cell_volume 6111.004533
_symmetry_space_group_name_H-M "C M M M"
_symmetry_group_IT_number 65
_symmetry_cell_setting 'orthorhombic'
loop_
_space_group_symop_operation_xyz
x,y,z
-x,-y,z
x,-y,-z
-x,y,-z
-x,-y,-z
x,y,-z
-x,y,z
x,-y,z
1/2+x,1/2+y,z
1/2-x,1/2-y,z
1/2+x,1/2-y,-z
1/2-x,1/2+y,-z
1/2-x,1/2-y,-z
1/2+x,1/2+y,-z
1/2-x,1/2+y,z
1/2+x,1/2-y,z
loop_
_atom_site_type_symbol
_atom_site_label
_atom_site_fract_x
_atom_site_fract_y
_atom_site_fract_z
Si Si1 0.838360 0.555924 0.500000
Si Si2 0.164580 0.103855 0.066430
Si Si3 0.833345 0.896576 0.270089
Si Si4 0.336452 0.706398 0.239414
Si Si5 0.665632 0.294540 0.105199
Si Si6 0.833537 0.444945 0.166008
Si Si7 0.164966 0.945276 0.389167
O O1 0.833150 0.500000 0.500000
O O2 0.758205 0.574729 0.557457
O O3 0.000000 0.574946 0.500000
O O4 0.211066 0.158313 0.071562
O O5 0.263520 0.070939 0.105458
O O6 0.000000 0.098584 0.087024
O O7 0.183862 0.087393 0.000000
O O8 0.802509 0.841047 0.274596
O O9 0.739993 0.918944 0.219521
O O10 0.786269 0.918476 0.331281
O O11 0.000000 0.906356 0.256251
O O12 0.500000 0.720709 0.244655
O O13 0.250000 0.750000 0.266642
O O14 0.292860 0.697555 0.172518
O O15 0.500000 0.283573 0.096575
O O16 0.750000 0.250000 0.079009
O O17 0.809037 0.500000 0.173845
O O18 0.000000 0.431750 0.164916
O O19 0.000000 0.935796 0.404131
O O20 0.194173 0.000000 0.378475
#
# Coordination Sequence:
#
# PCOD8269367 Si02
#       7
#     8  16  16  16  16  16  16
#     4   9  17  29  45  67 102 143 174 203 242 289
#     4  10  21  38  57  74  94 125 167 208 246 297
#     4  10  19  34  55  78 102 132 170 209 247 292
#     4   9  17  30  49  73 101 129 159 198 246 298
#     4   9  17  31  50  74 100 125 155 196 245 299
#     4  11  24  38  52  73 101 130 161 204 255 302
#     4   9  17  29  48  74 102 134 172 210 244 282
#
# _framework density 17.018478000000002
#
# number of rings (size 3 to 8) (size 9 to 14) (size 15 to 20)
#    0.000    2.385    1.538    1.154    0.000    5.538 
#    0.000    3.077    0.000    0.000    0.000    0.538 
#    0.000    0.000    0.000    0.000    0.000    0.000 
#
# Total GULP energy -644884.906205 kJ/mol
# GULP energy per Si atom -12401.632812 kJ/mol
# Density = 1.697974 g / cm^3
# Si number density = 17.018478 Si / 1000 Ang^3
#
#
#
# Elastic Constant Matrix: (Units=GPa)
#
#
# Indices 1 2 3 4 5 6 
#
# 1 82.1213 47.4861 53.3771 0.0000 0.0000 0.0000
# 2 47.4861 75.2091 42.3346 0.0000 0.0000 0.0000
# 3 53.3771 42.3346 103.6348 0.0000 0.0000 0.0000
# 4 0.0000 0.0000 0.0000 11.9181 0.0000 0.0000
# 5 0.0000 0.0000 0.0000 0.0000 16.9521 0.0000
# 6 0.0000 0.0000 0.0000 0.0000 0.0000 29.4626
#
#
#
# Elastic Compliance Matrix: (Units=1/GPa)
#
#
# Indices 1 2 3 4 5 6 
#
# 1 0.023126 -0.010255 -0.007722 0.000000 0.000000 0.000000
# 2 -0.010255 0.021814 -0.003629 0.000000 0.000000 0.000000
# 3 -0.007722 -0.003629 0.015109 0.000000 0.000000 0.000000
# 4 0.000000 0.000000 0.000000 0.083906 0.000000 0.000000
# 5 0.000000 0.000000 0.000000 0.000000 0.058990 0.000000
# 6 0.000000 0.000000 0.000000 0.000000 0.000000 0.033941
#
#
# Mechanical properties :
#
#
# Convention : Reuss Voigt Hill
#
# Bulk Modulus (GPa) = 59.39338 60.81790 60.10564
# Shear Modulus (GPa) = 17.50023 19.51771 18.50897
#
# Velocity S-wave (km/s) = 3.21020 3.39020 3.30143
# Velocity P-wave (km/s) = 6.97966 7.15112 7.06591
#
# Compressibility (1/GPa) = 0.01683689
#
# Stress axis : x y z
#
# Youngs Moduli (GPa) = 43.24128 45.84237 66.18580
#
# Poissons Ratio (x) = 0.47011 0.51109
# Poissons Ratio (y) = 0.44343 0.24020
# Poissons Ratio (z) = 0.33391 0.16637
#
# Static dielectric constant tensor:
#      x y z
#    x 3.223940 0.000000 0.000000 
#    y 0.000000 3.181630 0.000000 
#    z 0.000000 0.000000 3.126320 
# 
# 
# High freq. dielectric constant tensor:
#      x y z
#    x 1.656180 0.000000 0.000000 
#    y 0.000000 1.646360 0.000000 
#    z 0.000000 0.000000 1.642300 
# 
# From -- ./inp_files/60881.got.cif
#   From: 2010.03.12/outbox.cif.g09.slc.cpg/sg65_31_cif.got.tgz:60881.got - 2010.04.10 20:52:16.
