data_PCOD8269395
_publ_section_title
;
Structure prediction by ZEFSAII (Michael W. Deem and Ramdas Pophale) SiO2 
 PCOD8269395
Probable space group: C M M M
;
_chemical_formula_sum "Si O2"
_cell_formula_units_Z 96
_cell_length_a 18.324714
_cell_length_b 18.772336
_cell_length_c 15.488162
_cell_angle_alpha 90.000000
_cell_angle_beta 90.000000
_cell_angle_gamma 90.000000
_cell_volume 5327.891924
_symmetry_space_group_name_H-M "C M M M"
_symmetry_group_IT_number 65
_symmetry_cell_setting 'orthorhombic'
loop_
_space_group_symop_operation_xyz
x,y,z
-x,-y,z
x,-y,-z
-x,y,-z
-x,-y,-z
x,y,-z
-x,y,z
x,-y,z
1/2+x,1/2+y,z
1/2-x,1/2-y,z
1/2+x,1/2-y,-z
1/2-x,1/2+y,-z
1/2-x,1/2-y,-z
1/2+x,1/2+y,-z
1/2-x,1/2+y,z
1/2+x,1/2-y,z
loop_
_atom_site_type_symbol
_atom_site_label
_atom_site_fract_x
_atom_site_fract_y
_atom_site_fract_z
Si Si1 0.324035 0.420503 0.346441
Si Si2 0.584299 0.829402 0.688433
Si Si3 0.694865 0.316850 0.500000
Si Si4 0.196914 0.578843 0.209444
Si Si5 0.585106 0.797841 0.500000
Si Si6 0.084139 0.824794 0.764961
Si Si7 0.289312 0.323228 0.100060
O O1 0.342526 0.500000 0.381953
O O2 0.294351 0.367429 0.418637
O O3 0.258916 0.425013 0.280069
O O4 0.395811 0.389044 0.299835
O O5 0.500000 0.849810 0.699299
O O6 0.627735 0.880252 0.752270
O O7 0.609006 0.839604 0.587613
O O8 0.599295 0.748117 0.714180
O O9 0.750000 0.250000 0.500000
O O10 0.614945 0.282633 0.500000
O O11 0.170870 0.500000 0.182569
O O12 0.230939 0.616242 0.125370
O O13 0.500000 0.785723 0.500000
O O14 0.134187 0.828805 0.849881
O O15 0.000000 0.832050 0.793526
O O16 0.250000 0.250000 0.123689
O O17 0.308503 0.330336 0.000000
#
# Coordination Sequence:
#
# PCOD8269395 Si02
#       7
#    16  16   8  16   8  16  16
#     4  10  22  35  51  78 112 147 185 232 283 334
#     4  10  19  34  55  81 110 147 191 233 277 329
#     4  12  21  31  54  78 106 149 193 237 280 320
#     4  10  21  37  56  80 109 144 185 229 282 340
#     4  10  20  33  51  79 109 142 192 235 270 317
#     4  10  20  35  58  82 111 147 186 227 274 337
#     4  10  20  36  60  86 112 143 181 226 280 339
#
# _framework density 18.018384000000001
#
# number of rings (size 3 to 8) (size 9 to 14) (size 15 to 20)
#    0.000    1.833    3.333    1.250    0.000    1.333 
#    0.000    1.250    0.000    3.500    0.000    5.833 
#    0.000    0.000    0.000    0.000    0.000    0.000 
#
# Total GULP energy -595070.564087 kJ/mol
# GULP energy per Si atom -12397.303418 kJ/mol
# Density = 1.797737 g / cm^3
# Si number density = 18.018384 Si / 1000 Ang^3
#
#
#
# Elastic Constant Matrix: (Units=GPa)
#
#
# Indices 1 2 3 4 5 6 
#
# 1 85.9765 54.2499 41.8119 0.0000 0.0000 0.0000
# 2 54.2499 131.2553 42.3687 0.0000 0.0000 0.0000
# 3 41.8119 42.3687 83.8636 0.0000 0.0000 0.0000
# 4 0.0000 0.0000 0.0000 27.9344 0.0000 0.0000
# 5 0.0000 0.0000 0.0000 0.0000 14.9980 0.0000
# 6 0.0000 0.0000 0.0000 0.0000 0.0000 19.3610
#
#
#
# Elastic Compliance Matrix: (Units=1/GPa)
#
#
# Indices 1 2 3 4 5 6 
#
# 1 0.018135 -0.005469 -0.006279 0.000000 0.000000 0.000000
# 2 -0.005469 0.010752 -0.002706 0.000000 0.000000 0.000000
# 3 -0.006279 -0.002706 0.016421 0.000000 0.000000 0.000000
# 4 0.000000 0.000000 0.000000 0.035798 0.000000 0.000000
# 5 0.000000 0.000000 0.000000 0.000000 0.066675 0.000000
# 6 0.000000 0.000000 0.000000 0.000000 0.000000 0.051650
#
#
# Mechanical properties :
#
#
# Convention : Reuss Voigt Hill
#
# Bulk Modulus (GPa) = 60.96576 64.21738 62.59157
# Shear Modulus (GPa) = 21.38511 23.30300 22.34406
#
# Velocity S-wave (km/s) = 3.44881 3.60014 3.52528
# Velocity P-wave (km/s) = 7.05463 7.28001 7.16821
#
# Compressibility (1/GPa) = 0.01640265
#
# Stress axis : x y z
#
# Youngs Moduli (GPa) = 55.14087 93.00189 60.89579
#
# Poissons Ratio (x) = 0.50861 0.38236
# Poissons Ratio (y) = 0.30156 0.16476
# Poissons Ratio (z) = 0.34622 0.25163
#
# Static dielectric constant tensor:
#      x y z
#    x 3.302710 0.000000 0.000000 
#    y 0.000000 3.637940 0.000000 
#    z 0.000000 0.000000 3.304090 
# 
# 
# High freq. dielectric constant tensor:
#      x y z
#    x 1.697440 0.000000 0.000000 
#    y 0.000000 1.695540 0.000000 
#    z 0.000000 0.000000 1.692300 
# 
# From -- ./inp_files/44148.got.cif
#   From: 2010.03.12/outbox.cif.g09.slc.cpg/sg65_23_cif.got.tgz:44148.got - 2010.04.10 20:52:16.
