data_PCOD8269297
_publ_section_title
;
Structure prediction by ZEFSAII (Michael W. Deem and Ramdas Pophale) SiO2 
 PCOD8269297
Probable space group: C M M M
;
_chemical_formula_sum "Si O2"
_cell_formula_units_Z 120
_cell_length_a 8.681410
_cell_length_b 28.039944
_cell_length_c 26.712511
_cell_angle_alpha 90.000000
_cell_angle_beta 90.000000
_cell_angle_gamma 90.000000
_cell_volume 6502.526387
_symmetry_space_group_name_H-M "C M M M"
_symmetry_group_IT_number 65
_symmetry_cell_setting 'orthorhombic'
loop_
_space_group_symop_operation_xyz
x,y,z
-x,-y,z
x,-y,-z
-x,y,-z
-x,-y,-z
x,y,-z
-x,y,z
x,-y,z
1/2+x,1/2+y,z
1/2-x,1/2-y,z
1/2+x,1/2-y,-z
1/2-x,1/2+y,-z
1/2-x,1/2-y,-z
1/2+x,1/2+y,-z
1/2-x,1/2+y,z
1/2+x,1/2-y,z
loop_
_atom_site_type_symbol
_atom_site_label
_atom_site_fract_x
_atom_site_fract_y
_atom_site_fract_z
Si Si1 0.182639 0.448380 0.944330
Si Si2 0.317927 0.198880 0.701844
Si Si3 0.681914 0.351714 0.204213
Si Si4 0.817834 0.301553 0.000000
Si Si5 0.182152 0.646732 0.100374
Si Si6 0.317794 0.389372 0.350302
Si Si7 0.682914 0.446662 0.555500
Si Si8 0.681270 0.447093 0.746439
O O1 0.239251 0.500000 0.924473
O O2 0.236832 0.408123 0.905852
O O3 0.000000 0.446747 0.948656
O O4 0.249743 0.438885 0.000000
O O5 0.500000 0.202105 0.702930
O O6 0.250000 0.250000 0.686803
O O7 0.258349 0.183890 0.756487
O O8 0.265247 0.160633 0.660314
O O9 0.500000 0.347535 0.210813
O O10 0.732419 0.333826 0.149377
O O11 0.738004 0.406590 0.214040
O O12 0.750000 0.250000 0.000000
O O13 0.758839 0.326761 0.949443
O O14 0.000000 0.301086 0.000000
O O15 0.000000 0.652431 0.107620
O O16 0.500000 0.380068 0.350175
O O17 0.255114 0.409491 0.403230
O O18 0.273049 0.428740 0.308714
O O19 0.735154 0.429745 0.500000
O O20 0.500000 0.448414 0.558957
O O21 0.746915 0.500000 0.566042
O O22 0.500000 0.452307 0.750659
O O23 0.755474 0.500000 0.756175
#
# Coordination Sequence:
#
# PCOD8269297 Si02
#       8
#    16  16  16   8  16  16  16  16
#     4   8  13  24  46  73  97 124 159 196 235 283
#     4  11  22  38  58  77  98 126 165 215 267 319
#     4  10  21  35  52  77 105 133 165 201 248 302
#     4  10  22  38  55  73  93 121 156 194 237 288
#     4  10  19  34  53  74 100 128 160 200 244 291
#     4   9  16  28  49  77 107 140 179 219 259 301
#     4   8  13  22  42  77 117 153 188 222 254 294
#     4   8  14  26  45  69  99 136 173 205 240 287
#
# _framework density 18.454366
#
# number of rings (size 3 to 8) (size 9 to 14) (size 15 to 20)
#    0.000    2.800    0.667    3.600    0.000    3.200 
#    0.000    1.333    0.000   14.000    0.000    1.867 
#    0.000    0.000    0.000    0.000    0.000    0.000 
#
# Total GULP energy -743574.274737 kJ/mol
# GULP energy per Si atom -12392.904579 kJ/mol
# Density = 1.841236 g / cm^3
# Si number density = 18.454366 Si / 1000 Ang^3
#
#
#
# Elastic Constant Matrix: (Units=GPa)
#
#
# Indices 1 2 3 4 5 6 
#
# 1 51.7553 31.6461 29.7008 0.0000 0.0000 0.0000
# 2 31.6461 121.4602 59.4667 0.0000 0.0000 0.0000
# 3 29.7008 59.4667 139.6921 0.0000 0.0000 0.0000
# 4 0.0000 0.0000 0.0000 11.3087 0.0000 0.0000
# 5 0.0000 0.0000 0.0000 0.0000 17.8209 0.0000
# 6 0.0000 0.0000 0.0000 0.0000 0.0000 20.1144
#
#
#
# Elastic Compliance Matrix: (Units=1/GPa)
#
#
# Indices 1 2 3 4 5 6 
#
# 1 0.023990 -0.004741 -0.003082 0.000000 0.000000 0.000000
# 2 -0.004741 0.011338 -0.003818 0.000000 0.000000 0.000000
# 3 -0.003082 -0.003818 0.009439 0.000000 0.000000 0.000000
# 4 0.000000 0.000000 0.000000 0.088428 0.000000 0.000000
# 5 0.000000 0.000000 0.000000 0.000000 0.056114 0.000000
# 6 0.000000 0.000000 0.000000 0.000000 0.000000 0.049716
#
#
# Mechanical properties :
#
#
# Convention : Reuss Voigt Hill
#
# Bulk Modulus (GPa) = 46.54850 61.61498 54.08174
# Shear Modulus (GPa) = 18.55498 22.65506 20.60502
#
# Velocity S-wave (km/s) = 3.17433 3.50755 3.34509
# Velocity P-wave (km/s) = 6.22201 7.06145 6.65498
#
# Compressibility (1/GPa) = 0.02148297
#
# Stress axis : x y z
#
# Youngs Moduli (GPa) = 41.68474 88.19872 105.93846
#
# Poissons Ratio (x) = 0.41818 0.32652
# Poissons Ratio (y) = 0.19764 0.40452
# Poissons Ratio (z) = 0.12848 0.33679
#
# Static dielectric constant tensor:
#      x y z
#    x 2.948450 0.000000 0.000000 
#    y 0.000000 3.662440 0.000000 
#    z 0.000000 0.000000 3.490500 
# 
# 
# High freq. dielectric constant tensor:
#      x y z
#    x 1.673570 0.000000 0.000000 
#    y 0.000000 1.717410 0.000000 
#    z 0.000000 0.000000 1.709350 
# 
# From -- ./inp_files/73955.got.cif
#   From: 2010.03.12/outbox.cif.g09.slc.cpg/sg65_37_cif.got.tgz:73955.got - 2010.04.10 20:52:16.
