data_PCOD8269897
_publ_section_title
;
Structure prediction by ZEFSAII (Michael W. Deem and Ramdas Pophale) SiO2 
 PCOD8269897
Probable space group: C M M M
;
_chemical_formula_sum "Si O2"
_cell_formula_units_Z 88
_cell_length_a 36.189754
_cell_length_b 8.836257
_cell_length_c 19.940578
_cell_angle_alpha 90.000000
_cell_angle_beta 90.000000
_cell_angle_gamma 90.000000
_cell_volume 6376.637258
_symmetry_space_group_name_H-M "C M M M"
_symmetry_group_IT_number 65
_symmetry_cell_setting 'orthorhombic'
loop_
_space_group_symop_operation_xyz
x,y,z
-x,-y,z
x,-y,-z
-x,y,-z
-x,-y,-z
x,y,-z
-x,y,z
x,-y,z
1/2+x,1/2+y,z
1/2-x,1/2-y,z
1/2+x,1/2-y,-z
1/2-x,1/2+y,-z
1/2-x,1/2-y,-z
1/2+x,1/2+y,-z
1/2-x,1/2+y,z
1/2+x,1/2-y,z
loop_
_atom_site_type_symbol
_atom_site_label
_atom_site_fract_x
_atom_site_fract_y
_atom_site_fract_z
Si Si1 0.043857 0.669441 0.070929
Si Si2 0.457715 0.819363 0.784560
Si Si3 0.713453 0.329874 0.579631
Si Si4 0.000000 0.180034 0.575207
Si Si5 0.071065 0.179264 0.344768
Si Si6 0.861967 0.323186 0.578107
O O1 0.059798 0.500000 0.068097
O O2 0.056342 0.743066 0.141998
O O3 0.000000 0.662075 0.074049
O O4 0.056057 0.751898 0.000000
O O5 0.500000 0.768215 0.770835
O O6 0.430976 0.745646 0.729945
O O7 0.454689 0.000000 0.782304
O O8 0.716090 0.334471 0.500000
O O9 0.710547 0.500000 0.608425
O O10 0.750000 0.250000 0.609457
O O11 0.678026 0.233592 0.602322
O O12 0.036282 0.241375 0.612765
O O13 0.000000 0.246261 0.500000
O O14 0.000000 0.000000 0.573669
O O15 0.108161 0.233462 0.379494
O O16 0.070907 0.000000 0.341048
O O17 0.868272 0.286119 0.500000
O O18 0.865228 0.500000 0.592857
#
# Coordination Sequence:
#
# PCOD8269897 Si02
#       6
#    16  16  16   8  16  16
#     4   7  10  18  34  55  74  92 117 150 188 229
#     4   9  16  26  40  56  75  97 124 161 199 235
#     4   9  16  27  44  64  83 102 123 150 188 235
#     4   9  18  30  41  51  64  89 128 170 207 241
#     4  11  20  30  42  55  74 101 132 166 203 245
#     4  10  20  32  44  59  78  99 127 166 206 241
#
# _framework density 13.800376999999999
#
# number of rings (size 3 to 8) (size 9 to 14) (size 15 to 20)
#    0.000    2.818    0.909    3.818    0.000    4.000 
#    0.000    0.000    0.000    2.727    0.000    2.545 
#    0.000    0.000    0.000    0.000    0.000    0.909 
#
# Total GULP energy -545168.378461 kJ/mol
# GULP energy per Si atom -12390.190420 kJ/mol
# Density = 1.376897 g / cm^3
# Si number density = 13.800377 Si / 1000 Ang^3
#
#
#
# Elastic Constant Matrix: (Units=GPa)
#
#
# Indices 1 2 3 4 5 6 
#
# 1 70.1185 13.7282 36.5591 0.0000 0.0000 0.0000
# 2 13.7282 37.6842 23.6900 0.0000 0.0000 0.0000
# 3 36.5591 23.6900 100.2165 0.0000 0.0000 0.0000
# 4 0.0000 0.0000 0.0000 9.7733 0.0000 0.0000
# 5 0.0000 0.0000 0.0000 0.0000 3.1584 0.0000
# 6 0.0000 0.0000 0.0000 0.0000 0.0000 20.1998
#
#
#
# Elastic Compliance Matrix: (Units=1/GPa)
#
#
# Indices 1 2 3 4 5 6 
#
# 1 0.017865 -0.002832 -0.005848 0.000000 0.000000 0.000000
# 2 -0.002832 0.031617 -0.006441 0.000000 0.000000 0.000000
# 3 -0.005848 -0.006441 0.013634 0.000000 0.000000 0.000000
# 4 0.000000 0.000000 0.000000 0.102319 0.000000 0.000000
# 5 0.000000 0.000000 0.000000 0.000000 0.316621 0.000000
# 6 0.000000 0.000000 0.000000 0.000000 0.000000 0.049506
#
#
# Mechanical properties :
#
#
# Convention : Reuss Voigt Hill
#
# Bulk Modulus (GPa) = 30.41811 39.55265 34.98538
# Shear Modulus (GPa) = 8.72964 15.56241 12.14603
#
# Velocity S-wave (km/s) = 2.51781 3.36174 2.96990
# Velocity P-wave (km/s) = 5.52647 6.61749 6.09643
#
# Compressibility (1/GPa) = 0.03287515
#
# Stress axis : x y z
#
# Youngs Moduli (GPa) = 55.97549 31.62855 73.34516
#
# Poissons Ratio (x) = 0.08957 0.42890
# Poissons Ratio (y) = 0.15852 0.47240
# Poissons Ratio (z) = 0.32733 0.20371
#
# Static dielectric constant tensor:
#      x y z
#    x 2.568550 0.000000 0.000000 
#    y 0.000000 2.607700 0.000000 
#    z 0.000000 0.000000 2.929540 
# 
# 
# High freq. dielectric constant tensor:
#      x y z
#    x 1.492350 0.000000 0.000000 
#    y 0.000000 1.516760 0.000000 
#    z 0.000000 0.000000 1.511050 
# 
# From -- ./inp_files/66182.got.cif
#   From: 2010.03.12/outbox.cif.g09.slc.cpg/sg65_34_cif.got.tgz:66182.got - 2010.04.10 20:52:16.
