data_PCOD8269216
_publ_section_title
;
Structure prediction by ZEFSAII (Michael W. Deem and Ramdas Pophale) SiO2 
 PCOD8269216
Probable space group: C M M M
;
_chemical_formula_sum "Si O2"
_cell_formula_units_Z 96
_cell_length_a 23.399644
_cell_length_b 25.223668
_cell_length_c 8.701408
_cell_angle_alpha 90.000000
_cell_angle_beta 90.000000
_cell_angle_gamma 90.000000
_cell_volume 5135.787245
_symmetry_space_group_name_H-M "C M M M"
_symmetry_group_IT_number 65
_symmetry_cell_setting 'orthorhombic'
loop_
_space_group_symop_operation_xyz
x,y,z
-x,-y,z
x,-y,-z
-x,y,-z
-x,-y,-z
x,y,-z
-x,y,z
x,-y,z
1/2+x,1/2+y,z
1/2-x,1/2-y,z
1/2+x,1/2-y,-z
1/2-x,1/2+y,-z
1/2-x,1/2-y,-z
1/2+x,1/2+y,-z
1/2-x,1/2+y,z
1/2+x,1/2-y,z
loop_
_atom_site_type_symbol
_atom_site_label
_atom_site_fract_x
_atom_site_fract_y
_atom_site_fract_z
Si Si1 0.000000 0.699761 0.679875
Si Si2 0.883879 0.152187 0.681262
Si Si3 0.000000 0.183861 0.180900
Si Si4 0.815755 0.742384 0.678834
Si Si5 0.888533 0.346469 0.178536
Si Si6 0.695665 0.441395 0.682826
Si Si7 0.175621 0.561351 0.322995
O O1 0.944686 0.666464 0.724648
O O2 0.000000 0.710831 0.500000
O O3 0.000000 0.756418 0.760050
O O4 0.892646 0.147532 0.500000
O O5 0.945057 0.151869 0.761348
O O6 0.850069 0.205186 0.725009
O O7 0.848303 0.102177 0.747179
O O8 0.000000 0.185504 0.000000
O O9 0.823963 0.728528 0.500000
O O10 0.750000 0.750000 0.720443
O O11 0.838234 0.694124 0.779998
O O12 0.868177 0.405459 0.219951
O O13 0.903562 0.342754 0.000000
O O14 0.696008 0.440608 0.500000
O O15 0.677327 0.500000 0.741626
O O16 0.759962 0.428286 0.737927
O O17 0.170213 0.579369 0.500000
O O18 0.159242 0.500000 0.304642
#
# Coordination Sequence:
#
# PCOD8269216 Si02
#       7
#     8  16   8  16  16  16  16
#     4  12  24  42  63  80 105 148 198 239 280 339
#     4  10  19  33  56  82 110 147 189 233 281 334
#     4  12  24  38  55  78 111 149 188 235 288 340
#     4  10  20  34  55  82 112 148 190 234 278 335
#     4  12  24  37  56  85 119 150 184 232 290 344
#     4   8  15  31  58  89 115 143 188 240 281 322
#     4   9  18  36  62  88 115 151 192 232 277 334
#
# _framework density 18.692363
#
# number of rings (size 3 to 8) (size 9 to 14) (size 15 to 20)
#    0.000    1.833    1.667    5.000    0.000    3.333 
#    0.000    3.333    0.000    6.500    0.000    0.000 
#    0.000    0.000    0.000    0.000    0.000    0.000 
#
# Total GULP energy -595338.925019 kJ/mol
# GULP energy per Si atom -12402.894271 kJ/mol
# Density = 1.864982 g / cm^3
# Si number density = 18.692363 Si / 1000 Ang^3
#
#
#
# Elastic Constant Matrix: (Units=GPa)
#
#
# Indices 1 2 3 4 5 6 
#
# 1 93.0948 32.4050 0.9140 0.0000 0.0000 0.0000
# 2 32.4050 91.3158 7.7234 0.0000 0.0000 0.0000
# 3 0.9140 7.7234 26.5677 0.0000 0.0000 0.0000
# 4 0.0000 0.0000 0.0000 15.7479 0.0000 0.0000
# 5 0.0000 0.0000 0.0000 0.0000 2.1000 0.0000
# 6 0.0000 0.0000 0.0000 0.0000 0.0000 28.5218
#
#
#
# Elastic Compliance Matrix: (Units=1/GPa)
#
#
# Indices 1 2 3 4 5 6 
#
# 1 0.012275 -0.004429 0.000865 0.000000 0.000000 0.000000
# 2 -0.004429 0.012825 -0.003576 0.000000 0.000000 0.000000
# 3 0.000865 -0.003576 0.038650 0.000000 0.000000 0.000000
# 4 0.000000 0.000000 0.000000 0.063501 0.000000 0.000000
# 5 0.000000 0.000000 0.000000 0.000000 0.476188 0.000000
# 6 0.000000 0.000000 0.000000 0.000000 0.000000 0.035061
#
#
# Mechanical properties :
#
#
# Convention : Reuss Voigt Hill
#
# Bulk Modulus (GPa) = 20.21430 32.56258 26.38844
# Shear Modulus (GPa) = 7.47083 20.60299 14.03691
#
# Velocity S-wave (km/s) = 2.00135 3.32356 2.74331
# Velocity P-wave (km/s) = 4.02222 5.67329 4.91754
#
# Compressibility (1/GPa) = 0.04946993
#
# Stress axis : x y z
#
# Youngs Moduli (GPa) = 81.46650 77.97127 25.87354
#
# Poissons Ratio (x) = 0.34535 -0.02239
# Poissons Ratio (y) = 0.36083 0.09252
# Poissons Ratio (z) = -0.07049 0.27883
#
# Static dielectric constant tensor:
#      x y z
#    x 3.615950 0.000000 0.000000 
#    y 0.000000 3.585300 0.000000 
#    z 0.000000 0.000000 3.216780 
# 
# 
# High freq. dielectric constant tensor:
#      x y z
#    x 1.730490 0.000000 0.000000 
#    y 0.000000 1.728910 0.000000 
#    z 0.000000 0.000000 1.702260 
# 
# From -- ./inp_files/14366.got.cif
#   From: 2010.03.12/outbox.cif.g09.slc.cpg/sg65_8_cif.got.tgz:14366.got - 2010.04.10 20:52:16.
