data_PCOD8269517
_publ_section_title
;
Structure prediction by ZEFSAII (Michael W. Deem and Ramdas Pophale) SiO2 
 PCOD8269517
Probable space group: C M M M
;
_chemical_formula_sum "Si O2"
_cell_formula_units_Z 104
_cell_length_a 21.464230
_cell_length_b 9.201100
_cell_length_c 26.709517
_cell_angle_alpha 90.000000
_cell_angle_beta 90.000000
_cell_angle_gamma 90.000000
_cell_volume 5274.983417
_symmetry_space_group_name_H-M "C M M M"
_symmetry_group_IT_number 65
_symmetry_cell_setting 'orthorhombic'
loop_
_space_group_symop_operation_xyz
x,y,z
-x,-y,z
x,-y,-z
-x,y,-z
-x,-y,-z
x,y,-z
-x,y,z
x,-y,z
1/2+x,1/2+y,z
1/2-x,1/2-y,z
1/2+x,1/2-y,-z
1/2-x,1/2+y,-z
1/2-x,1/2-y,-z
1/2+x,1/2+y,-z
1/2-x,1/2+y,z
1/2+x,1/2-y,z
loop_
_atom_site_type_symbol
_atom_site_label
_atom_site_fract_x
_atom_site_fract_y
_atom_site_fract_z
Si Si1 0.187190 0.171404 0.169642
Si Si2 0.426622 0.838260 0.000000
Si Si3 0.500000 0.670170 0.388252
Si Si4 0.500000 0.167251 0.284440
Si Si5 0.368070 0.835589 0.256996
Si Si6 0.928183 0.170225 0.901162
Si Si7 0.624626 0.329308 0.442456
Si Si8 0.808058 0.665778 0.359382
O O1 0.250000 0.250000 0.148529
O O2 0.175290 0.225438 0.226273
O O3 0.123880 0.213815 0.139849
O O4 0.199165 0.000000 0.169003
O O5 0.405311 0.752480 0.950795
O O6 0.500000 0.850356 0.000000
O O7 0.396816 0.000000 0.000000
O O8 0.500000 0.500000 0.379377
O O9 0.500000 0.738387 0.333954
O O10 0.441616 0.720135 0.421045
O O11 0.559166 0.201549 0.248938
O O12 0.500000 0.000000 0.301755
O O13 0.360558 0.819357 0.316907
O O14 0.351509 0.000000 0.239838
O O15 0.000000 0.213471 0.885650
O O16 0.925720 0.000000 0.912490
O O17 0.629261 0.282602 0.500000
O O18 0.635856 0.500000 0.435559
O O19 0.675788 0.241739 0.411643
O O20 0.791235 0.500000 0.370916
O O21 0.750000 0.750000 0.335793
#
# Coordination Sequence:
#
# PCOD8269517 Si02
#       8
#    16   8   8   8  16  16  16  16
#     4  11  24  40  61  87 121 160 202 247 296 354
#     4   9  17  31  56  91 124 157 199 249 300 349
#     4  10  19  34  58  86 112 140 171 213 269 330
#     4  10  20  37  59  87 118 145 179 230 285 340
#     4  10  22  39  60  85 116 150 187 232 287 344
#     4   9  19  37  60  87 120 160 203 248 296 348
#     4  10  21  37  57  82 111 141 175 218 270 329
#     4  11  23  39  59  80 106 142 186 230 276 334
#
# _framework density 19.715702
#
# number of rings (size 3 to 8) (size 9 to 14) (size 15 to 20)
#    0.000    1.923    1.538    1.846    1.077    6.769 
#    0.000    0.385    0.000    1.385    0.000    0.000 
#    0.000    0.000    0.000    0.000    0.000    0.000 
#
# Total GULP energy -644679.655017 kJ/mol
# GULP energy per Si atom -12397.685673 kJ/mol
# Density = 1.967083 g / cm^3
# Si number density = 19.715702 Si / 1000 Ang^3
#
#
#
# Elastic Constant Matrix: (Units=GPa)
#
#
# Indices 1 2 3 4 5 6 
#
# 1 109.8623 41.0330 34.9065 0.0000 0.0000 0.0000
# 2 41.0330 64.5666 39.6819 0.0000 0.0000 0.0000
# 3 34.9065 39.6819 92.4746 0.0000 0.0000 0.0000
# 4 0.0000 0.0000 0.0000 28.1734 0.0000 0.0000
# 5 0.0000 0.0000 0.0000 0.0000 26.3229 0.0000
# 6 0.0000 0.0000 0.0000 0.0000 0.0000 28.1758
#
#
#
# Elastic Compliance Matrix: (Units=1/GPa)
#
#
# Indices 1 2 3 4 5 6 
#
# 1 0.012135 -0.006651 -0.001727 0.000000 0.000000 0.000000
# 2 -0.006651 0.024681 -0.008080 0.000000 0.000000 0.000000
# 3 -0.001727 -0.008080 0.014933 0.000000 0.000000 0.000000
# 4 0.000000 0.000000 0.000000 0.035494 0.000000 0.000000
# 5 0.000000 0.000000 0.000000 0.000000 0.037990 0.000000
# 6 0.000000 0.000000 0.000000 0.000000 0.000000 0.035491
#
#
# Mechanical properties :
#
#
# Convention : Reuss Voigt Hill
#
# Bulk Modulus (GPa) = 53.09814 55.34957 54.22386
# Shear Modulus (GPa) = 25.01038 26.61990 25.81514
#
# Velocity S-wave (km/s) = 3.56554 3.67848 3.62245
# Velocity P-wave (km/s) = 6.62881 6.79532 6.71258
#
# Compressibility (1/GPa) = 0.01883305
#
# Stress axis : x y z
#
# Youngs Moduli (GPa) = 82.40678 40.51777 66.96631
#
# Poissons Ratio (x) = 0.26947 0.11563
# Poissons Ratio (y) = 0.54806 0.54110
# Poissons Ratio (z) = 0.14229 0.32739
#
# Static dielectric constant tensor:
#      x y z
#    x 3.416450 0.000000 0.000000 
#    y 0.000000 3.577290 0.000000 
#    z 0.000000 0.000000 3.429960 
# 
# 
# High freq. dielectric constant tensor:
#      x y z
#    x 1.773470 0.000000 0.000000 
#    y 0.000000 1.767520 0.000000 
#    z 0.000000 0.000000 1.756980 
# 
# From -- ./inp_files/78294.got.cif
#   From: 2010.03.12/outbox.cif.g09.slc.cpg/sg65_40_cif.got.tgz:78294.got - 2010.04.10 20:52:16.
