data_PCOD8269358
_publ_section_title
;
Structure prediction by ZEFSAII (Michael W. Deem and Ramdas Pophale) SiO2 
 PCOD8269358
Probable space group: C M M M
;
_chemical_formula_sum "Si O2"
_cell_formula_units_Z 120
_cell_length_a 27.781990
_cell_length_b 9.045381
_cell_length_c 26.107867
_cell_angle_alpha 90.000000
_cell_angle_beta 90.000000
_cell_angle_gamma 90.000000
_cell_volume 6560.872632
_symmetry_space_group_name_H-M "C M M M"
_symmetry_group_IT_number 65
_symmetry_cell_setting 'orthorhombic'
loop_
_space_group_symop_operation_xyz
x,y,z
-x,-y,z
x,-y,-z
-x,y,-z
-x,-y,-z
x,y,-z
-x,y,z
x,-y,z
1/2+x,1/2+y,z
1/2-x,1/2-y,z
1/2+x,1/2-y,-z
1/2-x,1/2+y,-z
1/2-x,1/2-y,-z
1/2+x,1/2+y,-z
1/2-x,1/2+y,z
1/2+x,1/2-y,z
loop_
_atom_site_type_symbol
_atom_site_label
_atom_site_fract_x
_atom_site_fract_y
_atom_site_fract_z
Si Si1 0.360384 0.325843 0.359302
Si Si2 0.602611 0.329612 0.211051
Si Si3 0.201704 0.327399 0.058613
Si Si4 0.200176 0.829707 0.260639
Si Si5 0.447144 0.675464 0.000000
Si Si6 0.612952 0.329098 0.096317
Si Si7 0.555721 0.172838 0.698198
Si Si8 0.700587 0.171143 0.559794
O O1 0.366386 0.500000 0.368090
O O2 0.320051 0.289410 0.316763
O O3 0.411913 0.260028 0.342850
O O4 0.343900 0.247621 0.411462
O O5 0.595826 0.500000 0.228537
O O6 0.658612 0.285040 0.219912
O O7 0.588336 0.307852 0.151677
O O8 0.567161 0.229077 0.244431
O O9 0.208132 0.500000 0.065730
O O10 0.250000 0.250000 0.077042
O O11 0.160645 0.268151 0.095677
O O12 0.189411 0.284240 0.000000
O O13 0.250000 0.750000 0.248281
O O14 0.212712 0.000000 0.256449
O O15 0.421588 0.731689 0.948353
O O16 0.449814 0.500000 0.000000
O O17 0.500000 0.745897 0.000000
O O18 0.626408 0.500000 0.086784
O O19 0.500000 0.204071 0.685620
O O20 0.567775 0.000000 0.695077
O O21 0.690259 0.191068 0.500000
O O22 0.750000 0.250000 0.575961
O O23 0.704548 0.000000 0.575447
#
# Coordination Sequence:
#
# PCOD8269358 Si02
#       8
#    16  16  16  16   8  16  16  16
#     4  10  20  34  54  79 107 142 184 229 273 321
#     4   9  20  35  51  75 104 135 170 210 258 315
#     4  10  20  33  51  74 100 131 168 204 244 295
#     4   9  18  31  46  69 100 132 169 207 250 302
#     4   9  18  32  52  77  98 121 160 207 254 305
#     4  10  19  34  55  76 102 133 167 210 256 306
#     4  10  21  37  57  80 105 135 175 224 276 329
#     4  10  20  33  51  79 117 158 196 232 270 314
#
# _framework density 18.290248999999999
#
# number of rings (size 3 to 8) (size 9 to 14) (size 15 to 20)
#    0.000    2.333    0.667    2.800    0.000    7.733 
#    0.000    2.667    0.000    1.200    0.000    2.800 
#    0.000    0.000    0.000    0.000    0.000    0.000 
#
# Total GULP energy -744073.129286 kJ/mol
# GULP energy per Si atom -12401.218821 kJ/mol
# Density = 1.824862 g / cm^3
# Si number density = 18.290249 Si / 1000 Ang^3
#
#
#
# Elastic Constant Matrix: (Units=GPa)
#
#
# Indices 1 2 3 4 5 6 
#
# 1 112.6439 56.6058 50.5073 0.0000 0.0000 0.0000
# 2 56.6058 93.9984 46.2436 0.0000 0.0000 0.0000
# 3 50.5073 46.2436 91.1962 0.0000 0.0000 0.0000
# 4 0.0000 0.0000 0.0000 26.1522 0.0000 0.0000
# 5 0.0000 0.0000 0.0000 0.0000 13.6079 0.0000
# 6 0.0000 0.0000 0.0000 0.0000 0.0000 29.7487
#
#
#
# Elastic Compliance Matrix: (Units=1/GPa)
#
#
# Indices 1 2 3 4 5 6 
#
# 1 0.014074 -0.006183 -0.004659 0.000000 0.000000 0.000000
# 2 -0.006183 0.016891 -0.005141 0.000000 0.000000 0.000000
# 3 -0.004659 -0.005141 0.016152 0.000000 0.000000 0.000000
# 4 0.000000 0.000000 0.000000 0.038238 0.000000 0.000000
# 5 0.000000 0.000000 0.000000 0.000000 0.073487 0.000000
# 6 0.000000 0.000000 0.000000 0.000000 0.000000 0.033615
#
#
# Mechanical properties :
#
#
# Convention : Reuss Voigt Hill
#
# Bulk Modulus (GPa) = 66.00065 67.17241 66.58653
# Shear Modulus (GPa) = 21.78909 23.53388 22.66148
#
# Velocity S-wave (km/s) = 3.45526 3.59094 3.52375
# Velocity P-wave (km/s) = 7.21678 7.34838 7.28288
#
# Compressibility (1/GPa) = 0.01515137
#
# Stress axis : x y z
#
# Youngs Moduli (GPa) = 71.05441 59.20342 61.91002
#
# Poissons Ratio (x) = 0.36606 0.28845
# Poissons Ratio (y) = 0.43933 0.31826
# Poissons Ratio (z) = 0.33105 0.30434
#
# Static dielectric constant tensor:
#      x y z
#    x 3.307340 0.000000 0.000000 
#    y 0.000000 3.317970 0.000000 
#    z 0.000000 0.000000 3.318820 
# 
# 
# High freq. dielectric constant tensor:
#      x y z
#    x 1.700050 0.000000 0.000000 
#    y 0.000000 1.708000 0.000000 
#    z 0.000000 0.000000 1.700620 
# 
# From -- ./inp_files/76090.got.cif
#   From: 2010.03.12/outbox.cif.g09.slc.cpg/sg65_39_cif.got.tgz:76090.got - 2010.04.10 20:52:16.
