data_PCOD8269565
_publ_section_title
;
Structure prediction by ZEFSAII (Michael W. Deem and Ramdas Pophale) SiO2 
 PCOD8269565
Probable space group: C M M M
;
_chemical_formula_sum "Si O2"
_cell_formula_units_Z 80
_cell_length_a 23.799785
_cell_length_b 9.012054
_cell_length_c 20.384067
_cell_angle_alpha 90.000000
_cell_angle_beta 90.000000
_cell_angle_gamma 90.000000
_cell_volume 4372.075543
_symmetry_space_group_name_H-M "C M M M"
_symmetry_group_IT_number 65
_symmetry_cell_setting 'orthorhombic'
loop_
_space_group_symop_operation_xyz
x,y,z
-x,-y,z
x,-y,-z
-x,y,-z
-x,-y,-z
x,y,-z
-x,y,z
x,-y,z
1/2+x,1/2+y,z
1/2-x,1/2-y,z
1/2+x,1/2-y,-z
1/2-x,1/2+y,-z
1/2-x,1/2-y,-z
1/2+x,1/2+y,-z
1/2-x,1/2+y,z
1/2+x,1/2-y,z
loop_
_atom_site_type_symbol
_atom_site_label
_atom_site_fract_x
_atom_site_fract_y
_atom_site_fract_z
Si Si1 0.890049 0.169681 0.073507
Si Si2 0.189873 0.824656 0.190746
Si Si3 0.693225 0.826857 0.426542
Si Si4 0.000000 0.324870 0.264440
Si Si5 0.120635 0.674692 0.694830
Si Si6 0.000000 0.324274 0.883016
O O1 0.842537 0.221337 0.124445
O O2 0.945094 0.269138 0.079768
O O3 0.907327 0.000000 0.087379
O O4 0.865746 0.189197 0.000000
O O5 0.250000 0.750000 0.188120
O O6 0.156010 0.764974 0.252673
O O7 0.197238 0.000000 0.197562
O O8 0.676996 0.772904 0.500000
O O9 0.750000 0.750000 0.401519
O O10 0.642569 0.785641 0.377821
O O11 0.705516 0.000000 0.425621
O O12 0.944158 0.271588 0.302487
O O13 0.000000 0.500000 0.259843
O O14 0.000000 0.259426 0.190942
O O15 0.126559 0.500000 0.710339
O O16 0.000000 0.500000 0.883705
#
# Coordination Sequence:
#
# PCOD8269565 Si02
#       6
#    16  16  16   8  16   8
#     4  10  22  39  56  76 106 141 175 216 267 319
#     4  11  23  37  55  78 104 136 177 219 265 317
#     4   9  18  32  52  78 107 140 177 215 257 306
#     4   9  18  32  53  79 107 137 168 213 265 307
#     4  10  19  35  56  78 108 141 175 216 263 311
#     4  11  20  34  57  83 108 135 175 220 265 313
#
# _framework density 18.297946
#
# number of rings (size 3 to 8) (size 9 to 14) (size 15 to 20)
#    0.000    2.000    2.000    1.800    0.000    5.200 
#    0.000    1.000    0.000    3.000    0.000    0.000 
#    0.000    4.800    0.000    0.000    0.000    0.000 
#
# Total GULP energy -496043.949448 kJ/mol
# GULP energy per Si atom -12401.098736 kJ/mol
# Density = 1.825630 g / cm^3
# Si number density = 18.297946 Si / 1000 Ang^3
#
#
#
# Elastic Constant Matrix: (Units=GPa)
#
#
# Indices 1 2 3 4 5 6 
#
# 1 155.1016 45.7183 74.0300 0.0000 0.0000 0.0000
# 2 45.7183 52.0878 35.7275 0.0000 0.0000 0.0000
# 3 74.0300 35.7275 126.7803 0.0000 0.0000 0.0000
# 4 0.0000 0.0000 0.0000 24.3973 0.0000 0.0000
# 5 0.0000 0.0000 0.0000 0.0000 -12.1896 0.0000
# 6 0.0000 0.0000 0.0000 0.0000 0.0000 444.0706
#
#
#
# Elastic Compliance Matrix: (Units=1/GPa)
#
#
# Indices 1 2 3 4 5 6 
#
# 1 0.010291 -0.006088 -0.004294 0.000000 0.000000 0.000000
# 2 -0.006088 0.027400 -0.004167 0.000000 0.000000 0.000000
# 3 -0.004294 -0.004167 0.011569 0.000000 0.000000 0.000000
# 4 0.000000 0.000000 0.000000 0.040988 0.000000 0.000000
# 5 0.000000 0.000000 0.000000 0.000000 -0.082037 0.000000
# 6 0.000000 0.000000 0.000000 0.000000 0.000000 0.002252
#
#
# Mechanical properties :
#
#
# Convention : Reuss Voigt Hill
#
# Bulk Modulus (GPa) = 49.59400 71.65792 60.62596
# Shear Modulus (GPa) = 108.03818 103.15525 105.59671
#
# Velocity S-wave (km/s) = 7.69234 7.51650 7.60492
# Velocity P-wave (km/s) = 10.29847 10.70407 10.50323
#
# Compressibility (1/GPa) = 0.02016373
#
# Stress axis : x y z
#
# Youngs Moduli (GPa) = 97.17038 36.49699 86.43740
#
# Poissons Ratio (x) = 0.22218 0.37114
# Poissons Ratio (y) = 0.59154 0.36015
# Poissons Ratio (z) = 0.41722 0.15207
#
# Static dielectric constant tensor:
#      x y z
#    x 3.588580 0.000000 0.000000 
#    y 0.000000 3.295830 0.000000 
#    z 0.000000 0.000000 3.623620 
# 
# 
# High freq. dielectric constant tensor:
#      x y z
#    x 1.709100 0.000000 0.000000 
#    y 0.000000 1.699760 0.000000 
#    z 0.000000 0.000000 1.716420 
# 
# From -- ./inp_files/59636.got.cif
#   From: 2010.03.12/outbox.cif.g09.slc.cpg/sg65_30_cif.got.tgz:59636.got - 2010.04.10 20:52:16.
