data_PCOD8269803
_publ_section_title
;
Structure prediction by ZEFSAII (Michael W. Deem and Ramdas Pophale) SiO2 
 PCOD8269803
Probable space group: C M M M
;
_chemical_formula_sum "Si O2"
_cell_formula_units_Z 88
_cell_length_a 16.977112
_cell_length_b 15.223113
_cell_length_c 21.513593
_cell_angle_alpha 90.000000
_cell_angle_beta 90.000000
_cell_angle_gamma 90.000000
_cell_volume 5560.069665
_symmetry_space_group_name_H-M "C M M M"
_symmetry_group_IT_number 65
_symmetry_cell_setting 'orthorhombic'
loop_
_space_group_symop_operation_xyz
x,y,z
-x,-y,z
x,-y,-z
-x,y,-z
-x,-y,-z
x,y,-z
-x,y,z
x,-y,z
1/2+x,1/2+y,z
1/2-x,1/2-y,z
1/2+x,1/2-y,-z
1/2-x,1/2+y,-z
1/2-x,1/2-y,-z
1/2+x,1/2+y,-z
1/2-x,1/2+y,z
1/2+x,1/2-y,z
loop_
_atom_site_type_symbol
_atom_site_label
_atom_site_fract_x
_atom_site_fract_y
_atom_site_fract_z
Si Si1 0.911487 0.748449 0.157348
Si Si2 0.139619 0.900731 0.072367
Si Si3 0.912177 0.896289 0.633029
Si Si4 0.092938 0.904445 0.500000
Si Si5 0.808030 0.823759 0.739796
Si Si6 0.789626 0.402043 0.149974
O O1 0.911605 0.828754 0.108555
O O2 0.880491 0.780699 0.223594
O O3 0.858324 0.666887 0.135521
O O4 0.000000 0.714063 0.164977
O O5 0.230437 0.892370 0.092336
O O6 0.109058 0.000000 0.087396
O O7 0.132379 0.880244 0.000000
O O8 0.885389 0.855596 0.565426
O O9 0.845369 0.876256 0.683177
O O10 0.000000 0.861190 0.651987
O O11 0.917483 0.000000 0.625094
O O12 0.000000 0.917096 0.500000
O O13 0.134630 0.000000 0.500000
O O14 0.750000 0.750000 0.712230
O O15 0.757824 0.885088 0.786106
O O16 0.825523 0.500000 0.153381
#
# Coordination Sequence:
#
# PCOD8269803 Si02
#       6
#    16  16  16   8  16  16
#     4  10  20  31  44  65  90 112 138 175 214 252
#     4   9  18  33  51  67  85 112 141 169 207 254
#     4   9  15  24  41  62  83 108 138 171 206 245
#     4   7  12  22  35  56  84 110 135 163 200 248
#     4   9  17  29  43  60  84 111 139 173 211 249
#     4   9  18  32  48  64  83 111 146 177 207 249
#
# _framework density 15.82714
#
# number of rings (size 3 to 8) (size 9 to 14) (size 15 to 20)
#    0.000    3.000    0.000    3.818    0.000    3.273 
#    0.000    1.364    0.000    0.000    0.000    3.818 
#    0.000    0.000    0.000    0.000    0.000  109.091 
#
# Total GULP energy -545154.968891 kJ/mol
# GULP energy per Si atom -12389.885657 kJ/mol
# Density = 1.579112 g / cm^3
# Si number density = 15.827140 Si / 1000 Ang^3
#
#
#
# Elastic Constant Matrix: (Units=GPa)
#
#
# Indices 1 2 3 4 5 6 
#
# 1 76.8550 27.2769 29.8601 0.0000 0.0000 0.0000
# 2 27.2769 62.7281 17.1886 0.0000 0.0000 0.0000
# 3 29.8601 17.1886 79.7736 0.0000 0.0000 0.0000
# 4 0.0000 0.0000 0.0000 15.7101 0.0000 0.0000
# 5 0.0000 0.0000 0.0000 0.0000 10.1619 0.0000
# 6 0.0000 0.0000 0.0000 0.0000 0.0000 12.9263
#
#
#
# Elastic Compliance Matrix: (Units=1/GPa)
#
#
# Indices 1 2 3 4 5 6 
#
# 1 0.017147 -0.006055 -0.005114 0.000000 0.000000 0.000000
# 2 -0.006055 0.019080 -0.001845 0.000000 0.000000 0.000000
# 3 -0.005114 -0.001845 0.014847 0.000000 0.000000 0.000000
# 4 0.000000 0.000000 0.000000 0.063653 0.000000 0.000000
# 5 0.000000 0.000000 0.000000 0.000000 0.098406 0.000000
# 6 0.000000 0.000000 0.000000 0.000000 0.000000 0.077362
#
#
# Mechanical properties :
#
#
# Convention : Reuss Voigt Hill
#
# Bulk Modulus (GPa) = 39.92398 40.88977 40.40688
# Shear Modulus (GPa) = 15.39066 17.42842 16.40954
#
# Velocity S-wave (km/s) = 3.12175 3.32199 3.22343
# Velocity P-wave (km/s) = 6.18656 6.37224 6.28009
#
# Compressibility (1/GPa) = 0.02504760
#
# Stress axis : x y z
#
# Youngs Moduli (GPa) = 58.31786 52.41000 67.35331
#
# Poissons Ratio (x) = 0.31735 0.34443
# Poissons Ratio (y) = 0.35312 0.12424
# Poissons Ratio (z) = 0.29822 0.09668
#
# Static dielectric constant tensor:
#      x y z
#    x 2.810040 0.000000 0.000000 
#    y 0.000000 2.941400 0.000000 
#    z 0.000000 0.000000 3.133140 
# 
# 
# High freq. dielectric constant tensor:
#      x y z
#    x 1.589180 0.000000 0.000000 
#    y 0.000000 1.589790 0.000000 
#    z 0.000000 0.000000 1.607660 
# 
# From -- ./inp_files/63744.got.cif
#   From: 2010.03.12/outbox.cif.g09.slc.cpg/sg65_32_cif.got.tgz:63744.got - 2010.04.10 20:52:16.
