data_PCOD8269003
_publ_section_title
;
Structure prediction by ZEFSAII (Michael W. Deem and Ramdas Pophale) SiO2 
 PCOD8269003
Probable space group: C M M M
;
_chemical_formula_sum "Si O2"
_cell_formula_units_Z 88
_cell_length_a 18.047737
_cell_length_b 14.914210
_cell_length_c 16.504150
_cell_angle_alpha 90.000000
_cell_angle_beta 90.000000
_cell_angle_gamma 90.000000
_cell_volume 4442.384750
_symmetry_space_group_name_H-M "C M M M"
_symmetry_group_IT_number 65
_symmetry_cell_setting 'orthorhombic'
loop_
_space_group_symop_operation_xyz
x,y,z
-x,-y,z
x,-y,-z
-x,y,-z
-x,-y,-z
x,y,-z
-x,y,z
x,-y,z
1/2+x,1/2+y,z
1/2-x,1/2-y,z
1/2+x,1/2-y,-z
1/2-x,1/2+y,-z
1/2-x,1/2-y,-z
1/2+x,1/2+y,-z
1/2-x,1/2+y,z
1/2+x,1/2-y,z
loop_
_atom_site_type_symbol
_atom_site_label
_atom_site_fract_x
_atom_site_fract_y
_atom_site_fract_z
Si Si1 0.329245 0.830978 0.593179
Si Si2 0.793297 0.098718 0.300547
Si Si3 0.419091 0.000000 0.403920
Si Si4 0.686156 0.897043 0.000000
Si Si5 0.317929 0.395388 0.118896
Si Si6 0.415135 0.649561 0.592286
Si Si7 0.089502 0.221034 0.000000
O O1 0.302447 0.841422 0.500000
O O2 0.255600 0.829868 0.648507
O O3 0.382765 0.748189 0.604517
O O4 0.376209 0.913526 0.626084
O O5 0.809131 0.136523 0.211329
O O6 0.870818 0.084820 0.347838
O O7 0.755877 0.000000 0.295295
O O8 0.500000 0.000000 0.363575
O O9 0.425993 0.000000 0.500000
O O10 0.737967 0.880843 0.921993
O O11 0.620064 0.823849 0.000000
O O12 0.654668 0.000000 0.000000
O O13 0.342084 0.500000 0.111578
O O14 0.380830 0.333007 0.078520
O O15 0.406469 0.616377 0.500000
O O16 0.500000 0.650070 0.619012
O O17 0.000000 0.223952 0.000000
#
# Coordination Sequence:
#
# PCOD8269003 Si02
#       7
#    16  16   8   8  16  16   8
#     4  10  19  33  53  78 106 140 188 239 283 329
#     4  11  22  36  56  83 110 142 186 236 280 330
#     4   9  16  28  50  76 103 136 173 222 283 334
#     4   9  19  39  63  87 116 151 181 216 262 339
#     4   9  20  38  60  85 113 147 188 229 277 331
#     4  10  22  37  51  72 107 150 192 234 284 339
#     4  11  22  36  61  93 119 145 179 225 278 328
#
# _framework density 19.809180000000001
#
# number of rings (size 3 to 8) (size 9 to 14) (size 15 to 20)
#    0.000    2.091    0.909    3.545    0.000    9.636 
#    0.000    2.727    0.000    1.091    0.000    0.000 
#    0.000    0.000    0.000    0.000    0.000    0.000 
#
# Total GULP energy -545427.480295 kJ/mol
# GULP energy per Si atom -12396.079098 kJ/mol
# Density = 1.976409 g / cm^3
# Si number density = 19.809180 Si / 1000 Ang^3
#
#
#
# Elastic Constant Matrix: (Units=GPa)
#
#
# Indices 1 2 3 4 5 6 
#
# 1 120.8861 32.9494 50.2508 0.0000 0.0000 0.0000
# 2 32.9494 88.1073 24.0555 0.0000 0.0000 0.0000
# 3 50.2508 24.0555 125.0322 0.0000 0.0000 0.0000
# 4 0.0000 0.0000 0.0000 13.6731 0.0000 0.0000
# 5 0.0000 0.0000 0.0000 0.0000 -8.4009 0.0000
# 6 0.0000 0.0000 0.0000 0.0000 0.0000 21.9240
#
#
#
# Elastic Compliance Matrix: (Units=1/GPa)
#
#
# Indices 1 2 3 4 5 6 
#
# 1 0.010616 -0.002961 -0.003697 0.000000 0.000000 0.000000
# 2 -0.002961 0.012805 -0.001274 0.000000 0.000000 0.000000
# 3 -0.003697 -0.001274 0.009729 0.000000 0.000000 0.000000
# 4 0.000000 0.000000 0.000000 0.073137 0.000000 0.000000
# 5 0.000000 0.000000 0.000000 0.000000 -0.119035 0.000000
# 6 0.000000 0.000000 0.000000 0.000000 0.000000 0.045612
#
#
# Mechanical properties :
#
#
# Convention : Reuss Voigt Hill
#
# Bulk Modulus (GPa) = 57.84723 60.94856 59.39789
# Shear Modulus (GPa) = 91.76299 20.55723 56.16011
#
# Velocity S-wave (km/s) = 6.81352 3.22493 5.33030
# Velocity P-wave (km/s) = 9.54800 6.68592 8.24214
#
# Compressibility (1/GPa) = 0.01728691
#
# Stress axis : x y z
#
# Youngs Moduli (GPa) = 94.19728 78.09609 102.78749
#
# Poissons Ratio (x) = 0.23122 0.38000
# Poissons Ratio (y) = 0.27889 0.13092
# Poissons Ratio (z) = 0.34825 0.09947
#
# Static dielectric constant tensor:
#      x y z
#    x 3.612990 0.000000 0.000000 
#    y 0.000000 3.723020 0.000000 
#    z 0.000000 0.000000 3.537710 
# 
# 
# High freq. dielectric constant tensor:
#      x y z
#    x 1.760830 0.000000 0.000000 
#    y 0.000000 1.787840 0.000000 
#    z 0.000000 0.000000 1.753210 
# 
# From -- ./inp_files/54365.got.cif
#   From: 2010.03.12/outbox.cif.g09.slc.cpg/sg65_28_cif.got.tgz:54365.got - 2010.04.10 20:52:16.
