data_PCOD8269345
_publ_section_title
;
Structure prediction by ZEFSAII (Michael W. Deem and Ramdas Pophale) SiO2 
 PCOD8269345
Probable space group: C M M M
;
_chemical_formula_sum "Si O2"
_cell_formula_units_Z 96
_cell_length_a 14.739469
_cell_length_b 25.074513
_cell_length_c 13.929660
_cell_angle_alpha 90.000000
_cell_angle_beta 90.000000
_cell_angle_gamma 90.000000
_cell_volume 5148.193489
_symmetry_space_group_name_H-M "C M M M"
_symmetry_group_IT_number 65
_symmetry_cell_setting 'orthorhombic'
loop_
_space_group_symop_operation_xyz
x,y,z
-x,-y,z
x,-y,-z
-x,y,-z
-x,-y,-z
x,y,-z
-x,y,z
x,-y,z
1/2+x,1/2+y,z
1/2-x,1/2-y,z
1/2+x,1/2-y,-z
1/2-x,1/2+y,-z
1/2-x,1/2-y,-z
1/2+x,1/2+y,-z
1/2-x,1/2+y,z
1/2+x,1/2-y,z
loop_
_atom_site_type_symbol
_atom_site_label
_atom_site_fract_x
_atom_site_fract_y
_atom_site_fract_z
Si Si1 0.142536 0.165882 0.739910
Si Si2 0.707485 0.060396 0.106477
Si Si3 0.857011 0.249959 0.107197
Si Si4 0.500000 0.161043 0.390731
Si Si5 0.000000 0.786660 0.605456
Si Si6 0.348248 0.846426 0.759576
Si Si7 0.599829 0.440786 0.822700
O O1 0.113643 0.195376 0.839474
O O2 0.092625 0.194516 0.653587
O O3 0.249754 0.171444 0.721392
O O4 0.110146 0.104451 0.741368
O O5 0.658569 0.098837 0.181120
O O6 0.817131 0.067892 0.103652
O O7 0.681613 0.000000 0.134557
O O8 0.672594 0.074400 0.000000
O O9 0.750000 0.250000 0.096347
O O10 0.889584 0.300531 0.171009
O O11 0.900682 0.252153 0.000000
O O12 0.500000 0.137200 0.500000
O O13 0.500000 0.223812 0.396928
O O14 0.411238 0.142142 0.332132
O O15 0.000000 0.811301 0.500000
O O16 0.500000 0.435491 0.872392
O O17 0.608260 0.500000 0.775650
#
# Coordination Sequence:
#
# PCOD8269345 Si02
#       7
#    16  16  16   8   8  16  16
#     4  10  19  34  54  78 113 146 181 220 266 325
#     4   9  18  33  54  82 115 152 188 220 260 316
#     4   9  17  30  50  76 106 142 178 213 259 315
#     4  11  24  40  59  82 106 133 180 240 293 341
#     4  11  22  36  55  81 110 138 179 230 278 330
#     4  10  20  36  58  78 111 144 178 224 278 326
#     4   9  17  29  50  77 112 155 190 220 255 304
#
# _framework density 18.647317000000001
#
# number of rings (size 3 to 8) (size 9 to 14) (size 15 to 20)
#    0.000    2.333    2.500    0.500    0.000    5.000 
#    0.000    6.667    0.000    3.000    0.000    4.667 
#    0.000    0.000    0.000    0.000    0.000    0.000 
#
# Total GULP energy -594857.855788 kJ/mol
# GULP energy per Si atom -12392.871996 kJ/mol
# Density = 1.860487 g / cm^3
# Si number density = 18.647317 Si / 1000 Ang^3
#
#
#
# Elastic Constant Matrix: (Units=GPa)
#
#
# Indices 1 2 3 4 5 6 
#
# 1 85.4898 34.9595 58.0496 0.0000 0.0000 0.0000
# 2 34.9595 103.0257 49.2840 0.0000 0.0000 0.0000
# 3 58.0496 49.2840 138.9366 0.0000 0.0000 0.0000
# 4 0.0000 0.0000 0.0000 19.9760 0.0000 0.0000
# 5 0.0000 0.0000 0.0000 0.0000 13.1386 0.0000
# 6 0.0000 0.0000 0.0000 0.0000 0.0000 19.1606
#
#
#
# Elastic Compliance Matrix: (Units=1/GPa)
#
#
# Indices 1 2 3 4 5 6 
#
# 1 0.017000 -0.002855 -0.006090 0.000000 0.000000 0.000000
# 2 -0.002855 0.012170 -0.003124 0.000000 0.000000 0.000000
# 3 -0.006090 -0.003124 0.010850 0.000000 0.000000 0.000000
# 4 0.000000 0.000000 0.000000 0.050060 0.000000 0.000000
# 5 0.000000 0.000000 0.000000 0.000000 0.076112 0.000000
# 6 0.000000 0.000000 0.000000 0.000000 0.000000 0.052191
#
#
# Mechanical properties :
#
#
# Convention : Reuss Voigt Hill
#
# Bulk Modulus (GPa) = 62.96664 68.00427 65.48545
# Shear Modulus (GPa) = 20.17638 22.79896 21.48767
#
# Velocity S-wave (km/s) = 3.29294 3.50042 3.39827
# Velocity P-wave (km/s) = 6.94971 7.27221 7.11279
#
# Compressibility (1/GPa) = 0.01588143
#
# Stress axis : x y z
#
# Youngs Moduli (GPa) = 58.82266 82.17231 92.16485
#
# Poissons Ratio (x) = 0.23463 0.56129
# Poissons Ratio (y) = 0.16796 0.28790
# Poissons Ratio (z) = 0.35823 0.25669
#
# Static dielectric constant tensor:
#      x y z
#    x 3.352310 0.000000 0.000000 
#    y 0.000000 3.580640 0.000000 
#    z 0.000000 0.000000 3.373200 
# 
# 
# High freq. dielectric constant tensor:
#      x y z
#    x 1.720210 0.000000 0.000000 
#    y 0.000000 1.728320 0.000000 
#    z 0.000000 0.000000 1.687640 
# 
# From -- ./inp_files/40691.got.cif
#   From: 2010.03.12/outbox.cif.g09.slc.cpg/sg65_21_cif.got.tgz:40691.got - 2010.04.10 20:52:16.
