data_PCOD8269847
_publ_section_title
;
Structure prediction by ZEFSAII (Michael W. Deem and Ramdas Pophale) SiO2 
 PCOD8269847
Probable space group: C M M M
;
_chemical_formula_sum "Si O2"
_cell_formula_units_Z 88
_cell_length_a 24.873382
_cell_length_b 9.305718
_cell_length_c 21.892718
_cell_angle_alpha 90.000000
_cell_angle_beta 90.000000
_cell_angle_gamma 90.000000
_cell_volume 5067.390936
_symmetry_space_group_name_H-M "C M M M"
_symmetry_group_IT_number 65
_symmetry_cell_setting 'orthorhombic'
loop_
_space_group_symop_operation_xyz
x,y,z
-x,-y,z
x,-y,-z
-x,y,-z
-x,-y,-z
x,y,-z
-x,y,z
x,-y,z
1/2+x,1/2+y,z
1/2-x,1/2-y,z
1/2+x,1/2-y,-z
1/2-x,1/2+y,-z
1/2-x,1/2-y,-z
1/2+x,1/2+y,-z
1/2-x,1/2+y,z
1/2+x,1/2-y,z
loop_
_atom_site_type_symbol
_atom_site_label
_atom_site_fract_x
_atom_site_fract_y
_atom_site_fract_z
Si Si1 0.500000 0.331423 0.750878
Si Si2 0.581485 0.830839 0.831545
Si Si3 0.102374 0.664041 0.569169
Si Si4 0.500000 0.332616 0.392029
Si Si5 0.000000 0.331381 0.067131
Si Si6 0.301945 0.833791 0.204235
Si Si7 0.197830 0.667605 0.344748
O O1 0.500000 0.500000 0.766585
O O2 0.446472 0.258287 0.777695
O O3 0.500000 0.300727 0.679534
O O4 0.553606 0.786206 0.895603
O O5 0.644772 0.792431 0.834389
O O6 0.573206 0.000000 0.817605
O O7 0.123994 0.675210 0.500000
O O8 0.086554 0.500000 0.585242
O O9 0.148066 0.720815 0.614928
O O10 0.051390 0.764250 0.576454
O O11 0.500000 0.500000 0.406539
O O12 0.000000 0.500000 0.058073
O O13 0.000000 0.256910 0.000000
O O14 0.250000 0.750000 0.178532
O O15 0.313894 0.792818 0.274370
O O16 0.288114 0.000000 0.197168
O O17 0.208360 0.500000 0.353720
O O18 0.250000 0.750000 0.368748
#
# Coordination Sequence:
#
# PCOD8269847 Si02
#       7
#     8  16  16   8   8  16  16
#     4  10  20  31  46  71  98 121 149 192 242 284
#     4   9  17  30  49  72  97 127 162 193 228 277
#     4  10  21  36  52  68  88 119 157 193 232 283
#     4  11  23  35  48  69  95 121 151 191 240 287
#     4   8  14  26  47  74  99 124 160 204 236 260
#     4   9  17  29  46  68  93 122 154 190 233 279
#     4   9  18  32  49  69  92 117 149 190 235 281
#
# _framework density 17.365938
#
# number of rings (size 3 to 8) (size 9 to 14) (size 15 to 20)
#    0.000    2.636    0.000    2.455    0.000    6.182 
#    0.000    3.636    0.000    4.909    0.000    0.000 
#    0.000    0.000    0.000    0.000    0.000    0.000 
#
# Total GULP energy -545589.506903 kJ/mol
# GULP energy per Si atom -12399.761521 kJ/mol
# Density = 1.732641 g / cm^3
# Si number density = 17.365938 Si / 1000 Ang^3
#
#
#
# Elastic Constant Matrix: (Units=GPa)
#
#
# Indices 1 2 3 4 5 6 
#
# 1 155.2673 43.8378 53.4304 0.0000 0.0000 0.0000
# 2 43.8378 47.2825 25.8421 0.0000 0.0000 0.0000
# 3 53.4304 25.8421 79.1999 0.0000 0.0000 0.0000
# 4 0.0000 0.0000 0.0000 14.0605 0.0000 0.0000
# 5 0.0000 0.0000 0.0000 0.0000 -36.2167 0.0000
# 6 0.0000 0.0000 0.0000 0.0000 0.0000 33.2860
#
#
#
# Elastic Compliance Matrix: (Units=1/GPa)
#
#
# Indices 1 2 3 4 5 6 
#
# 1 0.009874 -0.006711 -0.004472 0.000000 0.000000 0.000000
# 2 -0.006711 0.030300 -0.005360 0.000000 0.000000 0.000000
# 3 -0.004472 -0.005360 0.017392 0.000000 0.000000 0.000000
# 4 0.000000 0.000000 0.000000 0.071121 0.000000 0.000000
# 5 0.000000 0.000000 0.000000 0.000000 -0.027612 0.000000
# 6 0.000000 0.000000 0.000000 0.000000 0.000000 0.030043
#
#
# Mechanical properties :
#
#
# Convention : Reuss Voigt Hill
#
# Bulk Modulus (GPa) = 40.84551 58.66339 49.75445
# Shear Modulus (GPa) = 29.00854 12.80190 20.90522
#
# Velocity S-wave (km/s) = 4.09152 2.71806 3.47336
# Velocity P-wave (km/s) = 6.77438 6.61094 6.69316
#
# Compressibility (1/GPa) = 0.02448250
#
# Stress axis : x y z
#
# Youngs Moduli (GPa) = 101.27673 33.00281 57.49867
#
# Poissons Ratio (x) = 0.22147 0.25711
# Poissons Ratio (y) = 0.67963 0.30817
# Poissons Ratio (z) = 0.45287 0.17688
#
# Static dielectric constant tensor:
#      x y z
#    x 3.359050 0.000000 0.000000 
#    y 0.000000 3.132170 0.000000 
#    z 0.000000 0.000000 3.256890 
# 
# 
# High freq. dielectric constant tensor:
#      x y z
#    x 1.675510 0.000000 0.000000 
#    y 0.000000 1.658770 0.000000 
#    z 0.000000 0.000000 1.651760 
# 
# From -- ./inp_files/65218.got.cif
#   From: 2010.03.12/outbox.cif.g09.slc.cpg/sg65_33_cif.got.tgz:65218.got - 2010.04.10 20:52:16.
