data_PCOD8269676
_publ_section_title
;
Structure prediction by ZEFSAII (Michael W. Deem and Ramdas Pophale) SiO2 
 PCOD8269676
Probable space group: C M M M
;
_chemical_formula_sum "Si O2"
_cell_formula_units_Z 112
_cell_length_a 17.922360
_cell_length_b 18.372753
_cell_length_c 17.866056
_cell_angle_alpha 90.000000
_cell_angle_beta 90.000000
_cell_angle_gamma 90.000000
_cell_volume 5882.990188
_symmetry_space_group_name_H-M "C M M M"
_symmetry_group_IT_number 65
_symmetry_cell_setting 'orthorhombic'
loop_
_space_group_symop_operation_xyz
x,y,z
-x,-y,z
x,-y,-z
-x,y,-z
-x,-y,-z
x,y,-z
-x,y,z
x,-y,z
1/2+x,1/2+y,z
1/2-x,1/2-y,z
1/2+x,1/2-y,-z
1/2-x,1/2+y,-z
1/2-x,1/2-y,-z
1/2+x,1/2+y,-z
1/2-x,1/2+y,z
1/2+x,1/2-y,z
loop_
_atom_site_type_symbol
_atom_site_label
_atom_site_fract_x
_atom_site_fract_y
_atom_site_fract_z
Si Si1 0.412422 0.671415 0.151366
Si Si2 0.223385 0.084365 0.913139
Si Si3 0.329622 0.189707 0.657410
Si Si4 0.186060 0.698318 0.169151
Si Si5 0.584628 0.418280 0.298735
Si Si6 0.913503 0.421660 0.418717
Si Si7 0.675695 0.661582 0.588049
O O1 0.500000 0.662688 0.127488
O O2 0.356718 0.624366 0.099420
O O3 0.391351 0.758557 0.149742
O O4 0.398007 0.640518 0.234408
O O5 0.295237 0.120999 0.870332
O O6 0.217420 0.000000 0.887215
O O7 0.242565 0.089332 0.000000
O O8 0.303784 0.190006 0.742395
O O9 0.395786 0.132583 0.648689
O O10 0.358993 0.266425 0.626565
O O11 0.263452 0.160971 0.604180
O O12 0.250000 0.750000 0.137188
O O13 0.500000 0.409949 0.325839
O O14 0.599628 0.500000 0.268060
O O15 0.636338 0.406034 0.371184
O O16 0.887340 0.391095 0.500000
O O17 0.874804 0.500000 0.404193
O O18 0.000000 0.434024 0.419150
O O19 0.659478 0.658689 0.500000
#
# Coordination Sequence:
#
# PCOD8269676 Si02
#       7
#    16  16  16  16  16  16  16
#     4  10  20  36  59  88 118 151 191 238 287 336
#     4  10  22  39  60  89 121 152 187 228 279 341
#     4  11  19  34  53  76 102 136 181 232 278 325
#     4  10  19  36  60  81 112 150 188 230 277 335
#     4  10  21  37  55  76 107 148 190 231 279 337
#     4   9  19  34  49  69 100 136 175 223 279 332
#     4  11  21  33  50  75 106 141 183 233 284 328
#
# _framework density 19.037938
#
# number of rings (size 3 to 8) (size 9 to 14) (size 15 to 20)
#    0.000    1.857    2.857    3.429    0.000    6.571 
#    0.000    1.429    0.000    0.429    0.000    1.000 
#    0.000    0.000    0.000    0.000    0.000    0.000 
#
# Total GULP energy -693833.471399 kJ/mol
# GULP energy per Si atom -12389.883418 kJ/mol
# Density = 1.899461 g / cm^3
# Si number density = 19.037938 Si / 1000 Ang^3
#
#
#
# Elastic Constant Matrix: (Units=GPa)
#
#
# Indices 1 2 3 4 5 6 
#
# 1 52.1526 49.3696 20.1794 0.0000 0.0000 0.0000
# 2 49.3696 103.4117 37.3385 0.0000 0.0000 0.0000
# 3 20.1794 37.3385 80.9459 0.0000 0.0000 0.0000
# 4 0.0000 0.0000 0.0000 29.9491 0.0000 0.0000
# 5 0.0000 0.0000 0.0000 0.0000 16.7252 0.0000
# 6 0.0000 0.0000 0.0000 0.0000 0.0000 32.5109
#
#
#
# Elastic Compliance Matrix: (Units=1/GPa)
#
#
# Indices 1 2 3 4 5 6 
#
# 1 0.035087 -0.016309 -0.001224 0.000000 0.000000 0.000000
# 2 -0.016309 0.019183 -0.004783 0.000000 0.000000 0.000000
# 3 -0.001224 -0.004783 0.014865 0.000000 0.000000 0.000000
# 4 0.000000 0.000000 0.000000 0.033390 0.000000 0.000000
# 5 0.000000 0.000000 0.000000 0.000000 0.059790 0.000000
# 6 0.000000 0.000000 0.000000 0.000000 0.000000 0.030759
#
#
# Mechanical properties :
#
#
# Convention : Reuss Voigt Hill
#
# Bulk Modulus (GPa) = 40.81066 50.03170 45.42118
# Shear Modulus (GPa) = 20.33571 24.47856 22.40714
#
# Velocity S-wave (km/s) = 3.27183 3.58966 3.43443
# Velocity P-wave (km/s) = 5.97965 6.59682 6.29580
#
# Compressibility (1/GPa) = 0.02450340
#
# Stress axis : x y z
#
# Youngs Moduli (GPa) = 28.50098 52.12968 67.27042
#
# Poissons Ratio (x) = 0.85016 0.08235
# Poissons Ratio (y) = 0.46481 0.32175
# Poissons Ratio (z) = 0.03489 0.24934
#
# Static dielectric constant tensor:
#      x y z
#    x 3.387150 0.000000 0.000000 
#    y 0.000000 3.861570 0.000000 
#    z 0.000000 0.000000 3.303880 
# 
# 
# High freq. dielectric constant tensor:
#      x y z
#    x 1.723090 0.000000 0.000000 
#    y 0.000000 1.743830 0.000000 
#    z 0.000000 0.000000 1.727450 
# 
# From -- ./inp_files/54866.got.cif
#   From: 2010.03.12/outbox.cif.g09.slc.cpg/sg65_28_cif.got.tgz:54866.got - 2010.04.10 20:52:16.
