data_PCOD8269609
_publ_section_title
;
Structure prediction by ZEFSAII (Michael W. Deem and Ramdas Pophale) SiO2 
 PCOD8269609
Probable space group: C M M M
;
_chemical_formula_sum "Si O2"
_cell_formula_units_Z 72
_cell_length_a 13.117258
_cell_length_b 32.167969
_cell_length_c 9.275538
_cell_angle_alpha 90.000000
_cell_angle_beta 90.000000
_cell_angle_gamma 90.000000
_cell_volume 3913.864726
_symmetry_space_group_name_H-M "C M M M"
_symmetry_group_IT_number 65
_symmetry_cell_setting 'orthorhombic'
loop_
_space_group_symop_operation_xyz
x,y,z
-x,-y,z
x,-y,-z
-x,y,-z
-x,-y,-z
x,y,-z
-x,y,z
x,-y,z
1/2+x,1/2+y,z
1/2-x,1/2-y,z
1/2+x,1/2-y,-z
1/2-x,1/2+y,-z
1/2-x,1/2-y,-z
1/2+x,1/2+y,-z
1/2-x,1/2+y,z
1/2+x,1/2-y,z
loop_
_atom_site_type_symbol
_atom_site_label
_atom_site_fract_x
_atom_site_fract_y
_atom_site_fract_z
Si Si1 0.884978 0.133855 0.170132
Si Si2 0.500000 0.219691 0.668623
Si Si3 0.381189 0.000000 0.671495
Si Si4 0.000000 0.635728 0.163436
Si Si5 0.353591 0.272816 0.157265
Si Si6 0.303996 0.079527 0.168556
O O1 0.847531 0.179944 0.215659
O O2 0.800734 0.100937 0.226461
O O3 0.000000 0.124954 0.231071
O O4 0.886560 0.130200 0.000000
O O5 0.500000 0.215653 0.500000
O O6 0.500000 0.173847 0.730121
O O7 0.596125 0.245436 0.720450
O O8 0.322429 0.039287 0.735486
O O9 0.500000 0.000000 0.719283
O O10 0.371376 0.000000 0.500000
O O11 0.101091 0.609715 0.194468
O O12 0.000000 0.652520 0.000000
O O13 0.250000 0.250000 0.129528
O O14 0.410216 0.273417 0.000000
O O15 0.296165 0.067303 0.000000
#
# Coordination Sequence:
#
# PCOD8269609 Si02
#       6
#    16   8   8   8  16  16
#     4   9  17  32  56  85 113 143 187 243 293 333
#     4  12  24  34  49  79 120 157 190 232 288 348
#     4  11  23  39  60  87 122 152 177 220 291 360
#     4  10  20  35  55  82 113 146 197 247 284 332
#     4  10  19  35  59  80 105 147 200 251 291 329
#     4  10  20  36  62  89 111 143 189 239 285 336
#
# _framework density 18.396139999999999
#
# number of rings (size 3 to 8) (size 9 to 14) (size 15 to 20)
#    0.000    1.889    2.222    2.667    0.000    5.333 
#    0.000    1.667    0.000    3.333    0.000    0.000 
#    0.000    0.000    0.000    0.000    0.000    0.000 
#
# Total GULP energy -446127.191651 kJ/mol
# GULP energy per Si atom -12392.421990 kJ/mol
# Density = 1.835427 g / cm^3
# Si number density = 18.396140 Si / 1000 Ang^3
#
#
#
# Elastic Constant Matrix: (Units=GPa)
#
#
# Indices 1 2 3 4 5 6 
#
# 1 144.6773 73.7912 35.0887 0.0000 0.0000 0.0000
# 2 73.7912 145.3930 71.6322 0.0000 0.0000 0.0000
# 3 35.0887 71.6322 89.5004 0.0000 0.0000 0.0000
# 4 0.0000 0.0000 0.0000 20.7267 0.0000 0.0000
# 5 0.0000 0.0000 0.0000 0.0000 13.3074 0.0000
# 6 0.0000 0.0000 0.0000 0.0000 0.0000 -35.5011
#
#
#
# Elastic Compliance Matrix: (Units=1/GPa)
#
#
# Indices 1 2 3 4 5 6 
#
# 1 0.009329 -0.004842 0.000218 0.000000 0.000000 0.000000
# 2 -0.004842 0.013869 -0.009202 0.000000 0.000000 0.000000
# 3 0.000218 -0.009202 0.018452 0.000000 0.000000 0.000000
# 4 0.000000 0.000000 0.000000 0.048247 0.000000 0.000000
# 5 0.000000 0.000000 0.000000 0.000000 0.075146 0.000000
# 6 0.000000 0.000000 0.000000 0.000000 0.000000 -0.028168
#
#
# Mechanical properties :
#
#
# Convention : Reuss Voigt Hill
#
# Bulk Modulus (GPa) = 71.43656 82.28832 76.86244
# Shear Modulus (GPa) = 29.55220 12.97719 21.26469
#
# Velocity S-wave (km/s) = 4.01238 2.65887 3.40359
# Velocity P-wave (km/s) = 7.77060 7.36577 7.57089
#
# Compressibility (1/GPa) = 0.01399843
#
# Stress axis : x y z
#
# Youngs Moduli (GPa) = 107.19652 72.10401 54.19375
#
# Poissons Ratio (x) = 0.34913 -0.01181
# Poissons Ratio (y) = 0.51904 0.49868
# Poissons Ratio (z) = -0.02337 0.66348
#
# Static dielectric constant tensor:
#      x y z
#    x 3.704660 0.000000 0.000000 
#    y 0.000000 3.452970 0.000000 
#    z 0.000000 0.000000 3.078530 
# 
# 
# High freq. dielectric constant tensor:
#      x y z
#    x 1.723790 0.000000 0.000000 
#    y 0.000000 1.716480 0.000000 
#    z 0.000000 0.000000 1.679310 
# 
# From -- ./inp_files/7343.got.cif
#   From: 2010.03.12/outbox.cif.g09.slc.cpg/sg65_4_cif.got.tgz:7343.got - 2010.04.10 20:52:16.
