data_PCOD8269528
_publ_section_title
;
Structure prediction by ZEFSAII (Michael W. Deem and Ramdas Pophale) SiO2 
 PCOD8269528
Probable space group: C M M M
;
_chemical_formula_sum "Si O2"
_cell_formula_units_Z 88
_cell_length_a 24.277389
_cell_length_b 8.577180
_cell_length_c 22.010634
_cell_angle_alpha 90.000000
_cell_angle_beta 90.000000
_cell_angle_gamma 90.000000
_cell_volume 4583.308113
_symmetry_space_group_name_H-M "C M M M"
_symmetry_group_IT_number 65
_symmetry_cell_setting 'orthorhombic'
loop_
_space_group_symop_operation_xyz
x,y,z
-x,-y,z
x,-y,-z
-x,y,-z
-x,-y,-z
x,y,-z
-x,y,z
x,-y,z
1/2+x,1/2+y,z
1/2-x,1/2-y,z
1/2+x,1/2-y,-z
1/2-x,1/2+y,-z
1/2-x,1/2-y,-z
1/2+x,1/2+y,-z
1/2-x,1/2+y,z
1/2+x,1/2-y,z
loop_
_atom_site_type_symbol
_atom_site_label
_atom_site_fract_x
_atom_site_fract_y
_atom_site_fract_z
Si Si1 0.188542 0.813943 0.500000
Si Si2 0.901914 0.183513 0.850428
Si Si3 0.063553 0.682802 0.276747
Si Si4 0.114814 0.184510 0.612873
Si Si5 0.000000 0.185366 0.565893
Si Si6 0.310415 0.182674 0.068342
Si Si7 0.500000 0.684725 0.066479
O O1 0.250000 0.750000 0.500000
O O2 0.158274 0.752690 0.437977
O O3 0.188518 0.000000 0.500000
O O4 0.915138 0.274798 0.789399
O O5 0.843798 0.228442 0.879369
O O6 0.946369 0.242845 0.898761
O O7 0.905072 0.000000 0.837099
O O8 0.061546 0.500000 0.285116
O O9 0.114635 0.748697 0.318886
O O10 0.000000 0.749123 0.287481
O O11 0.054479 0.248462 0.596715
O O12 0.120120 0.000000 0.614092
O O13 0.000000 0.258735 0.500000
O O14 0.000000 0.000000 0.563757
O O15 0.250000 0.250000 0.073391
O O16 0.310305 0.000000 0.082372
O O17 0.333485 0.215729 0.000000
O O18 0.500000 0.500000 0.061638
O O19 0.500000 0.761952 0.000000
#
# Coordination Sequence:
#
# PCOD8269528 Si02
#       7
#     8  16  16  16   8  16   8
#     4  10  22  39  61  88 118 153 190 234 284 341
#     4  11  21  36  58  83 116 156 199 244 292 347
#     4  11  23  37  54  82 121 157 190 234 293 354
#     4  10  19  34  59  86 111 146 193 234 280 340
#     4   9  14  25  51  84 110 131 170 229 278 321
#     4  10  21  38  60  86 115 149 191 241 295 347
#     4   9  18  31  51  82 116 150 191 238 291 351
#
# _framework density 19.200105000000001
#
# number of rings (size 3 to 8) (size 9 to 14) (size 15 to 20)
#    0.000    1.818    2.727    2.182    0.000    3.273 
#    0.000    0.909    0.000    6.000    0.000    0.000 
#    0.000    0.000    0.000    0.000    0.000    0.000 
#
# Total GULP energy -545115.396950 kJ/mol
# GULP energy per Si atom -12388.986294 kJ/mol
# Density = 1.915641 g / cm^3
# Si number density = 19.200105 Si / 1000 Ang^3
#
#
#
# Elastic Constant Matrix: (Units=GPa)
#
#
# Indices 1 2 3 4 5 6 
#
# 1 101.9475 19.5243 57.2301 0.0000 0.0000 0.0000
# 2 19.5243 33.8551 17.7879 0.0000 0.0000 0.0000
# 3 57.2301 17.7879 140.6703 0.0000 0.0000 0.0000
# 4 0.0000 0.0000 0.0000 21.0817 0.0000 0.0000
# 5 0.0000 0.0000 0.0000 0.0000 36.1977 0.0000
# 6 0.0000 0.0000 0.0000 0.0000 0.0000 27.7743
#
#
#
# Elastic Compliance Matrix: (Units=1/GPa)
#
#
# Indices 1 2 3 4 5 6 
#
# 1 0.013534 -0.005262 -0.004841 0.000000 0.000000 0.000000
# 2 -0.005262 0.033685 -0.002119 0.000000 0.000000 0.000000
# 3 -0.004841 -0.002119 0.009346 0.000000 0.000000 0.000000
# 4 0.000000 0.000000 0.000000 0.047435 0.000000 0.000000
# 5 0.000000 0.000000 0.000000 0.000000 0.027626 0.000000
# 6 0.000000 0.000000 0.000000 0.000000 0.000000 0.036005
#
#
# Mechanical properties :
#
#
# Convention : Reuss Voigt Hill
#
# Bulk Modulus (GPa) = 31.13056 51.72863 41.42960
# Shear Modulus (GPa) = 24.65707 29.13942 26.89825
#
# Velocity S-wave (km/s) = 3.58748 3.89995 3.74698
# Velocity P-wave (km/s) = 5.78005 6.87604 6.35173
#
# Compressibility (1/GPa) = 0.03212277
#
# Stress axis : x y z
#
# Youngs Moduli (GPa) = 73.88695 29.68649 106.99516
#
# Poissons Ratio (x) = 0.15620 0.51795
# Poissons Ratio (y) = 0.38877 0.22671
# Poissons Ratio (z) = 0.35768 0.06290
#
# Static dielectric constant tensor:
#      x y z
#    x 3.508850 0.000000 0.000000 
#    y 0.000000 3.235280 0.000000 
#    z 0.000000 0.000000 3.916530 
# 
# 
# High freq. dielectric constant tensor:
#      x y z
#    x 1.733470 0.000000 0.000000 
#    y 0.000000 1.729340 0.000000 
#    z 0.000000 0.000000 1.763000 
# 
# From -- ./inp_files/65220.got.cif
#   From: 2010.03.12/outbox.cif.g09.slc.cpg/sg65_33_cif.got.tgz:65220.got - 2010.04.10 20:52:16.
