data_PCOD8269243
_publ_section_title
;
Structure prediction by ZEFSAII (Michael W. Deem and Ramdas Pophale) SiO2 
 PCOD8269243
Probable space group: C M M M
;
_chemical_formula_sum "Si O2"
_cell_formula_units_Z 84
_cell_length_a 29.584390
_cell_length_b 13.944908
_cell_length_c 11.898591
_cell_angle_alpha 90.000000
_cell_angle_beta 90.000000
_cell_angle_gamma 90.000000
_cell_volume 4908.782717
_symmetry_space_group_name_H-M "C M M M"
_symmetry_group_IT_number 65
_symmetry_cell_setting 'orthorhombic'
loop_
_space_group_symop_operation_xyz
x,y,z
-x,-y,z
x,-y,-z
-x,y,-z
-x,-y,-z
x,y,-z
-x,y,z
x,-y,z
1/2+x,1/2+y,z
1/2-x,1/2-y,z
1/2+x,1/2-y,-z
1/2-x,1/2+y,-z
1/2-x,1/2-y,-z
1/2+x,1/2+y,-z
1/2-x,1/2+y,z
1/2+x,1/2-y,z
loop_
_atom_site_type_symbol
_atom_site_label
_atom_site_fract_x
_atom_site_fract_y
_atom_site_fract_z
Si Si1 0.188643 0.000000 0.500000
Si Si2 0.551446 0.890216 0.269086
Si Si3 0.684816 0.000000 0.123863
Si Si4 0.796530 0.795268 0.254142
Si Si5 0.228410 0.000000 0.265431
Si Si6 0.102758 0.609366 0.500000
Si Si7 0.127493 0.688612 0.127587
Si Si8 0.826853 0.786184 0.500000
O O1 0.224892 0.000000 0.600382
O O2 0.157747 0.901138 0.500000
O O3 0.500000 0.854009 0.269845
O O4 0.571138 0.879832 0.392987
O O5 0.578471 0.821365 0.183967
O O6 0.554352 0.000000 0.227493
O O7 0.652480 0.088784 0.137415
O O8 0.719701 0.000000 0.226258
O O9 0.708514 0.000000 0.000000
O O10 0.750000 0.750000 0.205863
O O11 0.796410 0.906351 0.219818
O O12 0.841997 0.762765 0.194717
O O13 0.797610 0.772341 0.387261
O O14 0.124981 0.500000 0.500000
O O15 0.136330 0.700817 0.500000
O O16 0.121267 0.723360 0.000000
#
# Coordination Sequence:
#
# PCOD8269243 Si02
#       8
#     4  16   8  16   8   8  16   8
#     4   8  20  34  54  76 107 138 185 228 254 320
#     4  10  20  35  55  81 112 142 173 215 272 331
#     4  10  20  34  51  70 103 142 185 222 252 301
#     4  11  21  35  54  76 108 140 181 221 265 316
#     4  10  20  36  52  77 104 143 178 222 268 308
#     4  10  19  33  57  85 110 138 176 219 273 334
#     4  11  22  35  52  77 106 144 187 222 257 309
#     4  10  19  35  53  78 107 143 177 219 273 321
#
# _framework density 17.112186000000001
#
# number of rings (size 3 to 8) (size 9 to 14) (size 15 to 20)
#    0.000    1.714    4.762    0.571    0.000    2.667 
#    1.714    1.905    0.000    0.000    0.000    3.333 
#    0.000    1.524    0.000    0.000    0.000    0.000 
#
# Total GULP energy -520420.275328 kJ/mol
# GULP energy per Si atom -12390.958936 kJ/mol
# Density = 1.707324 g / cm^3
# Si number density = 17.112186 Si / 1000 Ang^3
#
#
#
# Elastic Constant Matrix: (Units=GPa)
#
#
# Indices 1 2 3 4 5 6 
#
# 1 105.1917 53.3535 35.7875 0.0000 0.0000 0.0000
# 2 53.3535 109.2330 34.6193 0.0000 0.0000 0.0000
# 3 35.7875 34.6193 84.1274 0.0000 0.0000 0.0000
# 4 0.0000 0.0000 0.0000 10.1331 0.0000 0.0000
# 5 0.0000 0.0000 0.0000 0.0000 8.2517 0.0000
# 6 0.0000 0.0000 0.0000 0.0000 0.0000 27.6306
#
#
#
# Elastic Compliance Matrix: (Units=1/GPa)
#
#
# Indices 1 2 3 4 5 6 
#
# 1 0.013466 -0.005476 -0.003475 0.000000 0.000000 0.000000
# 2 -0.005476 0.012755 -0.002919 0.000000 0.000000 0.000000
# 3 -0.003475 -0.002919 0.014566 0.000000 0.000000 0.000000
# 4 0.000000 0.000000 0.000000 0.098687 0.000000 0.000000
# 5 0.000000 0.000000 0.000000 0.000000 0.121187 0.000000
# 6 0.000000 0.000000 0.000000 0.000000 0.000000 0.036192
#
#
# Mechanical properties :
#
#
# Convention : Reuss Voigt Hill
#
# Bulk Modulus (GPa) = 58.66273 60.67475 59.66874
# Shear Modulus (GPa) = 15.32451 20.85588 18.09020
#
# Velocity S-wave (km/s) = 2.99579 3.49488 3.25492
# Velocity P-wave (km/s) = 6.80603 7.19858 7.00506
#
# Compressibility (1/GPa) = 0.01704660
#
# Stress axis : x y z
#
# Youngs Moduli (GPa) = 74.26032 78.40299 68.65176
#
# Poissons Ratio (x) = 0.42934 0.23857
# Poissons Ratio (y) = 0.40665 0.20041
# Poissons Ratio (z) = 0.25805 0.22887
#
# Static dielectric constant tensor:
#      x y z
#    x 3.049560 0.000000 0.000000 
#    y 0.000000 3.372000 0.000000 
#    z 0.000000 0.000000 3.374530 
# 
# 
# High freq. dielectric constant tensor:
#      x y z
#    x 1.636720 0.000000 0.000000 
#    y 0.000000 1.653020 0.000000 
#    z 0.000000 0.000000 1.669700 
# 
# From -- ./inp_files/33869.got.cif
#   From: 2010.03.12/outbox.cif.g09.slc.cpg/sg65_17_cif.got.tgz:33869.got - 2010.04.10 20:52:16.
