data_PCOD8269860
_publ_section_title
;
Structure prediction by ZEFSAII (Michael W. Deem and Ramdas Pophale) SiO2 
 PCOD8269860
Probable space group: C M M M
;
_chemical_formula_sum "Si O2"
_cell_formula_units_Z 112
_cell_length_a 17.476243
_cell_length_b 22.580290
_cell_length_c 14.456496
_cell_angle_alpha 90.000000
_cell_angle_beta 90.000000
_cell_angle_gamma 90.000000
_cell_volume 5704.802719
_symmetry_space_group_name_H-M "C M M M"
_symmetry_group_IT_number 65
_symmetry_cell_setting 'orthorhombic'
loop_
_space_group_symop_operation_xyz
x,y,z
-x,-y,z
x,-y,-z
-x,y,-z
-x,-y,-z
x,y,-z
-x,y,z
x,-y,z
1/2+x,1/2+y,z
1/2-x,1/2-y,z
1/2+x,1/2-y,-z
1/2-x,1/2+y,-z
1/2-x,1/2-y,-z
1/2+x,1/2+y,-z
1/2-x,1/2+y,z
1/2+x,1/2-y,z
loop_
_atom_site_type_symbol
_atom_site_label
_atom_site_fract_x
_atom_site_fract_y
_atom_site_fract_z
Si Si1 0.411661 0.341028 0.735989
Si Si2 0.087358 0.731205 0.606443
Si Si3 0.172596 0.386215 0.395757
Si Si4 0.589574 0.161548 0.898961
Si Si5 0.332140 0.278553 0.892441
Si Si6 0.587372 0.934984 0.763111
Si Si7 0.340584 0.569280 0.394877
O O1 0.500000 0.340750 0.768072
O O2 0.392216 0.288376 0.665657
O O3 0.355889 0.333565 0.826047
O O4 0.397066 0.402705 0.681530
O O5 0.100066 0.748894 0.500000
O O6 0.145054 0.678976 0.636559
O O7 0.000000 0.710133 0.624114
O O8 0.145156 0.397954 0.500000
O O9 0.131827 0.435259 0.333329
O O10 0.262932 0.393215 0.386040
O O11 0.500000 0.150848 0.904430
O O12 0.605932 0.228087 0.866141
O O13 0.626386 0.112596 0.831791
O O14 0.627656 0.152636 0.000000
O O15 0.250000 0.250000 0.869795
O O16 0.337089 0.298682 0.000000
O O17 0.500000 0.917770 0.743342
O O18 0.594065 0.000000 0.808192
O O19 0.372949 0.575676 0.500000
O O20 0.327596 0.500000 0.371892
#
# Coordination Sequence:
#
# PCOD8269860 Si02
#       7
#    16  16  16  16  16  16  16
#     4  11  23  37  60  90 116 149 192 237 288 345
#     4   9  18  32  52  83 120 152 185 230 286 349
#     4  10  20  34  52  75 109 151 191 231 282 341
#     4   9  18  34  55  77 107 146 181 219 273 331
#     4  10  22  38  58  87 119 147 180 226 283 349
#     4  10  20  31  47  75 108 146 192 233 269 321
#     4  10  23  41  59  82 114 155 201 247 294 343
#
# _framework density 19.632580000000001
#
# number of rings (size 3 to 8) (size 9 to 14) (size 15 to 20)
#    0.000    2.143    0.000    2.571    4.000    6.286 
#    0.000    5.000    0.000    0.429    0.000    1.000 
#    0.000    0.000    0.000    0.000    0.000    0.000 
#
# Total GULP energy -694294.035343 kJ/mol
# GULP energy per Si atom -12398.107774 kJ/mol
# Density = 1.958790 g / cm^3
# Si number density = 19.632580 Si / 1000 Ang^3
#
#
#
# Elastic Constant Matrix: (Units=GPa)
#
#
# Indices 1 2 3 4 5 6 
#
# 1 60.9892 23.7138 32.8142 0.0000 0.0000 0.0000
# 2 23.7138 81.6368 43.1204 0.0000 0.0000 0.0000
# 3 32.8142 43.1204 90.5619 0.0000 0.0000 0.0000
# 4 0.0000 0.0000 0.0000 27.9138 0.0000 0.0000
# 5 0.0000 0.0000 0.0000 0.0000 26.8435 0.0000
# 6 0.0000 0.0000 0.0000 0.0000 0.0000 21.7551
#
#
#
# Elastic Compliance Matrix: (Units=1/GPa)
#
#
# Indices 1 2 3 4 5 6 
#
# 1 0.020821 -0.002756 -0.006232 0.000000 0.000000 0.000000
# 2 -0.002756 0.016730 -0.006967 0.000000 0.000000 0.000000
# 3 -0.006232 -0.006967 0.016618 0.000000 0.000000 0.000000
# 4 0.000000 0.000000 0.000000 0.035825 0.000000 0.000000
# 5 0.000000 0.000000 0.000000 0.000000 0.037253 0.000000
# 6 0.000000 0.000000 0.000000 0.000000 0.000000 0.045966
#
#
# Mechanical properties :
#
#
# Convention : Reuss Voigt Hill
#
# Bulk Modulus (GPa) = 44.92793 48.05384 46.49088
# Shear Modulus (GPa) = 23.52470 24.20512 23.86491
#
# Velocity S-wave (km/s) = 3.46533 3.51508 3.49029
# Velocity P-wave (km/s) = 6.24062 6.40345 6.32256
#
# Compressibility (1/GPa) = 0.02225787
#
# Stress axis : x y z
#
# Youngs Moduli (GPa) = 48.02833 59.77250 60.17726
#
# Poissons Ratio (x) = 0.16476 0.37501
# Poissons Ratio (y) = 0.13239 0.41926
# Poissons Ratio (z) = 0.29930 0.41644
#
# Static dielectric constant tensor:
#      x y z
#    x 3.429260 0.000000 0.000000 
#    y 0.000000 3.448980 0.000000 
#    z 0.000000 0.000000 3.796890 
# 
# 
# High freq. dielectric constant tensor:
#      x y z
#    x 1.750560 0.000000 0.000000 
#    y 0.000000 1.748420 0.000000 
#    z 0.000000 0.000000 1.767890 
# 
# From -- ./inp_files/40820.got.cif
#   From: 2010.03.12/outbox.cif.g09.slc.cpg/sg65_21_cif.got.tgz:40820.got - 2010.04.10 20:52:16.
