data_PCOD8269536
_publ_section_title
;
Structure prediction by ZEFSAII (Michael W. Deem and Ramdas Pophale) SiO2 
 PCOD8269536
Probable space group: C M M M
;
_chemical_formula_sum "Si O2"
_cell_formula_units_Z 104
_cell_length_a 27.237006
_cell_length_b 21.617082
_cell_length_c 9.168794
_cell_angle_alpha 90.000000
_cell_angle_beta 90.000000
_cell_angle_gamma 90.000000
_cell_volume 5398.444636
_symmetry_space_group_name_H-M "C M M M"
_symmetry_group_IT_number 65
_symmetry_cell_setting 'orthorhombic'
loop_
_space_group_symop_operation_xyz
x,y,z
-x,-y,z
x,-y,-z
-x,y,-z
-x,-y,-z
x,y,-z
-x,y,z
x,-y,z
1/2+x,1/2+y,z
1/2-x,1/2-y,z
1/2+x,1/2-y,-z
1/2-x,1/2+y,-z
1/2-x,1/2-y,-z
1/2+x,1/2+y,-z
1/2-x,1/2+y,z
1/2+x,1/2-y,z
loop_
_atom_site_type_symbol
_atom_site_label
_atom_site_fract_x
_atom_site_fract_y
_atom_site_fract_z
Si Si1 0.056846 0.870142 0.330721
Si Si2 0.299785 0.500000 0.832620
Si Si3 0.233833 0.866795 0.832518
Si Si4 0.000000 0.573583 0.164467
Si Si5 0.098512 0.000000 0.328645
Si Si6 0.595035 0.929618 0.668717
Si Si7 0.136078 0.792885 0.829189
Si Si8 0.172192 0.673393 0.670458
O O1 0.071057 0.861613 0.500000
O O2 0.068705 0.939679 0.277282
O O3 0.086620 0.821721 0.234286
O O4 0.000000 0.856543 0.303859
O O5 0.266905 0.560087 0.798467
O O6 0.347557 0.500000 0.735517
O O7 0.317367 0.500000 0.000000
O O8 0.180684 0.839297 0.795685
O O9 0.272869 0.833271 0.730139
O O10 0.248289 0.853605 0.000000
O O11 0.048901 0.598367 0.243295
O O12 0.000000 0.500000 0.172541
O O13 0.000000 0.598526 0.000000
O O14 0.104611 0.000000 0.500000
O O15 0.580507 0.926061 0.500000
O O16 0.643109 0.889763 0.703580
O O17 0.606815 0.000000 0.716219
O O18 0.144461 0.728024 0.751465
O O19 0.129515 0.781371 0.000000
O O20 0.174743 0.688453 0.500000
#
# Coordination Sequence:
#
# PCOD8269536 Si02
#       8
#    16   8  16   8   8  16  16  16
#     4  10  21  38  61  90 124 160 201 250 302 353
#     4  10  20  37  59  87 122 159 197 242 299 356
#     4  10  22  39  60  85 117 156 195 239 292 347
#     4   9  17  31  55  85 111 139 177 222 271 328
#     4  10  19  34  60  92 124 158 199 249 301 350
#     4   9  19  37  58  81 111 146 182 227 284 344
#     4  11  23  41  62  83 116 158 202 244 289 350
#     4  11  24  39  60  88 117 151 194 241 294 352
#
# _framework density 19.264807999999999
#
# number of rings (size 3 to 8) (size 9 to 14) (size 15 to 20)
#    0.000    1.923    1.538    1.846    1.077    7.077 
#    1.385    0.000    0.000    1.385    0.000    0.000 
#    0.000    0.000    0.000    0.000    0.000    0.000 
#
# Total GULP energy -645029.230985 kJ/mol
# GULP energy per Si atom -12404.408288 kJ/mol
# Density = 1.922096 g / cm^3
# Si number density = 19.264808 Si / 1000 Ang^3
#
#
#
# Elastic Constant Matrix: (Units=GPa)
#
#
# Indices 1 2 3 4 5 6 
#
# 1 100.7242 42.7255 47.0985 0.0000 0.0000 0.0000
# 2 42.7255 110.9029 49.1295 0.0000 0.0000 0.0000
# 3 47.0985 49.1295 66.9680 0.0000 0.0000 0.0000
# 4 0.0000 0.0000 0.0000 28.6379 0.0000 0.0000
# 5 0.0000 0.0000 0.0000 0.0000 29.2722 0.0000
# 6 0.0000 0.0000 0.0000 0.0000 0.0000 -1.0560
#
#
#
# Elastic Compliance Matrix: (Units=1/GPa)
#
#
# Indices 1 2 3 4 5 6 
#
# 1 0.014991 -0.001637 -0.009342 0.000000 0.000000 0.000000
# 2 -0.001637 0.013537 -0.008780 0.000000 0.000000 0.000000
# 3 -0.009342 -0.008780 0.027944 0.000000 0.000000 0.000000
# 4 0.000000 0.000000 0.000000 0.034919 0.000000 0.000000
# 5 0.000000 0.000000 0.000000 0.000000 0.034162 0.000000
# 6 0.000000 0.000000 0.000000 0.000000 0.000000 -0.946999
#
#
# Mechanical properties :
#
#
# Convention : Reuss Voigt Hill
#
# Bulk Modulus (GPa) = 58.98319 61.83356 60.40837
# Shear Modulus (GPa) = -6.44100 20.68026 7.11963
#
# Velocity S-wave (km/s) = -1.83048 3.27995 1.92450
# Velocity P-wave (km/s) = 5.12015 6.81985 6.03019
#
# Compressibility (1/GPa) = 0.01695398
#
# Stress axis : x y z
#
# Youngs Moduli (GPa) = 66.70764 73.87219 35.78562
#
# Poissons Ratio (x) = 0.12090 0.33432
# Poissons Ratio (y) = 0.10917 0.31420
# Poissons Ratio (z) = 0.62321 0.64860
#
# Static dielectric constant tensor:
#      x y z
#    x 3.435970 0.000000 0.000000 
#    y 0.000000 3.687410 0.000000 
#    z 0.000000 0.000000 3.530480 
# 
# 
# High freq. dielectric constant tensor:
#      x y z
#    x 1.749990 0.000000 0.000000 
#    y 0.000000 1.750530 0.000000 
#    z 0.000000 0.000000 1.749920 
# 
# From -- ./inp_files/16548.got.cif
#   From: 2010.03.12/outbox.cif.g09.slc.cpg/sg65_9_cif.got.tgz:16548.got - 2010.04.10 20:52:16.
