data_PCOD8269662
_publ_section_title
;
Structure prediction by ZEFSAII (Michael W. Deem and Ramdas Pophale) SiO2 
 PCOD8269662
Probable space group: C M M M
;
_chemical_formula_sum "Si O2"
_cell_formula_units_Z 88
_cell_length_a 31.144967
_cell_length_b 9.090584
_cell_length_c 17.144369
_cell_angle_alpha 90.000000
_cell_angle_beta 90.000000
_cell_angle_gamma 90.000000
_cell_volume 4854.015566
_symmetry_space_group_name_H-M "C M M M"
_symmetry_group_IT_number 65
_symmetry_cell_setting 'orthorhombic'
loop_
_space_group_symop_operation_xyz
x,y,z
-x,-y,z
x,-y,-z
-x,y,-z
-x,-y,-z
x,y,-z
-x,y,z
x,-y,z
1/2+x,1/2+y,z
1/2-x,1/2-y,z
1/2+x,1/2-y,-z
1/2-x,1/2+y,-z
1/2-x,1/2-y,-z
1/2+x,1/2+y,-z
1/2-x,1/2+y,z
1/2+x,1/2-y,z
loop_
_atom_site_type_symbol
_atom_site_label
_atom_site_fract_x
_atom_site_fract_y
_atom_site_fract_z
Si Si1 0.332370 0.170077 0.000000
Si Si2 0.584913 0.827533 0.587471
Si Si3 0.077431 0.174653 0.000000
Si Si4 0.874612 0.327158 0.741772
Si Si5 0.206348 0.672109 0.834664
Si Si6 0.451876 0.829288 0.847996
Si Si7 0.000000 0.836626 0.407734
O O1 0.373756 0.271435 0.000000
O O2 0.304020 0.207041 0.924535
O O3 0.347225 0.000000 0.000000
O O4 0.598469 0.776236 0.500000
O O5 0.622452 0.787204 0.649418
O O6 0.542270 0.749244 0.619061
O O7 0.575018 0.000000 0.588301
O O8 0.052392 0.233966 0.925397
O O9 0.076729 0.000000 0.000000
O O10 0.872473 0.500000 0.754037
O O11 0.831578 0.260443 0.780127
O O12 0.917350 0.269419 0.785369
O O13 0.212206 0.500000 0.820334
O O14 0.250000 0.750000 0.809488
O O15 0.500000 0.807890 0.813916
O O16 0.443292 0.000000 0.868524
O O17 0.000000 0.845503 0.500000
O O18 0.000000 0.000000 0.371022
#
# Coordination Sequence:
#
# PCOD8269662 Si02
#       7
#     8  16   8  16  16  16   8
#     4  10  19  36  58  75  98 134 170 207 253 311
#     4   9  17  30  51  77 102 132 174 219 256 293
#     4  12  23  34  51  74 107 139 170 217 259 296
#     4   9  18  33  54  78 103 132 170 215 257 298
#     4  10  20  35  56  78 102 130 164 210 258 308
#     4  10  20  35  55  73  96 140 186 214 245 302
#     4   9  17  29  45  69 103 140 171 202 251 309
#
# _framework density 18.129318999999999
#
# number of rings (size 3 to 8) (size 9 to 14) (size 15 to 20)
#    0.000    2.273    1.818    1.636    1.273    3.273 
#    0.000    1.818    0.000    0.545    0.000    0.000 
#    0.000    0.000    0.000    0.000    0.000    0.000 
#
# Total GULP energy -545468.824283 kJ/mol
# GULP energy per Si atom -12397.018734 kJ/mol
# Density = 1.808806 g / cm^3
# Si number density = 18.129319 Si / 1000 Ang^3
#
#
#
# Elastic Constant Matrix: (Units=GPa)
#
#
# Indices 1 2 3 4 5 6 
#
# 1 147.1197 32.8392 70.5474 0.0000 0.0000 0.0000
# 2 32.8392 48.2732 27.8054 0.0000 0.0000 0.0000
# 3 70.5474 27.8054 122.1091 0.0000 0.0000 0.0000
# 4 0.0000 0.0000 0.0000 7.1766 0.0000 0.0000
# 5 0.0000 0.0000 0.0000 0.0000 -22.6503 0.0000
# 6 0.0000 0.0000 0.0000 0.0000 0.0000 25.8589
#
#
#
# Elastic Compliance Matrix: (Units=1/GPa)
#
#
# Indices 1 2 3 4 5 6 
#
# 1 0.010035 -0.004014 -0.004884 0.000000 0.000000 0.000000
# 2 -0.004014 0.025448 -0.003476 0.000000 0.000000 0.000000
# 3 -0.004884 -0.003476 0.011802 0.000000 0.000000 0.000000
# 4 0.000000 0.000000 0.000000 0.139341 0.000000 0.000000
# 5 0.000000 0.000000 0.000000 0.000000 -0.044150 0.000000
# 6 0.000000 0.000000 0.000000 0.000000 0.000000 0.038671
#
#
# Mechanical properties :
#
#
# Convention : Reuss Voigt Hill
#
# Bulk Modulus (GPa) = 44.36769 64.43179 54.39974
# Shear Modulus (GPa) = 23.42937 14.49771 18.96354
#
# Velocity S-wave (km/s) = 3.59882 2.83093 3.23772
# Velocity P-wave (km/s) = 6.46488 6.80462 6.63693
#
# Compressibility (1/GPa) = 0.02253893
#
# Stress axis : x y z
#
# Youngs Moduli (GPa) = 99.65228 39.29595 84.72864
#
# Poissons Ratio (x) = 0.15772 0.41378
# Poissons Ratio (y) = 0.39996 0.29451
# Poissons Ratio (z) = 0.48667 0.13659
#
# Static dielectric constant tensor:
#      x y z
#    x 3.389280 0.000000 0.000000 
#    y 0.000000 3.152590 0.000000 
#    z 0.000000 0.000000 3.460470 
# 
# 
# High freq. dielectric constant tensor:
#      x y z
#    x 1.691800 0.000000 0.000000 
#    y 0.000000 1.674950 0.000000 
#    z 0.000000 0.000000 1.699900 
# 
# From -- ./inp_files/58108.got.cif
#   From: 2010.03.12/outbox.cif.g09.slc.cpg/sg65_30_cif.got.tgz:58108.got - 2010.04.10 20:52:16.
