data_PCOD8269725
_publ_section_title
;
Structure prediction by ZEFSAII (Michael W. Deem and Ramdas Pophale) SiO2 
 PCOD8269725
Probable space group: C M M M
;
_chemical_formula_sum "Si O2"
_cell_formula_units_Z 112
_cell_length_a 28.712198
_cell_length_b 13.987065
_cell_length_c 15.211590
_cell_angle_alpha 90.000000
_cell_angle_beta 90.000000
_cell_angle_gamma 90.000000
_cell_volume 6108.965109
_symmetry_space_group_name_H-M "C M M M"
_symmetry_group_IT_number 65
_symmetry_cell_setting 'orthorhombic'
loop_
_space_group_symop_operation_xyz
x,y,z
-x,-y,z
x,-y,-z
-x,y,-z
-x,-y,-z
x,y,-z
-x,y,z
x,-y,z
1/2+x,1/2+y,z
1/2-x,1/2-y,z
1/2+x,1/2-y,-z
1/2-x,1/2+y,-z
1/2-x,1/2-y,-z
1/2+x,1/2+y,-z
1/2-x,1/2+y,z
1/2+x,1/2-y,z
loop_
_atom_site_type_symbol
_atom_site_label
_atom_site_fract_x
_atom_site_fract_y
_atom_site_fract_z
Si Si1 0.322595 0.895345 0.601321
Si Si2 0.244030 0.391335 0.843189
Si Si3 0.947625 0.890026 0.279129
Si Si4 0.871709 0.787904 0.397718
Si Si5 0.097533 0.108836 0.899603
Si Si6 0.182271 0.238464 0.096470
Si Si7 0.722417 0.608485 0.650864
O O1 0.330747 0.912333 0.500000
O O2 0.362337 0.821581 0.633290
O O3 0.271390 0.848962 0.615692
O O4 0.326613 0.000000 0.649975
O O5 0.231245 0.500000 0.868007
O O6 0.196463 0.327043 0.838941
O O7 0.276582 0.340398 0.914955
O O8 0.274924 0.384248 0.755735
O O9 0.912090 0.828143 0.336249
O O10 0.942405 0.876513 0.173461
O O11 0.000000 0.858677 0.303467
O O12 0.938710 0.000000 0.304577
O O13 0.886913 0.794858 0.500000
O O14 0.822690 0.840827 0.386848
O O15 0.136995 0.183132 0.869064
O O16 0.116969 0.000000 0.894521
O O17 0.079779 0.128959 0.000000
O O18 0.172333 0.281226 0.000000
O O19 0.718782 0.500000 0.618329
#
# Coordination Sequence:
#
# PCOD8269725 Si02
#       7
#    16  16  16  16  16  16  16
#     4   9  19  34  50  73 104 135 172 217 257 296
#     4  10  20  30  42  64  97 137 173 210 250 291
#     4  10  22  38  56  80 107 135 170 215 266 320
#     4  11  22  34  54  78 104 144 181 214 263 315
#     4   9  18  34  56  79 102 130 167 212 261 311
#     4  10  20  30  45  68  93 131 173 211 256 304
#     4  10  20  31  47  73 103 138 177 213 252 300
#
# _framework density 18.333711000000001
#
# number of rings (size 3 to 8) (size 9 to 14) (size 15 to 20)
#    0.000    2.143    0.000    3.429    6.000    7.429 
#    0.000    2.143    0.000    0.429    0.000    2.000 
#    0.000    0.000    0.000    4.429    0.000    0.286 
#
# Total GULP energy -693826.973030 kJ/mol
# GULP energy per Si atom -12389.767376 kJ/mol
# Density = 1.829198 g / cm^3
# Si number density = 18.333711 Si / 1000 Ang^3
#
#
#
# Elastic Constant Matrix: (Units=GPa)
#
#
# Indices 1 2 3 4 5 6 
#
# 1 102.7152 57.1586 38.7359 0.0000 0.0000 0.0000
# 2 57.1586 97.3416 34.4216 0.0000 0.0000 0.0000
# 3 38.7359 34.4216 67.7344 0.0000 0.0000 0.0000
# 4 0.0000 0.0000 0.0000 19.0914 0.0000 0.0000
# 5 0.0000 0.0000 0.0000 0.0000 19.5618 0.0000
# 6 0.0000 0.0000 0.0000 0.0000 0.0000 45.5905
#
#
#
# Elastic Compliance Matrix: (Units=1/GPa)
#
#
# Indices 1 2 3 4 5 6 
#
# 1 0.015879 -0.007452 -0.005294 0.000000 0.000000 0.000000
# 2 -0.007452 0.016021 -0.003880 0.000000 0.000000 0.000000
# 3 -0.005294 -0.003880 0.019763 0.000000 0.000000 0.000000
# 4 0.000000 0.000000 0.000000 0.052380 0.000000 0.000000
# 5 0.000000 0.000000 0.000000 0.000000 0.051120 0.000000
# 6 0.000000 0.000000 0.000000 0.000000 0.000000 0.021934
#
#
# Mechanical properties :
#
#
# Convention : Reuss Voigt Hill
#
# Bulk Modulus (GPa) = 54.31545 58.71371 56.51458
# Shear Modulus (GPa) = 23.09626 26.01375 24.55500
#
# Velocity S-wave (km/s) = 3.55317 3.77092 3.66366
# Velocity P-wave (km/s) = 6.82083 7.14523 6.98491
#
# Compressibility (1/GPa) = 0.01841097
#
# Stress axis : x y z
#
# Youngs Moduli (GPa) = 62.97639 62.41838 50.60046
#
# Poissons Ratio (x) = 0.46515 0.26787
# Poissons Ratio (y) = 0.46931 0.19632
# Poissons Ratio (z) = 0.33339 0.24218
#
# Static dielectric constant tensor:
#      x y z
#    x 3.073510 0.000000 0.000000 
#    y 0.000000 3.885120 0.000000 
#    z 0.000000 0.000000 3.361930 
# 
# 
# High freq. dielectric constant tensor:
#      x y z
#    x 1.668700 0.000000 0.000000 
#    y 0.000000 1.709450 0.000000 
#    z 0.000000 0.000000 1.716400 
# 
# From -- ./inp_files/41325.got.cif
#   From: 2010.03.12/outbox.cif.g09.slc.cpg/sg65_21_cif.got.tgz:41325.got - 2010.04.10 20:52:16.
