data_PCOD8269335
_publ_section_title
;
Structure prediction by ZEFSAII (Michael W. Deem and Ramdas Pophale) SiO2 
 PCOD8269335
Probable space group: C M M M
;
_chemical_formula_sum "Si O2"
_cell_formula_units_Z 104
_cell_length_a 8.822120
_cell_length_b 28.699636
_cell_length_c 23.119633
_cell_angle_alpha 90.000000
_cell_angle_beta 90.000000
_cell_angle_gamma 90.000000
_cell_volume 5853.697628
_symmetry_space_group_name_H-M "C M M M"
_symmetry_group_IT_number 65
_symmetry_cell_setting 'orthorhombic'
loop_
_space_group_symop_operation_xyz
x,y,z
-x,-y,z
x,-y,-z
-x,y,-z
-x,-y,-z
x,y,-z
-x,y,z
x,-y,z
1/2+x,1/2+y,z
1/2-x,1/2-y,z
1/2+x,1/2-y,-z
1/2-x,1/2+y,-z
1/2-x,1/2-y,-z
1/2+x,1/2+y,-z
1/2-x,1/2+y,z
1/2+x,1/2-y,z
loop_
_atom_site_type_symbol
_atom_site_label
_atom_site_fract_x
_atom_site_fract_y
_atom_site_fract_z
Si Si1 0.821096 0.608090 0.778814
Si Si2 0.322130 0.297070 0.381613
Si Si3 0.673613 0.555285 0.116914
Si Si4 0.179866 0.891533 0.436207
Si Si5 0.321556 0.297776 0.752029
Si Si6 0.171108 0.555390 0.000000
Si Si7 0.821574 0.946366 0.674137
O O1 0.772050 0.576348 0.831978
O O2 0.748397 0.659012 0.786832
O O3 0.766770 0.584623 0.719730
O O4 0.000000 0.612910 0.777641
O O5 0.500000 0.292717 0.388866
O O6 0.250000 0.250000 0.407081
O O7 0.256928 0.341077 0.416868
O O8 0.276631 0.304074 0.314938
O O9 0.500000 0.571641 0.122251
O O10 0.686429 0.500000 0.121381
O O11 0.740510 0.573739 0.056329
O O12 0.244328 0.904098 0.500000
O O13 0.229416 0.930873 0.390261
O O14 0.000000 0.888955 0.438147
O O15 0.500000 0.296549 0.761844
O O16 0.250000 0.250000 0.776351
O O17 0.168869 0.500000 0.000000
O O18 0.000000 0.575181 0.000000
O O19 0.000000 0.937854 0.683598
O O20 0.777599 0.000000 0.682562
#
# Coordination Sequence:
#
# PCOD8269335 Si02
#       7
#    16  16  16  16  16   8  16
#     4  12  23  34  52  78 107 139 176 218 266 314
#     4   9  17  30  49  71  97 125 156 199 253 312
#     4  10  20  34  53  78 110 149 188 224 264 310
#     4   9  17  31  50  72  97 126 164 211 262 317
#     4  10  19  34  54  77 105 134 168 210 261 317
#     4   9  17  31  51  77 112 149 184 223 263 307
#     4  10  20  35  53  72  97 131 171 218 270 319
#
# _framework density 17.766546999999999
#
# number of rings (size 3 to 8) (size 9 to 14) (size 15 to 20)
#    0.000    2.077    1.538    3.000    0.000    5.231 
#    0.000    1.538    0.000    1.385    0.000    1.615 
#    0.000    0.000    0.000    0.000    0.000    0.000 
#
# Total GULP energy -644843.194397 kJ/mol
# GULP energy per Si atom -12400.830661 kJ/mol
# Density = 1.772611 g / cm^3
# Si number density = 17.766547 Si / 1000 Ang^3
#
#
#
# Elastic Constant Matrix: (Units=GPa)
#
#
# Indices 1 2 3 4 5 6 
#
# 1 75.4464 39.0825 28.9461 0.0000 0.0000 0.0000
# 2 39.0825 79.5486 24.3275 0.0000 0.0000 0.0000
# 3 28.9461 24.3275 83.6809 0.0000 0.0000 0.0000
# 4 0.0000 0.0000 0.0000 10.1293 0.0000 0.0000
# 5 0.0000 0.0000 0.0000 0.0000 10.9242 0.0000
# 6 0.0000 0.0000 0.0000 0.0000 0.0000 27.6501
#
#
#
# Elastic Compliance Matrix: (Units=1/GPa)
#
#
# Indices 1 2 3 4 5 6 
#
# 1 0.019063 -0.008066 -0.004249 0.000000 0.000000 0.000000
# 2 -0.008066 0.017211 -0.002213 0.000000 0.000000 0.000000
# 3 -0.004249 -0.002213 0.014063 0.000000 0.000000 0.000000
# 4 0.000000 0.000000 0.000000 0.098723 0.000000 0.000000
# 5 0.000000 0.000000 0.000000 0.000000 0.091540 0.000000
# 6 0.000000 0.000000 0.000000 0.000000 0.000000 0.036166
#
#
# Mechanical properties :
#
#
# Convention : Reuss Voigt Hill
#
# Bulk Modulus (GPa) = 46.99259 47.04313 47.01786
# Shear Modulus (GPa) = 15.97865 19.49537 17.73701
#
# Velocity S-wave (km/s) = 3.00220 3.31616 3.16308
# Velocity P-wave (km/s) = 6.20686 6.41861 6.31362
#
# Compressibility (1/GPa) = 0.02127995
#
# Stress axis : x y z
#
# Youngs Moduli (GPa) = 52.45710 58.10302 71.10656
#
# Poissons Ratio (x) = 0.46868 0.30214
# Poissons Ratio (y) = 0.42314 0.15738
# Poissons Ratio (z) = 0.22290 0.12860
#
# Static dielectric constant tensor:
#      x y z
#    x 3.219290 0.000000 0.000000 
#    y 0.000000 3.358670 0.000000 
#    z 0.000000 0.000000 3.351290 
# 
# 
# High freq. dielectric constant tensor:
#      x y z
#    x 1.677840 0.000000 0.000000 
#    y 0.000000 1.680530 0.000000 
#    z 0.000000 0.000000 1.674730 
# 
# From -- ./inp_files/60901.got.cif
#   From: 2010.03.12/outbox.cif.g09.slc.cpg/sg65_31_cif.got.tgz:60901.got - 2010.04.10 20:52:16.
