data_PCOD8269965
_publ_section_title
;
Structure prediction by ZEFSAII (Michael W. Deem and Ramdas Pophale) SiO2 
 PCOD8269965
Probable space group: C M M M
;
_chemical_formula_sum "Si O2"
_cell_formula_units_Z 88
_cell_length_a 27.412587
_cell_length_b 9.117035
_cell_length_c 20.982373
_cell_angle_alpha 90.000000
_cell_angle_beta 90.000000
_cell_angle_gamma 90.000000
_cell_volume 5243.946451
_symmetry_space_group_name_H-M "C M M M"
_symmetry_group_IT_number 65
_symmetry_cell_setting 'orthorhombic'
loop_
_space_group_symop_operation_xyz
x,y,z
-x,-y,z
x,-y,-z
-x,y,-z
-x,-y,-z
x,y,-z
-x,y,z
x,-y,z
1/2+x,1/2+y,z
1/2-x,1/2-y,z
1/2+x,1/2-y,-z
1/2-x,1/2+y,-z
1/2-x,1/2-y,-z
1/2+x,1/2+y,-z
1/2-x,1/2+y,z
1/2+x,1/2-y,z
loop_
_atom_site_type_symbol
_atom_site_label
_atom_site_fract_x
_atom_site_fract_y
_atom_site_fract_z
Si Si1 0.056526 0.325940 0.500000
Si Si2 0.602499 0.327581 0.379943
Si Si3 0.352950 0.673040 0.818832
Si Si4 0.799747 0.829278 0.690192
Si Si5 0.553337 0.673955 0.251538
Si Si6 0.199892 0.329722 0.072893
O O1 0.059364 0.500000 0.500000
O O2 0.085529 0.265463 0.560322
O O3 0.000000 0.272920 0.500000
O O4 0.595965 0.500000 0.394123
O O5 0.658738 0.292071 0.362015
O O6 0.568842 0.273776 0.321643
O O7 0.349919 0.500000 0.832146
O O8 0.317193 0.718045 0.760895
O O9 0.407680 0.724636 0.801074
O O10 0.341325 0.761653 0.882536
O O11 0.750000 0.750000 0.670880
O O12 0.788814 0.000000 0.690134
O O13 0.500000 0.738617 0.234620
O O14 0.552877 0.500000 0.252634
O O15 0.206883 0.500000 0.088052
O O16 0.250000 0.250000 0.089168
O O17 0.184104 0.302884 0.000000
#
# Coordination Sequence:
#
# PCOD8269965 Si02
#       6
#     8  16  16  16  16  16
#     4  11  23  35  48  71 100 123 148 189 238 281
#     4   9  18  33  52  72  93 122 160 192 223 273
#     4   9  17  29  47  72  98 122 152 191 232 274
#     4   9  18  31  48  72  98 123 154 191 229 273
#     4   8  14  27  49  74  96 119 152 194 233 269
#     4  10  20  32  46  66  93 124 157 191 228 273
#
# _framework density 16.781255000000002
#
# number of rings (size 3 to 8) (size 9 to 14) (size 15 to 20)
#    0.000    2.818    0.000    4.091    0.000    5.455 
#    0.000    3.182    0.000    2.182    0.000    3.818 
#    0.000    0.000    0.000    0.000    0.000    0.000 
#
# Total GULP energy -545463.252231 kJ/mol
# GULP energy per Si atom -12396.892096 kJ/mol
# Density = 1.674306 g / cm^3
# Si number density = 16.781255 Si / 1000 Ang^3
#
#
#
# Elastic Constant Matrix: (Units=GPa)
#
#
# Indices 1 2 3 4 5 6 
#
# 1 147.2371 49.8405 72.0016 0.0000 0.0000 0.0000
# 2 49.8405 59.1286 50.2905 0.0000 0.0000 0.0000
# 3 72.0016 50.2905 115.6835 0.0000 0.0000 0.0000
# 4 0.0000 0.0000 0.0000 25.9593 0.0000 0.0000
# 5 0.0000 0.0000 0.0000 0.0000 23.0532 0.0000
# 6 0.0000 0.0000 0.0000 0.0000 0.0000 24.3220
#
#
#
# Elastic Compliance Matrix: (Units=1/GPa)
#
#
# Indices 1 2 3 4 5 6 
#
# 1 0.010730 -0.005338 -0.004358 0.000000 0.000000 0.000000
# 2 -0.005338 0.029490 -0.009498 0.000000 0.000000 0.000000
# 3 -0.004358 -0.009498 0.015485 0.000000 0.000000 0.000000
# 4 0.000000 0.000000 0.000000 0.038522 0.000000 0.000000
# 5 0.000000 0.000000 0.000000 0.000000 0.043378 0.000000
# 6 0.000000 0.000000 0.000000 0.000000 0.000000 0.041115
#
#
# Mechanical properties :
#
#
# Convention : Reuss Voigt Hill
#
# Bulk Modulus (GPa) = 57.74209 74.03493 65.88851
# Shear Modulus (GPa) = 22.43378 24.66135 23.54757
#
# Velocity S-wave (km/s) = 3.66024 3.83767 3.75000
# Velocity P-wave (km/s) = 7.23509 7.99064 7.62223
#
# Compressibility (1/GPa) = 0.01731839
#
# Stress axis : x y z
#
# Youngs Moduli (GPa) = 93.19978 33.91026 64.57750
#
# Poissons Ratio (x) = 0.18101 0.28140
# Poissons Ratio (y) = 0.49749 0.61333
# Poissons Ratio (z) = 0.40613 0.32206
#
# Static dielectric constant tensor:
#      x y z
#    x 3.465020 0.000000 0.000000 
#    y 0.000000 2.921960 0.000000 
#    z 0.000000 0.000000 3.053410 
# 
# 
# High freq. dielectric constant tensor:
#      x y z
#    x 1.648950 0.000000 0.000000 
#    y 0.000000 1.629500 0.000000 
#    z 0.000000 0.000000 1.638090 
# 
# From -- ./inp_files/57955.got.cif
#   From: 2010.03.12/outbox.cif.g09.slc.cpg/sg65_29_cif.got.tgz:57955.got - 2010.04.10 20:52:16.
