data_PCOD8269805
_publ_section_title
;
Structure prediction by ZEFSAII (Michael W. Deem and Ramdas Pophale) SiO2 
 PCOD8269805
Probable space group: C M M M
;
_chemical_formula_sum "Si O2"
_cell_formula_units_Z 104
_cell_length_a 9.268418
_cell_length_b 26.934947
_cell_length_c 26.680544
_cell_angle_alpha 90.000000
_cell_angle_beta 90.000000
_cell_angle_gamma 90.000000
_cell_volume 6660.647001
_symmetry_space_group_name_H-M "C M M M"
_symmetry_group_IT_number 65
_symmetry_cell_setting 'orthorhombic'
loop_
_space_group_symop_operation_xyz
x,y,z
-x,-y,z
x,-y,-z
-x,y,-z
-x,-y,-z
x,y,-z
-x,y,z
x,-y,z
1/2+x,1/2+y,z
1/2-x,1/2-y,z
1/2+x,1/2-y,-z
1/2-x,1/2+y,-z
1/2-x,1/2-y,-z
1/2+x,1/2+y,-z
1/2-x,1/2+y,z
1/2+x,1/2-y,z
loop_
_atom_site_type_symbol
_atom_site_label
_atom_site_fract_x
_atom_site_fract_y
_atom_site_fract_z
Si Si1 0.833872 0.057116 0.612092
Si Si2 0.832202 0.637983 0.556616
Si Si3 0.333258 0.942477 0.807213
Si Si4 0.834382 0.701106 0.649496
Si Si5 0.167251 0.399326 0.701932
Si Si6 0.836880 0.940911 0.095886
Si Si7 0.163620 0.440764 0.000000
O O1 0.757544 0.088573 0.568462
O O2 0.760722 0.066095 0.665796
O O3 0.000000 0.073230 0.615867
O O4 0.817702 0.000000 0.596957
O O5 0.800459 0.655466 0.500000
O O6 0.785296 0.681807 0.594476
O O7 0.000000 0.625124 0.565099
O O8 0.500000 0.934888 0.821637
O O9 0.288643 0.910359 0.758946
O O10 0.237758 0.922334 0.853092
O O11 0.301073 0.000000 0.795538
O O12 0.750000 0.750000 0.665252
O O13 0.802606 0.658474 0.690420
O O14 0.000000 0.716182 0.648693
O O15 0.000000 0.412577 0.692517
O O16 0.000000 0.920338 0.093330
O O17 0.836359 0.000000 0.094363
O O18 0.746680 0.920137 0.048798
O O19 0.162908 0.500000 0.000000
O O20 0.000000 0.420419 0.000000
#
# Coordination Sequence:
#
# PCOD8269805 Si02
#       7
#    16  16  16  16  16  16   8
#     4  10  20  31  44  65  91 115 139 170 208 247
#     4   9  19  35  51  66  85 110 141 172 201 243
#     4   9  16  26  41  60  81 108 143 178 209 242
#     4   9  18  32  49  68  87 107 134 169 210 255
#     4   9  18  32  48  64  84 112 145 177 207 248
#     4   9  16  24  34  51  77 108 141 178 218 253
#     4   9  15  23  35  49  69 103 148 189 216 243
#
# _framework density 15.614099
#
# number of rings (size 3 to 8) (size 9 to 14) (size 15 to 20)
#    0.000    2.846    0.000    2.538    0.000    8.615 
#    0.000    3.077    0.000    0.000    0.000    0.000 
#    0.000    0.000    0.000    0.692    0.000    8.385 
#
# Total GULP energy -644780.668759 kJ/mol
# GULP energy per Si atom -12399.628245 kJ/mol
# Density = 1.557856 g / cm^3
# Si number density = 15.614099 Si / 1000 Ang^3
#
#
#
# Elastic Constant Matrix: (Units=GPa)
#
#
# Indices 1 2 3 4 5 6 
#
# 1 80.7704 29.1059 48.4012 0.0000 0.0000 0.0000
# 2 29.1059 55.4477 29.5815 0.0000 0.0000 0.0000
# 3 48.4012 29.5815 126.1148 0.0000 0.0000 0.0000
# 4 0.0000 0.0000 0.0000 10.8854 0.0000 0.0000
# 5 0.0000 0.0000 0.0000 0.0000 17.9504 0.0000
# 6 0.0000 0.0000 0.0000 0.0000 0.0000 21.6349
#
#
#
# Elastic Compliance Matrix: (Units=1/GPa)
#
#
# Indices 1 2 3 4 5 6 
#
# 1 0.017954 -0.006571 -0.005349 0.000000 0.000000 0.000000
# 2 -0.006571 0.023019 -0.002878 0.000000 0.000000 0.000000
# 3 -0.005349 -0.002878 0.010657 0.000000 0.000000 0.000000
# 4 0.000000 0.000000 0.000000 0.091866 0.000000 0.000000
# 5 0.000000 0.000000 0.000000 0.000000 0.055709 0.000000
# 6 0.000000 0.000000 0.000000 0.000000 0.000000 0.046222
#
#
# Mechanical properties :
#
#
# Convention : Reuss Voigt Hill
#
# Bulk Modulus (GPa) = 45.38160 52.94557 49.16358
# Shear Modulus (GPa) = 17.70737 20.44375 19.07556
#
# Velocity S-wave (km/s) = 3.37124 3.62237 3.49906
# Velocity P-wave (km/s) = 6.65442 7.17481 6.91950
#
# Compressibility (1/GPa) = 0.02203536
#
# Stress axis : x y z
#
# Youngs Moduli (GPa) = 55.69756 43.44165 93.83258
#
# Poissons Ratio (x) = 0.28544 0.50194
# Poissons Ratio (y) = 0.36597 0.27002
# Poissons Ratio (z) = 0.29794 0.12501
#
# Static dielectric constant tensor:
#      x y z
#    x 3.081640 0.000000 0.000000 
#    y 0.000000 2.585320 0.000000 
#    z 0.000000 0.000000 3.074830 
# 
# 
# High freq. dielectric constant tensor:
#      x y z
#    x 1.608000 0.000000 0.000000 
#    y 0.000000 1.549120 0.000000 
#    z 0.000000 0.000000 1.600310 
# 
# From -- ./inp_files/73806.got.cif
#   From: 2010.03.12/outbox.cif.g09.slc.cpg/sg65_37_cif.got.tgz:73806.got - 2010.04.10 20:52:16.
