data_PCOD8269774
_publ_section_title
;
Structure prediction by ZEFSAII (Michael W. Deem and Ramdas Pophale) SiO2 
 PCOD8269774
Probable space group: C M M M
;
_chemical_formula_sum "Si O2"
_cell_formula_units_Z 96
_cell_length_a 11.305298
_cell_length_b 27.497819
_cell_length_c 20.699365
_cell_angle_alpha 90.000000
_cell_angle_beta 90.000000
_cell_angle_gamma 90.000000
_cell_volume 6434.833086
_symmetry_space_group_name_H-M "C M M M"
_symmetry_group_IT_number 65
_symmetry_cell_setting 'orthorhombic'
loop_
_space_group_symop_operation_xyz
x,y,z
-x,-y,z
x,-y,-z
-x,y,-z
-x,-y,-z
x,y,-z
-x,y,z
x,-y,z
1/2+x,1/2+y,z
1/2-x,1/2-y,z
1/2+x,1/2-y,-z
1/2-x,1/2+y,-z
1/2-x,1/2-y,-z
1/2+x,1/2+y,-z
1/2-x,1/2+y,z
1/2+x,1/2-y,z
loop_
_atom_site_type_symbol
_atom_site_label
_atom_site_fract_x
_atom_site_fract_y
_atom_site_fract_z
Si Si1 0.135759 0.780657 0.923584
Si Si2 0.866780 0.557842 0.429394
Si Si3 0.000000 0.057954 0.747662
Si Si4 0.218775 0.886409 0.928020
Si Si5 0.755806 0.942397 0.303419
Si Si6 0.000000 0.056965 0.105919
Si Si7 0.361586 0.945369 0.827881
O O1 0.250000 0.750000 0.896174
O O2 0.164257 0.835786 0.903157
O O3 0.000000 0.766954 0.898134
O O4 0.131992 0.774486 0.000000
O O5 0.816387 0.573869 0.500000
O O6 0.866774 0.500000 0.424751
O O7 0.790023 0.580572 0.370896
O O8 0.000000 0.577264 0.421658
O O9 0.113796 0.078444 0.710127
O O10 0.000000 0.077497 0.820795
O O11 0.000000 0.000000 0.748764
O O12 0.317956 0.906245 0.879749
O O13 0.114393 0.925227 0.931808
O O14 0.273971 0.880694 0.000000
O O15 0.672184 0.927366 0.243786
O O16 0.758480 0.000000 0.310187
O O17 0.000000 0.000000 0.105568
O O18 0.500000 0.947829 0.833934
O O19 0.308162 0.000000 0.840187
#
# Coordination Sequence:
#
# PCOD8269774 Si02
#       7
#    16  16   8  16  16   8  16
#     4   9  18  33  51  68  85 106 136 177 224 272
#     4   8  13  21  34  51  69  92 126 168 209 244
#     4   9  16  25  39  55  73 103 139 171 205 246
#     4  11  21  32  46  64  84 107 141 181 221 265
#     4   9  15  25  38  52  72 100 135 172 207 247
#     4  11  19  30  45  63  86 112 143 181 217 256
#     4  10  20  31  42  58  83 115 146 176 215 263
#
# _framework density 14.918801
#
# number of rings (size 3 to 8) (size 9 to 14) (size 15 to 20)
#    0.000    2.500    2.500    1.750    0.000    4.667 
#    0.000    2.917    0.000    2.500    0.000    0.000 
#    0.000    0.000    0.000    0.000    0.000    0.833 
#
# Total GULP energy -594675.434391 kJ/mol
# GULP energy per Si atom -12389.071550 kJ/mol
# Density = 1.488485 g / cm^3
# Si number density = 14.918801 Si / 1000 Ang^3
#
#
#
# Elastic Constant Matrix: (Units=GPa)
#
#
# Indices 1 2 3 4 5 6 
#
# 1 85.7562 29.5362 34.1370 0.0000 0.0000 0.0000
# 2 29.5362 40.6560 21.0082 0.0000 0.0000 0.0000
# 3 34.1370 21.0082 90.2244 0.0000 0.0000 0.0000
# 4 0.0000 0.0000 0.0000 1.4419 0.0000 0.0000
# 5 0.0000 0.0000 0.0000 0.0000 21.6901 0.0000
# 6 0.0000 0.0000 0.0000 0.0000 0.0000 15.7389
#
#
#
# Elastic Compliance Matrix: (Units=1/GPa)
#
#
# Indices 1 2 3 4 5 6 
#
# 1 0.016720 -0.010092 -0.003976 0.000000 0.000000 0.000000
# 2 -0.010092 0.034052 -0.004110 0.000000 0.000000 0.000000
# 3 -0.003976 -0.004110 0.013545 0.000000 0.000000 0.000000
# 4 0.000000 0.000000 0.000000 0.693505 0.000000 0.000000
# 5 0.000000 0.000000 0.000000 0.000000 0.046104 0.000000
# 6 0.000000 0.000000 0.000000 0.000000 0.000000 0.063537
#
#
# Mechanical properties :
#
#
# Convention : Reuss Voigt Hill
#
# Bulk Modulus (GPa) = 35.76576 42.88881 39.32728
# Shear Modulus (GPa) = 5.47561 16.57121 11.02341
#
# Velocity S-wave (km/s) = 1.91787 3.33642 2.72121
# Velocity P-wave (km/s) = 5.37866 6.60703 6.02424
#
# Compressibility (1/GPa) = 0.02795970
#
# Stress axis : x y z
#
# Youngs Moduli (GPa) = 59.80988 29.36646 73.82818
#
# Poissons Ratio (x) = 0.29637 0.29355
# Poissons Ratio (y) = 0.60361 0.30347
# Poissons Ratio (z) = 0.23781 0.12071
#
# Static dielectric constant tensor:
#      x y z
#    x 3.135230 0.000000 0.000000 
#    y 0.000000 2.513000 0.000000 
#    z 0.000000 0.000000 3.023850 
# 
# 
# High freq. dielectric constant tensor:
#      x y z
#    x 1.582040 0.000000 0.000000 
#    y 0.000000 1.508370 0.000000 
#    z 0.000000 0.000000 1.557030 
# 
# From -- ./inp_files/69210.got.cif
#   From: 2010.03.12/outbox.cif.g09.slc.cpg/sg65_35_cif.got.tgz:69210.got - 2010.04.10 20:52:16.
