data_PCOD8269373
_publ_section_title
;
Structure prediction by ZEFSAII (Michael W. Deem and Ramdas Pophale) SiO2 
 PCOD8269373
Probable space group: C M M M
;
_chemical_formula_sum "Si O2"
_cell_formula_units_Z 104
_cell_length_a 21.048442
_cell_length_b 9.096658
_cell_length_c 28.106225
_cell_angle_alpha 90.000000
_cell_angle_beta 90.000000
_cell_angle_gamma 90.000000
_cell_volume 5381.512344
_symmetry_space_group_name_H-M "C M M M"
_symmetry_group_IT_number 65
_symmetry_cell_setting 'orthorhombic'
loop_
_space_group_symop_operation_xyz
x,y,z
-x,-y,z
x,-y,-z
-x,y,-z
-x,-y,-z
x,y,-z
-x,y,z
x,-y,z
1/2+x,1/2+y,z
1/2-x,1/2-y,z
1/2+x,1/2-y,-z
1/2-x,1/2+y,-z
1/2-x,1/2-y,-z
1/2+x,1/2+y,-z
1/2-x,1/2+y,z
1/2+x,1/2-y,z
loop_
_atom_site_type_symbol
_atom_site_label
_atom_site_fract_x
_atom_site_fract_y
_atom_site_fract_z
Si Si1 0.000000 0.825714 0.052138
Si Si2 0.573103 0.326674 0.772791
Si Si3 0.685833 0.170386 0.281554
Si Si4 0.608605 0.673058 0.878757
Si Si5 0.312930 0.830886 0.050781
Si Si6 0.186482 0.330612 0.606295
Si Si7 0.572202 0.330468 0.555667
O O1 0.940616 0.771163 0.081880
O O2 0.000000 0.000000 0.048646
O O3 0.000000 0.753368 0.000000
O O4 0.500000 0.285547 0.759928
O O5 0.583871 0.500000 0.766301
O O6 0.622002 0.241374 0.739340
O O7 0.586869 0.276586 0.826673
O O8 0.750000 0.250000 0.262429
O O9 0.680716 0.191152 0.337660
O O10 0.689716 0.000000 0.266794
O O11 0.619598 0.500000 0.879413
O O12 0.668538 0.758460 0.898564
O O13 0.250000 0.750000 0.037016
O O14 0.301891 0.000000 0.062368
O O15 0.353144 0.813182 0.000000
O O16 0.192509 0.500000 0.591730
O O17 0.250000 0.250000 0.587022
O O18 0.122559 0.267114 0.583625
O O19 0.582660 0.305169 0.500000
O O20 0.500000 0.284637 0.569762
O O21 0.583468 0.500000 0.569183
#
# Coordination Sequence:
#
# PCOD8269373 Si02
#       7
#     8  16  16  16  16  16  16
#     4   9  16  28  51  79 103 131 167 205 248 301
#     4  10  21  38  59  84 115 148 185 230 279 337
#     4  10  22  40  61  85 113 148 192 240 292 347
#     4  10  19  34  55  79 105 135 172 212 257 313
#     4  10  21  36  53  75 103 135 172 213 258 311
#     4  10  21  37  58  84 114 149 193 244 293 346
#     4   9  19  36  57  83 118 159 200 241 287 342
#
# _framework density 19.325423000000001
#
# number of rings (size 3 to 8) (size 9 to 14) (size 15 to 20)
#    0.000    2.231    0.769    2.308    0.000    6.462 
#    0.000    4.231    0.000    1.385    0.000    0.000 
#    0.000    0.000    0.000    0.000    0.000    0.000 
#
# Total GULP energy -644250.876237 kJ/mol
# GULP energy per Si atom -12389.439928 kJ/mol
# Density = 1.928144 g / cm^3
# Si number density = 19.325423 Si / 1000 Ang^3
#
#
#
# Elastic Constant Matrix: (Units=GPa)
#
#
# Indices 1 2 3 4 5 6 
#
# 1 138.3335 70.0784 50.9955 0.0000 0.0000 0.0000
# 2 70.0784 92.9827 46.0916 0.0000 0.0000 0.0000
# 3 50.9955 46.0916 53.7197 0.0000 0.0000 0.0000
# 4 0.0000 0.0000 0.0000 28.4604 0.0000 0.0000
# 5 0.0000 0.0000 0.0000 0.0000 45.0123 0.0000
# 6 0.0000 0.0000 0.0000 0.0000 0.0000 32.0931
#
#
#
# Elastic Compliance Matrix: (Units=1/GPa)
#
#
# Indices 1 2 3 4 5 6 
#
# 1 0.012994 -0.006401 -0.006843 0.000000 0.000000 0.000000
# 2 -0.006401 0.021867 -0.012686 0.000000 0.000000 0.000000
# 3 -0.006843 -0.012686 0.035995 0.000000 0.000000 0.000000
# 4 0.000000 0.000000 0.000000 0.035137 0.000000 0.000000
# 5 0.000000 0.000000 0.000000 0.000000 0.022216 0.000000
# 6 0.000000 0.000000 0.000000 0.000000 0.000000 0.031159
#
#
# Mechanical properties :
#
#
# Convention : Reuss Voigt Hill
#
# Bulk Modulus (GPa) = 52.63911 68.81855 60.72883
# Shear Modulus (GPa) = 22.98200 28.97120 25.97660
#
# Velocity S-wave (km/s) = 3.45223 3.87605 3.67027
# Velocity P-wave (km/s) = 6.57176 7.46454 7.03233
#
# Compressibility (1/GPa) = 0.01899728
#
# Stress axis : x y z
#
# Youngs Moduli (GPa) = 76.95602 45.73000 27.78142
#
# Poissons Ratio (x) = 0.29274 0.19011
# Poissons Ratio (y) = 0.49263 0.35242
# Poissons Ratio (z) = 0.52661 0.58011
#
# Static dielectric constant tensor:
#      x y z
#    x 3.324290 0.000000 0.000000 
#    y 0.000000 3.417510 0.000000 
#    z 0.000000 0.000000 3.495670 
# 
# 
# High freq. dielectric constant tensor:
#      x y z
#    x 1.756480 0.000000 0.000000 
#    y 0.000000 1.743870 0.000000 
#    z 0.000000 0.000000 1.751530 
# 
# From -- ./inp_files/73330.got.cif
#   From: 2010.03.12/outbox.cif.g09.slc.cpg/sg65_37_cif.got.tgz:73330.got - 2010.04.10 20:52:16.
