data_PCOD8269307
_publ_section_title
;
Structure prediction by ZEFSAII (Michael W. Deem and Ramdas Pophale) SiO2 
 PCOD8269307
Probable space group: C M M M
;
_chemical_formula_sum "Si O2"
_cell_formula_units_Z 76
_cell_length_a 24.166893
_cell_length_b 15.360688
_cell_length_c 10.912443
_cell_angle_alpha 90.000000
_cell_angle_beta 90.000000
_cell_angle_gamma 90.000000
_cell_volume 4050.918218
_symmetry_space_group_name_H-M "C M M M"
_symmetry_group_IT_number 65
_symmetry_cell_setting 'orthorhombic'
loop_
_space_group_symop_operation_xyz
x,y,z
-x,-y,z
x,-y,-z
-x,y,-z
-x,-y,-z
x,y,-z
-x,y,z
x,-y,z
1/2+x,1/2+y,z
1/2-x,1/2-y,z
1/2+x,1/2-y,-z
1/2-x,1/2+y,-z
1/2-x,1/2-y,-z
1/2+x,1/2+y,-z
1/2-x,1/2+y,z
1/2+x,1/2-y,z
loop_
_atom_site_type_symbol
_atom_site_label
_atom_site_fract_x
_atom_site_fract_y
_atom_site_fract_z
Si Si1 0.000000 0.167389 0.256152
Si Si2 0.406459 0.097214 0.000000
Si Si3 0.381067 0.903274 0.267006
Si Si4 0.500000 0.148067 0.641365
Si Si5 0.689040 0.253813 0.642366
Si Si6 0.500000 0.761057 0.000000
Si Si7 0.390762 0.402046 0.357439
O O1 0.946567 0.108618 0.280267
O O2 0.000000 0.247918 0.350237
O O3 0.000000 0.199218 0.117039
O O4 0.369173 0.106784 0.121892
O O5 0.448023 0.176532 0.000000
O O6 0.434243 0.000000 0.000000
O O7 0.446234 0.889229 0.290892
O O8 0.343651 0.835848 0.340103
O O9 0.364766 0.000000 0.311964
O O10 0.500000 0.119208 0.500000
O O11 0.696594 0.271855 0.500000
O O12 0.750000 0.250000 0.704396
O O13 0.654595 0.334981 0.697182
O O14 0.403287 0.382492 0.500000
O O15 0.368307 0.500000 0.339419
#
# Coordination Sequence:
#
# PCOD8269307 Si02
#       7
#     8   8  16   8  16   4  16
#     4  12  21  33  55  81 110 142 181 222 271 321
#     4  10  19  34  53  76 108 148 192 225 260 323
#     4  11  22  36  56  82 114 148 183 224 273 330
#     4  12  21  32  53  81 115 146 173 215 275 331
#     4  10  21  37  56  81 112 144 182 229 280 331
#     4  12  19  32  53  76 110 154 180 216 274 328
#     4  10  20  36  57  79 106 144 186 227 272 326
#
# _framework density 18.761178000000001
#
# number of rings (size 3 to 8) (size 9 to 14) (size 15 to 20)
#    0.000    1.263    4.211    2.368    0.000    5.474 
#    0.000    3.684    0.000    0.000    0.000    0.000 
#    0.000    0.000    0.000    0.000    0.000    0.000 
#
# Total GULP energy -471192.959385 kJ/mol
# GULP energy per Si atom -12399.814721 kJ/mol
# Density = 1.871848 g / cm^3
# Si number density = 18.761178 Si / 1000 Ang^3
#
#
#
# Elastic Constant Matrix: (Units=GPa)
#
#
# Indices 1 2 3 4 5 6 
#
# 1 126.9962 54.8868 11.7596 0.0000 0.0000 0.0000
# 2 54.8868 132.0770 10.6869 0.0000 0.0000 0.0000
# 3 11.7596 10.6869 60.3605 0.0000 0.0000 0.0000
# 4 0.0000 0.0000 0.0000 27.7716 0.0000 0.0000
# 5 0.0000 0.0000 0.0000 0.0000 18.4764 0.0000
# 6 0.0000 0.0000 0.0000 0.0000 0.0000 10.8338
#
#
#
# Elastic Compliance Matrix: (Units=1/GPa)
#
#
# Indices 1 2 3 4 5 6 
#
# 1 0.009682 -0.003927 -0.001191 0.000000 0.000000 0.000000
# 2 -0.003927 0.009274 -0.000877 0.000000 0.000000 0.000000
# 3 -0.001191 -0.000877 0.016954 0.000000 0.000000 0.000000
# 4 0.000000 0.000000 0.000000 0.036008 0.000000 0.000000
# 5 0.000000 0.000000 0.000000 0.000000 0.054123 0.000000
# 6 0.000000 0.000000 0.000000 0.000000 0.000000 0.092303
#
#
# Mechanical properties :
#
#
# Convention : Reuss Voigt Hill
#
# Bulk Modulus (GPa) = 41.80504 52.67781 47.24142
# Shear Modulus (GPa) = 20.98122 27.55639 24.26881
#
# Velocity S-wave (km/s) = 3.34777 3.83665 3.60052
# Velocity P-wave (km/s) = 6.10529 6.91126 6.52074
#
# Compressibility (1/GPa) = 0.02392056
#
# Stress axis : x y z
#
# Youngs Moduli (GPa) = 103.28685 107.82539 58.98175
#
# Poissons Ratio (x) = 0.42344 0.07024
# Poissons Ratio (y) = 0.40561 0.05172
# Poissons Ratio (z) = 0.12301 0.09456
#
# Static dielectric constant tensor:
#      x y z
#    x 3.401640 0.000000 0.000000 
#    y 0.000000 3.540360 0.000000 
#    z 0.000000 0.000000 3.390690 
# 
# 
# High freq. dielectric constant tensor:
#      x y z
#    x 1.705620 0.000000 0.000000 
#    y 0.000000 1.742210 0.000000 
#    z 0.000000 0.000000 1.711090 
# 
# From -- ./inp_files/30460.got.cif
#   From: 2010.03.12/outbox.cif.g09.slc.cpg/sg65_16_cif.got.tgz:30460.got - 2010.04.10 20:52:16.
