data_PCOD8269678
_publ_section_title
;
Structure prediction by ZEFSAII (Michael W. Deem and Ramdas Pophale) SiO2 
 PCOD8269678
Probable space group: C M M M
;
_chemical_formula_sum "Si O2"
_cell_formula_units_Z 88
_cell_length_a 9.338210
_cell_length_b 28.355130
_cell_length_c 17.805703
_cell_angle_alpha 90.000000
_cell_angle_beta 90.000000
_cell_angle_gamma 90.000000
_cell_volume 4714.703697
_symmetry_space_group_name_H-M "C M M M"
_symmetry_group_IT_number 65
_symmetry_cell_setting 'orthorhombic'
loop_
_space_group_symop_operation_xyz
x,y,z
-x,-y,z
x,-y,-z
-x,y,-z
-x,-y,-z
x,y,-z
-x,y,z
x,-y,z
1/2+x,1/2+y,z
1/2-x,1/2-y,z
1/2+x,1/2-y,-z
1/2-x,1/2+y,-z
1/2-x,1/2-y,-z
1/2+x,1/2+y,-z
1/2-x,1/2+y,z
1/2+x,1/2-y,z
loop_
_atom_site_type_symbol
_atom_site_label
_atom_site_fract_x
_atom_site_fract_y
_atom_site_fract_z
Si Si1 0.166182 0.705132 0.138506
Si Si2 0.335029 0.896418 0.914094
Si Si3 0.833414 0.055183 0.785982
Si Si4 0.170050 0.446998 0.500000
Si Si5 0.167986 0.397232 0.349558
Si Si6 0.336143 0.793843 0.688737
O O1 0.250000 0.750000 0.104846
O O2 0.211922 0.658095 0.094459
O O3 0.208569 0.697083 0.225197
O O4 0.000000 0.715936 0.127957
O O5 0.500000 0.902003 0.887801
O O6 0.235595 0.930190 0.865015
O O7 0.315493 0.911994 0.000000
O O8 0.755748 0.082319 0.719329
O O9 0.000000 0.068900 0.786591
O O10 0.810426 0.000000 0.773694
O O11 0.231396 0.500000 0.500000
O O12 0.226033 0.420656 0.425864
O O13 0.000000 0.447051 0.500000
O O14 0.196301 0.341391 0.357280
O O15 0.000000 0.407489 0.335485
O O16 0.500000 0.779320 0.682841
O O17 0.250000 0.750000 0.653532
#
# Coordination Sequence:
#
# PCOD8269678 Si02
#       6
#    16  16  16   8  16  16
#     4   9  17  31  50  77 108 140 178 220 268 320
#     4  10  21  38  58  80 108 142 184 231 274 323
#     4  11  24  39  56  80 109 143 183 227 277 331
#     4   9  18  32  56  89 115 139 179 233 282 319
#     4  10  19  36  60  85 112 144 184 227 271 323
#     4   9  17  30  51  78 109 143 179 221 266 317
#
# _framework density 18.665011
#
# number of rings (size 3 to 8) (size 9 to 14) (size 15 to 20)
#    0.000    2.273    1.818    1.091    0.000    4.727 
#    0.000    2.727    0.000    1.636    0.000    0.000 
#    0.000    0.000    0.000    0.000    0.000    0.000 
#
# Total GULP energy -545677.640100 kJ/mol
# GULP energy per Si atom -12401.764548 kJ/mol
# Density = 1.862253 g / cm^3
# Si number density = 18.665011 Si / 1000 Ang^3
#
#
#
# Elastic Constant Matrix: (Units=GPa)
#
#
# Indices 1 2 3 4 5 6 
#
# 1 71.6483 54.7096 38.5556 0.0000 0.0000 0.0000
# 2 54.7096 108.8939 46.5407 0.0000 0.0000 0.0000
# 3 38.5556 46.5407 91.2252 0.0000 0.0000 0.0000
# 4 0.0000 0.0000 0.0000 23.9201 0.0000 0.0000
# 5 0.0000 0.0000 0.0000 0.0000 10.2922 0.0000
# 6 0.0000 0.0000 0.0000 0.0000 0.0000 34.4367
#
#
#
# Elastic Compliance Matrix: (Units=1/GPa)
#
#
# Indices 1 2 3 4 5 6 
#
# 1 0.024429 -0.010053 -0.005196 0.000000 0.000000 0.000000
# 2 -0.010053 0.015881 -0.003853 0.000000 0.000000 0.000000
# 3 -0.005196 -0.003853 0.015124 0.000000 0.000000 0.000000
# 4 0.000000 0.000000 0.000000 0.041806 0.000000 0.000000
# 5 0.000000 0.000000 0.000000 0.000000 0.097161 0.000000
# 6 0.000000 0.000000 0.000000 0.000000 0.000000 0.029039
#
#
# Mechanical properties :
#
#
# Convention : Reuss Voigt Hill
#
# Bulk Modulus (GPa) = 58.03981 61.26433 59.65207
# Shear Modulus (GPa) = 18.69951 22.52725 20.61338
#
# Velocity S-wave (km/s) = 3.16863 3.47785 3.32684
# Velocity P-wave (km/s) = 6.67458 7.00154 6.84001
#
# Compressibility (1/GPa) = 0.01722955
#
# Stress axis : x y z
#
# Youngs Moduli (GPa) = 40.93422 62.96938 66.12081
#
# Poissons Ratio (x) = 0.63302 0.34358
# Poissons Ratio (y) = 0.41150 0.25478
# Poissons Ratio (z) = 0.21270 0.24263
#
# Static dielectric constant tensor:
#      x y z
#    x 3.322680 0.000000 0.000000 
#    y 0.000000 3.593580 0.000000 
#    z 0.000000 0.000000 3.355200 
# 
# 
# High freq. dielectric constant tensor:
#      x y z
#    x 1.707690 0.000000 0.000000 
#    y 0.000000 1.735530 0.000000 
#    z 0.000000 0.000000 1.711180 
# 
# From -- ./inp_files/50368.got.cif
#   From: 2010.03.12/outbox.cif.g09.slc.cpg/sg65_26_cif.got.tgz:50368.got - 2010.04.10 20:52:16.
