data_PCOD8269370
_publ_section_title
;
Structure prediction by ZEFSAII (Michael W. Deem and Ramdas Pophale) SiO2 
 PCOD8269370
Probable space group: C M M M
;
_chemical_formula_sum "Si O2"
_cell_formula_units_Z 88
_cell_length_a 23.381749
_cell_length_b 8.834367
_cell_length_c 22.860914
_cell_angle_alpha 90.000000
_cell_angle_beta 90.000000
_cell_angle_gamma 90.000000
_cell_volume 4722.217876
_symmetry_space_group_name_H-M "C M M M"
_symmetry_group_IT_number 65
_symmetry_cell_setting 'orthorhombic'
loop_
_space_group_symop_operation_xyz
x,y,z
-x,-y,z
x,-y,-z
-x,y,-z
-x,-y,-z
x,y,-z
-x,y,z
x,-y,z
1/2+x,1/2+y,z
1/2-x,1/2-y,z
1/2+x,1/2-y,-z
1/2-x,1/2+y,-z
1/2-x,1/2-y,-z
1/2+x,1/2+y,-z
1/2-x,1/2+y,z
1/2+x,1/2-y,z
loop_
_atom_site_type_symbol
_atom_site_label
_atom_site_fract_x
_atom_site_fract_y
_atom_site_fract_z
Si Si1 0.187905 0.321380 0.000000
Si Si2 0.191100 0.677090 0.434765
Si Si3 0.876938 0.321439 0.115949
Si Si4 0.500000 0.820275 0.280212
Si Si5 0.188894 0.178865 0.221448
Si Si6 0.000000 0.323148 0.850619
Si Si7 0.121209 0.678191 0.675325
O O1 0.250000 0.250000 0.000000
O O2 0.153157 0.266229 0.943324
O O3 0.194753 0.500000 0.000000
O O4 0.175026 0.735750 0.500000
O O5 0.201883 0.500000 0.435265
O O6 0.250000 0.750000 0.412393
O O7 0.139308 0.718532 0.391038
O O8 0.867927 0.500000 0.126482
O O9 0.852656 0.229585 0.169993
O O10 0.944059 0.277747 0.112220
O O11 0.500000 0.750078 0.214597
O O12 0.556487 0.763471 0.314462
O O13 0.500000 0.000000 0.278476
O O14 0.250000 0.250000 0.208789
O O15 0.164688 0.235270 0.282808
O O16 0.194729 0.000000 0.222267
O O17 0.000000 0.500000 0.839294
O O18 0.126468 0.500000 0.688489
#
# Coordination Sequence:
#
# PCOD8269370 Si02
#       7
#     8  16  16   8  16   8  16
#     4  10  22  37  57  81 109 142 181 222 267 318
#     4   9  18  32  51  76 106 140 178 221 267 317
#     4  10  20  37  58  82 109 142 179 219 265 319
#     4   9  16  30  54  80 105 143 178 215 267 319
#     4  12  24  36  53  79 108 139 178 225 272 321
#     4   9  16  31  58  82 108 140 178 219 264 315
#     4  10  19  34  55  78 107 142 180 220 267 320
#
# _framework density 18.635311999999999
#
# number of rings (size 3 to 8) (size 9 to 14) (size 15 to 20)
#    0.000    2.000    1.818    2.727    0.000    4.727 
#    0.000    4.091    0.000    2.727    0.000    1.909 
#    0.000    4.364    0.000    0.000    0.000    0.000 
#
# Total GULP energy -545585.835656 kJ/mol
# GULP energy per Si atom -12399.678083 kJ/mol
# Density = 1.859290 g / cm^3
# Si number density = 18.635312 Si / 1000 Ang^3
#
#
#
# Elastic Constant Matrix: (Units=GPa)
#
#
# Indices 1 2 3 4 5 6 
#
# 1 148.8768 25.5484 64.0741 0.0000 0.0000 0.0000
# 2 25.5484 49.5608 25.9474 0.0000 0.0000 0.0000
# 3 64.0741 25.9474 121.3180 0.0000 0.0000 0.0000
# 4 0.0000 0.0000 0.0000 9.2428 0.0000 0.0000
# 5 0.0000 0.0000 0.0000 0.0000 35.1970 0.0000
# 6 0.0000 0.0000 0.0000 0.0000 0.0000 22.8974
#
#
#
# Elastic Compliance Matrix: (Units=1/GPa)
#
#
# Indices 1 2 3 4 5 6 
#
# 1 0.008941 -0.002406 -0.004207 0.000000 0.000000 0.000000
# 2 -0.002406 0.023369 -0.003727 0.000000 0.000000 0.000000
# 3 -0.004207 -0.003727 0.011262 0.000000 0.000000 0.000000
# 4 0.000000 0.000000 0.000000 0.108192 0.000000 0.000000
# 5 0.000000 0.000000 0.000000 0.000000 0.028412 0.000000
# 6 0.000000 0.000000 0.000000 0.000000 0.000000 0.043673
#
#
# Mechanical properties :
#
#
# Convention : Reuss Voigt Hill
#
# Bulk Modulus (GPa) = 43.68701 61.21059 52.44880
# Shear Modulus (GPa) = 19.82865 27.07981 23.45423
#
# Velocity S-wave (km/s) = 3.26550 3.81615 3.55151
# Velocity P-wave (km/s) = 6.14101 7.23431 6.70996
#
# Compressibility (1/GPa) = 0.02289010
#
# Stress axis : x y z
#
# Youngs Moduli (GPa) = 111.84850 42.79169 88.79301
#
# Poissons Ratio (x) = 0.10296 0.37359
# Poissons Ratio (y) = 0.26912 0.33096
# Poissons Ratio (z) = 0.47059 0.15950
#
# Static dielectric constant tensor:
#      x y z
#    x 3.769240 0.000000 0.000000 
#    y 0.000000 3.187970 0.000000 
#    z 0.000000 0.000000 3.663470 
# 
# 
# High freq. dielectric constant tensor:
#      x y z
#    x 1.732790 0.000000 0.000000 
#    y 0.000000 1.694980 0.000000 
#    z 0.000000 0.000000 1.726970 
# 
# From -- ./inp_files/71075.got.cif
#   From: 2010.03.12/outbox.cif.g09.slc.cpg/sg65_36_cif.got.tgz:71075.got - 2010.04.10 20:52:16.
