data_PCOD8269511
_publ_section_title
;
Structure prediction by ZEFSAII (Michael W. Deem and Ramdas Pophale) SiO2 
 PCOD8269511
Probable space group: C M M M
;
_chemical_formula_sum "Si O2"
_cell_formula_units_Z 88
_cell_length_a 13.700973
_cell_length_b 24.424507
_cell_length_c 12.928641
_cell_angle_alpha 90.000000
_cell_angle_beta 90.000000
_cell_angle_gamma 90.000000
_cell_volume 4326.434101
_symmetry_space_group_name_H-M "C M M M"
_symmetry_group_IT_number 65
_symmetry_cell_setting 'orthorhombic'
loop_
_space_group_symop_operation_xyz
x,y,z
-x,-y,z
x,-y,-z
-x,y,-z
-x,-y,-z
x,y,-z
-x,y,z
x,-y,z
1/2+x,1/2+y,z
1/2-x,1/2-y,z
1/2+x,1/2-y,-z
1/2-x,1/2+y,-z
1/2-x,1/2-y,-z
1/2+x,1/2+y,-z
1/2-x,1/2+y,z
1/2+x,1/2-y,z
loop_
_atom_site_type_symbol
_atom_site_label
_atom_site_fract_x
_atom_site_fract_y
_atom_site_fract_z
Si Si1 0.636931 0.746705 0.000000
Si Si2 0.255204 0.381658 0.672828
Si Si3 0.388882 0.211803 0.614937
Si Si4 0.388053 0.062004 0.190353
Si Si5 0.107375 0.372706 0.000000
Si Si6 0.885262 0.064820 0.500000
Si Si7 0.108445 0.196533 0.220813
O O1 0.750000 0.750000 0.000000
O O2 0.602642 0.715467 0.102028
O O3 0.596330 0.807831 0.000000
O O4 0.184981 0.338733 0.616044
O O5 0.183997 0.429415 0.713463
O O6 0.335056 0.408529 0.599285
O O7 0.315379 0.352780 0.765934
O O8 0.382045 0.238707 0.500000
O O9 0.500000 0.191695 0.636579
O O10 0.357259 0.254982 0.702387
O O11 0.500000 0.076141 0.221596
O O12 0.380067 0.000000 0.150588
O O13 0.344206 0.103517 0.103783
O O14 0.000000 0.399595 0.000000
O O15 0.000000 0.079399 0.500000
O O16 0.868700 0.000000 0.500000
O O17 0.000000 0.177302 0.253194
#
# Coordination Sequence:
#
# PCOD8269511 Si02
#       7
#     8  16  16  16   8   8  16
#     4  12  22  37  57  89 124 159 202 243 297 358
#     4  12  22  39  62  87 115 156 204 244 307 362
#     4  10  21  37  58  89 124 156 195 240 296 359
#     4  10  21  37  59  89 122 156 200 253 305 358
#     4  10  19  34  58  84 121 165 195 229 285 353
#     4  11  26  46  64  83 111 151 206 266 314 361
#     4  11  24  38  58  88 127 168 201 244 293 356
#
# _framework density 20.340077000000001
#
# number of rings (size 3 to 8) (size 9 to 14) (size 15 to 20)
#    0.000    1.182    0.909    6.545    1.273    4.727 
#    0.000    0.000    0.000    2.182    0.000    0.000 
#    0.000   10.182    0.000    0.000    0.000    0.000 
#
# Total GULP energy -545468.090117 kJ/mol
# GULP energy per Si atom -12397.002048 kJ/mol
# Density = 2.029378 g / cm^3
# Si number density = 20.340077 Si / 1000 Ang^3
#
#
#
# Elastic Constant Matrix: (Units=GPa)
#
#
# Indices 1 2 3 4 5 6 
#
# 1 131.5122 50.0614 39.1867 0.0000 0.0000 0.0000
# 2 50.0614 97.7611 51.5890 0.0000 0.0000 0.0000
# 3 39.1867 51.5890 129.6788 0.0000 0.0000 0.0000
# 4 0.0000 0.0000 0.0000 31.6407 0.0000 0.0000
# 5 0.0000 0.0000 0.0000 0.0000 26.8085 0.0000
# 6 0.0000 0.0000 0.0000 0.0000 0.0000 36.6118
#
#
#
# Elastic Compliance Matrix: (Units=1/GPa)
#
#
# Indices 1 2 3 4 5 6 
#
# 1 0.009589 -0.004280 -0.001195 0.000000 0.000000 0.000000
# 2 -0.004280 0.014857 -0.004617 0.000000 0.000000 0.000000
# 3 -0.001195 -0.004617 0.009909 0.000000 0.000000 0.000000
# 4 0.000000 0.000000 0.000000 0.031605 0.000000 0.000000
# 5 0.000000 0.000000 0.000000 0.000000 0.037302 0.000000
# 6 0.000000 0.000000 0.000000 0.000000 0.000000 0.027314
#
#
# Mechanical properties :
#
#
# Convention : Reuss Voigt Hill
#
# Bulk Modulus (GPa) = 70.56437 71.18071 70.87254
# Shear Modulus (GPa) = 32.15777 33.55319 32.85548
#
# Velocity S-wave (km/s) = 3.98050 4.06595 4.02345
# Velocity P-wave (km/s) = 7.47619 7.55737 7.51689
#
# Compressibility (1/GPa) = 0.01417146
#
# Stress axis : x y z
#
# Youngs Moduli (GPa) = 104.28540 67.30795 100.91504
#
# Poissons Ratio (x) = 0.28806 0.12060
# Poissons Ratio (y) = 0.44631 0.46595
# Poissons Ratio (z) = 0.12463 0.31078
#
# Static dielectric constant tensor:
#      x y z
#    x 3.893880 0.000000 0.000000 
#    y 0.000000 3.446460 0.000000 
#    z 0.000000 0.000000 3.632640 
# 
# 
# High freq. dielectric constant tensor:
#      x y z
#    x 1.812790 0.000000 0.000000 
#    y 0.000000 1.775970 0.000000 
#    z 0.000000 0.000000 1.797230 
# 
# From -- ./inp_files/24871.got.cif
#   From: 2010.03.12/outbox.cif.g09.slc.cpg/sg65_13_cif.got.tgz:24871.got - 2010.04.10 20:52:16.
