data_PCOD8269841
_publ_section_title
;
Structure prediction by ZEFSAII (Michael W. Deem and Ramdas Pophale) SiO2 
 PCOD8269841
Probable space group: C M M M
;
_chemical_formula_sum "Si O2"
_cell_formula_units_Z 88
_cell_length_a 30.456072
_cell_length_b 17.833712
_cell_length_c 9.252223
_cell_angle_alpha 90.000000
_cell_angle_beta 90.000000
_cell_angle_gamma 90.000000
_cell_volume 5025.296965
_symmetry_space_group_name_H-M "C M M M"
_symmetry_group_IT_number 65
_symmetry_cell_setting 'orthorhombic'
loop_
_space_group_symop_operation_xyz
x,y,z
-x,-y,z
x,-y,-z
-x,y,-z
-x,-y,-z
x,y,-z
-x,y,z
x,-y,z
1/2+x,1/2+y,z
1/2-x,1/2-y,z
1/2+x,1/2-y,-z
1/2-x,1/2+y,-z
1/2-x,1/2-y,-z
1/2+x,1/2+y,-z
1/2-x,1/2+y,z
1/2+x,1/2-y,z
loop_
_atom_site_type_symbol
_atom_site_label
_atom_site_fract_x
_atom_site_fract_y
_atom_site_fract_z
Si Si1 0.082519 0.864516 0.336817
Si Si2 0.621279 0.200870 0.663994
Si Si3 0.500000 0.413619 0.829710
Si Si4 0.798743 0.763027 0.831213
Si Si5 0.450834 0.085093 0.671635
Si Si6 0.160568 0.081809 0.163903
O O1 0.072002 0.890231 0.500000
O O2 0.096109 0.778660 0.331385
O O3 0.120123 0.917635 0.273426
O O4 0.041148 0.871526 0.235276
O O5 0.634058 0.179188 0.500000
O O6 0.666394 0.207924 0.754170
O O7 0.587850 0.139076 0.732621
O O8 0.500000 0.500000 0.782565
O O9 0.500000 0.403922 0.000000
O O10 0.750000 0.750000 0.769939
O O11 0.806683 0.850845 0.797648
O O12 0.801609 0.744252 0.000000
O O13 0.451051 0.091845 0.500000
O O14 0.500000 0.107825 0.727841
O O15 0.440292 0.000000 0.720200
O O16 0.183867 0.000000 0.180114
O O17 0.142955 0.092341 0.000000
#
# Coordination Sequence:
#
# PCOD8269841 Si02
#       6
#    16  16   8  16  16  16
#     4  10  20  31  46  69  95 122 153 195 239 275
#     4   9  18  31  50  74  98 124 157 199 241 284
#     4  11  23  35  45  61  90 127 162 192 225 269
#     4   9  18  33  51  70  95 126 160 199 243 292
#     4   8  14  26  47  73  99 129 163 197 235 285
#     4   9  17  31  50  68  89 121 160 196 231 280
#
# _framework density 17.511403000000001
#
# number of rings (size 3 to 8) (size 9 to 14) (size 15 to 20)
#    0.000    2.818    0.000    1.909    1.273    4.364 
#    0.000    0.909    0.000    1.636    0.000    1.273 
#    0.000    0.000    0.000    0.000    0.000    0.000 
#
# Total GULP energy -545350.973687 kJ/mol
# GULP energy per Si atom -12394.340311 kJ/mol
# Density = 1.747155 g / cm^3
# Si number density = 17.511403 Si / 1000 Ang^3
#
#
#
# Elastic Constant Matrix: (Units=GPa)
#
#
# Indices 1 2 3 4 5 6 
#
# 1 144.8647 61.3250 43.6830 0.0000 0.0000 0.0000
# 2 61.3250 87.8895 23.8236 0.0000 0.0000 0.0000
# 3 43.6830 23.8236 54.1590 0.0000 0.0000 0.0000
# 4 0.0000 0.0000 0.0000 16.3241 0.0000 0.0000
# 5 0.0000 0.0000 0.0000 0.0000 29.0705 0.0000
# 6 0.0000 0.0000 0.0000 0.0000 0.0000 72.5088
#
#
#
# Elastic Compliance Matrix: (Units=1/GPa)
#
#
# Indices 1 2 3 4 5 6 
#
# 1 0.011531 -0.006273 -0.006541 0.000000 0.000000 0.000000
# 2 -0.006273 0.016330 -0.002124 0.000000 0.000000 0.000000
# 3 -0.006541 -0.002124 0.024674 0.000000 0.000000 0.000000
# 4 0.000000 0.000000 0.000000 0.061259 0.000000 0.000000
# 5 0.000000 0.000000 0.000000 0.000000 0.034399 0.000000
# 6 0.000000 0.000000 0.000000 0.000000 0.000000 0.013791
#
#
# Mechanical properties :
#
#
# Convention : Reuss Voigt Hill
#
# Bulk Modulus (GPa) = 44.13110 60.50849 52.31979
# Shear Modulus (GPa) = 25.07344 34.11948 29.59646
#
# Velocity S-wave (km/s) = 3.78806 4.41887 4.11557
# Velocity P-wave (km/s) = 6.66248 7.78871 7.24751
#
# Compressibility (1/GPa) = 0.02265976
#
# Stress axis : x y z
#
# Youngs Moduli (GPa) = 86.72439 61.23560 40.52773
#
# Poissons Ratio (x) = 0.38410 0.26510
# Poissons Ratio (y) = 0.54398 0.08609
# Poissons Ratio (z) = 0.56728 0.13008
#
# Static dielectric constant tensor:
#      x y z
#    x 3.254680 0.000000 0.000000 
#    y 0.000000 3.340980 0.000000 
#    z 0.000000 0.000000 3.209230 
# 
# 
# High freq. dielectric constant tensor:
#      x y z
#    x 1.666640 0.000000 0.000000 
#    y 0.000000 1.676990 0.000000 
#    z 0.000000 0.000000 1.658770 
# 
# From -- ./inp_files/10104.got.cif
#   From: 2010.03.12/outbox.cif.g09.slc.cpg/sg65_6_cif.got.tgz:10104.got - 2010.04.10 20:52:16.
