data_PCOD8269571
_publ_section_title
;
Structure prediction by ZEFSAII (Michael W. Deem and Ramdas Pophale) SiO2 
 PCOD8269571
Probable space group: C M M M
;
_chemical_formula_sum "Si O2"
_cell_formula_units_Z 104
_cell_length_a 23.241838
_cell_length_b 17.719305
_cell_length_c 13.582618
_cell_angle_alpha 90.000000
_cell_angle_beta 90.000000
_cell_angle_gamma 90.000000
_cell_volume 5593.718926
_symmetry_space_group_name_H-M "C M M M"
_symmetry_group_IT_number 65
_symmetry_cell_setting 'orthorhombic'
loop_
_space_group_symop_operation_xyz
x,y,z
-x,-y,z
x,-y,-z
-x,y,-z
-x,-y,-z
x,y,-z
-x,y,z
x,-y,z
1/2+x,1/2+y,z
1/2-x,1/2-y,z
1/2+x,1/2-y,-z
1/2-x,1/2+y,-z
1/2-x,1/2-y,-z
1/2+x,1/2+y,-z
1/2-x,1/2+y,z
1/2+x,1/2-y,z
loop_
_atom_site_type_symbol
_atom_site_label
_atom_site_fract_x
_atom_site_fract_y
_atom_site_fract_z
Si Si1 0.125471 0.647390 0.886169
Si Si2 0.433891 0.708224 0.201994
Si Si3 0.733072 0.913083 0.201723
Si Si4 0.837632 0.585913 0.388624
Si Si5 0.935105 0.500000 0.882289
Si Si6 0.565102 0.204962 0.611300
Si Si7 0.354162 0.588136 0.114382
O O1 0.099294 0.724068 0.848566
O O2 0.193080 0.641580 0.863185
O O3 0.095184 0.574247 0.836905
O O4 0.113690 0.645527 0.000000
O O5 0.500000 0.708525 0.168482
O O6 0.427522 0.721241 0.319617
O O7 0.407158 0.629734 0.166481
O O8 0.717267 0.900983 0.317059
O O9 0.798008 0.889085 0.177538
O O10 0.723640 0.000000 0.169208
O O11 0.817299 0.604042 0.500000
O O12 0.859850 0.500000 0.380505
O O13 0.890429 0.639572 0.356535
O O14 0.000000 0.500000 0.845141
O O15 0.930764 0.500000 0.000000
O O16 0.577167 0.231630 0.500000
O O17 0.500000 0.172765 0.622219
O O18 0.367419 0.500000 0.121983
O O19 0.346825 0.612420 0.000000
#
# Coordination Sequence:
#
# PCOD8269571 Si02
#       7
#    16  16  16  16   8  16  16
#     4  11  20  31  50  77 110 150 186 221 268 324
#     4  11  23  39  58  83 113 144 184 236 290 342
#     4  10  19  35  56  80 113 150 188 230 277 331
#     4   9  17  31  53  81 114 153 195 235 273 318
#     4   9  18  30  44  68 105 149 190 218 253 316
#     4   9  18  34  55  80 114 153 190 230 277 328
#     4  10  23  42  63  84 107 142 188 240 293 344
#
# _framework density 18.592282000000001
#
# number of rings (size 3 to 8) (size 9 to 14) (size 15 to 20)
#    0.000    2.077    2.308    1.385    0.000    3.692 
#    0.000    4.615    0.000    3.231    0.000    2.154 
#    0.000    0.000    0.000    0.000    0.000    0.000 
#
# Total GULP energy -644696.938398 kJ/mol
# GULP energy per Si atom -12398.018046 kJ/mol
# Density = 1.854997 g / cm^3
# Si number density = 18.592282 Si / 1000 Ang^3
#
#
#
# Elastic Constant Matrix: (Units=GPa)
#
#
# Indices 1 2 3 4 5 6 
#
# 1 72.2851 41.3619 30.4499 0.0000 0.0000 0.0000
# 2 41.3619 70.6542 34.0945 0.0000 0.0000 0.0000
# 3 30.4499 34.0945 85.8415 0.0000 0.0000 0.0000
# 4 0.0000 0.0000 0.0000 25.9844 0.0000 0.0000
# 5 0.0000 0.0000 0.0000 0.0000 27.9245 0.0000
# 6 0.0000 0.0000 0.0000 0.0000 0.0000 30.3291
#
#
#
# Elastic Compliance Matrix: (Units=1/GPa)
#
#
# Indices 1 2 3 4 5 6 
#
# 1 0.021512 -0.011024 -0.003252 0.000000 0.000000 0.000000
# 2 -0.011024 0.023159 -0.005288 0.000000 0.000000 0.000000
# 3 -0.003252 -0.005288 0.014903 0.000000 0.000000 0.000000
# 4 0.000000 0.000000 0.000000 0.038485 0.000000 0.000000
# 5 0.000000 0.000000 0.000000 0.000000 0.035811 0.000000
# 6 0.000000 0.000000 0.000000 0.000000 0.000000 0.032972
#
#
# Mechanical properties :
#
#
# Convention : Reuss Voigt Hill
#
# Bulk Modulus (GPa) = 48.90951 48.95482 48.93217
# Shear Modulus (GPa) = 23.49795 25.03923 24.26859
#
# Velocity S-wave (km/s) = 3.55893 3.67380 3.61682
# Velocity P-wave (km/s) = 6.57658 6.66210 6.61948
#
# Compressibility (1/GPa) = 0.02044592
#
# Stress axis : x y z
#
# Youngs Moduli (GPa) = 46.48539 43.18041 67.09971
#
# Poissons Ratio (x) = 0.47602 0.21823
# Poissons Ratio (y) = 0.51246 0.35480
# Poissons Ratio (z) = 0.15118 0.22832
#
# Static dielectric constant tensor:
#      x y z
#    x 3.329770 0.000000 0.000000 
#    y 0.000000 3.238690 0.000000 
#    z 0.000000 0.000000 3.617350 
# 
# 
# High freq. dielectric constant tensor:
#      x y z
#    x 1.711860 0.000000 0.000000 
#    y 0.000000 1.699150 0.000000 
#    z 0.000000 0.000000 1.731080 
# 
# From -- ./inp_files/44401.got.cif
#   From: 2010.03.12/outbox.cif.g09.slc.cpg/sg65_23_cif.got.tgz:44401.got - 2010.04.10 20:52:16.
