data_PCOD8269201
_publ_section_title
;
Structure prediction by ZEFSAII (Michael W. Deem and Ramdas Pophale) SiO2 
 PCOD8269201
Probable space group: C M M M
;
_chemical_formula_sum "Si O2"
_cell_formula_units_Z 112
_cell_length_a 15.271930
_cell_length_b 15.563316
_cell_length_c 22.881211
_cell_angle_alpha 90.000000
_cell_angle_beta 90.000000
_cell_angle_gamma 90.000000
_cell_volume 5438.449076
_symmetry_space_group_name_H-M "C M M M"
_symmetry_group_IT_number 65
_symmetry_cell_setting 'orthorhombic'
loop_
_space_group_symop_operation_xyz
x,y,z
-x,-y,z
x,-y,-z
-x,y,-z
-x,-y,-z
x,y,-z
-x,y,z
x,-y,z
1/2+x,1/2+y,z
1/2-x,1/2-y,z
1/2+x,1/2-y,-z
1/2-x,1/2+y,-z
1/2-x,1/2-y,-z
1/2+x,1/2+y,-z
1/2-x,1/2+y,z
1/2+x,1/2-y,z
loop_
_atom_site_type_symbol
_atom_site_label
_atom_site_fract_x
_atom_site_fract_y
_atom_site_fract_z
Si Si1 0.095751 0.161313 0.249702
Si Si2 0.641407 0.093243 0.349768
Si Si3 0.400666 0.247698 0.435247
Si Si4 0.660080 0.597634 0.633093
Si Si5 0.402948 0.858782 0.224943
Si Si6 0.765800 0.850031 0.838877
Si Si7 0.402751 0.601165 0.065656
O O1 0.095077 0.127629 0.315837
O O2 0.115632 0.262089 0.246020
O O3 0.169077 0.114246 0.211250
O O4 0.000000 0.140666 0.223526
O O5 0.606296 0.168533 0.390817
O O6 0.744075 0.104405 0.340257
O O7 0.599825 0.089550 0.285390
O O8 0.620524 0.000000 0.379032
O O9 0.370105 0.218009 0.500000
O O10 0.500000 0.278844 0.435980
O O11 0.345515 0.332877 0.418912
O O12 0.637953 0.500000 0.612041
O O13 0.500000 0.870028 0.196860
O O14 0.330563 0.890378 0.176418
O O15 0.750000 0.750000 0.838595
O O16 0.815536 0.871409 0.898994
O O17 0.500000 0.634493 0.088296
O O18 0.406010 0.500000 0.065526
O O19 0.388994 0.636425 0.000000
#
# Coordination Sequence:
#
# PCOD8269201 Si02
#       7
#    16  16  16  16  16  16  16
#     4  10  19  33  55  84 119 155 189 237 300 360
#     4  11  23  39  61  86 114 151 200 250 300 360
#     4  11  25  43  62  84 114 153 195 246 306 364
#     4  11  23  38  60  88 117 150 193 242 300 371
#     4  10  20  35  56  83 119 159 196 243 305 361
#     4  10  20  33  56  88 122 157 198 244 296 353
#     4   9  19  37  60  86 121 164 205 250 303 353
#
# _framework density 20.594106
#
# number of rings (size 3 to 8) (size 9 to 14) (size 15 to 20)
#    0.000    1.714    2.857    2.143    0.000    6.000 
#    0.000    2.857    0.000    0.429    0.000    1.000 
#    0.000    0.000    0.000    0.000    0.000    0.000 
#
# Total GULP energy -693735.597140 kJ/mol
# GULP energy per Si atom -12388.135663 kJ/mol
# Density = 2.054723 g / cm^3
# Si number density = 20.594106 Si / 1000 Ang^3
#
#
#
# Elastic Constant Matrix: (Units=GPa)
#
#
# Indices 1 2 3 4 5 6 
#
# 1 137.2949 37.2784 55.9935 0.0000 0.0000 0.0000
# 2 37.2784 76.7330 24.7744 0.0000 0.0000 0.0000
# 3 55.9935 24.7744 109.8469 0.0000 0.0000 0.0000
# 4 0.0000 0.0000 0.0000 9.6920 0.0000 0.0000
# 5 0.0000 0.0000 0.0000 0.0000 29.9887 0.0000
# 6 0.0000 0.0000 0.0000 0.0000 0.0000 12.2745
#
#
#
# Elastic Compliance Matrix: (Units=1/GPa)
#
#
# Indices 1 2 3 4 5 6 
#
# 1 0.009979 -0.003457 -0.004307 0.000000 0.000000 0.000000
# 2 -0.003457 0.015254 -0.001678 0.000000 0.000000 0.000000
# 3 -0.004307 -0.001678 0.011677 0.000000 0.000000 0.000000
# 4 0.000000 0.000000 0.000000 0.103178 0.000000 0.000000
# 5 0.000000 0.000000 0.000000 0.000000 0.033346 0.000000
# 6 0.000000 0.000000 0.000000 0.000000 0.000000 0.081469
#
#
# Mechanical properties :
#
#
# Convention : Reuss Voigt Hill
#
# Bulk Modulus (GPa) = 55.47666 62.21862 58.84764
# Shear Modulus (GPa) = 17.87015 24.11293 20.99154
#
# Velocity S-wave (km/s) = 2.94892 3.42550 3.19611
# Velocity P-wave (km/s) = 6.21220 6.77664 6.50055
#
# Compressibility (1/GPa) = 0.01802560
#
# Stress axis : x y z
#
# Youngs Moduli (GPa) = 100.21219 65.55830 85.63565
#
# Poissons Ratio (x) = 0.22666 0.36882
# Poissons Ratio (y) = 0.34647 0.14369
# Poissons Ratio (z) = 0.43160 0.11000
#
# Static dielectric constant tensor:
#      x y z
#    x 4.476670 0.000000 0.000000 
#    y 0.000000 3.610430 0.000000 
#    z 0.000000 0.000000 3.809070 
# 
# 
# High freq. dielectric constant tensor:
#      x y z
#    x 1.823660 0.000000 0.000000 
#    y 0.000000 1.790360 0.000000 
#    z 0.000000 0.000000 1.775770 
# 
# From -- ./inp_files/70027.got.cif
#   From: 2010.03.12/outbox.cif.g09.slc.cpg/sg65_36_cif.got.tgz:70027.got - 2010.04.10 20:52:16.
