data_PCOD8269559
_publ_section_title
;
Structure prediction by ZEFSAII (Michael W. Deem and Ramdas Pophale) SiO2 
 PCOD8269559
Probable space group: C M M M
;
_chemical_formula_sum "Si O2"
_cell_formula_units_Z 104
_cell_length_a 16.691244
_cell_length_b 26.398653
_cell_length_c 12.820731
_cell_angle_alpha 90.000000
_cell_angle_beta 90.000000
_cell_angle_gamma 90.000000
_cell_volume 5649.152014
_symmetry_space_group_name_H-M "C M M M"
_symmetry_group_IT_number 65
_symmetry_cell_setting 'orthorhombic'
loop_
_space_group_symop_operation_xyz
x,y,z
-x,-y,z
x,-y,-z
-x,y,-z
-x,-y,-z
x,y,-z
-x,y,z
x,-y,z
1/2+x,1/2+y,z
1/2-x,1/2-y,z
1/2+x,1/2-y,-z
1/2-x,1/2+y,-z
1/2-x,1/2-y,-z
1/2+x,1/2+y,-z
1/2-x,1/2+y,z
1/2+x,1/2-y,z
loop_
_atom_site_type_symbol
_atom_site_label
_atom_site_fract_x
_atom_site_fract_y
_atom_site_fract_z
Si Si1 0.408188 0.694780 0.269840
Si Si2 0.000000 0.559905 0.124131
Si Si3 0.860471 0.377564 0.765295
Si Si4 0.085258 0.092306 0.621602
Si Si5 0.767523 0.809040 0.880930
Si Si6 0.591130 0.792117 0.385100
Si Si7 0.251985 0.057253 0.617853
O O1 0.500000 0.702787 0.229947
O O2 0.402521 0.651564 0.356613
O O3 0.351694 0.678373 0.174334
O O4 0.369990 0.745311 0.321935
O O5 0.078295 0.588656 0.167603
O O6 0.000000 0.500000 0.156215
O O7 0.000000 0.565144 0.000000
O O8 0.806065 0.342203 0.837945
O O9 0.906295 0.343037 0.681969
O O10 0.806925 0.414723 0.698648
O O11 0.078788 0.084085 0.500000
O O12 0.160950 0.060403 0.662155
O O13 0.000000 0.074009 0.672419
O O14 0.750000 0.750000 0.868121
O O15 0.778720 0.824725 0.000000
O O16 0.631720 0.799342 0.500000
O O17 0.500000 0.776604 0.402913
O O18 0.257691 0.080330 0.500000
O O19 0.281029 0.000000 0.615323
#
# Coordination Sequence:
#
# PCOD8269559 Si02
#       7
#    16   8  16  16  16  16  16
#     4  10  19  35  55  82 115 151 188 225 273 333
#     4  11  26  46  67  87 105 141 206 266 304 345
#     4  12  21  40  60  83 112 151 184 237 299 349
#     4   9  17  31  53  80 113 150 186 223 265 322
#     4  11  23  38  56  83 116 149 191 239 285 341
#     4  10  20  34  55  83 115 150 187 223 268 340
#     4  10  21  35  54  83 115 146 184 231 284 344
#
# _framework density 18.409842999999999
#
# number of rings (size 3 to 8) (size 9 to 14) (size 15 to 20)
#    0.000    1.615    3.846    1.846    0.000    2.462 
#    0.000    2.308    0.000    1.846    0.000    0.000 
#    0.000    2.462    0.000    0.000    0.000    0.000 
#
# Total GULP energy -644456.835674 kJ/mol
# GULP energy per Si atom -12393.400686 kJ/mol
# Density = 1.836794 g / cm^3
# Si number density = 18.409843 Si / 1000 Ang^3
#
#
#
# Elastic Constant Matrix: (Units=GPa)
#
#
# Indices 1 2 3 4 5 6 
#
# 1 105.3208 39.3572 54.2721 0.0000 0.0000 0.0000
# 2 39.3572 89.7954 43.1600 0.0000 0.0000 0.0000
# 3 54.2721 43.1600 99.2462 0.0000 0.0000 0.0000
# 4 0.0000 0.0000 0.0000 26.5259 0.0000 0.0000
# 5 0.0000 0.0000 0.0000 0.0000 22.2998 0.0000
# 6 0.0000 0.0000 0.0000 0.0000 0.0000 103.4881
#
#
#
# Elastic Compliance Matrix: (Units=1/GPa)
#
#
# Indices 1 2 3 4 5 6 
#
# 1 0.013861 -0.003075 -0.006242 0.000000 0.000000 0.000000
# 2 -0.003075 0.014761 -0.004738 0.000000 0.000000 0.000000
# 3 -0.006242 -0.004738 0.015550 0.000000 0.000000 0.000000
# 4 0.000000 0.000000 0.000000 0.037699 0.000000 0.000000
# 5 0.000000 0.000000 0.000000 0.000000 0.044843 0.000000
# 6 0.000000 0.000000 0.000000 0.000000 0.000000 0.009663
#
#
# Mechanical properties :
#
#
# Convention : Reuss Voigt Hill
#
# Bulk Modulus (GPa) = 62.25991 63.10456 62.68224
# Shear Modulus (GPa) = 29.43923 40.96764 35.20344
#
# Velocity S-wave (km/s) = 4.00322 4.72244 4.37762
# Velocity P-wave (km/s) = 7.43370 8.00545 7.72487
#
# Compressibility (1/GPa) = 0.01606170
#
# Stress axis : x y z
#
# Youngs Moduli (GPa) = 72.14746 67.74437 64.30848
#
# Poissons Ratio (x) = 0.20829 0.40144
# Poissons Ratio (y) = 0.22183 0.30470
# Poissons Ratio (z) = 0.45038 0.32098
#
# Static dielectric constant tensor:
#      x y z
#    x 3.027370 0.000000 0.000000 
#    y 0.000000 3.395130 0.000000 
#    z 0.000000 0.000000 3.372950 
# 
# 
# High freq. dielectric constant tensor:
#      x y z
#    x 1.720420 0.000000 0.000000 
#    y 0.000000 1.713450 0.000000 
#    z 0.000000 0.000000 1.700280 
# 
# From -- ./inp_files/25558.got.cif
#   From: 2010.03.12/outbox.cif.g09.slc.cpg/sg65_13_cif.got.tgz:25558.got - 2010.04.10 20:52:16.
