data_PCOD8269349
_publ_section_title
;
Structure prediction by ZEFSAII (Michael W. Deem and Ramdas Pophale) SiO2 
 PCOD8269349
Probable space group: C M M M
;
_chemical_formula_sum "Si O2"
_cell_formula_units_Z 104
_cell_length_a 17.855743
_cell_length_b 26.611816
_cell_length_c 11.889139
_cell_angle_alpha 90.000000
_cell_angle_beta 90.000000
_cell_angle_gamma 90.000000
_cell_volume 5649.406730
_symmetry_space_group_name_H-M "C M M M"
_symmetry_group_IT_number 65
_symmetry_cell_setting 'orthorhombic'
loop_
_space_group_symop_operation_xyz
x,y,z
-x,-y,z
x,-y,-z
-x,y,-z
-x,-y,-z
x,y,-z
-x,y,z
x,-y,z
1/2+x,1/2+y,z
1/2-x,1/2-y,z
1/2+x,1/2-y,-z
1/2-x,1/2+y,-z
1/2-x,1/2-y,-z
1/2+x,1/2+y,-z
1/2-x,1/2+y,z
1/2+x,1/2-y,z
loop_
_atom_site_type_symbol
_atom_site_label
_atom_site_fract_x
_atom_site_fract_y
_atom_site_fract_z
Si Si1 0.919676 0.610637 0.628024
Si Si2 0.834608 0.111584 0.784074
Si Si3 0.225622 0.441726 0.372043
Si Si4 0.589182 0.559791 0.000000
Si Si5 0.412465 0.316112 0.375494
Si Si6 0.915365 0.713366 0.727659
Si Si7 0.720831 0.194012 0.127874
O O1 0.920585 0.592934 0.500000
O O2 0.847816 0.584245 0.684098
O O3 0.913206 0.670963 0.631645
O O4 0.000000 0.594406 0.684112
O O5 0.795817 0.069104 0.708193
O O6 0.897399 0.137335 0.706701
O O7 0.774368 0.154420 0.811275
O O8 0.873655 0.085752 0.891151
O O9 0.241203 0.422263 0.500000
O O10 0.209723 0.500000 0.373136
O O11 0.605671 0.500000 0.000000
O O12 0.500000 0.569935 0.000000
O O13 0.376910 0.324970 0.500000
O O14 0.500000 0.309380 0.388837
O O15 0.380395 0.264356 0.323345
O O16 0.864113 0.692608 0.828275
O O17 0.000000 0.722019 0.773670
O O18 0.750000 0.250000 0.144727
O O19 0.718879 0.177189 0.000000
#
# Coordination Sequence:
#
# PCOD8269349 Si02
#       7
#    16  16  16   8  16  16  16
#     4   9  17  30  50  76 109 148 188 228 269 319
#     4  12  21  39  60  85 111 149 183 233 289 341
#     4  10  21  35  54  81 111 145 188 238 289 339
#     4  11  26  46  67  88 107 139 192 245 292 346
#     4  10  21  36  56  85 119 152 186 225 274 338
#     4  10  19  34  54  80 115 154 191 223 267 327
#     4  11  22  37  54  82 115 146 187 234 276 327
#
# _framework density 18.409013000000002
#
# number of rings (size 3 to 8) (size 9 to 14) (size 15 to 20)
#    0.000    1.615    3.846    1.846    0.000    2.462 
#    0.000    2.308    0.000    0.000    0.000    6.462 
#    0.000    4.923    0.000    0.000    0.000    0.000 
#
# Total GULP energy -644497.899109 kJ/mol
# GULP energy per Si atom -12394.190367 kJ/mol
# Density = 1.836711 g / cm^3
# Si number density = 18.409013 Si / 1000 Ang^3
#
#
#
# Elastic Constant Matrix: (Units=GPa)
#
#
# Indices 1 2 3 4 5 6 
#
# 1 83.3358 30.6041 37.2210 0.0000 0.0000 0.0000
# 2 30.6041 84.8386 29.7709 0.0000 0.0000 0.0000
# 3 37.2210 29.7709 78.5981 0.0000 0.0000 0.0000
# 4 0.0000 0.0000 0.0000 29.1143 0.0000 0.0000
# 5 0.0000 0.0000 0.0000 0.0000 28.3822 0.0000
# 6 0.0000 0.0000 0.0000 0.0000 0.0000 24.8965
#
#
#
# Elastic Compliance Matrix: (Units=1/GPa)
#
#
# Indices 1 2 3 4 5 6 
#
# 1 0.016128 -0.003619 -0.006267 0.000000 0.000000 0.000000
# 2 -0.003619 0.014406 -0.003743 0.000000 0.000000 0.000000
# 3 -0.006267 -0.003743 0.017108 0.000000 0.000000 0.000000
# 4 0.000000 0.000000 0.000000 0.034347 0.000000 0.000000
# 5 0.000000 0.000000 0.000000 0.000000 0.035233 0.000000
# 6 0.000000 0.000000 0.000000 0.000000 0.000000 0.040166
#
#
# Mechanical properties :
#
#
# Convention : Reuss Voigt Hill
#
# Bulk Modulus (GPa) = 49.05527 49.10717 49.08122
# Shear Modulus (GPa) = 26.11780 26.42371 26.27076
#
# Velocity S-wave (km/s) = 3.77072 3.79274 3.78174
# Velocity P-wave (km/s) = 6.75744 6.77594 6.76670
#
# Compressibility (1/GPa) = 0.02038517
#
# Stress axis : x y z
#
# Youngs Moduli (GPa) = 62.00582 69.41607 58.45100
#
# Poissons Ratio (x) = 0.25119 0.36630
# Poissons Ratio (y) = 0.22438 0.21878
# Poissons Ratio (z) = 0.38857 0.25982
#
# Static dielectric constant tensor:
#      x y z
#    x 3.511230 0.000000 0.000000 
#    y 0.000000 3.323600 0.000000 
#    z 0.000000 0.000000 3.355650 
# 
# 
# High freq. dielectric constant tensor:
#      x y z
#    x 1.720330 0.000000 0.000000 
#    y 0.000000 1.712940 0.000000 
#    z 0.000000 0.000000 1.699440 
# 
# From -- ./inp_files/27473.got.cif
#   From: 2010.03.12/outbox.cif.g09.slc.cpg/sg65_14_cif.got.tgz:27473.got - 2010.04.10 20:52:16.
