data_PCOD8269037
_publ_section_title
;
Structure prediction by ZEFSAII (Michael W. Deem and Ramdas Pophale) SiO2 
 PCOD8269037
Probable space group: C M M M
;
_chemical_formula_sum "Si O2"
_cell_formula_units_Z 72
_cell_length_a 15.618496
_cell_length_b 26.914680
_cell_length_c 8.567482
_cell_angle_alpha 90.000000
_cell_angle_beta 90.000000
_cell_angle_gamma 90.000000
_cell_volume 3601.485180
_symmetry_space_group_name_H-M "C M M M"
_symmetry_group_IT_number 65
_symmetry_cell_setting 'orthorhombic'
loop_
_space_group_symop_operation_xyz
x,y,z
-x,-y,z
x,-y,-z
-x,y,-z
-x,-y,-z
x,y,-z
-x,y,z
x,-y,z
1/2+x,1/2+y,z
1/2-x,1/2-y,z
1/2+x,1/2-y,-z
1/2-x,1/2+y,-z
1/2-x,1/2-y,-z
1/2+x,1/2+y,-z
1/2-x,1/2+y,z
1/2+x,1/2-y,z
loop_
_atom_site_type_symbol
_atom_site_label
_atom_site_fract_x
_atom_site_fract_y
_atom_site_fract_z
Si Si1 0.164039 0.275219 0.313776
Si Si2 0.663649 0.441999 0.318508
Si Si3 0.165994 0.387347 0.685760
Si Si4 0.000000 0.783154 0.684384
Si Si5 0.000000 0.891775 0.180776
Si Si6 0.500000 0.055945 0.313665
O O1 0.163314 0.275033 0.500000
O O2 0.250000 0.250000 0.248999
O O3 0.160800 0.331332 0.250016
O O4 0.083745 0.244230 0.246942
O O5 0.646847 0.430327 0.500000
O O6 0.678984 0.500000 0.290256
O O7 0.747025 0.413141 0.255311
O O8 0.582608 0.424151 0.221393
O O9 0.164277 0.388158 0.500000
O O10 0.084263 0.416827 0.752251
O O11 0.000000 0.840728 0.725150
O O12 0.000000 0.777936 0.500000
O O13 0.000000 0.878703 0.000000
O O14 0.500000 0.056778 0.500000
O O15 0.500000 0.000000 0.249933
#
# Coordination Sequence:
#
# PCOD8269037 Si02
#       6
#    16  16  16   8   8   8
#     4   9  16  26  44  71  99 127 162 205 248 289
#     4  10  20  35  56  80 106 139 177 214 255 309
#     4   9  16  27  46  76 110 137 165 205 252 302
#     4  10  19  33  54  77 102 135 174 213 254 307
#     4  12  25  38  53  74 102 137 176 224 277 316
#     4   9  15  23  38  66 106 141 162 191 243 300
#
# _framework density 19.991752000000002
#
# number of rings (size 3 to 8) (size 9 to 14) (size 15 to 20)
#    0.000    2.333    0.000    4.000    0.000   10.667 
#    0.000    0.000    0.000    6.000    0.000    0.778 
#    0.000    2.667    0.000    0.000    0.000    0.000 
#
# Total GULP energy -446453.123445 kJ/mol
# GULP energy per Si atom -12401.475651 kJ/mol
# Density = 1.994625 g / cm^3
# Si number density = 19.991752 Si / 1000 Ang^3
#
#
#
# Elastic Constant Matrix: (Units=GPa)
#
#
# Indices 1 2 3 4 5 6 
#
# 1 170.3811 54.5404 14.6972 0.0000 0.0000 0.0000
# 2 54.5404 128.7878 5.3396 0.0000 0.0000 0.0000
# 3 14.6972 5.3396 10.9670 0.0000 0.0000 0.0000
# 4 0.0000 0.0000 0.0000 2.4695 0.0000 0.0000
# 5 0.0000 0.0000 0.0000 0.0000 -2.4971 0.0000
# 6 0.0000 0.0000 0.0000 0.0000 0.0000 47.3938
#
#
#
# Elastic Compliance Matrix: (Units=1/GPa)
#
#
# Indices 1 2 3 4 5 6 
#
# 1 0.007525 -0.002826 -0.008709 0.000000 0.000000 0.000000
# 2 -0.002826 0.008986 -0.000588 0.000000 0.000000 0.000000
# 3 -0.008709 -0.000588 0.103140 0.000000 0.000000 0.000000
# 4 0.000000 0.000000 0.000000 0.404940 0.000000 0.000000
# 5 0.000000 0.000000 0.000000 0.000000 -0.400468 0.000000
# 6 0.000000 0.000000 0.000000 0.000000 0.000000 0.021100
#
#
# Mechanical properties :
#
#
# Convention : Reuss Voigt Hill
#
# Bulk Modulus (GPa) = 10.48157 51.03223 30.75690
# Shear Modulus (GPa) = 24.84240 25.17716 25.00978
#
# Velocity S-wave (km/s) = 3.52892 3.55262 3.54079
# Velocity P-wave (km/s) = 4.67533 6.51231 5.66873
#
# Compressibility (1/GPa) = 0.09540556
#
# Stress axis : x y z
#
# Youngs Moduli (GPa) = 132.89161 111.28740 9.69557
#
# Poissons Ratio (x) = 0.31446 0.08444
# Poissons Ratio (y) = 0.37551 0.00570
# Poissons Ratio (z) = 1.15730 0.06546
#
# Static dielectric constant tensor:
#      x y z
#    x 3.935130 0.000000 0.000000 
#    y 0.000000 3.801890 0.000000 
#    z 0.000000 0.000000 2.891660 
# 
# 
# High freq. dielectric constant tensor:
#      x y z
#    x 1.801900 0.000000 0.000000 
#    y 0.000000 1.799890 0.000000 
#    z 0.000000 0.000000 1.702980 
# 
# From -- ./inp_files/7384.got.cif
#   From: 2010.03.12/outbox.cif.g09.slc.cpg/sg65_4_cif.got.tgz:7384.got - 2010.04.10 20:52:16.
