data_PCOD8269498
_publ_section_title
;
Structure prediction by ZEFSAII (Michael W. Deem and Ramdas Pophale) SiO2 
 PCOD8269498
Probable space group: C M M M
;
_chemical_formula_sum "Si O2"
_cell_formula_units_Z 88
_cell_length_a 17.776386
_cell_length_b 10.818856
_cell_length_c 22.358258
_cell_angle_alpha 90.000000
_cell_angle_beta 90.000000
_cell_angle_gamma 90.000000
_cell_volume 4299.943763
_symmetry_space_group_name_H-M "C M M M"
_symmetry_group_IT_number 65
_symmetry_cell_setting 'orthorhombic'
loop_
_space_group_symop_operation_xyz
x,y,z
-x,-y,z
x,-y,-z
-x,y,-z
-x,-y,-z
x,y,-z
-x,y,z
x,-y,z
1/2+x,1/2+y,z
1/2-x,1/2-y,z
1/2+x,1/2-y,-z
1/2-x,1/2+y,-z
1/2-x,1/2-y,-z
1/2+x,1/2+y,-z
1/2-x,1/2+y,z
1/2+x,1/2-y,z
loop_
_atom_site_type_symbol
_atom_site_label
_atom_site_fract_x
_atom_site_fract_y
_atom_site_fract_z
Si Si1 0.411484 0.262867 0.858534
Si Si2 0.411392 0.000000 0.433815
Si Si3 0.801221 0.363765 0.068489
Si Si4 0.186506 0.142074 0.500000
Si Si5 0.589160 0.500000 0.066944
Si Si6 0.910683 0.862209 0.734024
Si Si7 0.910435 0.764443 0.606635
O O1 0.500000 0.244844 0.860808
O O2 0.373941 0.142250 0.888193
O O3 0.383847 0.379484 0.897795
O O4 0.383195 0.280679 0.790254
O O5 0.385335 0.121694 0.398882
O O6 0.500000 0.000000 0.440256
O O7 0.375094 0.000000 0.500000
O O8 0.763251 0.500000 0.076985
O O9 0.750000 0.250000 0.089358
O O10 0.826898 0.346045 0.000000
O O11 0.250000 0.250000 0.500000
O O12 0.133486 0.155153 0.557957
O O13 0.218973 0.000000 0.500000
O O14 0.500000 0.500000 0.062629
O O15 0.624973 0.500000 0.000000
O O16 0.882699 0.803547 0.672170
O O17 0.000000 0.869035 0.734936
O O18 0.877312 0.000000 0.740016
O O19 0.000000 0.783317 0.597324
#
# Coordination Sequence:
#
# PCOD8269498 Si02
#       7
#    16   8  16   8   8  16  16
#     4  10  19  34  57  87 122 156 192 239 297 356
#     4   9  16  30  56  88 114 144 187 241 297 343
#     4  10  23  41  60  84 115 154 199 248 302 356
#     4  12  27  41  60  90 124 159 194 245 303 357
#     4   9  16  26  48  84 116 149 194 234 280 345
#     4   9  17  32  55  86 122 155 192 244 297 347
#     4  10  20  37  64  90 116 154 204 250 292 349
#
# _framework density 20.465382999999999
#
# number of rings (size 3 to 8) (size 9 to 14) (size 15 to 20)
#    0.000    2.182    1.818    1.364    2.545    2.909 
#    1.636    1.818    0.000    2.182    0.000    0.000 
#    0.000    0.000    0.000    0.000    0.000    0.000 
#
# Total GULP energy -545406.929557 kJ/mol
# GULP energy per Si atom -12395.612035 kJ/mol
# Density = 2.041880 g / cm^3
# Si number density = 20.465383 Si / 1000 Ang^3
#
#
#
# Elastic Constant Matrix: (Units=GPa)
#
#
# Indices 1 2 3 4 5 6 
#
# 1 42.3511 38.1203 34.7287 0.0000 0.0000 0.0000
# 2 38.1203 135.0715 52.1785 0.0000 0.0000 0.0000
# 3 34.7287 52.1785 155.7719 0.0000 0.0000 0.0000
# 4 0.0000 0.0000 0.0000 31.5101 0.0000 0.0000
# 5 0.0000 0.0000 0.0000 0.0000 14.7177 0.0000
# 6 0.0000 0.0000 0.0000 0.0000 0.0000 25.5890
#
#
#
# Elastic Compliance Matrix: (Units=1/GPa)
#
#
# Indices 1 2 3 4 5 6 
#
# 1 0.034913 -0.007864 -0.005150 0.000000 0.000000 0.000000
# 2 -0.007864 0.010275 -0.001689 0.000000 0.000000 0.000000
# 3 -0.005150 -0.001689 0.008133 0.000000 0.000000 0.000000
# 4 0.000000 0.000000 0.000000 0.031736 0.000000 0.000000
# 5 0.000000 0.000000 0.000000 0.000000 0.067945 0.000000
# 6 0.000000 0.000000 0.000000 0.000000 0.000000 0.039079
#
#
# Mechanical properties :
#
#
# Convention : Reuss Voigt Hill
#
# Bulk Modulus (GPa) = 41.81053 64.80549 53.30801
# Shear Modulus (GPa) = 21.79037 28.24118 25.01577
#
# Velocity S-wave (km/s) = 3.26658 3.71880 3.50000
# Velocity P-wave (km/s) = 5.89081 7.08335 6.51443
#
# Compressibility (1/GPa) = 0.02391742
#
# Stress axis : x y z
#
# Youngs Moduli (GPa) = 28.64236 97.32153 122.95068
#
# Poissons Ratio (x) = 0.76534 0.63314
# Poissons Ratio (y) = 0.22525 0.20761
# Poissons Ratio (z) = 0.14750 0.16434
#
# Static dielectric constant tensor:
#      x y z
#    x 3.367510 0.000000 0.000000 
#    y 0.000000 3.891930 0.000000 
#    z 0.000000 0.000000 3.898320 
# 
# 
# High freq. dielectric constant tensor:
#      x y z
#    x 1.766870 0.000000 0.000000 
#    y 0.000000 1.800460 0.000000 
#    z 0.000000 0.000000 1.804330 
# 
# From -- ./inp_files/63671.got.cif
#   From: 2010.03.12/outbox.cif.g09.slc.cpg/sg65_32_cif.got.tgz:63671.got - 2010.04.10 20:52:16.
