data_PCOD8269409
_publ_section_title
;
Structure prediction by ZEFSAII (Michael W. Deem and Ramdas Pophale) SiO2 
 PCOD8269409
Probable space group: C M M M
;
_chemical_formula_sum "Si O2"
_cell_formula_units_Z 80
_cell_length_a 19.004125
_cell_length_b 8.717470
_cell_length_c 25.714838
_cell_angle_alpha 90.000000
_cell_angle_beta 90.000000
_cell_angle_gamma 90.000000
_cell_volume 4260.122942
_symmetry_space_group_name_H-M "C M M M"
_symmetry_group_IT_number 65
_symmetry_cell_setting 'orthorhombic'
loop_
_space_group_symop_operation_xyz
x,y,z
-x,-y,z
x,-y,-z
-x,y,-z
-x,-y,-z
x,y,-z
-x,y,z
x,-y,z
1/2+x,1/2+y,z
1/2-x,1/2-y,z
1/2+x,1/2-y,-z
1/2-x,1/2+y,-z
1/2-x,1/2-y,-z
1/2+x,1/2+y,-z
1/2-x,1/2+y,z
1/2+x,1/2-y,z
loop_
_atom_site_type_symbol
_atom_site_label
_atom_site_fract_x
_atom_site_fract_y
_atom_site_fract_z
Si Si1 0.083991 0.327101 0.500000
Si Si2 0.416960 0.824417 0.290012
Si Si3 0.825483 0.317554 0.905800
Si Si4 0.583667 0.672087 0.395626
Si Si5 0.578702 0.817881 0.000000
Si Si6 0.324760 0.319412 0.203603
O O1 0.112181 0.500000 0.500000
O O2 0.114075 0.243531 0.448779
O O3 0.000000 0.323551 0.500000
O O4 0.500000 0.802122 0.284898
O O5 0.390460 0.772719 0.346893
O O6 0.381774 0.716995 0.247255
O O7 0.394521 0.000000 0.281258
O O8 0.820130 0.500000 0.903438
O O9 0.750000 0.250000 0.921151
O O10 0.851013 0.254436 0.850308
O O11 0.881094 0.260153 0.948618
O O12 0.500000 0.671804 0.398114
O O13 0.612930 0.500000 0.389507
O O14 0.500000 0.748606 0.000000
O O15 0.575851 0.000000 0.000000
O O16 0.316791 0.500000 0.196275
O O17 0.250000 0.250000 0.220520
#
# Coordination Sequence:
#
# PCOD8269409 Si02
#       6
#     8  16  16  16   8  16
#     4   9  15  23  37  59  90 129 170 211 256 307
#     4  10  20  34  52  75 104 137 172 212 262 317
#     4  10  19  34  56  78 102 134 172 212 254 302
#     4   9  16  26  41  64  95 130 168 211 259 309
#     4   9  19  34  53  79 108 137 170 208 252 303
#     4  11  22  37  56  78 105 136 175 218 260 308
#
# _framework density 18.7788
#
# number of rings (size 3 to 8) (size 9 to 14) (size 15 to 20)
#    0.000    2.200    0.000    5.400    0.000    5.600 
#    0.000    3.500    0.000    4.200    0.000    0.700 
#    0.000    0.000    0.000    0.000    0.000    0.000 
#
# Total GULP energy -496056.038415 kJ/mol
# GULP energy per Si atom -12401.400960 kJ/mol
# Density = 1.873606 g / cm^3
# Si number density = 18.778800 Si / 1000 Ang^3
#
#
#
# Elastic Constant Matrix: (Units=GPa)
#
#
# Indices 1 2 3 4 5 6 
#
# 1 57.0562 27.9136 60.0030 0.0000 0.0000 0.0000
# 2 27.9136 113.4724 45.2390 0.0000 0.0000 0.0000
# 3 60.0030 45.2390 153.1462 0.0000 0.0000 0.0000
# 4 0.0000 0.0000 0.0000 31.3592 0.0000 0.0000
# 5 0.0000 0.0000 0.0000 0.0000 5.6526 0.0000
# 6 0.0000 0.0000 0.0000 0.0000 0.0000 22.1068
#
#
#
# Elastic Compliance Matrix: (Units=1/GPa)
#
#
# Indices 1 2 3 4 5 6 
#
# 1 0.030760 -0.003131 -0.011127 0.000000 0.000000 0.000000
# 2 -0.003131 0.010308 -0.001818 0.000000 0.000000 0.000000
# 3 -0.011127 -0.001818 0.011426 0.000000 0.000000 0.000000
# 4 0.000000 0.000000 0.000000 0.031889 0.000000 0.000000
# 5 0.000000 0.000000 0.000000 0.000000 0.176909 0.000000
# 6 0.000000 0.000000 0.000000 0.000000 0.000000 0.045235
#
#
# Mechanical properties :
#
#
# Convention : Reuss Voigt Hill
#
# Bulk Modulus (GPa) = 49.15903 65.55400 57.35652
# Shear Modulus (GPa) = 14.47350 24.52500 19.49925
#
# Velocity S-wave (km/s) = 2.77923 3.61777 3.22586
# Velocity P-wave (km/s) = 6.04430 7.24123 6.66967
#
# Compressibility (1/GPa) = 0.02034214
#
# Stress axis : x y z
#
# Youngs Moduli (GPa) = 32.50985 97.01433 87.51651
#
# Poissons Ratio (x) = 0.30372 0.97380
# Poissons Ratio (y) = 0.10178 0.15913
# Poissons Ratio (z) = 0.36174 0.17640
#
# Static dielectric constant tensor:
#      x y z
#    x 3.094790 0.000000 0.000000 
#    y 0.000000 3.524200 0.000000 
#    z 0.000000 0.000000 3.654280 
# 
# 
# High freq. dielectric constant tensor:
#      x y z
#    x 1.684110 0.000000 0.000000 
#    y 0.000000 1.738610 0.000000 
#    z 0.000000 0.000000 1.746380 
# 
# From -- ./inp_files/70797.got.cif
#   From: 2010.03.12/outbox.cif.g09.slc.cpg/sg65_36_cif.got.tgz:70797.got - 2010.04.10 20:52:16.
