data_PCOD8269467
_publ_section_title
;
Structure prediction by ZEFSAII (Michael W. Deem and Ramdas Pophale) SiO2 
 PCOD8269467
Probable space group: C M M M
;
_chemical_formula_sum "Si O2"
_cell_formula_units_Z 96
_cell_length_a 21.365221
_cell_length_b 15.518594
_cell_length_c 15.217523
_cell_angle_alpha 90.000000
_cell_angle_beta 90.000000
_cell_angle_gamma 90.000000
_cell_volume 5045.494389
_symmetry_space_group_name_H-M "C M M M"
_symmetry_group_IT_number 65
_symmetry_cell_setting 'orthorhombic'
loop_
_space_group_symop_operation_xyz
x,y,z
-x,-y,z
x,-y,-z
-x,y,-z
-x,-y,-z
x,y,-z
-x,y,z
x,-y,z
1/2+x,1/2+y,z
1/2-x,1/2-y,z
1/2+x,1/2-y,-z
1/2-x,1/2+y,-z
1/2-x,1/2-y,-z
1/2+x,1/2+y,-z
1/2-x,1/2+y,z
1/2+x,1/2-y,z
loop_
_atom_site_type_symbol
_atom_site_label
_atom_site_fract_x
_atom_site_fract_y
_atom_site_fract_z
Si Si1 0.148353 0.096812 0.399008
Si Si2 0.071032 0.676551 0.098294
Si Si3 0.573100 0.235775 0.400464
Si Si4 0.239239 0.097426 0.753027
Si Si5 0.877186 0.400283 0.262768
Si Si6 0.314357 0.697760 0.903155
O O1 0.168159 0.105948 0.500000
O O2 0.099901 0.171113 0.371362
O O3 0.211278 0.110891 0.343574
O O4 0.120670 0.000000 0.380884
O O5 0.082991 0.604422 0.172473
O O6 0.121775 0.750754 0.114458
O O7 0.000000 0.712602 0.108320
O O8 0.080168 0.637165 0.000000
O O9 0.593784 0.213285 0.500000
O O10 0.500000 0.247071 0.392671
O O11 0.593407 0.157382 0.339018
O O12 0.308051 0.140400 0.754804
O O13 0.190141 0.128851 0.825896
O O14 0.251835 0.000000 0.777261
O O15 0.876059 0.500000 0.294025
O O16 0.250000 0.750000 0.898611
O O17 0.318875 0.654631 0.000000
#
# Coordination Sequence:
#
# PCOD8269467 Si02
#       6
#    16  16  16  16  16  16
#     4   9  19  36  58  84 111 138 174 227 287 339
#     4  10  21  36  55  81 110 142 185 234 280 330
#     4  10  22  38  56  80 108 143 187 228 273 335
#     4  10  21  35  54  81 111 143 182 229 278 333
#     4  11  23  37  54  78 111 151 190 230 276 324
#     4  10  19  34  57  81 107 144 186 229 279 332
#
# _framework density 19.026876999999999
#
# number of rings (size 3 to 8) (size 9 to 14) (size 15 to 20)
#    0.000    2.000    1.667    1.500    0.000    3.333 
#    0.000    8.333    0.000    1.500    0.000    2.333 
#    0.000    0.000    0.000    0.000    0.000    0.167 
#
# Total GULP energy -594871.790938 kJ/mol
# GULP energy per Si atom -12393.162311 kJ/mol
# Density = 1.898357 g / cm^3
# Si number density = 19.026877 Si / 1000 Ang^3
#
#
#
# Elastic Constant Matrix: (Units=GPa)
#
#
# Indices 1 2 3 4 5 6 
#
# 1 114.0039 45.8031 42.4790 0.0000 0.0000 0.0000
# 2 45.8031 73.6931 53.7911 0.0000 0.0000 0.0000
# 3 42.4790 53.7911 106.4247 0.0000 0.0000 0.0000
# 4 0.0000 0.0000 0.0000 19.1218 0.0000 0.0000
# 5 0.0000 0.0000 0.0000 0.0000 30.3983 0.0000
# 6 0.0000 0.0000 0.0000 0.0000 0.0000 25.1435
#
#
#
# Elastic Compliance Matrix: (Units=1/GPa)
#
#
# Indices 1 2 3 4 5 6 
#
# 1 0.011860 -0.006205 -0.001597 0.000000 0.000000 0.000000
# 2 -0.006205 0.024750 -0.010033 0.000000 0.000000 0.000000
# 3 -0.001597 -0.010033 0.015105 0.000000 0.000000 0.000000
# 4 0.000000 0.000000 0.000000 0.052296 0.000000 0.000000
# 5 0.000000 0.000000 0.000000 0.000000 0.032897 0.000000
# 6 0.000000 0.000000 0.000000 0.000000 0.000000 0.039772
#
#
# Mechanical properties :
#
#
# Convention : Reuss Voigt Hill
#
# Bulk Modulus (GPa) = 62.32987 64.25201 63.29094
# Shear Modulus (GPa) = 22.96758 25.06929 24.01844
#
# Velocity S-wave (km/s) = 3.47812 3.63378 3.55680
# Velocity P-wave (km/s) = 6.99712 7.17274 7.08547
#
# Compressibility (1/GPa) = 0.01604367
#
# Stress axis : x y z
#
# Youngs Moduli (GPa) = 84.31710 40.40421 66.20415
#
# Poissons Ratio (x) = 0.25073 0.10575
# Poissons Ratio (y) = 0.52323 0.66420
# Poissons Ratio (z) = 0.13469 0.40536
#
# Static dielectric constant tensor:
#      x y z
#    x 3.628270 0.000000 0.000000 
#    y 0.000000 3.346770 0.000000 
#    z 0.000000 0.000000 3.793190 
# 
# 
# High freq. dielectric constant tensor:
#      x y z
#    x 1.742710 0.000000 0.000000 
#    y 0.000000 1.718930 0.000000 
#    z 0.000000 0.000000 1.755710 
# 
# From -- ./inp_files/40329.got.cif
#   From: 2010.03.12/outbox.cif.g09.slc.cpg/sg65_21_cif.got.tgz:40329.got - 2010.04.10 20:52:16.
