data_PCOD8269978
_publ_section_title
;
Structure prediction by ZEFSAII (Michael W. Deem and Ramdas Pophale) SiO2 
 PCOD8269978
Probable space group: C M M M
;
_chemical_formula_sum "Si O2"
_cell_formula_units_Z 104
_cell_length_a 8.648096
_cell_length_b 27.102742
_cell_length_c 23.865296
_cell_angle_alpha 90.000000
_cell_angle_beta 90.000000
_cell_angle_gamma 90.000000
_cell_volume 5593.717870
_symmetry_space_group_name_H-M "C M M M"
_symmetry_group_IT_number 65
_symmetry_cell_setting 'orthorhombic'
loop_
_space_group_symop_operation_xyz
x,y,z
-x,-y,z
x,-y,-z
-x,y,-z
-x,-y,-z
x,y,-z
-x,y,z
x,-y,z
1/2+x,1/2+y,z
1/2-x,1/2-y,z
1/2+x,1/2-y,-z
1/2-x,1/2+y,-z
1/2-x,1/2-y,-z
1/2+x,1/2+y,-z
1/2-x,1/2+y,z
1/2+x,1/2-y,z
loop_
_atom_site_type_symbol
_atom_site_label
_atom_site_fract_x
_atom_site_fract_y
_atom_site_fract_z
Si Si1 0.318458 0.101172 0.062214
Si Si2 0.820166 0.056531 0.563973
Si Si3 0.181707 0.395814 0.666837
Si Si4 0.678414 0.443873 0.232646
Si Si5 0.829330 0.000000 0.066366
Si Si6 0.820737 0.354536 0.173436
Si Si7 0.818057 0.197386 0.273220
O O1 0.500000 0.094043 0.058451
O O2 0.277336 0.144605 0.106857
O O3 0.253174 0.049789 0.086403
O O4 0.252036 0.114399 0.000000
O O5 0.785701 0.071306 0.500000
O O6 0.720655 0.093543 0.602200
O O7 0.000000 0.063314 0.577870
O O8 0.769975 0.000000 0.574554
O O9 0.268853 0.437828 0.702930
O O10 0.241500 0.342093 0.685325
O O11 0.000000 0.398340 0.677338
O O12 0.500000 0.427203 0.227018
O O13 0.700689 0.500000 0.212910
O O14 0.787835 0.409474 0.195590
O O15 0.000000 0.000000 0.093071
O O16 0.834545 0.000000 0.000000
O O17 0.720747 0.314905 0.207954
O O18 0.000000 0.341599 0.182429
O O19 0.750000 0.250000 0.289683
O O20 0.000000 0.197408 0.281833
#
# Coordination Sequence:
#
# PCOD8269978 Si02
#       7
#    16  16  16  16   8  16  16
#     4   9  18  32  48  67  96 134 171 207 251 304
#     4   9  18  33  53  78 112 155 195 225 256 297
#     4  11  21  33  52  79 108 138 176 218 261 310
#     4  10  20  32  46  67  99 138 174 212 258 307
#     4   9  17  27  41  63  91 127 171 211 242 283
#     4  10  20  33  51  75 100 129 168 210 256 310
#     4  11  22  39  61  81 103 129 164 212 266 321
#
# _framework density 18.592286999999999
#
# number of rings (size 3 to 8) (size 9 to 14) (size 15 to 20)
#    0.000    2.077    0.000    6.692    1.077    5.846 
#    0.000    0.769    0.000    0.923    0.000    0.000 
#    0.000    0.000    0.000    0.000    0.000    0.000 
#
# Total GULP energy -644655.237784 kJ/mol
# GULP energy per Si atom -12397.216111 kJ/mol
# Density = 1.854997 g / cm^3
# Si number density = 18.592287 Si / 1000 Ang^3
#
#
#
# Elastic Constant Matrix: (Units=GPa)
#
#
# Indices 1 2 3 4 5 6 
#
# 1 60.5918 19.0368 15.4791 0.0000 0.0000 0.0000
# 2 19.0368 69.6754 22.3418 0.0000 0.0000 0.0000
# 3 15.4791 22.3418 83.6345 0.0000 0.0000 0.0000
# 4 0.0000 0.0000 0.0000 17.6171 0.0000 0.0000
# 5 0.0000 0.0000 0.0000 0.0000 25.6619 0.0000
# 6 0.0000 0.0000 0.0000 0.0000 0.0000 26.5628
#
#
#
# Elastic Compliance Matrix: (Units=1/GPa)
#
#
# Indices 1 2 3 4 5 6 
#
# 1 0.018436 -0.004312 -0.002260 0.000000 0.000000 0.000000
# 2 -0.004312 0.016706 -0.003665 0.000000 0.000000 0.000000
# 3 -0.002260 -0.003665 0.013354 0.000000 0.000000 0.000000
# 4 0.000000 0.000000 0.000000 0.056763 0.000000 0.000000
# 5 0.000000 0.000000 0.000000 0.000000 0.038968 0.000000
# 6 0.000000 0.000000 0.000000 0.000000 0.000000 0.037647
#
#
# Mechanical properties :
#
#
# Convention : Reuss Voigt Hill
#
# Bulk Modulus (GPa) = 35.68683 36.40191 36.04437
# Shear Modulus (GPa) = 23.61961 24.43795 24.02878
#
# Velocity S-wave (km/s) = 3.56813 3.62942 3.59890
# Velocity P-wave (km/s) = 6.01760 6.09796 6.05791
#
# Compressibility (1/GPa) = 0.02802154
#
# Stress axis : x y z
#
# Youngs Moduli (GPa) = 54.24124 59.86032 74.88379
#
# Poissons Ratio (x) = 0.25814 0.16925
# Poissons Ratio (y) = 0.23391 0.27441
# Poissons Ratio (z) = 0.12259 0.21936
#
# Static dielectric constant tensor:
#      x y z
#    x 3.436480 0.000000 0.000000 
#    y 0.000000 5.972220 0.000000 
#    z 0.000000 0.000000 3.613100 
# 
# 
# High freq. dielectric constant tensor:
#      x y z
#    x 1.728160 0.000000 0.000000 
#    y 0.000000 1.687710 0.000000 
#    z 0.000000 0.000000 1.723270 
# 
# From -- ./inp_files/68284.got.cif
#   From: 2010.03.12/outbox.cif.g09.slc.cpg/sg65_35_cif.got.tgz:68284.got - 2010.04.10 20:52:16.
