data_PCOD8269265
_publ_section_title
;
Structure prediction by ZEFSAII (Michael W. Deem and Ramdas Pophale) SiO2 
 PCOD8269265
Probable space group: C M M M
;
_chemical_formula_sum "Si O2"
_cell_formula_units_Z 112
_cell_length_a 12.656452
_cell_length_b 28.883770
_cell_length_c 13.850263
_cell_angle_alpha 90.000000
_cell_angle_beta 90.000000
_cell_angle_gamma 90.000000
_cell_volume 5063.185917
_symmetry_space_group_name_H-M "C M M M"
_symmetry_group_IT_number 65
_symmetry_cell_setting 'orthorhombic'
loop_
_space_group_symop_operation_xyz
x,y,z
-x,-y,z
x,-y,-z
-x,y,-z
-x,-y,-z
x,y,-z
-x,y,z
x,-y,z
1/2+x,1/2+y,z
1/2-x,1/2-y,z
1/2+x,1/2-y,-z
1/2-x,1/2+y,-z
1/2-x,1/2-y,-z
1/2+x,1/2+y,-z
1/2-x,1/2+y,z
1/2+x,1/2-y,z
loop_
_atom_site_type_symbol
_atom_site_label
_atom_site_fract_x
_atom_site_fract_y
_atom_site_fract_z
Si Si1 0.120338 0.271979 0.614510
Si Si2 0.880231 0.385402 0.889982
Si Si3 0.378387 0.582677 0.612781
Si Si4 0.800322 0.551916 0.266705
Si Si5 0.771487 0.803693 0.890851
Si Si6 0.375325 0.321490 0.301700
Si Si7 0.621264 0.130043 0.604699
O O1 0.130705 0.272525 0.500000
O O2 0.178227 0.225550 0.654638
O O3 0.167110 0.321836 0.654028
O O4 0.000000 0.266370 0.649387
O O5 0.804336 0.422710 0.836874
O O6 0.836359 0.333130 0.879711
O O7 0.000000 0.385713 0.847971
O O8 0.880584 0.401556 0.000000
O O9 0.361193 0.571419 0.500000
O O10 0.500000 0.578107 0.640924
O O11 0.315302 0.547997 0.683351
O O12 0.329849 0.633396 0.640648
O O13 0.846181 0.500000 0.257049
O O14 0.873037 0.583664 0.334067
O O15 0.750000 0.750000 0.869039
O O16 0.854861 0.823634 0.813311
O O17 0.817101 0.809613 0.000000
O O18 0.500000 0.322925 0.321416
O O19 0.674373 0.120389 0.500000
O O20 0.500000 0.142808 0.587791
#
# Coordination Sequence:
#
# PCOD8269265 Si02
#       7
#    16  16  16  16  16  16  16
#     4   8  15  29  51  82 120 161 200 238 285 349
#     4  10  23  45  70  94 125 164 207 260 317 371
#     4  10  22  41  64  93 129 166 208 257 309 372
#     4  12  25  41  63  90 119 154 206 267 322 375
#     4  10  22  39  59  90 130 167 206 248 300 373
#     4  10  19  33  59  92 124 160 202 252 304 359
#     4   9  19  35  54  82 123 164 201 245 303 372
#
# _framework density 22.120460999999999
#
# number of rings (size 3 to 8) (size 9 to 14) (size 15 to 20)
#    0.000    2.143    1.429    2.143    2.000    5.429 
#    0.000    3.571    0.000    3.857    0.000    1.000 
#    0.000    0.000    0.000    0.000    0.000    0.000 
#
# Total GULP energy -694028.662873 kJ/mol
# GULP energy per Si atom -12393.368980 kJ/mol
# Density = 2.207011 g / cm^3
# Si number density = 22.120461 Si / 1000 Ang^3
#
#
#
# Elastic Constant Matrix: (Units=GPa)
#
#
# Indices 1 2 3 4 5 6 
#
# 1 36.1503 30.1731 6.4628 0.0000 0.0000 0.0000
# 2 30.1731 162.1753 46.4490 0.0000 0.0000 0.0000
# 3 6.4628 46.4490 109.0841 0.0000 0.0000 0.0000
# 4 0.0000 0.0000 0.0000 11.8685 0.0000 0.0000
# 5 0.0000 0.0000 0.0000 0.0000 26.7772 0.0000
# 6 0.0000 0.0000 0.0000 0.0000 0.0000 23.9364
#
#
#
# Elastic Compliance Matrix: (Units=1/GPa)
#
#
# Indices 1 2 3 4 5 6 
#
# 1 0.032801 -0.006316 0.000746 0.000000 0.000000 0.000000
# 2 -0.006316 0.008239 -0.003134 0.000000 0.000000 0.000000
# 3 0.000746 -0.003134 0.010458 0.000000 0.000000 0.000000
# 4 0.000000 0.000000 0.000000 0.084257 0.000000 0.000000
# 5 0.000000 0.000000 0.000000 0.000000 0.037345 0.000000
# 6 0.000000 0.000000 0.000000 0.000000 0.000000 0.041777
#
#
# Mechanical properties :
#
#
# Convention : Reuss Voigt Hill
#
# Bulk Modulus (GPa) = 29.33490 52.61997 40.97743
# Shear Modulus (GPa) = 20.52137 27.47139 23.99638
#
# Velocity S-wave (km/s) = 3.04914 3.52788 3.29721
# Velocity P-wave (km/s) = 5.06819 6.35879 5.74981
#
# Compressibility (1/GPa) = 0.03408909
#
# Stress axis : x y z
#
# Youngs Moduli (GPa) = 30.48689 121.37434 95.62504
#
# Poissons Ratio (x) = 0.76665 -0.07136
# Poissons Ratio (y) = 0.19257 0.29969
# Poissons Ratio (z) = -0.02275 0.38039
#
# Static dielectric constant tensor:
#      x y z
#    x 4.024050 0.000000 0.000000 
#    y 0.000000 3.947060 0.000000 
#    z 0.000000 0.000000 4.018240 
# 
# 
# High freq. dielectric constant tensor:
#      x y z
#    x 1.881680 0.000000 0.000000 
#    y 0.000000 1.867290 0.000000 
#    z 0.000000 0.000000 1.864010 
# 
# From -- ./inp_files/40789.got.cif
#   From: 2010.03.12/outbox.cif.g09.slc.cpg/sg65_21_cif.got.tgz:40789.got - 2010.04.10 20:52:16.
