data_PCOD8269574
_publ_section_title
;
Structure prediction by ZEFSAII (Michael W. Deem and Ramdas Pophale) SiO2 
 PCOD8269574
Probable space group: C M M M
;
_chemical_formula_sum "Si O2"
_cell_formula_units_Z 88
_cell_length_a 23.097065
_cell_length_b 17.487972
_cell_length_c 11.890694
_cell_angle_alpha 90.000000
_cell_angle_beta 90.000000
_cell_angle_gamma 90.000000
_cell_volume 4802.898942
_symmetry_space_group_name_H-M "C M M M"
_symmetry_group_IT_number 65
_symmetry_cell_setting 'orthorhombic'
loop_
_space_group_symop_operation_xyz
x,y,z
-x,-y,z
x,-y,-z
-x,y,-z
-x,-y,-z
x,y,-z
-x,y,z
x,-y,z
1/2+x,1/2+y,z
1/2-x,1/2-y,z
1/2+x,1/2-y,-z
1/2-x,1/2+y,-z
1/2-x,1/2-y,-z
1/2+x,1/2+y,-z
1/2-x,1/2+y,z
1/2+x,1/2-y,z
loop_
_atom_site_type_symbol
_atom_site_label
_atom_site_fract_x
_atom_site_fract_y
_atom_site_fract_z
Si Si1 0.255626 0.839776 0.757992
Si Si2 0.122479 0.862418 0.242187
Si Si3 0.432345 0.224151 0.368752
Si Si4 0.643433 0.915737 0.368532
Si Si5 0.754955 0.659844 0.000000
Si Si6 0.934293 0.000000 0.632604
Si Si7 0.370879 0.408901 0.000000
O O1 0.250000 0.750000 0.734650
O O2 0.191359 0.874031 0.751943
O O3 0.295529 0.879554 0.666951
O O4 0.285287 0.859472 0.880698
O O5 0.102935 0.780174 0.287379
O O6 0.100090 0.874326 0.113482
O O7 0.095550 0.924507 0.323172
O O8 0.420018 0.243353 0.500000
O O9 0.500000 0.229638 0.341791
O O10 0.410263 0.139183 0.337396
O O11 0.647718 0.925263 0.500000
O O12 0.633804 0.000000 0.313834
O O13 0.750000 0.750000 0.000000
O O14 0.695025 0.615773 0.000000
O O15 0.929699 0.000000 0.500000
O O16 0.000000 0.000000 0.674268
O O17 0.377378 0.500000 0.000000
#
# Coordination Sequence:
#
# PCOD8269574 Si02
#       7
#    16  16  16  16   8   8   8
#     4  10  19  35  56  84 114 144 181 226 276 333
#     4  11  21  37  59  82 112 150 189 231 279 332
#     4  10  21  39  61  81 106 147 195 237 280 334
#     4  10  22  37  55  85 119 146 181 232 287 343
#     4   8  18  32  56  81 107 145 184 223 269 326
#     4  11  24  39  55  79 113 152 194 234 269 320
#     4  10  20  36  56  81 114 149 187 230 281 341
#
# _framework density 18.322267
#
# number of rings (size 3 to 8) (size 9 to 14) (size 15 to 20)
#    0.000    1.909    2.727    1.091    1.273    4.364 
#    0.000    4.091    0.000    0.000    0.000    0.000 
#    0.000    2.909    0.000    0.000    0.000    0.000 
#
# Total GULP energy -545293.412928 kJ/mol
# GULP energy per Si atom -12393.032112 kJ/mol
# Density = 1.828056 g / cm^3
# Si number density = 18.322267 Si / 1000 Ang^3
#
#
#
# Elastic Constant Matrix: (Units=GPa)
#
#
# Indices 1 2 3 4 5 6 
#
# 1 59.3079 17.0329 24.0757 0.0000 0.0000 0.0000
# 2 17.0329 109.9321 43.1071 0.0000 0.0000 0.0000
# 3 24.0757 43.1071 48.5960 0.0000 0.0000 0.0000
# 4 0.0000 0.0000 0.0000 22.4034 0.0000 0.0000
# 5 0.0000 0.0000 0.0000 0.0000 10.2945 0.0000
# 6 0.0000 0.0000 0.0000 0.0000 0.0000 19.9329
#
#
#
# Elastic Compliance Matrix: (Units=1/GPa)
#
#
# Indices 1 2 3 4 5 6 
#
# 1 0.021223 0.001280 -0.011650 0.000000 0.000000 0.000000
# 2 0.001280 0.014025 -0.013075 0.000000 0.000000 0.000000
# 3 -0.011650 -0.013075 0.037948 0.000000 0.000000 0.000000
# 4 0.000000 0.000000 0.000000 0.044636 0.000000 0.000000
# 5 0.000000 0.000000 0.000000 0.000000 0.097139 0.000000
# 6 0.000000 0.000000 0.000000 0.000000 0.000000 0.050168
#
#
# Mechanical properties :
#
#
# Convention : Reuss Voigt Hill
#
# Bulk Modulus (GPa) = 38.01441 42.91860 40.46651
# Shear Modulus (GPa) = 15.58613 19.43417 17.51015
#
# Velocity S-wave (km/s) = 2.91978 3.26035 3.09475
# Velocity P-wave (km/s) = 5.67094 6.13582 5.90795
#
# Compressibility (1/GPa) = 0.02630581
#
# Stress axis : x y z
#
# Youngs Moduli (GPa) = 47.11941 71.29954 26.35208
#
# Poissons Ratio (x) = -0.09125 0.30699
# Poissons Ratio (y) = -0.06030 0.34456
# Poissons Ratio (z) = 0.54892 0.93226
#
# Static dielectric constant tensor:
#      x y z
#    x 3.275030 0.000000 0.000000 
#    y 0.000000 3.940780 0.000000 
#    z 0.000000 0.000000 3.772110 
# 
# 
# High freq. dielectric constant tensor:
#      x y z
#    x 1.689660 0.000000 0.000000 
#    y 0.000000 1.720110 0.000000 
#    z 0.000000 0.000000 1.716720 
# 
# From -- ./inp_files/28779.got.cif
#   From: 2010.03.12/outbox.cif.g09.slc.cpg/sg65_15_cif.got.tgz:28779.got - 2010.04.10 20:52:16.
