data_PCOD8269982
_publ_section_title
;
Structure prediction by ZEFSAII (Michael W. Deem and Ramdas Pophale) SiO2 
 PCOD8269982
Probable space group: C M M M
;
_chemical_formula_sum "Si O2"
_cell_formula_units_Z 88
_cell_length_a 15.586920
_cell_length_b 23.621431
_cell_length_c 14.257836
_cell_angle_alpha 90.000000
_cell_angle_beta 90.000000
_cell_angle_gamma 90.000000
_cell_volume 5249.526413
_symmetry_space_group_name_H-M "C M M M"
_symmetry_group_IT_number 65
_symmetry_cell_setting 'orthorhombic'
loop_
_space_group_symop_operation_xyz
x,y,z
-x,-y,z
x,-y,-z
-x,y,-z
-x,-y,-z
x,y,-z
-x,y,z
x,-y,z
1/2+x,1/2+y,z
1/2-x,1/2-y,z
1/2+x,1/2-y,-z
1/2-x,1/2+y,-z
1/2-x,1/2-y,-z
1/2+x,1/2+y,-z
1/2-x,1/2+y,z
1/2+x,1/2-y,z
loop_
_atom_site_type_symbol
_atom_site_label
_atom_site_fract_x
_atom_site_fract_y
_atom_site_fract_z
Si Si1 0.000000 0.438764 0.889658
Si Si2 0.244156 0.933894 0.705759
Si Si3 0.096292 0.622537 0.388496
Si Si4 0.096171 0.135600 0.608989
Si Si5 0.154666 0.256247 0.610879
Si Si6 0.683026 0.932685 0.896609
O O1 0.910436 0.406417 0.865467
O O2 0.000000 0.500000 0.838305
O O3 0.000000 0.448460 0.000000
O O4 0.333223 0.918915 0.655041
O O5 0.162933 0.901439 0.665919
O O6 0.248878 0.916912 0.816185
O O7 0.227586 0.000000 0.691639
O O8 0.105971 0.619808 0.500000
O O9 0.111206 0.686549 0.350772
O O10 0.000000 0.603624 0.358085
O O11 0.120735 0.130098 0.500000
O O12 0.100471 0.201168 0.640754
O O13 0.000000 0.113342 0.628267
O O14 0.159596 0.260909 0.500000
O O15 0.250000 0.250000 0.653368
O O16 0.670933 0.000000 0.901686
O O17 0.712373 0.910164 0.000000
#
# Coordination Sequence:
#
# PCOD8269982 Si02
#       6
#     8  16  16  16  16  16
#     4   7  10  20  40  62  81 107 147 191 232 268
#     4  11  22  32  46  69  99 132 163 193 232 291
#     4  10  20  32  46  68  99 131 160 191 231 282
#     4  10  20  34  52  72  94 125 166 208 243 272
#     4   9  15  29  52  71  90 118 157 206 247 272
#     4   8  15  28  45  64  88 120 159 203 240 272
#
# _framework density 16.763417
#
# number of rings (size 3 to 8) (size 9 to 14) (size 15 to 20)
#    0.000    2.636    1.818    2.182    1.273    4.364 
#    0.000    1.818    0.000    0.545    0.000    5.091 
#    0.000    2.909    0.000    0.000    0.000    0.000 
#
# Total GULP energy -545140.990670 kJ/mol
# GULP energy per Si atom -12389.567970 kJ/mol
# Density = 1.672526 g / cm^3
# Si number density = 16.763417 Si / 1000 Ang^3
#
#
#
# Elastic Constant Matrix: (Units=GPa)
#
#
# Indices 1 2 3 4 5 6 
#
# 1 96.5911 20.7324 42.0908 0.0000 0.0000 0.0000
# 2 20.7324 46.7932 21.1780 0.0000 0.0000 0.0000
# 3 42.0908 21.1780 59.8185 0.0000 0.0000 0.0000
# 4 0.0000 0.0000 0.0000 -1.4227 0.0000 0.0000
# 5 0.0000 0.0000 0.0000 0.0000 20.8905 0.0000
# 6 0.0000 0.0000 0.0000 0.0000 0.0000 18.7613
#
#
#
# Elastic Compliance Matrix: (Units=1/GPa)
#
#
# Indices 1 2 3 4 5 6 
#
# 1 0.015127 -0.002244 -0.009849 0.000000 0.000000 0.000000
# 2 -0.002244 0.025781 -0.007548 0.000000 0.000000 0.000000
# 3 -0.009849 -0.007548 0.026320 0.000000 0.000000 0.000000
# 4 0.000000 0.000000 0.000000 -0.702904 0.000000 0.000000
# 5 0.000000 0.000000 0.000000 0.000000 0.047869 0.000000
# 6 0.000000 0.000000 0.000000 0.000000 0.000000 0.053301
#
#
# Mechanical properties :
#
#
# Convention : Reuss Voigt Hill
#
# Bulk Modulus (GPa) = 35.78569 41.24501 38.51535
# Shear Modulus (GPa) = -10.29001 15.59259 2.65129
#
# Velocity S-wave (km/s) = -2.48026 3.05315 1.25898
# Velocity P-wave (km/s) = 3.63202 6.08988 5.01389
#
# Compressibility (1/GPa) = 0.02794413
#
# Stress axis : x y z
#
# Youngs Moduli (GPa) = 66.10900 38.78778 37.99418
#
# Poissons Ratio (x) = 0.08706 0.37421
# Poissons Ratio (y) = 0.14838 0.28679
# Poissons Ratio (z) = 0.65111 0.29278
#
# Static dielectric constant tensor:
#      x y z
#    x 3.278050 0.000000 0.000000 
#    y 0.000000 2.983900 0.000000 
#    z 0.000000 0.000000 3.043830 
# 
# 
# High freq. dielectric constant tensor:
#      x y z
#    x 1.649390 0.000000 0.000000 
#    y 0.000000 1.618800 0.000000 
#    z 0.000000 0.000000 1.614330 
# 
# From -- ./inp_files/40607.got.cif
#   From: 2010.03.12/outbox.cif.g09.slc.cpg/sg65_21_cif.got.tgz:40607.got - 2010.04.10 20:52:16.
