data_PCOD8269938
_publ_section_title
;
Structure prediction by ZEFSAII (Michael W. Deem and Ramdas Pophale) SiO2 
 PCOD8269938
Probable space group: C M M M
;
_chemical_formula_sum "Si O2"
_cell_formula_units_Z 88
_cell_length_a 32.159281
_cell_length_b 9.450538
_cell_length_c 19.041221
_cell_angle_alpha 90.000000
_cell_angle_beta 90.000000
_cell_angle_gamma 90.000000
_cell_volume 5787.055625
_symmetry_space_group_name_H-M "C M M M"
_symmetry_group_IT_number 65
_symmetry_cell_setting 'orthorhombic'
loop_
_space_group_symop_operation_xyz
x,y,z
-x,-y,z
x,-y,-z
-x,y,-z
-x,-y,-z
x,y,-z
-x,y,z
x,-y,z
1/2+x,1/2+y,z
1/2-x,1/2-y,z
1/2+x,1/2-y,-z
1/2-x,1/2+y,-z
1/2-x,1/2-y,-z
1/2+x,1/2+y,-z
1/2-x,1/2+y,z
1/2+x,1/2-y,z
loop_
_atom_site_type_symbol
_atom_site_label
_atom_site_fract_x
_atom_site_fract_y
_atom_site_fract_z
Si Si1 0.500000 0.837515 0.416987
Si Si2 0.049332 0.841901 0.922220
Si Si3 0.931179 0.160479 0.340683
Si Si4 0.049396 0.663507 0.791521
Si Si5 0.186558 0.500000 0.582840
Si Si6 0.848100 0.790286 0.417382
Si Si7 0.221745 0.000000 0.582300
O O1 0.500000 0.841162 0.500000
O O2 0.459561 0.753819 0.391905
O O3 0.500000 0.000000 0.387582
O O4 0.064738 0.725758 0.866214
O O5 0.000000 0.842859 0.923021
O O6 0.065229 0.000000 0.902208
O O7 0.065886 0.799938 0.000000
O O8 0.928266 0.241077 0.266809
O O9 0.885887 0.145392 0.374221
O O10 0.948709 0.000000 0.330813
O O11 0.063331 0.500000 0.786544
O O12 0.000000 0.678150 0.780958
O O13 0.193224 0.500000 0.500000
O O14 0.158204 0.629931 0.606105
O O15 0.232595 0.500000 0.618543
O O16 0.857284 0.810929 0.500000
O O17 0.804840 0.863613 0.395630
O O18 0.229134 0.000000 0.500000
#
# Coordination Sequence:
#
# PCOD8269938 Si02
#       7
#     8  16  16  16   8  16   8
#     4  11  25  39  51  63  80 111 154 205 247 279
#     4   8  14  26  45  67  89 112 143 183 223 267
#     4  12  23  35  49  64  87 120 157 195 235 273
#     4  10  20  32  46  63  87 118 154 194 231 267
#     4   9  18  30  50  71  89 113 136 174 235 289
#     4  10  20  32  48  69  90 113 147 191 232 281
#     4   9  16  32  50  69  91 109 138 180 229 287
#
# _framework density 15.206352000000001
#
# number of rings (size 3 to 8) (size 9 to 14) (size 15 to 20)
#    0.000    2.091    1.818    3.000    2.545    4.727 
#    0.000    1.818    0.000    0.000    0.000    0.000 
#    0.000    0.000    0.000    0.000    0.000    5.455 
#
# Total GULP energy -545369.851815 kJ/mol
# GULP energy per Si atom -12394.769359 kJ/mol
# Density = 1.517174 g / cm^3
# Si number density = 15.206352 Si / 1000 Ang^3
#
#
#
# Elastic Constant Matrix: (Units=GPa)
#
#
# Indices 1 2 3 4 5 6 
#
# 1 44.0936 18.0329 18.2630 0.0000 0.0000 0.0000
# 2 18.0329 132.5701 44.8127 0.0000 0.0000 0.0000
# 3 18.2630 44.8127 77.5385 0.0000 0.0000 0.0000
# 4 0.0000 0.0000 0.0000 24.5351 0.0000 0.0000
# 5 0.0000 0.0000 0.0000 0.0000 3.3727 0.0000
# 6 0.0000 0.0000 0.0000 0.0000 0.0000 24.8400
#
#
#
# Elastic Compliance Matrix: (Units=1/GPa)
#
#
# Indices 1 2 3 4 5 6 
#
# 1 0.025466 -0.001785 -0.004966 0.000000 0.000000 0.000000
# 2 -0.001785 0.009500 -0.005070 0.000000 0.000000 0.000000
# 3 -0.004966 -0.005070 0.016997 0.000000 0.000000 0.000000
# 4 0.000000 0.000000 0.000000 0.040758 0.000000 0.000000
# 5 0.000000 0.000000 0.000000 0.000000 0.296494 0.000000
# 6 0.000000 0.000000 0.000000 0.000000 0.000000 0.040258
#
#
# Mechanical properties :
#
#
# Convention : Reuss Voigt Hill
#
# Bulk Modulus (GPa) = 35.31118 46.26882 40.79000
# Shear Modulus (GPa) = 10.80952 22.08914 16.44933
#
# Velocity S-wave (km/s) = 2.66908 3.81547 3.29255
# Velocity P-wave (km/s) = 5.72454 7.06426 6.42939
#
# Compressibility (1/GPa) = 0.02831964
#
# Stress axis : x y z
#
# Youngs Moduli (GPa) = 39.26784 105.26571 58.83523
#
# Poissons Ratio (x) = 0.18793 0.29220
# Poissons Ratio (y) = 0.07010 0.29828
# Poissons Ratio (z) = 0.19502 0.53368
#
# Static dielectric constant tensor:
#      x y z
#    x 2.656180 0.000000 0.000000 
#    y 0.000000 -0.453240 0.000000 
#    z 0.000000 0.000000 2.867840 
# 
# 
# High freq. dielectric constant tensor:
#      x y z
#    x 1.543200 0.000000 0.000000 
#    y 0.000000 1.607750 0.000000 
#    z 0.000000 0.000000 1.552770 
# 
# From -- ./inp_files/66288.got.cif
#   From: 2010.03.12/outbox.cif.g09.slc.cpg/sg65_34_cif.got.tgz:66288.got - 2010.04.10 20:52:16.
