data_PCOD8269849
_publ_section_title
;
Structure prediction by ZEFSAII (Michael W. Deem and Ramdas Pophale) SiO2 
 PCOD8269849
Probable space group: C M M M
;
_chemical_formula_sum "Si O2"
_cell_formula_units_Z 96
_cell_length_a 30.984517
_cell_length_b 9.053189
_cell_length_c 19.839694
_cell_angle_alpha 90.000000
_cell_angle_beta 90.000000
_cell_angle_gamma 90.000000
_cell_volume 5565.206544
_symmetry_space_group_name_H-M "C M M M"
_symmetry_group_IT_number 65
_symmetry_cell_setting 'orthorhombic'
loop_
_space_group_symop_operation_xyz
x,y,z
-x,-y,z
x,-y,-z
-x,y,-z
-x,-y,-z
x,y,-z
-x,y,z
x,-y,z
1/2+x,1/2+y,z
1/2-x,1/2-y,z
1/2+x,1/2-y,-z
1/2-x,1/2+y,-z
1/2-x,1/2-y,-z
1/2+x,1/2+y,-z
1/2-x,1/2+y,z
1/2+x,1/2-y,z
loop_
_atom_site_type_symbol
_atom_site_label
_atom_site_fract_x
_atom_site_fract_y
_atom_site_fract_z
Si Si1 0.114623 0.828319 0.174036
Si Si2 0.548349 0.175529 0.574938
Si Si3 0.950519 0.330397 0.922165
Si Si4 0.384929 0.171985 0.683400
Si Si5 0.289580 0.171588 0.315805
Si Si6 0.709940 0.327735 0.172192
O O1 0.079484 0.773743 0.121607
O O2 0.108537 0.749731 0.245390
O O3 0.162297 0.799763 0.141113
O O4 0.107669 0.000000 0.187475
O O5 0.559676 0.235290 0.500000
O O6 0.500000 0.225368 0.595130
O O7 0.581772 0.241045 0.629385
O O8 0.551588 0.000000 0.574386
O O9 0.938065 0.500000 0.908718
O O10 0.000000 0.302006 0.901450
O O11 0.943487 0.289905 0.000000
O O12 0.336872 0.194363 0.651583
O O13 0.394069 0.000000 0.696133
O O14 0.250000 0.250000 0.357423
O O15 0.291485 0.252987 0.244744
O O16 0.278809 0.000000 0.306662
O O17 0.720159 0.500000 0.178042
O O18 0.750000 0.250000 0.131323
#
# Coordination Sequence:
#
# PCOD8269849 Si02
#       6
#    16  16  16  16  16  16
#     4  10  20  31  46  72 101 125 151 188 233 276
#     4   8  14  26  45  67  88 112 147 190 231 270
#     4   9  19  36  55  72  91 120 158 194 228 271
#     4   9  17  28  44  68  94 119 150 189 230 270
#     4   9  15  23  37  58  85 116 148 182 221 265
#     4   9  16  26  41  63  91 121 152 185 222 266
#
# _framework density 17.250033999999999
#
# number of rings (size 3 to 8) (size 9 to 14) (size 15 to 20)
#    0.000    3.000    0.000    3.500    0.000    4.000 
#    0.000    2.500    0.000    1.500    0.000    1.167 
#    0.000    0.000    0.000    0.000    0.000    4.500 
#
# Total GULP energy -594636.858310 kJ/mol
# GULP energy per Si atom -12388.267881 kJ/mol
# Density = 1.721077 g / cm^3
# Si number density = 17.250034 Si / 1000 Ang^3
#
#
#
# Elastic Constant Matrix: (Units=GPa)
#
#
# Indices 1 2 3 4 5 6 
#
# 1 143.7560 53.8858 60.6455 0.0000 0.0000 0.0000
# 2 53.8858 76.9268 29.8200 0.0000 0.0000 0.0000
# 3 60.6455 29.8200 58.9144 0.0000 0.0000 0.0000
# 4 0.0000 0.0000 0.0000 2.9421 0.0000 0.0000
# 5 0.0000 0.0000 0.0000 0.0000 1.6543 0.0000
# 6 0.0000 0.0000 0.0000 0.0000 0.0000 28.5326
#
#
#
# Elastic Compliance Matrix: (Units=1/GPa)
#
#
# Indices 1 2 3 4 5 6 
#
# 1 0.013768 -0.005164 -0.011559 0.000000 0.000000 0.000000
# 2 -0.005164 0.018109 -0.003851 0.000000 0.000000 0.000000
# 3 -0.011559 -0.003851 0.030822 0.000000 0.000000 0.000000
# 4 0.000000 0.000000 0.000000 0.339891 0.000000 0.000000
# 5 0.000000 0.000000 0.000000 0.000000 0.604470 0.000000
# 6 0.000000 0.000000 0.000000 0.000000 0.000000 0.035048
#
#
# Mechanical properties :
#
#
# Convention : Reuss Voigt Hill
#
# Bulk Modulus (GPa) = 46.39957 63.14442 54.77199
# Shear Modulus (GPa) = 4.58531 15.64221 10.11376
#
# Velocity S-wave (km/s) = 1.63215 3.01457 2.42400
# Velocity P-wave (km/s) = 5.52345 6.98582 6.29723
#
# Compressibility (1/GPa) = 0.02155192
#
# Stress axis : x y z
#
# Youngs Moduli (GPa) = 72.63172 55.22100 32.44477
#
# Poissons Ratio (x) = 0.28513 0.37503
# Poissons Ratio (y) = 0.37503 0.12494
# Poissons Ratio (z) = 0.83956 0.21265
#
# Static dielectric constant tensor:
#      x y z
#    x 4.322220 0.000000 0.000000 
#    y 0.000000 3.126310 0.000000 
#    z 0.000000 0.000000 2.879930 
# 
# 
# High freq. dielectric constant tensor:
#      x y z
#    x 1.691590 0.000000 0.000000 
#    y 0.000000 1.656910 0.000000 
#    z 0.000000 0.000000 1.614210 
# 
# From -- ./inp_files/71666.got.cif
#   From: 2010.03.12/outbox.cif.g09.slc.cpg/sg65_36_cif.got.tgz:71666.got - 2010.04.10 20:52:16.
