data_PCOD8269744
_publ_section_title
;
Structure prediction by ZEFSAII (Michael W. Deem and Ramdas Pophale) SiO2 
 PCOD8269744
Probable space group: C M M M
;
_chemical_formula_sum "Si O2"
_cell_formula_units_Z 96
_cell_length_a 26.816915
_cell_length_b 16.491650
_cell_length_c 12.588692
_cell_angle_alpha 90.000000
_cell_angle_beta 90.000000
_cell_angle_gamma 90.000000
_cell_volume 5567.414199
_symmetry_space_group_name_H-M "C M M M"
_symmetry_group_IT_number 65
_symmetry_cell_setting 'orthorhombic'
loop_
_space_group_symop_operation_xyz
x,y,z
-x,-y,z
x,-y,-z
-x,y,-z
-x,-y,-z
x,y,-z
-x,y,z
x,-y,z
1/2+x,1/2+y,z
1/2-x,1/2-y,z
1/2+x,1/2-y,-z
1/2-x,1/2+y,-z
1/2-x,1/2-y,-z
1/2+x,1/2+y,-z
1/2-x,1/2+y,z
1/2+x,1/2-y,z
loop_
_atom_site_type_symbol
_atom_site_label
_atom_site_fract_x
_atom_site_fract_y
_atom_site_fract_z
Si Si1 0.125630 0.642670 0.877098
Si Si2 0.225439 0.339236 0.500000
Si Si3 0.000000 0.092275 0.873598
Si Si4 0.207887 0.404502 0.715228
Si Si5 0.671885 0.408830 0.500000
Si Si6 0.444670 0.000000 0.874152
Si Si7 0.176331 0.095337 0.727848
Si Si8 0.099804 0.175452 0.877616
O O1 0.175916 0.634495 0.809681
O O2 0.085045 0.578818 0.835061
O O3 0.099163 0.728685 0.861414
O O4 0.140055 0.627333 0.000000
O O5 0.250000 0.250000 0.500000
O O6 0.193186 0.356520 0.606394
O O7 0.267876 0.408754 0.500000
O O8 0.951042 0.138009 0.829404
O O9 0.000000 0.000000 0.831802
O O10 0.000000 0.095703 0.000000
O O11 0.196869 0.500000 0.704392
O O12 0.265378 0.386492 0.743160
O O13 0.652433 0.500000 0.500000
O O14 0.656062 0.368795 0.386991
O O15 0.500000 0.000000 0.823220
O O16 0.449249 0.000000 0.000000
O O17 0.147798 0.138960 0.821259
O O18 0.165927 0.000000 0.732257
O O19 0.104952 0.150910 0.000000
#
# Coordination Sequence:
#
# PCOD8269744 Si02
#       8
#    16   8   8  16   8   8  16  16
#     4  10  21  34  50  77 109 138 172 214 263 316
#     4  10  20  30  52  76  98 132 179 221 255 302
#     4   9  18  34  54  72  98 132 169 214 259 311
#     4  10  20  35  52  74 107 141 175 215 258 311
#     4   8  16  32  48  67  95 127 165 209 246 289
#     4   9  18  34  56  75  99 139 183 219 258 313
#     4   9  18  32  52  72  99 136 171 206 254 311
#     4  10  21  33  49  75 104 132 168 212 258 308
#
# _framework density 17.243192000000001
#
# number of rings (size 3 to 8) (size 9 to 14) (size 15 to 20)
#    0.000    2.500    0.833    2.250    5.833    1.667 
#    0.000    3.333    0.000    0.500    0.000    3.500 
#    0.000    0.000    0.000    0.000    0.000    0.000 
#
# Total GULP energy -594908.051103 kJ/mol
# GULP energy per Si atom -12393.917731 kJ/mol
# Density = 1.720395 g / cm^3
# Si number density = 17.243192 Si / 1000 Ang^3
#
#
#
# Elastic Constant Matrix: (Units=GPa)
#
#
# Indices 1 2 3 4 5 6 
#
# 1 93.9211 50.6844 54.4965 0.0000 0.0000 0.0000
# 2 50.6844 91.7785 46.0807 0.0000 0.0000 0.0000
# 3 54.4965 46.0807 85.7070 0.0000 0.0000 0.0000
# 4 0.0000 0.0000 0.0000 22.4057 0.0000 0.0000
# 5 0.0000 0.0000 0.0000 0.0000 3.3939 0.0000
# 6 0.0000 0.0000 0.0000 0.0000 0.0000 27.5355
#
#
#
# Elastic Compliance Matrix: (Units=1/GPa)
#
#
# Indices 1 2 3 4 5 6 
#
# 1 0.019068 -0.006085 -0.008852 0.000000 0.000000 0.000000
# 2 -0.006085 0.016867 -0.005199 0.000000 0.000000 0.000000
# 3 -0.008852 -0.005199 0.020092 0.000000 0.000000 0.000000
# 4 0.000000 0.000000 0.000000 0.044632 0.000000 0.000000
# 5 0.000000 0.000000 0.000000 0.000000 0.294644 0.000000
# 6 0.000000 0.000000 0.000000 0.000000 0.000000 0.036317
#
#
# Mechanical properties :
#
#
# Convention : Reuss Voigt Hill
#
# Bulk Modulus (GPa) = 63.48179 63.76997 63.62588
# Shear Modulus (GPa) = 10.47904 18.67668 14.57786
#
# Velocity S-wave (km/s) = 2.46787 3.29467 2.91078
# Velocity P-wave (km/s) = 6.70940 7.17887 6.94810
#
# Compressibility (1/GPa) = 0.01575255
#
# Stress axis : x y z
#
# Youngs Moduli (GPa) = 52.44495 59.28774 49.77202
#
# Poissons Ratio (x) = 0.36079 0.44059
# Poissons Ratio (y) = 0.31915 0.25877
# Poissons Ratio (z) = 0.46425 0.30824
#
# Static dielectric constant tensor:
#      x y z
#    x 3.121110 0.000000 0.000000 
#    y 0.000000 3.287150 0.000000 
#    z 0.000000 0.000000 3.313740 
# 
# 
# High freq. dielectric constant tensor:
#      x y z
#    x 1.640350 0.000000 0.000000 
#    y 0.000000 1.674640 0.000000 
#    z 0.000000 0.000000 1.652370 
# 
# From -- ./inp_files/32492.got.cif
#   From: 2010.03.12/outbox.cif.g09.slc.cpg/sg65_17_cif.got.tgz:32492.got - 2010.04.10 20:52:16.
