data_PCOD8269487
_publ_section_title
;
Structure prediction by ZEFSAII (Michael W. Deem and Ramdas Pophale) SiO2 
 PCOD8269487
Probable space group: C M M M
;
_chemical_formula_sum "Si O2"
_cell_formula_units_Z 72
_cell_length_a 25.172074
_cell_length_b 8.626386
_cell_length_c 17.438763
_cell_angle_alpha 90.000000
_cell_angle_beta 90.000000
_cell_angle_gamma 90.000000
_cell_volume 3786.723219
_symmetry_space_group_name_H-M "C M M M"
_symmetry_group_IT_number 65
_symmetry_cell_setting 'orthorhombic'
loop_
_space_group_symop_operation_xyz
x,y,z
-x,-y,z
x,-y,-z
-x,y,-z
-x,-y,-z
x,y,-z
-x,y,z
x,-y,z
1/2+x,1/2+y,z
1/2-x,1/2-y,z
1/2+x,1/2-y,-z
1/2-x,1/2+y,-z
1/2-x,1/2-y,-z
1/2+x,1/2+y,-z
1/2-x,1/2+y,z
1/2+x,1/2-y,z
loop_
_atom_site_type_symbol
_atom_site_label
_atom_site_fract_x
_atom_site_fract_y
_atom_site_fract_z
Si Si1 0.809023 0.684033 0.500000
Si Si2 0.000000 0.175766 0.621230
Si Si3 0.304945 0.682256 0.086397
Si Si4 0.500000 0.827560 0.774916
Si Si5 0.115653 0.677260 0.795517
Si Si6 0.384716 0.314097 0.627024
O O1 0.807160 0.500000 0.500000
O O2 0.750000 0.750000 0.500000
O O3 0.838670 0.743913 0.575437
O O4 0.057134 0.245754 0.593983
O O5 0.000000 0.191136 0.712813
O O6 0.000000 0.000000 0.595069
O O7 0.300714 0.500000 0.087672
O O8 0.250000 0.750000 0.118878
O O9 0.352378 0.734257 0.140052
O O10 0.315301 0.743956 0.000000
O O11 0.445939 0.810956 0.823542
O O12 0.500000 0.000000 0.735306
O O13 0.134724 0.500000 0.790090
O O14 0.124402 0.755650 0.713098
O O15 0.382260 0.500000 0.625692
#
# Coordination Sequence:
#
# PCOD8269487 Si02
#       6
#     8   8  16   8  16  16
#     4  12  26  43  58  77 107 144 184 228 275 320
#     4   8  16  31  55  83 110 139 174 216 263 315
#     4  10  21  37  56  79 107 140 180 227 275 321
#     4   8  16  30  50  78 112 144 175 215 262 312
#     4  10  19  34  57  84 112 144 181 220 265 319
#     4  10  20  37  59  84 112 144 180 220 267 319
#
# _framework density 19.013801000000001
#
# number of rings (size 3 to 8) (size 9 to 14) (size 15 to 20)
#    0.000    2.222    0.000    3.000    0.000    4.444 
#    0.000    7.222    0.000    3.333    0.000    0.000 
#    0.000    0.000    0.000    0.000    0.000    0.000 
#
# Total GULP energy -446059.722910 kJ/mol
# GULP energy per Si atom -12390.547859 kJ/mol
# Density = 1.897052 g / cm^3
# Si number density = 19.013801 Si / 1000 Ang^3
#
#
#
# Elastic Constant Matrix: (Units=GPa)
#
#
# Indices 1 2 3 4 5 6 
#
# 1 165.4020 41.0047 72.9851 0.0000 0.0000 0.0000
# 2 41.0047 81.6803 34.0977 0.0000 0.0000 0.0000
# 3 72.9851 34.0977 91.5628 0.0000 0.0000 0.0000
# 4 0.0000 0.0000 0.0000 29.9148 0.0000 0.0000
# 5 0.0000 0.0000 0.0000 0.0000 57.2081 0.0000
# 6 0.0000 0.0000 0.0000 0.0000 0.0000 29.1903
#
#
#
# Elastic Compliance Matrix: (Units=1/GPa)
#
#
# Indices 1 2 3 4 5 6 
#
# 1 0.009574 -0.001919 -0.006917 0.000000 0.000000 0.000000
# 2 -0.001919 0.014881 -0.004012 0.000000 0.000000 0.000000
# 3 -0.006917 -0.004012 0.017929 0.000000 0.000000 0.000000
# 4 0.000000 0.000000 0.000000 0.033428 0.000000 0.000000
# 5 0.000000 0.000000 0.000000 0.000000 0.017480 0.000000
# 6 0.000000 0.000000 0.000000 0.000000 0.000000 0.034258
#
#
# Mechanical properties :
#
#
# Convention : Reuss Voigt Hill
#
# Bulk Modulus (GPa) = 59.92210 70.53558 65.22884
# Shear Modulus (GPa) = 31.48464 35.96646 33.72555
#
# Velocity S-wave (km/s) = 4.07367 4.35397 4.21615
# Velocity P-wave (km/s) = 7.32870 7.90276 7.62114
#
# Compressibility (1/GPa) = 0.01668833
#
# Stress axis : x y z
#
# Youngs Moduli (GPa) = 104.45434 67.19978 55.77594
#
# Poissons Ratio (x) = 0.12894 0.38578
# Poissons Ratio (y) = 0.20042 0.22379
# Poissons Ratio (z) = 0.72247 0.26962
#
# Static dielectric constant tensor:
#      x y z
#    x 3.840860 0.000000 0.000000 
#    y 0.000000 3.606550 0.000000 
#    z 0.000000 0.000000 3.439380 
# 
# 
# High freq. dielectric constant tensor:
#      x y z
#    x 1.756580 0.000000 0.000000 
#    y 0.000000 1.747700 0.000000 
#    z 0.000000 0.000000 1.712780 
# 
# From -- ./inp_files/56519.got.cif
#   From: 2010.03.12/outbox.cif.g09.slc.cpg/sg65_29_cif.got.tgz:56519.got - 2010.04.10 20:52:16.
