data_PCOD8269247
_publ_section_title
;
Structure prediction by ZEFSAII (Michael W. Deem and Ramdas Pophale) SiO2 
 PCOD8269247
Probable space group: C M M M
;
_chemical_formula_sum "Si O2"
_cell_formula_units_Z 88
_cell_length_a 8.867564
_cell_length_b 25.525486
_cell_length_c 20.597375
_cell_angle_alpha 90.000000
_cell_angle_beta 90.000000
_cell_angle_gamma 90.000000
_cell_volume 4662.192777
_symmetry_space_group_name_H-M "C M M M"
_symmetry_group_IT_number 65
_symmetry_cell_setting 'orthorhombic'
loop_
_space_group_symop_operation_xyz
x,y,z
-x,-y,z
x,-y,-z
-x,y,-z
-x,-y,-z
x,y,-z
-x,y,z
x,-y,z
1/2+x,1/2+y,z
1/2-x,1/2-y,z
1/2+x,1/2-y,-z
1/2-x,1/2+y,-z
1/2-x,1/2-y,-z
1/2+x,1/2+y,-z
1/2-x,1/2+y,z
1/2+x,1/2-y,z
loop_
_atom_site_type_symbol
_atom_site_label
_atom_site_fract_x
_atom_site_fract_y
_atom_site_fract_z
Si Si1 0.677440 0.000000 0.143656
Si Si2 0.177996 0.695333 0.141909
Si Si3 0.173553 0.901604 0.076112
Si Si4 0.323406 0.195741 0.709686
Si Si5 0.175187 0.101721 0.636244
Si Si6 0.179088 0.058693 0.500000
Si Si7 0.172663 0.000000 0.721235
O O1 0.746726 0.051177 0.112098
O O2 0.712185 0.000000 0.219604
O O3 0.500000 0.000000 0.132358
O O4 0.250000 0.750000 0.120165
O O5 0.245485 0.651865 0.095012
O O6 0.222422 0.682260 0.216231
O O7 0.000000 0.698240 0.132278
O O8 0.000000 0.899189 0.097988
O O9 0.189289 0.910901 0.000000
O O10 0.500000 0.202462 0.702851
O O11 0.250000 0.250000 0.686990
O O12 0.269393 0.149876 0.663155
O O13 0.232902 0.090235 0.563425
O O14 0.206836 0.050661 0.678654
O O15 0.000000 0.116917 0.637405
O O16 0.000000 0.053389 0.500000
O O17 0.248350 0.000000 0.500000
O O18 0.000000 0.000000 0.746228
#
# Coordination Sequence:
#
# PCOD8269247 Si02
#       7
#     8  16  16  16  16   8   8
#     4  12  25  39  57  82 113 149 188 233 284 338
#     4  10  21  38  61  87 115 148 186 233 284 334
#     4  11  24  41  60  82 111 148 189 233 281 337
#     4  10  21  37  57  82 112 146 186 232 279 329
#     4  10  19  33  57  86 114 148 187 228 274 327
#     4   9  16  32  56  83 116 149 188 228 267 324
#     4  10  20  34  57  86 114 146 184 227 276 333
#
# _framework density 18.875239000000001
#
# number of rings (size 3 to 8) (size 9 to 14) (size 15 to 20)
#    0.000    1.727    0.909    3.818    0.000    8.727 
#    0.000    0.909    0.000    0.545    0.000    0.000 
#    0.000    0.000    0.000    0.000    0.000    0.000 
#
# Total GULP energy -545803.914597 kJ/mol
# GULP energy per Si atom -12404.634423 kJ/mol
# Density = 1.883228 g / cm^3
# Si number density = 18.875239 Si / 1000 Ang^3
#
#
#
# Elastic Constant Matrix: (Units=GPa)
#
#
# Indices 1 2 3 4 5 6 
#
# 1 84.6770 45.6916 37.2402 0.0000 0.0000 0.0000
# 2 45.6916 111.1550 39.5421 0.0000 0.0000 0.0000
# 3 37.2402 39.5421 85.7200 0.0000 0.0000 0.0000
# 4 0.0000 0.0000 0.0000 54.8330 0.0000 0.0000
# 5 0.0000 0.0000 0.0000 0.0000 24.3821 0.0000
# 6 0.0000 0.0000 0.0000 0.0000 0.0000 35.6278
#
#
#
# Elastic Compliance Matrix: (Units=1/GPa)
#
#
# Indices 1 2 3 4 5 6 
#
# 1 0.016737 -0.005136 -0.004902 0.000000 0.000000 0.000000
# 2 -0.005136 0.012339 -0.003460 0.000000 0.000000 0.000000
# 3 -0.004902 -0.003460 0.015392 0.000000 0.000000 0.000000
# 4 0.000000 0.000000 0.000000 0.018237 0.000000 0.000000
# 5 0.000000 0.000000 0.000000 0.000000 0.041014 0.000000
# 6 0.000000 0.000000 0.000000 0.000000 0.000000 0.028068
#
#
# Mechanical properties :
#
#
# Convention : Reuss Voigt Hill
#
# Bulk Modulus (GPa) = 57.23961 58.49998 57.86979
# Shear Modulus (GPa) = 30.37545 33.57378 31.97461
#
# Velocity S-wave (km/s) = 4.01593 4.22206 4.12029
# Velocity P-wave (km/s) = 7.20379 7.40459 7.30488
#
# Compressibility (1/GPa) = 0.01747042
#
# Stress axis : x y z
#
# Youngs Moduli (GPa) = 59.74846 81.04576 64.96975
#
# Poissons Ratio (x) = 0.41626 0.31848
# Poissons Ratio (y) = 0.30687 0.22483
# Poissons Ratio (z) = 0.29288 0.28046
#
# Static dielectric constant tensor:
#      x y z
#    x 3.435470 0.000000 0.000000 
#    y 0.000000 2.983030 0.000000 
#    z 0.000000 0.000000 3.565810 
# 
# 
# High freq. dielectric constant tensor:
#      x y z
#    x 1.731140 0.000000 0.000000 
#    y 0.000000 1.745140 0.000000 
#    z 0.000000 0.000000 1.734900 
# 
# From -- ./inp_files/59876.got.cif
#   From: 2010.03.12/outbox.cif.g09.slc.cpg/sg65_30_cif.got.tgz:59876.got - 2010.04.10 20:52:16.
