data_PCOD8269836
_publ_section_title
;
Structure prediction by ZEFSAII (Michael W. Deem and Ramdas Pophale) SiO2 
 PCOD8269836
Probable space group: C M M M
;
_chemical_formula_sum "Si O2"
_cell_formula_units_Z 80
_cell_length_a 29.106005
_cell_length_b 9.196105
_cell_length_c 18.165325
_cell_angle_alpha 90.000000
_cell_angle_beta 90.000000
_cell_angle_gamma 90.000000
_cell_volume 4862.165006
_symmetry_space_group_name_H-M "C M M M"
_symmetry_group_IT_number 65
_symmetry_cell_setting 'orthorhombic'
loop_
_space_group_symop_operation_xyz
x,y,z
-x,-y,z
x,-y,-z
-x,y,-z
-x,-y,-z
x,y,-z
-x,y,z
x,-y,z
1/2+x,1/2+y,z
1/2-x,1/2-y,z
1/2+x,1/2-y,-z
1/2-x,1/2+y,-z
1/2-x,1/2-y,-z
1/2+x,1/2+y,-z
1/2-x,1/2+y,z
1/2+x,1/2-y,z
loop_
_atom_site_type_symbol
_atom_site_label
_atom_site_fract_x
_atom_site_fract_y
_atom_site_fract_z
Si Si1 0.144693 0.668360 0.297596
Si Si2 0.701654 0.170368 0.841005
Si Si3 0.797145 0.830256 0.415228
Si Si4 0.948887 0.333122 0.642220
Si Si5 0.203147 0.667472 0.000000
Si Si6 0.054276 0.839381 0.500000
O O1 0.157214 0.500000 0.312182
O O2 0.165545 0.723508 0.220305
O O3 0.163484 0.764458 0.364250
O O4 0.089143 0.689115 0.293728
O O5 0.750000 0.250000 0.829263
O O6 0.678540 0.205849 0.921851
O O7 0.711506 0.000000 0.832910
O O8 0.811267 0.803422 0.500000
O O9 0.750000 0.750000 0.395584
O O10 0.790745 0.000000 0.398254
O O11 0.951302 0.500000 0.617415
O O12 0.929999 0.244232 0.572662
O O13 0.000000 0.281686 0.668579
O O14 0.250000 0.750000 0.000000
O O15 0.216000 0.500000 0.000000
O O16 0.000000 0.851256 0.500000
O O17 0.076997 0.000000 0.500000
#
# Coordination Sequence:
#
# PCOD8269836 Si02
#       6
#    16  16  16  16   8   8
#     4  10  20  31  46  67  89 116 151 188 225 265
#     4   9  17  29  45  67  92 117 145 176 216 263
#     4  10  21  35  48  63  86 118 153 186 220 262
#     4   9  18  32  47  63  85 115 150 187 228 271
#     4   8  14  26  44  64  89 117 141 171 212 262
#     4   9  17  29  45  63  82 105 138 185 233 271
#
# _framework density 16.453575000000001
#
# number of rings (size 3 to 8) (size 9 to 14) (size 15 to 20)
#    0.000    2.700    0.000    1.500    1.400    5.600 
#    0.000    0.000    0.000    0.000    0.000    0.700 
#    0.000    5.600    0.000    0.000    0.000   47.500 
#
# Total GULP energy -495617.507480 kJ/mol
# GULP energy per Si atom -12390.437687 kJ/mol
# Density = 1.641613 g / cm^3
# Si number density = 16.453575 Si / 1000 Ang^3
#
#
#
# Elastic Constant Matrix: (Units=GPa)
#
#
# Indices 1 2 3 4 5 6 
#
# 1 94.7583 30.4914 69.4055 0.0000 0.0000 0.0000
# 2 30.4914 54.2069 35.4516 0.0000 0.0000 0.0000
# 3 69.4055 35.4516 117.7420 0.0000 0.0000 0.0000
# 4 0.0000 0.0000 0.0000 16.2846 0.0000 0.0000
# 5 0.0000 0.0000 0.0000 0.0000 14.4241 0.0000
# 6 0.0000 0.0000 0.0000 0.0000 0.0000 16.8799
#
#
#
# Elastic Compliance Matrix: (Units=1/GPa)
#
#
# Indices 1 2 3 4 5 6 
#
# 1 0.019331 -0.004260 -0.010112 0.000000 0.000000 0.000000
# 2 -0.004260 0.023910 -0.004688 0.000000 0.000000 0.000000
# 3 -0.010112 -0.004688 0.015866 0.000000 0.000000 0.000000
# 4 0.000000 0.000000 0.000000 0.061408 0.000000 0.000000
# 5 0.000000 0.000000 0.000000 0.000000 0.069328 0.000000
# 6 0.000000 0.000000 0.000000 0.000000 0.000000 0.059242
#
#
# Mechanical properties :
#
#
# Convention : Reuss Voigt Hill
#
# Bulk Modulus (GPa) = 47.65142 59.71157 53.68150
# Shear Modulus (GPa) = 16.99523 18.27496 17.63509
#
# Velocity S-wave (km/s) = 3.21739 3.33633 3.27740
# Velocity P-wave (km/s) = 6.54417 7.15620 6.85702
#
# Compressibility (1/GPa) = 0.02098573
#
# Stress axis : x y z
#
# Youngs Moduli (GPa) = 51.73149 41.82328 63.02974
#
# Poissons Ratio (x) = 0.17817 0.63737
# Poissons Ratio (y) = 0.22038 0.29549
# Poissons Ratio (z) = 0.52312 0.19607
#
# Static dielectric constant tensor:
#      x y z
#    x 3.019790 0.000000 0.000000 
#    y 0.000000 3.365120 0.000000 
#    z 0.000000 0.000000 3.471970 
# 
# 
# High freq. dielectric constant tensor:
#      x y z
#    x 1.612740 0.000000 0.000000 
#    y 0.000000 1.637560 0.000000 
#    z 0.000000 0.000000 1.619870 
# 
# From -- ./inp_files/57878.got.cif
#   From: 2010.03.12/outbox.cif.g09.slc.cpg/sg65_29_cif.got.tgz:57878.got - 2010.04.10 20:52:16.
