data_PCOD8269049
_publ_section_title
;
Structure prediction by ZEFSAII (Michael W. Deem and Ramdas Pophale) SiO2 
 PCOD8269049
Probable space group: C M M M
;
_chemical_formula_sum "Si O2"
_cell_formula_units_Z 72
_cell_length_a 9.040919
_cell_length_b 19.608680
_cell_length_c 22.983000
_cell_angle_alpha 90.000000
_cell_angle_beta 90.000000
_cell_angle_gamma 90.000000
_cell_volume 4074.437446
_symmetry_space_group_name_H-M "C M M M"
_symmetry_group_IT_number 65
_symmetry_cell_setting 'orthorhombic'
loop_
_space_group_symop_operation_xyz
x,y,z
-x,-y,z
x,-y,-z
-x,y,-z
-x,-y,-z
x,y,-z
-x,y,z
x,-y,z
1/2+x,1/2+y,z
1/2-x,1/2-y,z
1/2+x,1/2-y,-z
1/2-x,1/2+y,-z
1/2-x,1/2-y,-z
1/2+x,1/2+y,-z
1/2-x,1/2+y,z
1/2+x,1/2-y,z
loop_
_atom_site_type_symbol
_atom_site_label
_atom_site_fract_x
_atom_site_fract_y
_atom_site_fract_z
Si Si1 0.831298 0.680264 0.500000
Si Si2 0.828885 0.421694 0.835894
Si Si3 0.672670 0.579370 0.281991
Si Si4 0.174337 0.676220 0.373604
Si Si5 0.173639 0.318957 0.065548
O O1 0.750000 0.750000 0.500000
O O2 0.794377 0.643432 0.561556
O O3 0.000000 0.701133 0.500000
O O4 0.800438 0.500000 0.851810
O O5 0.731242 0.398613 0.781201
O O6 0.776298 0.379402 0.891918
O O7 0.000000 0.408134 0.820546
O O8 0.500000 0.595748 0.285523
O O9 0.706628 0.500000 0.293431
O O10 0.758120 0.622581 0.329581
O O11 0.250000 0.750000 0.366166
O O12 0.000000 0.684507 0.361720
O O13 0.250000 0.250000 0.087208
O O14 0.000000 0.307116 0.068275
O O15 0.224408 0.337873 0.000000
#
# Coordination Sequence:
#
# PCOD8269049 Si02
#       5
#     8  16  16  16  16
#     4   8  16  30  49  74 101 129 161 201 247 294
#     4   9  18  33  52  72  95 127 166 205 246 292
#     4  10  21  36  52  72 101 135 170 209 252 296
#     4  10  19  33  54  78 103 131 166 206 249 298
#     4   9  18  32  50  73 100 128 158 196 243 293
#
# _framework density 17.671151999999999
#
# number of rings (size 3 to 8) (size 9 to 14) (size 15 to 20)
#    0.000    2.667    0.000    1.333    0.000    4.444 
#    0.000    5.000    0.000    3.333    0.000    6.222 
#    0.000    0.000    0.000    0.000    0.000    0.000 
#
# Total GULP energy -446206.848291 kJ/mol
# GULP energy per Si atom -12394.634675 kJ/mol
# Density = 1.763093 g / cm^3
# Si number density = 17.671152 Si / 1000 Ang^3
#
#
#
# Elastic Constant Matrix: (Units=GPa)
#
#
# Indices 1 2 3 4 5 6 
#
# 1 75.5341 48.4304 65.4595 0.0000 0.0000 0.0000
# 2 48.4304 85.1298 86.3893 0.0000 0.0000 0.0000
# 3 65.4595 86.3893 155.2112 0.0000 0.0000 0.0000
# 4 0.0000 0.0000 0.0000 391.8807 0.0000 0.0000
# 5 0.0000 0.0000 0.0000 0.0000 24.1988 0.0000
# 6 0.0000 0.0000 0.0000 0.0000 0.0000 29.9060
#
#
#
# Elastic Compliance Matrix: (Units=1/GPa)
#
#
# Indices 1 2 3 4 5 6 
#
# 1 0.022705 -0.007352 -0.005484 0.000000 0.000000 0.000000
# 2 -0.007352 0.029374 -0.013249 0.000000 0.000000 0.000000
# 3 -0.005484 -0.013249 0.016130 0.000000 0.000000 0.000000
# 4 0.000000 0.000000 0.000000 0.002552 0.000000 0.000000
# 5 0.000000 0.000000 0.000000 0.000000 0.041324 0.000000
# 6 0.000000 0.000000 0.000000 0.000000 0.000000 0.033438
#
#
# Mechanical properties :
#
#
# Convention : Reuss Voigt Hill
#
# Bulk Modulus (GPa) = 62.34420 79.60373 70.97397
# Shear Modulus (GPa) = 24.62579 96.90351 60.76465
#
# Velocity S-wave (km/s) = 3.73709 7.41324 5.87035
# Velocity P-wave (km/s) = 7.34697 10.88209 9.28434
#
# Compressibility (1/GPa) = 0.01603998
#
# Stress axis : x y z
#
# Youngs Moduli (GPa) = 44.04234 34.04350 61.99786
#
# Poissons Ratio (x) = 0.25030 0.33997
# Poissons Ratio (y) = 0.32382 0.82139
# Poissons Ratio (z) = 0.24151 0.45103
#
# Static dielectric constant tensor:
#      x y z
#    x 3.351850 0.000000 0.000000 
#    y 0.000000 3.133180 0.000000 
#    z 0.000000 0.000000 4.609310 
# 
# 
# High freq. dielectric constant tensor:
#      x y z
#    x 1.689170 0.000000 0.000000 
#    y 0.000000 1.663600 0.000000 
#    z 0.000000 0.000000 1.698210 
# 
# From -- ./inp_files/56464.got.cif
#   From: 2010.03.12/outbox.cif.g09.slc.cpg/sg65_29_cif.got.tgz:56464.got - 2010.04.10 20:52:16.
