data_PCOD8269032
_publ_section_title
;
Structure prediction by ZEFSAII (Michael W. Deem and Ramdas Pophale) SiO2 
 PCOD8269032
Probable space group: C M M M
;
_chemical_formula_sum "Si O2"
_cell_formula_units_Z 72
_cell_length_a 13.157307
_cell_length_b 32.376426
_cell_length_c 9.424019
_cell_angle_alpha 90.000000
_cell_angle_beta 90.000000
_cell_angle_gamma 90.000000
_cell_volume 4014.505590
_symmetry_space_group_name_H-M "C M M M"
_symmetry_group_IT_number 65
_symmetry_cell_setting 'orthorhombic'
loop_
_space_group_symop_operation_xyz
x,y,z
-x,-y,z
x,-y,-z
-x,y,-z
-x,-y,-z
x,y,-z
-x,y,z
x,-y,z
1/2+x,1/2+y,z
1/2-x,1/2-y,z
1/2+x,1/2-y,-z
1/2-x,1/2+y,-z
1/2-x,1/2-y,-z
1/2+x,1/2+y,-z
1/2-x,1/2+y,z
1/2+x,1/2-y,z
loop_
_atom_site_type_symbol
_atom_site_label
_atom_site_fract_x
_atom_site_fract_y
_atom_site_fract_z
Si Si1 0.000000 0.277036 0.158853
Si Si2 0.188065 0.411761 0.668908
Si Si3 0.885973 0.136027 0.667509
Si Si4 0.500000 0.874381 0.163782
Si Si5 0.113871 0.500000 0.666187
Si Si6 0.354641 0.271321 0.653656
O O1 0.000000 0.325628 0.167933
O O2 0.097437 0.258905 0.233845
O O3 0.000000 0.260817 0.000000
O O4 0.172898 0.404319 0.500000
O O5 0.298968 0.395760 0.721935
O O6 0.178767 0.459946 0.710839
O O7 0.100144 0.388516 0.753633
O O8 0.889261 0.132554 0.500000
O O9 0.852374 0.182072 0.715159
O O10 0.000000 0.125764 0.727976
O O11 0.500000 0.890306 0.000000
O O12 0.097213 0.500000 0.500000
O O13 0.000000 0.500000 0.736105
O O14 0.411488 0.272806 0.500000
O O15 0.250000 0.250000 0.625001
#
# Coordination Sequence:
#
# PCOD8269032 Si02
#       6
#     8  16  16   8   8  16
#     4  11  23  35  48  72 107 143 173 216 271 313
#     4  10  19  34  58  81 106 143 178 212 268 328
#     4   9  17  31  52  79 108 138 178 225 261 303
#     4  11  23  36  50  77 114 140 175 229 270 313
#     4   9  16  30  53  85 113 130 167 222 267 319
#     4  10  19  33  54  76  99 134 182 228 262 304
#
# _framework density 17.93496
#
# number of rings (size 3 to 8) (size 9 to 14) (size 15 to 20)
#    0.000    2.111    2.222    2.000    0.000    4.000 
#    0.000    2.778    0.000    3.333    0.000    0.000 
#    0.000    1.778    0.000    0.000    0.000    0.000 
#
# Total GULP energy -445994.687089 kJ/mol
# GULP energy per Si atom -12388.741308 kJ/mol
# Density = 1.789414 g / cm^3
# Si number density = 17.934960 Si / 1000 Ang^3
#
#
#
# Elastic Constant Matrix: (Units=GPa)
#
#
# Indices 1 2 3 4 5 6 
#
# 1 156.2160 70.5174 32.5792 0.0000 0.0000 0.0000
# 2 70.5174 109.2296 35.2105 0.0000 0.0000 0.0000
# 3 32.5792 35.2105 73.0845 0.0000 0.0000 0.0000
# 4 0.0000 0.0000 0.0000 15.2195 0.0000 0.0000
# 5 0.0000 0.0000 0.0000 0.0000 88.2451 0.0000
# 6 0.0000 0.0000 0.0000 0.0000 0.0000 31.0085
#
#
#
# Elastic Compliance Matrix: (Units=1/GPa)
#
#
# Indices 1 2 3 4 5 6 
#
# 1 0.009164 -0.005445 -0.001462 0.000000 0.000000 0.000000
# 2 -0.005445 0.014074 -0.004353 0.000000 0.000000 0.000000
# 3 -0.001462 -0.004353 0.016432 0.000000 0.000000 0.000000
# 4 0.000000 0.000000 0.000000 0.065705 0.000000 0.000000
# 5 0.000000 0.000000 0.000000 0.000000 0.011332 0.000000
# 6 0.000000 0.000000 0.000000 0.000000 0.000000 0.032249
#
#
# Mechanical properties :
#
#
# Convention : Reuss Voigt Hill
#
# Bulk Modulus (GPa) = 58.31092 68.34937 63.33015
# Shear Modulus (GPa) = 28.21793 40.24282 34.23037
#
# Velocity S-wave (km/s) = 3.97085 4.74204 4.37347
# Velocity P-wave (km/s) = 7.32165 8.25681 7.80325
#
# Compressibility (1/GPa) = 0.01714945
#
# Stress axis : x y z
#
# Youngs Moduli (GPa) = 109.11983 71.05535 60.85814
#
# Poissons Ratio (x) = 0.38690 0.08897
# Poissons Ratio (y) = 0.59417 0.26492
# Poissons Ratio (z) = 0.15952 0.30931
#
# Static dielectric constant tensor:
#      x y z
#    x 3.591400 0.000000 0.000000 
#    y 0.000000 3.497890 0.000000 
#    z 0.000000 0.000000 3.105700 
# 
# 
# High freq. dielectric constant tensor:
#      x y z
#    x 1.702620 0.000000 0.000000 
#    y 0.000000 1.696440 0.000000 
#    z 0.000000 0.000000 1.656140 
# 
# From -- ./inp_files/7773.got.cif
#   From: 2010.03.12/outbox.cif.g09.slc.cpg/sg65_4_cif.got.tgz:7773.got - 2010.04.10 20:52:16.
