data_PCOD8269360
_publ_section_title
;
Structure prediction by ZEFSAII (Michael W. Deem and Ramdas Pophale) SiO2 
 PCOD8269360
Probable space group: C M M M
;
_chemical_formula_sum "Si O2"
_cell_formula_units_Z 80
_cell_length_a 20.424370
_cell_length_b 18.385073
_cell_length_c 12.101335
_cell_angle_alpha 90.000000
_cell_angle_beta 90.000000
_cell_angle_gamma 90.000000
_cell_volume 4544.094052
_symmetry_space_group_name_H-M "C M M M"
_symmetry_group_IT_number 65
_symmetry_cell_setting 'orthorhombic'
loop_
_space_group_symop_operation_xyz
x,y,z
-x,-y,z
x,-y,-z
-x,y,-z
-x,-y,-z
x,y,-z
-x,y,z
x,-y,z
1/2+x,1/2+y,z
1/2-x,1/2-y,z
1/2+x,1/2-y,-z
1/2-x,1/2+y,-z
1/2-x,1/2-y,-z
1/2+x,1/2+y,-z
1/2-x,1/2+y,z
1/2+x,1/2-y,z
loop_
_atom_site_type_symbol
_atom_site_label
_atom_site_fract_x
_atom_site_fract_y
_atom_site_fract_z
Si Si1 0.402351 0.921218 0.761250
Si Si2 0.928591 0.283786 0.624642
Si Si3 0.306797 0.307622 0.371450
Si Si4 0.426142 0.868400 0.000000
Si Si5 0.753807 0.417514 0.785592
Si Si6 0.782873 0.672603 0.000000
O O1 0.436308 0.856241 0.696648
O O2 0.418369 0.917565 0.891508
O O3 0.325771 0.917444 0.733644
O O4 0.428995 0.000000 0.721180
O O5 0.908627 0.306188 0.500000
O O6 0.874808 0.227890 0.671051
O O7 0.000000 0.245496 0.627325
O O8 0.310133 0.328991 0.500000
O O9 0.250000 0.250000 0.346674
O O10 0.295430 0.380531 0.301706
O O11 0.362410 0.814688 0.000000
O O12 0.500000 0.831719 0.000000
O O13 0.729792 0.500000 0.808427
O O14 0.755762 0.371822 0.896935
O O15 0.750000 0.750000 0.000000
#
# Coordination Sequence:
#
# PCOD8269360 Si02
#       6
#    16  16  16   8  16   8
#     4  10  20  33  50  74 106 141 174 210 255 310
#     4  10  21  35  51  74 104 138 176 218 263 311
#     4  10  19  34  55  76 102 137 176 219 263 308
#     4  10  21  34  49  73 103 138 178 212 245 300
#     4  10  20  34  54  79 107 136 174 218 260 309
#     4  10  21  35  56  78 107 143 173 213 264 309
#
# _framework density 17.605267999999999
#
# number of rings (size 3 to 8) (size 9 to 14) (size 15 to 20)
#    0.000    2.000    2.000    1.800    2.800    5.200 
#    0.000    3.000    0.000    0.600    0.000    2.800 
#    0.000    2.400    0.000    0.000    0.000    0.000 
#
# Total GULP energy -495768.302007 kJ/mol
# GULP energy per Si atom -12394.207550 kJ/mol
# Density = 1.756520 g / cm^3
# Si number density = 17.605268 Si / 1000 Ang^3
#
#
#
# Elastic Constant Matrix: (Units=GPa)
#
#
# Indices 1 2 3 4 5 6 
#
# 1 120.5378 64.6956 36.7707 0.0000 0.0000 0.0000
# 2 64.6956 123.7558 47.0567 0.0000 0.0000 0.0000
# 3 36.7707 47.0567 73.7147 0.0000 0.0000 0.0000
# 4 0.0000 0.0000 0.0000 6.5217 0.0000 0.0000
# 5 0.0000 0.0000 0.0000 0.0000 14.6807 0.0000
# 6 0.0000 0.0000 0.0000 0.0000 0.0000 13.2863
#
#
#
# Elastic Compliance Matrix: (Units=1/GPa)
#
#
# Indices 1 2 3 4 5 6 
#
# 1 0.011896 -0.005233 -0.002594 0.000000 0.000000 0.000000
# 2 -0.005233 0.012972 -0.005671 0.000000 0.000000 0.000000
# 3 -0.002594 -0.005671 0.018480 0.000000 0.000000 0.000000
# 4 0.000000 0.000000 0.000000 0.153335 0.000000 0.000000
# 5 0.000000 0.000000 0.000000 0.000000 0.068117 0.000000
# 6 0.000000 0.000000 0.000000 0.000000 0.000000 0.075266
#
#
# Mechanical properties :
#
#
# Convention : Reuss Voigt Hill
#
# Bulk Modulus (GPa) = 61.14885 68.33940 64.74413
# Shear Modulus (GPa) = 13.42245 18.19674 15.80960
#
# Velocity S-wave (km/s) = 2.76417 3.21845 2.99992
# Velocity P-wave (km/s) = 6.70792 7.26038 6.98961
#
# Compressibility (1/GPa) = 0.01635354
#
# Stress axis : x y z
#
# Youngs Moduli (GPa) = 84.06335 77.08868 54.11371
#
# Poissons Ratio (x) = 0.40337 0.14035
# Poissons Ratio (y) = 0.43986 0.30687
# Poissons Ratio (z) = 0.21803 0.43715
#
# Static dielectric constant tensor:
#      x y z
#    x 3.399840 0.000000 0.000000 
#    y 0.000000 3.129110 0.000000 
#    z 0.000000 0.000000 3.290500 
# 
# 
# High freq. dielectric constant tensor:
#      x y z
#    x 1.677850 0.000000 0.000000 
#    y 0.000000 1.654770 0.000000 
#    z 0.000000 0.000000 1.684650 
# 
# From -- ./inp_files/28586.got.cif
#   From: 2010.03.12/outbox.cif.g09.slc.cpg/sg65_15_cif.got.tgz:28586.got - 2010.04.10 20:52:16.
