data_PCOD8269896
_publ_section_title
;
Structure prediction by ZEFSAII (Michael W. Deem and Ramdas Pophale) SiO2 
 PCOD8269896
Probable space group: C M M M
;
_chemical_formula_sum "Si O2"
_cell_formula_units_Z 96
_cell_length_a 27.237694
_cell_length_b 9.166452
_cell_length_c 24.798600
_cell_angle_alpha 90.000000
_cell_angle_beta 90.000000
_cell_angle_gamma 90.000000
_cell_volume 6191.541221
_symmetry_space_group_name_H-M "C M M M"
_symmetry_group_IT_number 65
_symmetry_cell_setting 'orthorhombic'
loop_
_space_group_symop_operation_xyz
x,y,z
-x,-y,z
x,-y,-z
-x,y,-z
-x,-y,-z
x,y,-z
-x,y,z
x,-y,z
1/2+x,1/2+y,z
1/2-x,1/2-y,z
1/2+x,1/2-y,-z
1/2-x,1/2+y,-z
1/2-x,1/2-y,-z
1/2+x,1/2+y,-z
1/2-x,1/2+y,z
1/2+x,1/2-y,z
loop_
_atom_site_type_symbol
_atom_site_label
_atom_site_fract_x
_atom_site_fract_y
_atom_site_fract_z
Si Si1 0.441618 0.836224 0.940479
Si Si2 0.557153 0.841512 0.558593
Si Si3 0.057916 0.162154 0.839651
Si Si4 0.943124 0.672665 0.731515
Si Si5 0.300216 0.328550 0.561434
Si Si6 0.611485 0.330348 0.361497
O O1 0.500000 0.838232 0.936444
O O2 0.419331 0.731653 0.894259
O O3 0.421682 0.000000 0.931213
O O4 0.425520 0.779835 0.000000
O O5 0.581644 0.816976 0.500000
O O6 0.500000 0.847663 0.551517
O O7 0.568784 0.704933 0.596193
O O8 0.575023 0.000000 0.582229
O O9 0.071312 0.264616 0.789606
O O10 0.000000 0.151084 0.845882
O O11 0.080154 0.000000 0.831379
O O12 0.937207 0.500000 0.732692
O O13 0.902167 0.739248 0.691642
O O14 0.000000 0.714158 0.716095
O O15 0.316723 0.286584 0.500000
O O16 0.291873 0.500000 0.565290
O O17 0.250000 0.250000 0.576762
O O18 0.339062 0.278823 0.607428
O O19 0.612256 0.500000 0.346665
#
# Coordination Sequence:
#
# PCOD8269896 Si02
#       6
#    16  16  16  16  16  16
#     4   8  13  21  33  49  70  98 133 172 212 251
#     4   9  18  31  44  59  81 108 136 163 192 232
#     4   9  16  25  37  53  74 101 135 176 217 249
#     4  10  20  32  44  58  80 112 147 177 205 244
#     4   9  19  35  52  69  87 105 127 159 201 249
#     4  11  21  31  45  65  86 105 130 166 205 243
#
# _framework density 15.505024000000001
#
# number of rings (size 3 to 8) (size 9 to 14) (size 15 to 20)
#    0.000    2.667    0.000    3.500    0.000    8.000 
#    0.000    4.167    0.000    0.000    0.000    0.000 
#    0.000    0.000    0.000    0.000    0.000    0.833 
#
# Total GULP energy -594645.066851 kJ/mol
# GULP energy per Si atom -12388.438893 kJ/mol
# Density = 1.546973 g / cm^3
# Si number density = 15.505024 Si / 1000 Ang^3
#
#
#
# Elastic Constant Matrix: (Units=GPa)
#
#
# Indices 1 2 3 4 5 6 
#
# 1 41.8299 28.4432 40.6878 0.0000 0.0000 0.0000
# 2 28.4432 78.0105 59.1127 0.0000 0.0000 0.0000
# 3 40.6878 59.1127 126.7116 0.0000 0.0000 0.0000
# 4 0.0000 0.0000 0.0000 51.6128 0.0000 0.0000
# 5 0.0000 0.0000 0.0000 0.0000 14.0588 0.0000
# 6 0.0000 0.0000 0.0000 0.0000 0.0000 17.6142
#
#
#
# Elastic Compliance Matrix: (Units=1/GPa)
#
#
# Indices 1 2 3 4 5 6 
#
# 1 0.037051 -0.006951 -0.008655 0.000000 0.000000 0.000000
# 2 -0.006951 0.021132 -0.007626 0.000000 0.000000 0.000000
# 3 -0.008655 -0.007626 0.014229 0.000000 0.000000 0.000000
# 4 0.000000 0.000000 0.000000 0.019375 0.000000 0.000000
# 5 0.000000 0.000000 0.000000 0.000000 0.071130 0.000000
# 6 0.000000 0.000000 0.000000 0.000000 0.000000 0.056773
#
#
# Mechanical properties :
#
#
# Convention : Reuss Voigt Hill
#
# Bulk Modulus (GPa) = 38.53863 55.89326 47.21594
# Shear Modulus (GPa) = 18.19488 24.54439 21.36964
#
# Velocity S-wave (km/s) = 3.42933 3.98300 3.71649
# Velocity P-wave (km/s) = 6.37102 7.56830 6.99532
#
# Compressibility (1/GPa) = 0.02594799
#
# Stress axis : x y z
#
# Youngs Moduli (GPa) = 26.98969 47.32137 70.28015
#
# Poissons Ratio (x) = 0.32894 0.60824
# Poissons Ratio (y) = 0.18761 0.53598
# Poissons Ratio (z) = 0.23358 0.36089
#
# Static dielectric constant tensor:
#      x y z
#    x 2.525120 0.000000 0.000000 
#    y 0.000000 3.206830 0.000000 
#    z 0.000000 0.000000 3.161040 
# 
# 
# High freq. dielectric constant tensor:
#      x y z
#    x 1.525570 0.000000 0.000000 
#    y 0.000000 1.606260 0.000000 
#    z 0.000000 0.000000 1.598600 
# 
# From -- ./inp_files/71690.got.cif
#   From: 2010.03.12/outbox.cif.g09.slc.cpg/sg65_36_cif.got.tgz:71690.got - 2010.04.10 20:52:16.
