data_PCOD8269352
_publ_section_title
;
Structure prediction by ZEFSAII (Michael W. Deem and Ramdas Pophale) SiO2 
 PCOD8269352
Probable space group: C M M M
;
_chemical_formula_sum "Si O2"
_cell_formula_units_Z 68
_cell_length_a 21.497776
_cell_length_b 10.427942
_cell_length_c 16.680385
_cell_angle_alpha 90.000000
_cell_angle_beta 90.000000
_cell_angle_gamma 90.000000
_cell_volume 3739.368030
_symmetry_space_group_name_H-M "C M M M"
_symmetry_group_IT_number 65
_symmetry_cell_setting 'orthorhombic'
loop_
_space_group_symop_operation_xyz
x,y,z
-x,-y,z
x,-y,-z
-x,y,-z
-x,-y,-z
x,y,-z
-x,y,z
x,-y,z
1/2+x,1/2+y,z
1/2-x,1/2-y,z
1/2+x,1/2-y,-z
1/2-x,1/2+y,-z
1/2-x,1/2-y,-z
1/2+x,1/2+y,-z
1/2-x,1/2+y,z
1/2+x,1/2-y,z
loop_
_atom_site_type_symbol
_atom_site_label
_atom_site_fract_x
_atom_site_fract_y
_atom_site_fract_z
Si Si1 0.677122 0.000000 0.750411
Si Si2 0.829531 0.000000 0.000000
Si Si3 0.115107 0.256504 0.171150
Si Si4 0.426394 0.272605 0.000000
Si Si5 0.500000 0.350748 0.740651
Si Si6 0.000000 0.292455 0.410403
Si Si7 0.305026 0.500000 0.830191
Si Si8 0.104031 0.500000 0.408611
O O1 0.652010 0.874606 0.793314
O O2 0.751249 0.000000 0.763732
O O3 0.660626 0.000000 0.655534
O O4 0.782882 0.000000 0.923708
O O5 0.879530 0.111099 0.000000
O O6 0.091129 0.299965 0.082516
O O7 0.057180 0.226970 0.225795
O O8 0.155804 0.128835 0.178088
O O9 0.500000 0.310353 0.000000
O O10 0.500000 0.500000 0.765192
O O11 0.500000 0.333549 0.644874
O O12 0.938369 0.375733 0.394397
O O13 0.000000 0.239268 0.500000
O O14 0.130803 0.500000 0.500000
#
# Coordination Sequence:
#
# PCOD8269352 Si02
#       8
#     8   4  16   8   8   8   8   8
#     4  12  23  38  61  82 120 151 194 242 283 344
#     4   8  19  34  60  78 106 155 210 230 272 344
#     4  11  23  37  58  88 113 156 196 238 293 334
#     4  10  19  34  54  82 119 150 189 243 291 341
#     4  12  21  35  60  86 122 145 187 246 293 348
#     4   9  18  35  58  87 118 144 182 236 299 354
#     4  10  22  41  58  82 111 160 205 236 275 335
#     4   9  18  34  60  87 111 148 189 229 285 358
#
# _framework density 18.184891
#
# number of rings (size 3 to 8) (size 9 to 14) (size 15 to 20)
#    0.000    1.647    4.706    1.588    0.000    2.118 
#    0.000    4.118    0.000    4.235    0.000    0.000 
#    0.000    0.000    0.000    0.000    0.000    0.000 
#
# Total GULP energy -421197.856218 kJ/mol
# GULP energy per Si atom -12388.172242 kJ/mol
# Density = 1.814350 g / cm^3
# Si number density = 18.184891 Si / 1000 Ang^3
#
#
#
# Elastic Constant Matrix: (Units=GPa)
#
#
# Indices 1 2 3 4 5 6 
#
# 1 95.8727 17.7133 55.3765 0.0000 0.0000 0.0000
# 2 17.7133 83.6419 27.5019 0.0000 0.0000 0.0000
# 3 55.3765 27.5019 148.6496 0.0000 0.0000 0.0000
# 4 0.0000 0.0000 0.0000 26.8703 0.0000 0.0000
# 5 0.0000 0.0000 0.0000 0.0000 35.2331 0.0000
# 6 0.0000 0.0000 0.0000 0.0000 0.0000 -158.7345
#
#
#
# Elastic Compliance Matrix: (Units=1/GPa)
#
#
# Indices 1 2 3 4 5 6 
#
# 1 0.013417 -0.001276 -0.004762 0.000000 0.000000 0.000000
# 2 -0.001276 0.012851 -0.001902 0.000000 0.000000 0.000000
# 3 -0.004762 -0.001902 0.008853 0.000000 0.000000 0.000000
# 4 0.000000 0.000000 0.000000 0.037216 0.000000 0.000000
# 5 0.000000 0.000000 0.000000 0.000000 0.028382 0.000000
# 6 0.000000 0.000000 0.000000 0.000000 0.000000 -0.006300
#
#
# Mechanical properties :
#
#
# Convention : Reuss Voigt Hill
#
# Bulk Modulus (GPa) = 51.97208 58.81641 55.39425
# Shear Modulus (GPa) = 42.83978 -4.15471 19.34253
#
# Velocity S-wave (km/s) = 4.85891 -1.51316 3.26492
# Velocity P-wave (km/s) = 7.75375 5.41857 6.68885
#
# Compressibility (1/GPa) = 0.01924110
#
# Stress axis : x y z
#
# Youngs Moduli (GPa) = 74.53326 77.81250 112.95257
#
# Poissons Ratio (x) = 0.09925 0.53790
# Poissons Ratio (y) = 0.09507 0.21489
# Poissons Ratio (z) = 0.35494 0.14804
#
# Static dielectric constant tensor:
#      x y z
#    x 3.297810 0.000000 0.000000 
#    y 0.000000 3.197130 0.000000 
#    z 0.000000 0.000000 3.705560 
# 
# 
# High freq. dielectric constant tensor:
#      x y z
#    x 1.692280 0.000000 0.000000 
#    y 0.000000 1.697150 0.000000 
#    z 0.000000 0.000000 1.716340 
# 
# From -- ./inp_files/43833.got.cif
#   From: 2010.03.12/outbox.cif.g09.slc.cpg/sg65_22_cif.got.tgz:43833.got - 2010.04.10 20:52:16.
