data_PCOD8269330
_publ_section_title
;
Structure prediction by ZEFSAII (Michael W. Deem and Ramdas Pophale) SiO2 
 PCOD8269330
Probable space group: C M M M
;
_chemical_formula_sum "Si O2"
_cell_formula_units_Z 88
_cell_length_a 16.997113
_cell_length_b 16.902627
_cell_length_c 16.457943
_cell_angle_alpha 90.000000
_cell_angle_beta 90.000000
_cell_angle_gamma 90.000000
_cell_volume 4728.298906
_symmetry_space_group_name_H-M "C M M M"
_symmetry_group_IT_number 65
_symmetry_cell_setting 'orthorhombic'
loop_
_space_group_symop_operation_xyz
x,y,z
-x,-y,z
x,-y,-z
-x,y,-z
-x,-y,-z
x,y,-z
-x,y,z
x,-y,z
1/2+x,1/2+y,z
1/2-x,1/2-y,z
1/2+x,1/2-y,-z
1/2-x,1/2+y,-z
1/2-x,1/2-y,-z
1/2+x,1/2+y,-z
1/2-x,1/2+y,z
1/2+x,1/2-y,z
loop_
_atom_site_type_symbol
_atom_site_label
_atom_site_fract_x
_atom_site_fract_y
_atom_site_fract_z
Si Si1 0.154332 0.827873 0.592855
Si Si2 0.089804 0.344315 0.408432
Si Si3 0.215453 0.589441 0.305481
Si Si4 0.191259 0.177448 0.000000
Si Si5 0.593010 0.180137 0.000000
Si Si6 0.500000 0.588668 0.596612
Si Si7 0.706508 0.093665 0.881140
O O1 0.170861 0.855139 0.500000
O O2 0.141231 0.734839 0.596599
O O3 0.227091 0.851481 0.648090
O O4 0.077609 0.869651 0.630466
O O5 0.092458 0.378096 0.500000
O O6 0.129318 0.406664 0.347228
O O7 0.000000 0.328074 0.382067
O O8 0.247361 0.500000 0.311354
O O9 0.208110 0.616843 0.212875
O O10 0.250000 0.250000 0.000000
O O11 0.210738 0.123455 0.920890
O O12 0.106904 0.222917 0.000000
O O13 0.632156 0.138754 0.921117
O O14 0.500000 0.164822 0.000000
O O15 0.500000 0.500000 0.628684
O O16 0.500000 0.595969 0.500000
O O17 0.697135 0.000000 0.894864
#
# Coordination Sequence:
#
# PCOD8269330 Si02
#       7
#    16  16  16   8   8   8  16
#     4  10  19  34  54  76 103 138 184 232 278 326
#     4  10  21  37  53  71 102 144 187 227 274 328
#     4  11  23  35  52  80 109 140 183 226 266 315
#     4   8  16  33  58  80 104 133 165 202 250 314
#     4  10  20  34  58  90 112 130 166 216 262 310
#     4   9  16  28  50  76 101 130 168 224 284 324
#     4   9  19  36  56  78 107 144 175 208 256 314
#
# _framework density 18.611345
#
# number of rings (size 3 to 8) (size 9 to 14) (size 15 to 20)
#    0.000    2.455    0.909    2.727    0.000    9.818 
#    0.000    2.727    2.000    1.091    0.000    0.000 
#    0.000    0.000    0.000    0.000    0.000    0.000 
#
# Total GULP energy -545387.395238 kJ/mol
# GULP energy per Si atom -12395.168074 kJ/mol
# Density = 1.856898 g / cm^3
# Si number density = 18.611345 Si / 1000 Ang^3
#
#
#
# Elastic Constant Matrix: (Units=GPa)
#
#
# Indices 1 2 3 4 5 6 
#
# 1 104.5882 36.1807 59.0194 0.0000 0.0000 0.0000
# 2 36.1807 60.6308 35.6588 0.0000 0.0000 0.0000
# 3 59.0194 35.6588 124.0949 0.0000 0.0000 0.0000
# 4 0.0000 0.0000 0.0000 18.5342 0.0000 0.0000
# 5 0.0000 0.0000 0.0000 0.0000 2.5469 0.0000
# 6 0.0000 0.0000 0.0000 0.0000 0.0000 25.9598
#
#
#
# Elastic Compliance Matrix: (Units=1/GPa)
#
#
# Indices 1 2 3 4 5 6 
#
# 1 0.014454 -0.005514 -0.005290 0.000000 0.000000 0.000000
# 2 -0.005514 0.021951 -0.003685 0.000000 0.000000 0.000000
# 3 -0.005290 -0.003685 0.011633 0.000000 0.000000 0.000000
# 4 0.000000 0.000000 0.000000 0.053954 0.000000 0.000000
# 5 0.000000 0.000000 0.000000 0.000000 0.392641 0.000000
# 6 0.000000 0.000000 0.000000 0.000000 0.000000 0.038521
#
#
# Mechanical properties :
#
#
# Convention : Reuss Voigt Hill
#
# Bulk Modulus (GPa) = 52.46593 61.22574 56.84583
# Shear Modulus (GPa) = 8.79530 19.97184 14.38357
#
# Velocity S-wave (km/s) = 2.17624 3.27937 2.78301
# Velocity P-wave (km/s) = 5.87930 6.87804 6.39819
#
# Compressibility (1/GPa) = 0.01905999
#
# Stress axis : x y z
#
# Youngs Moduli (GPa) = 69.18563 45.55581 85.96166
#
# Poissons Ratio (x) = 0.25120 0.45472
# Poissons Ratio (y) = 0.38150 0.31678
# Poissons Ratio (z) = 0.36598 0.16788
#
# Static dielectric constant tensor:
#      x y z
#    x 3.586090 0.000000 0.000000 
#    y 0.000000 3.634420 0.000000 
#    z 0.000000 0.000000 3.397240 
# 
# 
# High freq. dielectric constant tensor:
#      x y z
#    x 1.712470 0.000000 0.000000 
#    y 0.000000 1.728600 0.000000 
#    z 0.000000 0.000000 1.703770 
# 
# From -- ./inp_files/54388.got.cif
#   From: 2010.03.12/outbox.cif.g09.slc.cpg/sg65_28_cif.got.tgz:54388.got - 2010.04.10 20:52:16.
