data_PCOD8269864
_publ_section_title
;
Structure prediction by ZEFSAII (Michael W. Deem and Ramdas Pophale) SiO2 
 PCOD8269864
Probable space group: C M M M
;
_chemical_formula_sum "Si O2"
_cell_formula_units_Z 80
_cell_length_a 23.365686
_cell_length_b 9.010675
_cell_length_c 23.633630
_cell_angle_alpha 90.000000
_cell_angle_beta 90.000000
_cell_angle_gamma 90.000000
_cell_volume 4975.838704
_symmetry_space_group_name_H-M "C M M M"
_symmetry_group_IT_number 65
_symmetry_cell_setting 'orthorhombic'
loop_
_space_group_symop_operation_xyz
x,y,z
-x,-y,z
x,-y,-z
-x,y,-z
-x,-y,-z
x,y,-z
-x,y,z
x,-y,z
1/2+x,1/2+y,z
1/2-x,1/2-y,z
1/2+x,1/2-y,-z
1/2-x,1/2+y,-z
1/2-x,1/2-y,-z
1/2+x,1/2+y,-z
1/2-x,1/2+y,z
1/2+x,1/2-y,z
loop_
_atom_site_type_symbol
_atom_site_label
_atom_site_fract_x
_atom_site_fract_y
_atom_site_fract_z
Si Si1 0.500000 0.824043 0.934877
Si Si2 0.112962 0.824998 0.895002
Si Si3 0.810617 0.827677 0.791675
Si Si4 0.188458 0.673264 0.438524
Si Si5 0.689656 0.326802 0.000000
Si Si6 0.311218 0.326840 0.333111
O O1 0.445635 0.762779 0.901483
O O2 0.500000 0.000000 0.932490
O O3 0.500000 0.767421 0.000000
O O4 0.142391 0.773070 0.836561
O O5 0.100045 0.000000 0.896360
O O6 0.154878 0.776178 0.945144
O O7 0.750000 0.750000 0.801514
O O8 0.837932 0.798122 0.729130
O O9 0.797685 0.000000 0.800602
O O10 0.157885 0.698030 0.500000
O O11 0.195699 0.500000 0.426043
O O12 0.250000 0.750000 0.441270
O O13 0.154007 0.749491 0.385619
O O14 0.750000 0.250000 0.000000
O O15 0.700921 0.500000 0.000000
O O16 0.305587 0.500000 0.346012
O O17 0.250000 0.250000 0.331463
#
# Coordination Sequence:
#
# PCOD8269864 Si02
#       6
#     8  16  16  16   8  16
#     4  11  23  37  53  73  91 111 144 187 228 265
#     4  10  20  35  52  69  90 119 150 179 219 270
#     4   9  18  30  45  66  91 118 149 183 220 265
#     4   9  15  21  30  46  69 100 140 181 215 248
#     4  10  20  31  48  71  93 118 146 176 215 260
#     4   9  15  23  35  52  76 107 141 176 213 253
#
# _framework density 16.077691999999999
#
# number of rings (size 3 to 8) (size 9 to 14) (size 15 to 20)
#    0.000    2.500    1.000    3.300    0.000    4.000 
#    0.000    0.000    0.000    0.000    0.000    0.000 
#    0.000    0.000    0.000    0.900    0.000   19.200 
#
# Total GULP energy -495596.288057 kJ/mol
# GULP energy per Si atom -12389.907201 kJ/mol
# Density = 1.604110 g / cm^3
# Si number density = 16.077692 Si / 1000 Ang^3
#
#
#
# Elastic Constant Matrix: (Units=GPa)
#
#
# Indices 1 2 3 4 5 6 
#
# 1 77.2603 34.1001 53.3260 0.0000 0.0000 0.0000
# 2 34.1001 74.7914 58.8377 0.0000 0.0000 0.0000
# 3 53.3260 58.8377 178.2063 0.0000 0.0000 0.0000
# 4 0.0000 0.0000 0.0000 24.7085 0.0000 0.0000
# 5 0.0000 0.0000 0.0000 0.0000 46.8179 0.0000
# 6 0.0000 0.0000 0.0000 0.0000 0.0000 20.0807
#
#
#
# Elastic Compliance Matrix: (Units=1/GPa)
#
#
# Indices 1 2 3 4 5 6 
#
# 1 0.017734 -0.005283 -0.003562 0.000000 0.000000 0.000000
# 2 -0.005283 0.019636 -0.004902 0.000000 0.000000 0.000000
# 3 -0.003562 -0.004902 0.008296 0.000000 0.000000 0.000000
# 4 0.000000 0.000000 0.000000 0.040472 0.000000 0.000000
# 5 0.000000 0.000000 0.000000 0.000000 0.021359 0.000000
# 6 0.000000 0.000000 0.000000 0.000000 0.000000 0.049799
#
#
# Mechanical properties :
#
#
# Convention : Reuss Voigt Hill
#
# Bulk Modulus (GPa) = 55.03446 69.19842 62.11644
# Shear Modulus (GPa) = 26.19889 30.58769 28.39329
#
# Velocity S-wave (km/s) = 4.04111 4.36649 4.20695
# Velocity P-wave (km/s) = 7.48857 8.27980 7.89411
#
# Compressibility (1/GPa) = 0.01817043
#
# Stress axis : x y z
#
# Youngs Moduli (GPa) = 56.38955 50.92754 120.54003
#
# Poissons Ratio (x) = 0.26905 0.42940
# Poissons Ratio (y) = 0.29791 0.59091
# Poissons Ratio (z) = 0.20088 0.24966
#
# Static dielectric constant tensor:
#      x y z
#    x 2.480570 0.000000 0.000000 
#    y 0.000000 3.110910 0.000000 
#    z 0.000000 0.000000 4.432610 
# 
# 
# High freq. dielectric constant tensor:
#      x y z
#    x 1.545630 0.000000 0.000000 
#    y 0.000000 1.627250 0.000000 
#    z 0.000000 0.000000 1.647170 
# 
# From -- ./inp_files/71357.got.cif
#   From: 2010.03.12/outbox.cif.g09.slc.cpg/sg65_36_cif.got.tgz:71357.got - 2010.04.10 20:52:16.
