data_PCOD8269285
_publ_section_title
;
Structure prediction by ZEFSAII (Michael W. Deem and Ramdas Pophale) SiO2 
 PCOD8269285
Probable space group: C M M M
;
_chemical_formula_sum "Si O2"
_cell_formula_units_Z 72
_cell_length_a 18.435526
_cell_length_b 18.927150
_cell_length_c 11.897691
_cell_angle_alpha 90.000000
_cell_angle_beta 90.000000
_cell_angle_gamma 90.000000
_cell_volume 4151.484711
_symmetry_space_group_name_H-M "C M M M"
_symmetry_group_IT_number 65
_symmetry_cell_setting 'orthorhombic'
loop_
_space_group_symop_operation_xyz
x,y,z
-x,-y,z
x,-y,-z
-x,y,-z
-x,-y,-z
x,y,-z
-x,y,z
x,-y,z
1/2+x,1/2+y,z
1/2-x,1/2-y,z
1/2+x,1/2-y,-z
1/2-x,1/2+y,-z
1/2-x,1/2-y,-z
1/2+x,1/2+y,-z
1/2-x,1/2+y,z
1/2+x,1/2-y,z
loop_
_atom_site_type_symbol
_atom_site_label
_atom_site_fract_x
_atom_site_fract_y
_atom_site_fract_z
Si Si1 0.918831 0.833244 0.500000
Si Si2 0.081222 0.000000 0.133394
Si Si3 0.155340 0.143107 0.867146
Si Si4 0.777047 0.673460 0.700350
Si Si5 0.418124 0.755660 0.275466
Si Si6 0.776874 0.916675 0.500000
O O1 0.905982 0.785436 0.608566
O O2 0.861950 0.897215 0.500000
O O3 0.000000 0.865429 0.500000
O O4 0.123741 0.068672 0.176412
O O5 0.000000 0.000000 0.184401
O O6 0.076675 0.000000 0.000000
O O7 0.234681 0.154090 0.814475
O O8 0.099734 0.203534 0.827634
O O9 0.163365 0.145984 0.000000
O O10 0.750000 0.750000 0.655728
O O11 0.863125 0.677747 0.726844
O O12 0.763354 0.613915 0.608581
O O13 0.500000 0.784116 0.263226
O O14 0.768345 0.000000 0.500000
#
# Coordination Sequence:
#
# PCOD8269285 Si02
#       6
#     8   8  16  16  16   8
#     4  10  19  34  52  77 108 138 174 208 257 318
#     4   9  18  32  48  69 106 146 169 199 253 315
#     4  10  20  32  51  79 109 143 180 213 255 318
#     4  10  20  35  56  74 107 142 177 220 266 314
#     4  10  20  34  55  76 101 139 178 222 267 312
#     4  12  22  35  56  81 106 139 181 220 262 322
#
# _framework density 17.343192999999999
#
# number of rings (size 3 to 8) (size 9 to 14) (size 15 to 20)
#    0.000    1.889    4.444    1.667    1.556    5.556 
#    0.000    0.000    0.000    1.333    0.000    0.000 
#    0.000    2.667    0.000    0.000    0.000    0.000 
#
# Total GULP energy -446401.773870 kJ/mol
# GULP energy per Si atom -12400.049274 kJ/mol
# Density = 1.730372 g / cm^3
# Si number density = 17.343193 Si / 1000 Ang^3
#
#
#
# Elastic Constant Matrix: (Units=GPa)
#
#
# Indices 1 2 3 4 5 6 
#
# 1 175.3192 72.5609 46.0130 0.0000 0.0000 0.0000
# 2 72.5609 99.0310 37.9825 0.0000 0.0000 0.0000
# 3 46.0130 37.9825 90.6035 0.0000 0.0000 0.0000
# 4 0.0000 0.0000 0.0000 28.3385 0.0000 0.0000
# 5 0.0000 0.0000 0.0000 0.0000 19.7444 0.0000
# 6 0.0000 0.0000 0.0000 0.0000 0.0000 24.2936
#
#
#
# Elastic Compliance Matrix: (Units=1/GPa)
#
#
# Indices 1 2 3 4 5 6 
#
# 1 0.008489 -0.005441 -0.002030 0.000000 0.000000 0.000000
# 2 -0.005441 0.015520 -0.003743 0.000000 0.000000 0.000000
# 3 -0.002030 -0.003743 0.013637 0.000000 0.000000 0.000000
# 4 0.000000 0.000000 0.000000 0.035288 0.000000 0.000000
# 5 0.000000 0.000000 0.000000 0.000000 0.050647 0.000000
# 6 0.000000 0.000000 0.000000 0.000000 0.000000 0.041163
#
#
# Mechanical properties :
#
#
# Convention : Reuss Voigt Hill
#
# Bulk Modulus (GPa) = 65.71269 75.34073 70.52671
# Shear Modulus (GPa) = 26.00849 28.36845 27.18847
#
# Velocity S-wave (km/s) = 3.87672 4.04878 3.96368
# Velocity P-wave (km/s) = 7.61646 8.08655 7.85502
#
# Compressibility (1/GPa) = 0.01521776
#
# Stress axis : x y z
#
# Youngs Moduli (GPa) = 117.80499 64.43207 73.32908
#
# Poissons Ratio (x) = 0.35058 0.14885
# Poissons Ratio (y) = 0.64099 0.27448
# Poissons Ratio (z) = 0.23914 0.24117
#
# Static dielectric constant tensor:
#      x y z
#    x 3.527750 0.000000 0.000000 
#    y 0.000000 3.091750 0.000000 
#    z 0.000000 0.000000 3.162980 
# 
# 
# High freq. dielectric constant tensor:
#      x y z
#    x 1.675260 0.000000 0.000000 
#    y 0.000000 1.638420 0.000000 
#    z 0.000000 0.000000 1.672460 
# 
# From -- ./inp_files/26587.got.cif
#   From: 2010.03.12/outbox.cif.g09.slc.cpg/sg65_14_cif.got.tgz:26587.got - 2010.04.10 20:52:16.
