data_PCOD8269233
_publ_section_title
;
Structure prediction by ZEFSAII (Michael W. Deem and Ramdas Pophale) SiO2 
 PCOD8269233
Probable space group: C M M M
;
_chemical_formula_sum "Si O2"
_cell_formula_units_Z 48
_cell_length_a 8.793962
_cell_length_b 33.852265
_cell_length_c 7.816996
_cell_angle_alpha 90.000000
_cell_angle_beta 90.000000
_cell_angle_gamma 90.000000
_cell_volume 2327.084783
_symmetry_space_group_name_H-M "C M M M"
_symmetry_group_IT_number 65
_symmetry_cell_setting 'orthorhombic'
loop_
_space_group_symop_operation_xyz
x,y,z
-x,-y,z
x,-y,-z
-x,y,-z
-x,-y,-z
x,y,-z
-x,y,z
x,-y,z
1/2+x,1/2+y,z
1/2-x,1/2-y,z
1/2+x,1/2-y,-z
1/2-x,1/2+y,-z
1/2-x,1/2-y,-z
1/2+x,1/2+y,-z
1/2-x,1/2+y,z
1/2+x,1/2-y,z
loop_
_atom_site_type_symbol
_atom_site_label
_atom_site_fract_x
_atom_site_fract_y
_atom_site_fract_z
Si Si1 0.679886 0.500000 0.693959
Si Si2 0.324510 0.839972 0.306859
Si Si3 0.320664 0.292921 0.000000
Si Si4 0.673737 0.583997 0.195984
O O1 0.500000 0.500000 0.712565
O O2 0.735419 0.500000 0.500000
O O3 0.742058 0.460210 0.783379
O O4 0.298820 0.823854 0.500000
O O5 0.500000 0.836858 0.253873
O O6 0.227108 0.815032 0.173025
O O7 0.274087 0.885693 0.304401
O O8 0.250000 0.250000 0.000000
O O9 0.500000 0.289325 0.000000
O O10 0.500000 0.585527 0.263428
O O11 0.681881 0.597128 0.000000
#
# Coordination Sequence:
#
# PCOD8269233 Si02
#       4
#     8  16   8  16
#     4   9  17  29  48  79 120 163 211 264 312 365
#     4  11  24  42  65  94 130 170 210 256 310 372
#     4  12  26  46  72  99 128 163 202 254 311 372
#     4  10  19  33  56  86 120 164 214 264 314 367
#
# _framework density 20.626664999999999
#
# number of rings (size 3 to 8) (size 9 to 14) (size 15 to 20)
#    0.000    1.500    1.667    4.000    0.000    6.667 
#    0.000    0.833    0.000    5.000    0.000    0.000 
#    0.000    0.000    0.000    0.000    0.000    0.000 
#
# Total GULP energy -297627.533969 kJ/mol
# GULP energy per Si atom -12401.147249 kJ/mol
# Density = 2.057972 g / cm^3
# Si number density = 20.626665 Si / 1000 Ang^3
#
#
#
# Elastic Constant Matrix: (Units=GPa)
#
#
# Indices 1 2 3 4 5 6 
#
# 1 117.1138 55.2068 51.2810 0.0000 0.0000 0.0000
# 2 55.2068 133.4427 49.4254 0.0000 0.0000 0.0000
# 3 51.2810 49.4254 107.8546 0.0000 0.0000 0.0000
# 4 0.0000 0.0000 0.0000 19.3431 0.0000 0.0000
# 5 0.0000 0.0000 0.0000 0.0000 26.7655 0.0000
# 6 0.0000 0.0000 0.0000 0.0000 0.0000 30.9683
#
#
#
# Elastic Compliance Matrix: (Units=1/GPa)
#
#
# Indices 1 2 3 4 5 6 
#
# 1 0.011953 -0.003421 -0.004116 0.000000 0.000000 0.000000
# 2 -0.003421 0.010005 -0.002958 0.000000 0.000000 0.000000
# 3 -0.004116 -0.002958 0.012584 0.000000 0.000000 0.000000
# 4 0.000000 0.000000 0.000000 0.051698 0.000000 0.000000
# 5 0.000000 0.000000 0.000000 0.000000 0.037362 0.000000
# 6 0.000000 0.000000 0.000000 0.000000 0.000000 0.032291
#
#
# Mechanical properties :
#
#
# Convention : Reuss Voigt Hill
#
# Bulk Modulus (GPa) = 73.78613 74.47084 74.12849
# Shear Modulus (GPa) = 27.56327 28.91524 28.23926
#
# Velocity S-wave (km/s) = 3.65950 3.74817 3.70410
# Velocity P-wave (km/s) = 7.32842 7.41042 7.36953
#
# Compressibility (1/GPa) = 0.01355268
#
# Stress axis : x y z
#
# Youngs Moduli (GPa) = 83.65767 99.95187 79.46382
#
# Poissons Ratio (x) = 0.34192 0.32706
# Poissons Ratio (y) = 0.28618 0.23508
# Poissons Ratio (z) = 0.34432 0.29569
#
# Static dielectric constant tensor:
#      x y z
#    x 3.528540 0.000000 0.000000 
#    y 0.000000 3.955120 0.000000 
#    z 0.000000 0.000000 3.765060 
# 
# 
# High freq. dielectric constant tensor:
#      x y z
#    x 1.782030 0.000000 0.000000 
#    y 0.000000 1.813700 0.000000 
#    z 0.000000 0.000000 1.817290 
# 
# From -- ./inp_files/3096.got.cif
#   From: 2010.03.12/outbox.cif.g09.slc.cpg/sg65_2_cif.got.tgz:3096.got - 2010.04.10 20:52:16.
