data_PCOD8269598
_publ_section_title
;
Structure prediction by ZEFSAII (Michael W. Deem and Ramdas Pophale) SiO2 
 PCOD8269598
Probable space group: C M M M
;
_chemical_formula_sum "Si O2"
_cell_formula_units_Z 72
_cell_length_a 27.656575
_cell_length_b 11.859719
_cell_length_c 12.658940
_cell_angle_alpha 90.000000
_cell_angle_beta 90.000000
_cell_angle_gamma 90.000000
_cell_volume 4152.122294
_symmetry_space_group_name_H-M "C M M M"
_symmetry_group_IT_number 65
_symmetry_cell_setting 'orthorhombic'
loop_
_space_group_symop_operation_xyz
x,y,z
-x,-y,z
x,-y,-z
-x,y,-z
-x,-y,-z
x,y,-z
-x,y,z
x,-y,z
1/2+x,1/2+y,z
1/2-x,1/2-y,z
1/2+x,1/2-y,-z
1/2-x,1/2+y,-z
1/2-x,1/2-y,-z
1/2+x,1/2+y,-z
1/2-x,1/2+y,z
1/2+x,1/2-y,z
loop_
_atom_site_type_symbol
_atom_site_label
_atom_site_fract_x
_atom_site_fract_y
_atom_site_fract_z
Si Si1 0.805006 0.267318 0.376140
Si Si2 0.055054 0.500000 0.227344
Si Si3 0.944431 0.735798 0.878981
Si Si4 0.645029 0.000000 0.377317
Si Si5 0.945813 0.865738 0.500000
Si Si6 0.110644 0.133324 0.704880
O O1 0.811319 0.242427 0.500000
O O2 0.750000 0.250000 0.340885
O O3 0.823125 0.391911 0.345406
O O4 0.834841 0.175891 0.309337
O O5 0.064431 0.607469 0.154200
O O6 0.092865 0.500000 0.322665
O O7 0.000000 0.500000 0.272291
O O8 0.911765 0.820262 0.812085
O O9 0.000000 0.770713 0.862264
O O10 0.928739 0.749351 0.000000
O O11 0.633111 0.000000 0.500000
O O12 0.919771 0.819352 0.604821
O O13 0.000000 0.817782 0.500000
O O14 0.945229 0.000000 0.500000
O O15 0.110158 0.000000 0.709805
#
# Coordination Sequence:
#
# PCOD8269598 Si02
#       6
#    16   8  16   8   8  16
#     4  10  21  36  56  81 113 148 184 229 277 328
#     4  10  19  35  58  83 113 149 188 227 274 333
#     4  10  21  37  57  81 110 147 190 232 273 323
#     4  10  20  36  55  86 118 145 184 226 279 336
#     4   9  18  32  49  73 109 147 177 210 261 336
#     4  11  21  34  54  81 111 146 184 224 277 331
#
# _framework density 17.340530000000001
#
# number of rings (size 3 to 8) (size 9 to 14) (size 15 to 20)
#    0.000    1.889    3.333    1.000    1.556    3.333 
#    0.000    1.111    0.000    0.667    0.000    0.000 
#    0.000    0.000    0.000    0.000    0.000    0.000 
#
# Total GULP energy -446513.536783 kJ/mol
# GULP energy per Si atom -12403.153800 kJ/mol
# Density = 1.730106 g / cm^3
# Si number density = 17.340530 Si / 1000 Ang^3
#
#
#
# Elastic Constant Matrix: (Units=GPa)
#
#
# Indices 1 2 3 4 5 6 
#
# 1 144.2819 59.5090 72.1391 0.0000 0.0000 0.0000
# 2 59.5090 101.2436 50.6081 0.0000 0.0000 0.0000
# 3 72.1391 50.6081 101.7812 0.0000 0.0000 0.0000
# 4 0.0000 0.0000 0.0000 21.2183 0.0000 0.0000
# 5 0.0000 0.0000 0.0000 0.0000 21.6077 0.0000
# 6 0.0000 0.0000 0.0000 0.0000 0.0000 19.2370
#
#
#
# Elastic Compliance Matrix: (Units=1/GPa)
#
#
# Indices 1 2 3 4 5 6 
#
# 1 0.011654 -0.003621 -0.006459 0.000000 0.000000 0.000000
# 2 -0.003621 0.014269 -0.004528 0.000000 0.000000 0.000000
# 3 -0.006459 -0.004528 0.016655 0.000000 0.000000 0.000000
# 4 0.000000 0.000000 0.000000 0.047129 0.000000 0.000000
# 5 0.000000 0.000000 0.000000 0.000000 0.046280 0.000000
# 6 0.000000 0.000000 0.000000 0.000000 0.000000 0.051983
#
#
# Mechanical properties :
#
#
# Convention : Reuss Voigt Hill
#
# Bulk Modulus (GPa) = 74.85018 79.09101 76.97060
# Shear Modulus (GPa) = 22.55890 23.41596 22.98743
#
# Velocity S-wave (km/s) = 3.61076 3.67871 3.64489
# Velocity P-wave (km/s) = 7.78730 7.98457 7.88655
#
# Compressibility (1/GPa) = 0.01336002
#
# Stress axis : x y z
#
# Youngs Moduli (GPa) = 85.80682 70.08089 60.04235
#
# Poissons Ratio (x) = 0.25377 0.38784
# Poissons Ratio (y) = 0.31072 0.27190
# Poissons Ratio (z) = 0.55427 0.31736
#
# Static dielectric constant tensor:
#      x y z
#    x 3.264100 0.000000 0.000000 
#    y 0.000000 3.227330 0.000000 
#    z 0.000000 0.000000 3.121960 
# 
# 
# High freq. dielectric constant tensor:
#      x y z
#    x 1.668360 0.000000 0.000000 
#    y 0.000000 1.676200 0.000000 
#    z 0.000000 0.000000 1.650760 
# 
# From -- ./inp_files/32009.got.cif
#   From: 2010.03.12/outbox.cif.g09.slc.cpg/sg65_17_cif.got.tgz:32009.got - 2010.04.10 20:52:16.
