data_PCOD8269073
_publ_section_title
;
Structure prediction by ZEFSAII (Michael W. Deem and Ramdas Pophale) SiO2 
 PCOD8269073
Probable space group: C M M M
;
_chemical_formula_sum "Si O2"
_cell_formula_units_Z 104
_cell_length_a 22.318368
_cell_length_b 26.459092
_cell_length_c 10.098068
_cell_angle_alpha 90.000000
_cell_angle_beta 90.000000
_cell_angle_gamma 90.000000
_cell_volume 5963.149005
_symmetry_space_group_name_H-M "C M M M"
_symmetry_group_IT_number 65
_symmetry_cell_setting 'orthorhombic'
loop_
_space_group_symop_operation_xyz
x,y,z
-x,-y,z
x,-y,-z
-x,y,-z
-x,-y,-z
x,y,-z
-x,y,z
x,-y,z
1/2+x,1/2+y,z
1/2-x,1/2-y,z
1/2+x,1/2-y,-z
1/2-x,1/2+y,-z
1/2-x,1/2-y,-z
1/2+x,1/2+y,-z
1/2-x,1/2+y,z
1/2+x,1/2-y,z
loop_
_atom_site_type_symbol
_atom_site_label
_atom_site_fract_x
_atom_site_fract_y
_atom_site_fract_z
Si Si1 0.372731 0.118441 0.148231
Si Si2 0.068466 0.189028 0.348534
Si Si3 0.931453 0.277973 0.149457
Si Si4 0.853518 0.091373 0.655065
Si Si5 0.934654 0.000000 0.656174
Si Si6 0.751107 0.440447 0.153077
Si Si7 0.430461 0.054612 0.642384
O O1 0.381028 0.178559 0.167962
O O2 0.307980 0.095429 0.180704
O O3 0.420339 0.094914 0.245561
O O4 0.391199 0.103282 0.000000
O O5 0.075317 0.207412 0.500000
O O6 0.085913 0.234608 0.252437
O O7 0.115110 0.144681 0.317968
O O8 0.000000 0.170616 0.323168
O O9 0.000000 0.297233 0.175554
O O10 0.927059 0.256425 0.000000
O O11 0.835832 0.085083 0.500000
O O12 0.900119 0.049408 0.703159
O O13 0.796297 0.083940 0.747360
O O14 0.941676 0.000000 0.500000
O O15 0.000000 0.000000 0.723640
O O16 0.763337 0.500000 0.185165
O O17 0.730454 0.435078 0.000000
O O18 0.403315 0.072262 0.500000
O O19 0.500000 0.047896 0.625315
O O20 0.402131 0.000000 0.680902
#
# Coordination Sequence:
#
# PCOD8269073 Si02
#       7
#    16  16  16  16   8  16  16
#     4  10  20  34  52  73  97 133 181 222 256 300
#     4   9  18  33  54  80 107 133 164 205 256 313
#     4   9  18  33  53  77 103 131 168 215 263 309
#     4  10  19  33  54  79 104 134 171 208 251 306
#     4   9  16  28  51  81 107 129 160 205 252 301
#     4  10  21  36  52  72 103 140 175 215 261 305
#     4   9  18  31  46  69 101 131 161 207 268 323
#
# _framework density 17.440449999999998
#
# number of rings (size 3 to 8) (size 9 to 14) (size 15 to 20)
#    0.000    2.538    0.769    1.846    0.000    5.538 
#    0.000    3.077    0.000    6.462    0.000    0.000 
#    0.000    0.000    0.000    0.000    0.000    0.000 
#
# Total GULP energy -644355.134784 kJ/mol
# GULP energy per Si atom -12391.444900 kJ/mol
# Density = 1.740075 g / cm^3
# Si number density = 17.440450 Si / 1000 Ang^3
#
#
#
# Elastic Constant Matrix: (Units=GPa)
#
#
# Indices 1 2 3 4 5 6 
#
# 1 80.3027 61.5265 53.5321 0.0000 0.0000 0.0000
# 2 61.5265 120.8690 74.2241 0.0000 0.0000 0.0000
# 3 53.5321 74.2241 98.1437 0.0000 0.0000 0.0000
# 4 0.0000 0.0000 0.0000 32.4670 0.0000 0.0000
# 5 0.0000 0.0000 0.0000 0.0000 28.8359 0.0000
# 6 0.0000 0.0000 0.0000 0.0000 0.0000 35.5752
#
#
#
# Elastic Compliance Matrix: (Units=1/GPa)
#
#
# Indices 1 2 3 4 5 6 
#
# 1 0.022591 -0.007343 -0.006769 0.000000 0.000000 0.000000
# 2 -0.007343 0.017834 -0.009483 0.000000 0.000000 0.000000
# 3 -0.006769 -0.009483 0.021053 0.000000 0.000000 0.000000
# 4 0.000000 0.000000 0.000000 0.030800 0.000000 0.000000
# 5 0.000000 0.000000 0.000000 0.000000 0.034679 0.000000
# 6 0.000000 0.000000 0.000000 0.000000 0.000000 0.028109
#
#
# Mechanical properties :
#
#
# Convention : Reuss Voigt Hill
#
# Bulk Modulus (GPa) = 69.98226 75.32007 72.65117
# Shear Modulus (GPa) = 24.15230 26.71115 25.43173
#
# Velocity S-wave (km/s) = 3.72539 3.91776 3.82279
# Velocity P-wave (km/s) = 7.66278 7.98411 7.82509
#
# Compressibility (1/GPa) = 0.01428933
#
# Stress axis : x y z
#
# Youngs Moduli (GPa) = 44.26461 56.07144 47.49988
#
# Poissons Ratio (x) = 0.41174 0.32153
# Poissons Ratio (y) = 0.32504 0.45042
# Poissons Ratio (z) = 0.29963 0.53170
#
# Static dielectric constant tensor:
#      x y z
#    x 3.152270 0.000000 0.000000 
#    y 0.000000 3.198280 0.000000 
#    z 0.000000 0.000000 3.339670 
# 
# 
# High freq. dielectric constant tensor:
#      x y z
#    x 1.658270 0.000000 0.000000 
#    y 0.000000 1.669900 0.000000 
#    z 0.000000 0.000000 1.677280 
# 
# From -- ./inp_files/14810.got.cif
#   From: 2010.03.12/outbox.cif.g09.slc.cpg/sg65_8_cif.got.tgz:14810.got - 2010.04.10 20:52:16.
