data_PCOD8269125
_publ_section_title
;
Structure prediction by ZEFSAII (Michael W. Deem and Ramdas Pophale) SiO2 
 PCOD8269125
Probable space group: C M M M
;
_chemical_formula_sum "Si O2"
_cell_formula_units_Z 88
_cell_length_a 18.180358
_cell_length_b 28.387106
_cell_length_c 8.849658
_cell_angle_alpha 90.000000
_cell_angle_beta 90.000000
_cell_angle_gamma 90.000000
_cell_volume 4567.200083
_symmetry_space_group_name_H-M "C M M M"
_symmetry_group_IT_number 65
_symmetry_cell_setting 'orthorhombic'
loop_
_space_group_symop_operation_xyz
x,y,z
-x,-y,z
x,-y,-z
-x,y,-z
-x,-y,-z
x,y,-z
-x,y,z
x,-y,z
1/2+x,1/2+y,z
1/2-x,1/2-y,z
1/2+x,1/2-y,-z
1/2-x,1/2+y,-z
1/2-x,1/2-y,-z
1/2+x,1/2+y,-z
1/2-x,1/2+y,z
1/2+x,1/2-y,z
loop_
_atom_site_type_symbol
_atom_site_label
_atom_site_fract_x
_atom_site_fract_y
_atom_site_fract_z
Si Si1 0.417233 0.202739 0.823264
Si Si2 0.583129 0.444694 0.672121
Si Si3 0.207724 0.887096 0.821972
Si Si4 0.686703 0.717271 0.823238
Si Si5 0.000000 0.446551 0.679711
Si Si6 0.141112 0.388177 0.678920
O O1 0.500000 0.199189 0.764038
O O2 0.390132 0.256045 0.790563
O O3 0.368188 0.165454 0.733313
O O4 0.410276 0.190913 0.000000
O O5 0.601553 0.430555 0.500000
O O6 0.500000 0.428984 0.712849
O O7 0.591464 0.500000 0.694487
O O8 0.639239 0.420055 0.784901
O O9 0.188430 0.835173 0.754559
O O10 0.282002 0.907300 0.745373
O O11 0.220173 0.886551 0.000000
O O12 0.750000 0.750000 0.750718
O O13 0.701667 0.711921 0.000000
O O14 0.073113 0.419927 0.739727
O O15 0.000000 0.500000 0.742209
O O16 0.000000 0.446467 0.500000
O O17 0.144710 0.390170 0.500000
#
# Coordination Sequence:
#
# PCOD8269125 Si02
#       6
#    16  16  16  16   8  16
#     4  10  19  33  55  78 104 144 192 235 281 336
#     4   9  20  41  65  86 114 153 190 227 284 353
#     4  11  22  36  59  89 119 149 192 241 284 334
#     4   9  17  32  52  76 109 149 186 224 275 335
#     4   9  20  38  57  77 105 145 191 237 284 341
#     4  11  21  35  56  81 110 147 193 238 288 346
#
# _framework density 19.267823
#
# number of rings (size 3 to 8) (size 9 to 14) (size 15 to 20)
#    0.000    2.091    2.727    1.636    0.000    2.182 
#    0.000    7.273    0.000    3.818    0.000    0.000 
#    0.000    0.000    0.000    0.000    0.000    0.000 
#
# Total GULP energy -545551.950050 kJ/mol
# GULP energy per Si atom -12398.907956 kJ/mol
# Density = 1.922397 g / cm^3
# Si number density = 19.267823 Si / 1000 Ang^3
#
#
#
# Elastic Constant Matrix: (Units=GPa)
#
#
# Indices 1 2 3 4 5 6 
#
# 1 136.6485 51.8640 37.0691 0.0000 0.0000 0.0000
# 2 51.8640 85.9201 26.0195 0.0000 0.0000 0.0000
# 3 37.0691 26.0195 50.0697 0.0000 0.0000 0.0000
# 4 0.0000 0.0000 0.0000 18.7051 0.0000 0.0000
# 5 0.0000 0.0000 0.0000 0.0000 31.1887 0.0000
# 6 0.0000 0.0000 0.0000 0.0000 0.0000 32.8691
#
#
#
# Elastic Compliance Matrix: (Units=1/GPa)
#
#
# Indices 1 2 3 4 5 6 
#
# 1 0.010579 -0.004764 -0.005357 0.000000 0.000000 0.000000
# 2 -0.004764 0.015957 -0.004766 0.000000 0.000000 0.000000
# 3 -0.005357 -0.004766 0.026415 0.000000 0.000000 0.000000
# 4 0.000000 0.000000 0.000000 0.053461 0.000000 0.000000
# 5 0.000000 0.000000 0.000000 0.000000 0.032063 0.000000
# 6 0.000000 0.000000 0.000000 0.000000 0.000000 0.030424
#
#
# Mechanical properties :
#
#
# Convention : Reuss Voigt Hill
#
# Bulk Modulus (GPa) = 43.14275 55.83818 49.49046
# Shear Modulus (GPa) = 24.22503 27.06496 25.64499
#
# Velocity S-wave (km/s) = 3.54966 3.75196 3.65221
# Velocity P-wave (km/s) = 6.26417 6.91466 6.59744
#
# Compressibility (1/GPa) = 0.02317887
#
# Stress axis : x y z
#
# Youngs Moduli (GPa) = 94.52473 62.66655 37.85775
#
# Poissons Ratio (x) = 0.29853 0.20280
# Poissons Ratio (y) = 0.45029 0.18042
# Poissons Ratio (z) = 0.50635 0.29865
#
# Static dielectric constant tensor:
#      x y z
#    x 3.680320 0.000000 0.000000 
#    y 0.000000 3.581510 0.000000 
#    z 0.000000 0.000000 3.184930 
# 
# 
# High freq. dielectric constant tensor:
#      x y z
#    x 1.763000 0.000000 0.000000 
#    y 0.000000 1.745700 0.000000 
#    z 0.000000 0.000000 1.719020 
# 
# From -- ./inp_files/10166.got.cif
#   From: 2010.03.12/outbox.cif.g09.slc.cpg/sg65_6_cif.got.tgz:10166.got - 2010.04.10 20:52:16.
