data_PCOD8269937
_publ_section_title
;
Structure prediction by ZEFSAII (Michael W. Deem and Ramdas Pophale) SiO2 
 PCOD8269937
Probable space group: C M M M
;
_chemical_formula_sum "Si O2"
_cell_formula_units_Z 96
_cell_length_a 7.945842
_cell_length_b 28.587958
_cell_length_c 22.648582
_cell_angle_alpha 90.000000
_cell_angle_beta 90.000000
_cell_angle_gamma 90.000000
_cell_volume 5144.747644
_symmetry_space_group_name_H-M "C M M M"
_symmetry_group_IT_number 65
_symmetry_cell_setting 'orthorhombic'
loop_
_space_group_symop_operation_xyz
x,y,z
-x,-y,z
x,-y,-z
-x,y,-z
-x,-y,-z
x,y,-z
-x,y,z
x,-y,z
1/2+x,1/2+y,z
1/2-x,1/2-y,z
1/2+x,1/2-y,-z
1/2-x,1/2+y,-z
1/2-x,1/2-y,-z
1/2+x,1/2+y,-z
1/2-x,1/2+y,z
1/2+x,1/2-y,z
loop_
_atom_site_type_symbol
_atom_site_label
_atom_site_fract_x
_atom_site_fract_y
_atom_site_fract_z
Si Si1 0.198959 0.301811 0.272582
Si Si2 0.188607 0.614536 0.931638
Si Si3 0.300685 0.803511 0.500000
Si Si4 0.801249 0.051963 0.566729
Si Si5 0.805906 0.645307 0.385408
Si Si6 0.500000 0.552413 0.929918
Si Si7 0.192216 0.802720 0.143269
O O1 0.250000 0.250000 0.292246
O O2 0.269929 0.336067 0.323786
O O3 0.288114 0.316224 0.211865
O O4 0.000000 0.305402 0.262834
O O5 0.330335 0.578520 0.907671
O O6 0.196947 0.663021 0.896448
O O7 0.000000 0.593383 0.922897
O O8 0.222798 0.625746 0.000000
O O9 0.500000 0.809348 0.500000
O O10 0.250000 0.750000 0.500000
O O11 0.222459 0.828762 0.558017
O O12 0.737053 0.061095 0.500000
O O13 0.719394 0.089577 0.610474
O O14 0.000000 0.056626 0.569219
O O15 0.745334 0.000000 0.587091
O O16 0.000000 0.658514 0.384399
O O17 0.500000 0.500000 0.903210
O O18 0.500000 0.549760 0.000000
O O19 0.250000 0.750000 0.131787
O O20 0.000000 0.808489 0.124080
#
# Coordination Sequence:
#
# PCOD8269937 Si02
#       7
#    16  16   8  16  16   8  16
#     4  10  20  34  51  74 102 136 179 219 258 315
#     4  10  20  35  56  85 120 153 189 235 284 334
#     4  10  20  32  45  68  99 129 162 201 253 308
#     4   9  18  32  50  73  98 124 160 205 253 312
#     4  10  20  33  50  72 100 130 165 209 256 310
#     4   9  18  34  56  84 118 154 194 237 282 336
#     4  11  21  35  55  79 110 149 190 231 274 329
#
# _framework density 18.659808999999999
#
# number of rings (size 3 to 8) (size 9 to 14) (size 15 to 20)
#    0.000    2.083    1.667    4.000    0.000    3.000 
#    0.000    2.500    0.000    1.000    0.000    2.333 
#    0.000    0.000    0.000    0.000    0.000    0.000 
#
# Total GULP energy -595158.011310 kJ/mol
# GULP energy per Si atom -12399.125236 kJ/mol
# Density = 1.861734 g / cm^3
# Si number density = 18.659809 Si / 1000 Ang^3
#
#
#
# Elastic Constant Matrix: (Units=GPa)
#
#
# Indices 1 2 3 4 5 6 
#
# 1 77.1136 27.1914 19.4661 0.0000 0.0000 0.0000
# 2 27.1914 131.0992 58.8331 0.0000 0.0000 0.0000
# 3 19.4661 58.8331 71.3750 0.0000 0.0000 0.0000
# 4 0.0000 0.0000 0.0000 21.4911 0.0000 0.0000
# 5 0.0000 0.0000 0.0000 0.0000 19.3526 0.0000
# 6 0.0000 0.0000 0.0000 0.0000 0.0000 28.0025
#
#
#
# Elastic Compliance Matrix: (Units=1/GPa)
#
#
# Indices 1 2 3 4 5 6 
#
# 1 0.014225 -0.001919 -0.002297 0.000000 0.000000 0.000000
# 2 -0.001919 0.012365 -0.009669 0.000000 0.000000 0.000000
# 3 -0.002297 -0.009669 0.022607 0.000000 0.000000 0.000000
# 4 0.000000 0.000000 0.000000 0.046531 0.000000 0.000000
# 5 0.000000 0.000000 0.000000 0.000000 0.051673 0.000000
# 6 0.000000 0.000000 0.000000 0.000000 0.000000 0.035711
#
#
# Mechanical properties :
#
#
# Convention : Reuss Voigt Hill
#
# Bulk Modulus (GPa) = 46.67346 54.50766 50.59056
# Shear Modulus (GPa) = 22.93329 25.37573 24.15451
#
# Velocity S-wave (km/s) = 3.50954 3.69170 3.60177
# Velocity P-wave (km/s) = 6.44125 6.88812 6.66843
#
# Compressibility (1/GPa) = 0.02142545
#
# Stress axis : x y z
#
# Youngs Moduli (GPa) = 70.30072 80.87408 44.23444
#
# Poissons Ratio (x) = 0.15522 0.10162
# Poissons Ratio (y) = 0.13493 0.42769
# Poissons Ratio (z) = 0.16151 0.78195
#
# Static dielectric constant tensor:
#      x y z
#    x 3.426800 0.000000 0.000000 
#    y 0.000000 3.555090 0.000000 
#    z 0.000000 0.000000 3.383010 
# 
# 
# High freq. dielectric constant tensor:
#      x y z
#    x 1.728200 0.000000 0.000000 
#    y 0.000000 1.718100 0.000000 
#    z 0.000000 0.000000 1.701800 
# 
# From -- ./inp_files/68118.got.cif
#   From: 2010.03.12/outbox.cif.g09.slc.cpg/sg65_35_cif.got.tgz:68118.got - 2010.04.10 20:52:16.
