data_PCOD8269109
_publ_section_title
;
Structure prediction by ZEFSAII (Michael W. Deem and Ramdas Pophale) SiO2 
 PCOD8269109
Probable space group: C M M M
;
_chemical_formula_sum "Si O2"
_cell_formula_units_Z 88
_cell_length_a 19.108055
_cell_length_b 9.468435
_cell_length_c 26.331107
_cell_angle_alpha 90.000000
_cell_angle_beta 90.000000
_cell_angle_gamma 90.000000
_cell_volume 4763.912792
_symmetry_space_group_name_H-M "C M M M"
_symmetry_group_IT_number 65
_symmetry_cell_setting 'orthorhombic'
loop_
_space_group_symop_operation_xyz
x,y,z
-x,-y,z
x,-y,-z
-x,y,-z
-x,-y,-z
x,y,-z
-x,y,z
x,-y,z
1/2+x,1/2+y,z
1/2-x,1/2-y,z
1/2+x,1/2-y,-z
1/2-x,1/2+y,-z
1/2-x,1/2-y,-z
1/2+x,1/2+y,-z
1/2-x,1/2+y,z
1/2+x,1/2-y,z
loop_
_atom_site_type_symbol
_atom_site_label
_atom_site_fract_x
_atom_site_fract_y
_atom_site_fract_z
Si Si1 0.583044 0.165154 0.401642
Si Si2 0.917047 0.000000 0.944168
Si Si3 0.582526 0.747648 0.125471
Si Si4 0.820279 0.833857 0.329059
Si Si5 0.318233 0.663234 0.789520
Si Si6 0.583115 0.000000 0.057299
Si Si7 0.082943 0.837926 0.500000
O O1 0.500000 0.173519 0.395921
O O2 0.615961 0.250936 0.354990
O O3 0.609275 0.248233 0.451707
O O4 0.606833 0.000000 0.403347
O O5 0.890422 0.871590 0.911664
O O6 0.000000 0.000000 0.950098
O O7 0.882452 0.000000 0.000000
O O8 0.500000 0.749211 0.135619
O O9 0.617491 0.733395 0.180453
O O10 0.610116 0.875387 0.092238
O O11 0.750000 0.750000 0.344433
O O12 0.835202 0.821105 0.269585
O O13 0.815796 0.000000 0.345321
O O14 0.307721 0.500000 0.804349
O O15 0.250000 0.750000 0.804921
O O16 0.500000 0.000000 0.051503
O O17 0.615313 0.000000 0.000000
O O18 0.000000 0.845924 0.500000
O O19 0.112858 0.000000 0.500000
#
# Coordination Sequence:
#
# PCOD8269109 Si02
#       7
#    16   8  16  16  16   8   8
#     4  10  20  35  56  85 118 151 187 229 274 322
#     4   9  16  28  51  79 105 133 169 216 265 314
#     4  10  19  33  54  81 107 135 176 221 264 314
#     4  10  21  38  58  79 107 145 188 231 278 332
#     4  10  22  38  57  78 105 142 179 221 273 328
#     4   9  18  32  51  79 111 139 169 212 267 320
#     4   9  17  31  54  83 116 153 190 225 271 327
#
# _framework density 18.47221
#
# number of rings (size 3 to 8) (size 9 to 14) (size 15 to 20)
#    0.000    2.273    0.909    1.909    1.273    5.818 
#    0.000    2.273    0.000    3.273    0.000    0.000 
#    0.000    0.000    0.000    0.000    0.000    0.000 
#
# Total GULP energy -545237.941217 kJ/mol
# GULP energy per Si atom -12391.771391 kJ/mol
# Density = 1.843017 g / cm^3
# Si number density = 18.472210 Si / 1000 Ang^3
#
#
#
# Elastic Constant Matrix: (Units=GPa)
#
#
# Indices 1 2 3 4 5 6 
#
# 1 52.7239 44.7963 47.3723 0.0000 0.0000 0.0000
# 2 44.7963 179.1489 67.1945 0.0000 0.0000 0.0000
# 3 47.3723 67.1945 101.7472 0.0000 0.0000 0.0000
# 4 0.0000 0.0000 0.0000 40.9618 0.0000 0.0000
# 5 0.0000 0.0000 0.0000 0.0000 10.3882 0.0000
# 6 0.0000 0.0000 0.0000 0.0000 0.0000 29.0948
#
#
#
# Elastic Compliance Matrix: (Units=1/GPa)
#
#
# Indices 1 2 3 4 5 6 
#
# 1 0.034114 -0.003420 -0.013625 0.000000 0.000000 0.000000
# 2 -0.003420 0.007763 -0.003534 0.000000 0.000000 0.000000
# 3 -0.013625 -0.003534 0.018506 0.000000 0.000000 0.000000
# 4 0.000000 0.000000 0.000000 0.024413 0.000000 0.000000
# 5 0.000000 0.000000 0.000000 0.000000 0.096264 0.000000
# 6 0.000000 0.000000 0.000000 0.000000 0.000000 0.034370
#
#
# Mechanical properties :
#
#
# Convention : Reuss Voigt Hill
#
# Bulk Modulus (GPa) = 52.01555 72.48290 62.24923
# Shear Modulus (GPa) = 19.01173 27.70607 23.35890
#
# Velocity S-wave (km/s) = 3.21161 3.87703 3.55990
# Velocity P-wave (km/s) = 6.47862 7.70492 7.11823
#
# Compressibility (1/GPa) = 0.01922502
#
# Stress axis : x y z
#
# Youngs Moduli (GPa) = 29.31336 128.82047 54.03728
#
# Poissons Ratio (x) = 0.44057 0.73623
# Poissons Ratio (y) = 0.10025 0.19098
# Poissons Ratio (z) = 0.39938 0.45528
#
# Static dielectric constant tensor:
#      x y z
#    x 3.003700 0.000000 0.000000 
#    y 0.000000 3.711100 0.000000 
#    z 0.000000 0.000000 3.493110 
# 
# 
# High freq. dielectric constant tensor:
#      x y z
#    x 1.677450 0.000000 0.000000 
#    y 0.000000 1.740620 0.000000 
#    z 0.000000 0.000000 1.725900 
# 
# From -- ./inp_files/71045.got.cif
#   From: 2010.03.12/outbox.cif.g09.slc.cpg/sg65_36_cif.got.tgz:71045.got - 2010.04.10 20:52:16.
