data_PCOD8269303
_publ_section_title
;
Structure prediction by ZEFSAII (Michael W. Deem and Ramdas Pophale) SiO2 
 PCOD8269303
Probable space group: C M M M
;
_chemical_formula_sum "Si O2"
_cell_formula_units_Z 120
_cell_length_a 8.957710
_cell_length_b 28.061947
_cell_length_c 28.235705
_cell_angle_alpha 90.000000
_cell_angle_beta 90.000000
_cell_angle_gamma 90.000000
_cell_volume 7097.631282
_symmetry_space_group_name_H-M "C M M M"
_symmetry_group_IT_number 65
_symmetry_cell_setting 'orthorhombic'
loop_
_space_group_symop_operation_xyz
x,y,z
-x,-y,z
x,-y,-z
-x,y,-z
-x,-y,-z
x,y,-z
-x,y,z
x,-y,z
1/2+x,1/2+y,z
1/2-x,1/2-y,z
1/2+x,1/2-y,-z
1/2-x,1/2+y,-z
1/2-x,1/2-y,-z
1/2+x,1/2+y,-z
1/2-x,1/2+y,z
1/2+x,1/2-y,z
loop_
_atom_site_type_symbol
_atom_site_label
_atom_site_fract_x
_atom_site_fract_y
_atom_site_fract_z
Si Si1 0.824725 0.898171 0.089848
Si Si2 0.829389 0.943602 0.644516
Si Si3 0.324951 0.109908 0.728403
Si Si4 0.667611 0.056576 0.447987
Si Si5 0.674446 0.297779 0.129336
Si Si6 0.323522 0.701439 0.762488
Si Si7 0.676922 0.054681 0.000000
Si Si8 0.329865 0.944326 0.823338
O O1 0.780070 0.842805 0.097123
O O2 0.735604 0.918272 0.045725
O O3 0.782142 0.927912 0.136035
O O4 0.000000 0.903818 0.080700
O O5 0.724761 0.919525 0.683050
O O6 0.778743 0.924778 0.592734
O O7 0.000000 0.928485 0.652682
O O8 0.807989 0.000000 0.648700
O O9 0.500000 0.119706 0.725570
O O10 0.238268 0.159715 0.729459
O O11 0.281149 0.080309 0.774852
O O12 0.720636 0.074991 0.500000
O O13 0.500000 0.075088 0.437525
O O14 0.667796 0.000000 0.448172
O O15 0.500000 0.288801 0.128025
O O16 0.750000 0.250000 0.108817
O O17 0.726844 0.307926 0.183141
O O18 0.500000 0.704688 0.757393
O O19 0.250000 0.750000 0.743987
O O20 0.500000 0.056362 0.000000
O O21 0.733546 0.000000 0.000000
O O22 0.500000 0.931266 0.837503
O O23 0.311143 0.000000 0.815470
#
# Coordination Sequence:
#
# PCOD8269303 Si02
#       8
#    16  16  16  16  16  16   8  16
#     4  11  22  38  58  82 105 130 165 207 251 296
#     4  10  20  31  44  66  99 138 176 217 263 306
#     4  11  21  33  50  72 101 137 173 209 253 303
#     4   8  14  26  44  64  88 124 171 218 261 307
#     4   9  19  34  55  81 107 131 161 200 244 296
#     4  10  19  34  53  76 104 132 167 207 251 301
#     4  11  25  43  60  79 104 135 170 207 246 293
#     4  10  21  35  51  73 101 134 171 207 244 294
#
# _framework density 16.907049000000001
#
# number of rings (size 3 to 8) (size 9 to 14) (size 15 to 20)
#    0.000    2.067    1.333    3.000    0.000    6.133 
#    0.000    1.667    0.000    0.000    0.000    0.000 
#    0.000    0.533    0.000    2.000    0.000    3.067 
#
# Total GULP energy -744075.571545 kJ/mol
# GULP energy per Si atom -12401.259526 kJ/mol
# Density = 1.686857 g / cm^3
# Si number density = 16.907049 Si / 1000 Ang^3
#
#
#
# Elastic Constant Matrix: (Units=GPa)
#
#
# Indices 1 2 3 4 5 6 
#
# 1 67.7137 37.3792 37.0539 0.0000 0.0000 0.0000
# 2 37.3792 79.9783 38.3269 0.0000 0.0000 0.0000
# 3 37.0539 38.3269 100.8699 0.0000 0.0000 0.0000
# 4 0.0000 0.0000 0.0000 65.4485 0.0000 0.0000
# 5 0.0000 0.0000 0.0000 0.0000 45.1780 0.0000
# 6 0.0000 0.0000 0.0000 0.0000 0.0000 28.7411
#
#
#
# Elastic Compliance Matrix: (Units=1/GPa)
#
#
# Indices 1 2 3 4 5 6 
#
# 1 0.021833 -0.007776 -0.005065 0.000000 0.000000 0.000000
# 2 -0.007776 0.018057 -0.004004 0.000000 0.000000 0.000000
# 3 -0.005065 -0.004004 0.013296 0.000000 0.000000 0.000000
# 4 0.000000 0.000000 0.000000 0.015279 0.000000 0.000000
# 5 0.000000 0.000000 0.000000 0.000000 0.022135 0.000000
# 6 0.000000 0.000000 0.000000 0.000000 0.000000 0.034793
#
#
# Mechanical properties :
#
#
# Convention : Reuss Voigt Hill
#
# Bulk Modulus (GPa) = 51.29983 52.67576 51.98779
# Shear Modulus (GPa) = 30.19646 36.92698 33.56172
#
# Velocity S-wave (km/s) = 4.23073 4.67852 4.46025
# Velocity P-wave (km/s) = 7.36706 7.77229 7.57239
#
# Compressibility (1/GPa) = 0.01949324
#
# Stress axis : x y z
#
# Youngs Moduli (GPa) = 45.80307 55.38088 75.21097
#
# Poissons Ratio (x) = 0.43067 0.38096
# Poissons Ratio (y) = 0.35619 0.30117
# Poissons Ratio (z) = 0.23201 0.22176
#
# Static dielectric constant tensor:
#      x y z
#    x 3.345140 0.000000 0.000000 
#    y 0.000000 3.112690 0.000000 
#    z 0.000000 0.000000 2.785000 
# 
# 
# High freq. dielectric constant tensor:
#      x y z
#    x 1.661570 0.000000 0.000000 
#    y 0.000000 1.635390 0.000000 
#    z 0.000000 0.000000 1.640380 
# 
# From -- ./inp_files/73907.got.cif
#   From: 2010.03.12/outbox.cif.g09.slc.cpg/sg65_37_cif.got.tgz:73907.got - 2010.04.10 20:52:16.
