data_PCOD8269981
_publ_section_title
;
Structure prediction by ZEFSAII (Michael W. Deem and Ramdas Pophale) SiO2 
 PCOD8269981
Probable space group: C M M M
;
_chemical_formula_sum "Si O2"
_cell_formula_units_Z 104
_cell_length_a 25.981707
_cell_length_b 17.947841
_cell_length_c 13.661845
_cell_angle_alpha 90.000000
_cell_angle_beta 90.000000
_cell_angle_gamma 90.000000
_cell_volume 6370.730713
_symmetry_space_group_name_H-M "C M M M"
_symmetry_group_IT_number 65
_symmetry_cell_setting 'orthorhombic'
loop_
_space_group_symop_operation_xyz
x,y,z
-x,-y,z
x,-y,-z
-x,y,-z
-x,-y,-z
x,y,-z
-x,y,z
x,-y,z
1/2+x,1/2+y,z
1/2-x,1/2-y,z
1/2+x,1/2-y,-z
1/2-x,1/2+y,-z
1/2-x,1/2-y,-z
1/2+x,1/2+y,-z
1/2-x,1/2+y,z
1/2+x,1/2-y,z
loop_
_atom_site_type_symbol
_atom_site_label
_atom_site_fract_x
_atom_site_fract_y
_atom_site_fract_z
Si Si1 0.388128 0.088493 0.114008
Si Si2 0.057383 0.083103 0.384037
Si Si3 0.348936 0.683336 0.384822
Si Si4 0.057078 0.584359 0.384514
Si Si5 0.250232 0.584330 0.612817
Si Si6 0.000000 0.585880 0.114102
Si Si7 0.153432 0.660051 0.292409
O O1 0.445000 0.115499 0.153651
O O2 0.349150 0.139051 0.177100
O O3 0.380090 0.000000 0.131941
O O4 0.380015 0.107034 0.000000
O O5 0.060782 0.079120 0.500000
O O6 0.099266 0.142503 0.347098
O O7 0.000000 0.108659 0.351147
O O8 0.069031 0.000000 0.342450
O O9 0.352024 0.706127 0.500000
O O10 0.301766 0.628964 0.364680
O O11 0.339124 0.753166 0.314401
O O12 0.054998 0.593754 0.500000
O O13 0.071425 0.500000 0.355359
O O14 0.100498 0.637831 0.344114
O O15 0.000000 0.604214 0.341552
O O16 0.235230 0.589635 0.500000
O O17 0.260644 0.500000 0.645613
O O18 0.202169 0.615716 0.670154
O O19 0.000000 0.500000 0.136769
O O20 0.000000 0.601471 0.000000
#
# Coordination Sequence:
#
# PCOD8269981 Si02
#       7
#    16  16  16  16  16   8  16
#     4   9  18  32  49  68  90 120 161 204 240 279
#     4   8  14  27  47  67  89 123 164 197 225 265
#     4  10  20  32  46  68  99 129 155 192 238 280
#     4   9  18  30  41  58  90 129 161 183 209 261
#     4  10  20  34  51  68  89 124 169 203 227 269
#     4   7  12  26  46  64  83 111 150 193 229 263
#     4  12  21  29  46  70  95 122 153 194 245 290
#
# _framework density 16.324659
#
# number of rings (size 3 to 8) (size 9 to 14) (size 15 to 20)
#    0.000    2.538    0.000    5.538    1.077    4.923 
#    0.000    1.538    0.000    1.846    0.000    0.000 
#    0.000    1.846    0.000    1.692    0.000    0.154 
#
# Total GULP energy -644368.578281 kJ/mol
# GULP energy per Si atom -12391.703428 kJ/mol
# Density = 1.628750 g / cm^3
# Si number density = 16.324659 Si / 1000 Ang^3
#
#
#
# Elastic Constant Matrix: (Units=GPa)
#
#
# Indices 1 2 3 4 5 6 
#
# 1 104.7348 51.4622 47.2813 0.0000 0.0000 0.0000
# 2 51.4622 99.0191 52.6030 0.0000 0.0000 0.0000
# 3 47.2813 52.6030 48.0300 0.0000 0.0000 0.0000
# 4 0.0000 0.0000 0.0000 5.1753 0.0000 0.0000
# 5 0.0000 0.0000 0.0000 0.0000 18.5071 0.0000
# 6 0.0000 0.0000 0.0000 0.0000 0.0000 139.3112
#
#
#
# Elastic Compliance Matrix: (Units=1/GPa)
#
#
# Indices 1 2 3 4 5 6 
#
# 1 0.017186 0.000133 -0.017064 0.000000 0.000000 0.000000
# 2 0.000133 0.024151 -0.026582 0.000000 0.000000 0.000000
# 3 -0.017064 -0.026582 0.066730 0.000000 0.000000 0.000000
# 4 0.000000 0.000000 0.000000 0.193224 0.000000 0.000000
# 5 0.000000 0.000000 0.000000 0.000000 0.054033 0.000000
# 6 0.000000 0.000000 0.000000 0.000000 0.000000 0.007178
#
#
# Mechanical properties :
#
#
# Convention : Reuss Voigt Hill
#
# Bulk Modulus (GPa) = 47.52169 61.60856 54.56512
# Shear Modulus (GPa) = 10.95191 39.29455 25.12323
#
# Velocity S-wave (km/s) = 2.59295 4.91151 3.92723
# Velocity P-wave (km/s) = 6.17560 8.36573 7.35267
#
# Compressibility (1/GPa) = 0.02104302
#
# Stress axis : x y z
#
# Youngs Moduli (GPa) = 58.18817 41.40593 14.98569
#
# Poissons Ratio (x) = -0.00551 0.25571
# Poissons Ratio (y) = -0.00775 0.39834
# Poissons Ratio (z) = 0.99290 1.10064
#
# Static dielectric constant tensor:
#      x y z
#    x 3.335610 0.000000 0.000000 
#    y 0.000000 3.043200 0.000000 
#    z 0.000000 0.000000 2.855600 
# 
# 
# High freq. dielectric constant tensor:
#      x y z
#    x 1.640940 0.000000 0.000000 
#    y 0.000000 1.609600 0.000000 
#    z 0.000000 0.000000 1.590030 
# 
# From -- ./inp_files/45951.got.cif
#   From: 2010.03.12/outbox.cif.g09.slc.cpg/sg65_23_cif.got.tgz:45951.got - 2010.04.10 20:52:16.
