data_PCOD8269197
_publ_section_title
;
Structure prediction by ZEFSAII (Michael W. Deem and Ramdas Pophale) SiO2 
 PCOD8269197
Probable space group: C M M M
;
_chemical_formula_sum "Si O2"
_cell_formula_units_Z 104
_cell_length_a 21.041228
_cell_length_b 28.910330
_cell_length_c 9.133478
_cell_angle_alpha 90.000000
_cell_angle_beta 90.000000
_cell_angle_gamma 90.000000
_cell_volume 5555.975454
_symmetry_space_group_name_H-M "C M M M"
_symmetry_group_IT_number 65
_symmetry_cell_setting 'orthorhombic'
loop_
_space_group_symop_operation_xyz
x,y,z
-x,-y,z
x,-y,-z
-x,y,-z
-x,-y,-z
x,y,-z
-x,y,z
x,-y,z
1/2+x,1/2+y,z
1/2-x,1/2-y,z
1/2+x,1/2-y,-z
1/2-x,1/2+y,-z
1/2-x,1/2-y,-z
1/2+x,1/2+y,-z
1/2-x,1/2+y,z
1/2+x,1/2-y,z
loop_
_atom_site_type_symbol
_atom_site_label
_atom_site_fract_x
_atom_site_fract_y
_atom_site_fract_z
Si Si1 0.323911 0.201939 0.325896
Si Si2 0.817892 0.804727 0.326361
Si Si3 0.117079 0.103671 0.327115
Si Si4 0.754696 0.945846 0.664037
Si Si5 0.500000 0.445838 0.825897
Si Si6 0.070984 0.367679 0.330643
Si Si7 0.130061 0.552864 0.171898
O O1 0.327439 0.202847 0.500000
O O2 0.254437 0.184042 0.273136
O O3 0.337310 0.254055 0.266793
O O4 0.379003 0.168903 0.262848
O O5 0.816213 0.804626 0.500000
O O6 0.869343 0.843243 0.275971
O O7 0.101654 0.100214 0.500000
O O8 0.180232 0.076444 0.283203
O O9 0.060660 0.080893 0.236701
O O10 0.737473 0.928956 0.500000
O O11 0.698377 0.929928 0.770123
O O12 0.765358 0.000000 0.670049
O O13 0.500000 0.500000 0.777379
O O14 0.500000 0.441947 0.000000
O O15 0.085621 0.377452 0.500000
O O16 0.075864 0.416031 0.244815
O O17 0.000000 0.347888 0.309100
O O18 0.117359 0.500000 0.218639
O O19 0.128283 0.559174 0.000000
#
# Coordination Sequence:
#
# PCOD8269197 Si02
#       7
#    16  16  16  16   8  16  16
#     4   8  14  28  49  77 110 136 161 202 258 315
#     4   8  14  26  50  81 108 131 160 206 262 312
#     4  10  19  33  55  83 107 134 174 220 267 315
#     4   9  17  30  51  78 105 131 163 210 263 309
#     4  11  25  41  53  69 103 151 193 227 268 321
#     4  10  20  33  50  73 100 134 174 213 254 301
#     4  10  21  35  51  73 101 133 170 212 256 306
#
# _framework density 18.718584
#
# number of rings (size 3 to 8) (size 9 to 14) (size 15 to 20)
#    0.000    2.692    0.000    3.000    0.000    5.846 
#    1.385    3.077    0.000    0.923    0.000    3.231 
#    0.000    0.000    0.000    0.000    0.000    0.000 
#
# Total GULP energy -644565.758762 kJ/mol
# GULP energy per Si atom -12395.495361 kJ/mol
# Density = 1.867598 g / cm^3
# Si number density = 18.718584 Si / 1000 Ang^3
#
#
#
# Elastic Constant Matrix: (Units=GPa)
#
#
# Indices 1 2 3 4 5 6 
#
# 1 109.1366 81.5464 33.0305 0.0000 0.0000 0.0000
# 2 81.5464 110.0621 35.8739 0.0000 0.0000 0.0000
# 3 33.0305 35.8739 38.7441 0.0000 0.0000 0.0000
# 4 0.0000 0.0000 0.0000 12.8313 0.0000 0.0000
# 5 0.0000 0.0000 0.0000 0.0000 10.0553 0.0000
# 6 0.0000 0.0000 0.0000 0.0000 0.0000 31.3049
#
#
#
# Elastic Compliance Matrix: (Units=1/GPa)
#
#
# Indices 1 2 3 4 5 6 
#
# 1 0.021196 -0.014057 -0.005055 0.000000 0.000000 0.000000
# 2 -0.014057 0.022335 -0.008697 0.000000 0.000000 0.000000
# 3 -0.005055 -0.008697 0.038172 0.000000 0.000000 0.000000
# 4 0.000000 0.000000 0.000000 0.077935 0.000000 0.000000
# 5 0.000000 0.000000 0.000000 0.000000 0.099450 0.000000
# 6 0.000000 0.000000 0.000000 0.000000 0.000000 0.031944
#
#
# Mechanical properties :
#
#
# Convention : Reuss Voigt Hill
#
# Bulk Modulus (GPa) = 38.33356 62.09382 50.21369
# Shear Modulus (GPa) = 14.07088 18.00442 16.03765
#
# Velocity S-wave (km/s) = 2.74470 3.10473 2.93025
# Velocity P-wave (km/s) = 5.52882 6.78946 6.19131
#
# Compressibility (1/GPa) = 0.02608680
#
# Stress axis : x y z
#
# Youngs Moduli (GPa) = 47.17948 44.77241 26.19702
#
# Poissons Ratio (x) = 0.62935 0.13242
# Poissons Ratio (y) = 0.66318 0.22783
# Poissons Ratio (z) = 0.23847 0.38938
#
# Static dielectric constant tensor:
#      x y z
#    x 3.506660 0.000000 0.000000 
#    y 0.000000 3.884960 0.000000 
#    z 0.000000 0.000000 3.035250 
# 
# 
# High freq. dielectric constant tensor:
#      x y z
#    x 1.723700 0.000000 0.000000 
#    y 0.000000 1.739220 0.000000 
#    z 0.000000 0.000000 1.680390 
# 
# From -- ./inp_files/12771.got.cif
#   From: 2010.03.12/outbox.cif.g09.slc.cpg/sg65_7_cif.got.tgz:12771.got - 2010.04.10 20:52:16.
