data_PCOD8269035
_publ_section_title
;
Structure prediction by ZEFSAII (Michael W. Deem and Ramdas Pophale) SiO2 
 PCOD8269035
Probable space group: C M M M
;
_chemical_formula_sum "Si O2"
_cell_formula_units_Z 72
_cell_length_a 15.629457
_cell_length_b 28.616766
_cell_length_c 8.812038
_cell_angle_alpha 90.000000
_cell_angle_beta 90.000000
_cell_angle_gamma 90.000000
_cell_volume 3941.311891
_symmetry_space_group_name_H-M "C M M M"
_symmetry_group_IT_number 65
_symmetry_cell_setting 'orthorhombic'
loop_
_space_group_symop_operation_xyz
x,y,z
-x,-y,z
x,-y,-z
-x,y,-z
-x,-y,-z
x,y,-z
-x,y,z
x,-y,z
1/2+x,1/2+y,z
1/2-x,1/2-y,z
1/2+x,1/2-y,-z
1/2-x,1/2+y,-z
1/2-x,1/2-y,-z
1/2+x,1/2+y,-z
1/2-x,1/2+y,z
1/2+x,1/2-y,z
loop_
_atom_site_type_symbol
_atom_site_label
_atom_site_fract_x
_atom_site_fract_y
_atom_site_fract_z
Si Si1 0.500000 0.890490 0.165658
Si Si2 0.817468 0.615010 0.181267
Si Si3 0.500000 0.444459 0.170902
Si Si4 0.827431 0.055305 0.326103
Si Si5 0.325740 0.214396 0.322565
Si Si6 0.000000 0.720229 0.831899
O O1 0.589947 0.903920 0.246270
O O2 0.500000 0.834945 0.152154
O O3 0.500000 0.914054 0.000000
O O4 0.747696 0.577748 0.229464
O O5 0.797217 0.665658 0.248194
O O6 0.821543 0.619304 0.000000
O O7 0.500000 0.500000 0.168345
O O8 0.583080 0.426042 0.259479
O O9 0.500000 0.424400 0.000000
O O10 0.820970 0.071246 0.500000
O O11 0.820012 0.000000 0.309074
O O12 0.338922 0.206332 0.500000
O O13 0.250000 0.250000 0.286044
O O14 0.413969 0.235658 0.256000
O O15 0.000000 0.743149 0.000000
#
# Coordination Sequence:
#
# PCOD8269035 Si02
#       6
#     8  16   8  16  16   8
#     4   7  14  29  48  71  96 126 164 204 246 291
#     4  10  19  33  54  77 102 133 172 215 255 299
#     4   9  17  31  52  75  98 129 170 210 250 303
#     4  10  20  34  52  75 104 136 169 208 256 307
#     4  10  20  34  53  77 105 136 170 210 257 306
#     4   9  17  31  52  75 100 133 172 210 250 302
#
# _framework density 18.268028999999999
#
# number of rings (size 3 to 8) (size 9 to 14) (size 15 to 20)
#    0.000    2.556    0.000    4.000    0.000    4.444 
#    0.000    3.333    0.000    7.333    0.000    0.000 
#    0.000    0.000    0.000    0.000    0.000    0.000 
#
# Total GULP energy -446194.149701 kJ/mol
# GULP energy per Si atom -12394.281936 kJ/mol
# Density = 1.822645 g / cm^3
# Si number density = 18.268029 Si / 1000 Ang^3
#
#
#
# Elastic Constant Matrix: (Units=GPa)
#
#
# Indices 1 2 3 4 5 6 
#
# 1 176.8146 41.1835 62.4846 0.0000 0.0000 0.0000
# 2 41.1835 31.4202 28.6792 0.0000 0.0000 0.0000
# 3 62.4846 28.6792 104.9210 0.0000 0.0000 0.0000
# 4 0.0000 0.0000 0.0000 23.7317 0.0000 0.0000
# 5 0.0000 0.0000 0.0000 0.0000 34.2567 0.0000
# 6 0.0000 0.0000 0.0000 0.0000 0.0000 22.7234
#
#
#
# Elastic Compliance Matrix: (Units=1/GPa)
#
#
# Indices 1 2 3 4 5 6 
#
# 1 0.008698 -0.008891 -0.002750 0.000000 0.000000 0.000000
# 2 -0.008891 0.051495 -0.008781 0.000000 0.000000 0.000000
# 3 -0.002750 -0.008781 0.013569 0.000000 0.000000 0.000000
# 4 0.000000 0.000000 0.000000 0.042138 0.000000 0.000000
# 5 0.000000 0.000000 0.000000 0.000000 0.029191 0.000000
# 6 0.000000 0.000000 0.000000 0.000000 0.000000 0.044008
#
#
# Mechanical properties :
#
#
# Convention : Reuss Voigt Hill
#
# Bulk Modulus (GPa) = 30.37771 64.20559 47.29165
# Shear Modulus (GPa) = 20.75412 28.19624 24.47518
#
# Velocity S-wave (km/s) = 3.37425 3.93297 3.66427
# Velocity P-wave (km/s) = 5.64320 7.47309 6.62166
#
# Compressibility (1/GPa) = 0.03291888
#
# Stress axis : x y z
#
# Youngs Moduli (GPa) = 114.96427 19.41920 73.69855
#
# Poissons Ratio (x) = 0.17266 0.20266
# Poissons Ratio (y) = 1.02217 0.64713
# Poissons Ratio (z) = 0.31614 0.17052
#
# Static dielectric constant tensor:
#      x y z
#    x 3.849410 0.000000 0.000000 
#    y 0.000000 2.895790 0.000000 
#    z 0.000000 0.000000 3.488980 
# 
# 
# High freq. dielectric constant tensor:
#      x y z
#    x 1.732000 0.000000 0.000000 
#    y 0.000000 1.660450 0.000000 
#    z 0.000000 0.000000 1.715210 
# 
# From -- ./inp_files/7391.got.cif
#   From: 2010.03.12/outbox.cif.g09.slc.cpg/sg65_4_cif.got.tgz:7391.got - 2010.04.10 20:52:16.
