data_PCOD8269733
_publ_section_title
;
Structure prediction by ZEFSAII (Michael W. Deem and Ramdas Pophale) SiO2 
 PCOD8269733
Probable space group: C M M M
;
_chemical_formula_sum "Si O2"
_cell_formula_units_Z 104
_cell_length_a 13.936190
_cell_length_b 23.489345
_cell_length_c 19.089349
_cell_angle_alpha 90.000000
_cell_angle_beta 90.000000
_cell_angle_gamma 90.000000
_cell_volume 6248.936095
_symmetry_space_group_name_H-M "C M M M"
_symmetry_group_IT_number 65
_symmetry_cell_setting 'orthorhombic'
loop_
_space_group_symop_operation_xyz
x,y,z
-x,-y,z
x,-y,-z
-x,y,-z
-x,-y,-z
x,y,-z
-x,y,z
x,-y,z
1/2+x,1/2+y,z
1/2-x,1/2-y,z
1/2+x,1/2-y,-z
1/2-x,1/2+y,-z
1/2-x,1/2-y,-z
1/2+x,1/2+y,-z
1/2-x,1/2+y,z
1/2+x,1/2-y,z
loop_
_atom_site_type_symbol
_atom_site_label
_atom_site_fract_x
_atom_site_fract_y
_atom_site_fract_z
Si Si1 0.893558 0.436875 0.417325
Si Si2 0.110829 0.775081 0.582524
Si Si3 0.270353 0.814554 0.793854
Si Si4 0.208013 0.333697 0.640452
Si Si5 0.113552 0.935648 0.000000
Si Si6 0.388696 0.220137 0.077652
Si Si7 0.111543 0.848415 0.117562
O O1 0.890537 0.437083 0.500000
O O2 0.870991 0.500000 0.388572
O O3 0.811241 0.395607 0.389862
O O4 0.000000 0.417723 0.392018
O O5 0.129196 0.782640 0.500000
O O6 0.135783 0.710675 0.604047
O O7 0.180853 0.817393 0.625357
O O8 0.000000 0.788200 0.601733
O O9 0.250000 0.750000 0.773306
O O10 0.315134 0.839857 0.723267
O O11 0.337976 0.817319 0.862475
O O12 0.173555 0.850168 0.811300
O O13 0.145922 0.900182 0.068185
O O14 0.000000 0.939329 0.000000
O O15 0.157380 0.000000 0.000000
O O16 0.500000 0.209980 0.088917
O O17 0.364457 0.287349 0.082192
O O18 0.356602 0.199572 0.000000
O O19 0.000000 0.853666 0.136634
#
# Coordination Sequence:
#
# PCOD8269733 Si02
#       7
#    16  16  16  16   8  16  16
#     4   9  18  33  55  79  98 124 164 208 254 295
#     4  10  20  32  49  73 102 137 169 200 245 300
#     4  10  20  30  43  70  97 130 160 186 235 299
#     4  11  19  33  48  74 104 133 165 204 252 296
#     4   9  16  28  47  68  85 109 154 205 246 278
#     4   9  17  29  45  65  92 124 156 191 231 280
#     4   9  17  29  44  64  90 120 151 191 240 283
#
# _framework density 16.642831999999999
#
# number of rings (size 3 to 8) (size 9 to 14) (size 15 to 20)
#    0.000    2.385    2.308    2.769    1.077    4.000 
#    0.000    0.769    0.000    0.462    0.000    2.154 
#    0.000    0.615    0.000    0.000    0.000    0.000 
#
# Total GULP energy -644495.524336 kJ/mol
# GULP energy per Si atom -12394.144699 kJ/mol
# Density = 1.660495 g / cm^3
# Si number density = 16.642832 Si / 1000 Ang^3
#
#
#
# Elastic Constant Matrix: (Units=GPa)
#
#
# Indices 1 2 3 4 5 6 
#
# 1 74.5562 37.9440 37.1882 0.0000 0.0000 0.0000
# 2 37.9440 85.1344 31.4552 0.0000 0.0000 0.0000
# 3 37.1882 31.4552 90.6473 0.0000 0.0000 0.0000
# 4 0.0000 0.0000 0.0000 5.1227 0.0000 0.0000
# 5 0.0000 0.0000 0.0000 0.0000 18.9990 0.0000
# 6 0.0000 0.0000 0.0000 0.0000 0.0000 17.1961
#
#
#
# Elastic Compliance Matrix: (Units=1/GPa)
#
#
# Indices 1 2 3 4 5 6 
#
# 1 0.019665 -0.006634 -0.005765 0.000000 0.000000 0.000000
# 2 -0.006634 0.015712 -0.002730 0.000000 0.000000 0.000000
# 3 -0.005765 -0.002730 0.014344 0.000000 0.000000 0.000000
# 4 0.000000 0.000000 0.000000 0.195211 0.000000 0.000000
# 5 0.000000 0.000000 0.000000 0.000000 0.052634 0.000000
# 6 0.000000 0.000000 0.000000 0.000000 0.000000 0.058153
#
#
# Mechanical properties :
#
#
# Convention : Reuss Voigt Hill
#
# Bulk Modulus (GPa) = 51.38480 51.50138 51.44309
# Shear Modulus (GPa) = 12.73996 17.84693 15.29344
#
# Velocity S-wave (km/s) = 2.76975 3.27823 3.03466
# Velocity P-wave (km/s) = 6.41645 6.73359 6.57693
#
# Compressibility (1/GPa) = 0.01946101
#
# Stress axis : x y z
#
# Youngs Moduli (GPa) = 50.85206 63.64626 69.71331
#
# Poissons Ratio (x) = 0.42225 0.40192
# Poissons Ratio (y) = 0.33737 0.19034
# Poissons Ratio (z) = 0.29318 0.17378
#
# Static dielectric constant tensor:
#      x y z
#    x 3.189330 0.000000 0.000000 
#    y 0.000000 3.103930 0.000000 
#    z 0.000000 0.000000 3.166260 
# 
# 
# High freq. dielectric constant tensor:
#      x y z
#    x 1.637290 0.000000 0.000000 
#    y 0.000000 1.602070 0.000000 
#    z 0.000000 0.000000 1.641290 
# 
# From -- ./inp_files/53324.got.cif
#   From: 2010.03.12/outbox.cif.g09.slc.cpg/sg65_27_cif.got.tgz:53324.got - 2010.04.10 20:52:16.
