data_PCOD8269308
_publ_section_title
;
Structure prediction by ZEFSAII (Michael W. Deem and Ramdas Pophale) SiO2 
 PCOD8269308
Probable space group: C M M M
;
_chemical_formula_sum "Si O2"
_cell_formula_units_Z 104
_cell_length_a 8.969967
_cell_length_b 28.383664
_cell_length_c 23.097980
_cell_angle_alpha 90.000000
_cell_angle_beta 90.000000
_cell_angle_gamma 90.000000
_cell_volume 5880.757937
_symmetry_space_group_name_H-M "C M M M"
_symmetry_group_IT_number 65
_symmetry_cell_setting 'orthorhombic'
loop_
_space_group_symop_operation_xyz
x,y,z
-x,-y,z
x,-y,-z
-x,y,-z
-x,-y,-z
x,y,-z
-x,y,z
x,-y,z
1/2+x,1/2+y,z
1/2-x,1/2-y,z
1/2+x,1/2-y,-z
1/2-x,1/2+y,-z
1/2-x,1/2-y,-z
1/2+x,1/2+y,-z
1/2-x,1/2+y,z
1/2+x,1/2-y,z
loop_
_atom_site_type_symbol
_atom_site_label
_atom_site_fract_x
_atom_site_fract_y
_atom_site_fract_z
Si Si1 0.325695 0.102761 0.107339
Si Si2 0.176626 0.110680 0.672670
Si Si3 0.670243 0.055564 0.772442
Si Si4 0.323115 0.552580 0.436012
Si Si5 0.676254 0.446377 0.000000
Si Si6 0.176045 0.297922 0.715629
Si Si7 0.673686 0.202927 0.848398
O O1 0.500000 0.097032 0.093639
O O2 0.281859 0.075798 0.165704
O O3 0.281387 0.157820 0.113264
O O4 0.232239 0.080574 0.056190
O O5 0.220153 0.076155 0.724671
O O6 0.236248 0.088061 0.612797
O O7 0.258238 0.160391 0.677207
O O8 0.000000 0.118125 0.673210
O O9 0.500000 0.070846 0.758465
O O10 0.688653 0.000000 0.774061
O O11 0.271044 0.569624 0.500000
O O12 0.500000 0.550728 0.433254
O O13 0.260281 0.500000 0.423895
O O14 0.736976 0.500000 0.000000
O O15 0.500000 0.445808 0.000000
O O16 0.250000 0.250000 0.692914
O O17 0.222469 0.306960 0.782283
O O18 0.000000 0.295190 0.707502
O O19 0.500000 0.212322 0.851081
O O20 0.750000 0.250000 0.873450
#
# Coordination Sequence:
#
# PCOD8269308 Si02
#       7
#    16  16  16  16   8  16  16
#     4  10  20  38  59  78 101 139 182 215 254 315
#     4  11  20  30  50  80 109 138 175 219 270 321
#     4  10  20  34  52  75 106 141 175 217 268 316
#     4   8  15  29  48  71 103 143 184 223 261 308
#     4  11  25  41  56  79 108 137 174 223 270 309
#     4  10  19  34  53  77 109 140 174 215 263 319
#     4   9  18  33  55  80 106 134 170 211 256 310
#
# _framework density 17.684795000000001
#
# number of rings (size 3 to 8) (size 9 to 14) (size 15 to 20)
#    0.000    2.231    1.538    2.538    0.000    4.000 
#    0.000    0.385    0.000    2.308    0.000    5.385 
#    0.000    0.000    0.000    0.000    0.000    0.000 
#
# Total GULP energy -644834.669703 kJ/mol
# GULP energy per Si atom -12400.666725 kJ/mol
# Density = 1.764454 g / cm^3
# Si number density = 17.684795 Si / 1000 Ang^3
#
#
#
# Elastic Constant Matrix: (Units=GPa)
#
#
# Indices 1 2 3 4 5 6 
#
# 1 54.8498 47.5245 39.6287 0.0000 0.0000 0.0000
# 2 47.5245 146.3341 77.3724 0.0000 0.0000 0.0000
# 3 39.6287 77.3724 116.0015 0.0000 0.0000 0.0000
# 4 0.0000 0.0000 0.0000 19.5273 0.0000 0.0000
# 5 0.0000 0.0000 0.0000 0.0000 21.4874 0.0000
# 6 0.0000 0.0000 0.0000 0.0000 0.0000 32.4049
#
#
#
# Elastic Compliance Matrix: (Units=1/GPa)
#
#
# Indices 1 2 3 4 5 6 
#
# 1 0.027311 -0.006081 -0.005274 0.000000 0.000000 0.000000
# 2 -0.006081 0.011911 -0.005867 0.000000 0.000000 0.000000
# 3 -0.005274 -0.005867 0.014335 0.000000 0.000000 0.000000
# 4 0.000000 0.000000 0.000000 0.051210 0.000000 0.000000
# 5 0.000000 0.000000 0.000000 0.000000 0.046539 0.000000
# 6 0.000000 0.000000 0.000000 0.000000 0.000000 0.030860
#
#
# Mechanical properties :
#
#
# Convention : Reuss Voigt Hill
#
# Bulk Modulus (GPa) = 52.32006 71.80407 62.06206
# Shear Modulus (GPa) = 22.42343 24.86125 23.64234
#
# Velocity S-wave (km/s) = 3.56469 3.75346 3.66030
# Velocity P-wave (km/s) = 6.82581 7.71200 7.28240
#
# Compressibility (1/GPa) = 0.01911313
#
# Stress axis : x y z
#
# Youngs Moduli (GPa) = 36.61525 83.95805 69.75711
#
# Poissons Ratio (x) = 0.51057 0.36789
# Poissons Ratio (y) = 0.22266 0.40926
# Poissons Ratio (z) = 0.19311 0.49257
#
# Static dielectric constant tensor:
#      x y z
#    x 3.227880 0.000000 0.000000 
#    y 0.000000 3.500070 0.000000 
#    z 0.000000 0.000000 3.324510 
# 
# 
# High freq. dielectric constant tensor:
#      x y z
#    x 1.671310 0.000000 0.000000 
#    y 0.000000 1.696610 0.000000 
#    z 0.000000 0.000000 1.668420 
# 
# From -- ./inp_files/60418.got.cif
#   From: 2010.03.12/outbox.cif.g09.slc.cpg/sg65_31_cif.got.tgz:60418.got - 2010.04.10 20:52:16.
