data_PCOD8269603
_publ_section_title
;
Structure prediction by ZEFSAII (Michael W. Deem and Ramdas Pophale) SiO2 
 PCOD8269603
Probable space group: C M M M
;
_chemical_formula_sum "Si O2"
_cell_formula_units_Z 64
_cell_length_a 24.121940
_cell_length_b 8.713580
_cell_length_c 15.598932
_cell_angle_alpha 90.000000
_cell_angle_beta 90.000000
_cell_angle_gamma 90.000000
_cell_volume 3278.715400
_symmetry_space_group_name_H-M "C M M M"
_symmetry_group_IT_number 65
_symmetry_cell_setting 'orthorhombic'
loop_
_space_group_symop_operation_xyz
x,y,z
-x,-y,z
x,-y,-z
-x,y,-z
-x,-y,-z
x,y,-z
-x,y,z
x,-y,z
1/2+x,1/2+y,z
1/2-x,1/2-y,z
1/2+x,1/2-y,-z
1/2-x,1/2+y,-z
1/2-x,1/2-y,-z
1/2+x,1/2+y,-z
1/2-x,1/2+y,z
1/2+x,1/2-y,z
loop_
_atom_site_type_symbol
_atom_site_label
_atom_site_fract_x
_atom_site_fract_y
_atom_site_fract_z
Si Si1 0.500000 0.182762 0.097405
Si Si2 0.383207 0.181478 0.842816
Si Si3 0.810677 0.819338 0.500000
Si Si4 0.500000 0.818348 0.404643
Si Si5 0.310524 0.817354 0.000000
Si Si6 0.619295 0.181020 0.652001
O O1 0.554945 0.248938 0.143436
O O2 0.500000 0.000000 0.102059
O O3 0.500000 0.239778 0.000000
O O4 0.361259 0.225554 0.748094
O O5 0.386788 0.000000 0.852525
O O6 0.341821 0.245876 0.915295
O O7 0.750000 0.750000 0.500000
O O8 0.842408 0.768013 0.414854
O O9 0.805475 0.000000 0.500000
O O10 0.500000 0.747895 0.500000
O O11 0.555502 0.763270 0.356595
O O12 0.500000 0.000000 0.409139
O O13 0.250000 0.750000 0.000000
O O14 0.307846 0.000000 0.000000
O O15 0.624477 0.000000 0.634204
#
# Coordination Sequence:
#
# PCOD8269603 Si02
#       6
#     8  16   8   8   8  16
#     4   9  13  23  47  82 118 145 174 222 273 316
#     4   9  17  29  51  81 113 144 177 220 270 318
#     4  12  26  43  60  79 105 142 186 236 285 332
#     4   9  15  27  53  84 113 143 175 215 266 321
#     4  10  20  35  51  75 107 142 183 224 266 312
#     4  10  19  35  58  85 115 148 183 223 271 329
#
# _framework density 19.519839000000001
#
# number of rings (size 3 to 8) (size 9 to 14) (size 15 to 20)
#    0.000    2.250    2.500    1.875    0.000    4.000 
#    0.000    5.000    0.000    0.000    0.000    3.500 
#    0.000    0.000    0.000    0.000    0.000    0.000 
#
# Total GULP energy -396684.748311 kJ/mol
# GULP energy per Si atom -12396.398385 kJ/mol
# Density = 1.947541 g / cm^3
# Si number density = 19.519839 Si / 1000 Ang^3
#
#
#
# Elastic Constant Matrix: (Units=GPa)
#
#
# Indices 1 2 3 4 5 6 
#
# 1 172.8564 38.7783 92.8173 0.0000 0.0000 0.0000
# 2 38.7783 46.2161 39.0408 0.0000 0.0000 0.0000
# 3 92.8173 39.0408 182.1780 0.0000 0.0000 0.0000
# 4 0.0000 0.0000 0.0000 11.1009 0.0000 0.0000
# 5 0.0000 0.0000 0.0000 0.0000 12.3406 0.0000
# 6 0.0000 0.0000 0.0000 0.0000 0.0000 23.1303
#
#
#
# Elastic Compliance Matrix: (Units=1/GPa)
#
#
# Indices 1 2 3 4 5 6 
#
# 1 0.008610 -0.004297 -0.003466 0.000000 0.000000 0.000000
# 2 -0.004297 0.028564 -0.003932 0.000000 0.000000 0.000000
# 3 -0.003466 -0.003932 0.008098 0.000000 0.000000 0.000000
# 4 0.000000 0.000000 0.000000 0.090083 0.000000 0.000000
# 5 0.000000 0.000000 0.000000 0.000000 0.081033 0.000000
# 6 0.000000 0.000000 0.000000 0.000000 0.000000 0.043233
#
#
# Mechanical properties :
#
#
# Convention : Reuss Voigt Hill
#
# Bulk Modulus (GPa) = 45.69868 82.50261 64.10064
# Shear Modulus (GPa) = 17.22322 24.68862 20.95592
#
# Velocity S-wave (km/s) = 2.97365 3.56026 3.28009
# Velocity P-wave (km/s) = 5.93737 7.69794 6.87425
#
# Compressibility (1/GPa) = 0.02188247
#
# Stress axis : x y z
#
# Youngs Moduli (GPa) = 116.14200 35.00861 123.49168
#
# Poissons Ratio (x) = 0.15042 0.42802
# Poissons Ratio (y) = 0.49902 0.48561
# Poissons Ratio (z) = 0.40255 0.13766
#
# Static dielectric constant tensor:
#      x y z
#    x 3.576070 0.000000 0.000000 
#    y 0.000000 2.953240 0.000000 
#    z 0.000000 0.000000 3.858330 
# 
# 
# High freq. dielectric constant tensor:
#      x y z
#    x 1.765200 0.000000 0.000000 
#    y 0.000000 1.693480 0.000000 
#    z 0.000000 0.000000 1.779830 
# 
# From -- ./inp_files/45129.got.cif
#   From: 2010.03.12/outbox.cif.g09.slc.cpg/sg65_23_cif.got.tgz:45129.got - 2010.04.10 20:52:16.
