data_PCOD8269017
_publ_section_title
;
Structure prediction by ZEFSAII (Michael W. Deem and Ramdas Pophale) SiO2 
 PCOD8269017
Probable space group: C M M M
;
_chemical_formula_sum "Si O2"
_cell_formula_units_Z 88
_cell_length_a 25.788154
_cell_length_b 9.945804
_cell_length_c 18.676874
_cell_angle_alpha 90.000000
_cell_angle_beta 90.000000
_cell_angle_gamma 90.000000
_cell_volume 4790.317954
_symmetry_space_group_name_H-M "C M M M"
_symmetry_group_IT_number 65
_symmetry_cell_setting 'orthorhombic'
loop_
_space_group_symop_operation_xyz
x,y,z
-x,-y,z
x,-y,-z
-x,y,-z
-x,-y,-z
x,y,-z
-x,y,z
x,-y,z
1/2+x,1/2+y,z
1/2-x,1/2-y,z
1/2+x,1/2-y,-z
1/2-x,1/2+y,-z
1/2-x,1/2-y,-z
1/2+x,1/2+y,-z
1/2-x,1/2+y,z
1/2+x,1/2-y,z
loop_
_atom_site_type_symbol
_atom_site_label
_atom_site_fract_x
_atom_site_fract_y
_atom_site_fract_z
Si Si1 0.305371 0.500000 0.915581
Si Si2 0.796083 0.153721 0.415807
Si Si3 0.500000 0.158369 0.584885
Si Si4 0.942199 0.153661 0.199763
Si Si5 0.191660 0.500000 0.915643
Si Si6 0.373278 0.748078 0.915864
Si Si7 0.408151 0.656969 0.355037
O O1 0.248480 0.500000 0.879412
O O2 0.336959 0.627751 0.890418
O O3 0.298907 0.500000 0.000000
O O4 0.802796 0.172623 0.500000
O O5 0.750000 0.250000 0.386809
O O6 0.850809 0.195628 0.381217
O O7 0.781819 0.000000 0.396145
O O8 0.500000 0.160884 0.500000
O O9 0.449143 0.239182 0.611114
O O10 0.500000 0.000000 0.610874
O O11 0.924868 0.243162 0.131832
O O12 0.907042 0.176188 0.269448
O O13 0.000000 0.198724 0.220676
O O14 0.940849 0.000000 0.174165
O O15 0.159070 0.625646 0.890668
O O16 0.199180 0.500000 0.000000
O O17 0.387790 0.746654 0.000000
O O18 0.422066 0.500000 0.374242
#
# Coordination Sequence:
#
# PCOD8269017 Si02
#       7
#     8  16   8  16   8  16  16
#     4   9  16  30  53  77 103 139 178 227 282 329
#     4   9  18  33  56  84 112 144 180 221 271 327
#     4  11  23  37  57  91 122 143 180 236 284 328
#     4  10  20  36  57  78 104 143 186 234 281 321
#     4   9  18  32  51  77 109 137 172 225 286 339
#     4  10  19  33  53  80 109 141 184 233 280 332
#     4  10  20  38  60  81 110 152 195 231 273 333
#
# _framework density 18.370387999999998
#
# number of rings (size 3 to 8) (size 9 to 14) (size 15 to 20)
#    0.000    2.273    1.818    1.364    0.000    4.727 
#    1.636    5.000    0.000    1.636    0.000    0.000 
#    0.000    0.000    0.000    0.000    0.000    0.000 
#
# Total GULP energy -545397.000632 kJ/mol
# GULP energy per Si atom -12395.386378 kJ/mol
# Density = 1.832858 g / cm^3
# Si number density = 18.370388 Si / 1000 Ang^3
#
#
#
# Elastic Constant Matrix: (Units=GPa)
#
#
# Indices 1 2 3 4 5 6 
#
# 1 137.4229 63.8256 44.8053 0.0000 0.0000 0.0000
# 2 63.8256 119.7231 30.4063 0.0000 0.0000 0.0000
# 3 44.8053 30.4063 61.1742 0.0000 0.0000 0.0000
# 4 0.0000 0.0000 0.0000 21.1287 0.0000 0.0000
# 5 0.0000 0.0000 0.0000 0.0000 27.4612 0.0000
# 6 0.0000 0.0000 0.0000 0.0000 0.0000 -4.2152
#
#
#
# Elastic Compliance Matrix: (Units=1/GPa)
#
#
# Indices 1 2 3 4 5 6 
#
# 1 0.011351 -0.004509 -0.006072 0.000000 0.000000 0.000000
# 2 -0.004509 0.011351 -0.002339 0.000000 0.000000 0.000000
# 3 -0.006072 -0.002339 0.021957 0.000000 0.000000 0.000000
# 4 0.000000 0.000000 0.000000 0.047329 0.000000 0.000000
# 5 0.000000 0.000000 0.000000 0.000000 0.036415 0.000000
# 6 0.000000 0.000000 0.000000 0.000000 0.000000 -0.237235
#
#
# Mechanical properties :
#
#
# Convention : Reuss Voigt Hill
#
# Bulk Modulus (GPa) = 53.14319 66.26608 59.70463
# Shear Modulus (GPa) = -65.17258 20.82714 -22.17272
#
# Velocity S-wave (km/s) = -5.96272 3.37075 -3.47793
# Velocity P-wave (km/s) = 4.29113 7.16239 4.05500
#
# Compressibility (1/GPa) = 0.01881709
#
# Stress axis : x y z
#
# Youngs Moduli (GPa) = 88.09899 88.10176 45.54350
#
# Poissons Ratio (x) = 0.39725 0.27656
# Poissons Ratio (y) = 0.39724 0.10654
# Poissons Ratio (z) = 0.53497 0.20609
#
# Static dielectric constant tensor:
#      x y z
#    x 3.503550 0.000000 0.000000 
#    y 0.000000 3.617010 0.000000 
#    z 0.000000 0.000000 3.135220 
# 
# 
# High freq. dielectric constant tensor:
#      x y z
#    x 1.717370 0.000000 0.000000 
#    y 0.000000 1.708770 0.000000 
#    z 0.000000 0.000000 1.692790 
# 
# From -- ./inp_files/65210.got.cif
#   From: 2010.03.12/outbox.cif.g09.slc.cpg/sg65_33_cif.got.tgz:65210.got - 2010.04.10 20:52:16.
