data_PCOD8269777
_publ_section_title
;
Structure prediction by ZEFSAII (Michael W. Deem and Ramdas Pophale) SiO2 
 PCOD8269777
Probable space group: C M M M
;
_chemical_formula_sum "Si O2"
_cell_formula_units_Z 88
_cell_length_a 30.739364
_cell_length_b 19.812827
_cell_length_c 8.757627
_cell_angle_alpha 90.000000
_cell_angle_beta 90.000000
_cell_angle_gamma 90.000000
_cell_volume 5333.689984
_symmetry_space_group_name_H-M "C M M M"
_symmetry_group_IT_number 65
_symmetry_cell_setting 'orthorhombic'
loop_
_space_group_symop_operation_xyz
x,y,z
-x,-y,z
x,-y,-z
-x,y,-z
-x,-y,-z
x,y,-z
-x,y,z
x,-y,z
1/2+x,1/2+y,z
1/2-x,1/2-y,z
1/2+x,1/2-y,-z
1/2-x,1/2+y,-z
1/2-x,1/2-y,-z
1/2+x,1/2+y,-z
1/2-x,1/2+y,z
1/2+x,1/2-y,z
loop_
_atom_site_type_symbol
_atom_site_label
_atom_site_fract_x
_atom_site_fract_y
_atom_site_fract_z
Si Si1 0.236442 0.573890 0.325375
Si Si2 0.827180 0.075824 0.174527
Si Si3 0.051644 0.000000 0.672026
Si Si4 0.205863 0.716012 0.321434
Si Si5 0.372199 0.304090 0.322409
Si Si6 0.450902 0.639121 0.819977
O O1 0.253199 0.582068 0.500000
O O2 0.213577 0.500000 0.305033
O O3 0.276208 0.579317 0.210164
O O4 0.203863 0.635655 0.287099
O O5 0.852435 0.122369 0.292508
O O6 0.844634 0.000000 0.198836
O O7 0.834589 0.099602 0.000000
O O8 0.067305 0.067560 0.758232
O O9 0.070206 0.000000 0.500000
O O10 0.000000 0.000000 0.671798
O O11 0.205420 0.732503 0.500000
O O12 0.250000 0.750000 0.252051
O O13 0.161869 0.749202 0.252494
O O14 0.380349 0.292266 0.500000
O O15 0.419281 0.300949 0.239609
O O16 0.500000 0.653864 0.762196
O O17 0.449206 0.635920 0.000000
#
# Coordination Sequence:
#
# PCOD8269777 Si02
#       6
#    16  16   8  16  16  16
#     4   9  16  29  49  67  87 121 160 191 225 273
#     4  10  20  31  42  61  91 122 155 195 234 270
#     4   9  17  31  51  71  89 115 155 195 231 275
#     4   9  16  29  46  68  96 120 149 192 232 266
#     4  11  21  32  49  67  88 121 157 194 231 275
#     4  10  21  36  50  65  90 119 149 192 240 277
#
# _framework density 16.498895999999998
#
# number of rings (size 3 to 8) (size 9 to 14) (size 15 to 20)
#    0.000    2.273    1.818    1.909    1.273    3.273 
#    0.000    2.727    0.000    0.000    0.000    0.000 
#    0.000    0.727    0.000    9.091    0.000    1.455 
#
# Total GULP energy -545326.750320 kJ/mol
# GULP energy per Si atom -12393.789780 kJ/mol
# Density = 1.646134 g / cm^3
# Si number density = 16.498896 Si / 1000 Ang^3
#
#
#
# Elastic Constant Matrix: (Units=GPa)
#
#
# Indices 1 2 3 4 5 6 
#
# 1 93.8234 53.4590 11.4360 0.0000 0.0000 0.0000
# 2 53.4590 96.0342 14.3281 0.0000 0.0000 0.0000
# 3 11.4360 14.3281 32.9229 0.0000 0.0000 0.0000
# 4 0.0000 0.0000 0.0000 11.3941 0.0000 0.0000
# 5 0.0000 0.0000 0.0000 0.0000 19.2647 0.0000
# 6 0.0000 0.0000 0.0000 0.0000 0.0000 28.7288
#
#
#
# Elastic Compliance Matrix: (Units=1/GPa)
#
#
# Indices 1 2 3 4 5 6 
#
# 1 0.015705 -0.008479 -0.001765 0.000000 0.000000 0.000000
# 2 -0.008479 0.015714 -0.003893 0.000000 0.000000 0.000000
# 3 -0.001765 -0.003893 0.032681 0.000000 0.000000 0.000000
# 4 0.000000 0.000000 0.000000 0.087765 0.000000 0.000000
# 5 0.000000 0.000000 0.000000 0.000000 0.051908 0.000000
# 6 0.000000 0.000000 0.000000 0.000000 0.000000 0.034808
#
#
# Mechanical properties :
#
#
# Convention : Reuss Voigt Hill
#
# Bulk Modulus (GPa) = 27.91343 42.35851 35.13597
# Shear Modulus (GPa) = 17.93415 21.44802 19.69109
#
# Velocity S-wave (km/s) = 3.30053 3.60942 3.45842
# Velocity P-wave (km/s) = 5.61068 6.56504 6.10654
#
# Compressibility (1/GPa) = 0.03582505
#
# Stress axis : x y z
#
# Youngs Moduli (GPa) = 63.67576 63.63858 30.59836
#
# Poissons Ratio (x) = 0.53958 0.05401
# Poissons Ratio (y) = 0.53990 0.11913
# Poissons Ratio (z) = 0.11239 0.24777
#
# Static dielectric constant tensor:
#      x y z
#    x 3.199440 0.000000 0.000000 
#    y 0.000000 3.162250 0.000000 
#    z 0.000000 0.000000 2.992100 
# 
# 
# High freq. dielectric constant tensor:
#      x y z
#    x 1.614950 0.000000 0.000000 
#    y 0.000000 1.609470 0.000000 
#    z 0.000000 0.000000 1.627580 
# 
# From -- ./inp_files/12650.got.cif
#   From: 2010.03.12/outbox.cif.g09.slc.cpg/sg65_7_cif.got.tgz:12650.got - 2010.04.10 20:52:16.
