data_PCOD8269446
_publ_section_title
;
Structure prediction by ZEFSAII (Michael W. Deem and Ramdas Pophale) SiO2 
 PCOD8269446
Probable space group: C M M M
;
_chemical_formula_sum "Si O2"
_cell_formula_units_Z 104
_cell_length_a 28.597587
_cell_length_b 10.196489
_cell_length_c 19.051541
_cell_angle_alpha 90.000000
_cell_angle_beta 90.000000
_cell_angle_gamma 90.000000
_cell_volume 5555.333741
_symmetry_space_group_name_H-M "C M M M"
_symmetry_group_IT_number 65
_symmetry_cell_setting 'orthorhombic'
loop_
_space_group_symop_operation_xyz
x,y,z
-x,-y,z
x,-y,-z
-x,y,-z
-x,-y,-z
x,y,-z
-x,y,z
x,-y,z
1/2+x,1/2+y,z
1/2-x,1/2-y,z
1/2+x,1/2-y,-z
1/2-x,1/2+y,-z
1/2-x,1/2-y,-z
1/2+x,1/2+y,-z
1/2-x,1/2+y,z
1/2+x,1/2-y,z
loop_
_atom_site_type_symbol
_atom_site_label
_atom_site_fract_x
_atom_site_fract_y
_atom_site_fract_z
Si Si1 0.552471 0.644105 0.846867
Si Si2 0.645113 0.148254 0.702205
Si Si3 0.444892 0.500000 0.578997
Si Si4 0.706622 0.153003 0.828143
Si Si5 0.380502 0.850150 0.919273
Si Si6 0.210644 0.649492 0.579919
Si Si7 0.052521 0.211210 0.690947
O O1 0.500000 0.680574 0.871856
O O2 0.566674 0.500000 0.876439
O O3 0.586961 0.755725 0.873635
O O4 0.553203 0.629169 0.762573
O O5 0.677075 0.214820 0.762378
O O6 0.664914 0.179046 0.625207
O O7 0.590155 0.175245 0.701191
O O8 0.649915 0.000000 0.724356
O O9 0.500000 0.500000 0.571739
O O10 0.422436 0.500000 0.500000
O O11 0.429958 0.373687 0.624285
O O12 0.750000 0.250000 0.840081
O O13 0.673310 0.163354 0.895986
O O14 0.722884 0.000000 0.817511
O O15 0.397529 0.000000 0.907594
O O16 0.384213 0.808434 0.000000
O O17 0.196368 0.676486 0.500000
O O18 0.228652 0.500000 0.590575
O O19 0.250000 0.750000 0.605389
O O20 0.000000 0.267391 0.677341
#
# Coordination Sequence:
#
# PCOD8269446 Si02
#       7
#    16  16   8  16  16  16  16
#     4  10  20  36  59  86 118 152 191 239 285 331
#     4  10  20  35  55  81 111 144 183 230 283 338
#     4   9  18  34  54  78 113 153 189 231 280 326
#     4  10  21  38  57  82 112 146 189 237 289 344
#     4  10  22  40  60  84 117 154 191 234 287 349
#     4   9  18  34  54  76 107 143 179 225 279 332
#     4  10  19  34  56  82 112 149 189 230 276 331
#
# _framework density 18.720748
#
# number of rings (size 3 to 8) (size 9 to 14) (size 15 to 20)
#    0.000    2.231    2.308    0.462    0.000    2.769 
#    2.769    3.077    0.000    0.000    0.000    4.308 
#    0.000    0.000    0.000    0.000    0.000    0.000 
#
# Total GULP energy -644358.499461 kJ/mol
# GULP energy per Si atom -12391.509605 kJ/mol
# Density = 1.867814 g / cm^3
# Si number density = 18.720748 Si / 1000 Ang^3
#
#
#
# Elastic Constant Matrix: (Units=GPa)
#
#
# Indices 1 2 3 4 5 6 
#
# 1 107.2682 59.2915 31.4688 0.0000 0.0000 0.0000
# 2 59.2915 71.3015 39.3793 0.0000 0.0000 0.0000
# 3 31.4688 39.3793 94.0930 0.0000 0.0000 0.0000
# 4 0.0000 0.0000 0.0000 20.7849 0.0000 0.0000
# 5 0.0000 0.0000 0.0000 0.0000 23.4536 0.0000
# 6 0.0000 0.0000 0.0000 0.0000 0.0000 32.9845
#
#
#
# Elastic Compliance Matrix: (Units=1/GPa)
#
#
# Indices 1 2 3 4 5 6 
#
# 1 0.017259 -0.014520 0.000305 0.000000 0.000000 0.000000
# 2 -0.014520 0.030457 -0.007891 0.000000 0.000000 0.000000
# 3 0.000305 -0.007891 0.013828 0.000000 0.000000 0.000000
# 4 0.000000 0.000000 0.000000 0.048112 0.000000 0.000000
# 5 0.000000 0.000000 0.000000 0.000000 0.042637 0.000000
# 6 0.000000 0.000000 0.000000 0.000000 0.000000 0.030317
#
#
# Mechanical properties :
#
#
# Convention : Reuss Voigt Hill
#
# Bulk Modulus (GPa) = 57.69564 59.21577 58.45570
# Shear Modulus (GPa) = 21.49609 24.94614 23.22112
#
# Velocity S-wave (km/s) = 3.39226 3.65436 3.52574
# Velocity P-wave (km/s) = 6.79921 7.03602 6.91863
#
# Compressibility (1/GPa) = 0.01733233
#
# Stress axis : x y z
#
# Youngs Moduli (GPa) = 57.94114 32.83287 72.31590
#
# Poissons Ratio (x) = 0.47674 -0.02204
# Poissons Ratio (y) = 0.84131 0.57062
# Poissons Ratio (z) = -0.01766 0.25907
#
# Static dielectric constant tensor:
#      x y z
#    x 3.289770 0.000000 0.000000 
#    y 0.000000 3.307880 0.000000 
#    z 0.000000 0.000000 3.600320 
# 
# 
# High freq. dielectric constant tensor:
#      x y z
#    x 1.715470 0.000000 0.000000 
#    y 0.000000 1.715000 0.000000 
#    z 0.000000 0.000000 1.733400 
# 
# From -- ./inp_files/57561.got.cif
#   From: 2010.03.12/outbox.cif.g09.slc.cpg/sg65_29_cif.got.tgz:57561.got - 2010.04.10 20:52:16.
