data_PCOD8269259
_publ_section_title
;
Structure prediction by ZEFSAII (Michael W. Deem and Ramdas Pophale) SiO2 
 PCOD8269259
Probable space group: C M M M
;
_chemical_formula_sum "Si O2"
_cell_formula_units_Z 72
_cell_length_a 15.528878
_cell_length_b 8.036656
_cell_length_c 27.868434
_cell_angle_alpha 90.000000
_cell_angle_beta 90.000000
_cell_angle_gamma 90.000000
_cell_volume 3477.987546
_symmetry_space_group_name_H-M "C M M M"
_symmetry_group_IT_number 65
_symmetry_cell_setting 'orthorhombic'
loop_
_space_group_symop_operation_xyz
x,y,z
-x,-y,z
x,-y,-z
-x,y,-z
-x,-y,-z
x,y,-z
-x,y,z
x,-y,z
1/2+x,1/2+y,z
1/2-x,1/2-y,z
1/2+x,1/2-y,-z
1/2-x,1/2+y,-z
1/2-x,1/2-y,-z
1/2+x,1/2+y,-z
1/2-x,1/2+y,z
1/2+x,1/2-y,z
loop_
_atom_site_type_symbol
_atom_site_label
_atom_site_fract_x
_atom_site_fract_y
_atom_site_fract_z
Si Si1 0.399183 0.312383 0.615732
Si Si2 0.000000 0.188557 0.888022
Si Si3 0.602461 0.000000 0.446170
Si Si4 0.841493 0.692864 0.052808
Si Si5 0.000000 0.695216 0.218041
Si Si6 0.841630 0.695340 0.284163
O O1 0.500000 0.284526 0.624517
O O2 0.381033 0.500000 0.595600
O O3 0.364291 0.169364 0.579666
O O4 0.351766 0.294054 0.666252
O O5 0.914836 0.269282 0.909242
O O6 0.000000 0.205091 0.831110
O O7 0.000000 0.000000 0.903871
O O8 0.500000 0.000000 0.447267
O O9 0.639972 0.000000 0.500000
O O10 0.838373 0.500000 0.044992
O O11 0.750000 0.750000 0.074348
O O12 0.858100 0.776105 0.000000
O O13 0.084420 0.749688 0.247337
O O14 0.000000 0.500000 0.206841
O O15 0.847560 0.500000 0.294613
O O16 0.750000 0.750000 0.261723
#
# Coordination Sequence:
#
# PCOD8269259 Si02
#       6
#    16   8   8  16   8  16
#     4  10  19  33  58  87 119 158 201 251 302 362
#     4  12  25  39  60  89 126 168 205 253 312 377
#     4   9  18  32  54  86 124 161 201 249 303 368
#     4  10  21  39  64  92 123 161 210 260 307 367
#     4  10  24  43  63  84 124 166 203 256 317 366
#     4  11  22  39  63  91 119 155 204 255 306 368
#
# _framework density 20.701626999999998
#
# number of rings (size 3 to 8) (size 9 to 14) (size 15 to 20)
#    0.000    1.667    2.222    2.667    0.000    5.778 
#    0.000    4.444    0.000    0.667    0.000    0.000 
#    0.000    0.000    0.000    0.000    0.000    0.000 
#
# Total GULP energy -446423.834395 kJ/mol
# GULP energy per Si atom -12400.662067 kJ/mol
# Density = 2.065451 g / cm^3
# Si number density = 20.701627 Si / 1000 Ang^3
#
#
#
# Elastic Constant Matrix: (Units=GPa)
#
#
# Indices 1 2 3 4 5 6 
#
# 1 132.6635 35.6768 62.7576 0.0000 0.0000 0.0000
# 2 35.6768 113.0613 42.2729 0.0000 0.0000 0.0000
# 3 62.7576 42.2729 124.7802 0.0000 0.0000 0.0000
# 4 0.0000 0.0000 0.0000 24.7805 0.0000 0.0000
# 5 0.0000 0.0000 0.0000 0.0000 6.5184 0.0000
# 6 0.0000 0.0000 0.0000 0.0000 0.0000 27.9535
#
#
#
# Elastic Compliance Matrix: (Units=1/GPa)
#
#
# Indices 1 2 3 4 5 6 
#
# 1 0.010102 -0.001475 -0.004581 0.000000 0.000000 0.000000
# 2 -0.001475 0.010343 -0.002762 0.000000 0.000000 0.000000
# 3 -0.004581 -0.002762 0.011254 0.000000 0.000000 0.000000
# 4 0.000000 0.000000 0.000000 0.040354 0.000000 0.000000
# 5 0.000000 0.000000 0.000000 0.000000 0.153412 0.000000
# 6 0.000000 0.000000 0.000000 0.000000 0.000000 0.035774
#
#
# Mechanical properties :
#
#
# Convention : Reuss Voigt Hill
#
# Bulk Modulus (GPa) = 71.11142 72.43551 71.77346
# Shear Modulus (GPa) = 17.63288 27.17032 22.40160
#
# Velocity S-wave (km/s) = 2.92166 3.62674 3.29312
# Velocity P-wave (km/s) = 6.76807 7.25285 7.01465
#
# Compressibility (1/GPa) = 0.01406244
#
# Stress axis : x y z
#
# Youngs Moduli (GPa) = 98.99520 96.68456 88.85889
#
# Poissons Ratio (x) = 0.14259 0.40705
# Poissons Ratio (y) = 0.14600 0.24545
# Poissons Ratio (z) = 0.45348 0.26706
#
# Static dielectric constant tensor:
#      x y z
#    x 3.724020 0.000000 0.000000 
#    y 0.000000 3.855220 0.000000 
#    z 0.000000 0.000000 3.626670 
# 
# 
# High freq. dielectric constant tensor:
#      x y z
#    x 1.806890 0.000000 0.000000 
#    y 0.000000 1.820350 0.000000 
#    z 0.000000 0.000000 1.794770 
# 
# From -- ./inp_files/74686.got.cif
#   From: 2010.03.12/outbox.cif.g09.slc.cpg/sg65_38_cif.got.tgz:74686.got - 2010.04.10 20:52:16.
