data_PCOD8269326
_publ_section_title
;
Structure prediction by ZEFSAII (Michael W. Deem and Ramdas Pophale) SiO2 
 PCOD8269326
Probable space group: C M M M
;
_chemical_formula_sum "Si O2"
_cell_formula_units_Z 88
_cell_length_a 28.875724
_cell_length_b 17.738900
_cell_length_c 9.291524
_cell_angle_alpha 90.000000
_cell_angle_beta 90.000000
_cell_angle_gamma 90.000000
_cell_volume 4759.337691
_symmetry_space_group_name_H-M "C M M M"
_symmetry_group_IT_number 65
_symmetry_cell_setting 'orthorhombic'
loop_
_space_group_symop_operation_xyz
x,y,z
-x,-y,z
x,-y,-z
-x,y,-z
-x,-y,-z
x,y,-z
-x,y,z
x,-y,z
1/2+x,1/2+y,z
1/2-x,1/2-y,z
1/2+x,1/2-y,-z
1/2-x,1/2+y,-z
1/2-x,1/2-y,-z
1/2+x,1/2+y,-z
1/2-x,1/2+y,z
1/2+x,1/2-y,z
loop_
_atom_site_type_symbol
_atom_site_label
_atom_site_fract_x
_atom_site_fract_y
_atom_site_fract_z
Si Si1 0.097337 0.637387 0.667985
Si Si2 0.197858 0.413047 0.664854
Si Si3 0.054692 0.500000 0.836776
Si Si4 0.551721 0.708004 0.329536
Si Si5 0.785729 0.910345 0.162388
Si Si6 0.375498 0.586805 0.331467
O O1 0.086686 0.623328 0.500000
O O2 0.152335 0.636118 0.696315
O O3 0.072233 0.573797 0.757722
O O4 0.077864 0.717047 0.723419
O O5 0.213826 0.405891 0.500000
O O6 0.186398 0.500000 0.702365
O O7 0.239143 0.379812 0.762250
O O8 0.000000 0.500000 0.832713
O O9 0.073435 0.500000 0.000000
O O10 0.548378 0.708825 0.500000
O O11 0.500000 0.704318 0.262688
O O12 0.580374 0.634840 0.278611
O O13 0.830681 0.881894 0.248079
O O14 0.784647 0.000000 0.167196
O O15 0.787708 0.879472 0.000000
O O16 0.365714 0.597901 0.500000
O O17 0.386098 0.500000 0.293925
#
# Coordination Sequence:
#
# PCOD8269326 Si02
#       6
#    16  16   8  16  16  16
#     4  10  19  34  54  76 101 135 177 218 258 303
#     4   9  16  28  47  73 101 129 166 209 252 299
#     4  11  23  35  49  73 105 139 177 219 260 305
#     4   9  18  32  52  78 104 131 169 218 266 309
#     4   9  17  29  48  74 101 132 169 207 251 304
#     4   9  17  31  52  77 104 134 168 210 260 313
#
# _framework density 18.489968999999999
#
# number of rings (size 3 to 8) (size 9 to 14) (size 15 to 20)
#    0.000    2.636    0.909    1.364    0.000    4.727 
#    0.000    3.636    0.000    7.091    0.000    2.545 
#    0.000    0.000    0.000    0.000    0.000    0.000 
#
# Total GULP energy -545602.161748 kJ/mol
# GULP energy per Si atom -12400.049131 kJ/mol
# Density = 1.844788 g / cm^3
# Si number density = 18.489969 Si / 1000 Ang^3
#
#
#
# Elastic Constant Matrix: (Units=GPa)
#
#
# Indices 1 2 3 4 5 6 
#
# 1 168.3992 70.7320 60.9430 0.0000 0.0000 0.0000
# 2 70.7320 92.0948 40.3726 0.0000 0.0000 0.0000
# 3 60.9430 40.3726 75.1563 0.0000 0.0000 0.0000
# 4 0.0000 0.0000 0.0000 6.7356 0.0000 0.0000
# 5 0.0000 0.0000 0.0000 0.0000 17.2914 0.0000
# 6 0.0000 0.0000 0.0000 0.0000 0.0000 41.3239
#
#
#
# Elastic Compliance Matrix: (Units=1/GPa)
#
#
# Indices 1 2 3 4 5 6 
#
# 1 0.010155 -0.005480 -0.005290 0.000000 0.000000 0.000000
# 2 -0.005480 0.017160 -0.004775 0.000000 0.000000 0.000000
# 3 -0.005290 -0.004775 0.020160 0.000000 0.000000 0.000000
# 4 0.000000 0.000000 0.000000 0.148464 0.000000 0.000000
# 5 0.000000 0.000000 0.000000 0.000000 0.057832 0.000000
# 6 0.000000 0.000000 0.000000 0.000000 0.000000 0.024199
#
#
# Mechanical properties :
#
#
# Convention : Reuss Voigt Hill
#
# Bulk Modulus (GPa) = 61.03052 75.52727 68.27889
# Shear Modulus (GPa) = 15.89713 23.97704 19.93708
#
# Velocity S-wave (km/s) = 2.93537 3.60496 3.28726
# Velocity P-wave (km/s) = 6.67589 7.63309 7.17048
#
# Compressibility (1/GPa) = 0.01638525
#
# Stress axis : x y z
#
# Youngs Moduli (GPa) = 98.47829 58.27449 49.60205
#
# Poissons Ratio (x) = 0.31933 0.26242
# Poissons Ratio (y) = 0.53964 0.23683
# Poissons Ratio (z) = 0.52100 0.27824
#
# Static dielectric constant tensor:
#      x y z
#    x 3.634800 0.000000 0.000000 
#    y 0.000000 3.245210 0.000000 
#    z 0.000000 0.000000 3.285800 
# 
# 
# High freq. dielectric constant tensor:
#      x y z
#    x 1.730150 0.000000 0.000000 
#    y 0.000000 1.693940 0.000000 
#    z 0.000000 0.000000 1.693280 
# 
# From -- ./inp_files/18274.got.cif
#   From: 2010.03.12/outbox.cif.g09.slc.cpg/sg65_10_cif.got.tgz:18274.got - 2010.04.10 20:52:16.
