data_PCOD8269240
_publ_section_title
;
Structure prediction by ZEFSAII (Michael W. Deem and Ramdas Pophale) SiO2 
 PCOD8269240
Probable space group: C M M M
;
_chemical_formula_sum "Si O2"
_cell_formula_units_Z 120
_cell_length_a 13.093705
_cell_length_b 13.433918
_cell_length_c 31.651884
_cell_angle_alpha 90.000000
_cell_angle_beta 90.000000
_cell_angle_gamma 90.000000
_cell_volume 5567.558777
_symmetry_space_group_name_H-M "C M M M"
_symmetry_group_IT_number 65
_symmetry_cell_setting 'orthorhombic'
loop_
_space_group_symop_operation_xyz
x,y,z
-x,-y,z
x,-y,-z
-x,y,-z
-x,-y,-z
x,y,-z
-x,y,z
x,-y,z
1/2+x,1/2+y,z
1/2-x,1/2-y,z
1/2+x,1/2-y,-z
1/2-x,1/2+y,-z
1/2-x,1/2-y,-z
1/2+x,1/2+y,-z
1/2-x,1/2+y,z
1/2+x,1/2-y,z
loop_
_atom_site_type_symbol
_atom_site_label
_atom_site_fract_x
_atom_site_fract_y
_atom_site_fract_z
Si Si1 0.620736 0.610646 0.951641
Si Si2 0.615751 0.800047 0.367922
Si Si3 0.879035 0.388310 0.454024
Si Si4 0.804496 0.112181 0.328511
Si Si5 0.878373 0.500000 0.048303
Si Si6 0.885087 0.696622 0.191758
Si Si7 0.378607 0.195728 0.094948
Si Si8 0.191692 0.112148 0.769503
O O1 0.500000 0.604140 0.944105
O O2 0.668051 0.500000 0.941327
O O3 0.667626 0.698919 0.922167
O O4 0.643491 0.639448 0.000000
O O5 0.500000 0.836766 0.362257
O O6 0.656163 0.816623 0.415902
O O7 0.685084 0.863613 0.335920
O O8 0.625364 0.683313 0.357242
O O9 0.837300 0.351275 0.500000
O O10 0.838302 0.500000 0.444958
O O11 0.000000 0.389968 0.455856
O O12 0.829688 0.130255 0.279676
O O13 0.829468 0.000000 0.341971
O O14 0.833288 0.600697 0.069542
O O15 0.000000 0.500000 0.053234
O O16 0.843362 0.500000 0.000000
O O17 0.849049 0.683400 0.143708
O O18 0.878574 0.813371 0.203701
O O19 0.811316 0.632100 0.221391
O O20 0.000000 0.657995 0.198387
O O21 0.500000 0.198558 0.088728
O O22 0.163115 0.000000 0.782598
#
# Coordination Sequence:
#
# PCOD8269240 Si02
#       8
#    16  16  16  16   8  16  16  16
#     4   8  13  22  37  60  94 132 167 207 255 305
#     4  10  19  33  57  82 108 146 190 234 281 335
#     4   8  14  26  47  78 113 147 186 232 280 332
#     4  10  22  38  54  79 113 143 180 238 287 339
#     4   9  16  26  42  70 110 144 171 213 267 323
#     4  10  21  37  58  84 112 141 181 232 275 326
#     4   9  17  27  44  72 104 136 172 216 265 318
#     4  10  23  41  58  79 112 149 186 225 286 349
#
# _framework density 21.553432000000001
#
# number of rings (size 3 to 8) (size 9 to 14) (size 15 to 20)
#    0.000    2.733    0.000    3.200    0.933    5.867 
#    0.000    5.333    0.000    1.200    0.000    9.333 
#    0.000    0.000    0.000    0.000    0.000    0.000 
#
# Total GULP energy -743884.430180 kJ/mol
# GULP energy per Si atom -12398.073836 kJ/mol
# Density = 2.150438 g / cm^3
# Si number density = 21.553432 Si / 1000 Ang^3
#
#
#
# Elastic Constant Matrix: (Units=GPa)
#
#
# Indices 1 2 3 4 5 6 
#
# 1 28.9013 -3.6533 2.8111 0.0000 0.0000 0.0000
# 2 -3.6533 140.8217 74.7692 0.0000 0.0000 0.0000
# 3 2.8111 74.7692 109.3278 0.0000 0.0000 0.0000
# 4 0.0000 0.0000 0.0000 33.5389 0.0000 0.0000
# 5 0.0000 0.0000 0.0000 0.0000 15.1759 0.0000
# 6 0.0000 0.0000 0.0000 0.0000 0.0000 23.7798
#
#
#
# Elastic Compliance Matrix: (Units=1/GPa)
#
#
# Indices 1 2 3 4 5 6 
#
# 1 0.035109 0.002183 -0.002396 0.000000 0.000000 0.000000
# 2 0.002183 0.011286 -0.007774 0.000000 0.000000 0.000000
# 3 -0.002396 -0.007774 0.014525 0.000000 0.000000 0.000000
# 4 0.000000 0.000000 0.000000 0.029816 0.000000 0.000000
# 5 0.000000 0.000000 0.000000 0.000000 0.065894 0.000000
# 6 0.000000 0.000000 0.000000 0.000000 0.000000 0.042053
#
#
# Mechanical properties :
#
#
# Convention : Reuss Voigt Hill
#
# Bulk Modulus (GPa) = 22.24889 47.43386 34.84137
# Shear Modulus (GPa) = 21.77328 28.17382 24.97355
#
# Velocity S-wave (km/s) = 3.18181 3.61939 3.40763
# Velocity P-wave (km/s) = 4.88300 6.28665 5.62875
#
# Compressibility (1/GPa) = 0.04494607
#
# Stress axis : x y z
#
# Youngs Moduli (GPa) = 28.48236 88.60867 68.84561
#
# Poissons Ratio (x) = -0.19341 0.16492
# Poissons Ratio (y) = -0.06217 0.53523
# Poissons Ratio (z) = 0.06823 0.68887
#
# Static dielectric constant tensor:
#      x y z
#    x 3.632650 0.000000 0.000000 
#    y 0.000000 4.099520 0.000000 
#    z 0.000000 0.000000 4.034530 
# 
# 
# High freq. dielectric constant tensor:
#      x y z
#    x 1.838220 0.000000 0.000000 
#    y 0.000000 1.848050 0.000000 
#    z 0.000000 0.000000 1.843020 
# 
# From -- ./inp_files/77752.got.cif
#   From: 2010.03.12/outbox.cif.g09.slc.cpg/sg65_39_cif.got.tgz:77752.got - 2010.04.10 20:52:16.
