data_PCOD8269191
_publ_section_title
;
Structure prediction by ZEFSAII (Michael W. Deem and Ramdas Pophale) SiO2 
 PCOD8269191
Probable space group: C M M M
;
_chemical_formula_sum "Si O2"
_cell_formula_units_Z 80
_cell_length_a 28.993534
_cell_length_b 9.293295
_cell_length_c 15.346340
_cell_angle_alpha 90.000000
_cell_angle_beta 90.000000
_cell_angle_gamma 90.000000
_cell_volume 4135.001711
_symmetry_space_group_name_H-M "C M M M"
_symmetry_group_IT_number 65
_symmetry_cell_setting 'orthorhombic'
loop_
_space_group_symop_operation_xyz
x,y,z
-x,-y,z
x,-y,-z
-x,y,-z
-x,-y,-z
x,y,-z
-x,y,z
x,-y,z
1/2+x,1/2+y,z
1/2-x,1/2-y,z
1/2+x,1/2-y,-z
1/2-x,1/2+y,-z
1/2-x,1/2-y,-z
1/2+x,1/2+y,-z
1/2-x,1/2+y,z
1/2+x,1/2-y,z
loop_
_atom_site_type_symbol
_atom_site_label
_atom_site_fract_x
_atom_site_fract_y
_atom_site_fract_z
Si Si1 0.706033 0.164280 0.849131
Si Si2 0.447384 0.330920 0.245426
Si Si3 0.606462 0.833225 0.098804
Si Si4 0.383249 0.664143 0.596982
Si Si5 0.705237 0.833664 0.644085
O O1 0.750000 0.250000 0.885865
O O2 0.659180 0.222261 0.893147
O O3 0.700215 0.187233 0.746764
O O4 0.714766 0.000000 0.874444
O O5 0.500000 0.281900 0.257059
O O6 0.443302 0.500000 0.230024
O O7 0.426986 0.254787 0.160813
O O8 0.420760 0.282801 0.332857
O O9 0.604497 0.000000 0.126776
O O10 0.589448 0.810739 0.000000
O O11 0.405084 0.674538 0.500000
O O12 0.368145 0.500000 0.617668
O O13 0.339150 0.766285 0.598967
O O14 0.750000 0.750000 0.608953
O O15 0.709423 0.000000 0.617415
#
# Coordination Sequence:
#
# PCOD8269191 Si02
#       5
#    16  16  16  16  16
#     4   9  18  32  52  80 112 147 185 224 267 320
#     4  10  22  40  61  84 111 143 182 233 288 337
#     4  10  21  38  59  84 115 150 188 228 274 331
#     4  10  21  37  58  84 113 146 186 230 279 336
#     4  10  19  33  55  82 114 151 189 229 274 326
#
# _framework density 19.34703
#
# number of rings (size 3 to 8) (size 9 to 14) (size 15 to 20)
#    0.000    2.200    2.000    0.600    0.000    4.400 
#    0.000    4.000    0.000    0.000    0.000    2.800 
#    0.000    0.000    0.000    0.000    0.000    0.000 
#
# Total GULP energy -496079.610889 kJ/mol
# GULP energy per Si atom -12401.990272 kJ/mol
# Density = 1.930300 g / cm^3
# Si number density = 19.347030 Si / 1000 Ang^3
#
#
#
# Elastic Constant Matrix: (Units=GPa)
#
#
# Indices 1 2 3 4 5 6 
#
# 1 148.7130 55.4108 65.7547 0.0000 0.0000 0.0000
# 2 55.4108 68.2037 40.9650 0.0000 0.0000 0.0000
# 3 65.7547 40.9650 99.6317 0.0000 0.0000 0.0000
# 4 0.0000 0.0000 0.0000 15.8914 0.0000 0.0000
# 5 0.0000 0.0000 0.0000 0.0000 6.2152 0.0000
# 6 0.0000 0.0000 0.0000 0.0000 0.0000 32.9588
#
#
#
# Elastic Compliance Matrix: (Units=1/GPa)
#
#
# Indices 1 2 3 4 5 6 
#
# 1 0.011156 -0.006163 -0.004828 0.000000 0.000000 0.000000
# 2 -0.006163 0.022875 -0.005338 0.000000 0.000000 0.000000
# 3 -0.004828 -0.005338 0.015418 0.000000 0.000000 0.000000
# 4 0.000000 0.000000 0.000000 0.062927 0.000000 0.000000
# 5 0.000000 0.000000 0.000000 0.000000 0.160895 0.000000
# 6 0.000000 0.000000 0.000000 0.000000 0.000000 0.030341
#
#
# Mechanical properties :
#
#
# Convention : Reuss Voigt Hill
#
# Bulk Modulus (GPa) = 59.55838 71.20103 65.37971
# Shear Modulus (GPa) = 14.62552 21.30762 17.96657
#
# Velocity S-wave (km/s) = 2.75245 3.32224 3.05068
# Velocity P-wave (km/s) = 6.39941 7.18320 6.80260
#
# Compressibility (1/GPa) = 0.01679025
#
# Stress axis : x y z
#
# Youngs Moduli (GPa) = 89.64032 43.71552 64.85754
#
# Poissons Ratio (x) = 0.26942 0.31316
# Poissons Ratio (y) = 0.55246 0.34621
# Poissons Ratio (z) = 0.43282 0.23335
#
# Static dielectric constant tensor:
#      x y z
#    x 3.562980 0.000000 0.000000 
#    y 0.000000 3.495120 0.000000 
#    z 0.000000 0.000000 3.513260 
# 
# 
# High freq. dielectric constant tensor:
#      x y z
#    x 1.748900 0.000000 0.000000 
#    y 0.000000 1.745340 0.000000 
#    z 0.000000 0.000000 1.756170 
# 
# From -- ./inp_files/49868.got.cif
#   From: 2010.03.12/outbox.cif.g09.slc.cpg/sg65_25_cif.got.tgz:49868.got - 2010.04.10 20:52:16.
