data_PCOD8269591
_publ_section_title
;
Structure prediction by ZEFSAII (Michael W. Deem and Ramdas Pophale) SiO2 
 PCOD8269591
Probable space group: C M M M
;
_chemical_formula_sum "Si O2"
_cell_formula_units_Z 88
_cell_length_a 28.641050
_cell_length_b 17.852934
_cell_length_c 9.410899
_cell_angle_alpha 90.000000
_cell_angle_beta 90.000000
_cell_angle_gamma 90.000000
_cell_volume 4812.044639
_symmetry_space_group_name_H-M "C M M M"
_symmetry_group_IT_number 65
_symmetry_cell_setting 'orthorhombic'
loop_
_space_group_symop_operation_xyz
x,y,z
-x,-y,z
x,-y,-z
-x,y,-z
-x,-y,-z
x,y,-z
-x,y,z
x,-y,z
1/2+x,1/2+y,z
1/2-x,1/2-y,z
1/2+x,1/2-y,-z
1/2-x,1/2+y,-z
1/2-x,1/2-y,-z
1/2+x,1/2+y,-z
1/2-x,1/2+y,z
1/2+x,1/2-y,z
loop_
_atom_site_type_symbol
_atom_site_label
_atom_site_fract_x
_atom_site_fract_y
_atom_site_fract_z
Si Si1 0.222297 0.174215 0.663460
Si Si2 0.118587 0.366746 0.335180
Si Si3 0.615619 0.302751 0.337517
Si Si4 0.292476 0.087941 0.162777
Si Si5 0.553120 0.415874 0.166500
Si Si6 0.947688 0.500000 0.331780
O O1 0.226611 0.148818 0.500000
O O2 0.250000 0.250000 0.691371
O O3 0.169143 0.187601 0.708541
O O4 0.243736 0.110015 0.763331
O O5 0.131567 0.381746 0.500000
O O6 0.098996 0.282957 0.314979
O O7 0.165234 0.373092 0.244363
O O8 0.079743 0.425690 0.280460
O O9 0.608732 0.326678 0.500000
O O10 0.584719 0.355854 0.242721
O O11 0.298977 0.000000 0.173513
O O12 0.292203 0.115303 0.000000
O O13 0.500000 0.403972 0.215935
O O14 0.569429 0.500000 0.206432
O O15 0.557772 0.402865 0.000000
O O16 0.951512 0.500000 0.500000
O O17 0.000000 0.500000 0.265596
#
# Coordination Sequence:
#
# PCOD8269591 Si02
#       6
#    16  16  16  16  16   8
#     4  10  20  37  57  79 111 147 186 228 276 330
#     4  10  19  35  58  80 109 150 190 232 283 335
#     4  10  21  35  57  89 116 143 186 238 286 333
#     4  11  23  36  53  80 112 147 191 232 271 328
#     4   9  20  40  62  82 110 151 191 226 276 344
#     4   9  18  32  55  85 111 143 191 239 282 333
#
# _framework density 18.287445000000002
#
# number of rings (size 3 to 8) (size 9 to 14) (size 15 to 20)
#    0.000    2.091    2.727    1.091    0.000    5.091 
#    0.000    6.364    0.000    1.091    0.000    0.000 
#    0.000    0.000    0.000    0.000    0.000    0.000 
#
# Total GULP energy -545666.356805 kJ/mol
# GULP energy per Si atom -12401.508109 kJ/mol
# Density = 1.824582 g / cm^3
# Si number density = 18.287445 Si / 1000 Ang^3
#
#
#
# Elastic Constant Matrix: (Units=GPa)
#
#
# Indices 1 2 3 4 5 6 
#
# 1 112.3064 63.8879 45.1585 0.0000 0.0000 0.0000
# 2 63.8879 105.9034 49.2946 0.0000 0.0000 0.0000
# 3 45.1585 49.2946 69.4651 0.0000 0.0000 0.0000
# 4 0.0000 0.0000 0.0000 30.7326 0.0000 0.0000
# 5 0.0000 0.0000 0.0000 0.0000 26.3293 0.0000
# 6 0.0000 0.0000 0.0000 0.0000 0.0000 37.2336
#
#
#
# Elastic Compliance Matrix: (Units=1/GPa)
#
#
# Indices 1 2 3 4 5 6 
#
# 1 0.014566 -0.006540 -0.004828 0.000000 0.000000 0.000000
# 2 -0.006540 0.017036 -0.007838 0.000000 0.000000 0.000000
# 3 -0.004828 -0.007838 0.023097 0.000000 0.000000 0.000000
# 4 0.000000 0.000000 0.000000 0.032539 0.000000 0.000000
# 5 0.000000 0.000000 0.000000 0.000000 0.037980 0.000000
# 6 0.000000 0.000000 0.000000 0.000000 0.000000 0.026857
#
#
# Mechanical properties :
#
#
# Convention : Reuss Voigt Hill
#
# Bulk Modulus (GPa) = 61.40013 67.15078 64.27546
# Shear Modulus (GPa) = 25.52111 27.48136 26.50123
#
# Velocity S-wave (km/s) = 3.73976 3.88073 3.81090
# Velocity P-wave (km/s) = 7.23158 7.54184 7.38834
#
# Compressibility (1/GPa) = 0.01628661
#
# Stress axis : x y z
#
# Youngs Moduli (GPa) = 68.65325 58.69905 43.29629
#
# Poissons Ratio (x) = 0.38387 0.20905
# Poissons Ratio (y) = 0.44897 0.33935
# Poissons Ratio (z) = 0.33149 0.46008
#
# Static dielectric constant tensor:
#      x y z
#    x 3.522190 0.000000 0.000000 
#    y 0.000000 3.444760 0.000000 
#    z 0.000000 0.000000 3.279260 
# 
# 
# High freq. dielectric constant tensor:
#      x y z
#    x 1.707620 0.000000 0.000000 
#    y 0.000000 1.716360 0.000000 
#    z 0.000000 0.000000 1.694980 
# 
# From -- ./inp_files/10090.got.cif
#   From: 2010.03.12/outbox.cif.g09.slc.cpg/sg65_6_cif.got.tgz:10090.got - 2010.04.10 20:52:16.
