data_PCOD8269418
_publ_section_title
;
Structure prediction by ZEFSAII (Michael W. Deem and Ramdas Pophale) SiO2 
 PCOD8269418
Probable space group: C M M M
;
_chemical_formula_sum "Si O2"
_cell_formula_units_Z 104
_cell_length_a 21.090939
_cell_length_b 28.601952
_cell_length_c 9.375075
_cell_angle_alpha 90.000000
_cell_angle_beta 90.000000
_cell_angle_gamma 90.000000
_cell_volume 5655.439227
_symmetry_space_group_name_H-M "C M M M"
_symmetry_group_IT_number 65
_symmetry_cell_setting 'orthorhombic'
loop_
_space_group_symop_operation_xyz
x,y,z
-x,-y,z
x,-y,-z
-x,y,-z
-x,-y,-z
x,y,-z
-x,y,z
x,-y,z
1/2+x,1/2+y,z
1/2-x,1/2-y,z
1/2+x,1/2-y,-z
1/2-x,1/2+y,-z
1/2-x,1/2-y,-z
1/2+x,1/2+y,-z
1/2-x,1/2+y,z
1/2+x,1/2-y,z
loop_
_atom_site_type_symbol
_atom_site_label
_atom_site_fract_x
_atom_site_fract_y
_atom_site_fract_z
Si Si1 0.674326 0.200767 0.169038
Si Si2 0.500000 0.555309 0.670064
Si Si3 0.883668 0.102352 0.169115
Si Si4 0.137358 0.551886 0.663354
Si Si5 0.684119 0.694632 0.831659
Si Si6 0.755253 0.055146 0.158244
Si Si7 0.071110 0.643384 0.335801
O O1 0.664063 0.254186 0.223089
O O2 0.743937 0.182718 0.220009
O O3 0.619838 0.170678 0.239151
O O4 0.666832 0.197219 0.000000
O O5 0.500000 0.500000 0.709146
O O6 0.500000 0.562251 0.500000
O O7 0.560000 0.581338 0.737930
O O8 0.867909 0.155968 0.215273
O O9 0.822211 0.073135 0.214426
O O10 0.899345 0.098163 0.000000
O O11 0.157825 0.548804 0.500000
O O12 0.117883 0.500000 0.719535
O O13 0.198041 0.572976 0.744699
O O14 0.079482 0.587490 0.686399
O O15 0.687823 0.695864 0.000000
O O16 0.758098 0.000000 0.158902
O O17 0.743107 0.075351 0.000000
O O18 0.083143 0.656780 0.500000
O O19 0.000000 0.656307 0.288781
#
# Coordination Sequence:
#
# PCOD8269418 Si02
#       7
#    16   8  16  16  16  16  16
#     4   9  17  34  58  81 105 133 167 208 257 311
#     4  11  25  41  53  71 105 145 183 223 266 313
#     4  10  19  34  56  79 102 134 174 214 258 313
#     4   9  18  32  50  72  98 132 173 213 253 298
#     4   8  16  32  57  85 106 126 162 215 263 303
#     4   9  17  29  49  78 105 127 158 206 261 309
#     4  10  21  35  49  70 103 139 173 209 249 294
#
# _framework density 18.389375999999999
#
# number of rings (size 3 to 8) (size 9 to 14) (size 15 to 20)
#    0.000    2.692    0.000    2.538    0.000    4.308 
#    1.385    6.154    0.000    0.000    0.000    3.231 
#    0.000    0.000    0.000    0.000    0.000    0.000 
#
# Total GULP energy -644478.642155 kJ/mol
# GULP energy per Si atom -12393.820041 kJ/mol
# Density = 1.834752 g / cm^3
# Si number density = 18.389376 Si / 1000 Ang^3
#
#
#
# Elastic Constant Matrix: (Units=GPa)
#
#
# Indices 1 2 3 4 5 6 
#
# 1 107.0063 68.3624 44.2233 0.0000 0.0000 0.0000
# 2 68.3624 93.1764 40.5745 0.0000 0.0000 0.0000
# 3 44.2233 40.5745 51.3313 0.0000 0.0000 0.0000
# 4 0.0000 0.0000 0.0000 22.0080 0.0000 0.0000
# 5 0.0000 0.0000 0.0000 0.0000 33.2869 0.0000
# 6 0.0000 0.0000 0.0000 0.0000 0.0000 29.1597
#
#
#
# Elastic Compliance Matrix: (Units=1/GPa)
#
#
# Indices 1 2 3 4 5 6 
#
# 1 0.019746 -0.010795 -0.008479 0.000000 0.000000 0.000000
# 2 -0.010795 0.022267 -0.008301 0.000000 0.000000 0.000000
# 3 -0.008479 -0.008301 0.033347 0.000000 0.000000 0.000000
# 4 0.000000 0.000000 0.000000 0.045438 0.000000 0.000000
# 5 0.000000 0.000000 0.000000 0.000000 0.030042 0.000000
# 6 0.000000 0.000000 0.000000 0.000000 0.000000 0.034294
#
#
# Mechanical properties :
#
#
# Convention : Reuss Voigt Hill
#
# Bulk Modulus (GPa) = 49.47740 61.98161 55.72951
# Shear Modulus (GPa) = 20.24126 23.44784 21.84455
#
# Velocity S-wave (km/s) = 3.32129 3.57469 3.45032
# Velocity P-wave (km/s) = 6.45537 7.12855 6.80029
#
# Compressibility (1/GPa) = 0.02021125
#
# Stress axis : x y z
#
# Youngs Moduli (GPa) = 50.64316 44.90899 29.98769
#
# Poissons Ratio (x) = 0.48481 0.25426
# Poissons Ratio (y) = 0.54671 0.24891
# Poissons Ratio (z) = 0.42939 0.37277
#
# Static dielectric constant tensor:
#      x y z
#    x 3.381900 0.000000 0.000000 
#    y 0.000000 3.866880 0.000000 
#    z 0.000000 0.000000 3.249280 
# 
# 
# High freq. dielectric constant tensor:
#      x y z
#    x 1.706020 0.000000 0.000000 
#    y 0.000000 1.726940 0.000000 
#    z 0.000000 0.000000 1.687160 
# 
# From -- ./inp_files/12795.got.cif
#   From: 2010.03.12/outbox.cif.g09.slc.cpg/sg65_7_cif.got.tgz:12795.got - 2010.04.10 20:52:16.
