data_PCOD8269369
_publ_section_title
;
Structure prediction by ZEFSAII (Michael W. Deem and Ramdas Pophale) SiO2 
 PCOD8269369
Probable space group: C M M M
;
_chemical_formula_sum "Si O2"
_cell_formula_units_Z 72
_cell_length_a 25.370747
_cell_length_b 17.527844
_cell_length_c 8.798537
_cell_angle_alpha 90.000000
_cell_angle_beta 90.000000
_cell_angle_gamma 90.000000
_cell_volume 3912.660973
_symmetry_space_group_name_H-M "C M M M"
_symmetry_group_IT_number 65
_symmetry_cell_setting 'orthorhombic'
loop_
_space_group_symop_operation_xyz
x,y,z
-x,-y,z
x,-y,-z
-x,y,-z
-x,-y,-z
x,y,-z
-x,y,z
x,-y,z
1/2+x,1/2+y,z
1/2-x,1/2-y,z
1/2+x,1/2-y,-z
1/2-x,1/2+y,-z
1/2-x,1/2-y,-z
1/2+x,1/2+y,-z
1/2-x,1/2+y,z
1/2+x,1/2-y,z
loop_
_atom_site_type_symbol
_atom_site_label
_atom_site_fract_x
_atom_site_fract_y
_atom_site_fract_z
Si Si1 0.000000 0.589830 0.320935
Si Si2 0.559126 0.639833 0.170123
Si Si3 0.690003 0.741290 0.319143
Si Si4 0.152877 0.918652 0.322591
Si Si5 0.409889 0.191305 0.178227
O O1 0.053910 0.625922 0.253377
O O2 0.000000 0.500000 0.281607
O O3 0.000000 0.604255 0.500000
O O4 0.500000 0.611013 0.180939
O O5 0.590949 0.586814 0.285979
O O6 0.561865 0.728868 0.214633
O O7 0.581698 0.628931 0.000000
O O8 0.683114 0.746593 0.500000
O O9 0.750000 0.750000 0.267668
O O10 0.678670 0.656761 0.251101
O O11 0.650025 0.803747 0.246379
O O12 0.162652 0.917900 0.500000
O O13 0.174832 0.000000 0.257778
O O14 0.406005 0.173571 0.000000
#
# Coordination Sequence:
#
# PCOD8269369 Si02
#       5
#     8  16  16  16  16
#     4  11  23  37  55  81 112 145 182 225 277 336
#     4   9  17  30  47  69  97 130 165 196 238 298
#     4   9  18  34  55  77 102 138 184 226 269 324
#     4   9  18  31  46  68  97 128 164 207 255 301
#     4  10  19  34  55  78 106 138 176 220 268 322
#
# _framework density 18.401799
#
# number of rings (size 3 to 8) (size 9 to 14) (size 15 to 20)
#    0.000    2.556    1.111    1.000    0.000    3.556 
#    0.000    3.333    0.000    4.000    0.000    0.000 
#    0.000    0.000    0.000    0.000    0.000    0.000 
#
# Total GULP energy -445993.479419 kJ/mol
# GULP energy per Si atom -12388.707762 kJ/mol
# Density = 1.835992 g / cm^3
# Si number density = 18.401799 Si / 1000 Ang^3
#
#
#
# Elastic Constant Matrix: (Units=GPa)
#
#
# Indices 1 2 3 4 5 6 
#
# 1 137.4176 55.8672 38.4290 0.0000 0.0000 0.0000
# 2 55.8672 112.0944 34.4316 0.0000 0.0000 0.0000
# 3 38.4290 34.4316 53.3602 0.0000 0.0000 0.0000
# 4 0.0000 0.0000 0.0000 19.0939 0.0000 0.0000
# 5 0.0000 0.0000 0.0000 0.0000 19.6591 0.0000
# 6 0.0000 0.0000 0.0000 0.0000 0.0000 14.0472
#
#
#
# Elastic Compliance Matrix: (Units=1/GPa)
#
#
# Indices 1 2 3 4 5 6 
#
# 1 0.010101 -0.003492 -0.005021 0.000000 0.000000 0.000000
# 2 -0.003492 0.012333 -0.005444 0.000000 0.000000 0.000000
# 3 -0.005021 -0.005444 0.025869 0.000000 0.000000 0.000000
# 4 0.000000 0.000000 0.000000 0.052373 0.000000 0.000000
# 5 0.000000 0.000000 0.000000 0.000000 0.050867 0.000000
# 6 0.000000 0.000000 0.000000 0.000000 0.000000 0.071188
#
#
# Mechanical properties :
#
#
# Convention : Reuss Voigt Hill
#
# Bulk Modulus (GPa) = 49.04311 62.25864 55.65088
# Shear Modulus (GPa) = 19.42181 22.16966 20.79573
#
# Velocity S-wave (km/s) = 3.25226 3.47472 3.36533
# Velocity P-wave (km/s) = 6.38843 7.07140 6.73857
#
# Compressibility (1/GPa) = 0.02039022
#
# Stress axis : x y z
#
# Youngs Moduli (GPa) = 99.00093 81.08015 38.65571
#
# Poissons Ratio (x) = 0.28312 0.19410
# Poissons Ratio (y) = 0.34570 0.21043
# Poissons Ratio (z) = 0.49711 0.44137
#
# Static dielectric constant tensor:
#      x y z
#    x 3.407380 0.000000 0.000000 
#    y 0.000000 3.626460 0.000000 
#    z 0.000000 0.000000 3.319990 
# 
# 
# High freq. dielectric constant tensor:
#      x y z
#    x 1.703610 0.000000 0.000000 
#    y 0.000000 1.705690 0.000000 
#    z 0.000000 0.000000 1.706160 
# 
# From -- ./inp_files/13574.got.cif
#   From: 2010.03.12/outbox.cif.g09.slc.cpg/sg65_7_cif.got.tgz:13574.got - 2010.04.10 20:52:16.
