data_PCOD8269350
_publ_section_title
;
Structure prediction by ZEFSAII (Michael W. Deem and Ramdas Pophale) SiO2 
 PCOD8269350
Probable space group: C M M M
;
_chemical_formula_sum "Si O2"
_cell_formula_units_Z 104
_cell_length_a 9.045813
_cell_length_b 27.403019
_cell_length_c 21.048002
_cell_angle_alpha 90.000000
_cell_angle_beta 90.000000
_cell_angle_gamma 90.000000
_cell_volume 5217.433156
_symmetry_space_group_name_H-M "C M M M"
_symmetry_group_IT_number 65
_symmetry_cell_setting 'orthorhombic'
loop_
_space_group_symop_operation_xyz
x,y,z
-x,-y,z
x,-y,-z
-x,y,-z
-x,-y,-z
x,y,-z
-x,y,z
x,-y,z
1/2+x,1/2+y,z
1/2-x,1/2-y,z
1/2+x,1/2-y,-z
1/2-x,1/2+y,-z
1/2-x,1/2-y,-z
1/2+x,1/2+y,-z
1/2-x,1/2+y,z
1/2+x,1/2-y,z
loop_
_atom_site_type_symbol
_atom_site_label
_atom_site_fract_x
_atom_site_fract_y
_atom_site_fract_z
Si Si1 0.672950 0.556700 0.254088
Si Si2 0.328374 0.877512 0.838724
Si Si3 0.827630 0.297550 0.397831
Si Si4 0.338223 0.207477 0.749352
Si Si5 0.170849 0.800552 0.925278
Si Si6 0.175880 0.897211 0.611470
Si Si7 0.337875 0.944454 0.500000
O O1 0.500000 0.564470 0.242830
O O2 0.711564 0.500000 0.265516
O O3 0.753410 0.572934 0.187731
O O4 0.723915 0.587199 0.316830
O O5 0.500000 0.886451 0.857243
O O6 0.306243 0.845021 0.776584
O O7 0.247044 0.849149 0.895891
O O8 0.750000 0.250000 0.429916
O O9 0.800330 0.294346 0.323602
O O10 0.744406 0.346887 0.416168
O O11 0.000000 0.299366 0.417299
O O12 0.500000 0.225289 0.763257
O O13 0.250000 0.250000 0.785205
O O14 0.250000 0.750000 0.904360
O O15 0.000000 0.797943 0.904082
O O16 0.186235 0.807744 0.000000
O O17 0.240870 0.935994 0.562881
O O18 0.000000 0.894374 0.606830
O O19 0.500000 0.916978 0.500000
O O20 0.377679 0.000000 0.500000
#
# Coordination Sequence:
#
# PCOD8269350 Si02
#       7
#    16  16  16  16  16  16   8
#     4  10  22  39  59  84 115 151 192 241 297 352
#     4  11  21  34  54  83 115 151 193 237 288 343
#     4  10  19  34  54  81 117 152 189 228 276 338
#     4   9  18  29  45  73 109 144 180 220 266 321
#     4  10  21  37  57  84 120 160 199 239 285 340
#     4  11  22  39  63  89 118 153 193 240 293 348
#     4  11  25  43  64  89 116 151 195 243 295 351
#
# _framework density 19.933171999999999
#
# number of rings (size 3 to 8) (size 9 to 14) (size 15 to 20)
#    0.000    1.769    1.538    3.000    0.000    6.154 
#    0.000    0.385    0.000    0.462    0.000    3.231 
#    0.000    0.000    0.000    0.000    0.000    0.000 
#
# Total GULP energy -644262.462987 kJ/mol
# GULP energy per Si atom -12389.662750 kJ/mol
# Density = 1.988780 g / cm^3
# Si number density = 19.933172 Si / 1000 Ang^3
#
#
#
# Elastic Constant Matrix: (Units=GPa)
#
#
# Indices 1 2 3 4 5 6 
#
# 1 108.2400 44.8028 40.7190 0.0000 0.0000 0.0000
# 2 44.8028 100.8508 21.8125 0.0000 0.0000 0.0000
# 3 40.7190 21.8125 72.1703 0.0000 0.0000 0.0000
# 4 0.0000 0.0000 0.0000 31.7491 0.0000 0.0000
# 5 0.0000 0.0000 0.0000 0.0000 31.9592 0.0000
# 6 0.0000 0.0000 0.0000 0.0000 0.0000 33.6106
#
#
#
# Elastic Compliance Matrix: (Units=1/GPa)
#
#
# Indices 1 2 3 4 5 6 
#
# 1 0.013502 -0.004655 -0.006211 0.000000 0.000000 0.000000
# 2 -0.004655 0.012214 -0.001065 0.000000 0.000000 0.000000
# 3 -0.006211 -0.001065 0.017682 0.000000 0.000000 0.000000
# 4 0.000000 0.000000 0.000000 0.031497 0.000000 0.000000
# 5 0.000000 0.000000 0.000000 0.000000 0.031290 0.000000
# 6 0.000000 0.000000 0.000000 0.000000 0.000000 0.029752
#
#
# Mechanical properties :
#
#
# Convention : Reuss Voigt Hill
#
# Bulk Modulus (GPa) = 51.18730 55.10328 53.14529
# Shear Modulus (GPa) = 30.06396 31.05889 30.56143
#
# Velocity S-wave (km/s) = 3.88782 3.95162 3.91985
# Velocity P-wave (km/s) = 6.77412 6.96595 6.87070
#
# Compressibility (1/GPa) = 0.01953610
#
# Stress axis : x y z
#
# Youngs Moduli (GPa) = 74.06288 81.87357 56.55345
#
# Poissons Ratio (x) = 0.38111 0.35126
# Poissons Ratio (y) = 0.34476 0.06024
# Poissons Ratio (z) = 0.46001 0.08721
#
# Static dielectric constant tensor:
#      x y z
#    x 3.731010 0.000000 0.000000 
#    y 0.000000 3.738690 0.000000 
#    z 0.000000 0.000000 3.395620 
# 
# 
# High freq. dielectric constant tensor:
#      x y z
#    x 1.788000 0.000000 0.000000 
#    y 0.000000 1.772260 0.000000 
#    z 0.000000 0.000000 1.764520 
# 
# From -- ./inp_files/60432.got.cif
#   From: 2010.03.12/outbox.cif.g09.slc.cpg/sg65_31_cif.got.tgz:60432.got - 2010.04.10 20:52:16.
