data_PCOD8269758
_publ_section_title
;
Structure prediction by ZEFSAII (Michael W. Deem and Ramdas Pophale) SiO2 
 PCOD8269758
Probable space group: C M M M
;
_chemical_formula_sum "Si O2"
_cell_formula_units_Z 80
_cell_length_a 9.064038
_cell_length_b 28.204914
_cell_length_c 20.869869
_cell_angle_alpha 90.000000
_cell_angle_beta 90.000000
_cell_angle_gamma 90.000000
_cell_volume 5335.390614
_symmetry_space_group_name_H-M "C M M M"
_symmetry_group_IT_number 65
_symmetry_cell_setting 'orthorhombic'
loop_
_space_group_symop_operation_xyz
x,y,z
-x,-y,z
x,-y,-z
-x,y,-z
-x,-y,-z
x,y,-z
-x,y,z
x,-y,z
1/2+x,1/2+y,z
1/2-x,1/2-y,z
1/2+x,1/2-y,-z
1/2-x,1/2+y,-z
1/2-x,1/2-y,-z
1/2+x,1/2+y,-z
1/2-x,1/2+y,z
1/2+x,1/2-y,z
loop_
_atom_site_type_symbol
_atom_site_label
_atom_site_fract_x
_atom_site_fract_y
_atom_site_fract_z
Si Si1 0.665263 0.056517 0.862969
Si Si2 0.174072 0.602108 0.380546
Si Si3 0.329295 0.444263 0.737531
Si Si4 0.332291 0.443911 0.500000
Si Si5 0.828221 0.703650 0.572909
Si Si6 0.324839 0.051904 0.000000
O O1 0.500000 0.074589 0.846154
O O2 0.777495 0.072878 0.807784
O O3 0.719312 0.077673 0.932563
O O4 0.663307 0.000000 0.869001
O O5 0.232514 0.583957 0.313136
O O6 0.250572 0.573538 0.437014
O O7 0.213747 0.657694 0.385612
O O8 0.000000 0.593571 0.385966
O O9 0.500000 0.431435 0.728586
O O10 0.300864 0.500000 0.728119
O O11 0.329748 0.500000 0.500000
O O12 0.500000 0.424917 0.500000
O O13 0.774674 0.694550 0.500000
O O14 0.750000 0.750000 0.602389
O O15 0.000000 0.713795 0.574853
O O16 0.500000 0.046403 0.000000
O O17 0.250114 0.000000 0.000000
#
# Coordination Sequence:
#
# PCOD8269758 Si02
#       6
#    16  16  16   8  16   8
#     4   8  13  23  39  57  77 106 143 179 214 250
#     4  11  21  34  49  65  84 109 143 178 211 253
#     4  10  20  31  41  58  86 117 149 182 215 253
#     4  11  23  35  46  63  86 111 142 179 216 251
#     4   9  18  33  50  69  87 102 128 168 213 262
#     4   7  10  18  35  57  77  99 136 181 214 245
#
# _framework density 14.994217000000001
#
# number of rings (size 3 to 8) (size 9 to 14) (size 15 to 20)
#    0.000    2.600    1.000    3.300    0.000    6.000 
#    0.000    0.500    0.000    3.000    0.000    0.000 
#    0.000    0.000    0.000    0.900    0.000   10.700 
#
# Total GULP energy -495739.722993 kJ/mol
# GULP energy per Si atom -12393.493075 kJ/mol
# Density = 1.496009 g / cm^3
# Si number density = 14.994217 Si / 1000 Ang^3
#
#
#
# Elastic Constant Matrix: (Units=GPa)
#
#
# Indices 1 2 3 4 5 6 
#
# 1 74.4058 39.5759 45.5902 0.0000 0.0000 0.0000
# 2 39.5759 58.4301 39.9677 0.0000 0.0000 0.0000
# 3 45.5902 39.9677 119.4088 0.0000 0.0000 0.0000
# 4 0.0000 0.0000 0.0000 -4.1206 0.0000 0.0000
# 5 0.0000 0.0000 0.0000 0.0000 12.2389 0.0000
# 6 0.0000 0.0000 0.0000 0.0000 0.0000 20.2375
#
#
#
# Elastic Compliance Matrix: (Units=1/GPa)
#
#
# Indices 1 2 3 4 5 6 
#
# 1 0.022792 -0.012302 -0.004584 0.000000 0.000000 0.000000
# 2 -0.012302 0.028836 -0.004955 0.000000 0.000000 0.000000
# 3 -0.004584 -0.004955 0.011783 0.000000 0.000000 0.000000
# 4 0.000000 0.000000 0.000000 -0.242681 0.000000 0.000000
# 5 0.000000 0.000000 0.000000 0.000000 0.081706 0.000000
# 6 0.000000 0.000000 0.000000 0.000000 0.000000 0.049413
#
#
# Mechanical properties :
#
#
# Convention : Reuss Voigt Hill
#
# Bulk Modulus (GPa) = 50.68623 55.83468 53.26046
# Shear Modulus (GPa) = 2371.45222 14.14523 1192.79872
#
# Velocity S-wave (km/s) = 39.81220 3.07478 28.23531
# Velocity P-wave (km/s) = 46.33817 7.06569 33.14476
#
# Compressibility (1/GPa) = 0.01972922
#
# Stress axis : x y z
#
# Youngs Moduli (GPa) = 43.87528 34.67900 84.86486
#
# Poissons Ratio (x) = 0.42660 0.38906
# Poissons Ratio (y) = 0.53973 0.42051
# Poissons Ratio (z) = 0.20114 0.17184
#
# Static dielectric constant tensor:
#      x y z
#    x 2.937390 0.000000 0.000000 
#    y 0.000000 2.627070 0.000000 
#    z 0.000000 0.000000 3.298180 
# 
# 
# High freq. dielectric constant tensor:
#      x y z
#    x 1.576750 0.000000 0.000000 
#    y 0.000000 1.524650 0.000000 
#    z 0.000000 0.000000 1.576760 
# 
# From -- ./inp_files/60548.got.cif
#   From: 2010.03.12/outbox.cif.g09.slc.cpg/sg65_31_cif.got.tgz:60548.got - 2010.04.10 20:52:16.
