data_PCOD8269000
_publ_section_title
;
Structure prediction by ZEFSAII (Michael W. Deem and Ramdas Pophale) SiO2 
 PCOD8269000
Probable space group: C M M M
;
_chemical_formula_sum "Si O2"
_cell_formula_units_Z 104
_cell_length_a 19.693578
_cell_length_b 14.578263
_cell_length_c 19.710052
_cell_angle_alpha 90.000000
_cell_angle_beta 90.000000
_cell_angle_gamma 90.000000
_cell_volume 5658.719653
_symmetry_space_group_name_H-M "C M M M"
_symmetry_group_IT_number 65
_symmetry_cell_setting 'orthorhombic'
loop_
_space_group_symop_operation_xyz
x,y,z
-x,-y,z
x,-y,-z
-x,y,-z
-x,-y,-z
x,y,-z
-x,y,z
x,-y,z
1/2+x,1/2+y,z
1/2-x,1/2-y,z
1/2+x,1/2-y,-z
1/2-x,1/2+y,-z
1/2-x,1/2-y,-z
1/2+x,1/2+y,-z
1/2-x,1/2+y,z
1/2+x,1/2-y,z
loop_
_atom_site_type_symbol
_atom_site_label
_atom_site_fract_x
_atom_site_fract_y
_atom_site_fract_z
Si Si1 0.134219 0.394108 0.258185
Si Si2 0.286600 0.600507 0.785537
Si Si3 0.325573 0.269043 0.666548
Si Si4 0.074302 0.500000 0.077838
Si Si5 0.577677 0.183014 0.868312
Si Si6 0.186222 0.816506 0.922955
Si Si7 0.577084 0.394908 0.579713
O O1 0.111640 0.500000 0.273430
O O2 0.206160 0.391083 0.220798
O O3 0.139539 0.331698 0.325943
O O4 0.081573 0.336432 0.212089
O O5 0.310972 0.500000 0.760356
O O6 0.322260 0.678572 0.739608
O O7 0.303672 0.606538 0.865601
O O8 0.250000 0.250000 0.637452
O O9 0.368937 0.328696 0.614802
O O10 0.112977 0.408352 0.099784
O O11 0.000000 0.500000 0.114415
O O12 0.063032 0.500000 0.000000
O O13 0.500000 0.197552 0.890594
O O14 0.617319 0.267454 0.899722
O O15 0.250000 0.750000 0.920228
O O16 0.177934 0.856132 0.000000
O O17 0.583826 0.379621 0.500000
O O18 0.500000 0.371874 0.603173
O O19 0.594349 0.500000 0.598612
#
# Coordination Sequence:
#
# PCOD8269000 Si02
#       7
#    16  16  16   8  16  16  16
#     4  10  19  33  53  77 109 143 176 218 269 323
#     4  10  19  34  54  76 104 139 180 227 279 327
#     4  10  19  34  57  83 116 149 186 229 275 325
#     4   9  18  30  44  66  94 124 160 208 270 329
#     4  11  20  32  49  69  97 131 168 217 272 325
#     4  11  21  35  51  69  97 133 178 227 275 332
#     4   9  19  37  61  90 122 152 185 229 277 323
#
# _framework density 18.378716000000001
#
# number of rings (size 3 to 8) (size 9 to 14) (size 15 to 20)
#    0.000    1.923    3.846    1.846    0.000    2.769 
#    0.000    0.000    0.000    0.923    0.000    2.154 
#    0.000    0.000    0.000    0.000    0.000    0.000 
#
# Total GULP energy -644244.465437 kJ/mol
# GULP energy per Si atom -12389.316643 kJ/mol
# Density = 1.833689 g / cm^3
# Si number density = 18.378716 Si / 1000 Ang^3
#
#
#
# Elastic Constant Matrix: (Units=GPa)
#
#
# Indices 1 2 3 4 5 6 
#
# 1 74.2652 38.5398 35.3316 0.0000 0.0000 0.0000
# 2 38.5398 88.0150 35.3975 0.0000 0.0000 0.0000
# 3 35.3316 35.3975 67.8398 0.0000 0.0000 0.0000
# 4 0.0000 0.0000 0.0000 27.7687 0.0000 0.0000
# 5 0.0000 0.0000 0.0000 0.0000 20.7942 0.0000
# 6 0.0000 0.0000 0.0000 0.0000 0.0000 26.3220
#
#
#
# Elastic Compliance Matrix: (Units=1/GPa)
#
#
# Indices 1 2 3 4 5 6 
#
# 1 0.019979 -0.005776 -0.007392 0.000000 0.000000 0.000000
# 2 -0.005776 0.016049 -0.005366 0.000000 0.000000 0.000000
# 3 -0.007392 -0.005366 0.021390 0.000000 0.000000 0.000000
# 4 0.000000 0.000000 0.000000 0.036012 0.000000 0.000000
# 5 0.000000 0.000000 0.000000 0.000000 0.048090 0.000000
# 6 0.000000 0.000000 0.000000 0.000000 0.000000 0.037991
#
#
# Mechanical properties :
#
#
# Convention : Reuss Voigt Hill
#
# Bulk Modulus (GPa) = 49.13650 49.85085 49.49368
# Shear Modulus (GPa) = 22.38524 23.03373 22.70949
#
# Velocity S-wave (km/s) = 3.49377 3.54401 3.51898
# Velocity P-wave (km/s) = 6.56268 6.62796 6.59540
#
# Compressibility (1/GPa) = 0.02035147
#
# Stress axis : x y z
#
# Youngs Moduli (GPa) = 50.05225 62.31007 46.75057
#
# Poissons Ratio (x) = 0.35988 0.34557
# Poissons Ratio (y) = 0.28908 0.25086
# Poissons Ratio (z) = 0.36997 0.33435
#
# Static dielectric constant tensor:
#      x y z
#    x 3.598830 0.000000 0.000000 
#    y 0.000000 3.535260 0.000000 
#    z 0.000000 0.000000 3.174160 
# 
# 
# High freq. dielectric constant tensor:
#      x y z
#    x 1.700610 0.000000 0.000000 
#    y 0.000000 1.711380 0.000000 
#    z 0.000000 0.000000 1.686900 
# 
# From -- ./inp_files/64705.got.cif
#   From: 2010.03.12/outbox.cif.g09.slc.cpg/sg65_33_cif.got.tgz:64705.got - 2010.04.10 20:52:16.
