data_PCOD8269923
_publ_section_title
;
Structure prediction by ZEFSAII (Michael W. Deem and Ramdas Pophale) SiO2 
 PCOD8269923
Probable space group: C M M M
;
_chemical_formula_sum "Si O2"
_cell_formula_units_Z 72
_cell_length_a 9.799600
_cell_length_b 18.314892
_cell_length_c 23.445806
_cell_angle_alpha 90.000000
_cell_angle_beta 90.000000
_cell_angle_gamma 90.000000
_cell_volume 4208.020804
_symmetry_space_group_name_H-M "C M M M"
_symmetry_group_IT_number 65
_symmetry_cell_setting 'orthorhombic'
loop_
_space_group_symop_operation_xyz
x,y,z
-x,-y,z
x,-y,-z
-x,y,-z
-x,-y,-z
x,y,-z
-x,y,z
x,-y,z
1/2+x,1/2+y,z
1/2-x,1/2-y,z
1/2+x,1/2-y,-z
1/2-x,1/2+y,-z
1/2-x,1/2-y,-z
1/2+x,1/2+y,-z
1/2-x,1/2+y,z
1/2+x,1/2-y,z
loop_
_atom_site_type_symbol
_atom_site_label
_atom_site_fract_x
_atom_site_fract_y
_atom_site_fract_z
Si Si1 0.836840 0.081762 0.377679
Si Si2 0.343842 0.415601 0.162511
Si Si3 0.340145 0.321044 0.727009
Si Si4 0.350766 0.413421 0.500000
Si Si5 0.346684 0.913233 0.063052
O O1 0.787244 0.137465 0.329452
O O2 0.777367 0.108333 0.439941
O O3 0.000000 0.080052 0.380574
O O4 0.783737 0.000000 0.363189
O O5 0.500000 0.405988 0.144092
O O6 0.308082 0.500000 0.173892
O O7 0.310298 0.373235 0.219994
O O8 0.254435 0.381710 0.111047
O O9 0.500000 0.300738 0.722881
O O10 0.250000 0.250000 0.734920
O O11 0.367282 0.500000 0.500000
O O12 0.500000 0.376416 0.500000
O O13 0.500000 0.887379 0.077597
O O14 0.338383 0.000000 0.062906
O O15 0.304348 0.884350 0.000000
#
# Coordination Sequence:
#
# PCOD8269923 Si02
#       5
#    16  16  16   8  16
#     4   8  13  24  44  67  89 114 147 186 223 259
#     4   9  17  29  46  67  88 113 148 186 221 257
#     4  10  20  32  45  63  90 121 150 183 223 264
#     4   7  10  18  37  66  91 109 138 183 226 258
#     4   8  14  25  42  66  94 118 139 170 217 268
#
# _framework density 17.110181000000001
#
# number of rings (size 3 to 8) (size 9 to 14) (size 15 to 20)
#    0.000    3.444    0.000    2.667    0.000    4.000 
#    0.000    2.778    0.000    2.667    0.000    0.000 
#    0.000    2.667    0.000    0.000    0.000    0.000 
#
# Total GULP energy -446017.978493 kJ/mol
# GULP energy per Si atom -12389.388291 kJ/mol
# Density = 1.707124 g / cm^3
# Si number density = 17.110181 Si / 1000 Ang^3
#
#
#
# Elastic Constant Matrix: (Units=GPa)
#
#
# Indices 1 2 3 4 5 6 
#
# 1 53.8315 35.5318 67.3689 0.0000 0.0000 0.0000
# 2 35.5318 57.3696 50.3438 0.0000 0.0000 0.0000
# 3 67.3689 50.3438 172.3715 0.0000 0.0000 0.0000
# 4 0.0000 0.0000 0.0000 0.8579 0.0000 0.0000
# 5 0.0000 0.0000 0.0000 0.0000 13.3076 0.0000
# 6 0.0000 0.0000 0.0000 0.0000 0.0000 18.7170
#
#
#
# Elastic Compliance Matrix: (Units=1/GPa)
#
#
# Indices 1 2 3 4 5 6 
#
# 1 0.046277 -0.017198 -0.013064 0.000000 0.000000 0.000000
# 2 -0.017198 0.029829 -0.001991 0.000000 0.000000 0.000000
# 3 -0.013064 -0.001991 0.011489 0.000000 0.000000 0.000000
# 4 0.000000 0.000000 0.000000 1.165602 0.000000 0.000000
# 5 0.000000 0.000000 0.000000 0.000000 0.075145 0.000000
# 6 0.000000 0.000000 0.000000 0.000000 0.000000 0.053427
#
#
# Mechanical properties :
#
#
# Convention : Reuss Voigt Hill
#
# Bulk Modulus (GPa) = 43.30794 65.56241 54.43517
# Shear Modulus (GPa) = 3.43886 15.26505 9.35195
#
# Velocity S-wave (km/s) = 1.41922 2.99015 2.34043
# Velocity P-wave (km/s) = 5.29639 7.09382 6.25995
#
# Compressibility (1/GPa) = 0.02309046
#
# Stress axis : x y z
#
# Youngs Moduli (GPa) = 21.60893 33.52445 87.04258
#
# Poissons Ratio (x) = 0.57654 1.13712
# Poissons Ratio (y) = 0.37162 0.17326
# Poissons Ratio (z) = 0.28230 0.06673
#
# Static dielectric constant tensor:
#      x y z
#    x 2.923980 0.000000 0.000000 
#    y 0.000000 2.841990 0.000000 
#    z 0.000000 0.000000 3.781680 
# 
# 
# High freq. dielectric constant tensor:
#      x y z
#    x 1.618460 0.000000 0.000000 
#    y 0.000000 1.618770 0.000000 
#    z 0.000000 0.000000 1.685400 
# 
# From -- ./inp_files/61292.got.cif
#   From: 2010.03.12/outbox.cif.g09.slc.cpg/sg65_31_cif.got.tgz:61292.got - 2010.04.10 20:52:16.
