data_PCOD8269010
_publ_section_title
;
Structure prediction by ZEFSAII (Michael W. Deem and Ramdas Pophale) SiO2 
 PCOD8269010
Probable space group: C M M M
;
_chemical_formula_sum "Si O2"
_cell_formula_units_Z 96
_cell_length_a 14.889441
_cell_length_b 28.220165
_cell_length_c 11.745739
_cell_angle_alpha 90.000000
_cell_angle_beta 90.000000
_cell_angle_gamma 90.000000
_cell_volume 4935.353763
_symmetry_space_group_name_H-M "C M M M"
_symmetry_group_IT_number 65
_symmetry_cell_setting 'orthorhombic'
loop_
_space_group_symop_operation_xyz
x,y,z
-x,-y,z
x,-y,-z
-x,y,-z
-x,-y,-z
x,y,-z
-x,y,z
x,-y,z
1/2+x,1/2+y,z
1/2-x,1/2-y,z
1/2+x,1/2-y,-z
1/2-x,1/2+y,-z
1/2-x,1/2-y,-z
1/2+x,1/2+y,-z
1/2-x,1/2+y,z
1/2+x,1/2-y,z
loop_
_atom_site_type_symbol
_atom_site_label
_atom_site_fract_x
_atom_site_fract_y
_atom_site_fract_z
Si Si1 0.604894 0.908559 0.367738
Si Si2 0.231008 0.052821 0.245123
Si Si3 0.851087 0.766990 0.373228
Si Si4 0.702235 0.946396 0.000000
Si Si5 0.605133 0.851461 0.000000
Si Si6 0.399430 0.819275 0.764652
Si Si7 0.895373 0.872831 0.367203
O O1 0.625792 0.914132 0.500000
O O2 0.500000 0.919521 0.341882
O O3 0.668509 0.943872 0.297893
O O4 0.636649 0.855464 0.331585
O O5 0.235517 0.061732 0.110133
O O6 0.160401 0.089093 0.297372
O O7 0.195477 0.000000 0.270659
O O8 0.894188 0.761781 0.500000
O O9 0.750000 0.750000 0.376117
O O10 0.899776 0.734197 0.280908
O O11 0.860566 0.820754 0.331302
O O12 0.622580 0.907884 0.000000
O O13 0.661663 0.000000 0.000000
O O14 0.649838 0.826839 0.112879
O O15 0.500000 0.842106 0.000000
O O16 0.500000 0.835480 0.788127
O O17 0.877888 0.881706 0.500000
O O18 0.000000 0.877682 0.336550
#
# Coordination Sequence:
#
# PCOD8269010 Si02
#       7
#    16  16  16   8   8  16  16
#     4  10  20  33  53  84 120 156 192 234 293 364
#     4  11  23  40  61  84 114 152 198 254 308 358
#     4  10  20  34  56  87 119 151 188 233 288 354
#     4  10  22  39  60  83 110 153 205 249 298 353
#     4  10  20  35  56  83 116 157 199 242 286 342
#     4  10  19  33  53  78 113 151 188 229 278 339
#     4  10  22  40  62  89 121 157 200 249 299 354
#
# _framework density 19.451492999999999
#
# number of rings (size 3 to 8) (size 9 to 14) (size 15 to 20)
#    0.000    1.833    1.667    2.500    0.000    5.167 
#    0.000    5.000    0.000    1.500    0.000    0.000 
#    0.000    0.000    0.000    0.000    0.000    0.000 
#
# Total GULP energy -594967.273723 kJ/mol
# GULP energy per Si atom -12395.151536 kJ/mol
# Density = 1.940722 g / cm^3
# Si number density = 19.451493 Si / 1000 Ang^3
#
#
#
# Elastic Constant Matrix: (Units=GPa)
#
#
# Indices 1 2 3 4 5 6 
#
# 1 72.7249 40.0834 41.6092 0.0000 0.0000 0.0000
# 2 40.0834 143.3694 74.8053 0.0000 0.0000 0.0000
# 3 41.6092 74.8053 137.2235 0.0000 0.0000 0.0000
# 4 0.0000 0.0000 0.0000 38.6295 0.0000 0.0000
# 5 0.0000 0.0000 0.0000 0.0000 0.7152 0.0000
# 6 0.0000 0.0000 0.0000 0.0000 0.0000 28.3447
#
#
#
# Elastic Compliance Matrix: (Units=1/GPa)
#
#
# Indices 1 2 3 4 5 6 
#
# 1 0.017496 -0.002968 -0.003687 0.000000 0.000000 0.000000
# 2 -0.002968 0.010251 -0.004688 0.000000 0.000000 0.000000
# 3 -0.003687 -0.004688 0.010961 0.000000 0.000000 0.000000
# 4 0.000000 0.000000 0.000000 0.025887 0.000000 0.000000
# 5 0.000000 0.000000 0.000000 0.000000 1.398246 0.000000
# 6 0.000000 0.000000 0.000000 0.000000 0.000000 0.035280
#
#
# Mechanical properties :
#
#
# Convention : Reuss Voigt Hill
#
# Bulk Modulus (GPa) = 62.41636 74.03483 68.22560
# Shear Modulus (GPa) = 3.27622 26.65920 14.96771
#
# Velocity S-wave (km/s) = 1.29922 3.70611 2.77698
# Velocity P-wave (km/s) = 5.86587 7.51382 6.74040
#
# Compressibility (1/GPa) = 0.01602144
#
# Stress axis : x y z
#
# Youngs Moduli (GPa) = 57.15663 97.55301 91.23069
#
# Poissons Ratio (x) = 0.28949 0.33640
# Poissons Ratio (y) = 0.16961 0.42771
# Poissons Ratio (z) = 0.21076 0.45735
#
# Static dielectric constant tensor:
#      x y z
#    x 3.360930 0.000000 0.000000 
#    y 0.000000 3.521150 0.000000 
#    z 0.000000 0.000000 3.815240 
# 
# 
# High freq. dielectric constant tensor:
#      x y z
#    x 1.734170 0.000000 0.000000 
#    y 0.000000 1.757630 0.000000 
#    z 0.000000 0.000000 1.763640 
# 
# From -- ./inp_files/25477.got.cif
#   From: 2010.03.12/outbox.cif.g09.slc.cpg/sg65_13_cif.got.tgz:25477.got - 2010.04.10 20:52:16.
