data_PCOD8269066
_publ_section_title
;
Structure prediction by ZEFSAII (Michael W. Deem and Ramdas Pophale) SiO2 
 PCOD8269066
Probable space group: C M M M
;
_chemical_formula_sum "Si O2"
_cell_formula_units_Z 72
_cell_length_a 9.862543
_cell_length_b 15.377653
_cell_length_c 25.024337
_cell_angle_alpha 90.000000
_cell_angle_beta 90.000000
_cell_angle_gamma 90.000000
_cell_volume 3795.260115
_symmetry_space_group_name_H-M "C M M M"
_symmetry_group_IT_number 65
_symmetry_cell_setting 'orthorhombic'
loop_
_space_group_symop_operation_xyz
x,y,z
-x,-y,z
x,-y,-z
-x,y,-z
-x,-y,-z
x,y,-z
-x,y,z
x,-y,z
1/2+x,1/2+y,z
1/2-x,1/2-y,z
1/2+x,1/2-y,-z
1/2-x,1/2+y,-z
1/2-x,1/2-y,-z
1/2+x,1/2+y,-z
1/2-x,1/2+y,z
1/2+x,1/2-y,z
loop_
_atom_site_type_symbol
_atom_site_label
_atom_site_fract_x
_atom_site_fract_y
_atom_site_fract_z
Si Si1 0.339671 0.500000 0.440284
Si Si2 0.160424 0.904096 0.733959
Si Si3 0.839410 0.170558 0.623269
Si Si4 0.348389 0.604016 0.149606
Si Si5 0.348097 0.896505 0.940694
O O1 0.500000 0.500000 0.442764
O O2 0.277603 0.500000 0.500000
O O3 0.291853 0.414129 0.409275
O O4 0.202661 0.841907 0.685348
O O5 0.206204 0.865831 0.791756
O O6 0.000000 0.914783 0.734849
O O7 0.224484 0.000000 0.724673
O O8 0.750000 0.250000 0.600794
O O9 0.000000 0.189017 0.616319
O O10 0.500000 0.639085 0.138822
O O11 0.348347 0.500000 0.148462
O O12 0.251870 0.643900 0.103751
O O13 0.500000 0.863253 0.928875
O O14 0.344363 0.000000 0.937746
O O15 0.301642 0.866328 0.000000
#
# Coordination Sequence:
#
# PCOD8269066 Si02
#       5
#     8  16  16  16  16
#     4   9  18  34  57  81 105 141 184 213 242 300
#     4   8  13  25  45  65  87 122 164 201 243 298
#     4  10  19  33  54  78 105 137 174 215 256 302
#     4   8  13  20  33  53  73  99 145 197 236 276
#     4   8  13  20  28  41  69 109 146 180 228 290
#
# _framework density 18.971032000000001
#
# number of rings (size 3 to 8) (size 9 to 14) (size 15 to 20)
#    0.000    3.444    1.111    2.000    0.000    0.889 
#    0.000    3.889    0.000    2.000    0.000    0.000 
#    0.000    0.889    0.000    2.000    0.000    5.333 
#
# Total GULP energy -446068.407500 kJ/mol
# GULP energy per Si atom -12390.789097 kJ/mol
# Density = 1.892785 g / cm^3
# Si number density = 18.971032 Si / 1000 Ang^3
#
#
#
# Elastic Constant Matrix: (Units=GPa)
#
#
# Indices 1 2 3 4 5 6 
#
# 1 61.0956 34.2167 55.6255 0.0000 0.0000 0.0000
# 2 34.2167 74.0094 44.1227 0.0000 0.0000 0.0000
# 3 55.6255 44.1227 158.4748 0.0000 0.0000 0.0000
# 4 0.0000 0.0000 0.0000 3.8482 0.0000 0.0000
# 5 0.0000 0.0000 0.0000 0.0000 14.3986 0.0000
# 6 0.0000 0.0000 0.0000 0.0000 0.0000 17.3405
#
#
#
# Elastic Compliance Matrix: (Units=1/GPa)
#
#
# Indices 1 2 3 4 5 6 
#
# 1 0.027865 -0.008455 -0.007427 0.000000 0.000000 0.000000
# 2 -0.008455 0.018767 -0.002257 0.000000 0.000000 0.000000
# 3 -0.007427 -0.002257 0.009545 0.000000 0.000000 0.000000
# 4 0.000000 0.000000 0.000000 0.259862 0.000000 0.000000
# 5 0.000000 0.000000 0.000000 0.000000 0.069451 0.000000
# 6 0.000000 0.000000 0.000000 0.000000 0.000000 0.057669
#
#
# Mechanical properties :
#
#
# Convention : Reuss Voigt Hill
#
# Bulk Modulus (GPa) = 50.25421 62.38997 56.32209
# Shear Modulus (GPa) = 10.28661 17.75844 14.02252
#
# Velocity S-wave (km/s) = 2.33110 3.06286 2.72169
# Velocity P-wave (km/s) = 5.81316 6.74289 6.29521
#
# Compressibility (1/GPa) = 0.01989883
#
# Stress axis : x y z
#
# Youngs Moduli (GPa) = 35.88762 53.28630 104.76270
#
# Poissons Ratio (x) = 0.45054 0.77803
# Poissons Ratio (y) = 0.30343 0.23647
# Poissons Ratio (z) = 0.26652 0.12028
#
# Static dielectric constant tensor:
#      x y z
#    x 3.200550 0.000000 0.000000 
#    y 0.000000 3.013250 0.000000 
#    z 0.000000 0.000000 4.053570 
# 
# 
# High freq. dielectric constant tensor:
#      x y z
#    x 1.693760 0.000000 0.000000 
#    y 0.000000 1.700460 0.000000 
#    z 0.000000 0.000000 1.750290 
# 
# From -- ./inp_files/72507.got.cif
#   From: 2010.03.12/outbox.cif.g09.slc.cpg/sg65_37_cif.got.tgz:72507.got - 2010.04.10 20:52:16.
