data_PCOD8269977
_publ_section_title
;
Structure prediction by ZEFSAII (Michael W. Deem and Ramdas Pophale) SiO2 
 PCOD8269977
Probable space group: C M M M
;
_chemical_formula_sum "Si O2"
_cell_formula_units_Z 104
_cell_length_a 8.900760
_cell_length_b 29.481630
_cell_length_c 22.826035
_cell_angle_alpha 90.000000
_cell_angle_beta 90.000000
_cell_angle_gamma 90.000000
_cell_volume 5989.755033
_symmetry_space_group_name_H-M "C M M M"
_symmetry_group_IT_number 65
_symmetry_cell_setting 'orthorhombic'
loop_
_space_group_symop_operation_xyz
x,y,z
-x,-y,z
x,-y,-z
-x,y,-z
-x,-y,-z
x,y,-z
-x,y,z
x,-y,z
1/2+x,1/2+y,z
1/2-x,1/2-y,z
1/2+x,1/2-y,-z
1/2-x,1/2+y,-z
1/2-x,1/2-y,-z
1/2+x,1/2+y,-z
1/2-x,1/2+y,z
1/2+x,1/2-y,z
loop_
_atom_site_type_symbol
_atom_site_label
_atom_site_fract_x
_atom_site_fract_y
_atom_site_fract_z
Si Si1 0.670923 0.053778 0.679190
Si Si2 0.180206 0.608034 0.101491
Si Si3 0.168206 0.294192 0.233619
Si Si4 0.168671 0.053857 0.435679
Si Si5 0.164224 0.292778 0.905208
Si Si6 0.327663 0.553611 0.000000
Si Si7 0.677623 0.387055 0.226048
O O1 0.500000 0.069285 0.690398
O O2 0.720223 0.071685 0.614888
O O3 0.781069 0.074808 0.727117
O O4 0.687716 0.000000 0.683618
O O5 0.234575 0.658015 0.079166
O O6 0.245311 0.598207 0.165462
O O7 0.000000 0.605945 0.104795
O O8 0.243407 0.570841 0.057630
O O9 0.250000 0.250000 0.260850
O O10 0.158180 0.288516 0.164315
O O11 0.262562 0.338834 0.249654
O O12 0.000000 0.298208 0.259867
O O13 0.222735 0.071235 0.500000
O O14 0.000000 0.071639 0.423030
O O15 0.168332 0.000000 0.435708
O O16 0.250000 0.250000 0.933174
O O17 0.000000 0.290308 0.932970
O O18 0.316844 0.500000 0.000000
O O19 0.500000 0.570150 0.000000
O O20 0.500000 0.384344 0.217017
#
# Coordination Sequence:
#
# PCOD8269977 Si02
#       7
#    16  16  16  16  16   8  16
#     4  10  20  32  46  67  97 132 169 208 248 291
#     4  10  21  38  57  76  98 125 159 198 242 293
#     4   9  16  28  46  70  99 129 162 197 237 288
#     4   8  14  26  44  65  91 125 163 201 242 289
#     4   8  15  27  47  74 100 124 149 179 220 276
#     4  11  25  43  60  77  94 117 158 207 250 295
#     4  11  21  33  51  74 101 132 164 202 249 295
#
# _framework density 17.362981000000001
#
# number of rings (size 3 to 8) (size 9 to 14) (size 15 to 20)
#    0.000    2.538    0.000    4.385    0.000    6.769 
#    0.000    1.923    0.000    0.000    0.000    0.000 
#    0.000    0.615    0.000    2.308    0.000    3.692 
#
# Total GULP energy -644569.313750 kJ/mol
# GULP energy per Si atom -12395.563726 kJ/mol
# Density = 1.732346 g / cm^3
# Si number density = 17.362981 Si / 1000 Ang^3
#
#
#
# Elastic Constant Matrix: (Units=GPa)
#
#
# Indices 1 2 3 4 5 6 
#
# 1 115.1747 41.8238 41.5974 0.0000 0.0000 0.0000
# 2 41.8238 67.0024 37.9653 0.0000 0.0000 0.0000
# 3 41.5974 37.9653 83.6704 0.0000 0.0000 0.0000
# 4 0.0000 0.0000 0.0000 -3.2672 0.0000 0.0000
# 5 0.0000 0.0000 0.0000 0.0000 -8.0797 0.0000
# 6 0.0000 0.0000 0.0000 0.0000 0.0000 28.5688
#
#
#
# Elastic Compliance Matrix: (Units=1/GPa)
#
#
# Indices 1 2 3 4 5 6 
#
# 1 0.011917 -0.005494 -0.003432 0.000000 0.000000 0.000000
# 2 -0.005494 0.022623 -0.007534 0.000000 0.000000 0.000000
# 3 -0.003432 -0.007534 0.017076 0.000000 0.000000 0.000000
# 4 0.000000 0.000000 0.000000 -0.306069 0.000000 0.000000
# 5 0.000000 0.000000 0.000000 0.000000 -0.123768 0.000000
# 6 0.000000 0.000000 0.000000 0.000000 0.000000 0.035003
#
#
# Mechanical properties :
#
#
# Convention : Reuss Voigt Hill
#
# Bulk Modulus (GPa) = 53.48421 56.51339 54.99880
# Shear Modulus (GPa) = -16.44381 13.07511 -1.68435
#
# Velocity S-wave (km/s) = -3.08077 2.74714 -0.98600
# Velocity P-wave (km/s) = 4.26797 6.53309 5.51801
#
# Compressibility (1/GPa) = 0.01869711
#
# Stress axis : x y z
#
# Youngs Moduli (GPa) = 83.91361 44.20229 58.56138
#
# Poissons Ratio (x) = 0.24286 0.20096
# Poissons Ratio (y) = 0.46105 0.44118
# Poissons Ratio (z) = 0.28796 0.33301
#
# Static dielectric constant tensor:
#      x y z
#    x 3.462830 0.000000 0.000000 
#    y 0.000000 3.186840 0.000000 
#    z 0.000000 0.000000 3.112790 
# 
# 
# High freq. dielectric constant tensor:
#      x y z
#    x 1.682350 0.000000 0.000000 
#    y 0.000000 1.652000 0.000000 
#    z 0.000000 0.000000 1.642940 
# 
# From -- ./inp_files/73587.got.cif
#   From: 2010.03.12/outbox.cif.g09.slc.cpg/sg65_37_cif.got.tgz:73587.got - 2010.04.10 20:52:16.
