data_PCOD8269922
_publ_section_title
;
Structure prediction by ZEFSAII (Michael W. Deem and Ramdas Pophale) SiO2 
 PCOD8269922
Probable space group: C M M M
;
_chemical_formula_sum "Si O2"
_cell_formula_units_Z 88
_cell_length_a 29.156853
_cell_length_b 18.320295
_cell_length_c 9.032796
_cell_angle_alpha 90.000000
_cell_angle_beta 90.000000
_cell_angle_gamma 90.000000
_cell_volume 4824.977716
_symmetry_space_group_name_H-M "C M M M"
_symmetry_group_IT_number 65
_symmetry_cell_setting 'orthorhombic'
loop_
_space_group_symop_operation_xyz
x,y,z
-x,-y,z
x,-y,-z
-x,y,-z
-x,-y,-z
x,y,-z
-x,y,z
x,-y,z
1/2+x,1/2+y,z
1/2-x,1/2-y,z
1/2+x,1/2-y,-z
1/2-x,1/2+y,-z
1/2-x,1/2-y,-z
1/2+x,1/2+y,-z
1/2-x,1/2+y,z
1/2+x,1/2-y,z
loop_
_atom_site_type_symbol
_atom_site_label
_atom_site_fract_x
_atom_site_fract_y
_atom_site_fract_z
Si Si1 0.738923 0.000000 0.166486
Si Si2 0.262829 0.857309 0.329016
Si Si3 0.908921 0.416775 0.172811
Si Si4 0.658960 0.212417 0.825784
Si Si5 0.654415 0.354597 0.328773
Si Si6 0.500000 0.913537 0.334970
Si Si7 0.848010 0.000000 0.832938
O O1 0.719388 0.068968 0.252888
O O2 0.793463 0.000000 0.162978
O O3 0.718540 0.000000 0.000000
O O4 0.276903 0.856344 0.500000
O O5 0.290306 0.792672 0.247118
O O6 0.208887 0.850621 0.308766
O O7 0.895925 0.500000 0.221663
O O8 0.868600 0.360920 0.215328
O O9 0.954411 0.386758 0.252349
O O10 0.919344 0.414620 0.000000
O O11 0.634085 0.283458 0.754503
O O12 0.663743 0.224653 0.000000
O O13 0.639768 0.354744 0.500000
O O14 0.634556 0.427961 0.253221
O O15 0.500000 0.880734 0.500000
O O16 0.500000 0.000000 0.337351
O O17 0.867773 0.000000 0.000000
#
# Coordination Sequence:
#
# PCOD8269922 Si02
#       7
#     8  16  16  16  16   8   8
#     4   9  17  29  45  63  83 112 155 202 241 285
#     4  10  20  32  45  63  89 126 164 203 251 297
#     4   9  19  35  52  71  98 132 164 199 244 292
#     4  11  22  32  47  70  96 126 164 206 245 289
#     4  10  20  34  49  66  93 127 163 204 253 300
#     4   9  17  31  53  77  97 122 159 198 237 291
#     4   9  17  31  51  69  85 112 157 204 241 287
#
# _framework density 18.238426
#
# number of rings (size 3 to 8) (size 9 to 14) (size 15 to 20)
#    0.000    2.273    0.000    3.000    1.273    9.091 
#    0.000    0.000    0.000    0.000    0.000    0.000 
#    0.000    0.727    0.000    7.636    0.000    3.636 
#
# Total GULP energy -545513.044752 kJ/mol
# GULP energy per Si atom -12398.023744 kJ/mol
# Density = 1.819691 g / cm^3
# Si number density = 18.238426 Si / 1000 Ang^3
#
#
#
# Elastic Constant Matrix: (Units=GPa)
#
#
# Indices 1 2 3 4 5 6 
#
# 1 30.2654 6.8999 21.2545 0.0000 0.0000 0.0000
# 2 6.8999 118.3480 55.2193 0.0000 0.0000 0.0000
# 3 21.2545 55.2193 118.8566 0.0000 0.0000 0.0000
# 4 0.0000 0.0000 0.0000 33.5404 0.0000 0.0000
# 5 0.0000 0.0000 0.0000 0.0000 16.2320 0.0000
# 6 0.0000 0.0000 0.0000 0.0000 0.0000 7.6165
#
#
#
# Elastic Compliance Matrix: (Units=1/GPa)
#
#
# Indices 1 2 3 4 5 6 
#
# 1 0.037923 0.001217 -0.007347 0.000000 0.000000 0.000000
# 2 0.001217 0.010827 -0.005248 0.000000 0.000000 0.000000
# 3 -0.007347 -0.005248 0.012165 0.000000 0.000000 0.000000
# 4 0.000000 0.000000 0.000000 0.029815 0.000000 0.000000
# 5 0.000000 0.000000 0.000000 0.000000 0.061607 0.000000
# 6 0.000000 0.000000 0.000000 0.000000 0.000000 0.131294
#
#
# Mechanical properties :
#
#
# Convention : Reuss Voigt Hill
#
# Bulk Modulus (GPa) = 26.20534 48.24640 37.22587
# Shear Modulus (GPa) = 15.66870 23.75086 19.70978
#
# Velocity S-wave (km/s) = 2.93423 3.61257 3.29093
# Velocity P-wave (km/s) = 5.08714 6.62658 5.90722
#
# Compressibility (1/GPa) = 0.03816016
#
# Stress axis : x y z
#
# Youngs Moduli (GPa) = 26.36908 92.35946 82.20027
#
# Poissons Ratio (x) = -0.11240 0.60393
# Poissons Ratio (y) = -0.03209 0.43137
# Poissons Ratio (z) = 0.19373 0.48469
#
# Static dielectric constant tensor:
#      x y z
#    x 2.863480 0.000000 0.000000 
#    y 0.000000 3.457350 0.000000 
#    z 0.000000 0.000000 3.516740 
# 
# 
# High freq. dielectric constant tensor:
#      x y z
#    x 1.641430 0.000000 0.000000 
#    y 0.000000 1.712430 0.000000 
#    z 0.000000 0.000000 1.721030 
# 
# From -- ./inp_files/18354.got.cif
#   From: 2010.03.12/outbox.cif.g09.slc.cpg/sg65_10_cif.got.tgz:18354.got - 2010.04.10 20:52:16.
