data_PCOD8269684
_publ_section_title
;
Structure prediction by ZEFSAII (Michael W. Deem and Ramdas Pophale) SiO2 
 PCOD8269684
Probable space group: C M M M
;
_chemical_formula_sum "Si O2"
_cell_formula_units_Z 88
_cell_length_a 14.465294
_cell_length_b 22.624497
_cell_length_c 13.754854
_cell_angle_alpha 90.000000
_cell_angle_beta 90.000000
_cell_angle_gamma 90.000000
_cell_volume 4501.551078
_symmetry_space_group_name_H-M "C M M M"
_symmetry_group_IT_number 65
_symmetry_cell_setting 'orthorhombic'
loop_
_space_group_symop_operation_xyz
x,y,z
-x,-y,z
x,-y,-z
-x,y,-z
-x,-y,-z
x,y,-z
-x,y,z
x,-y,z
1/2+x,1/2+y,z
1/2-x,1/2-y,z
1/2+x,1/2-y,-z
1/2-x,1/2+y,-z
1/2-x,1/2-y,-z
1/2+x,1/2+y,-z
1/2-x,1/2+y,z
1/2+x,1/2-y,z
loop_
_atom_site_type_symbol
_atom_site_label
_atom_site_fract_x
_atom_site_fract_y
_atom_site_fract_z
Si Si1 0.608555 0.243414 0.893997
Si Si2 0.101911 0.661269 0.271376
Si Si3 0.355468 0.266884 0.390780
Si Si4 0.280657 0.930501 0.805719
Si Si5 0.605862 0.643872 0.220448
Si Si6 0.393890 0.069290 0.000000
O O1 0.500000 0.232587 0.892425
O O2 0.651586 0.198756 0.815600
O O3 0.629000 0.310750 0.865967
O O4 0.651039 0.229924 0.000000
O O5 0.092680 0.705920 0.362113
O O6 0.166954 0.603620 0.283185
O O7 0.000000 0.637754 0.245815
O O8 0.384409 0.284363 0.500000
O O9 0.250000 0.250000 0.381830
O O10 0.380408 0.322746 0.323495
O O11 0.173261 0.911479 0.799579
O O12 0.334638 0.911791 0.904983
O O13 0.285768 0.000000 0.787598
O O14 0.500000 0.621007 0.215035
O O15 0.500000 0.096702 0.000000
O O16 0.405430 0.000000 0.000000
#
# Coordination Sequence:
#
# PCOD8269684 Si02
#       6
#    16  16  16  16  16   8
#     4   8  16  30  50  78 109 140 174 220 282 344
#     4  10  20  34  55  84 113 143 185 232 290 355
#     4  10  19  36  62  90 119 147 183 239 300 359
#     4  11  23  38  55  80 114 156 202 244 282 330
#     4  10  21  37  57  84 116 151 194 238 290 352
#     4   9  20  38  57  78 107 151 205 247 280 325
#
# _framework density 19.548817
#
# number of rings (size 3 to 8) (size 9 to 14) (size 15 to 20)
#    0.000    2.273    1.818    2.182    2.545    2.909 
#    0.000    0.909    0.000    3.818    0.000    2.545 
#    0.000    0.000    0.000    0.000    0.000    0.000 
#
# Total GULP energy -545149.731961 kJ/mol
# GULP energy per Si atom -12389.766635 kJ/mol
# Density = 1.950432 g / cm^3
# Si number density = 19.548817 Si / 1000 Ang^3
#
#
#
# Elastic Constant Matrix: (Units=GPa)
#
#
# Indices 1 2 3 4 5 6 
#
# 1 121.1155 44.6863 26.1806 0.0000 0.0000 0.0000
# 2 44.6863 93.8898 22.3473 0.0000 0.0000 0.0000
# 3 26.1806 22.3473 78.1314 0.0000 0.0000 0.0000
# 4 0.0000 0.0000 0.0000 15.7808 0.0000 0.0000
# 5 0.0000 0.0000 0.0000 0.0000 20.6816 0.0000
# 6 0.0000 0.0000 0.0000 0.0000 0.0000 24.0485
#
#
#
# Elastic Compliance Matrix: (Units=1/GPa)
#
#
# Indices 1 2 3 4 5 6 
#
# 1 0.010360 -0.004404 -0.002212 0.000000 0.000000 0.000000
# 2 -0.004404 0.013301 -0.002329 0.000000 0.000000 0.000000
# 3 -0.002212 -0.002329 0.014206 0.000000 0.000000 0.000000
# 4 0.000000 0.000000 0.000000 0.063368 0.000000 0.000000
# 5 0.000000 0.000000 0.000000 0.000000 0.048352 0.000000
# 6 0.000000 0.000000 0.000000 0.000000 0.000000 0.041583
#
#
# Mechanical properties :
#
#
# Convention : Reuss Voigt Hill
#
# Bulk Modulus (GPa) = 50.05532 53.28501 51.67016
# Shear Modulus (GPa) = 23.17842 25.43036 24.30439
#
# Velocity S-wave (km/s) = 3.44709 3.61066 3.52982
# Velocity P-wave (km/s) = 6.44237 6.68574 6.56518
#
# Compressibility (1/GPa) = 0.01997790
#
# Stress axis : x y z
#
# Youngs Moduli (GPa) = 96.52871 75.18121 70.39235
#
# Poissons Ratio (x) = 0.33111 0.15568
# Poissons Ratio (y) = 0.42513 0.16392
# Poissons Ratio (z) = 0.21349 0.17507
#
# Static dielectric constant tensor:
#      x y z
#    x 3.665750 0.000000 0.000000 
#    y 0.000000 3.359300 0.000000 
#    z 0.000000 0.000000 3.671780 
# 
# 
# High freq. dielectric constant tensor:
#      x y z
#    x 1.775850 0.000000 0.000000 
#    y 0.000000 1.736960 0.000000 
#    z 0.000000 0.000000 1.738360 
# 
# From -- ./inp_files/40190.got.cif
#   From: 2010.03.12/outbox.cif.g09.slc.cpg/sg65_21_cif.got.tgz:40190.got - 2010.04.10 20:52:16.
