data_PCOD8269206
_publ_section_title
;
Structure prediction by ZEFSAII (Michael W. Deem and Ramdas Pophale) SiO2 
 PCOD8269206
Probable space group: C M M M
;
_chemical_formula_sum "Si O2"
_cell_formula_units_Z 84
_cell_length_a 27.824801
_cell_length_b 14.586935
_cell_length_c 12.272709
_cell_angle_alpha 90.000000
_cell_angle_beta 90.000000
_cell_angle_gamma 90.000000
_cell_volume 4981.229500
_symmetry_space_group_name_H-M "C M M M"
_symmetry_group_IT_number 65
_symmetry_cell_setting 'orthorhombic'
loop_
_space_group_symop_operation_xyz
x,y,z
-x,-y,z
x,-y,-z
-x,y,-z
-x,-y,-z
x,y,-z
-x,y,z
x,-y,z
1/2+x,1/2+y,z
1/2-x,1/2-y,z
1/2+x,1/2-y,-z
1/2-x,1/2+y,-z
1/2-x,1/2-y,-z
1/2+x,1/2+y,-z
1/2-x,1/2+y,z
1/2+x,1/2-y,z
loop_
_atom_site_type_symbol
_atom_site_label
_atom_site_fract_x
_atom_site_fract_y
_atom_site_fract_z
Si Si1 0.191905 0.000000 0.500000
Si Si2 0.555281 0.896262 0.274226
Si Si3 0.688442 0.000000 0.118043
Si Si4 0.802189 0.796221 0.271394
Si Si5 0.224340 0.000000 0.272336
Si Si6 0.054875 0.700947 0.500000
Si Si7 0.129834 0.683962 0.123309
Si Si8 0.650919 0.692699 0.500000
O O1 0.230064 0.000000 0.402312
O O2 0.154700 0.083499 0.500000
O O3 0.500000 0.893278 0.241623
O O4 0.563782 0.863312 0.396835
O O5 0.580908 0.827062 0.190894
O O6 0.575228 0.000000 0.264662
O O7 0.655683 0.087552 0.126623
O O8 0.724160 0.000000 0.218253
O O9 0.715452 0.000000 0.000000
O O10 0.750000 0.750000 0.260025
O O11 0.802730 0.905118 0.244075
O O12 0.836612 0.759361 0.177814
O O13 0.822437 0.770031 0.391304
O O14 0.094426 0.781901 0.500000
O O15 0.000000 0.741187 0.500000
O O16 0.118020 0.714731 0.000000
#
# Coordination Sequence:
#
# PCOD8269206 Si02
#       8
#     4  16   8  16   8   8  16   8
#     4   8  20  34  53  76 108 134 169 220 256 318
#     4  10  20  35  55  80 110 141 173 214 267 322
#     4  10  20  34  51  72 106 141 181 224 256 297
#     4  11  21  35  55  77 107 140 178 216 264 316
#     4  10  20  36  52  76 104 141 176 217 266 310
#     4  10  19  33  56  81 104 132 172 218 268 321
#     4  11  22  35  52  78 108 143 185 223 256 304
#     4  10  19  35  54  78 106 135 167 215 269 318
#
# _framework density 16.863306000000001
#
# number of rings (size 3 to 8) (size 9 to 14) (size 15 to 20)
#    0.000    1.714    4.762    0.571    0.000    2.667 
#    0.000    2.143    0.000    0.000    0.000    0.667 
#    0.000    1.524    0.000    0.000    0.000    0.000 
#
# Total GULP energy -520601.871485 kJ/mol
# GULP energy per Si atom -12395.282654 kJ/mol
# Density = 1.682492 g / cm^3
# Si number density = 16.863306 Si / 1000 Ang^3
#
#
#
# Elastic Constant Matrix: (Units=GPa)
#
#
# Indices 1 2 3 4 5 6 
#
# 1 91.6512 36.0510 57.9275 0.0000 0.0000 0.0000
# 2 36.0510 86.5320 44.1274 0.0000 0.0000 0.0000
# 3 57.9275 44.1274 128.8696 0.0000 0.0000 0.0000
# 4 0.0000 0.0000 0.0000 27.2735 0.0000 0.0000
# 5 0.0000 0.0000 0.0000 0.0000 18.9195 0.0000
# 6 0.0000 0.0000 0.0000 0.0000 0.0000 22.9371
#
#
#
# Elastic Compliance Matrix: (Units=1/GPa)
#
#
# Indices 1 2 3 4 5 6 
#
# 1 0.016147 -0.003666 -0.006003 0.000000 0.000000 0.000000
# 2 -0.003666 0.014834 -0.003431 0.000000 0.000000 0.000000
# 3 -0.006003 -0.003431 0.011633 0.000000 0.000000 0.000000
# 4 0.000000 0.000000 0.000000 0.036666 0.000000 0.000000
# 5 0.000000 0.000000 0.000000 0.000000 0.052855 0.000000
# 6 0.000000 0.000000 0.000000 0.000000 0.000000 0.043598
#
#
# Mechanical properties :
#
#
# Convention : Reuss Voigt Hill
#
# Bulk Modulus (GPa) = 60.92673 64.80718 62.86695
# Shear Modulus (GPa) = 24.10756 25.08917 24.59836
#
# Velocity S-wave (km/s) = 3.78509 3.86138 3.82343
# Velocity P-wave (km/s) = 7.43712 7.64164 7.54007
#
# Compressibility (1/GPa) = 0.01641316
#
# Stress axis : x y z
#
# Youngs Moduli (GPa) = 61.93102 67.41447 85.96179
#
# Poissons Ratio (x) = 0.24714 0.51602
# Poissons Ratio (y) = 0.22704 0.29497
# Poissons Ratio (z) = 0.37176 0.23133
#
# Static dielectric constant tensor:
#      x y z
#    x 3.064930 0.000000 0.000000 
#    y 0.000000 3.222880 0.000000 
#    z 0.000000 0.000000 3.445760 
# 
# 
# High freq. dielectric constant tensor:
#      x y z
#    x 1.638170 0.000000 0.000000 
#    y 0.000000 1.643500 0.000000 
#    z 0.000000 0.000000 1.663970 
# 
# From -- ./inp_files/33868.got.cif
#   From: 2010.03.12/outbox.cif.g09.slc.cpg/sg65_17_cif.got.tgz:33868.got - 2010.04.10 20:52:16.
