data_PCOD8269104
_publ_section_title
;
Structure prediction by ZEFSAII (Michael W. Deem and Ramdas Pophale) SiO2 
 PCOD8269104
Probable space group: C M M M
;
_chemical_formula_sum "Si O2"
_cell_formula_units_Z 120
_cell_length_a 27.508460
_cell_length_b 8.981758
_cell_length_c 26.254367
_cell_angle_alpha 90.000000
_cell_angle_beta 90.000000
_cell_angle_gamma 90.000000
_cell_volume 6486.780154
_symmetry_space_group_name_H-M "C M M M"
_symmetry_group_IT_number 65
_symmetry_cell_setting 'orthorhombic'
loop_
_space_group_symop_operation_xyz
x,y,z
-x,-y,z
x,-y,-z
-x,y,-z
-x,-y,-z
x,y,-z
-x,y,z
x,-y,z
1/2+x,1/2+y,z
1/2-x,1/2-y,z
1/2+x,1/2-y,-z
1/2-x,1/2+y,-z
1/2-x,1/2-y,-z
1/2+x,1/2+y,-z
1/2-x,1/2+y,z
1/2+x,1/2-y,z
loop_
_atom_site_type_symbol
_atom_site_label
_atom_site_fract_x
_atom_site_fract_y
_atom_site_fract_z
Si Si1 0.553530 0.323027 0.000000
Si Si2 0.443438 0.326860 0.202905
Si Si3 0.889573 0.674555 0.705902
Si Si4 0.800215 0.674655 0.941634
Si Si5 0.445545 0.825731 0.395414
Si Si6 0.698345 0.323336 0.345001
Si Si7 0.109844 0.825851 0.901597
Si Si8 0.858779 0.172867 0.556606
O O1 0.579964 0.264913 0.050330
O O2 0.550978 0.500000 0.000000
O O3 0.500000 0.253399 0.000000
O O4 0.500000 0.281867 0.202997
O O5 0.436898 0.500000 0.216730
O O6 0.414117 0.227014 0.242353
O O7 0.421415 0.289540 0.148031
O O8 0.877931 0.500000 0.708555
O O9 0.927129 0.713352 0.661028
O O10 0.839303 0.762588 0.696971
O O11 0.794899 0.500000 0.934296
O O12 0.750000 0.750000 0.926180
O O13 0.839601 0.737283 0.901878
O O14 0.814195 0.716236 0.000000
O O15 0.500000 0.761516 0.401553
O O16 0.410515 0.752687 0.437012
O O17 0.445019 0.000000 0.405312
O O18 0.702765 0.500000 0.339971
O O19 0.750000 0.250000 0.334396
O O20 0.680278 0.273014 0.401448
O O21 0.121326 0.000000 0.906256
O O22 0.838448 0.208583 0.500000
O O23 0.868928 0.000000 0.564252
#
# Coordination Sequence:
#
# PCOD8269104 Si02
#       8
#     8  16  16  16  16  16  16  16
#     4   9  16  28  50  77 104 139 180 215 250 301
#     4  10  21  36  55  82 114 145 179 221 268 318
#     4  10  20  36  57  79 104 138 180 225 272 324
#     4  10  20  34  54  78 105 137 176 219 264 312
#     4   9  18  32  50  73 101 135 178 224 268 316
#     4  10  20  36  58  82 108 139 176 220 269 320
#     4  10  19  33  54  80 110 143 180 220 262 313
#     4   9  19  34  50  73 107 143 178 216 260 314
#
# _framework density 18.499161999999998
#
# number of rings (size 3 to 8) (size 9 to 14) (size 15 to 20)
#    0.000    2.333    0.667    2.000    0.000    5.600 
#    0.000    2.000    0.000    4.800    0.000    0.000 
#    0.000    0.000    0.000    0.000    0.000    0.000 
#
# Total GULP energy -744093.158301 kJ/mol
# GULP energy per Si atom -12401.552638 kJ/mol
# Density = 1.845706 g / cm^3
# Si number density = 18.499162 Si / 1000 Ang^3
#
#
#
# Elastic Constant Matrix: (Units=GPa)
#
#
# Indices 1 2 3 4 5 6 
#
# 1 147.0137 50.4359 47.5686 0.0000 0.0000 0.0000
# 2 50.4359 60.6435 35.2965 0.0000 0.0000 0.0000
# 3 47.5686 35.2965 94.0605 0.0000 0.0000 0.0000
# 4 0.0000 0.0000 0.0000 26.8393 0.0000 0.0000
# 5 0.0000 0.0000 0.0000 0.0000 22.9657 0.0000
# 6 0.0000 0.0000 0.0000 0.0000 0.0000 31.4437
#
#
#
# Elastic Compliance Matrix: (Units=1/GPa)
#
#
# Indices 1 2 3 4 5 6 
#
# 1 0.009945 -0.006837 -0.002464 0.000000 0.000000 0.000000
# 2 -0.006837 0.025798 -0.006223 0.000000 0.000000 0.000000
# 3 -0.002464 -0.006223 0.014213 0.000000 0.000000 0.000000
# 4 0.000000 0.000000 0.000000 0.037259 0.000000 0.000000
# 5 0.000000 0.000000 0.000000 0.000000 0.043543 0.000000
# 6 0.000000 0.000000 0.000000 0.000000 0.000000 0.031803
#
#
# Mechanical properties :
#
#
# Convention : Reuss Voigt Hill
#
# Bulk Modulus (GPa) = 52.88818 63.14664 58.01741
# Shear Modulus (GPa) = 25.01116 27.47751 26.24433
#
# Velocity S-wave (km/s) = 3.68097 3.85819 3.77062
# Velocity P-wave (km/s) = 6.83503 7.35231 7.09838
#
# Compressibility (1/GPa) = 0.01890782
#
# Stress axis : x y z
#
# Youngs Moduli (GPa) = 100.55499 38.76268 70.35956
#
# Poissons Ratio (x) = 0.26502 0.17335
# Poissons Ratio (y) = 0.68748 0.43786
# Poissons Ratio (z) = 0.24774 0.24123
#
# Static dielectric constant tensor:
#      x y z
#    x 3.497380 0.000000 0.000000 
#    y 0.000000 3.277420 0.000000 
#    z 0.000000 0.000000 3.359030 
# 
# 
# High freq. dielectric constant tensor:
#      x y z
#    x 1.723850 0.000000 0.000000 
#    y 0.000000 1.710570 0.000000 
#    z 0.000000 0.000000 1.707950 
# 
# From -- ./inp_files/73967.got.cif
#   From: 2010.03.12/outbox.cif.g09.slc.cpg/sg65_37_cif.got.tgz:73967.got - 2010.04.10 20:52:16.
