data_PCOD8269845
_publ_section_title
;
Structure prediction by ZEFSAII (Michael W. Deem and Ramdas Pophale) SiO2 
 PCOD8269845
Probable space group: C M M M
;
_chemical_formula_sum "Si O2"
_cell_formula_units_Z 72
_cell_length_a 26.024490
_cell_length_b 18.287553
_cell_length_c 9.037652
_cell_angle_alpha 90.000000
_cell_angle_beta 90.000000
_cell_angle_gamma 90.000000
_cell_volume 4301.237661
_symmetry_space_group_name_H-M "C M M M"
_symmetry_group_IT_number 65
_symmetry_cell_setting 'orthorhombic'
loop_
_space_group_symop_operation_xyz
x,y,z
-x,-y,z
x,-y,-z
-x,y,-z
-x,-y,-z
x,y,-z
-x,y,z
x,-y,z
1/2+x,1/2+y,z
1/2-x,1/2-y,z
1/2+x,1/2-y,-z
1/2-x,1/2+y,-z
1/2-x,1/2-y,-z
1/2+x,1/2+y,-z
1/2-x,1/2+y,z
1/2+x,1/2-y,z
loop_
_atom_site_type_symbol
_atom_site_label
_atom_site_fract_x
_atom_site_fract_y
_atom_site_fract_z
Si Si1 0.909648 0.667334 0.833022
Si Si2 0.292207 0.418223 0.670598
Si Si3 0.000000 0.415602 0.325466
Si Si4 0.796367 0.341268 0.832941
Si Si5 0.650996 0.277049 0.327364
O O1 0.854573 0.625179 0.832015
O O2 0.900131 0.747751 0.757642
O O3 0.949476 0.621301 0.739264
O O4 0.930185 0.678443 0.000000
O O5 0.276032 0.411295 0.500000
O O6 0.310993 0.500000 0.709797
O O7 0.241869 0.400422 0.765198
O O8 0.339262 0.362870 0.705138
O O9 0.000000 0.500000 0.278676
O O10 0.000000 0.405271 0.500000
O O11 0.798702 0.266001 0.736744
O O12 0.779250 0.322504 0.000000
O O13 0.644693 0.260491 0.500000
#
# Coordination Sequence:
#
# PCOD8269845 Si02
#       5
#    16  16   8  16  16
#     4   9  20  35  52  72  97 129 164 200 241 288
#     4  10  20  31  46  71 101 132 165 203 245 286
#     4  11  23  37  55  79 102 125 158 199 241 286
#     4   9  19  32  48  70  97 130 168 203 240 288
#     4   9  17  32  51  69  94 130 168 203 239 286
#
# _framework density 16.739367000000001
#
# number of rings (size 3 to 8) (size 9 to 14) (size 15 to 20)
#    1.333    1.222    0.000    2.333    0.000    6.667 
#    0.000    4.444    0.000    0.000    0.000    0.778 
#    0.000    6.222    0.000    0.000    0.000    0.000 
#
# Total GULP energy -446004.615770 kJ/mol
# GULP energy per Si atom -12389.017105 kJ/mol
# Density = 1.670127 g / cm^3
# Si number density = 16.739367 Si / 1000 Ang^3
#
#
#
# Elastic Constant Matrix: (Units=GPa)
#
#
# Indices 1 2 3 4 5 6 
#
# 1 60.9484 54.4913 39.3523 0.0000 0.0000 0.0000
# 2 54.4913 131.5567 60.3892 0.0000 0.0000 0.0000
# 3 39.3523 60.3892 98.5472 0.0000 0.0000 0.0000
# 4 0.0000 0.0000 0.0000 4.5512 0.0000 0.0000
# 5 0.0000 0.0000 0.0000 0.0000 25.7945 0.0000
# 6 0.0000 0.0000 0.0000 0.0000 0.0000 19.0895
#
#
#
# Elastic Compliance Matrix: (Units=1/GPa)
#
#
# Indices 1 2 3 4 5 6 
#
# 1 0.028189 -0.009056 -0.005707 0.000000 0.000000 0.000000
# 2 -0.009056 0.013486 -0.004648 0.000000 0.000000 0.000000
# 3 -0.005707 -0.004648 0.015274 0.000000 0.000000 0.000000
# 4 0.000000 0.000000 0.000000 0.219721 0.000000 0.000000
# 5 0.000000 0.000000 0.000000 0.000000 0.038768 0.000000
# 6 0.000000 0.000000 0.000000 0.000000 0.000000 0.052385
#
#
# Mechanical properties :
#
#
# Convention : Reuss Voigt Hill
#
# Bulk Modulus (GPa) = 55.16485 66.61312 60.88898
# Shear Modulus (GPa) = 12.11572 19.00834 15.56203
#
# Velocity S-wave (km/s) = 2.69325 3.37344 3.05235
# Velocity P-wave (km/s) = 6.53438 7.41985 6.99115
#
# Compressibility (1/GPa) = 0.01812749
#
# Stress axis : x y z
#
# Youngs Moduli (GPa) = 35.47491 74.15149 65.46905
#
# Poissons Ratio (x) = 0.67154 0.37362
# Poissons Ratio (y) = 0.32127 0.30428
# Poissons Ratio (z) = 0.20245 0.34463
#
# Static dielectric constant tensor:
#      x y z
#    x 2.840210 0.000000 0.000000 
#    y 0.000000 3.028450 0.000000 
#    z 0.000000 0.000000 3.255820 
# 
# 
# High freq. dielectric constant tensor:
#      x y z
#    x 1.613670 0.000000 0.000000 
#    y 0.000000 1.624930 0.000000 
#    z 0.000000 0.000000 1.663320 
# 
# From -- ./inp_files/16573.got.cif
#   From: 2010.03.12/outbox.cif.g09.slc.cpg/sg65_9_cif.got.tgz:16573.got - 2010.04.10 20:52:16.
