data_PCOD8269492
_publ_section_title
;
Structure prediction by ZEFSAII (Michael W. Deem and Ramdas Pophale) SiO2 
 PCOD8269492
Probable space group: C M M M
;
_chemical_formula_sum "Si O2"
_cell_formula_units_Z 72
_cell_length_a 7.752687
_cell_length_b 26.949762
_cell_length_c 17.662026
_cell_angle_alpha 90.000000
_cell_angle_beta 90.000000
_cell_angle_gamma 90.000000
_cell_volume 3690.181306
_symmetry_space_group_name_H-M "C M M M"
_symmetry_group_IT_number 65
_symmetry_cell_setting 'orthorhombic'
loop_
_space_group_symop_operation_xyz
x,y,z
-x,-y,z
x,-y,-z
-x,y,-z
-x,-y,-z
x,y,-z
-x,y,z
x,-y,z
1/2+x,1/2+y,z
1/2-x,1/2-y,z
1/2+x,1/2-y,-z
1/2-x,1/2+y,-z
1/2-x,1/2-y,-z
1/2+x,1/2+y,-z
1/2-x,1/2+y,z
1/2+x,1/2-y,z
loop_
_atom_site_type_symbol
_atom_site_label
_atom_site_fract_x
_atom_site_fract_y
_atom_site_fract_z
Si Si1 0.500000 0.557384 0.089200
Si Si2 0.303393 0.900488 0.815497
Si Si3 0.703190 0.694567 0.264103
Si Si4 0.202549 0.444636 0.655336
Si Si5 0.803239 0.151887 0.581924
O O1 0.500000 0.500000 0.113794
O O2 0.673009 0.584075 0.118623
O O3 0.500000 0.563534 0.000000
O O4 0.500000 0.912208 0.840781
O O5 0.288395 0.841852 0.797254
O O6 0.249307 0.931490 0.741501
O O7 0.500000 0.685211 0.264101
O O8 0.750000 0.750000 0.240232
O O9 0.781721 0.682435 0.348194
O O10 0.269025 0.500000 0.637626
O O11 0.293832 0.406928 0.598131
O O12 0.000000 0.439941 0.642988
O O13 0.713729 0.163398 0.500000
O O14 0.000000 0.168033 0.575516
#
# Coordination Sequence:
#
# PCOD8269492 Si02
#       5
#     8  16  16  16  16
#     4  11  24  40  62  94 127 159 191 225 281 350
#     4  10  20  38  60  86 119 155 192 242 287 335
#     4  10  19  34  57  85 110 146 198 246 295 347
#     4   9  18  31  49  73 100 138 190 237 282 337
#     4   9  19  33  46  67 105 146 186 236 291 344
#
# _framework density 19.511237999999999
#
# number of rings (size 3 to 8) (size 9 to 14) (size 15 to 20)
#    0.000    2.333    1.111    1.333    1.556    4.444 
#    0.000    3.333    0.000    0.667    0.000    0.000 
#    0.000    0.000    0.000    0.000    0.000    0.000 
#
# Total GULP energy -446295.466670 kJ/mol
# GULP energy per Si atom -12397.096296 kJ/mol
# Density = 1.946683 g / cm^3
# Si number density = 19.511238 Si / 1000 Ang^3
#
#
#
# Elastic Constant Matrix: (Units=GPa)
#
#
# Indices 1 2 3 4 5 6 
#
# 1 72.1435 16.0460 35.3684 0.0000 0.0000 0.0000
# 2 16.0460 110.0798 32.6920 0.0000 0.0000 0.0000
# 3 35.3684 32.6920 86.4062 0.0000 0.0000 0.0000
# 4 0.0000 0.0000 0.0000 15.5942 0.0000 0.0000
# 5 0.0000 0.0000 0.0000 0.0000 15.6425 0.0000
# 6 0.0000 0.0000 0.0000 0.0000 0.0000 28.0207
#
#
#
# Elastic Compliance Matrix: (Units=1/GPa)
#
#
# Indices 1 2 3 4 5 6 
#
# 1 0.017363 -0.000473 -0.006928 0.000000 0.000000 0.000000
# 2 -0.000473 0.010247 -0.003683 0.000000 0.000000 0.000000
# 3 -0.006928 -0.003683 0.015803 0.000000 0.000000 0.000000
# 4 0.000000 0.000000 0.000000 0.064126 0.000000 0.000000
# 5 0.000000 0.000000 0.000000 0.000000 0.063929 0.000000
# 6 0.000000 0.000000 0.000000 0.000000 0.000000 0.035688
#
#
# Mechanical properties :
#
#
# Convention : Reuss Voigt Hill
#
# Bulk Modulus (GPa) = 47.07343 48.53804 47.80574
# Shear Modulus (GPa) = 21.15004 24.15301 22.65153
#
# Velocity S-wave (km/s) = 3.29598 3.52220 3.41096
# Velocity P-wave (km/s) = 6.21798 6.43989 6.32991
#
# Compressibility (1/GPa) = 0.02124341
#
# Stress axis : x y z
#
# Youngs Moduli (GPa) = 57.59362 97.58757 63.28049
#
# Poissons Ratio (x) = 0.04620 0.43841
# Poissons Ratio (y) = 0.02727 0.23308
# Poissons Ratio (z) = 0.39901 0.35944
#
# Static dielectric constant tensor:
#      x y z
#    x 3.478440 0.000000 0.000000 
#    y 0.000000 3.594580 0.000000 
#    z 0.000000 0.000000 3.381090 
# 
# 
# High freq. dielectric constant tensor:
#      x y z
#    x 1.758190 0.000000 0.000000 
#    y 0.000000 1.759600 0.000000 
#    z 0.000000 0.000000 1.728000 
# 
# From -- ./inp_files/36536.got.cif
#   From: 2010.03.12/outbox.cif.g09.slc.cpg/sg65_19_cif.got.tgz:36536.got - 2010.04.10 20:52:16.
