data_PCOD8269451
_publ_section_title
;
Structure prediction by ZEFSAII (Michael W. Deem and Ramdas Pophale) SiO2 
 PCOD8269451
Probable space group: C M M M
;
_chemical_formula_sum "Si O2"
_cell_formula_units_Z 88
_cell_length_a 17.711952
_cell_length_b 20.637231
_cell_length_c 13.011496
_cell_angle_alpha 90.000000
_cell_angle_beta 90.000000
_cell_angle_gamma 90.000000
_cell_volume 4756.035466
_symmetry_space_group_name_H-M "C M M M"
_symmetry_group_IT_number 65
_symmetry_cell_setting 'orthorhombic'
loop_
_space_group_symop_operation_xyz
x,y,z
-x,-y,z
x,-y,-z
-x,y,-z
-x,-y,-z
x,y,-z
-x,y,z
x,-y,z
1/2+x,1/2+y,z
1/2-x,1/2-y,z
1/2+x,1/2-y,-z
1/2-x,1/2+y,-z
1/2-x,1/2-y,-z
1/2+x,1/2+y,-z
1/2-x,1/2+y,z
1/2+x,1/2-y,z
loop_
_atom_site_type_symbol
_atom_site_label
_atom_site_fract_x
_atom_site_fract_y
_atom_site_fract_z
Si Si1 0.000000 0.071224 0.377905
Si Si2 0.084806 0.398887 0.616481
Si Si3 0.849887 0.859892 0.621949
Si Si4 0.414048 0.764149 0.289303
Si Si5 0.690523 0.192337 0.881898
Si Si6 0.777269 0.572817 0.252171
O O1 0.074472 0.106054 0.337729
O O2 0.000000 0.069474 0.500000
O O3 0.000000 0.000000 0.330078
O O4 0.106799 0.417054 0.500000
O O5 0.089190 0.321428 0.627967
O O6 0.140801 0.433451 0.695546
O O7 0.000000 0.423053 0.641557
O O8 0.844566 0.855763 0.500000
O O9 0.854236 0.788407 0.669665
O O10 0.779131 0.900372 0.661424
O O11 0.500000 0.737753 0.279062
O O12 0.385749 0.789739 0.178900
O O13 0.750000 0.250000 0.866792
O O14 0.723656 0.123377 0.842421
O O15 0.668284 0.183439 0.000000
O O16 0.754157 0.500000 0.215444
#
# Coordination Sequence:
#
# PCOD8269451 Si02
#       6
#     8  16  16  16  16  16
#     4   9  18  30  44  68 107 155 194 221 255 307
#     4   9  19  34  53  78 111 149 187 228 275 327
#     4  11  20  31  51  80 116 156 192 224 265 323
#     4  10  19  34  56  84 111 142 185 232 283 334
#     4  10  21  40  62  81 103 136 182 236 291 340
#     4  11  23  37  55  83 114 147 188 232 279 333
#
# _framework density 18.502804999999999
#
# number of rings (size 3 to 8) (size 9 to 14) (size 15 to 20)
#    0.000    1.909    2.727    1.636    0.000    4.000 
#    0.000    3.636    0.000    0.000    0.000    5.091 
#    0.000    5.818    0.000    0.000    0.000    0.000 
#
# Total GULP energy -545515.211094 kJ/mol
# GULP energy per Si atom -12398.072979 kJ/mol
# Density = 1.846069 g / cm^3
# Si number density = 18.502805 Si / 1000 Ang^3
#
#
#
# Elastic Constant Matrix: (Units=GPa)
#
#
# Indices 1 2 3 4 5 6 
#
# 1 76.3353 24.4692 27.2722 0.0000 0.0000 0.0000
# 2 24.4692 121.4069 37.6026 0.0000 0.0000 0.0000
# 3 27.2722 37.6026 90.1481 0.0000 0.0000 0.0000
# 4 0.0000 0.0000 0.0000 16.0727 0.0000 0.0000
# 5 0.0000 0.0000 0.0000 0.0000 21.6292 0.0000
# 6 0.0000 0.0000 0.0000 0.0000 0.0000 16.7249
#
#
#
# Elastic Compliance Matrix: (Units=1/GPa)
#
#
# Indices 1 2 3 4 5 6 
#
# 1 0.015046 -0.001863 -0.003775 0.000000 0.000000 0.000000
# 2 -0.001863 0.009690 -0.003478 0.000000 0.000000 0.000000
# 3 -0.003775 -0.003478 0.013685 0.000000 0.000000 0.000000
# 4 0.000000 0.000000 0.000000 0.062217 0.000000 0.000000
# 5 0.000000 0.000000 0.000000 0.000000 0.046234 0.000000
# 6 0.000000 0.000000 0.000000 0.000000 0.000000 0.059791
#
#
# Mechanical properties :
#
#
# Convention : Reuss Voigt Hill
#
# Bulk Modulus (GPa) = 49.53159 51.84205 50.68682
# Shear Modulus (GPa) = 21.58665 24.12179 22.85422
#
# Velocity S-wave (km/s) = 3.41936 3.61457 3.51832
# Velocity P-wave (km/s) = 6.51285 6.74533 6.63011
#
# Compressibility (1/GPa) = 0.02018914
#
# Stress axis : x y z
#
# Youngs Moduli (GPa) = 66.46315 103.20414 73.07015
#
# Poissons Ratio (x) = 0.19231 0.27581
# Poissons Ratio (y) = 0.12385 0.25414
# Poissons Ratio (z) = 0.25087 0.35894
#
# Static dielectric constant tensor:
#      x y z
#    x 3.517560 0.000000 0.000000 
#    y 0.000000 3.520210 0.000000 
#    z 0.000000 0.000000 3.106550 
# 
# 
# High freq. dielectric constant tensor:
#      x y z
#    x 1.723580 0.000000 0.000000 
#    y 0.000000 1.728550 0.000000 
#    z 0.000000 0.000000 1.685730 
# 
# From -- ./inp_files/26784.got.cif
#   From: 2010.03.12/outbox.cif.g09.slc.cpg/sg65_14_cif.got.tgz:26784.got - 2010.04.10 20:52:16.
