data_PCOD8269899
_publ_section_title
;
Structure prediction by ZEFSAII (Michael W. Deem and Ramdas Pophale) SiO2 
 PCOD8269899
Probable space group: C M M M
;
_chemical_formula_sum "Si O2"
_cell_formula_units_Z 88
_cell_length_a 8.914404
_cell_length_b 28.357140
_cell_length_c 23.324355
_cell_angle_alpha 90.000000
_cell_angle_beta 90.000000
_cell_angle_gamma 90.000000
_cell_volume 5896.093780
_symmetry_space_group_name_H-M "C M M M"
_symmetry_group_IT_number 65
_symmetry_cell_setting 'orthorhombic'
loop_
_space_group_symop_operation_xyz
x,y,z
-x,-y,z
x,-y,-z
-x,y,-z
-x,-y,-z
x,y,-z
-x,y,z
x,-y,z
1/2+x,1/2+y,z
1/2-x,1/2-y,z
1/2+x,1/2-y,-z
1/2-x,1/2+y,-z
1/2-x,1/2-y,-z
1/2+x,1/2+y,-z
1/2-x,1/2+y,z
1/2+x,1/2-y,z
loop_
_atom_site_type_symbol
_atom_site_label
_atom_site_fract_x
_atom_site_fract_y
_atom_site_fract_z
Si Si1 0.833082 0.444039 0.826518
Si Si2 0.331311 0.556075 0.062908
Si Si3 0.678166 0.947372 0.500000
Si Si4 0.323533 0.701063 0.566117
Si Si5 0.174243 0.055190 0.711490
Si Si6 0.677931 0.889988 0.609679
O O1 0.837551 0.500000 0.830814
O O2 0.770972 0.422650 0.886349
O O3 0.724904 0.428673 0.774749
O O4 0.000000 0.423926 0.816073
O O5 0.500000 0.575059 0.071269
O O6 0.332164 0.500000 0.066735
O O7 0.270027 0.571742 0.000000
O O8 0.500000 0.949371 0.500000
O O9 0.737171 0.920788 0.556250
O O10 0.746133 0.000000 0.500000
O O11 0.283167 0.690007 0.500000
O O12 0.500000 0.704079 0.576018
O O13 0.250000 0.750000 0.585386
O O14 0.253952 0.661034 0.606419
O O15 0.273190 0.084333 0.667272
O O16 0.000000 0.067141 0.703560
O O17 0.206628 0.000000 0.701780
O O18 0.500000 0.884041 0.608572
#
# Coordination Sequence:
#
# PCOD8269899 Si02
#       6
#    16  16   8  16  16  16
#     4   9  16  25  37  53  73 100 136 176 214 250
#     4   8  13  21  33  49  70  97 129 167 211 253
#     4   9  18  30  44  63  86 111 138 171 210 251
#     4  10  20  34  52  71  91 110 134 167 209 257
#     4  10  20  32  44  59  82 113 147 181 216 255
#     4  11  20  32  49  67  88 111 140 174 215 260
#
# _framework density 14.925134999999999
#
# number of rings (size 3 to 8) (size 9 to 14) (size 15 to 20)
#    0.000    2.455    0.909    3.273    0.000    5.091 
#    0.000    1.818    0.000    2.182    0.000    0.000 
#    0.000    0.000    0.000    0.000    0.000    0.909 
#
# Total GULP energy -545540.592377 kJ/mol
# GULP energy per Si atom -12398.649827 kJ/mol
# Density = 1.489116 g / cm^3
# Si number density = 14.925135 Si / 1000 Ang^3
#
#
#
# Elastic Constant Matrix: (Units=GPa)
#
#
# Indices 1 2 3 4 5 6 
#
# 1 72.3487 28.4845 32.4659 0.0000 0.0000 0.0000
# 2 28.4845 60.1218 32.1333 0.0000 0.0000 0.0000
# 3 32.4659 32.1333 100.1971 0.0000 0.0000 0.0000
# 4 0.0000 0.0000 0.0000 1.9904 0.0000 0.0000
# 5 0.0000 0.0000 0.0000 0.0000 28.2981 0.0000
# 6 0.0000 0.0000 0.0000 0.0000 0.0000 18.3735
#
#
#
# Elastic Compliance Matrix: (Units=1/GPa)
#
#
# Indices 1 2 3 4 5 6 
#
# 1 0.018092 -0.006564 -0.003757 0.000000 0.000000 0.000000
# 2 -0.006564 0.022455 -0.005075 0.000000 0.000000 0.000000
# 3 -0.003757 -0.005075 0.012825 0.000000 0.000000 0.000000
# 4 0.000000 0.000000 0.000000 0.502421 0.000000 0.000000
# 5 0.000000 0.000000 0.000000 0.000000 0.035338 0.000000
# 6 0.000000 0.000000 0.000000 0.000000 0.000000 0.054426
#
#
# Mechanical properties :
#
#
# Convention : Reuss Voigt Hill
#
# Bulk Modulus (GPa) = 44.28436 46.53724 45.41080
# Shear Modulus (GPa) = 7.31127 19.03798 13.17463
#
# Velocity S-wave (km/s) = 2.21569 3.57538 2.97427
# Velocity P-wave (km/s) = 6.02338 6.94929 6.50283
#
# Compressibility (1/GPa) = 0.02258134
#
# Stress axis : x y z
#
# Youngs Moduli (GPa) = 55.27261 44.53401 77.97162
#
# Poissons Ratio (x) = 0.29230 0.29296
# Poissons Ratio (y) = 0.36278 0.39567
# Poissons Ratio (z) = 0.20768 0.22599
#
# Static dielectric constant tensor:
#      x y z
#    x 2.957430 0.000000 0.000000 
#    y 0.000000 2.514750 0.000000 
#    z 0.000000 0.000000 3.014430 
# 
# 
# High freq. dielectric constant tensor:
#      x y z
#    x 1.580980 0.000000 0.000000 
#    y 0.000000 1.513120 0.000000 
#    z 0.000000 0.000000 1.571490 
# 
# From -- ./inp_files/60654.got.cif
#   From: 2010.03.12/outbox.cif.g09.slc.cpg/sg65_31_cif.got.tgz:60654.got - 2010.04.10 20:52:16.
