data_PCOD8269021
_publ_section_title
;
Structure prediction by ZEFSAII (Michael W. Deem and Ramdas Pophale) SiO2 
 PCOD8269021
Probable space group: C M M M
;
_chemical_formula_sum "Si O2"
_cell_formula_units_Z 72
_cell_length_a 18.327494
_cell_length_b 13.274708
_cell_length_c 16.092463
_cell_angle_alpha 90.000000
_cell_angle_beta 90.000000
_cell_angle_gamma 90.000000
_cell_volume 3915.169620
_symmetry_space_group_name_H-M "C M M M"
_symmetry_group_IT_number 65
_symmetry_cell_setting 'orthorhombic'
loop_
_space_group_symop_operation_xyz
x,y,z
-x,-y,z
x,-y,-z
-x,y,-z
-x,-y,-z
x,y,-z
-x,y,z
x,-y,z
1/2+x,1/2+y,z
1/2-x,1/2-y,z
1/2+x,1/2-y,-z
1/2-x,1/2+y,-z
1/2-x,1/2-y,-z
1/2+x,1/2+y,-z
1/2-x,1/2+y,z
1/2+x,1/2-y,z
loop_
_atom_site_type_symbol
_atom_site_label
_atom_site_fract_x
_atom_site_fract_y
_atom_site_fract_z
Si Si1 0.414334 0.379989 0.500000
Si Si2 0.858756 0.193188 0.327371
Si Si3 0.000000 0.741924 0.905543
Si Si4 0.500000 0.618553 0.236596
Si Si5 0.790109 0.613912 0.263446
Si Si6 0.142172 0.383925 0.092923
O O1 0.406844 0.500000 0.500000
O O2 0.500000 0.349532 0.500000
O O3 0.371117 0.333014 0.576953
O O4 0.930681 0.166197 0.279050
O O5 0.841010 0.311819 0.317468
O O6 0.793692 0.127808 0.288151
O O7 0.070808 0.677899 0.881853
O O8 0.000000 0.848696 0.858894
O O9 0.000000 0.773710 0.000000
O O10 0.500000 0.500000 0.247093
O O11 0.814883 0.500000 0.283371
O O12 0.797295 0.636951 0.164107
O O13 0.118866 0.500000 0.092662
O O14 0.171175 0.353823 0.000000
#
# Coordination Sequence:
#
# PCOD8269021 Si02
#       6
#     8  16   8   8  16  16
#     4  11  22  39  65  89 113 150 200 247 281 336
#     4  11  23  40  61  89 115 151 196 244 287 348
#     4  10  19  33  53  84 118 155 198 242 285 337
#     4  12  22  37  59  82 115 156 200 242 287 347
#     4  10  21  38  60  89 123 155 188 235 300 353
#     4   9  17  32  56  85 117 155 199 240 281 339
#
# _framework density 18.390007000000001
#
# number of rings (size 3 to 8) (size 9 to 14) (size 15 to 20)
#    0.000    1.667    3.333    2.333    0.000    3.333 
#    0.000    5.556    0.000    3.333    0.000    0.000 
#    0.000    0.000    0.000    0.000    0.000    0.000 
#
# Total GULP energy -446311.451644 kJ/mol
# GULP energy per Si atom -12397.540323 kJ/mol
# Density = 1.834815 g / cm^3
# Si number density = 18.390007 Si / 1000 Ang^3
#
#
#
# Elastic Constant Matrix: (Units=GPa)
#
#
# Indices 1 2 3 4 5 6 
#
# 1 128.0577 48.9028 71.7801 0.0000 0.0000 0.0000
# 2 48.9028 109.9705 50.2246 0.0000 0.0000 0.0000
# 3 71.7801 50.2246 147.6601 0.0000 0.0000 0.0000
# 4 0.0000 0.0000 0.0000 26.9252 0.0000 0.0000
# 5 0.0000 0.0000 0.0000 0.0000 38.1324 0.0000
# 6 0.0000 0.0000 0.0000 0.0000 0.0000 22.3173
#
#
#
# Elastic Compliance Matrix: (Units=1/GPa)
#
#
# Indices 1 2 3 4 5 6 
#
# 1 0.011533 -0.003040 -0.004572 0.000000 0.000000 0.000000
# 2 -0.003040 0.011567 -0.002456 0.000000 0.000000 0.000000
# 3 -0.004572 -0.002456 0.009830 0.000000 0.000000 0.000000
# 4 0.000000 0.000000 0.000000 0.037140 0.000000 0.000000
# 5 0.000000 0.000000 0.000000 0.000000 0.026224 0.000000
# 6 0.000000 0.000000 0.000000 0.000000 0.000000 0.044808
#
#
# Mechanical properties :
#
#
# Convention : Reuss Voigt Hill
#
# Bulk Modulus (GPa) = 78.17063 80.83371 79.50217
# Shear Modulus (GPa) = 30.21048 31.79371 31.00209
#
# Velocity S-wave (km/s) = 4.05750 4.16246 4.11032
# Velocity P-wave (km/s) = 8.03433 8.19464 8.11488
#
# Compressibility (1/GPa) = 0.01279253
#
# Stress axis : x y z
#
# Youngs Moduli (GPa) = 86.70850 86.45078 101.72467
#
# Poissons Ratio (x) = 0.26285 0.46510
# Poissons Ratio (y) = 0.26363 0.24988
# Poissons Ratio (z) = 0.39645 0.21236
#
# Static dielectric constant tensor:
#      x y z
#    x 3.322340 0.000000 0.000000 
#    y 0.000000 3.457660 0.000000 
#    z 0.000000 0.000000 3.657510 
# 
# 
# High freq. dielectric constant tensor:
#      x y z
#    x 1.709920 0.000000 0.000000 
#    y 0.000000 1.715020 0.000000 
#    z 0.000000 0.000000 1.720780 
# 
# From -- ./inp_files/42177.got.cif
#   From: 2010.03.12/outbox.cif.g09.slc.cpg/sg65_22_cif.got.tgz:42177.got - 2010.04.10 20:52:16.
