data_PCOD8269255
_publ_section_title
;
Structure prediction by ZEFSAII (Michael W. Deem and Ramdas Pophale) SiO2 
 PCOD8269255
Probable space group: C M M M
;
_chemical_formula_sum "Si O2"
_cell_formula_units_Z 76
_cell_length_a 12.375276
_cell_length_b 22.689090
_cell_length_c 14.090231
_cell_angle_alpha 90.000000
_cell_angle_beta 90.000000
_cell_angle_gamma 90.000000
_cell_volume 3956.307912
_symmetry_space_group_name_H-M "C M M M"
_symmetry_group_IT_number 65
_symmetry_cell_setting 'orthorhombic'
loop_
_space_group_symop_operation_xyz
x,y,z
-x,-y,z
x,-y,-z
-x,y,-z
-x,-y,-z
x,y,-z
-x,y,z
x,-y,z
1/2+x,1/2+y,z
1/2-x,1/2-y,z
1/2+x,1/2-y,-z
1/2-x,1/2+y,-z
1/2-x,1/2-y,-z
1/2+x,1/2+y,-z
1/2-x,1/2+y,z
1/2+x,1/2-y,z
loop_
_atom_site_type_symbol
_atom_site_label
_atom_site_fract_x
_atom_site_fract_y
_atom_site_fract_z
Si Si1 0.621648 0.500000 0.238021
Si Si2 0.623094 0.872361 0.605409
Si Si3 0.376572 0.390111 0.106679
Si Si4 0.000000 0.634747 0.888635
Si Si5 0.500000 0.000000 0.820008
Si Si6 0.788450 0.316066 0.786807
Si Si7 0.831597 0.500000 0.658042
O O1 0.500000 0.500000 0.278891
O O2 0.645379 0.554504 0.171511
O O3 0.702399 0.500000 0.326589
O O4 0.649223 0.847540 0.500000
O O5 0.500000 0.856415 0.634549
O O6 0.704931 0.845050 0.681996
O O7 0.634605 0.942788 0.599702
O O8 0.500000 0.369818 0.108085
O O9 0.308939 0.337580 0.148936
O O10 0.339077 0.405379 0.000000
O O11 0.102001 0.668075 0.842296
O O12 0.000000 0.562795 0.876593
O O13 0.000000 0.647958 0.000000
O O14 0.609297 0.000000 0.759544
O O15 0.750000 0.250000 0.769991
#
# Coordination Sequence:
#
# PCOD8269255 Si02
#       7
#     8  16  16   8   4  16   8
#     4  10  19  33  58  85 118 165 200 247 301 361
#     4  11  22  40  67  95 120 153 203 265 330 389
#     4  10  21  37  59  87 118 161 210 251 297 361
#     4  12  25  42  64  98 132 169 213 262 324 382
#     4  12  19  38  69  98 126 164 195 276 339 376
#     4  12  25  42  62  87 126 168 208 259 310 369
#     4  12  17  35  63  92 129 150 198 254 337 390
#
# _framework density 19.209828999999999
#
# number of rings (size 3 to 8) (size 9 to 14) (size 15 to 20)
#    0.000    0.842    6.316    1.421    1.474    4.211 
#    0.000    3.158    0.000    3.158    0.000    0.000 
#    0.000    0.000    0.000    0.000    0.000    0.000 
#
# Total GULP energy -470984.280754 kJ/mol
# GULP energy per Si atom -12394.323178 kJ/mol
# Density = 1.916611 g / cm^3
# Si number density = 19.209829 Si / 1000 Ang^3
#
#
#
# Elastic Constant Matrix: (Units=GPa)
#
#
# Indices 1 2 3 4 5 6 
#
# 1 72.4110 31.9290 42.7994 0.0000 0.0000 0.0000
# 2 31.9290 81.4552 5.7558 0.0000 0.0000 0.0000
# 3 42.7994 5.7558 83.8686 0.0000 0.0000 0.0000
# 4 0.0000 0.0000 0.0000 11.8786 0.0000 0.0000
# 5 0.0000 0.0000 0.0000 0.0000 27.1801 0.0000
# 6 0.0000 0.0000 0.0000 0.0000 0.0000 28.0875
#
#
#
# Elastic Compliance Matrix: (Units=1/GPa)
#
#
# Indices 1 2 3 4 5 6 
#
# 1 0.024875 -0.008897 -0.012084 0.000000 0.000000 0.000000
# 2 -0.008897 0.015518 0.003475 0.000000 0.000000 0.000000
# 3 -0.012084 0.003475 0.017851 0.000000 0.000000 0.000000
# 4 0.000000 0.000000 0.000000 0.084185 0.000000 0.000000
# 5 0.000000 0.000000 0.000000 0.000000 0.036792 0.000000
# 6 0.000000 0.000000 0.000000 0.000000 0.000000 0.035603
#
#
# Mechanical properties :
#
#
# Convention : Reuss Voigt Hill
#
# Bulk Modulus (GPa) = 43.03932 44.30037 43.66984
# Shear Modulus (GPa) = 19.41143 23.91261 21.66202
#
# Velocity S-wave (km/s) = 3.18228 3.53202 3.36170
# Velocity P-wave (km/s) = 5.99633 6.30435 6.15227
#
# Compressibility (1/GPa) = 0.02323457
#
# Stress axis : x y z
#
# Youngs Moduli (GPa) = 40.20075 64.43924 56.01812
#
# Poissons Ratio (x) = 0.57330 0.67690
# Poissons Ratio (y) = 0.35766 -0.19467
# Poissons Ratio (z) = 0.48577 -0.22394
#
# Static dielectric constant tensor:
#      x y z
#    x 3.456560 0.000000 0.000000 
#    y 0.000000 3.585690 0.000000 
#    z 0.000000 0.000000 3.527780 
# 
# 
# High freq. dielectric constant tensor:
#      x y z
#    x 1.751550 0.000000 0.000000 
#    y 0.000000 1.738860 0.000000 
#    z 0.000000 0.000000 1.749350 
# 
# From -- ./inp_files/38367.got.cif
#   From: 2010.03.12/outbox.cif.g09.slc.cpg/sg65_20_cif.got.tgz:38367.got - 2010.04.10 20:52:16.
