data_PCOD8269456
_publ_section_title
;
Structure prediction by ZEFSAII (Michael W. Deem and Ramdas Pophale) SiO2 
 PCOD8269456
Probable space group: C M M M
;
_chemical_formula_sum "Si O2"
_cell_formula_units_Z 88
_cell_length_a 28.719192
_cell_length_b 8.900102
_cell_length_c 17.992382
_cell_angle_alpha 90.000000
_cell_angle_beta 90.000000
_cell_angle_gamma 90.000000
_cell_volume 4598.920098
_symmetry_space_group_name_H-M "C M M M"
_symmetry_group_IT_number 65
_symmetry_cell_setting 'orthorhombic'
loop_
_space_group_symop_operation_xyz
x,y,z
-x,-y,z
x,-y,-z
-x,y,-z
-x,-y,-z
x,y,-z
-x,y,z
x,-y,z
1/2+x,1/2+y,z
1/2-x,1/2-y,z
1/2+x,1/2-y,-z
1/2-x,1/2+y,-z
1/2-x,1/2-y,-z
1/2+x,1/2+y,-z
1/2-x,1/2+y,z
1/2+x,1/2-y,z
loop_
_atom_site_type_symbol
_atom_site_label
_atom_site_fract_x
_atom_site_fract_y
_atom_site_fract_z
Si Si1 0.797519 0.676432 0.177560
Si Si2 0.891303 0.821789 0.142856
Si Si3 0.947853 0.178309 0.000000
Si Si4 0.391751 0.821712 0.581919
Si Si5 0.796749 0.675502 0.350134
Si Si6 0.553877 0.176173 0.275834
O O1 0.796024 0.500000 0.162470
O O2 0.750000 0.750000 0.147164
O O3 0.840575 0.748816 0.133889
O O4 0.804025 0.715681 0.264028
O O5 0.921425 0.764169 0.073173
O O6 0.916449 0.769048 0.217419
O O7 0.886113 0.000000 0.144173
O O8 0.000000 0.246152 0.000000
O O9 0.950097 0.000000 0.000000
O O10 0.404774 0.758380 0.500000
O O11 0.341106 0.759132 0.605769
O O12 0.430686 0.772245 0.641503
O O13 0.389152 0.000000 0.579714
O O14 0.791502 0.500000 0.362254
O O15 0.750000 0.750000 0.382045
O O16 0.500000 0.215480 0.265770
O O17 0.564122 0.000000 0.263818
#
# Coordination Sequence:
#
# PCOD8269456 Si02
#       6
#    16  16   8  16  16  16
#     4  10  19  34  56  84 116 146 183 226 270 322
#     4  11  21  36  60  85 111 145 183 224 276 332
#     4   9  20  38  58  83 114 145 182 229 276 327
#     4   9  17  31  50  74 106 142 180 225 275 324
#     4   9  17  30  49  73 104 138 174 218 265 315
#     4  10  20  35  55  79 107 141 184 233 280 328
#
# _framework density 19.134927000000001
#
# number of rings (size 3 to 8) (size 9 to 14) (size 15 to 20)
#    0.000    2.273    1.818    1.636    0.000    2.545 
#    0.000    4.091    0.000    4.909    0.000    1.273 
#    0.000    0.000    0.000    0.000    0.000    0.000 
#
# Total GULP energy -545615.201804 kJ/mol
# GULP energy per Si atom -12400.345496 kJ/mol
# Density = 1.909137 g / cm^3
# Si number density = 19.134927 Si / 1000 Ang^3
#
#
#
# Elastic Constant Matrix: (Units=GPa)
#
#
# Indices 1 2 3 4 5 6 
#
# 1 155.4923 44.7354 63.4032 0.0000 0.0000 0.0000
# 2 44.7354 47.8625 28.7897 0.0000 0.0000 0.0000
# 3 63.4032 28.7897 103.0802 0.0000 0.0000 0.0000
# 4 0.0000 0.0000 0.0000 14.6423 0.0000 0.0000
# 5 0.0000 0.0000 0.0000 0.0000 29.9955 0.0000
# 6 0.0000 0.0000 0.0000 0.0000 0.0000 31.3233
#
#
#
# Elastic Compliance Matrix: (Units=1/GPa)
#
#
# Indices 1 2 3 4 5 6 
#
# 1 0.010188 -0.006915 -0.004335 0.000000 0.000000 0.000000
# 2 -0.006915 0.029805 -0.004071 0.000000 0.000000 0.000000
# 3 -0.004335 -0.004071 0.013505 0.000000 0.000000 0.000000
# 4 0.000000 0.000000 0.000000 0.068295 0.000000 0.000000
# 5 0.000000 0.000000 0.000000 0.000000 0.033338 0.000000
# 6 0.000000 0.000000 0.000000 0.000000 0.000000 0.031925
#
#
# Mechanical properties :
#
#
# Convention : Reuss Voigt Hill
#
# Bulk Modulus (GPa) = 43.75330 64.47686 54.11508
# Shear Modulus (GPa) = 22.19080 26.49268 24.34174
#
# Velocity S-wave (km/s) = 3.40913 3.72495 3.57054
# Velocity P-wave (km/s) = 6.19771 7.22976 6.73353
#
# Compressibility (1/GPa) = 0.02285542
#
# Stress axis : x y z
#
# Youngs Moduli (GPa) = 98.15034 33.55125 74.04718
#
# Poissons Ratio (x) = 0.23201 0.32103
# Poissons Ratio (y) = 0.67871 0.30145
# Poissons Ratio (z) = 0.42553 0.13659
#
# Static dielectric constant tensor:
#      x y z
#    x 3.769860 0.000000 0.000000 
#    y 0.000000 3.216350 0.000000 
#    z 0.000000 0.000000 3.562410 
# 
# 
# High freq. dielectric constant tensor:
#      x y z
#    x 1.760340 0.000000 0.000000 
#    y 0.000000 1.714280 0.000000 
#    z 0.000000 0.000000 1.733790 
# 
# From -- ./inp_files/50339.got.cif
#   From: 2010.03.12/outbox.cif.g09.slc.cpg/sg65_26_cif.got.tgz:50339.got - 2010.04.10 20:52:16.
