data_PCOD8269457
_publ_section_title
;
Structure prediction by ZEFSAII (Michael W. Deem and Ramdas Pophale) SiO2 
 PCOD8269457
Probable space group: C M M M
;
_chemical_formula_sum "Si O2"
_cell_formula_units_Z 72
_cell_length_a 8.728213
_cell_length_b 15.574070
_cell_length_c 26.297576
_cell_angle_alpha 90.000000
_cell_angle_beta 90.000000
_cell_angle_gamma 90.000000
_cell_volume 3574.729443
_symmetry_space_group_name_H-M "C M M M"
_symmetry_group_IT_number 65
_symmetry_cell_setting 'orthorhombic'
loop_
_space_group_symop_operation_xyz
x,y,z
-x,-y,z
x,-y,-z
-x,y,-z
-x,-y,-z
x,y,-z
-x,y,z
x,-y,z
1/2+x,1/2+y,z
1/2-x,1/2-y,z
1/2+x,1/2-y,-z
1/2-x,1/2+y,-z
1/2-x,1/2-y,-z
1/2+x,1/2+y,-z
1/2-x,1/2+y,z
1/2+x,1/2-y,z
loop_
_atom_site_type_symbol
_atom_site_label
_atom_site_fract_x
_atom_site_fract_y
_atom_site_fract_z
Si Si1 0.318182 0.661034 0.607693
Si Si2 0.179633 0.338694 0.155504
Si Si3 0.176196 0.100608 0.057450
Si Si4 0.181918 0.000000 0.328232
Si Si5 0.317887 0.403644 0.500000
Si Si6 0.818170 0.000000 0.787325
O O1 0.500000 0.665277 0.609782
O O2 0.250000 0.750000 0.628266
O O3 0.255354 0.584747 0.643457
O O4 0.258735 0.645206 0.550178
O O5 0.250000 0.250000 0.176279
O O6 0.214931 0.347438 0.095452
O O7 0.256367 0.415721 0.185713
O O8 0.000000 0.339360 0.165038
O O9 0.000000 0.123743 0.069258
O O10 0.203410 0.000000 0.065535
O O11 0.219430 0.127127 0.000000
O O12 0.240931 0.000000 0.270556
O O13 0.000000 0.000000 0.330721
O O14 0.251083 0.500000 0.500000
O O15 0.500000 0.408448 0.500000
O O16 0.000000 0.000000 0.791097
#
# Coordination Sequence:
#
# PCOD8269457 Si02
#       6
#    16  16  16   8   8   8
#     4  10  19  34  56  85 116 150 192 233 282 340
#     4  12  25  41  63  91 120 157 200 245 296 355
#     4   9  18  35  61  91 124 160 194 234 289 351
#     4   9  20  38  61  83 109 150 194 235 287 352
#     4   9  15  28  55  82 111 154 195 229 270 340
#     4  11  23  43  65  86 116 152 196 254 307 354
#
# _framework density 20.141385
#
# number of rings (size 3 to 8) (size 9 to 14) (size 15 to 20)
#    0.000    1.889    2.222    3.333    0.000    1.778 
#    0.000    6.111    0.000    0.667    0.000    0.000 
#    0.000    0.000    0.000    0.000    0.000    0.000 
#
# Total GULP energy -446475.089433 kJ/mol
# GULP energy per Si atom -12402.085818 kJ/mol
# Density = 2.009554 g / cm^3
# Si number density = 20.141385 Si / 1000 Ang^3
#
#
#
# Elastic Constant Matrix: (Units=GPa)
#
#
# Indices 1 2 3 4 5 6 
#
# 1 73.5537 41.6642 37.1938 0.0000 0.0000 0.0000
# 2 41.6642 170.3336 72.3915 0.0000 0.0000 0.0000
# 3 37.1938 72.3915 138.1450 0.0000 0.0000 0.0000
# 4 0.0000 0.0000 0.0000 1.9613 0.0000 0.0000
# 5 0.0000 0.0000 0.0000 0.0000 13.6753 0.0000
# 6 0.0000 0.0000 0.0000 0.0000 0.0000 32.3618
#
#
#
# Elastic Compliance Matrix: (Units=1/GPa)
#
#
# Indices 1 2 3 4 5 6 
#
# 1 0.016715 -0.002799 -0.003033 0.000000 0.000000 0.000000
# 2 -0.002799 0.008022 -0.003450 0.000000 0.000000 0.000000
# 3 -0.003033 -0.003450 0.009863 0.000000 0.000000 0.000000
# 4 0.000000 0.000000 0.000000 0.509866 0.000000 0.000000
# 5 0.000000 0.000000 0.000000 0.000000 0.073125 0.000000
# 6 0.000000 0.000000 0.000000 0.000000 0.000000 0.030901
#
#
# Mechanical properties :
#
#
# Convention : Reuss Voigt Hill
#
# Bulk Modulus (GPa) = 62.36425 76.05903 69.21164
# Shear Modulus (GPa) = 7.43603 24.98520 16.21062
#
# Velocity S-wave (km/s) = 1.92352 3.52588 2.84005
# Velocity P-wave (km/s) = 5.99697 7.37701 6.72250
#
# Compressibility (1/GPa) = 0.01603483
#
# Stress axis : x y z
#
# Youngs Moduli (GPa) = 59.82613 124.66062 101.38585
#
# Poissons Ratio (x) = 0.34897 0.30754
# Poissons Ratio (y) = 0.16748 0.34977
# Poissons Ratio (z) = 0.18148 0.43007
#
# Static dielectric constant tensor:
#      x y z
#    x 3.297930 0.000000 0.000000 
#    y 0.000000 3.768010 0.000000 
#    z 0.000000 0.000000 3.868260 
# 
# 
# High freq. dielectric constant tensor:
#      x y z
#    x 1.756020 0.000000 0.000000 
#    y 0.000000 1.798120 0.000000 
#    z 0.000000 0.000000 1.787830 
# 
# From -- ./inp_files/72570.got.cif
#   From: 2010.03.12/outbox.cif.g09.slc.cpg/sg65_37_cif.got.tgz:72570.got - 2010.04.10 20:52:16.
