data_PCOD8269333
_publ_section_title
;
Structure prediction by ZEFSAII (Michael W. Deem and Ramdas Pophale) SiO2 
 PCOD8269333
Probable space group: C M M M
;
_chemical_formula_sum "Si O2"
_cell_formula_units_Z 120
_cell_length_a 28.584350
_cell_length_b 9.061295
_cell_length_c 28.338244
_cell_angle_alpha 90.000000
_cell_angle_beta 90.000000
_cell_angle_gamma 90.000000
_cell_volume 7339.923370
_symmetry_space_group_name_H-M "C M M M"
_symmetry_group_IT_number 65
_symmetry_cell_setting 'orthorhombic'
loop_
_space_group_symop_operation_xyz
x,y,z
-x,-y,z
x,-y,-z
-x,y,-z
-x,-y,-z
x,y,-z
-x,y,z
x,-y,z
1/2+x,1/2+y,z
1/2-x,1/2-y,z
1/2+x,1/2-y,-z
1/2-x,1/2+y,-z
1/2-x,1/2-y,-z
1/2+x,1/2+y,-z
1/2-x,1/2+y,z
1/2+x,1/2-y,z
loop_
_atom_site_type_symbol
_atom_site_label
_atom_site_fract_x
_atom_site_fract_y
_atom_site_fract_z
Si Si1 0.296573 0.173742 0.087758
Si Si2 0.555831 0.333122 0.500000
Si Si3 0.445738 0.328882 0.141239
Si Si4 0.555638 0.833540 0.407885
Si Si5 0.885043 0.832143 0.947293
Si Si6 0.396733 0.173289 0.226951
Si Si7 0.945455 0.827396 0.313713
Si Si8 0.704543 0.170884 0.195413
O O1 0.250000 0.250000 0.067295
O O2 0.340743 0.226369 0.058004
O O3 0.304247 0.224332 0.141885
O O4 0.291308 0.000000 0.082371
O O5 0.574904 0.500000 0.500000
O O6 0.500000 0.332606 0.500000
O O7 0.575447 0.250028 0.546164
O O8 0.500000 0.288066 0.140886
O O9 0.437905 0.500000 0.154798
O O10 0.425644 0.291015 0.089623
O O11 0.420246 0.226215 0.178843
O O12 0.500000 0.834209 0.409691
O O13 0.573001 0.748962 0.361371
O O14 0.575321 0.000000 0.407258
O O15 0.868299 0.000000 0.938988
O O16 0.905632 0.811270 0.000000
O O17 0.417347 0.261590 0.270453
O O18 0.341418 0.207908 0.225739
O O19 0.406585 0.000000 0.232927
O O20 0.000000 0.794676 0.305327
O O21 0.935533 0.000000 0.317928
O O22 0.750000 0.250000 0.217627
O O23 0.716028 0.000000 0.196052
#
# Coordination Sequence:
#
# PCOD8269333 Si02
#       8
#    16   8  16  16  16  16  16  16
#     4  10  19  34  54  76  99 122 148 181 223 274
#     4   9  15  23  37  57  83 119 162 207 250 291
#     4  10  21  36  53  72  93 120 155 192 229 272
#     4   9  16  26  40  59  85 120 163 208 250 288
#     4  10  21  36  53  73  96 122 152 187 229 275
#     4  11  21  34  51  73  97 122 153 190 233 280
#     4  10  20  32  45  65  94 128 166 204 241 281
#     4   9  19  33  51  74  96 118 147 182 223 274
#
# _framework density 16.348943999999999
#
# number of rings (size 3 to 8) (size 9 to 14) (size 15 to 20)
#    0.000    2.200    1.333    2.200    0.000    7.467 
#    0.000    1.333    0.000    0.000    0.000    1.867 
#    0.000    0.000    0.000    0.600    0.000    8.200 
#
# Total GULP energy -744090.219391 kJ/mol
# GULP energy per Si atom -12401.503657 kJ/mol
# Density = 1.631173 g / cm^3
# Si number density = 16.348944 Si / 1000 Ang^3
#
#
#
# Elastic Constant Matrix: (Units=GPa)
#
#
# Indices 1 2 3 4 5 6 
#
# 1 68.4883 38.4526 32.9795 0.0000 0.0000 0.0000
# 2 38.4526 92.1653 52.9026 0.0000 0.0000 0.0000
# 3 32.9795 52.9026 113.8714 0.0000 0.0000 0.0000
# 4 0.0000 0.0000 0.0000 25.6977 0.0000 0.0000
# 5 0.0000 0.0000 0.0000 0.0000 0.0014 0.0000
# 6 0.0000 0.0000 0.0000 0.0000 0.0000 22.7650
#
#
#
# Elastic Compliance Matrix: (Units=1/GPa)
#
#
# Indices 1 2 3 4 5 6 
#
# 1 0.019600 -0.006708 -0.002560 0.000000 0.000000 0.000000
# 2 -0.006708 0.017091 -0.005998 0.000000 0.000000 0.000000
# 3 -0.002560 -0.005998 0.012310 0.000000 0.000000 0.000000
# 4 0.000000 0.000000 0.000000 0.038914 0.000000 0.000000
# 5 0.000000 0.000000 0.000000 0.000000715.983433 0.000000
# 6 0.000000 0.000000 0.000000 0.000000 0.000000 0.043927
#
#
# Mechanical properties :
#
#
# Convention : Reuss Voigt Hill
#
# Bulk Modulus (GPa) = 54.14273 58.13270 56.13772
# Shear Modulus (GPa) = 0.00698 19.70552 9.85625
#
# Velocity S-wave (km/s) = 0.06542 3.47552 2.45800
# Velocity P-wave (km/s) = 5.76147 7.19307 6.51670
#
# Compressibility (1/GPa) = 0.01846970
#
# Stress axis : x y z
#
# Youngs Moduli (GPa) = 51.02055 58.50956 81.23678
#
# Poissons Ratio (x) = 0.39247 0.20799
# Poissons Ratio (y) = 0.34223 0.48722
# Poissons Ratio (z) = 0.13062 0.35091
#
# Static dielectric constant tensor:
#      x y z
#    x 2.891610 0.000000 0.000000 
#    y 0.000000 3.197580 0.000000 
#    z 0.000000 0.000000 3.105540 
# 
# 
# High freq. dielectric constant tensor:
#      x y z
#    x 1.593930 0.000000 0.000000 
#    y 0.000000 1.642390 0.000000 
#    z 0.000000 0.000000 1.621950 
# 
# From -- ./inp_files/76152.got.cif
#   From: 2010.03.12/outbox.cif.g09.slc.cpg/sg65_39_cif.got.tgz:76152.got - 2010.04.10 20:52:16.
