data_PCOD8269525
_publ_section_title
;
Structure prediction by ZEFSAII (Michael W. Deem and Ramdas Pophale) SiO2 
 PCOD8269525
Probable space group: C M M M
;
_chemical_formula_sum "Si O2"
_cell_formula_units_Z 72
_cell_length_a 20.334656
_cell_length_b 19.855475
_cell_length_c 9.839988
_cell_angle_alpha 90.000000
_cell_angle_beta 90.000000
_cell_angle_gamma 90.000000
_cell_volume 3972.937013
_symmetry_space_group_name_H-M "C M M M"
_symmetry_group_IT_number 65
_symmetry_cell_setting 'orthorhombic'
loop_
_space_group_symop_operation_xyz
x,y,z
-x,-y,z
x,-y,-z
-x,y,-z
-x,-y,-z
x,y,-z
-x,y,z
x,-y,z
1/2+x,1/2+y,z
1/2-x,1/2-y,z
1/2+x,1/2-y,-z
1/2-x,1/2+y,-z
1/2-x,1/2-y,-z
1/2+x,1/2+y,-z
1/2-x,1/2+y,z
1/2+x,1/2-y,z
loop_
_atom_site_type_symbol
_atom_site_label
_atom_site_fract_x
_atom_site_fract_y
_atom_site_fract_z
Si Si1 0.500000 0.637934 0.161764
Si Si2 0.755966 0.329383 0.848651
Si Si3 0.572025 0.000000 0.661207
Si Si4 0.000000 0.268240 0.344176
Si Si5 0.862631 0.924476 0.839467
Si Si6 0.625522 0.860146 0.657396
O O1 0.500000 0.708520 0.237762
O O2 0.435268 0.597402 0.209988
O O3 0.500000 0.651141 0.000000
O O4 0.750000 0.250000 0.858734
O O5 0.691487 0.369194 0.791773
O O6 0.813253 0.337843 0.742971
O O7 0.772698 0.357357 0.000000
O O8 0.610291 0.065334 0.710820
O O9 0.500000 0.000000 0.727909
O O10 0.564532 0.000000 0.500000
O O11 0.063689 0.312851 0.314972
O O12 0.000000 0.242010 0.500000
O O13 0.846945 0.000000 0.782201
O O14 0.863483 0.927001 0.000000
O O15 0.645289 0.859286 0.500000
#
# Coordination Sequence:
#
# PCOD8269525 Si02
#       6
#     8  16   8   8  16  16
#     4  10  19  34  59  81  99 129 176 224 259 303
#     4  10  21  36  53  77 111 144 173 214 267 314
#     4   9  16  32  55  77 103 136 175 218 260 307
#     4  10  20  34  53  79 108 139 172 212 266 316
#     4   9  18  33  54  79 105 136 175 216 261 313
#     4  10  20  34  55  79 104 138 179 218 258 310
#
# _framework density 18.122613000000001
#
# number of rings (size 3 to 8) (size 9 to 14) (size 15 to 20)
#    0.000    2.333    1.111    1.667    1.556    4.444 
#    0.000    1.111    0.000    3.333    0.000    0.000 
#    0.000    0.000    0.000    0.000    0.000    0.000 
#
# Total GULP energy -446196.418569 kJ/mol
# GULP energy per Si atom -12394.344960 kJ/mol
# Density = 1.808137 g / cm^3
# Si number density = 18.122613 Si / 1000 Ang^3
#
#
#
# Elastic Constant Matrix: (Units=GPa)
#
#
# Indices 1 2 3 4 5 6 
#
# 1 143.0071 49.2672 51.2214 0.0000 0.0000 0.0000
# 2 49.2672 123.2482 36.9889 0.0000 0.0000 0.0000
# 3 51.2214 36.9889 48.1114 0.0000 0.0000 0.0000
# 4 0.0000 0.0000 0.0000 58.6148 0.0000 0.0000
# 5 0.0000 0.0000 0.0000 0.0000 47.0389 0.0000
# 6 0.0000 0.0000 0.0000 0.0000 0.0000 21.7930
#
#
#
# Elastic Compliance Matrix: (Units=1/GPa)
#
#
# Indices 1 2 3 4 5 6 
#
# 1 0.011436 -0.001193 -0.011258 0.000000 0.000000 0.000000
# 2 -0.001193 0.010672 -0.006935 0.000000 0.000000 0.000000
# 3 -0.011258 -0.006935 0.038103 0.000000 0.000000 0.000000
# 4 0.000000 0.000000 0.000000 0.017061 0.000000 0.000000
# 5 0.000000 0.000000 0.000000 0.000000 0.021259 0.000000
# 6 0.000000 0.000000 0.000000 0.000000 0.000000 0.045886
#
#
# Mechanical properties :
#
#
# Convention : Reuss Voigt Hill
#
# Bulk Modulus (GPa) = 46.64423 65.48020 56.06222
# Shear Modulus (GPa) = 26.26957 37.28196 31.77576
#
# Velocity S-wave (km/s) = 3.81142 4.54056 4.19188
# Velocity P-wave (km/s) = 6.72036 7.98118 7.37775
#
# Compressibility (1/GPa) = 0.02143888
#
# Stress axis : x y z
#
# Youngs Moduli (GPa) = 87.44349 93.70553 26.24473
#
# Poissons Ratio (x) = 0.11175 0.29547
# Poissons Ratio (y) = 0.10428 0.18201
# Poissons Ratio (z) = 0.98447 0.64984
#
# Static dielectric constant tensor:
#      x y z
#    x 3.479000 0.000000 0.000000 
#    y 0.000000 3.654880 0.000000 
#    z 0.000000 0.000000 3.052780 
# 
# 
# High freq. dielectric constant tensor:
#      x y z
#    x 1.711370 0.000000 0.000000 
#    y 0.000000 1.717700 0.000000 
#    z 0.000000 0.000000 1.664880 
# 
# From -- ./inp_files/11337.got.cif
#   From: 2010.03.12/outbox.cif.g09.slc.cpg/sg65_6_cif.got.tgz:11337.got - 2010.04.10 20:52:16.
