data_PCOD8269621
_publ_section_title
;
Structure prediction by ZEFSAII (Michael W. Deem and Ramdas Pophale) SiO2 
 PCOD8269621
Probable space group: C M M M
;
_chemical_formula_sum "Si O2"
_cell_formula_units_Z 88
_cell_length_a 8.779869
_cell_length_b 28.582918
_cell_length_c 17.851380
_cell_angle_alpha 90.000000
_cell_angle_beta 90.000000
_cell_angle_gamma 90.000000
_cell_volume 4479.880138
_symmetry_space_group_name_H-M "C M M M"
_symmetry_group_IT_number 65
_symmetry_cell_setting 'orthorhombic'
loop_
_space_group_symop_operation_xyz
x,y,z
-x,-y,z
x,-y,-z
-x,y,-z
-x,-y,-z
x,y,-z
-x,y,z
x,-y,z
1/2+x,1/2+y,z
1/2-x,1/2-y,z
1/2+x,1/2-y,-z
1/2-x,1/2+y,-z
1/2-x,1/2-y,-z
1/2+x,1/2+y,-z
1/2-x,1/2+y,z
1/2+x,1/2-y,z
loop_
_atom_site_type_symbol
_atom_site_label
_atom_site_fract_x
_atom_site_fract_y
_atom_site_fract_z
Si Si1 0.178782 0.946087 0.225869
Si Si2 0.679545 0.298156 0.671856
Si Si3 0.678923 0.297405 0.155192
Si Si4 0.674835 0.444627 0.500000
Si Si5 0.680525 0.608348 0.082568
Si Si6 0.820009 0.393106 0.637864
O O1 0.227895 0.931718 0.141614
O O2 0.272339 0.914470 0.282711
O O3 0.000000 0.936458 0.239158
O O4 0.220297 0.000000 0.238142
O O5 0.500000 0.297618 0.659388
O O6 0.750000 0.250000 0.640125
O O7 0.725745 0.304206 0.758516
O O8 0.751479 0.341367 0.626820
O O9 0.500000 0.293532 0.146624
O O10 0.750000 0.250000 0.121984
O O11 0.744829 0.341378 0.109150
O O12 0.687645 0.500000 0.500000
O O13 0.500000 0.428160 0.500000
O O14 0.757187 0.426206 0.573482
O O15 0.500000 0.611504 0.078915
O O16 0.746657 0.596193 0.000000
O O17 0.000000 0.390222 0.632405
#
# Coordination Sequence:
#
# PCOD8269621 Si02
#       6
#    16  16  16   8  16  16
#     4  10  20  36  58  82 110 150 199 248 300 356
#     4  10  19  35  59  88 121 156 198 242 289 345
#     4   9  17  30  50  76 109 146 187 236 288 343
#     4  11  25  45  68  93 122 157 195 241 297 349
#     4   9  17  31  51  78 112 148 191 246 300 348
#     4  12  24  39  62  91 123 157 194 238 291 349
#
# _framework density 19.643381999999999
#
# number of rings (size 3 to 8) (size 9 to 14) (size 15 to 20)
#    0.000    1.909    1.818    3.000    0.000    4.727 
#    0.000    2.273    0.000    1.636    0.000    1.273 
#    0.000    0.000    0.000    0.000    0.000    0.000 
#
# Total GULP energy -545661.826299 kJ/mol
# GULP energy per Si atom -12401.405143 kJ/mol
# Density = 1.959867 g / cm^3
# Si number density = 19.643382 Si / 1000 Ang^3
#
#
#
# Elastic Constant Matrix: (Units=GPa)
#
#
# Indices 1 2 3 4 5 6 
#
# 1 82.8089 48.1289 29.6706 0.0000 0.0000 0.0000
# 2 48.1289 123.9320 33.3964 0.0000 0.0000 0.0000
# 3 29.6706 33.3964 78.1145 0.0000 0.0000 0.0000
# 4 0.0000 0.0000 0.0000 36.2094 0.0000 0.0000
# 5 0.0000 0.0000 0.0000 0.0000 -12.1733 0.0000
# 6 0.0000 0.0000 0.0000 0.0000 0.0000 31.2649
#
#
#
# Elastic Compliance Matrix: (Units=1/GPa)
#
#
# Indices 1 2 3 4 5 6 
#
# 1 0.016644 -0.005380 -0.004022 0.000000 0.000000 0.000000
# 2 -0.005380 0.010859 -0.002599 0.000000 0.000000 0.000000
# 3 -0.004022 -0.002599 0.015440 0.000000 0.000000 0.000000
# 4 0.000000 0.000000 0.000000 0.027617 0.000000 0.000000
# 5 0.000000 0.000000 0.000000 0.000000 -0.082147 0.000000
# 6 0.000000 0.000000 0.000000 0.000000 0.000000 0.031985
#
#
# Mechanical properties :
#
#
# Convention : Reuss Voigt Hill
#
# Bulk Modulus (GPa) = 52.79376 56.36078 54.57727
# Shear Modulus (GPa) = 98.59425 22.63750 60.61587
#
# Velocity S-wave (km/s) = 7.09232 3.39842 5.56104
# Velocity P-wave (km/s) = 9.69549 6.64479 8.31131
#
# Compressibility (1/GPa) = 0.01894163
#
# Stress axis : x y z
#
# Youngs Moduli (GPa) = 60.08236 92.09345 64.76481
#
# Poissons Ratio (x) = 0.49545 0.26047
# Poissons Ratio (y) = 0.32323 0.16832
# Poissons Ratio (z) = 0.24164 0.23934
#
# Static dielectric constant tensor:
#      x y z
#    x 3.383090 0.000000 0.000000 
#    y 0.000000 3.803600 0.000000 
#    z 0.000000 0.000000 3.394140 
# 
# 
# High freq. dielectric constant tensor:
#      x y z
#    x 1.742780 0.000000 0.000000 
#    y 0.000000 1.780910 0.000000 
#    z 0.000000 0.000000 1.754990 
# 
# From -- ./inp_files/50377.got.cif
#   From: 2010.03.12/outbox.cif.g09.slc.cpg/sg65_26_cif.got.tgz:50377.got - 2010.04.10 20:52:16.
