data_PCOD8269194
_publ_section_title
;
Structure prediction by ZEFSAII (Michael W. Deem and Ramdas Pophale) SiO2 
 PCOD8269194
Probable space group: C M M M
;
_chemical_formula_sum "Si O2"
_cell_formula_units_Z 88
_cell_length_a 9.894481
_cell_length_b 24.436057
_cell_length_c 20.314597
_cell_angle_alpha 90.000000
_cell_angle_beta 90.000000
_cell_angle_gamma 90.000000
_cell_volume 4911.705958
_symmetry_space_group_name_H-M "C M M M"
_symmetry_group_IT_number 65
_symmetry_cell_setting 'orthorhombic'
loop_
_space_group_symop_operation_xyz
x,y,z
-x,-y,z
x,-y,-z
-x,y,-z
-x,-y,-z
x,y,-z
-x,y,z
x,-y,z
1/2+x,1/2+y,z
1/2-x,1/2-y,z
1/2+x,1/2-y,-z
1/2-x,1/2+y,-z
1/2-x,1/2-y,-z
1/2+x,1/2+y,-z
1/2-x,1/2+y,z
1/2+x,1/2-y,z
loop_
_atom_site_type_symbol
_atom_site_label
_atom_site_fract_x
_atom_site_fract_y
_atom_site_fract_z
Si Si1 0.224669 0.377121 0.247157
Si Si2 0.500000 0.201264 0.202212
Si Si3 0.500000 0.329616 0.205161
Si Si4 0.279720 0.938057 0.883870
Si Si5 0.000000 0.641778 0.929036
Si Si6 0.345050 0.435137 0.500000
Si Si7 0.500000 0.605834 0.924018
Si Si8 0.844227 0.436187 0.618769
O O1 0.131749 0.324591 0.234877
O O2 0.376280 0.356125 0.243603
O O3 0.200810 0.424173 0.193062
O O4 0.190580 0.402076 0.317061
O O5 0.500000 0.265184 0.214554
O O6 0.500000 0.189869 0.124136
O O7 0.500000 0.342787 0.126675
O O8 0.369132 0.896477 0.925437
O O9 0.127448 0.932308 0.909008
O O10 0.328271 0.000000 0.895103
O O11 0.000000 0.671060 0.000000
O O12 0.351091 0.500000 0.500000
O O13 0.500000 0.411759 0.500000
O O14 0.259900 0.415050 0.436792
O O15 0.500000 0.626499 0.000000
O O16 0.821045 0.500000 0.633408
O O17 0.000000 0.425843 0.596972
#
# Coordination Sequence:
#
# PCOD8269194 Si02
#       8
#    16   8   8  16   8   8   8  16
#     4  10  20  35  53  80 104 135 180 221 267 320
#     4  10  20  38  55  73 101 132 174 231 281 322
#     4  10  22  36  55  75 101 132 174 235 285 318
#     4  10  20  33  49  72 105 138 170 213 262 316
#     4  10  21  33  50  75 100 130 175 220 265 326
#     4   9  19  33  51  83 122 155 182 208 240 292
#     4  10  21  35  50  71  98 134 179 216 263 334
#     4  10  19  33  55  82 116 152 180 208 249 305
#
# _framework density 17.916381000000001
#
# number of rings (size 3 to 8) (size 9 to 14) (size 15 to 20)
#    0.000    2.091    0.909    2.455    1.273    3.636 
#    0.000    0.909    0.000    6.545    0.000    3.818 
#    0.000    0.000    0.000    0.000    0.000    0.000 
#
# Total GULP energy -545563.016868 kJ/mol
# GULP energy per Si atom -12399.159474 kJ/mol
# Density = 1.787560 g / cm^3
# Si number density = 17.916381 Si / 1000 Ang^3
#
#
#
# Elastic Constant Matrix: (Units=GPa)
#
#
# Indices 1 2 3 4 5 6 
#
# 1 115.5160 15.2653 40.1773 0.0000 0.0000 0.0000
# 2 15.2653 59.4632 23.2960 0.0000 0.0000 0.0000
# 3 40.1773 23.2960 125.9958 0.0000 0.0000 0.0000
# 4 0.0000 0.0000 0.0000 14.5170 0.0000 0.0000
# 5 0.0000 0.0000 0.0000 0.0000 85.6773 0.0000
# 6 0.0000 0.0000 0.0000 0.0000 0.0000 -20.7328
#
#
#
# Elastic Compliance Matrix: (Units=1/GPa)
#
#
# Indices 1 2 3 4 5 6 
#
# 1 0.009843 -0.001399 -0.002880 0.000000 0.000000 0.000000
# 2 -0.001399 0.018329 -0.002943 0.000000 0.000000 0.000000
# 3 -0.002880 -0.002943 0.009399 0.000000 0.000000 0.000000
# 4 0.000000 0.000000 0.000000 0.068885 0.000000 0.000000
# 5 0.000000 0.000000 0.000000 0.000000 0.011672 0.000000
# 6 0.000000 0.000000 0.000000 0.000000 0.000000 -0.048233
#
#
# Mechanical properties :
#
#
# Convention : Reuss Voigt Hill
#
# Bulk Modulus (GPa) = 43.23713 50.93914 47.08813
# Shear Modulus (GPa) = 54.31894 30.70805 42.51350
#
# Velocity S-wave (km/s) = 5.51215 4.14450 4.87651
# Velocity P-wave (km/s) = 8.04344 7.16909 7.61882
#
# Compressibility (1/GPa) = 0.02312827
#
# Stress axis : x y z
#
# Youngs Moduli (GPa) = 101.59094 54.55788 106.39013
#
# Poissons Ratio (x) = 0.07630 0.30643
# Poissons Ratio (y) = 0.14208 0.31311
# Poissons Ratio (z) = 0.29261 0.16056
#
# Static dielectric constant tensor:
#      x y z
#    x 3.833570 0.000000 0.000000 
#    y 0.000000 2.945310 0.000000 
#    z 0.000000 0.000000 3.284840 
# 
# 
# High freq. dielectric constant tensor:
#      x y z
#    x 1.717240 0.000000 0.000000 
#    y 0.000000 1.661780 0.000000 
#    z 0.000000 0.000000 1.688960 
# 
# From -- ./inp_files/59956.got.cif
#   From: 2010.03.12/outbox.cif.g09.slc.cpg/sg65_30_cif.got.tgz:59956.got - 2010.04.10 20:52:16.
