data_PCOD8269185
_publ_section_title
;
Structure prediction by ZEFSAII (Michael W. Deem and Ramdas Pophale) SiO2 
 PCOD8269185
Probable space group: C M M M
;
_chemical_formula_sum "Si O2"
_cell_formula_units_Z 64
_cell_length_a 15.575861
_cell_length_b 17.470554
_cell_length_c 11.869693
_cell_angle_alpha 90.000000
_cell_angle_beta 90.000000
_cell_angle_gamma 90.000000
_cell_volume 3229.968048
_symmetry_space_group_name_H-M "C M M M"
_symmetry_group_IT_number 65
_symmetry_cell_setting 'orthorhombic'
loop_
_space_group_symop_operation_xyz
x,y,z
-x,-y,z
x,-y,-z
-x,y,-z
-x,-y,-z
x,y,-z
-x,y,z
x,-y,z
1/2+x,1/2+y,z
1/2-x,1/2-y,z
1/2+x,1/2-y,-z
1/2-x,1/2+y,-z
1/2-x,1/2-y,-z
1/2+x,1/2+y,-z
1/2-x,1/2+y,z
1/2+x,1/2-y,z
loop_
_atom_site_type_symbol
_atom_site_label
_atom_site_fract_x
_atom_site_fract_y
_atom_site_fract_z
Si Si1 0.500000 0.408742 0.624553
Si Si2 0.667227 0.806918 0.000000
Si Si3 0.653845 0.587435 0.774251
Si Si4 0.343864 0.911628 0.218314
Si Si5 0.904608 0.843765 0.000000
Si Si6 0.000000 0.409291 0.373139
O O1 0.500000 0.500000 0.617829
O O2 0.500000 0.373098 0.500000
O O3 0.415080 0.377506 0.687396
O O4 0.750000 0.750000 0.000000
O O5 0.657349 0.860271 0.892081
O O6 0.587384 0.748188 0.000000
O O7 0.629560 0.500000 0.798276
O O8 0.749764 0.595332 0.723562
O O9 0.649930 0.630311 0.892660
O O10 0.415015 0.881420 0.306439
O O11 0.362365 0.000000 0.184369
O O12 0.000000 0.879910 0.000000
O O13 0.000000 0.500000 0.381726
O O14 0.000000 0.374465 0.500000
#
# Coordination Sequence:
#
# PCOD8269185 Si02
#       6
#     8   8  16  16   8   8
#     4   9  18  31  49  78 112 143 182 227 268 321
#     4  12  23  37  56  87 119 151 183 231 285 354
#     4  10  19  33  55  82 112 147 184 225 279 337
#     4  10  21  38  60  85 116 149 188 238 289 341
#     4  12  23  34  53  82 114 151 186 226 278 344
#     4   9  20  39  63  88 110 145 202 255 292 331
#
# _framework density 19.814437000000002
#
# number of rings (size 3 to 8) (size 9 to 14) (size 15 to 20)
#    0.000    1.750    3.750    0.750    1.750    3.500 
#    0.000    6.875    0.000    3.750    0.000    0.000 
#    0.000    0.000    0.000    0.000    0.000    0.000 
#
# Total GULP energy -396659.308653 kJ/mol
# GULP energy per Si atom -12395.603395 kJ/mol
# Density = 1.976934 g / cm^3
# Si number density = 19.814437 Si / 1000 Ang^3
#
#
#
# Elastic Constant Matrix: (Units=GPa)
#
#
# Indices 1 2 3 4 5 6 
#
# 1 165.8882 30.6437 85.0341 0.0000 0.0000 0.0000
# 2 30.6437 58.9805 43.7085 0.0000 0.0000 0.0000
# 3 85.0341 43.7085 170.5613 0.0000 0.0000 0.0000
# 4 0.0000 0.0000 0.0000 -12.8455 0.0000 0.0000
# 5 0.0000 0.0000 0.0000 0.0000 20.0968 0.0000
# 6 0.0000 0.0000 0.0000 0.0000 0.0000 19.9583
#
#
#
# Elastic Compliance Matrix: (Units=1/GPa)
#
#
# Indices 1 2 3 4 5 6 
#
# 1 0.008207 -0.001521 -0.003702 0.000000 0.000000 0.000000
# 2 -0.001521 0.021211 -0.004678 0.000000 0.000000 0.000000
# 3 -0.003702 -0.004678 0.008907 0.000000 0.000000 0.000000
# 4 0.000000 0.000000 0.000000 -0.077848 0.000000 0.000000
# 5 0.000000 0.000000 0.000000 0.000000 0.049759 0.000000
# 6 0.000000 0.000000 0.000000 0.000000 0.000000 0.050104
#
#
# Mechanical properties :
#
#
# Convention : Reuss Voigt Hill
#
# Bulk Modulus (GPa) = 53.98048 79.35585 66.66816
# Shear Modulus (GPa) = 57.92726 21.17817 39.55272
#
# Velocity S-wave (km/s) = 5.41279 3.27284 4.47268
# Velocity P-wave (km/s) = 8.14657 7.37688 7.77126
#
# Compressibility (1/GPa) = 0.01852522
#
# Stress axis : x y z
#
# Youngs Moduli (GPa) = 121.85388 47.14504 112.26862
#
# Poissons Ratio (x) = 0.07168 0.41559
# Poissons Ratio (y) = 0.18528 0.52514
# Poissons Ratio (z) = 0.45107 0.22052
#
# Static dielectric constant tensor:
#      x y z
#    x 3.973140 0.000000 0.000000 
#    y 0.000000 3.458820 0.000000 
#    z 0.000000 0.000000 3.610820 
# 
# 
# High freq. dielectric constant tensor:
#      x y z
#    x 1.793050 0.000000 0.000000 
#    y 0.000000 1.744250 0.000000 
#    z 0.000000 0.000000 1.757190 
# 
# From -- ./inp_files/24001.got.cif
#   From: 2010.03.12/outbox.cif.g09.slc.cpg/sg65_13_cif.got.tgz:24001.got - 2010.04.10 20:52:16.
