data_PCOD8269995
_publ_section_title
;
Structure prediction by ZEFSAII (Michael W. Deem and Ramdas Pophale) SiO2 
 PCOD8269995
Probable space group: C M M M
;
_chemical_formula_sum "Si O2"
_cell_formula_units_Z 120
_cell_length_a 21.579769
_cell_length_b 18.082446
_cell_length_c 16.701645
_cell_angle_alpha 90.000000
_cell_angle_beta 90.000000
_cell_angle_gamma 90.000000
_cell_volume 6517.232531
_symmetry_space_group_name_H-M "C M M M"
_symmetry_group_IT_number 65
_symmetry_cell_setting 'orthorhombic'
loop_
_space_group_symop_operation_xyz
x,y,z
-x,-y,z
x,-y,-z
-x,y,-z
-x,-y,-z
x,y,-z
-x,y,z
x,-y,z
1/2+x,1/2+y,z
1/2-x,1/2-y,z
1/2+x,1/2-y,-z
1/2-x,1/2+y,-z
1/2-x,1/2-y,-z
1/2+x,1/2+y,-z
1/2-x,1/2+y,z
1/2+x,1/2-y,z
loop_
_atom_site_type_symbol
_atom_site_label
_atom_site_fract_x
_atom_site_fract_y
_atom_site_fract_z
Si Si1 0.747728 0.584753 0.171289
Si Si2 0.673179 0.419395 0.674878
Si Si3 0.373100 0.157450 0.152254
Si Si4 0.567673 0.376581 0.779753
Si Si5 0.319594 0.269449 0.593038
Si Si6 0.928149 0.581963 0.000000
Si Si7 0.931200 0.280831 0.698458
Si Si8 0.652047 0.682556 0.092905
O O1 0.732202 0.500000 0.149493
O O2 0.725100 0.604309 0.260810
O O3 0.820530 0.597399 0.168948
O O4 0.716226 0.639053 0.106532
O O5 0.687612 0.500000 0.636028
O O6 0.608922 0.428478 0.723399
O O7 0.669744 0.357035 0.606880
O O8 0.415868 0.160524 0.231450
O O9 0.343132 0.237475 0.134451
O O10 0.412194 0.129744 0.077508
O O11 0.500000 0.412712 0.790149
O O12 0.563032 0.298348 0.737545
O O13 0.597513 0.366176 0.867435
O O14 0.325556 0.251467 0.500000
O O15 0.250000 0.250000 0.624002
O O16 0.373841 0.220933 0.635319
O O17 0.896001 0.500000 0.000000
O O18 0.000000 0.568867 0.000000
O O19 0.000000 0.300728 0.661307
O O20 0.637766 0.691632 0.000000
#
# Coordination Sequence:
#
# PCOD8269995 Si02
#       8
#    16  16  16  16  16   8  16  16
#     4  10  21  34  51  72 102 140 179 227 282 332
#     4   9  18  33  51  74 103 137 176 218 262 315
#     4  11  20  35  55  75 100 142 189 226 273 336
#     4   8  16  30  47  68  95 130 173 218 263 308
#     4  10  20  34  55  84 114 143 175 220 275 330
#     4  11  24  38  51  76 113 141 171 228 288 332
#     4   9  18  33  54  77 103 139 180 223 267 321
#     4  10  20  32  46  73 100 133 180 236 274 321
#
# _framework density 18.412724000000001
#
# number of rings (size 3 to 8) (size 9 to 14) (size 15 to 20)
#    0.000    2.333    0.667    2.800    0.933    2.400 
#    0.000    0.000    0.000    0.000    0.000    7.467 
#    0.000    0.000    0.000   16.933    0.000    0.000 
#
# Total GULP energy -743672.239555 kJ/mol
# GULP energy per Si atom -12394.537326 kJ/mol
# Density = 1.837082 g / cm^3
# Si number density = 18.412724 Si / 1000 Ang^3
#
#
#
# Elastic Constant Matrix: (Units=GPa)
#
#
# Indices 1 2 3 4 5 6 
#
# 1 127.5405 18.9462 41.5628 0.0000 0.0000 0.0000
# 2 18.9462 70.8477 18.0970 0.0000 0.0000 0.0000
# 3 41.5628 18.0970 74.9890 0.0000 0.0000 0.0000
# 4 0.0000 0.0000 0.0000 15.1908 0.0000 0.0000
# 5 0.0000 0.0000 0.0000 0.0000 20.9017 0.0000
# 6 0.0000 0.0000 0.0000 0.0000 0.0000 11.3758
#
#
#
# Elastic Compliance Matrix: (Units=1/GPa)
#
#
# Indices 1 2 3 4 5 6 
#
# 1 0.009680 -0.001298 -0.005052 0.000000 0.000000 0.000000
# 2 -0.001298 0.015216 -0.002953 0.000000 0.000000 0.000000
# 3 -0.005052 -0.002953 0.016848 0.000000 0.000000 0.000000
# 4 0.000000 0.000000 0.000000 0.065829 0.000000 0.000000
# 5 0.000000 0.000000 0.000000 0.000000 0.047843 0.000000
# 6 0.000000 0.000000 0.000000 0.000000 0.000000 0.087906
#
#
# Mechanical properties :
#
#
# Convention : Reuss Voigt Hill
#
# Bulk Modulus (GPa) = 43.21767 47.84324 45.53045
# Shear Modulus (GPa) = 18.54323 22.47839 20.51081
#
# Velocity S-wave (km/s) = 3.17691 3.49780 3.34121
# Velocity P-wave (km/s) = 6.08108 6.50792 6.29812
#
# Compressibility (1/GPa) = 0.02313868
#
# Stress axis : x y z
#
# Youngs Moduli (GPa) = 103.30845 65.71970 59.35508
#
# Poissons Ratio (x) = 0.08532 0.29985
# Poissons Ratio (y) = 0.13411 0.17525
# Poissons Ratio (z) = 0.52189 0.19404
#
# Static dielectric constant tensor:
#      x y z
#    x 3.787380 0.000000 0.000000 
#    y 0.000000 3.403630 0.000000 
#    z 0.000000 0.000000 3.158400 
# 
# 
# High freq. dielectric constant tensor:
#      x y z
#    x 1.720370 0.000000 0.000000 
#    y 0.000000 1.703210 0.000000 
#    z 0.000000 0.000000 1.689630 
# 
# From -- ./inp_files/44672.got.cif
#   From: 2010.03.12/outbox.cif.g09.slc.cpg/sg65_23_cif.got.tgz:44672.got - 2010.04.10 20:52:16.
