data_PCOD8269486
_publ_section_title
;
Structure prediction by ZEFSAII (Michael W. Deem and Ramdas Pophale) SiO2 
 PCOD8269486
Probable space group: C M M M
;
_chemical_formula_sum "Si O2"
_cell_formula_units_Z 64
_cell_length_a 14.943979
_cell_length_b 8.727887
_cell_length_c 24.261103
_cell_angle_alpha 90.000000
_cell_angle_beta 90.000000
_cell_angle_gamma 90.000000
_cell_volume 3164.360138
_symmetry_space_group_name_H-M "C M M M"
_symmetry_group_IT_number 65
_symmetry_cell_setting 'orthorhombic'
loop_
_space_group_symop_operation_xyz
x,y,z
-x,-y,z
x,-y,-z
-x,y,-z
-x,-y,-z
x,y,-z
-x,y,z
x,-y,z
1/2+x,1/2+y,z
1/2-x,1/2-y,z
1/2+x,1/2-y,-z
1/2-x,1/2+y,-z
1/2-x,1/2-y,-z
1/2+x,1/2+y,-z
1/2-x,1/2+y,z
1/2+x,1/2-y,z
loop_
_atom_site_type_symbol
_atom_site_label
_atom_site_fract_x
_atom_site_fract_y
_atom_site_fract_z
Si Si1 0.500000 0.818172 0.792637
Si Si2 0.106597 0.827093 0.500000
Si Si3 0.841988 0.819527 0.723313
Si Si4 0.650262 0.181333 0.000000
Si Si5 0.606311 0.173751 0.388461
Si Si6 0.000000 0.681746 0.083053
O O1 0.585407 0.757563 0.761402
O O2 0.500000 0.754027 0.854935
O O3 0.500000 0.000000 0.790989
O O4 0.142818 0.738554 0.446322
O O5 0.000000 0.827044 0.500000
O O6 0.143588 0.000000 0.500000
O O7 0.750000 0.750000 0.745058
O O8 0.854902 0.779652 0.659314
O O9 0.844807 0.000000 0.730920
O O10 0.750000 0.250000 0.000000
O O11 0.591507 0.236992 0.947179
O O12 0.661768 0.000000 0.000000
O O13 0.500000 0.180400 0.386463
O O14 0.640480 0.000000 0.380602
O O15 0.000000 0.500000 0.082057
#
# Coordination Sequence:
#
# PCOD8269486 Si02
#       6
#     8   8  16   8  16   8
#     4  11  22  41  64  89 121 160 203 252 301 352
#     4   9  17  29  50  81 114 148 191 238 292 360
#     4  12  25  41  61  86 117 156 201 250 304 363
#     4   9  17  35  60  90 124 163 201 241 290 342
#     4  10  19  34  57  83 114 150 192 242 300 363
#     4   8  18  36  60  86 121 163 201 238 291 353
#
# _framework density 20.225258
#
# number of rings (size 3 to 8) (size 9 to 14) (size 15 to 20)
#    0.000    1.875    1.250    4.500    0.000    3.500 
#    0.000    6.875    0.000    0.000    0.000    0.000 
#    0.000    0.000    0.000    0.000    0.000    0.000 
#
# Total GULP energy -396807.691707 kJ/mol
# GULP energy per Si atom -12400.240366 kJ/mol
# Density = 2.017922 g / cm^3
# Si number density = 20.225258 Si / 1000 Ang^3
#
#
#
# Elastic Constant Matrix: (Units=GPa)
#
#
# Indices 1 2 3 4 5 6 
#
# 1 135.1017 41.1782 71.7095 0.0000 0.0000 0.0000
# 2 41.1782 109.7712 39.4403 0.0000 0.0000 0.0000
# 3 71.7095 39.4403 162.2241 0.0000 0.0000 0.0000
# 4 0.0000 0.0000 0.0000 15.5416 0.0000 0.0000
# 5 0.0000 0.0000 0.0000 0.0000 93.5278 0.0000
# 6 0.0000 0.0000 0.0000 0.0000 0.0000 32.6162
#
#
#
# Elastic Compliance Matrix: (Units=1/GPa)
#
#
# Indices 1 2 3 4 5 6 
#
# 1 0.010227 -0.002424 -0.003932 0.000000 0.000000 0.000000
# 2 -0.002424 0.010556 -0.001495 0.000000 0.000000 0.000000
# 3 -0.003932 -0.001495 0.008266 0.000000 0.000000 0.000000
# 4 0.000000 0.000000 0.000000 0.064343 0.000000 0.000000
# 5 0.000000 0.000000 0.000000 0.000000 0.010692 0.000000
# 6 0.000000 0.000000 0.000000 0.000000 0.000000 0.030660
#
#
# Mechanical properties :
#
#
# Convention : Reuss Voigt Hill
#
# Bulk Modulus (GPa) = 74.91583 79.08365 76.99974
# Shear Modulus (GPa) = 32.27989 45.32172 38.80080
#
# Velocity S-wave (km/s) = 3.99935 4.73889 4.38474
# Velocity P-wave (km/s) = 7.64510 8.31439 7.98676
#
# Compressibility (1/GPa) = 0.01334831
#
# Stress axis : x y z
#
# Youngs Moduli (GPa) = 97.77575 94.73017 120.98179
#
# Poissons Ratio (x) = 0.22963 0.47566
# Poissons Ratio (y) = 0.23701 0.18086
# Poissons Ratio (z) = 0.38442 0.14162
#
# Static dielectric constant tensor:
#      x y z
#    x 3.648970 0.000000 0.000000 
#    y 0.000000 3.660600 0.000000 
#    z 0.000000 0.000000 3.981660 
# 
# 
# High freq. dielectric constant tensor:
#      x y z
#    x 1.791400 0.000000 0.000000 
#    y 0.000000 1.787100 0.000000 
#    z 0.000000 0.000000 1.791330 
# 
# From -- ./inp_files/69583.got.cif
#   From: 2010.03.12/outbox.cif.g09.slc.cpg/sg65_35_cif.got.tgz:69583.got - 2010.04.10 20:52:16.
