data_PCOD8269589
_publ_section_title
;
Structure prediction by ZEFSAII (Michael W. Deem and Ramdas Pophale) SiO2 
 PCOD8269589
Probable space group: C M M M
;
_chemical_formula_sum "Si O2"
_cell_formula_units_Z 104
_cell_length_a 8.966274
_cell_length_b 28.213288
_cell_length_c 22.720796
_cell_angle_alpha 90.000000
_cell_angle_beta 90.000000
_cell_angle_gamma 90.000000
_cell_volume 5747.635928
_symmetry_space_group_name_H-M "C M M M"
_symmetry_group_IT_number 65
_symmetry_cell_setting 'orthorhombic'
loop_
_space_group_symop_operation_xyz
x,y,z
-x,-y,z
x,-y,-z
-x,y,-z
-x,-y,-z
x,y,-z
-x,y,z
x,-y,z
1/2+x,1/2+y,z
1/2-x,1/2-y,z
1/2+x,1/2-y,-z
1/2-x,1/2+y,-z
1/2-x,1/2-y,-z
1/2+x,1/2+y,-z
1/2-x,1/2+y,z
1/2+x,1/2-y,z
loop_
_atom_site_type_symbol
_atom_site_label
_atom_site_fract_x
_atom_site_fract_y
_atom_site_fract_z
Si Si1 0.672048 0.556061 0.000000
Si Si2 0.176131 0.895361 0.670913
Si Si3 0.176274 0.201584 0.859762
Si Si4 0.825594 0.797569 0.276342
Si Si5 0.673462 0.053935 0.567530
Si Si6 0.176912 0.607974 0.106932
Si Si7 0.828572 0.445633 0.775366
O O1 0.754649 0.575214 0.942854
O O2 0.686584 0.500000 0.000000
O O3 0.500000 0.572327 0.000000
O O4 0.233521 0.842515 0.686631
O O5 0.234812 0.909439 0.606856
O O6 0.231878 0.932752 0.718830
O O7 0.000000 0.896739 0.670902
O O8 0.250000 0.250000 0.882787
O O9 0.217926 0.193880 0.791476
O O10 0.249836 0.159725 0.897502
O O11 0.000000 0.202865 0.870409
O O12 0.750000 0.750000 0.301192
O O13 0.000000 0.790699 0.283675
O O14 0.706529 0.066797 0.500000
O O15 0.500000 0.059536 0.582055
O O16 0.723856 0.000000 0.580719
O O17 0.221914 0.585492 0.169333
O O18 0.000000 0.611392 0.098634
O O19 0.800087 0.500000 0.791966
O O20 0.000000 0.436203 0.759263
#
# Coordination Sequence:
#
# PCOD8269589 Si02
#       7
#     8  16  16  16  16  16  16
#     4  11  25  43  62  83 110 149 191 231 279 333
#     4  11  21  33  51  81 113 140 175 224 277 324
#     4  10  19  35  57  83 115 147 183 225 275 333
#     4   9  19  33  51  77 110 143 178 219 268 323
#     4   9  19  36  55  75 104 145 189 227 265 318
#     4  11  22  38  60  84 111 146 187 231 277 327
#     4  10  21  35  52  77 109 144 181 221 267 321
#
# _framework density 18.094394999999999
#
# number of rings (size 3 to 8) (size 9 to 14) (size 15 to 20)
#    0.000    1.923    1.538    3.000    0.000    6.462 
#    0.000    1.154    0.000    0.462    0.000    0.000 
#    0.000    0.000    0.000    0.000    0.000    0.000 
#
# Total GULP energy -645001.481085 kJ/mol
# GULP energy per Si atom -12403.874636 kJ/mol
# Density = 1.805321 g / cm^3
# Si number density = 18.094395 Si / 1000 Ang^3
#
#
#
# Elastic Constant Matrix: (Units=GPa)
#
#
# Indices 1 2 3 4 5 6 
#
# 1 76.5726 46.2783 38.0124 0.0000 0.0000 0.0000
# 2 46.2783 111.7175 38.0324 0.0000 0.0000 0.0000
# 3 38.0124 38.0324 75.5012 0.0000 0.0000 0.0000
# 4 0.0000 0.0000 0.0000 29.9736 0.0000 0.0000
# 5 0.0000 0.0000 0.0000 0.0000 30.1100 0.0000
# 6 0.0000 0.0000 0.0000 0.0000 0.0000 34.1066
#
#
#
# Elastic Compliance Matrix: (Units=1/GPa)
#
#
# Indices 1 2 3 4 5 6 
#
# 1 0.020209 -0.005924 -0.007191 0.000000 0.000000 0.000000
# 2 -0.005924 0.012540 -0.003335 0.000000 0.000000 0.000000
# 3 -0.007191 -0.003335 0.018545 0.000000 0.000000 0.000000
# 4 0.000000 0.000000 0.000000 0.033363 0.000000 0.000000
# 5 0.000000 0.000000 0.000000 0.000000 0.033212 0.000000
# 6 0.000000 0.000000 0.000000 0.000000 0.000000 0.029320
#
#
# Mechanical properties :
#
#
# Convention : Reuss Voigt Hill
#
# Bulk Modulus (GPa) = 54.35844 56.49308 55.42576
# Shear Modulus (GPa) = 26.85022 28.26925 27.55974
#
# Velocity S-wave (km/s) = 3.85632 3.95691 3.90694
# Velocity P-wave (km/s) = 7.06647 7.22255 7.14494
#
# Compressibility (1/GPa) = 0.01839641
#
# Stress axis : x y z
#
# Youngs Moduli (GPa) = 49.48245 79.74396 53.92325
#
# Poissons Ratio (x) = 0.47237 0.38775
# Poissons Ratio (y) = 0.29311 0.17981
# Poissons Ratio (z) = 0.35582 0.26591
#
# Static dielectric constant tensor:
#      x y z
#    x 3.345540 0.000000 0.000000 
#    y 0.000000 3.479780 0.000000 
#    z 0.000000 0.000000 3.284210 
# 
# 
# High freq. dielectric constant tensor:
#      x y z
#    x 1.705890 0.000000 0.000000 
#    y 0.000000 1.709410 0.000000 
#    z 0.000000 0.000000 1.683740 
# 
# From -- ./inp_files/68242.got.cif
#   From: 2010.03.12/outbox.cif.g09.slc.cpg/sg65_35_cif.got.tgz:68242.got - 2010.04.10 20:52:16.
