data_PCOD8269672
_publ_section_title
;
Structure prediction by ZEFSAII (Michael W. Deem and Ramdas Pophale) SiO2 
 PCOD8269672
Probable space group: C M M M
;
_chemical_formula_sum "Si O2"
_cell_formula_units_Z 52
_cell_length_a 10.170442
_cell_length_b 23.217432
_cell_length_c 11.346037
_cell_angle_alpha 90.000000
_cell_angle_beta 90.000000
_cell_angle_gamma 90.000000
_cell_volume 2679.157253
_symmetry_space_group_name_H-M "C M M M"
_symmetry_group_IT_number 65
_symmetry_cell_setting 'orthorhombic'
loop_
_space_group_symop_operation_xyz
x,y,z
-x,-y,z
x,-y,-z
-x,y,-z
-x,-y,-z
x,y,-z
-x,y,z
x,-y,z
1/2+x,1/2+y,z
1/2-x,1/2-y,z
1/2+x,1/2-y,-z
1/2-x,1/2+y,-z
1/2-x,1/2-y,-z
1/2+x,1/2+y,-z
1/2-x,1/2+y,z
1/2+x,1/2-y,z
loop_
_atom_site_type_symbol
_atom_site_label
_atom_site_fract_x
_atom_site_fract_y
_atom_site_fract_z
Si Si1 0.500000 0.308989 0.858457
Si Si2 0.000000 0.678601 0.137307
Si Si3 0.750912 0.500000 0.500000
Si Si4 0.151288 0.378847 0.500000
Si Si5 0.246831 0.125300 0.755264
Si Si6 0.649414 0.500000 0.253169
O O1 0.500000 0.243383 0.812445
O O2 0.373462 0.338139 0.802614
O O3 0.500000 0.315173 0.000000
O O4 0.125006 0.642751 0.175224
O O5 0.000000 0.685155 0.000000
O O6 0.852767 0.552368 0.500000
O O7 0.648184 0.500000 0.393762
O O8 0.231043 0.359576 0.616818
O O9 0.000000 0.355857 0.500000
O O10 0.223758 0.058021 0.787073
O O11 0.500000 0.500000 0.205316
#
# Coordination Sequence:
#
# PCOD8269672 Si02
#       6
#     8   8   4   8  16   8
#     4  11  24  44  66  89 120 166 220 265 298 358
#     4  11  24  44  66  87 118 166 222 263 298 362
#     4   8  18  28  60  86 120 170 208 230 292 370
#     4  10  19  36  59  94 133 160 197 254 308 371
#     4  11  22  40  66  94 127 164 205 251 317 370
#     4  10  19  36  59  93 129 158 195 252 311 375
#
# _framework density 19.409089000000002
#
# number of rings (size 3 to 8) (size 9 to 14) (size 15 to 20)
#    0.000    1.538    3.077    2.308    0.000    3.692 
#    0.000    9.231    0.000    0.000    0.000    0.000 
#    0.000    0.000    0.000    0.000    0.000    0.000 
#
# Total GULP energy -322294.722520 kJ/mol
# GULP energy per Si atom -12395.950866 kJ/mol
# Density = 1.936491 g / cm^3
# Si number density = 19.409089 Si / 1000 Ang^3
#
#
#
# Elastic Constant Matrix: (Units=GPa)
#
#
# Indices 1 2 3 4 5 6 
#
# 1 175.5506 81.3362 46.2557 0.0000 0.0000 0.0000
# 2 81.3362 155.9186 44.7491 0.0000 0.0000 0.0000
# 3 46.2557 44.7491 72.9694 0.0000 0.0000 0.0000
# 4 0.0000 0.0000 0.0000 33.7867 0.0000 0.0000
# 5 0.0000 0.0000 0.0000 0.0000 35.4526 0.0000
# 6 0.0000 0.0000 0.0000 0.0000 0.0000 -458.2678
#
#
#
# Elastic Compliance Matrix: (Units=1/GPa)
#
#
# Indices 1 2 3 4 5 6 
#
# 1 0.008039 -0.003315 -0.003063 0.000000 0.000000 0.000000
# 2 -0.003315 0.009150 -0.003510 0.000000 0.000000 0.000000
# 3 -0.003063 -0.003510 0.017799 0.000000 0.000000 0.000000
# 4 0.000000 0.000000 0.000000 0.029597 0.000000 0.000000
# 5 0.000000 0.000000 0.000000 0.000000 0.028207 0.000000
# 6 0.000000 0.000000 0.000000 0.000000 0.000000 -0.002182
#
#
# Mechanical properties :
#
#
# Convention : Reuss Voigt Hill
#
# Bulk Modulus (GPa) = 65.73822 83.23561 74.48692
# Shear Modulus (GPa) = 43.30594 -62.33254 -9.51330
#
# Velocity S-wave (km/s) = 4.72870 -5.67317 -2.21633
# Velocity P-wave (km/s) = 7.98483 0.25461 5.64900
#
# Compressibility (1/GPa) = 0.01521185
#
# Stress axis : x y z
#
# Youngs Moduli (GPa) = 124.38996 109.28831 56.18274
#
# Poissons Ratio (x) = 0.36224 0.17211
# Poissons Ratio (y) = 0.41229 0.19722
# Poissons Ratio (z) = 0.38106 0.38364
#
# Static dielectric constant tensor:
#      x y z
#    x 3.506020 0.000000 0.000000 
#    y 0.000000 3.784280 0.000000 
#    z 0.000000 0.000000 3.656280 
# 
# 
# High freq. dielectric constant tensor:
#      x y z
#    x 1.766310 0.000000 0.000000 
#    y 0.000000 1.759710 0.000000 
#    z 0.000000 0.000000 1.753430 
# 
# From -- ./inp_files/20397.got.cif
#   From: 2010.03.12/outbox.cif.g09.slc.cpg/sg65_11_cif.got.tgz:20397.got - 2010.04.10 20:52:16.
