data_PCOD8269114
_publ_section_title
;
Structure prediction by ZEFSAII (Michael W. Deem and Ramdas Pophale) SiO2 
 PCOD8269114
Probable space group: C M M M
;
_chemical_formula_sum "Si O2"
_cell_formula_units_Z 120
_cell_length_a 25.509891
_cell_length_b 18.747099
_cell_length_c 13.335896
_cell_angle_alpha 90.000000
_cell_angle_beta 90.000000
_cell_angle_gamma 90.000000
_cell_volume 6377.711588
_symmetry_space_group_name_H-M "C M M M"
_symmetry_group_IT_number 65
_symmetry_cell_setting 'orthorhombic'
loop_
_space_group_symop_operation_xyz
x,y,z
-x,-y,z
x,-y,-z
-x,y,-z
-x,-y,-z
x,y,-z
-x,y,z
x,-y,z
1/2+x,1/2+y,z
1/2-x,1/2-y,z
1/2+x,1/2-y,-z
1/2-x,1/2+y,-z
1/2-x,1/2-y,-z
1/2+x,1/2+y,-z
1/2-x,1/2+y,z
1/2+x,1/2-y,z
loop_
_atom_site_type_symbol
_atom_site_label
_atom_site_fract_x
_atom_site_fract_y
_atom_site_fract_z
Si Si1 0.500000 0.584753 0.890809
Si Si2 0.869954 0.280688 0.885903
Si Si3 0.347141 0.916312 0.381467
Si Si4 0.679936 0.628754 0.114667
Si Si5 0.225215 0.674790 0.755387
Si Si6 0.560767 0.167843 0.715504
Si Si7 0.059849 0.184503 0.613889
Si Si8 0.094717 0.921861 0.762841
O O1 0.500000 0.500000 0.900618
O O2 0.449506 0.612405 0.833218
O O3 0.500000 0.620902 0.000000
O O4 0.858550 0.196800 0.881484
O O5 0.820302 0.317537 0.836064
O O6 0.921975 0.304669 0.825746
O O7 0.876312 0.307134 0.000000
O O8 0.350952 0.900959 0.500000
O O9 0.297649 0.871124 0.337634
O O10 0.401851 0.894601 0.327223
O O11 0.337643 0.000000 0.360417
O O12 0.731531 0.633695 0.180970
O O13 0.646652 0.567879 0.170190
O O14 0.694383 0.609034 0.000000
O O15 0.250000 0.750000 0.716518
O O16 0.500000 0.142031 0.719485
O O17 0.568194 0.233408 0.640118
O O18 0.075324 0.174527 0.500000
O O19 0.100698 0.133319 0.671513
O O20 0.000000 0.160534 0.635321
O O21 0.078940 0.000000 0.721335
#
# Coordination Sequence:
#
# PCOD8269114 Si02
#       8
#     8  16  16  16  16  16  16  16
#     4   9  18  32  47  65  99 143 179 218 274 336
#     4   9  17  32  56  85 115 147 186 232 281 336
#     4  10  22  40  62  88 117 151 191 235 287 344
#     4  10  19  33  54  81 112 147 187 235 287 340
#     4   9  19  36  59  86 114 148 188 236 282 336
#     4  10  20  36  58  87 119 148 185 233 284 339
#     4  10  20  35  54  74 101 141 187 233 277 325
#     4  11  21  33  48  73 107 143 186 232 280 337
#
# _framework density 18.815525000000001
#
# number of rings (size 3 to 8) (size 9 to 14) (size 15 to 20)
#    0.000    2.200    2.000    1.200    0.000    4.800 
#    0.000    2.000    0.000    9.600    0.000    3.733 
#    0.000    0.000    0.000    0.000    0.000    0.000 
#
# Total GULP energy -743649.786150 kJ/mol
# GULP energy per Si atom -12394.163102 kJ/mol
# Density = 1.877270 g / cm^3
# Si number density = 18.815525 Si / 1000 Ang^3
#
#
#
# Elastic Constant Matrix: (Units=GPa)
#
#
# Indices 1 2 3 4 5 6 
#
# 1 104.9178 34.2420 46.5141 0.0000 0.0000 0.0000
# 2 34.2420 68.1956 42.2814 0.0000 0.0000 0.0000
# 3 46.5141 42.2814 124.0066 0.0000 0.0000 0.0000
# 4 0.0000 0.0000 0.0000 22.4915 0.0000 0.0000
# 5 0.0000 0.0000 0.0000 0.0000 23.1224 0.0000
# 6 0.0000 0.0000 0.0000 0.0000 0.0000 17.4789
#
#
#
# Elastic Compliance Matrix: (Units=1/GPa)
#
#
# Indices 1 2 3 4 5 6 
#
# 1 0.012317 -0.004210 -0.003185 0.000000 0.000000 0.000000
# 2 -0.004210 0.020034 -0.005251 0.000000 0.000000 0.000000
# 3 -0.003185 -0.005251 0.011049 0.000000 0.000000 0.000000
# 4 0.000000 0.000000 0.000000 0.044461 0.000000 0.000000
# 5 0.000000 0.000000 0.000000 0.000000 0.043248 0.000000
# 6 0.000000 0.000000 0.000000 0.000000 0.000000 0.057212
#
#
# Mechanical properties :
#
#
# Convention : Reuss Voigt Hill
#
# Bulk Modulus (GPa) = 55.22582 60.35500 57.79041
# Shear Modulus (GPa) = 22.76353 24.22406 23.49380
#
# Velocity S-wave (km/s) = 3.48203 3.59200 3.53744
# Velocity P-wave (km/s) = 6.75137 7.02497 6.88952
#
# Compressibility (1/GPa) = 0.01810747
#
# Stress axis : x y z
#
# Youngs Moduli (GPa) = 81.18724 49.91604 90.50466
#
# Poissons Ratio (x) = 0.21016 0.28822
# Poissons Ratio (y) = 0.34182 0.47528
# Poissons Ratio (z) = 0.25855 0.26213
#
# Static dielectric constant tensor:
#      x y z
#    x 3.533610 0.000000 0.000000 
#    y 0.000000 3.246700 0.000000 
#    z 0.000000 0.000000 3.539060 
# 
# 
# High freq. dielectric constant tensor:
#      x y z
#    x 1.728640 0.000000 0.000000 
#    y 0.000000 1.710590 0.000000 
#    z 0.000000 0.000000 1.733730 
# 
# From -- ./inp_files/32837.got.cif
#   From: 2010.03.12/outbox.cif.g09.slc.cpg/sg65_17_cif.got.tgz:32837.got - 2010.04.10 20:52:16.
