data_PCOD8269012
_publ_section_title
;
Structure prediction by ZEFSAII (Michael W. Deem and Ramdas Pophale) SiO2 
 PCOD8269012
Probable space group: C M M M
;
_chemical_formula_sum "Si O2"
_cell_formula_units_Z 80
_cell_length_a 28.002806
_cell_length_b 10.309696
_cell_length_c 14.601450
_cell_angle_alpha 90.000000
_cell_angle_beta 90.000000
_cell_angle_gamma 90.000000
_cell_volume 4215.444704
_symmetry_space_group_name_H-M "C M M M"
_symmetry_group_IT_number 65
_symmetry_cell_setting 'orthorhombic'
loop_
_space_group_symop_operation_xyz
x,y,z
-x,-y,z
x,-y,-z
-x,y,-z
-x,-y,-z
x,y,-z
-x,y,z
x,-y,z
1/2+x,1/2+y,z
1/2-x,1/2-y,z
1/2+x,1/2-y,-z
1/2-x,1/2+y,-z
1/2-x,1/2-y,-z
1/2+x,1/2+y,-z
1/2-x,1/2+y,z
1/2+x,1/2-y,z
loop_
_atom_site_type_symbol
_atom_site_label
_atom_site_fract_x
_atom_site_fract_y
_atom_site_fract_z
Si Si1 0.701703 0.000000 0.109085
Si Si2 0.713319 0.855224 0.391310
Si Si3 0.606972 0.846637 0.600226
Si Si4 0.860068 0.740857 0.891284
Si Si5 0.945730 0.653639 0.222283
Si Si6 0.690831 0.500000 0.891091
O O1 0.674092 0.126405 0.145901
O O2 0.755374 0.000000 0.148527
O O3 0.702629 0.000000 0.000000
O O4 0.719044 0.863377 0.500000
O O5 0.750000 0.750000 0.349196
O O6 0.660014 0.805714 0.367097
O O7 0.722809 0.000000 0.350000
O O8 0.594502 0.786010 0.500000
O O9 0.568939 0.799842 0.675598
O O10 0.605927 0.000000 0.590574
O O11 0.913161 0.725830 0.851816
O O12 0.837343 0.874344 0.855740
O O13 0.864318 0.736639 0.000000
O O14 0.939162 0.500000 0.211402
O O15 0.000000 0.696171 0.204431
O O16 0.693559 0.500000 0.000000
#
# Coordination Sequence:
#
# PCOD8269012 Si02
#       6
#     8  16  16  16  16   8
#     4   9  16  30  53  79 108 141 171 207 253 301
#     4   8  13  23  42  67  94 124 154 189 238 294
#     4   8  15  29  49  71  98 130 165 211 262 306
#     4  10  19  33  53  79 109 139 172 210 253 308
#     4  10  20  33  51  74 101 134 175 223 267 307
#     4   9  18  32  53  79 108 141 175 207 249 307
#
# _framework density 18.977830999999998
#
# number of rings (size 3 to 8) (size 9 to 14) (size 15 to 20)
#    0.000    3.000    1.000    1.800    0.000    3.200 
#    0.000    5.500    2.200    1.800    0.000    0.000 
#    0.000    1.600    0.000    0.000    0.000    0.000 
#
# Total GULP energy -495868.348663 kJ/mol
# GULP energy per Si atom -12396.708717 kJ/mol
# Density = 1.893464 g / cm^3
# Si number density = 18.977831 Si / 1000 Ang^3
#
#
#
# Elastic Constant Matrix: (Units=GPa)
#
#
# Indices 1 2 3 4 5 6 
#
# 1 170.6444 70.7251 42.4287 0.0000 0.0000 0.0000
# 2 70.7251 108.0195 24.3355 0.0000 0.0000 0.0000
# 3 42.4287 24.3355 37.5761 0.0000 0.0000 0.0000
# 4 0.0000 0.0000 0.0000 11.4347 0.0000 0.0000
# 5 0.0000 0.0000 0.0000 0.0000 17.4665 0.0000
# 6 0.0000 0.0000 0.0000 0.0000 0.0000 20.5249
#
#
#
# Elastic Compliance Matrix: (Units=1/GPa)
#
#
# Indices 1 2 3 4 5 6 
#
# 1 0.009760 -0.004575 -0.008057 0.000000 0.000000 0.000000
# 2 -0.004575 0.012984 -0.003243 0.000000 0.000000 0.000000
# 3 -0.008057 -0.003243 0.037810 0.000000 0.000000 0.000000
# 4 0.000000 0.000000 0.000000 0.087453 0.000000 0.000000
# 5 0.000000 0.000000 0.000000 0.000000 0.057252 0.000000
# 6 0.000000 0.000000 0.000000 0.000000 0.000000 0.048721
#
#
# Mechanical properties :
#
#
# Convention : Reuss Voigt Hill
#
# Bulk Modulus (GPa) = 34.71755 65.69095 50.20425
# Shear Modulus (GPa) = 16.93016 21.80194 19.36605
#
# Velocity S-wave (km/s) = 2.99005 3.39309 3.19792
# Velocity P-wave (km/s) = 5.50036 7.07393 6.33618
#
# Compressibility (1/GPa) = 0.02880388
#
# Stress axis : x y z
#
# Youngs Moduli (GPa) = 102.46420 77.02074 26.44769
#
# Poissons Ratio (x) = 0.35236 0.21309
# Poissons Ratio (y) = 0.46876 0.08577
# Poissons Ratio (z) = 0.82556 0.24977
#
# Static dielectric constant tensor:
#      x y z
#    x 3.532370 0.000000 0.000000 
#    y 0.000000 3.398230 0.000000 
#    z 0.000000 0.000000 3.577850 
# 
# 
# High freq. dielectric constant tensor:
#      x y z
#    x 1.733420 0.000000 0.000000 
#    y 0.000000 1.700770 0.000000 
#    z 0.000000 0.000000 1.727730 
# 
# From -- ./inp_files/46702.got.cif
#   From: 2010.03.12/outbox.cif.g09.slc.cpg/sg65_24_cif.got.tgz:46702.got - 2010.04.10 20:52:16.
