data_PCOD8269461
_publ_section_title
;
Structure prediction by ZEFSAII (Michael W. Deem and Ramdas Pophale) SiO2 
 PCOD8269461
Probable space group: C M M M
;
_chemical_formula_sum "Si O2"
_cell_formula_units_Z 72
_cell_length_a 18.580650
_cell_length_b 14.665631
_cell_length_c 15.236032
_cell_angle_alpha 90.000000
_cell_angle_beta 90.000000
_cell_angle_gamma 90.000000
_cell_volume 4151.772351
_symmetry_space_group_name_H-M "C M M M"
_symmetry_group_IT_number 65
_symmetry_cell_setting 'orthorhombic'
loop_
_space_group_symop_operation_xyz
x,y,z
-x,-y,z
x,-y,-z
-x,y,-z
-x,-y,-z
x,y,-z
-x,y,z
x,-y,z
1/2+x,1/2+y,z
1/2-x,1/2-y,z
1/2+x,1/2-y,-z
1/2-x,1/2+y,-z
1/2-x,1/2-y,-z
1/2+x,1/2+y,-z
1/2-x,1/2+y,z
1/2+x,1/2-y,z
loop_
_atom_site_type_symbol
_atom_site_label
_atom_site_fract_x
_atom_site_fract_y
_atom_site_fract_z
Si Si1 0.172639 0.296282 0.764648
Si Si2 0.847595 0.000000 0.099452
Si Si3 0.842305 0.500000 0.593893
Si Si4 0.919239 0.190341 0.899158
Si Si5 0.083824 0.688244 0.401477
Si Si6 0.215583 0.500000 0.230239
O O1 0.250000 0.250000 0.756984
O O2 0.133171 0.256380 0.848164
O O3 0.131433 0.265700 0.675251
O O4 0.173422 0.404912 0.786559
O O5 0.897805 0.914001 0.114662
O O6 0.787306 0.000000 0.174120
O O7 0.814457 0.000000 0.000000
O O8 0.802633 0.500000 0.500000
O O9 0.897327 0.582566 0.603498
O O10 0.775942 0.500000 0.663306
O O11 0.000000 0.202809 0.864004
O O12 0.913191 0.218818 0.000000
O O13 0.102045 0.726419 0.500000
O O14 0.000000 0.703316 0.380607
#
# Coordination Sequence:
#
# PCOD8269461 Si02
#       6
#    16   8   8  16  16   8
#     4  11  21  34  54  77 110 140 174 219 266 319
#     4  10  19  34  57  79 103 136 179 224 258 300
#     4   8  15  28  49  73 103 138 173 212 254 302
#     4  10  21  37  57  80 105 138 180 221 262 309
#     4   9  17  30  49  74 103 137 177 216 256 305
#     4  10  20  34  50  81 110 135 176 214 264 320
#
# _framework density 17.341991
#
# number of rings (size 3 to 8) (size 9 to 14) (size 15 to 20)
#    0.000    2.222    2.222    1.333    0.000    4.444 
#    0.000    1.667    0.000    1.333    0.000    0.000 
#    0.000    6.222    0.000    0.000    0.000    0.000 
#
# Total GULP energy -445988.971883 kJ/mol
# GULP energy per Si atom -12388.582552 kJ/mol
# Density = 1.730252 g / cm^3
# Si number density = 17.341991 Si / 1000 Ang^3
#
#
#
# Elastic Constant Matrix: (Units=GPa)
#
#
# Indices 1 2 3 4 5 6 
#
# 1 122.0401 31.6697 82.4131 0.0000 0.0000 0.0000
# 2 31.6697 85.2501 44.4268 0.0000 0.0000 0.0000
# 3 82.4131 44.4268 103.4268 0.0000 0.0000 0.0000
# 4 0.0000 0.0000 0.0000 15.9079 0.0000 0.0000
# 5 0.0000 0.0000 0.0000 0.0000 37.8790 0.0000
# 6 0.0000 0.0000 0.0000 0.0000 0.0000 14.2430
#
#
#
# Elastic Compliance Matrix: (Units=1/GPa)
#
#
# Indices 1 2 3 4 5 6 
#
# 1 0.017806 0.001004 -0.014619 0.000000 0.000000 0.000000
# 2 0.001004 0.015170 -0.007316 0.000000 0.000000 0.000000
# 3 -0.014619 -0.007316 0.024461 0.000000 0.000000 0.000000
# 4 0.000000 0.000000 0.000000 0.062862 0.000000 0.000000
# 5 0.000000 0.000000 0.000000 0.000000 0.026400 0.000000
# 6 0.000000 0.000000 0.000000 0.000000 0.000000 0.070210
#
#
# Mechanical properties :
#
#
# Convention : Reuss Voigt Hill
#
# Bulk Modulus (GPa) = 64.21386 69.74847 66.98117
# Shear Modulus (GPa) = 18.94208 23.75313 21.34760
#
# Velocity S-wave (km/s) = 3.30853 3.70495 3.51234
# Velocity P-wave (km/s) = 7.19052 7.65564 7.42672
#
# Compressibility (1/GPa) = 0.01557296
#
# Stress axis : x y z
#
# Youngs Moduli (GPa) = 56.16093 65.91970 40.88221
#
# Poissons Ratio (x) = -0.06618 0.59768
# Poissons Ratio (y) = -0.05638 0.29910
# Poissons Ratio (z) = 0.82104 0.48228
#
# Static dielectric constant tensor:
#      x y z
#    x 3.137130 0.000000 0.000000 
#    y 0.000000 3.222100 0.000000 
#    z 0.000000 0.000000 3.632450 
# 
# 
# High freq. dielectric constant tensor:
#      x y z
#    x 1.659320 0.000000 0.000000 
#    y 0.000000 1.659160 0.000000 
#    z 0.000000 0.000000 1.684540 
# 
# From -- ./inp_files/39862.got.cif
#   From: 2010.03.12/outbox.cif.g09.slc.cpg/sg65_20_cif.got.tgz:39862.got - 2010.04.10 20:52:16.
