data_PCOD8269236
_publ_section_title
;
Structure prediction by ZEFSAII (Michael W. Deem and Ramdas Pophale) SiO2 
 PCOD8269236
Probable space group: C M M M
;
_chemical_formula_sum "Si O2"
_cell_formula_units_Z 104
_cell_length_a 7.964871
_cell_length_b 28.456639
_cell_length_c 24.382636
_cell_angle_alpha 90.000000
_cell_angle_beta 90.000000
_cell_angle_gamma 90.000000
_cell_volume 5526.408782
_symmetry_space_group_name_H-M "C M M M"
_symmetry_group_IT_number 65
_symmetry_cell_setting 'orthorhombic'
loop_
_space_group_symop_operation_xyz
x,y,z
-x,-y,z
x,-y,-z
-x,y,-z
-x,-y,-z
x,y,-z
-x,y,z
x,-y,z
1/2+x,1/2+y,z
1/2-x,1/2-y,z
1/2+x,1/2-y,-z
1/2-x,1/2+y,-z
1/2-x,1/2-y,-z
1/2+x,1/2+y,-z
1/2-x,1/2+y,z
1/2+x,1/2-y,z
loop_
_atom_site_type_symbol
_atom_site_label
_atom_site_fract_x
_atom_site_fract_y
_atom_site_fract_z
Si Si1 0.198523 0.198486 0.666063
Si Si2 0.500000 0.554106 0.435201
Si Si3 0.808398 0.799009 0.788208
Si Si4 0.301878 0.051855 0.736283
Si Si5 0.307429 0.890327 0.837100
Si Si6 0.197638 0.053025 0.938065
Si Si7 0.804658 0.397206 0.625192
O O1 0.250000 0.250000 0.643832
O O2 0.274222 0.192103 0.728079
O O3 0.284346 0.159185 0.627397
O O4 0.000000 0.191420 0.662757
O O5 0.500000 0.500000 0.414297
O O6 0.500000 0.555938 0.500000
O O7 0.672373 0.579825 0.416712
O O8 0.750000 0.750000 0.814755
O O9 0.775893 0.839337 0.832702
O O10 0.000000 0.794402 0.774702
O O11 0.500000 0.047495 0.741822
O O12 0.225854 0.075437 0.791358
O O13 0.251367 0.082856 0.684432
O O14 0.222010 0.000000 0.730375
O O15 0.500000 0.883045 0.823279
O O16 0.286545 0.910742 0.897724
O O17 0.000000 0.056967 0.930645
O O18 0.257442 0.000000 0.924662
O O19 0.250114 0.066245 0.000000
O O20 0.000000 0.409752 0.610020
#
# Coordination Sequence:
#
# PCOD8269236 Si02
#       7
#    16   8  16  16  16  16  16
#     4  10  19  33  56  89 123 157 197 240 293 358
#     4  11  26  46  66  90 122 162 211 257 294 346
#     4  10  20  33  51  76 113 151 186 227 278 339
#     4   9  18  31  49  77 114 150 182 224 283 346
#     4  11  20  31  51  78 110 142 181 228 282 340
#     4   9  19  36  54  72 100 141 188 234 278 330
#     4  11  21  38  63  90 122 160 199 246 302 356
#
# _framework density 18.818732000000001
#
# number of rings (size 3 to 8) (size 9 to 14) (size 15 to 20)
#    0.000    1.923    2.308    2.769    0.000    3.692 
#    1.385    1.538    0.000    0.923    0.000    0.000 
#    0.000    0.000    0.000    0.000    0.000    0.000 
#
# Total GULP energy -644679.866783 kJ/mol
# GULP energy per Si atom -12397.689746 kJ/mol
# Density = 1.877590 g / cm^3
# Si number density = 18.818732 Si / 1000 Ang^3
#
#
#
# Elastic Constant Matrix: (Units=GPa)
#
#
# Indices 1 2 3 4 5 6 
#
# 1 70.0083 30.5810 23.8105 0.0000 0.0000 0.0000
# 2 30.5810 150.4313 47.0432 0.0000 0.0000 0.0000
# 3 23.8105 47.0432 75.4958 0.0000 0.0000 0.0000
# 4 0.0000 0.0000 0.0000 27.3523 0.0000 0.0000
# 5 0.0000 0.0000 0.0000 0.0000 23.7850 0.0000
# 6 0.0000 0.0000 0.0000 0.0000 0.0000 25.9772
#
#
#
# Elastic Compliance Matrix: (Units=1/GPa)
#
#
# Indices 1 2 3 4 5 6 
#
# 1 0.016542 -0.002150 -0.003877 0.000000 0.000000 0.000000
# 2 -0.002150 0.008536 -0.004641 0.000000 0.000000 0.000000
# 3 -0.003877 -0.004641 0.017360 0.000000 0.000000 0.000000
# 4 0.000000 0.000000 0.000000 0.036560 0.000000 0.000000
# 5 0.000000 0.000000 0.000000 0.000000 0.042043 0.000000
# 6 0.000000 0.000000 0.000000 0.000000 0.000000 0.038495
#
#
# Mechanical properties :
#
#
# Convention : Reuss Voigt Hill
#
# Bulk Modulus (GPa) = 47.38957 55.42275 51.40616
# Shear Modulus (GPa) = 26.60883 28.38961 27.49922
#
# Velocity S-wave (km/s) = 3.76434 3.88826 3.82680
# Velocity P-wave (km/s) = 6.64308 7.04790 6.84848
#
# Compressibility (1/GPa) = 0.02110169
#
# Stress axis : x y z
#
# Youngs Moduli (GPa) = 60.45221 117.15143 57.60244
#
# Poissons Ratio (x) = 0.25191 0.22334
# Poissons Ratio (y) = 0.12999 0.26732
# Poissons Ratio (z) = 0.23439 0.54367
#
# Static dielectric constant tensor:
#      x y z
#    x 3.324050 0.000000 0.000000 
#    y 0.000000 3.591360 0.000000 
#    z 0.000000 0.000000 3.186830 
# 
# 
# High freq. dielectric constant tensor:
#      x y z
#    x 1.729460 0.000000 0.000000 
#    y 0.000000 1.739730 0.000000 
#    z 0.000000 0.000000 1.694140 
# 
# From -- ./inp_files/68243.got.cif
#   From: 2010.03.12/outbox.cif.g09.slc.cpg/sg65_35_cif.got.tgz:68243.got - 2010.04.10 20:52:16.
