data_PCOD8269224
_publ_section_title
;
Structure prediction by ZEFSAII (Michael W. Deem and Ramdas Pophale) SiO2 
 PCOD8269224
Probable space group: C M M M
;
_chemical_formula_sum "Si O2"
_cell_formula_units_Z 88
_cell_length_a 9.015781
_cell_length_b 23.336289
_cell_length_c 22.361672
_cell_angle_alpha 90.000000
_cell_angle_beta 90.000000
_cell_angle_gamma 90.000000
_cell_volume 4704.781095
_symmetry_space_group_name_H-M "C M M M"
_symmetry_group_IT_number 65
_symmetry_cell_setting 'orthorhombic'
loop_
_space_group_symop_operation_xyz
x,y,z
-x,-y,z
x,-y,-z
-x,y,-z
-x,-y,-z
x,y,-z
-x,y,z
x,-y,z
1/2+x,1/2+y,z
1/2-x,1/2-y,z
1/2+x,1/2-y,-z
1/2-x,1/2+y,-z
1/2-x,1/2-y,-z
1/2+x,1/2+y,-z
1/2-x,1/2+y,z
1/2+x,1/2-y,z
loop_
_atom_site_type_symbol
_atom_site_label
_atom_site_fract_x
_atom_site_fract_y
_atom_site_fract_z
Si Si1 0.675391 0.000000 0.352816
Si Si2 0.329151 0.878575 0.395814
Si Si3 0.330696 0.808210 0.722819
Si Si4 0.175507 0.188194 0.500000
Si Si5 0.827322 0.808743 0.930495
Si Si6 0.176187 0.500000 0.781404
Si Si7 0.176227 0.619438 0.165294
O O1 0.724160 0.944431 0.390761
O O2 0.500000 0.000000 0.344733
O O3 0.744545 0.000000 0.285807
O O4 0.500000 0.873814 0.417447
O O5 0.308810 0.852447 0.330570
O O6 0.223252 0.846461 0.441604
O O7 0.500000 0.791986 0.732055
O O8 0.250000 0.750000 0.706856
O O9 0.269169 0.837469 0.782812
O O10 0.250000 0.250000 0.500000
O O11 0.000000 0.196514 0.500000
O O12 0.750000 0.750000 0.909601
O O13 0.756158 0.862150 0.895682
O O14 0.000000 0.803530 0.915522
O O15 0.797973 0.820433 0.000000
O O16 0.230324 0.444261 0.817633
O O17 0.000000 0.500000 0.776112
O O18 0.000000 0.621484 0.156790
#
# Coordination Sequence:
#
# PCOD8269224 Si02
#       7
#     8  16  16   8  16   8  16
#     4   9  16  33  62  88 113 146 188 229 270 327
#     4  10  20  37  61  86 112 147 188 228 274 331
#     4  10  20  32  51  80 111 141 178 226 277 328
#     4  12  26  43  60  81 113 150 188 234 283 334
#     4  10  21  37  56  79 110 148 189 233 280 332
#     4   9  16  32  57  85 115 147 184 229 276 323
#     4  10  19  33  56  84 112 145 184 230 279 329
#
# _framework density 18.704377999999998
#
# number of rings (size 3 to 8) (size 9 to 14) (size 15 to 20)
#    0.000    2.000    1.818    2.455    0.000    5.818 
#    0.000    3.182    0.000    3.818    0.000    0.000 
#    0.000    0.000    0.000    0.000    0.000    0.000 
#
# Total GULP energy -545687.237183 kJ/mol
# GULP energy per Si atom -12401.982663 kJ/mol
# Density = 1.866181 g / cm^3
# Si number density = 18.704378 Si / 1000 Ang^3
#
#
#
# Elastic Constant Matrix: (Units=GPa)
#
#
# Indices 1 2 3 4 5 6 
#
# 1 72.7911 50.9679 43.3790 0.0000 0.0000 0.0000
# 2 50.9679 154.5331 50.9954 0.0000 0.0000 0.0000
# 3 43.3790 50.9954 87.8002 0.0000 0.0000 0.0000
# 4 0.0000 0.0000 0.0000 27.0442 0.0000 0.0000
# 5 0.0000 0.0000 0.0000 0.0000 26.7131 0.0000
# 6 0.0000 0.0000 0.0000 0.0000 0.0000 24.9295
#
#
#
# Elastic Compliance Matrix: (Units=1/GPa)
#
#
# Indices 1 2 3 4 5 6 
#
# 1 0.021720 -0.004481 -0.008128 0.000000 0.000000 0.000000
# 2 -0.004481 0.008930 -0.002973 0.000000 0.000000 0.000000
# 3 -0.008128 -0.002973 0.017132 0.000000 0.000000 0.000000
# 4 0.000000 0.000000 0.000000 0.036976 0.000000 0.000000
# 5 0.000000 0.000000 0.000000 0.000000 0.037435 0.000000
# 6 0.000000 0.000000 0.000000 0.000000 0.000000 0.040113
#
#
# Mechanical properties :
#
#
# Convention : Reuss Voigt Hill
#
# Bulk Modulus (GPa) = 60.17774 67.31211 63.74492
# Shear Modulus (GPa) = 25.12447 27.05616 26.09032
#
# Velocity S-wave (km/s) = 3.66900 3.80743 3.73886
# Velocity P-wave (km/s) = 7.08461 7.44273 7.26588
#
# Compressibility (1/GPa) = 0.01661744
#
# Stress axis : x y z
#
# Youngs Moduli (GPa) = 46.04149 111.98113 58.37074
#
# Poissons Ratio (x) = 0.50182 0.47444
# Poissons Ratio (y) = 0.20632 0.17352
# Poissons Ratio (z) = 0.37423 0.33288
#
# Static dielectric constant tensor:
#      x y z
#    x 3.185440 0.000000 0.000000 
#    y 0.000000 3.647240 0.000000 
#    z 0.000000 0.000000 3.448600 
# 
# 
# High freq. dielectric constant tensor:
#      x y z
#    x 1.699180 0.000000 0.000000 
#    y 0.000000 1.736900 0.000000 
#    z 0.000000 0.000000 1.730000 
# 
# From -- ./inp_files/59936.got.cif
#   From: 2010.03.12/outbox.cif.g09.slc.cpg/sg65_30_cif.got.tgz:59936.got - 2010.04.10 20:52:16.
