data_PCOD8269645
_publ_section_title
;
Structure prediction by ZEFSAII (Michael W. Deem and Ramdas Pophale) SiO2 
 PCOD8269645
Probable space group: C M M M
;
_chemical_formula_sum "Si O2"
_cell_formula_units_Z 64
_cell_length_a 28.139797
_cell_length_b 13.948016
_cell_length_c 7.691706
_cell_angle_alpha 90.000000
_cell_angle_beta 90.000000
_cell_angle_gamma 90.000000
_cell_volume 3018.951061
_symmetry_space_group_name_H-M "C M M M"
_symmetry_group_IT_number 65
_symmetry_cell_setting 'orthorhombic'
loop_
_space_group_symop_operation_xyz
x,y,z
-x,-y,z
x,-y,-z
-x,y,-z
-x,-y,-z
x,y,-z
-x,y,z
x,-y,z
1/2+x,1/2+y,z
1/2-x,1/2-y,z
1/2+x,1/2-y,-z
1/2-x,1/2+y,-z
1/2-x,1/2-y,-z
1/2+x,1/2+y,-z
1/2-x,1/2+y,z
1/2+x,1/2-y,z
loop_
_atom_site_type_symbol
_atom_site_label
_atom_site_fract_x
_atom_site_fract_y
_atom_site_fract_z
Si Si1 0.791856 0.114569 0.500000
Si Si2 0.945534 0.228284 0.804674
Si Si3 0.377618 0.109423 0.295375
Si Si4 0.773894 0.613721 0.193829
Si Si5 0.100447 0.113435 0.500000
O O1 0.764968 0.155016 0.671334
O O2 0.845592 0.152683 0.500000
O O3 0.791312 0.000000 0.500000
O O4 0.918327 0.329032 0.795295
O O5 0.924632 0.150306 0.673484
O O6 0.000000 0.248213 0.755349
O O7 0.940877 0.186846 0.000000
O O8 0.383524 0.118540 0.500000
O O9 0.326348 0.151327 0.240667
O O10 0.383477 0.000000 0.232242
O O11 0.774702 0.500000 0.209720
O O12 0.759397 0.647207 0.000000
O O13 0.097821 0.000000 0.500000
#
# Coordination Sequence:
#
# PCOD8269645 Si02
#       5
#     8  16  16  16   8
#     4   9  18  34  56  85 116 152 198 248 301 356
#     4  11  25  44  65  91 123 158 202 255 309 367
#     4  10  19  35  63  95 130 169 203 237 286 357
#     4   9  16  29  53  86 125 164 198 234 283 348
#     4  11  25  45  68  89 117 155 203 265 322 365
#
# _framework density 21.199414999999998
#
# number of rings (size 3 to 8) (size 9 to 14) (size 15 to 20)
#    0.000    2.000    2.500    1.125    0.000    4.500 
#    0.000    8.750    0.000    3.000    0.000    0.000 
#    0.000    0.000    0.000    0.000    0.000    0.000 
#
# Total GULP energy -396868.878644 kJ/mol
# GULP energy per Si atom -12402.152458 kJ/mol
# Density = 2.115116 g / cm^3
# Si number density = 21.199415 Si / 1000 Ang^3
#
#
#
# Elastic Constant Matrix: (Units=GPa)
#
#
# Indices 1 2 3 4 5 6 
#
# 1 191.8334 47.9578 87.7960 0.0000 0.0000 0.0000
# 2 47.9578 64.9507 28.9069 0.0000 0.0000 0.0000
# 3 87.7960 28.9069 159.5069 0.0000 0.0000 0.0000
# 4 0.0000 0.0000 0.0000 10.9751 0.0000 0.0000
# 5 0.0000 0.0000 0.0000 0.0000 60.6414 0.0000
# 6 0.0000 0.0000 0.0000 0.0000 0.0000 33.8053
#
#
#
# Elastic Compliance Matrix: (Units=1/GPa)
#
#
# Indices 1 2 3 4 5 6 
#
# 1 0.007917 -0.004249 -0.003588 0.000000 0.000000 0.000000
# 2 -0.004249 0.019027 -0.001110 0.000000 0.000000 0.000000
# 3 -0.003588 -0.001110 0.008445 0.000000 0.000000 0.000000
# 4 0.000000 0.000000 0.000000 0.091115 0.000000 0.000000
# 5 0.000000 0.000000 0.000000 0.000000 0.016490 0.000000
# 6 0.000000 0.000000 0.000000 0.000000 0.000000 0.029581
#
#
# Mechanical properties :
#
#
# Convention : Reuss Voigt Hill
#
# Bulk Modulus (GPa) = 57.15203 82.84582 69.99893
# Shear Modulus (GPa) = 25.47104 37.85972 31.66538
#
# Velocity S-wave (km/s) = 3.47002 4.23056 3.86902
# Velocity P-wave (km/s) = 6.56297 7.93899 7.28355
#
# Compressibility (1/GPa) = 0.01749719
#
# Stress axis : x y z
#
# Youngs Moduli (GPa) = 126.30942 52.55564 118.41138
#
# Poissons Ratio (x) = 0.22331 0.42482
# Poissons Ratio (y) = 0.53669 0.13138
# Poissons Ratio (z) = 0.45316 0.05831
#
# Static dielectric constant tensor:
#      x y z
#    x 3.965710 0.000000 0.000000 
#    y 0.000000 3.560510 0.000000 
#    z 0.000000 0.000000 4.023960 
# 
# 
# High freq. dielectric constant tensor:
#      x y z
#    x 1.833870 0.000000 0.000000 
#    y 0.000000 1.818160 0.000000 
#    z 0.000000 0.000000 1.845380 
# 
# From -- ./inp_files/13368.got.cif
#   From: 2010.03.12/outbox.cif.g09.slc.cpg/sg65_7_cif.got.tgz:13368.got - 2010.04.10 20:52:16.
