data_PCOD8269044
_publ_section_title
;
Structure prediction by ZEFSAII (Michael W. Deem and Ramdas Pophale) SiO2 
 PCOD8269044
Probable space group: C M M M
;
_chemical_formula_sum "Si O2"
_cell_formula_units_Z 72
_cell_length_a 15.438161
_cell_length_b 8.624272
_cell_length_c 28.256567
_cell_angle_alpha 90.000000
_cell_angle_beta 90.000000
_cell_angle_gamma 90.000000
_cell_volume 3762.161264
_symmetry_space_group_name_H-M "C M M M"
_symmetry_group_IT_number 65
_symmetry_cell_setting 'orthorhombic'
loop_
_space_group_symop_operation_xyz
x,y,z
-x,-y,z
x,-y,-z
-x,y,-z
-x,-y,-z
x,y,-z
-x,y,z
x,-y,z
1/2+x,1/2+y,z
1/2-x,1/2-y,z
1/2+x,1/2-y,-z
1/2-x,1/2+y,-z
1/2-x,1/2-y,-z
1/2+x,1/2+y,-z
1/2-x,1/2+y,z
1/2+x,1/2-y,z
loop_
_atom_site_type_symbol
_atom_site_label
_atom_site_fract_x
_atom_site_fract_y
_atom_site_fract_z
Si Si1 0.158522 0.684325 0.781092
Si Si2 0.000000 0.184130 0.947018
Si Si3 0.000000 0.683878 0.281886
Si Si4 0.841434 0.815724 0.116278
Si Si5 0.500000 0.816444 0.388588
Si Si6 0.341344 0.682441 0.445601
O O1 0.163221 0.500000 0.783942
O O2 0.250000 0.750000 0.762894
O O3 0.134960 0.749558 0.832468
O O4 0.085582 0.744154 0.744864
O O5 0.914472 0.242941 0.920016
O O6 0.000000 0.000000 0.948620
O O7 0.000000 0.253561 0.000000
O O8 0.000000 0.500000 0.282130
O O9 0.000000 0.748922 0.335150
O O10 0.750000 0.750000 0.098006
O O11 0.836617 0.000000 0.119483
O O12 0.415055 0.756599 0.414167
O O13 0.500000 0.000000 0.389503
O O14 0.358774 0.728145 0.500000
O O15 0.341210 0.500000 0.438400
O O16 0.250000 0.750000 0.428298
#
# Coordination Sequence:
#
# PCOD8269044 Si02
#       6
#    16   8   8  16   8  16
#     4  10  19  35  56  77 103 135 173 215 260 306
#     4   9  19  34  51  73 104 139 170 205 253 307
#     4   9  21  37  53  76 108 143 174 212 261 313
#     4  10  19  33  54  78 102 131 171 214 256 303
#     4  11  22  37  56  81 114 147 180 219 270 325
#     4  10  21  38  59  83 110 142 183 227 270 318
#
# _framework density 19.137934000000001
#
# number of rings (size 3 to 8) (size 9 to 14) (size 15 to 20)
#    0.000    2.111    0.000    4.667    0.000    4.000 
#    0.000   10.000    0.000    4.667    0.000    0.000 
#    0.000    0.000    0.000    0.000    0.000    0.000 
#
# Total GULP energy -446480.880665 kJ/mol
# GULP energy per Si atom -12402.246685 kJ/mol
# Density = 1.909438 g / cm^3
# Si number density = 19.137934 Si / 1000 Ang^3
#
#
#
# Elastic Constant Matrix: (Units=GPa)
#
#
# Indices 1 2 3 4 5 6 
#
# 1 202.7438 49.4987 125.0225 0.0000 0.0000 0.0000
# 2 49.4987 72.5185 41.4094 0.0000 0.0000 0.0000
# 3 125.0225 41.4094 145.8490 0.0000 0.0000 0.0000
# 4 0.0000 0.0000 0.0000 22.9126 0.0000 0.0000
# 5 0.0000 0.0000 0.0000 0.0000 43.2730 0.0000
# 6 0.0000 0.0000 0.0000 0.0000 0.0000 31.2266
#
#
#
# Elastic Compliance Matrix: (Units=1/GPa)
#
#
# Indices 1 2 3 4 5 6 
#
# 1 0.010829 -0.002495 -0.008574 0.000000 0.000000 0.000000
# 2 -0.002495 0.017033 -0.002697 0.000000 0.000000 0.000000
# 3 -0.008574 -0.002697 0.014972 0.000000 0.000000 0.000000
# 4 0.000000 0.000000 0.000000 0.043644 0.000000 0.000000
# 5 0.000000 0.000000 0.000000 0.000000 0.023109 0.000000
# 6 0.000000 0.000000 0.000000 0.000000 0.000000 0.032024
#
#
# Mechanical properties :
#
#
# Convention : Reuss Voigt Hill
#
# Bulk Modulus (GPa) = 65.35595 94.77473 80.06534
# Shear Modulus (GPa) = 28.69553 33.16114 30.92834
#
# Velocity S-wave (km/s) = 3.87642 4.16714 4.02440
# Velocity P-wave (km/s) = 7.36611 8.53129 7.97002
#
# Compressibility (1/GPa) = 0.01530083
#
# Stress axis : x y z
#
# Youngs Moduli (GPa) = 92.34707 58.71012 66.79271
#
# Poissons Ratio (x) = 0.14651 0.57268
# Poissons Ratio (y) = 0.23045 0.18013
# Poissons Ratio (z) = 0.79178 0.15833
#
# Static dielectric constant tensor:
#      x y z
#    x 3.840250 0.000000 0.000000 
#    y 0.000000 3.411050 0.000000 
#    z 0.000000 0.000000 3.658480 
# 
# 
# High freq. dielectric constant tensor:
#      x y z
#    x 1.762240 0.000000 0.000000 
#    y 0.000000 1.738750 0.000000 
#    z 0.000000 0.000000 1.740840 
# 
# From -- ./inp_files/77568.got.cif
#   From: 2010.03.12/outbox.cif.g09.slc.cpg/sg65_39_cif.got.tgz:77568.got - 2010.04.10 20:52:16.
