data_PCOD8269102
_publ_section_title
;
Structure prediction by ZEFSAII (Michael W. Deem and Ramdas Pophale) SiO2 
 PCOD8269102
Probable space group: C M M M
;
_chemical_formula_sum "Si O2"
_cell_formula_units_Z 88
_cell_length_a 19.429730
_cell_length_b 7.943518
_cell_length_c 29.233290
_cell_angle_alpha 90.000000
_cell_angle_beta 90.000000
_cell_angle_gamma 90.000000
_cell_volume 4511.877964
_symmetry_space_group_name_H-M "C M M M"
_symmetry_group_IT_number 65
_symmetry_cell_setting 'orthorhombic'
loop_
_space_group_symop_operation_xyz
x,y,z
-x,-y,z
x,-y,-z
-x,y,-z
-x,-y,-z
x,y,-z
-x,y,z
x,-y,z
1/2+x,1/2+y,z
1/2-x,1/2-y,z
1/2+x,1/2-y,-z
1/2-x,1/2+y,-z
1/2-x,1/2-y,-z
1/2+x,1/2+y,-z
1/2-x,1/2+y,z
1/2+x,1/2-y,z
loop_
_atom_site_type_symbol
_atom_site_label
_atom_site_fract_x
_atom_site_fract_y
_atom_site_fract_z
Si Si1 0.674902 0.698558 0.793863
Si Si2 0.423825 0.695894 0.870956
Si Si3 0.079901 0.689487 0.611973
Si Si4 0.175303 0.302320 0.051763
Si Si5 0.674121 0.301171 0.690816
Si Si6 0.418277 0.500000 0.448880
O O1 0.669447 0.500000 0.793759
O O2 0.750000 0.750000 0.811662
O O3 0.619030 0.777732 0.828794
O O4 0.662181 0.766202 0.742489
O O5 0.500000 0.778830 0.873193
O O6 0.431535 0.500000 0.861651
O O7 0.384821 0.721014 0.918579
O O8 0.091516 0.500000 0.592251
O O9 0.119074 0.706673 0.659717
O O10 0.000000 0.721938 0.622167
O O11 0.107812 0.830086 0.576413
O O12 0.167098 0.500000 0.053859
O O13 0.250000 0.250000 0.071241
O O14 0.167247 0.233962 0.000000
O O15 0.663449 0.500000 0.686833
O O16 0.750000 0.250000 0.674022
O O17 0.500000 0.500000 0.451286
O O18 0.387038 0.500000 0.500000
#
# Coordination Sequence:
#
# PCOD8269102 Si02
#       6
#    16  16  16  16  16   8
#     4   9  19  34  53  76 104 138 179 221 262 317
#     4  10  21  36  53  77 109 143 177 215 268 323
#     4  10  20  34  54  83 114 145 187 234 279 330
#     4  10  21  37  57  79 102 132 174 221 269 322
#     4  10  19  33  54  80 109 145 184 224 275 328
#     4   9  18  34  56  82 112 148 189 231 280 334
#
# _framework density 19.504075
#
# number of rings (size 3 to 8) (size 9 to 14) (size 15 to 20)
#    0.000    2.273    0.909    1.636    0.000    5.818 
#    0.000    5.455    0.000    0.545    0.000    0.000 
#    0.000    0.000    0.000    0.000    0.000    0.000 
#
# Total GULP energy -545566.235727 kJ/mol
# GULP energy per Si atom -12399.232630 kJ/mol
# Density = 1.945968 g / cm^3
# Si number density = 19.504075 Si / 1000 Ang^3
#
#
#
# Elastic Constant Matrix: (Units=GPa)
#
#
# Indices 1 2 3 4 5 6 
#
# 1 129.0393 27.0124 76.2657 0.0000 0.0000 0.0000
# 2 27.0124 71.6415 33.1786 0.0000 0.0000 0.0000
# 3 76.2657 33.1786 123.6229 0.0000 0.0000 0.0000
# 4 0.0000 0.0000 0.0000 20.6021 0.0000 0.0000
# 5 0.0000 0.0000 0.0000 0.0000 28.2605 0.0000
# 6 0.0000 0.0000 0.0000 0.0000 0.0000 24.6740
#
#
#
# Elastic Compliance Matrix: (Units=1/GPa)
#
#
# Indices 1 2 3 4 5 6 
#
# 1 0.012299 -0.001283 -0.007243 0.000000 0.000000 0.000000
# 2 -0.001283 0.016073 -0.003522 0.000000 0.000000 0.000000
# 3 -0.007243 -0.003522 0.013503 0.000000 0.000000 0.000000
# 4 0.000000 0.000000 0.000000 0.048539 0.000000 0.000000
# 5 0.000000 0.000000 0.000000 0.000000 0.035385 0.000000
# 6 0.000000 0.000000 0.000000 0.000000 0.000000 0.040528
#
#
# Mechanical properties :
#
#
# Convention : Reuss Voigt Hill
#
# Bulk Modulus (GPa) = 56.24820 66.35748 61.30284
# Shear Modulus (GPa) = 25.46460 27.23047 26.34753
#
# Velocity S-wave (km/s) = 3.61723 3.74055 3.67941
# Velocity P-wave (km/s) = 6.80791 7.26305 7.03916
#
# Compressibility (1/GPa) = 0.01777835
#
# Stress axis : x y z
#
# Youngs Moduli (GPa) = 81.30675 62.21463 74.05749
#
# Poissons Ratio (x) = 0.07981 0.53642
# Poissons Ratio (y) = 0.10431 0.26086
# Poissons Ratio (z) = 0.58893 0.21915
#
# Static dielectric constant tensor:
#      x y z
#    x 3.602640 0.000000 0.000000 
#    y 0.000000 3.577380 0.000000 
#    z 0.000000 0.000000 3.741290 
# 
# 
# High freq. dielectric constant tensor:
#      x y z
#    x 1.746660 0.000000 0.000000 
#    y 0.000000 1.759490 0.000000 
#    z 0.000000 0.000000 1.755830 
# 
# From -- ./inp_files/77786.got.cif
#   From: 2010.03.12/outbox.cif.g09.slc.cpg/sg65_39_cif.got.tgz:77786.got - 2010.04.10 20:52:16.
