data_PCOD8269046
_publ_section_title
;
Structure prediction by ZEFSAII (Michael W. Deem and Ramdas Pophale) SiO2 
 PCOD8269046
Probable space group: C M M M
;
_chemical_formula_sum "Si O2"
_cell_formula_units_Z 80
_cell_length_a 9.209353
_cell_length_b 18.366592
_cell_length_c 26.122367
_cell_angle_alpha 90.000000
_cell_angle_beta 90.000000
_cell_angle_gamma 90.000000
_cell_volume 4418.452854
_symmetry_space_group_name_H-M "C M M M"
_symmetry_group_IT_number 65
_symmetry_cell_setting 'orthorhombic'
loop_
_space_group_symop_operation_xyz
x,y,z
-x,-y,z
x,-y,-z
-x,y,-z
-x,-y,-z
x,y,-z
-x,y,z
x,-y,z
1/2+x,1/2+y,z
1/2-x,1/2-y,z
1/2+x,1/2-y,-z
1/2-x,1/2+y,-z
1/2-x,1/2-y,-z
1/2+x,1/2+y,-z
1/2-x,1/2+y,z
1/2+x,1/2-y,z
loop_
_atom_site_type_symbol
_atom_site_label
_atom_site_fract_x
_atom_site_fract_y
_atom_site_fract_z
Si Si1 0.170361 0.827330 0.111142
Si Si2 0.835244 0.177026 0.000000
Si Si3 0.825990 0.418221 0.390158
Si Si4 0.829796 0.325260 0.704655
Si Si5 0.158957 0.586389 0.500000
Si Si6 0.333091 0.915384 0.195073
O O1 0.250000 0.750000 0.117750
O O2 0.231494 0.885372 0.150564
O O3 0.000000 0.815039 0.121542
O O4 0.198350 0.863023 0.054139
O O5 0.750000 0.250000 0.000000
O O6 0.000000 0.201919 0.000000
O O7 0.770989 0.500000 0.377663
O O8 0.768774 0.363723 0.346636
O O9 0.763355 0.391664 0.446096
O O10 0.000000 0.418619 0.391943
O O11 0.750000 0.250000 0.713545
O O12 0.792800 0.377087 0.751930
O O13 0.000000 0.310289 0.700139
O O14 0.141889 0.500000 0.500000
O O15 0.000000 0.622975 0.500000
O O16 0.500000 0.900957 0.180112
O O17 0.300669 0.000000 0.202352
#
# Coordination Sequence:
#
# PCOD8269046 Si02
#       6
#    16   8  16  16   8  16
#     4  10  19  33  54  78 103 131 163 199 239 284
#     4   8  16  30  49  74 101 129 161 195 233 280
#     4   8  13  24  44  68  92 120 156 196 235 275
#     4  10  20  33  49  69  95 126 158 195 240 289
#     4   7  10  18  37  66  93 115 148 195 236 270
#     4  10  21  36  52  71  96 127 164 205 248 293
#
# _framework density 18.105885000000001
#
# number of rings (size 3 to 8) (size 9 to 14) (size 15 to 20)
#    0.000    2.900    0.000    3.000    0.000    6.000 
#    0.000    1.000    0.000    4.800    0.000    0.000 
#    0.000    2.400    0.000    0.000    0.000    0.000 
#
# Total GULP energy -495547.187781 kJ/mol
# GULP energy per Si atom -12388.679695 kJ/mol
# Density = 1.806468 g / cm^3
# Si number density = 18.105885 Si / 1000 Ang^3
#
#
#
# Elastic Constant Matrix: (Units=GPa)
#
#
# Indices 1 2 3 4 5 6 
#
# 1 48.5417 40.3268 58.2483 0.0000 0.0000 0.0000
# 2 40.3268 103.6116 74.2467 0.0000 0.0000 0.0000
# 3 58.2483 74.2467 178.9478 0.0000 0.0000 0.0000
# 4 0.0000 0.0000 0.0000 32.2456 0.0000 0.0000
# 5 0.0000 0.0000 0.0000 0.0000 -1.6789 0.0000
# 6 0.0000 0.0000 0.0000 0.0000 0.0000 21.2568
#
#
#
# Elastic Compliance Matrix: (Units=1/GPa)
#
#
# Indices 1 2 3 4 5 6 
#
# 1 0.038469 -0.008538 -0.008979 0.000000 0.000000 0.000000
# 2 -0.008538 0.015630 -0.003706 0.000000 0.000000 0.000000
# 3 -0.008979 -0.003706 0.010049 0.000000 0.000000 0.000000
# 4 0.000000 0.000000 0.000000 0.031012 0.000000 0.000000
# 5 0.000000 0.000000 0.000000 0.000000 -0.595613 0.000000
# 6 0.000000 0.000000 0.000000 0.000000 0.000000 0.047044
#
#
# Mechanical properties :
#
#
# Convention : Reuss Voigt Hill
#
# Bulk Modulus (GPa) = 46.08057 75.19384 60.63721
# Shear Modulus (GPa) = -12.38451 20.91665 4.26607
#
# Velocity S-wave (km/s) = -2.61819 3.40257 1.53665
# Velocity P-wave (km/s) = 4.04549 7.55360 6.05900
#
# Compressibility (1/GPa) = 0.02170112
#
# Stress axis : x y z
#
# Youngs Moduli (GPa) = 25.99512 63.97910 99.51636
#
# Poissons Ratio (x) = 0.54626 0.89358
# Poissons Ratio (y) = 0.22195 0.36879
# Poissons Ratio (z) = 0.23342 0.23710
#
# Static dielectric constant tensor:
#      x y z
#    x 3.030610 0.000000 0.000000 
#    y 0.000000 3.058950 0.000000 
#    z 0.000000 0.000000 4.187110 
# 
# 
# High freq. dielectric constant tensor:
#      x y z
#    x 1.665470 0.000000 0.000000 
#    y 0.000000 1.672620 0.000000 
#    z 0.000000 0.000000 1.731770 
# 
# From -- ./inp_files/72937.got.cif
#   From: 2010.03.12/outbox.cif.g09.slc.cpg/sg65_37_cif.got.tgz:72937.got - 2010.04.10 20:52:16.
