data_PCOD8269624
_publ_section_title
;
Structure prediction by ZEFSAII (Michael W. Deem and Ramdas Pophale) SiO2 
 PCOD8269624
Probable space group: C M M M
;
_chemical_formula_sum "Si O2"
_cell_formula_units_Z 104
_cell_length_a 8.708431
_cell_length_b 19.845066
_cell_length_c 29.733113
_cell_angle_alpha 90.000000
_cell_angle_beta 90.000000
_cell_angle_gamma 90.000000
_cell_volume 5138.458391
_symmetry_space_group_name_H-M "C M M M"
_symmetry_group_IT_number 65
_symmetry_cell_setting 'orthorhombic'
loop_
_space_group_symop_operation_xyz
x,y,z
-x,-y,z
x,-y,-z
-x,y,-z
-x,-y,-z
x,y,-z
-x,y,z
x,-y,z
1/2+x,1/2+y,z
1/2-x,1/2-y,z
1/2+x,1/2-y,-z
1/2-x,1/2+y,-z
1/2-x,1/2-y,-z
1/2+x,1/2+y,-z
1/2-x,1/2+y,z
1/2+x,1/2-y,z
loop_
_atom_site_type_symbol
_atom_site_label
_atom_site_fract_x
_atom_site_fract_y
_atom_site_fract_z
Si Si1 0.680693 0.816121 0.139366
Si Si2 0.335616 0.500000 0.947684
Si Si3 0.683895 0.644174 0.949526
Si Si4 0.817508 0.322125 0.286292
Si Si5 0.819945 0.179502 0.618126
Si Si6 0.676104 0.922381 0.447985
Si Si7 0.317843 0.076083 0.209705
O O1 0.500000 0.810656 0.140787
O O2 0.750000 0.750000 0.164122
O O3 0.739642 0.809877 0.087999
O O4 0.737031 0.883715 0.164974
O O5 0.500000 0.500000 0.922042
O O6 0.247368 0.430478 0.937202
O O7 0.372784 0.500000 0.000000
O O8 0.500000 0.644646 0.946168
O O9 0.734948 0.666559 0.000000
O O10 0.750000 0.250000 0.271249
O O11 0.758266 0.342844 0.335366
O O12 0.761164 0.381164 0.252747
O O13 0.000000 0.316172 0.286445
O O14 0.750000 0.250000 0.601004
O O15 0.789626 0.122866 0.581115
O O16 0.000000 0.188444 0.625866
O O17 0.710631 0.907874 0.500000
O O18 0.500000 0.904479 0.436587
O O19 0.709470 0.000000 0.436486
O O20 0.500000 0.071031 0.210382
O O21 0.247673 0.000000 0.209878
#
# Coordination Sequence:
#
# PCOD8269624 Si02
#       7
#    16   8  16  16  16  16  16
#     4  11  23  38  58  81 111 146 181 224 271 325
#     4   7  12  26  49  75 103 135 167 205 255 307
#     4   9  18  34  56  81 110 143 180 220 265 320
#     4  10  19  35  60  84 111 147 184 227 279 338
#     4  11  22  36  56  84 118 153 193 240 288 340
#     4   9  19  37  59  82 112 153 199 244 292 347
#     4   9  20  38  59  84 111 141 179 224 275 330
#
# _framework density 20.239533999999999
#
# number of rings (size 3 to 8) (size 9 to 14) (size 15 to 20)
#    0.000    2.385    0.000    5.077    1.077    2.154 
#    0.000    4.615    0.000    6.462    0.000    0.000 
#    0.000    0.000    0.000    0.000    0.000    0.000 
#
# Total GULP energy -644429.211164 kJ/mol
# GULP energy per Si atom -12392.869445 kJ/mol
# Density = 2.019347 g / cm^3
# Si number density = 20.239534 Si / 1000 Ang^3
#
#
#
# Elastic Constant Matrix: (Units=GPa)
#
#
# Indices 1 2 3 4 5 6 
#
# 1 72.0228 36.1942 34.3535 0.0000 0.0000 0.0000
# 2 36.1942 148.0595 70.8683 0.0000 0.0000 0.0000
# 3 34.3535 70.8683 112.4072 0.0000 0.0000 0.0000
# 4 0.0000 0.0000 0.0000 44.3445 0.0000 0.0000
# 5 0.0000 0.0000 0.0000 0.0000 23.3978 0.0000
# 6 0.0000 0.0000 0.0000 0.0000 0.0000 31.1290
#
#
#
# Elastic Compliance Matrix: (Units=1/GPa)
#
#
# Indices 1 2 3 4 5 6 
#
# 1 0.016812 -0.002364 -0.003648 0.000000 0.000000 0.000000
# 2 -0.002364 0.010005 -0.005586 0.000000 0.000000 0.000000
# 3 -0.003648 -0.005586 0.013533 0.000000 0.000000 0.000000
# 4 0.000000 0.000000 0.000000 0.022551 0.000000 0.000000
# 5 0.000000 0.000000 0.000000 0.000000 0.042739 0.000000
# 6 0.000000 0.000000 0.000000 0.000000 0.000000 0.032124
#
#
# Mechanical properties :
#
#
# Convention : Reuss Voigt Hill
#
# Bulk Modulus (GPa) = 58.28935 68.36906 63.32920
# Shear Modulus (GPa) = 29.99804 32.51252 31.25528
#
# Velocity S-wave (km/s) = 3.85405 4.01232 3.93398
# Velocity P-wave (km/s) = 6.97619 7.43763 7.21060
#
# Compressibility (1/GPa) = 0.01715579
#
# Stress axis : x y z
#
# Youngs Moduli (GPa) = 59.48007 99.94562 73.89597
#
# Poissons Ratio (x) = 0.23626 0.26956
# Poissons Ratio (y) = 0.14060 0.41275
# Poissons Ratio (z) = 0.21697 0.55826
#
# Static dielectric constant tensor:
#      x y z
#    x 3.333240 0.000000 0.000000 
#    y 0.000000 4.155180 0.000000 
#    z 0.000000 0.000000 3.692940 
# 
# 
# High freq. dielectric constant tensor:
#      x y z
#    x 1.763860 0.000000 0.000000 
#    y 0.000000 1.803430 0.000000 
#    z 0.000000 0.000000 1.787200 
# 
# From -- ./inp_files/73333.got.cif
#   From: 2010.03.12/outbox.cif.g09.slc.cpg/sg65_37_cif.got.tgz:73333.got - 2010.04.10 20:52:16.
