data_PCOD8269561
_publ_section_title
;
Structure prediction by ZEFSAII (Michael W. Deem and Ramdas Pophale) SiO2 
 PCOD8269561
Probable space group: C M M M
;
_chemical_formula_sum "Si O2"
_cell_formula_units_Z 96
_cell_length_a 30.729858
_cell_length_b 12.156015
_cell_length_c 14.467051
_cell_angle_alpha 90.000000
_cell_angle_beta 90.000000
_cell_angle_gamma 90.000000
_cell_volume 5404.204729
_symmetry_space_group_name_H-M "C M M M"
_symmetry_group_IT_number 65
_symmetry_cell_setting 'orthorhombic'
loop_
_space_group_symop_operation_xyz
x,y,z
-x,-y,z
x,-y,-z
-x,y,-z
-x,-y,-z
x,y,-z
-x,y,z
x,-y,z
1/2+x,1/2+y,z
1/2-x,1/2-y,z
1/2+x,1/2-y,-z
1/2-x,1/2+y,-z
1/2-x,1/2-y,-z
1/2+x,1/2+y,-z
1/2-x,1/2+y,z
1/2+x,1/2-y,z
loop_
_atom_site_type_symbol
_atom_site_label
_atom_site_fract_x
_atom_site_fract_y
_atom_site_fract_z
Si Si1 0.450369 0.371820 0.604225
Si Si2 0.250000 0.750000 0.314321
Si Si3 0.686822 0.378103 0.804801
Si Si4 0.891440 0.732890 0.738770
Si Si5 0.226428 0.872850 0.000000
Si Si6 0.671009 0.123990 0.604031
Si Si7 0.450702 0.129888 0.104201
O O1 0.434058 0.347072 0.500000
O O2 0.500000 0.332536 0.614859
O O3 0.446339 0.500000 0.625853
O O4 0.421742 0.308830 0.677516
O O5 0.269452 0.655411 0.249186
O O6 0.288148 0.797301 0.377881
O O7 0.674194 0.500000 0.772653
O O8 0.646695 0.300872 0.784702
O O9 0.695396 0.371748 0.912789
O O10 0.869526 0.642049 0.672815
O O11 0.918530 0.680388 0.821250
O O12 0.250000 0.750000 0.000000
O O13 0.250486 0.000000 0.000000
O O14 0.654493 0.146364 0.500000
O O15 0.687436 0.000000 0.616592
O O16 0.500000 0.168977 0.125063
O O17 0.447655 0.000000 0.112126
O O18 0.437497 0.166915 0.000000
#
# Coordination Sequence:
#
# PCOD8269561 Si02
#       7
#    16   8  16  16   8  16  16
#     4   9  18  33  53  77 105 137 173 211 250 297
#     4  10  19  35  56  72  96 134 185 208 257 302
#     4  10  21  34  52  76 105 135 174 218 265 313
#     4  11  20  32  54  78 106 134 173 207 265 313
#     4  10  20  38  56  76 105 142 181 225 274 321
#     4  10  21  35  51  75 106 136 168 213 262 310
#     4   9  19  36  55  75 101 135 175 218 260 308
#
# _framework density 17.763947000000002
#
# number of rings (size 3 to 8) (size 9 to 14) (size 15 to 20)
#    0.000    2.167    0.833    3.750    1.167    0.000 
#    0.000    0.833    0.000    8.000    0.000   10.500 
#    0.000    0.000    0.000    0.000    0.000    0.000 
#
# Total GULP energy -594855.699550 kJ/mol
# GULP energy per Si atom -12392.827074 kJ/mol
# Density = 1.772352 g / cm^3
# Si number density = 17.763947 Si / 1000 Ang^3
#
#
#
# Elastic Constant Matrix: (Units=GPa)
#
#
# Indices 1 2 3 4 5 6 
#
# 1 87.1983 31.4958 59.5135 0.0000 0.0000 0.0000
# 2 31.4958 74.8404 47.3889 0.0000 0.0000 0.0000
# 3 59.5135 47.3889 130.0436 0.0000 0.0000 0.0000
# 4 0.0000 0.0000 0.0000 34.8822 0.0000 0.0000
# 5 0.0000 0.0000 0.0000 0.0000 37.4746 0.0000
# 6 0.0000 0.0000 0.0000 0.0000 0.0000 45.7581
#
#
#
# Elastic Compliance Matrix: (Units=1/GPa)
#
#
# Indices 1 2 3 4 5 6 
#
# 1 0.017155 -0.002923 -0.006786 0.000000 0.000000 0.000000
# 2 -0.002923 0.017868 -0.005174 0.000000 0.000000 0.000000
# 3 -0.006786 -0.005174 0.012680 0.000000 0.000000 0.000000
# 4 0.000000 0.000000 0.000000 0.028668 0.000000 0.000000
# 5 0.000000 0.000000 0.000000 0.000000 0.026685 0.000000
# 6 0.000000 0.000000 0.000000 0.000000 0.000000 0.021854
#
#
# Mechanical properties :
#
#
# Convention : Reuss Voigt Hill
#
# Bulk Modulus (GPa) = 55.74439 63.20874 59.47657
# Shear Modulus (GPa) = 31.12278 33.86861 32.49569
#
# Velocity S-wave (km/s) = 4.19025 4.37119 4.28168
# Velocity P-wave (km/s) = 7.40674 7.81897 7.61564
#
# Compressibility (1/GPa) = 0.01793902
#
# Stress axis : x y z
#
# Youngs Moduli (GPa) = 58.29134 55.96705 78.86124
#
# Poissons Ratio (x) = 0.16358 0.53514
# Poissons Ratio (y) = 0.17037 0.40799
# Poissons Ratio (z) = 0.39556 0.28955
#
# Static dielectric constant tensor:
#      x y z
#    x 3.285980 0.000000 0.000000 
#    y 0.000000 3.537490 0.000000 
#    z 0.000000 0.000000 3.517420 
# 
# 
# High freq. dielectric constant tensor:
#      x y z
#    x 1.681410 0.000000 0.000000 
#    y 0.000000 1.689010 0.000000 
#    z 0.000000 0.000000 1.702940 
# 
# From -- ./inp_files/47735.got.cif
#   From: 2010.03.12/outbox.cif.g09.slc.cpg/sg65_24_cif.got.tgz:47735.got - 2010.04.10 20:52:16.
