data_PCOD8269427
_publ_section_title
;
Structure prediction by ZEFSAII (Michael W. Deem and Ramdas Pophale) SiO2 
 PCOD8269427
Probable space group: C M M M
;
_chemical_formula_sum "Si O2"
_cell_formula_units_Z 104
_cell_length_a 14.486492
_cell_length_b 20.549818
_cell_length_c 17.092470
_cell_angle_alpha 90.000000
_cell_angle_beta 90.000000
_cell_angle_gamma 90.000000
_cell_volume 5088.338995
_symmetry_space_group_name_H-M "C M M M"
_symmetry_group_IT_number 65
_symmetry_cell_setting 'orthorhombic'
loop_
_space_group_symop_operation_xyz
x,y,z
-x,-y,z
x,-y,-z
-x,y,-z
-x,-y,-z
x,y,-z
-x,y,z
x,-y,z
1/2+x,1/2+y,z
1/2-x,1/2-y,z
1/2+x,1/2-y,-z
1/2-x,1/2+y,-z
1/2-x,1/2-y,-z
1/2+x,1/2+y,-z
1/2-x,1/2+y,z
1/2+x,1/2-y,z
loop_
_atom_site_type_symbol
_atom_site_label
_atom_site_fract_x
_atom_site_fract_y
_atom_site_fract_z
Si Si1 0.397087 0.877733 0.589232
Si Si2 0.392431 0.500000 0.092676
Si Si3 0.250163 0.393581 0.852831
Si Si4 0.743750 0.430233 0.314108
Si Si5 0.891553 0.136007 0.587943
Si Si6 0.105225 0.251978 0.305546
Si Si7 0.750000 0.250000 0.828439
Si Si8 0.607559 0.000000 0.092643
O O1 0.371719 0.859106 0.500000
O O2 0.500000 0.906566 0.592976
O O3 0.327994 0.930142 0.624667
O O4 0.385834 0.816850 0.645310
O O5 0.500000 0.500000 0.120711
O O6 0.341514 0.566047 0.121901
O O7 0.386406 0.500000 0.000000
O O8 0.249203 0.381301 0.758849
O O9 0.251665 0.317265 0.881895
O O10 0.158546 0.433853 0.878346
O O11 0.741632 0.500000 0.272154
O O12 0.651393 0.424350 0.365756
O O13 0.852930 0.140289 0.500000
O O14 0.854547 0.198044 0.635512
O O15 0.000000 0.128971 0.587252
O O16 0.158594 0.253302 0.224271
O O17 0.000000 0.236196 0.283576
O O18 0.500000 0.000000 0.121218
O O19 0.612610 0.000000 0.000000
#
# Coordination Sequence:
#
# PCOD8269427 Si02
#       8
#    16   8  16  16  16  16   8   8
#     4  10  21  36  54  76 108 155 209 263 312 358
#     4  10  23  47  76  99 123 162 206 240 282 360
#     4  11  22  40  65  99 134 163 200 248 303 369
#     4  12  23  37  53  81 113 155 202 254 308 369
#     4  10  21  36  54  76 108 155 209 263 312 358
#     4  10  19  34  56  79 112 154 207 258 304 366
#     4  12  22  36  58  98 136 162 196 250 324 366
#     4  10  23  47  76  99 123 162 206 240 282 360
#
# _framework density 20.438891000000002
#
# number of rings (size 3 to 8) (size 9 to 14) (size 15 to 20)
#    0.000    1.385    4.615    1.846    0.000    6.154 
#    0.000    5.385    0.000    1.846    0.000    0.000 
#    0.000    0.000    0.000    0.000    0.000    0.000 
#
# Total GULP energy -644355.688766 kJ/mol
# GULP energy per Si atom -12391.455553 kJ/mol
# Density = 2.039237 g / cm^3
# Si number density = 20.438891 Si / 1000 Ang^3
#
#
#
# Elastic Constant Matrix: (Units=GPa)
#
#
# Indices 1 2 3 4 5 6 
#
# 1 76.0268 36.5858 31.5711 0.0000 0.0000 0.0000
# 2 36.5858 127.1322 20.2619 0.0000 0.0000 0.0000
# 3 31.5711 20.2619 74.4027 0.0000 0.0000 0.0000
# 4 0.0000 0.0000 0.0000 24.0975 0.0000 0.0000
# 5 0.0000 0.0000 0.0000 0.0000 32.2737 0.0000
# 6 0.0000 0.0000 0.0000 0.0000 0.0000 30.1685
#
#
#
# Elastic Compliance Matrix: (Units=1/GPa)
#
#
# Indices 1 2 3 4 5 6 
#
# 1 0.017797 -0.004096 -0.006436 0.000000 0.000000 0.000000
# 2 -0.004096 0.009165 -0.000758 0.000000 0.000000 0.000000
# 3 -0.006436 -0.000758 0.016378 0.000000 0.000000 0.000000
# 4 0.000000 0.000000 0.000000 0.041498 0.000000 0.000000
# 5 0.000000 0.000000 0.000000 0.000000 0.030985 0.000000
# 6 0.000000 0.000000 0.000000 0.000000 0.000000 0.033147
#
#
# Mechanical properties :
#
#
# Convention : Reuss Voigt Hill
#
# Bulk Modulus (GPa) = 48.16970 50.48879 49.32925
# Shear Modulus (GPa) = 28.01580 29.91748 28.96664
#
# Velocity S-wave (km/s) = 3.70633 3.83005 3.76870
# Velocity P-wave (km/s) = 6.47570 6.65695 6.56695
#
# Compressibility (1/GPa) = 0.02075994
#
# Stress axis : x y z
#
# Youngs Moduli (GPa) = 56.18922 109.10705 61.05785
#
# Poissons Ratio (x) = 0.44688 0.39299
# Poissons Ratio (y) = 0.23014 0.04628
# Poissons Ratio (z) = 0.36165 0.08271
#
# Static dielectric constant tensor:
#      x y z
#    x 3.961650 0.000000 0.000000 
#    y 0.000000 3.794030 0.000000 
#    z 0.000000 0.000000 3.626860 
# 
# 
# High freq. dielectric constant tensor:
#      x y z
#    x 1.806040 0.000000 0.000000 
#    y 0.000000 1.797670 0.000000 
#    z 0.000000 0.000000 1.786540 
# 
# From -- ./inp_files/53364.got.cif
#   From: 2010.03.12/outbox.cif.g09.slc.cpg/sg65_27_cif.got.tgz:53364.got - 2010.04.10 20:52:16.
