data_PCOD8269151
_publ_section_title
;
Structure prediction by ZEFSAII (Michael W. Deem and Ramdas Pophale) SiO2 
 PCOD8269151
Probable space group: C M M M
;
_chemical_formula_sum "Si O2"
_cell_formula_units_Z 104
_cell_length_a 21.232582
_cell_length_b 28.511627
_cell_length_c 8.519828
_cell_angle_alpha 90.000000
_cell_angle_beta 90.000000
_cell_angle_gamma 90.000000
_cell_volume 5157.694780
_symmetry_space_group_name_H-M "C M M M"
_symmetry_group_IT_number 65
_symmetry_cell_setting 'orthorhombic'
loop_
_space_group_symop_operation_xyz
x,y,z
-x,-y,z
x,-y,-z
-x,y,-z
-x,-y,-z
x,y,-z
-x,y,z
x,-y,z
1/2+x,1/2+y,z
1/2-x,1/2-y,z
1/2+x,1/2-y,-z
1/2-x,1/2+y,-z
1/2-x,1/2-y,-z
1/2+x,1/2+y,-z
1/2-x,1/2+y,z
1/2+x,1/2-y,z
loop_
_atom_site_type_symbol
_atom_site_label
_atom_site_fract_x
_atom_site_fract_y
_atom_site_fract_z
Si Si1 0.500000 0.553827 0.814965
Si Si2 0.674550 0.949346 0.818510
Si Si3 0.400522 0.624659 0.315828
Si Si4 0.568751 0.727301 0.313463
Si Si5 0.428442 0.880911 0.818922
Si Si6 0.736984 0.632715 0.814698
Si Si7 0.840298 0.693944 0.317821
O O1 0.500000 0.500000 0.749178
O O2 0.563009 0.581048 0.761340
O O3 0.500000 0.552015 0.000000
O O4 0.602824 0.932001 0.796334
O O5 0.721764 0.910639 0.749772
O O6 0.682853 0.000000 0.734542
O O7 0.690886 0.954864 0.000000
O O8 0.410818 0.619903 0.500000
O O9 0.427392 0.673992 0.251863
O O10 0.327325 0.625652 0.276217
O O11 0.573014 0.728193 0.500000
O O12 0.500000 0.747223 0.259166
O O13 0.627588 0.758206 0.249074
O O14 0.500000 0.884976 0.766012
O O15 0.393846 0.844883 0.705288
O O16 0.420660 0.864352 0.000000
O O17 0.775159 0.680566 0.770944
O O18 0.725391 0.632196 0.000000
O O19 0.823515 0.699179 0.500000
#
# Coordination Sequence:
#
# PCOD8269151 Si02
#       7
#     8  16  16  16  16  16  16
#     4  11  25  45  67  93 125 157 191 233 290 359
#     4   8  15  29  49  71  97 136 182 225 272 328
#     4  11  22  40  65  89 115 147 190 239 287 340
#     4   9  18  34  57  84 113 147 189 239 287 338
#     4   9  17  29  46  72 107 140 177 231 286 333
#     4  10  21  37  55  80 117 150 185 237 294 349
#     4  10  19  33  55  80 108 149 197 233 275 338
#
# _framework density 20.164047
#
# number of rings (size 3 to 8) (size 9 to 14) (size 15 to 20)
#    0.000    2.385    0.769    3.000    0.000    3.077 
#    0.000    9.231    0.000   11.077    0.000    4.308 
#    0.000    0.000    0.000    0.000    0.000    0.000 
#
# Total GULP energy -644401.277741 kJ/mol
# GULP energy per Si atom -12392.332264 kJ/mol
# Density = 2.011815 g / cm^3
# Si number density = 20.164047 Si / 1000 Ang^3
#
#
#
# Elastic Constant Matrix: (Units=GPa)
#
#
# Indices 1 2 3 4 5 6 
#
# 1 134.4729 49.1318 6.7421 0.0000 0.0000 0.0000
# 2 49.1318 130.2563 19.2930 0.0000 0.0000 0.0000
# 3 6.7421 19.2930 32.3417 0.0000 0.0000 0.0000
# 4 0.0000 0.0000 0.0000 20.8901 0.0000 0.0000
# 5 0.0000 0.0000 0.0000 0.0000 30.2211 0.0000
# 6 0.0000 0.0000 0.0000 0.0000 0.0000 24.4516
#
#
#
# Elastic Compliance Matrix: (Units=1/GPa)
#
#
# Indices 1 2 3 4 5 6 
#
# 1 0.008626 -0.003277 0.000157 0.000000 0.000000 0.000000
# 2 -0.003277 0.009666 -0.005083 0.000000 0.000000 0.000000
# 3 0.000157 -0.005083 0.033919 0.000000 0.000000 0.000000
# 4 0.000000 0.000000 0.000000 0.047869 0.000000 0.000000
# 5 0.000000 0.000000 0.000000 0.000000 0.033090 0.000000
# 6 0.000000 0.000000 0.000000 0.000000 0.000000 0.040897
#
#
# Mechanical properties :
#
#
# Convention : Reuss Voigt Hill
#
# Bulk Modulus (GPa) = 27.92930 49.71164 38.82047
# Shear Modulus (GPa) = 24.70247 29.90615 27.30431
#
# Velocity S-wave (km/s) = 3.50390 3.85534 3.68381
# Velocity P-wave (km/s) = 5.50008 6.67273 6.11458
#
# Compressibility (1/GPa) = 0.03580469
#
# Stress axis : x y z
#
# Youngs Moduli (GPa) = 115.93096 103.45504 29.48165
#
# Poissons Ratio (x) = 0.33900 -0.00462
# Poissons Ratio (y) = 0.37988 0.14986
# Poissons Ratio (z) = -0.01815 0.52587
#
# Static dielectric constant tensor:
#      x y z
#    x 3.759930 0.000000 0.000000 
#    y 0.000000 4.073280 0.000000 
#    z 0.000000 0.000000 3.316280 
# 
# 
# High freq. dielectric constant tensor:
#      x y z
#    x 1.796780 0.000000 0.000000 
#    y 0.000000 1.786990 0.000000 
#    z 0.000000 0.000000 1.755900 
# 
# From -- ./inp_files/12456.got.cif
#   From: 2010.03.12/outbox.cif.g09.slc.cpg/sg65_7_cif.got.tgz:12456.got - 2010.04.10 20:52:16.
