data_PCOD8269152
_publ_section_title
;
Structure prediction by ZEFSAII (Michael W. Deem and Ramdas Pophale) SiO2 
 PCOD8269152
Probable space group: C M M M
;
_chemical_formula_sum "Si O2"
_cell_formula_units_Z 88
_cell_length_a 13.277723
_cell_length_b 27.374252
_cell_length_c 12.624275
_cell_angle_alpha 90.000000
_cell_angle_beta 90.000000
_cell_angle_gamma 90.000000
_cell_volume 4588.516645
_symmetry_space_group_name_H-M "C M M M"
_symmetry_group_IT_number 65
_symmetry_cell_setting 'orthorhombic'
loop_
_space_group_symop_operation_xyz
x,y,z
-x,-y,z
x,-y,-z
-x,y,-z
-x,-y,-z
x,y,-z
-x,y,z
x,-y,z
1/2+x,1/2+y,z
1/2-x,1/2-y,z
1/2+x,1/2-y,-z
1/2-x,1/2+y,-z
1/2-x,1/2-y,-z
1/2+x,1/2+y,-z
1/2-x,1/2+y,z
1/2+x,1/2-y,z
loop_
_atom_site_type_symbol
_atom_site_label
_atom_site_fract_x
_atom_site_fract_y
_atom_site_fract_z
Si Si1 0.114590 0.916224 0.378368
Si Si2 0.614554 0.210279 0.702698
Si Si3 0.609943 0.557680 0.000000
Si Si4 0.178506 0.809186 0.619932
Si Si5 0.884287 0.637014 0.118921
Si Si6 0.254752 0.444941 0.192161
O O1 0.144732 0.926032 0.500000
O O2 0.124482 0.859236 0.350182
O O3 0.190667 0.946615 0.305859
O O4 0.000000 0.932969 0.356936
O O5 0.500000 0.198928 0.663241
O O6 0.699799 0.185354 0.628710
O O7 0.634843 0.268569 0.700717
O O8 0.630143 0.188832 0.821186
O O9 0.666908 0.574701 0.105147
O O10 0.599232 0.500000 0.000000
O O11 0.500000 0.582507 0.000000
O O12 0.151758 0.793546 0.500000
O O13 0.836598 0.593125 0.188076
O O14 0.000000 0.622874 0.111014
O O15 0.838391 0.641092 0.000000
O O16 0.216355 0.500000 0.166915
#
# Coordination Sequence:
#
# PCOD8269152 Si02
#       6
#    16  16   8  16  16  16
#     4  10  21  37  57  82 115 153 190 230 279 337
#     4  10  19  33  55  80 109 144 178 220 274 330
#     4   9  18  32  53  81 106 135 178 229 286 337
#     4  10  20  34  55  85 114 142 182 228 272 324
#     4  10  21  38  59  83 112 146 186 232 283 339
#     4  11  21  36  58  82 112 147 187 240 288 333
#
# _framework density 19.178311999999998
#
# number of rings (size 3 to 8) (size 9 to 14) (size 15 to 20)
#    0.000    1.909    2.727    2.182    0.000    4.000 
#    0.000    3.636    2.000    0.545    0.000    1.273 
#    0.000    0.000    0.000    0.000    0.000    0.000 
#
# Total GULP energy -545404.020180 kJ/mol
# GULP energy per Si atom -12395.545913 kJ/mol
# Density = 1.913466 g / cm^3
# Si number density = 19.178312 Si / 1000 Ang^3
#
#
#
# Elastic Constant Matrix: (Units=GPa)
#
#
# Indices 1 2 3 4 5 6 
#
# 1 77.0406 25.3477 30.9906 0.0000 0.0000 0.0000
# 2 25.3477 74.8665 41.1200 0.0000 0.0000 0.0000
# 3 30.9906 41.1200 92.5178 0.0000 0.0000 0.0000
# 4 0.0000 0.0000 0.0000 27.2910 0.0000 0.0000
# 5 0.0000 0.0000 0.0000 0.0000 29.6600 0.0000
# 6 0.0000 0.0000 0.0000 0.0000 0.0000 19.9030
#
#
#
# Elastic Compliance Matrix: (Units=1/GPa)
#
#
# Indices 1 2 3 4 5 6 
#
# 1 0.015554 -0.003181 -0.003796 0.000000 0.000000 0.000000
# 2 -0.003181 0.018321 -0.007077 0.000000 0.000000 0.000000
# 3 -0.003796 -0.007077 0.015226 0.000000 0.000000 0.000000
# 4 0.000000 0.000000 0.000000 0.036642 0.000000 0.000000
# 5 0.000000 0.000000 0.000000 0.000000 0.033715 0.000000
# 6 0.000000 0.000000 0.000000 0.000000 0.000000 0.050244
#
#
# Mechanical properties :
#
#
# Convention : Reuss Voigt Hill
#
# Bulk Modulus (GPa) = 47.63784 48.81572 48.22678
# Shear Modulus (GPa) = 24.41294 25.16855 24.79074
#
# Velocity S-wave (km/s) = 3.57171 3.62656 3.59924
# Velocity P-wave (km/s) = 6.47324 6.56085 6.51719
#
# Compressibility (1/GPa) = 0.02099172
#
# Stress axis : x y z
#
# Youngs Moduli (GPa) = 64.29269 54.58101 65.67724
#
# Poissons Ratio (x) = 0.17362 0.24933
# Poissons Ratio (y) = 0.20452 0.46483
# Poissons Ratio (z) = 0.24407 0.38630
#
# Static dielectric constant tensor:
#      x y z
#    x 3.633290 0.000000 0.000000 
#    y 0.000000 3.312840 0.000000 
#    z 0.000000 0.000000 3.542680 
# 
# 
# High freq. dielectric constant tensor:
#      x y z
#    x 1.746540 0.000000 0.000000 
#    y 0.000000 1.732030 0.000000 
#    z 0.000000 0.000000 1.738760 
# 
# From -- ./inp_files/25164.got.cif
#   From: 2010.03.12/outbox.cif.g09.slc.cpg/sg65_13_cif.got.tgz:25164.got - 2010.04.10 20:52:16.
