data_PCOD8269634
_publ_section_title
;
Structure prediction by ZEFSAII (Michael W. Deem and Ramdas Pophale) SiO2 
 PCOD8269634
Probable space group: C M M M
;
_chemical_formula_sum "Si O2"
_cell_formula_units_Z 72
_cell_length_a 26.553429
_cell_length_b 16.063328
_cell_length_c 7.991630
_cell_angle_alpha 90.000000
_cell_angle_beta 90.000000
_cell_angle_gamma 90.000000
_cell_volume 3408.721406
_symmetry_space_group_name_H-M "C M M M"
_symmetry_group_IT_number 65
_symmetry_cell_setting 'orthorhombic'
loop_
_space_group_symop_operation_xyz
x,y,z
-x,-y,z
x,-y,-z
-x,y,-z
-x,-y,-z
x,y,-z
-x,y,z
x,-y,z
1/2+x,1/2+y,z
1/2-x,1/2-y,z
1/2+x,1/2-y,-z
1/2-x,1/2+y,-z
1/2-x,1/2-y,-z
1/2+x,1/2+y,-z
1/2-x,1/2+y,z
1/2+x,1/2-y,z
loop_
_atom_site_type_symbol
_atom_site_label
_atom_site_fract_x
_atom_site_fract_y
_atom_site_fract_z
Si Si1 0.733317 0.000000 0.307744
Si Si2 0.103770 0.822261 0.188194
Si Si3 0.279647 0.671505 0.193040
Si Si4 0.941786 0.656820 0.305154
Si Si5 0.554855 0.403741 0.500000
Si Si6 0.621411 0.000000 0.699017
O O1 0.764991 0.917561 0.268387
O O2 0.721009 0.000000 0.500000
O O3 0.677841 0.000000 0.221705
O O4 0.162327 0.809061 0.225572
O O5 0.074265 0.735836 0.197200
O O6 0.083904 0.883878 0.329622
O O7 0.095924 0.859097 0.000000
O O8 0.250000 0.750000 0.275174
O O9 0.265473 0.665764 0.000000
O O10 0.931368 0.676797 0.500000
O O11 0.908290 0.580929 0.237341
O O12 0.000000 0.634820 0.274486
O O13 0.545628 0.500000 0.500000
O O14 0.500000 0.357922 0.500000
O O15 0.620860 0.000000 0.500000
#
# Coordination Sequence:
#
# PCOD8269634 Si02
#       6
#     8  16  16  16   8   8
#     4  11  23  36  61  92 124 165 205 259 315 367
#     4  11  24  41  66  94 126 164 209 261 313 373
#     4  10  23  42  62  89 125 167 211 256 313 375
#     4  10  19  35  61  90 126 170 210 256 310 367
#     4  11  26  46  67  91 123 161 204 260 321 381
#     4   9  19  35  56  92 130 165 213 254 304 371
#
# _framework density 21.122288999999999
#
# number of rings (size 3 to 8) (size 9 to 14) (size 15 to 20)
#    0.000    1.667    1.111    2.667    3.111    4.000 
#    0.000    2.778    0.000    1.333    0.000    0.000 
#    0.000    0.000    0.000    0.000    0.000    0.000 
#
# Total GULP energy -446379.274406 kJ/mol
# GULP energy per Si atom -12399.424289 kJ/mol
# Density = 2.107421 g / cm^3
# Si number density = 21.122289 Si / 1000 Ang^3
#
#
#
# Elastic Constant Matrix: (Units=GPa)
#
#
# Indices 1 2 3 4 5 6 
#
# 1 99.9728 14.9281 44.0734 0.0000 0.0000 0.0000
# 2 14.9281 99.5639 25.6431 0.0000 0.0000 0.0000
# 3 44.0734 25.6431 91.8628 0.0000 0.0000 0.0000
# 4 0.0000 0.0000 0.0000 6.6318 0.0000 0.0000
# 5 0.0000 0.0000 0.0000 0.0000 18.5035 0.0000
# 6 0.0000 0.0000 0.0000 0.0000 0.0000 1.9448
#
#
#
# Elastic Compliance Matrix: (Units=1/GPa)
#
#
# Indices 1 2 3 4 5 6 
#
# 1 0.012698 -0.000361 -0.005991 0.000000 0.000000 0.000000
# 2 -0.000361 0.010832 -0.002851 0.000000 0.000000 0.000000
# 3 -0.005991 -0.002851 0.014556 0.000000 0.000000 0.000000
# 4 0.000000 0.000000 0.000000 0.150788 0.000000 0.000000
# 5 0.000000 0.000000 0.000000 0.000000 0.054044 0.000000
# 6 0.000000 0.000000 0.000000 0.000000 0.000000 0.514203
#
#
# Mechanical properties :
#
#
# Convention : Reuss Voigt Hill
#
# Bulk Modulus (GPa) = 50.81190 51.18764 50.99977
# Shear Modulus (GPa) = 6.39315 19.19967 12.79641
#
# Velocity S-wave (km/s) = 1.74164 3.01820 2.46402
# Velocity P-wave (km/s) = 5.30591 6.03594 5.68266
#
# Compressibility (1/GPa) = 0.01968043
#
# Stress axis : x y z
#
# Youngs Moduli (GPa) = 78.75288 92.31831 68.69968
#
# Poissons Ratio (x) = 0.03330 0.41161
# Poissons Ratio (y) = 0.02841 0.19584
# Poissons Ratio (z) = 0.47184 0.26317
#
# Static dielectric constant tensor:
#      x y z
#    x 4.001740 0.000000 0.000000 
#    y 0.000000 3.868390 0.000000 
#    z 0.000000 0.000000 3.720630 
# 
# 
# High freq. dielectric constant tensor:
#      x y z
#    x 1.845240 0.000000 0.000000 
#    y 0.000000 1.831470 0.000000 
#    z 0.000000 0.000000 1.813970 
# 
# From -- ./inp_files/15802.got.cif
#   From: 2010.03.12/outbox.cif.g09.slc.cpg/sg65_8_cif.got.tgz:15802.got - 2010.04.10 20:52:16.
