data_PCOD8269828
_publ_section_title
;
Structure prediction by ZEFSAII (Michael W. Deem and Ramdas Pophale) SiO2 
 PCOD8269828
Probable space group: C M M M
;
_chemical_formula_sum "Si O2"
_cell_formula_units_Z 112
_cell_length_a 15.144820
_cell_length_b 28.336879
_cell_length_c 14.424165
_cell_angle_alpha 90.000000
_cell_angle_beta 90.000000
_cell_angle_gamma 90.000000
_cell_volume 6190.230395
_symmetry_space_group_name_H-M "C M M M"
_symmetry_group_IT_number 65
_symmetry_cell_setting 'orthorhombic'
loop_
_space_group_symop_operation_xyz
x,y,z
-x,-y,z
x,-y,-z
-x,y,-z
-x,-y,-z
x,y,-z
-x,y,z
x,-y,z
1/2+x,1/2+y,z
1/2-x,1/2-y,z
1/2+x,1/2-y,-z
1/2-x,1/2+y,-z
1/2-x,1/2-y,-z
1/2+x,1/2+y,-z
1/2-x,1/2+y,z
1/2+x,1/2-y,z
loop_
_atom_site_type_symbol
_atom_site_label
_atom_site_fract_x
_atom_site_fract_y
_atom_site_fract_z
Si Si1 0.220129 0.053806 0.107460
Si Si2 0.901432 0.834060 0.398815
Si Si3 0.399254 0.100652 0.107197
Si Si4 0.893181 0.132558 0.203370
Si Si5 0.846968 0.228927 0.893157
Si Si6 0.097169 0.688642 0.223362
Si Si7 0.152313 0.732455 0.400518
O O1 0.325082 0.061342 0.128525
O O2 0.153280 0.085300 0.167235
O O3 0.198468 0.000000 0.132633
O O4 0.201372 0.064762 0.000000
O O5 0.852928 0.842742 0.500000
O O6 0.860573 0.861304 0.310469
O O7 0.906148 0.778207 0.375744
O O8 0.000000 0.852847 0.409423
O O9 0.500000 0.084592 0.134886
O O10 0.363790 0.146485 0.161914
O O11 0.398921 0.115021 0.000000
O O12 0.855473 0.175936 0.143770
O O13 0.000000 0.129514 0.194460
O O14 0.750000 0.250000 0.877216
O O15 0.909976 0.263239 0.835350
O O16 0.875086 0.229446 0.000000
O O17 0.150599 0.693951 0.319104
O O18 0.000000 0.674153 0.254411
O O19 0.121692 0.710655 0.500000
O O20 0.250000 0.750000 0.410394
#
# Coordination Sequence:
#
# PCOD8269828 Si02
#       7
#    16  16  16  16  16  16  16
#     4  10  22  39  58  79 103 135 175 222 275 323
#     4   9  18  33  51  72 100 136 177 215 251 295
#     4   9  19  35  55  80 107 136 174 219 266 318
#     4  11  22  35  54  80 108 142 180 217 263 318
#     4  11  22  33  47  69 101 142 180 213 249 295
#     4  11  20  30  47  72 103 138 169 204 252 303
#     4  10  20  31  45  69 101 140 181 215 248 293
#
# _framework density 18.093026999999999
#
# number of rings (size 3 to 8) (size 9 to 14) (size 15 to 20)
#    0.000    1.857    1.429    3.000    2.000    6.286 
#    0.000    2.143    0.000    0.429    0.000    2.000 
#    0.000    0.000    0.000    4.429    0.000    0.286 
#
# Total GULP energy -693872.681506 kJ/mol
# GULP energy per Si atom -12390.583598 kJ/mol
# Density = 1.805185 g / cm^3
# Si number density = 18.093027 Si / 1000 Ang^3
#
#
#
# Elastic Constant Matrix: (Units=GPa)
#
#
# Indices 1 2 3 4 5 6 
#
# 1 70.7621 29.8681 37.1456 0.0000 0.0000 0.0000
# 2 29.8681 79.7239 44.8214 0.0000 0.0000 0.0000
# 3 37.1456 44.8214 130.2395 0.0000 0.0000 0.0000
# 4 0.0000 0.0000 0.0000 14.7293 0.0000 0.0000
# 5 0.0000 0.0000 0.0000 0.0000 21.0247 0.0000
# 6 0.0000 0.0000 0.0000 0.0000 0.0000 23.0200
#
#
#
# Elastic Compliance Matrix: (Units=1/GPa)
#
#
# Indices 1 2 3 4 5 6 
#
# 1 0.017976 -0.004776 -0.003483 0.000000 0.000000 0.000000
# 2 -0.004776 0.016822 -0.004427 0.000000 0.000000 0.000000
# 3 -0.003483 -0.004427 0.010195 0.000000 0.000000 0.000000
# 4 0.000000 0.000000 0.000000 0.067892 0.000000 0.000000
# 5 0.000000 0.000000 0.000000 0.000000 0.047563 0.000000
# 6 0.000000 0.000000 0.000000 0.000000 0.000000 0.043441
#
#
# Mechanical properties :
#
#
# Convention : Reuss Voigt Hill
#
# Bulk Modulus (GPa) = 50.96819 56.04398 53.50609
# Shear Modulus (GPa) = 21.20426 23.01414 22.10920
#
# Velocity S-wave (km/s) = 3.42710 3.57037 3.49947
# Velocity P-wave (km/s) = 6.62505 6.93104 6.77977
#
# Compressibility (1/GPa) = 0.01962008
#
# Stress axis : x y z
#
# Youngs Moduli (GPa) = 55.62836 59.44762 98.08651
#
# Poissons Ratio (x) = 0.28395 0.34166
# Poissons Ratio (y) = 0.26571 0.43421
# Poissons Ratio (z) = 0.19377 0.26316
#
# Static dielectric constant tensor:
#      x y z
#    x 3.356490 0.000000 0.000000 
#    y 0.000000 3.159240 0.000000 
#    z 0.000000 0.000000 3.722750 
# 
# 
# High freq. dielectric constant tensor:
#      x y z
#    x 1.707850 0.000000 0.000000 
#    y 0.000000 1.654250 0.000000 
#    z 0.000000 0.000000 1.708830 
# 
# From -- ./inp_files/41052.got.cif
#   From: 2010.03.12/outbox.cif.g09.slc.cpg/sg65_21_cif.got.tgz:41052.got - 2010.04.10 20:52:16.
