data_PCOD8269827
_publ_section_title
;
Structure prediction by ZEFSAII (Michael W. Deem and Ramdas Pophale) SiO2 
 PCOD8269827
Probable space group: C M M M
;
_chemical_formula_sum "Si O2"
_cell_formula_units_Z 104
_cell_length_a 30.469816
_cell_length_b 8.915176
_cell_length_c 22.853092
_cell_angle_alpha 90.000000
_cell_angle_beta 90.000000
_cell_angle_gamma 90.000000
_cell_volume 6207.900120
_symmetry_space_group_name_H-M "C M M M"
_symmetry_group_IT_number 65
_symmetry_cell_setting 'orthorhombic'
loop_
_space_group_symop_operation_xyz
x,y,z
-x,-y,z
x,-y,-z
-x,y,-z
-x,-y,-z
x,y,-z
-x,y,z
x,-y,z
1/2+x,1/2+y,z
1/2-x,1/2-y,z
1/2+x,1/2-y,-z
1/2-x,1/2+y,-z
1/2-x,1/2-y,-z
1/2+x,1/2+y,-z
1/2-x,1/2+y,z
1/2+x,1/2-y,z
loop_
_atom_site_type_symbol
_atom_site_label
_atom_site_fract_x
_atom_site_fract_y
_atom_site_fract_z
Si Si1 0.408759 0.669378 0.604332
Si Si2 0.120916 0.170435 0.735427
Si Si3 0.325828 0.176612 0.563892
Si Si4 0.500000 0.678232 0.434523
Si Si5 0.794969 0.321205 0.689347
Si Si6 0.050923 0.324089 0.180294
Si Si7 0.551868 0.332520 0.936013
O O1 0.406413 0.500000 0.579857
O O2 0.399766 0.674252 0.672189
O O3 0.375404 0.766140 0.566255
O O4 0.456758 0.741672 0.596798
O O5 0.166402 0.263449 0.732197
O O6 0.084664 0.242240 0.777202
O O7 0.130884 0.000000 0.755535
O O8 0.305676 0.226848 0.500000
O O9 0.300424 0.237383 0.621570
O O10 0.326653 0.000000 0.567651
O O11 0.500000 0.500000 0.430535
O O12 0.500000 0.737744 0.500000
O O13 0.793254 0.500000 0.692738
O O14 0.750000 0.250000 0.713024
O O15 0.055706 0.500000 0.189334
O O16 0.066306 0.282467 0.114491
O O17 0.000000 0.273691 0.191677
O O18 0.500000 0.336817 0.939421
O O19 0.569440 0.500000 0.921312
O O20 0.570169 0.280834 0.000000
#
# Coordination Sequence:
#
# PCOD8269827 Si02
#       7
#    16  16  16   8  16  16  16
#     4   9  18  30  45  63  83 113 151 192 235 278
#     4  10  20  33  50  69  92 123 162 201 241 285
#     4   9  18  32  48  66  90 116 141 178 231 288
#     4   9  16  26  41  61  83 107 142 189 234 273
#     4  10  20  35  53  71  94 119 150 191 240 295
#     4  10  20  31  45  69 101 136 171 204 241 282
#     4   8  14  26  44  66  94 130 170 207 241 276
#
# _framework density 16.752846000000002
#
# number of rings (size 3 to 8) (size 9 to 14) (size 15 to 20)
#    0.000    2.692    0.000    2.308    1.077    3.692 
#    0.000    1.923    0.000    1.385    0.000    0.000 
#    0.000    0.615    0.000    2.308    0.000    3.538 
#
# Total GULP energy -644320.216980 kJ/mol
# GULP energy per Si atom -12390.773403 kJ/mol
# Density = 1.671472 g / cm^3
# Si number density = 16.752846 Si / 1000 Ang^3
#
#
#
# Elastic Constant Matrix: (Units=GPa)
#
#
# Indices 1 2 3 4 5 6 
#
# 1 99.5192 32.2390 30.8625 0.0000 0.0000 0.0000
# 2 32.2390 54.4315 35.0729 0.0000 0.0000 0.0000
# 3 30.8625 35.0729 65.0721 0.0000 0.0000 0.0000
# 4 0.0000 0.0000 0.0000 23.6379 0.0000 0.0000
# 5 0.0000 0.0000 0.0000 0.0000 7.4958 0.0000
# 6 0.0000 0.0000 0.0000 0.0000 0.0000 25.4997
#
#
#
# Elastic Compliance Matrix: (Units=1/GPa)
#
#
# Indices 1 2 3 4 5 6 
#
# 1 0.012816 -0.005629 -0.003044 0.000000 0.000000 0.000000
# 2 -0.005629 0.030619 -0.013834 0.000000 0.000000 0.000000
# 3 -0.003044 -0.013834 0.024268 0.000000 0.000000 0.000000
# 4 0.000000 0.000000 0.000000 0.042305 0.000000 0.000000
# 5 0.000000 0.000000 0.000000 0.000000 0.133408 0.000000
# 6 0.000000 0.000000 0.000000 0.000000 0.000000 0.039216
#
#
# Mechanical properties :
#
#
# Convention : Reuss Voigt Hill
#
# Bulk Modulus (GPa) = 44.07468 46.15241 45.11354
# Shear Modulus (GPa) = 14.91605 19.38325 17.14965
#
# Velocity S-wave (km/s) = 2.98713 3.40518 3.20298
# Velocity P-wave (km/s) = 6.18572 6.56271 6.37700
#
# Compressibility (1/GPa) = 0.02268877
#
# Stress axis : x y z
#
# Youngs Moduli (GPa) = 78.02778 32.65898 41.20717
#
# Poissons Ratio (x) = 0.18384 0.12545
# Poissons Ratio (y) = 0.43922 0.57005
# Poissons Ratio (z) = 0.23755 0.45179
#
# Static dielectric constant tensor:
#      x y z
#    x 3.079150 0.000000 0.000000 
#    y 0.000000 3.160320 0.000000 
#    z 0.000000 0.000000 3.427860 
# 
# 
# High freq. dielectric constant tensor:
#      x y z
#    x 1.623280 0.000000 0.000000 
#    y 0.000000 1.642080 0.000000 
#    z 0.000000 0.000000 1.631490 
# 
# From -- ./inp_files/72116.got.cif
#   From: 2010.03.12/outbox.cif.g09.slc.cpg/sg65_37_cif.got.tgz:72116.got - 2010.04.10 20:52:16.
