data_PCOD8269743
_publ_section_title
;
Structure prediction by ZEFSAII (Michael W. Deem and Ramdas Pophale) SiO2 
 PCOD8269743
Probable space group: C M M M
;
_chemical_formula_sum "Si O2"
_cell_formula_units_Z 88
_cell_length_a 25.292493
_cell_length_b 18.310261
_cell_length_c 10.429966
_cell_angle_alpha 90.000000
_cell_angle_beta 90.000000
_cell_angle_gamma 90.000000
_cell_volume 4830.243960
_symmetry_space_group_name_H-M "C M M M"
_symmetry_group_IT_number 65
_symmetry_cell_setting 'orthorhombic'
loop_
_space_group_symop_operation_xyz
x,y,z
-x,-y,z
x,-y,-z
-x,y,-z
-x,-y,-z
x,y,-z
-x,y,z
x,-y,z
1/2+x,1/2+y,z
1/2-x,1/2-y,z
1/2+x,1/2-y,-z
1/2-x,1/2+y,-z
1/2-x,1/2-y,-z
1/2+x,1/2+y,-z
1/2-x,1/2+y,z
1/2+x,1/2-y,z
loop_
_atom_site_type_symbol
_atom_site_label
_atom_site_fract_x
_atom_site_fract_y
_atom_site_fract_z
Si Si1 0.500000 0.205548 0.144020
Si Si2 0.000000 0.173783 0.641921
Si Si3 0.614158 0.664615 0.645164
Si Si4 0.940781 0.585879 0.500000
Si Si5 0.814764 0.085413 0.853882
Si Si6 0.897319 0.668913 0.731707
Si Si7 0.194077 0.418955 0.849810
O O1 0.500000 0.269651 0.244573
O O2 0.554212 0.160741 0.166990
O O3 0.500000 0.236153 0.000000
O O4 0.054935 0.128439 0.653617
O O5 0.000000 0.212188 0.500000
O O6 0.636683 0.653689 0.500000
O O7 0.650195 0.627581 0.751138
O O8 0.609281 0.750309 0.675088
O O9 0.943543 0.500000 0.500000
O O10 0.908625 0.611697 0.621698
O O11 0.000000 0.619481 0.500000
O O12 0.754337 0.102559 0.818090
O O13 0.826746 0.000000 0.842421
O O14 0.827438 0.111532 0.000000
O O15 0.842595 0.644536 0.794938
O O16 0.181348 0.500000 0.793269
O O17 0.185879 0.422214 0.000000
#
# Coordination Sequence:
#
# PCOD8269743 Si02
#       7
#     8   8  16   8  16  16  16
#     4  10  20  30  50  80 113 144 180 228 274 316
#     4   8  18  34  55  77 111 152 179 209 270 336
#     4  10  20  35  58  84 112 147 181 228 278 328
#     4  11  22  36  56  79 109 159 199 223 267 330
#     4   9  20  40  61  80 108 147 187 228 282 344
#     4  11  20  35  55  79 115 145 190 231 277 324
#     4   9  19  37  57  76 105 147 189 232 283 334
#
# _framework density 18.218543
#
# number of rings (size 3 to 8) (size 9 to 14) (size 15 to 20)
#    0.000    2.273    1.818    2.182    1.273    4.727 
#    1.636    3.182    0.000    4.909    0.000    0.000 
#    0.000    0.000    0.000    0.000    0.000    0.000 
#
# Total GULP energy -545221.121089 kJ/mol
# GULP energy per Si atom -12391.389116 kJ/mol
# Density = 1.817708 g / cm^3
# Si number density = 18.218543 Si / 1000 Ang^3
#
#
#
# Elastic Constant Matrix: (Units=GPa)
#
#
# Indices 1 2 3 4 5 6 
#
# 1 128.2406 44.8959 74.4698 0.0000 0.0000 0.0000
# 2 44.8959 49.7743 36.6176 0.0000 0.0000 0.0000
# 3 74.4698 36.6176 123.4471 0.0000 0.0000 0.0000
# 4 0.0000 0.0000 0.0000 32.8180 0.0000 0.0000
# 5 0.0000 0.0000 0.0000 0.0000 41.1820 0.0000
# 6 0.0000 0.0000 0.0000 0.0000 0.0000 29.4839
#
#
#
# Elastic Compliance Matrix: (Units=1/GPa)
#
#
# Indices 1 2 3 4 5 6 
#
# 1 0.014296 -0.008379 -0.006139 0.000000 0.000000 0.000000
# 2 -0.008379 0.030609 -0.004025 0.000000 0.000000 0.000000
# 3 -0.006139 -0.004025 0.012998 0.000000 0.000000 0.000000
# 4 0.000000 0.000000 0.000000 0.030471 0.000000 0.000000
# 5 0.000000 0.000000 0.000000 0.000000 0.024282 0.000000
# 6 0.000000 0.000000 0.000000 0.000000 0.000000 0.033917
#
#
# Mechanical properties :
#
#
# Convention : Reuss Voigt Hill
#
# Bulk Modulus (GPa) = 48.03516 68.15873 58.09694
# Shear Modulus (GPa) = 26.23328 30.39537 28.31433
#
# Velocity S-wave (km/s) = 3.79875 4.08901 3.94655
# Velocity P-wave (km/s) = 6.75751 7.73216 7.26121
#
# Compressibility (1/GPa) = 0.02081808
#
# Stress axis : x y z
#
# Youngs Moduli (GPa) = 69.94997 32.66981 76.93622
#
# Poissons Ratio (x) = 0.27373 0.47229
# Poissons Ratio (y) = 0.58609 0.30967
# Poissons Ratio (z) = 0.42940 0.13150
#
# Static dielectric constant tensor:
#      x y z
#    x 3.943050 0.000000 0.000000 
#    y 0.000000 3.098290 0.000000 
#    z 0.000000 0.000000 3.421430 
# 
# 
# High freq. dielectric constant tensor:
#      x y z
#    x 1.717420 0.000000 0.000000 
#    y 0.000000 1.678250 0.000000 
#    z 0.000000 0.000000 1.712660 
# 
# From -- ./inp_files/14027.got.cif
#   From: 2010.03.12/outbox.cif.g09.slc.cpg/sg65_8_cif.got.tgz:14027.got - 2010.04.10 20:52:16.
