data_PCOD8269304
_publ_section_title
;
Structure prediction by ZEFSAII (Michael W. Deem and Ramdas Pophale) SiO2 
 PCOD8269304
Probable space group: C M M M
;
_chemical_formula_sum "Si O2"
_cell_formula_units_Z 96
_cell_length_a 19.334180
_cell_length_b 29.865448
_cell_length_c 9.362317
_cell_angle_alpha 90.000000
_cell_angle_beta 90.000000
_cell_angle_gamma 90.000000
_cell_volume 5406.026039
_symmetry_space_group_name_H-M "C M M M"
_symmetry_group_IT_number 65
_symmetry_cell_setting 'orthorhombic'
loop_
_space_group_symop_operation_xyz
x,y,z
-x,-y,z
x,-y,-z
-x,y,-z
-x,-y,-z
x,y,-z
-x,y,z
x,-y,z
1/2+x,1/2+y,z
1/2-x,1/2-y,z
1/2+x,1/2-y,-z
1/2-x,1/2+y,-z
1/2-x,1/2-y,-z
1/2+x,1/2+y,-z
1/2-x,1/2+y,z
1/2+x,1/2-y,z
loop_
_atom_site_type_symbol
_atom_site_label
_atom_site_fract_x
_atom_site_fract_y
_atom_site_fract_z
Si Si1 0.423978 0.946823 0.659833
Si Si2 0.421234 0.240393 0.832807
Si Si3 0.205850 0.447562 0.165592
Si Si4 0.796996 0.707921 0.666307
Si Si5 0.711039 0.619783 0.336141
Si Si6 0.577392 0.329857 0.337835
O O1 0.407135 0.929471 0.500000
O O2 0.500000 0.929297 0.707958
O O3 0.365660 0.928878 0.766983
O O4 0.424506 0.000000 0.661183
O O5 0.500000 0.224442 0.803301
O O6 0.368264 0.206701 0.755805
O O7 0.409030 0.289602 0.769848
O O8 0.405012 0.241934 0.000000
O O9 0.215827 0.500000 0.195170
O O10 0.269606 0.422042 0.237399
O O11 0.203559 0.436269 0.000000
O O12 0.815785 0.710988 0.500000
O O13 0.750000 0.750000 0.712813
O O14 0.756189 0.662987 0.704182
O O15 0.722901 0.605959 0.500000
O O16 0.630633 0.630255 0.304849
O O17 0.589947 0.312083 0.500000
O O18 0.500000 0.349159 0.319786
#
# Coordination Sequence:
#
# PCOD8269304 Si02
#       6
#    16  16  16  16  16  16
#     4   8  14  27  49  74  97 124 162 207 252 299
#     4  10  20  32  48  74 107 142 177 210 250 301
#     4  10  21  35  51  74 104 137 173 214 261 310
#     4  10  19  34  53  76 104 133 169 211 254 304
#     4  10  20  34  54  79 103 132 172 214 258 309
#     4   9  17  32  54  77 102 133 170 213 258 304
#
# _framework density 17.757961000000002
#
# number of rings (size 3 to 8) (size 9 to 14) (size 15 to 20)
#    0.000    2.500    1.667    1.500    0.000    4.000 
#    0.000    2.500    0.000    1.500    0.000    3.500 
#    0.000    0.000    0.000    0.000    0.000    0.000 
#
# Total GULP energy -595166.626309 kJ/mol
# GULP energy per Si atom -12399.304715 kJ/mol
# Density = 1.771754 g / cm^3
# Si number density = 17.757961 Si / 1000 Ang^3
#
#
#
# Elastic Constant Matrix: (Units=GPa)
#
#
# Indices 1 2 3 4 5 6 
#
# 1 132.2535 41.6104 67.2528 0.0000 0.0000 0.0000
# 2 41.6104 48.5644 40.1509 0.0000 0.0000 0.0000
# 3 67.2528 40.1509 95.5721 0.0000 0.0000 0.0000
# 4 0.0000 0.0000 0.0000 24.4311 0.0000 0.0000
# 5 0.0000 0.0000 0.0000 0.0000 24.4165 0.0000
# 6 0.0000 0.0000 0.0000 0.0000 0.0000 23.9915
#
#
#
# Elastic Compliance Matrix: (Units=1/GPa)
#
#
# Indices 1 2 3 4 5 6 
#
# 1 0.012610 -0.005314 -0.006641 0.000000 0.000000 0.000000
# 2 -0.005314 0.033789 -0.010456 0.000000 0.000000 0.000000
# 3 -0.006641 -0.010456 0.019529 0.000000 0.000000 0.000000
# 4 0.000000 0.000000 0.000000 0.040931 0.000000 0.000000
# 5 0.000000 0.000000 0.000000 0.000000 0.040956 0.000000
# 6 0.000000 0.000000 0.000000 0.000000 0.000000 0.041681
#
#
# Mechanical properties :
#
#
# Convention : Reuss Voigt Hill
#
# Bulk Modulus (GPa) = 47.37894 63.82425 55.60160
# Shear Modulus (GPa) = 20.71647 23.05954 21.88801
#
# Velocity S-wave (km/s) = 3.41926 3.60744 3.51461
# Velocity P-wave (km/s) = 6.50590 7.30553 6.91728
#
# Compressibility (1/GPa) = 0.02110642
#
# Stress axis : x y z
#
# Youngs Moduli (GPa) = 79.30016 29.59586 51.20535
#
# Poissons Ratio (x) = 0.15727 0.34007
# Poissons Ratio (y) = 0.42139 0.53538
# Poissons Ratio (z) = 0.52665 0.30944
#
# Static dielectric constant tensor:
#      x y z
#    x 3.593560 0.000000 0.000000 
#    y 0.000000 2.921790 0.000000 
#    z 0.000000 0.000000 3.310430 
# 
# 
# High freq. dielectric constant tensor:
#      x y z
#    x 1.696730 0.000000 0.000000 
#    y 0.000000 1.647350 0.000000 
#    z 0.000000 0.000000 1.685790 
# 
# From -- ./inp_files/12199.got.cif
#   From: 2010.03.12/outbox.cif.g09.slc.cpg/sg65_7_cif.got.tgz:12199.got - 2010.04.10 20:52:16.
