data_PCOD8269282
_publ_section_title
;
Structure prediction by ZEFSAII (Michael W. Deem and Ramdas Pophale) SiO2 
 PCOD8269282
Probable space group: C M M M
;
_chemical_formula_sum "Si O2"
_cell_formula_units_Z 88
_cell_length_a 17.806147
_cell_length_b 29.278978
_cell_length_c 9.309564
_cell_angle_alpha 90.000000
_cell_angle_beta 90.000000
_cell_angle_gamma 90.000000
_cell_volume 4853.501963
_symmetry_space_group_name_H-M "C M M M"
_symmetry_group_IT_number 65
_symmetry_cell_setting 'orthorhombic'
loop_
_space_group_symop_operation_xyz
x,y,z
-x,-y,z
x,-y,-z
-x,y,-z
-x,-y,-z
x,y,-z
-x,y,z
x,-y,z
1/2+x,1/2+y,z
1/2-x,1/2-y,z
1/2+x,1/2-y,-z
1/2-x,1/2+y,-z
1/2-x,1/2-y,-z
1/2+x,1/2+y,-z
1/2-x,1/2+y,z
1/2+x,1/2-y,z
loop_
_atom_site_type_symbol
_atom_site_label
_atom_site_fract_x
_atom_site_fract_y
_atom_site_fract_z
Si Si1 0.305058 0.291694 0.163290
Si Si2 0.237176 0.610554 0.165450
Si Si3 0.413144 0.759960 0.339982
Si Si4 0.146313 0.054019 0.334509
Si Si5 0.584131 0.149159 0.165753
Si Si6 0.000000 0.945665 0.836127
O O1 0.250000 0.250000 0.195151
O O2 0.266118 0.339050 0.202834
O O3 0.376486 0.284084 0.264813
O O4 0.332887 0.291647 0.000000
O O5 0.277618 0.574473 0.268092
O O6 0.146978 0.610267 0.196878
O O7 0.253415 0.597381 0.000000
O O8 0.380675 0.765874 0.500000
O O9 0.500000 0.748888 0.343103
O O10 0.395812 0.806335 0.255848
O O11 0.137782 0.069111 0.500000
O O12 0.074093 0.072425 0.246208
O O13 0.152756 0.000000 0.321353
O O14 0.500000 0.130548 0.201997
O O15 0.589948 0.164249 0.000000
O O16 0.000000 0.000000 0.834749
O O17 0.000000 0.927111 0.000000
#
# Coordination Sequence:
#
# PCOD8269282 Si02
#       6
#    16  16  16  16  16   8
#     4  10  19  34  52  73 102 136 173 213 257 307
#     4  10  20  34  54  80 105 134 176 220 263 313
#     4  10  20  32  47  70 100 136 177 216 255 303
#     4  10  21  37  57  81 109 140 173 212 261 314
#     4   9  17  32  54  76 101 136 176 218 263 311
#     4   9  17  33  59  85 107 135 173 215 257 305
#
# _framework density 18.131238
#
# number of rings (size 3 to 8) (size 9 to 14) (size 15 to 20)
#    0.000    2.273    1.818    1.364    0.000    5.091 
#    1.636    0.000    0.000    0.545    0.000    3.818 
#    0.000    0.000    0.000    0.000    0.000    0.000 
#
# Total GULP energy -545533.903173 kJ/mol
# GULP energy per Si atom -12398.497799 kJ/mol
# Density = 1.808997 g / cm^3
# Si number density = 18.131238 Si / 1000 Ang^3
#
#
#
# Elastic Constant Matrix: (Units=GPa)
#
#
# Indices 1 2 3 4 5 6 
#
# 1 116.6702 31.0231 66.1658 0.0000 0.0000 0.0000
# 2 31.0231 32.4395 32.2153 0.0000 0.0000 0.0000
# 3 66.1658 32.2153 113.2848 0.0000 0.0000 0.0000
# 4 0.0000 0.0000 0.0000 22.9330 0.0000 0.0000
# 5 0.0000 0.0000 0.0000 0.0000 25.0891 0.0000
# 6 0.0000 0.0000 0.0000 0.0000 0.0000 28.6344
#
#
#
# Elastic Compliance Matrix: (Units=1/GPa)
#
#
# Indices 1 2 3 4 5 6 
#
# 1 0.013962 -0.007322 -0.006073 0.000000 0.000000 0.000000
# 2 -0.007322 0.046798 -0.009032 0.000000 0.000000 0.000000
# 3 -0.006073 -0.009032 0.014943 0.000000 0.000000 0.000000
# 4 0.000000 0.000000 0.000000 0.043605 0.000000 0.000000
# 5 0.000000 0.000000 0.000000 0.000000 0.039858 0.000000
# 6 0.000000 0.000000 0.000000 0.000000 0.000000 0.034923
#
#
# Mechanical properties :
#
#
# Convention : Reuss Voigt Hill
#
# Bulk Modulus (GPa) = 32.41463 57.91144 45.16303
# Shear Modulus (GPa) = 20.06226 24.19732 22.12979
#
# Velocity S-wave (km/s) = 3.33002 3.65713 3.49740
# Velocity P-wave (km/s) = 5.71856 7.05991 6.42434
#
# Compressibility (1/GPa) = 0.03085027
#
# Stress axis : x y z
#
# Youngs Moduli (GPa) = 71.62347 21.36845 66.92319
#
# Poissons Ratio (x) = 0.15645 0.40640
# Poissons Ratio (y) = 0.52440 0.60444
# Poissons Ratio (z) = 0.43494 0.19300
#
# Static dielectric constant tensor:
#      x y z
#    x 3.666770 0.000000 0.000000 
#    y 0.000000 2.965470 0.000000 
#    z 0.000000 0.000000 3.524010 
# 
# 
# High freq. dielectric constant tensor:
#      x y z
#    x 1.712860 0.000000 0.000000 
#    y 0.000000 1.658870 0.000000 
#    z 0.000000 0.000000 1.709150 
# 
# From -- ./inp_files/10003.got.cif
#   From: 2010.03.12/outbox.cif.g09.slc.cpg/sg65_6_cif.got.tgz:10003.got - 2010.04.10 20:52:16.
