data_PCOD8269872
_publ_section_title
;
Structure prediction by ZEFSAII (Michael W. Deem and Ramdas Pophale) SiO2 
 PCOD8269872
Probable space group: C M M M
;
_chemical_formula_sum "Si O2"
_cell_formula_units_Z 112
_cell_length_a 18.225646
_cell_length_b 21.193585
_cell_length_c 14.667335
_cell_angle_alpha 90.000000
_cell_angle_beta 90.000000
_cell_angle_gamma 90.000000
_cell_volume 5665.504228
_symmetry_space_group_name_H-M "C M M M"
_symmetry_group_IT_number 65
_symmetry_cell_setting 'orthorhombic'
loop_
_space_group_symop_operation_xyz
x,y,z
-x,-y,z
x,-y,-z
-x,y,-z
-x,-y,-z
x,y,-z
-x,y,z
x,-y,z
1/2+x,1/2+y,z
1/2-x,1/2-y,z
1/2+x,1/2-y,-z
1/2-x,1/2+y,-z
1/2-x,1/2-y,-z
1/2+x,1/2+y,-z
1/2-x,1/2+y,z
1/2+x,1/2-y,z
loop_
_atom_site_type_symbol
_atom_site_label
_atom_site_fract_x
_atom_site_fract_y
_atom_site_fract_z
Si Si1 0.665933 0.425431 0.104777
Si Si2 0.698260 0.309762 0.604841
Si Si3 0.578995 0.069853 0.265479
Si Si4 0.915298 0.162699 0.760113
Si Si5 0.199490 0.427504 0.602891
Si Si6 0.168415 0.603805 0.102443
Si Si7 0.081570 0.273011 0.899529
O O1 0.660998 0.500000 0.113030
O O2 0.612989 0.397529 0.182537
O O3 0.747298 0.402347 0.131263
O O4 0.646202 0.404959 0.000000
O O5 0.673278 0.299080 0.500000
O O6 0.750000 0.250000 0.633817
O O7 0.627378 0.317330 0.668676
O O8 0.735024 0.378478 0.615102
O O9 0.500000 0.105644 0.262138
O O10 0.634289 0.102504 0.336191
O O11 0.615672 0.063446 0.166469
O O12 0.565322 0.000000 0.302558
O O13 0.903956 0.220363 0.826868
O O14 0.000000 0.150687 0.733936
O O15 0.170839 0.428065 0.500000
O O16 0.222021 0.500000 0.632057
O O17 0.144891 0.676013 0.114257
O O18 0.156935 0.578695 0.000000
O O19 0.000000 0.303021 0.887663
O O20 0.088803 0.242759 0.000000
#
# Coordination Sequence:
#
# PCOD8269872 Si02
#       7
#    16  16  16  16  16  16  16
#     4  10  22  39  60  88 121 159 205 254 303 358
#     4  10  23  42  63  89 121 155 196 248 307 366
#     4  10  20  31  48  79 115 150 189 233 281 337
#     4  11  24  39  61  89 117 155 197 243 300 361
#     4   9  19  38  62  84 109 147 195 245 296 354
#     4  10  20  34  53  78 112 154 197 238 282 336
#     4   9  19  35  54  81 117 154 193 237 287 348
#
# _framework density 19.768761999999999
#
# number of rings (size 3 to 8) (size 9 to 14) (size 15 to 20)
#    0.000    2.143    0.000    2.143    4.000    5.143 
#    0.000    5.000    0.000    2.571    0.000    3.000 
#    0.000    0.000    0.000    0.000    0.000    0.000 
#
# Total GULP energy -693924.496910 kJ/mol
# GULP energy per Si atom -12391.508873 kJ/mol
# Density = 1.972377 g / cm^3
# Si number density = 19.768762 Si / 1000 Ang^3
#
#
#
# Elastic Constant Matrix: (Units=GPa)
#
#
# Indices 1 2 3 4 5 6 
#
# 1 124.8708 46.1977 73.2267 0.0000 0.0000 0.0000
# 2 46.1977 81.7705 38.4335 0.0000 0.0000 0.0000
# 3 73.2267 38.4335 109.8788 0.0000 0.0000 0.0000
# 4 0.0000 0.0000 0.0000 26.3642 0.0000 0.0000
# 5 0.0000 0.0000 0.0000 0.0000 21.8679 0.0000
# 6 0.0000 0.0000 0.0000 0.0000 0.0000 19.9705
#
#
#
# Elastic Compliance Matrix: (Units=1/GPa)
#
#
# Indices 1 2 3 4 5 6 
#
# 1 0.014313 -0.004312 -0.008030 0.000000 0.000000 0.000000
# 2 -0.004312 0.015934 -0.002700 0.000000 0.000000 0.000000
# 3 -0.008030 -0.002700 0.015397 0.000000 0.000000 0.000000
# 4 0.000000 0.000000 0.000000 0.037930 0.000000 0.000000
# 5 0.000000 0.000000 0.000000 0.000000 0.045729 0.000000
# 6 0.000000 0.000000 0.000000 0.000000 0.000000 0.050074
#
#
# Mechanical properties :
#
#
# Convention : Reuss Voigt Hill
#
# Bulk Modulus (GPa) = 64.26773 70.24841 67.25807
# Shear Modulus (GPa) = 23.29400 24.21801 23.75601
#
# Velocity S-wave (km/s) = 3.43640 3.50389 3.47031
# Velocity P-wave (km/s) = 6.95165 7.20984 7.08192
#
# Compressibility (1/GPa) = 0.01555991
#
# Stress axis : x y z
#
# Youngs Moduli (GPa) = 69.86896 62.75715 64.94827
#
# Poissons Ratio (x) = 0.27060 0.52154
# Poissons Ratio (y) = 0.30126 0.17536
# Poissons Ratio (z) = 0.56106 0.16945
#
# Static dielectric constant tensor:
#      x y z
#    x 3.708970 0.000000 0.000000 
#    y 0.000000 3.551450 0.000000 
#    z 0.000000 0.000000 3.885660 
# 
# 
# High freq. dielectric constant tensor:
#      x y z
#    x 1.761290 0.000000 0.000000 
#    y 0.000000 1.765030 0.000000 
#    z 0.000000 0.000000 1.778930 
# 
# From -- ./inp_files/40761.got.cif
#   From: 2010.03.12/outbox.cif.g09.slc.cpg/sg65_21_cif.got.tgz:40761.got - 2010.04.10 20:52:16.
