data_PCOD8269085
_publ_section_title
;
Structure prediction by ZEFSAII (Michael W. Deem and Ramdas Pophale) SiO2 
 PCOD8269085
Probable space group: C M M M
;
_chemical_formula_sum "Si O2"
_cell_formula_units_Z 88
_cell_length_a 9.447520
_cell_length_b 26.376480
_cell_length_c 19.039310
_cell_angle_alpha 90.000000
_cell_angle_beta 90.000000
_cell_angle_gamma 90.000000
_cell_volume 4744.449874
_symmetry_space_group_name_H-M "C M M M"
_symmetry_group_IT_number 65
_symmetry_cell_setting 'orthorhombic'
loop_
_space_group_symop_operation_xyz
x,y,z
-x,-y,z
x,-y,-z
-x,y,-z
-x,-y,-z
x,y,-z
-x,y,z
x,-y,z
1/2+x,1/2+y,z
1/2-x,1/2-y,z
1/2+x,1/2-y,-z
1/2-x,1/2+y,-z
1/2-x,1/2-y,-z
1/2+x,1/2+y,-z
1/2-x,1/2+y,z
1/2+x,1/2-y,z
loop_
_atom_site_type_symbol
_atom_site_label
_atom_site_fract_x
_atom_site_fract_y
_atom_site_fract_z
Si Si1 0.842467 0.295209 0.417171
Si Si2 0.168076 0.500000 0.921465
Si Si3 0.337301 0.443113 0.281037
Si Si4 0.835379 0.299173 0.081415
Si Si5 0.167403 0.599212 0.838513
Si Si6 0.339248 0.391495 0.578615
O O1 0.853299 0.287266 0.500000
O O2 0.750000 0.250000 0.383412
O O3 0.766159 0.347289 0.398849
O O4 0.000000 0.295203 0.383973
O O5 0.221882 0.551022 0.883425
O O6 0.000000 0.500000 0.923985
O O7 0.230917 0.500000 0.000000
O O8 0.500000 0.434626 0.259796
O O9 0.287392 0.500000 0.263773
O O10 0.242246 0.403666 0.237310
O O11 0.317041 0.435674 0.364709
O O12 0.750000 0.250000 0.108327
O O13 0.785840 0.348769 0.124020
O O14 0.000000 0.288078 0.093729
O O15 0.802567 0.310042 0.000000
O O16 0.000000 0.597356 0.827787
O O17 0.304743 0.412023 0.500000
O O18 0.500000 0.370442 0.580859
#
# Coordination Sequence:
#
# PCOD8269085 Si02
#       6
#    16   8  16  16  16  16
#     4   9  16  27  46  72 100 127 156 198 254 310
#     4   9  16  28  51  81 106 131 170 218 257 293
#     4  10  21  36  53  74 103 137 170 213 271 325
#     4   9  18  33  54  81 111 143 180 219 258 303
#     4  10  19  33  54  79 106 140 179 216 257 312
#     4   9  18  33  52  73  97 130 175 221 264 314
#
# _framework density 18.547989000000001
#
# number of rings (size 3 to 8) (size 9 to 14) (size 15 to 20)
#    0.000    2.636    0.909    1.091    0.000    6.182 
#    0.000    2.727    0.000    4.364    0.000    3.818 
#    0.000    0.000    0.000    0.000    0.000    0.000 
#
# Total GULP energy -545508.846720 kJ/mol
# GULP energy per Si atom -12397.928335 kJ/mol
# Density = 1.850577 g / cm^3
# Si number density = 18.547989 Si / 1000 Ang^3
#
#
#
# Elastic Constant Matrix: (Units=GPa)
#
#
# Indices 1 2 3 4 5 6 
#
# 1 71.9933 51.7781 34.2686 0.0000 0.0000 0.0000
# 2 51.7781 131.7658 56.9595 0.0000 0.0000 0.0000
# 3 34.2686 56.9595 95.0059 0.0000 0.0000 0.0000
# 4 0.0000 0.0000 0.0000 26.7687 0.0000 0.0000
# 5 0.0000 0.0000 0.0000 0.0000 24.6325 0.0000
# 6 0.0000 0.0000 0.0000 0.0000 0.0000 28.8633
#
#
#
# Elastic Compliance Matrix: (Units=1/GPa)
#
#
# Indices 1 2 3 4 5 6 
#
# 1 0.020145 -0.006446 -0.003402 0.000000 0.000000 0.000000
# 2 -0.006446 0.012306 -0.005053 0.000000 0.000000 0.000000
# 3 -0.003402 -0.005053 0.014782 0.000000 0.000000 0.000000
# 4 0.000000 0.000000 0.000000 0.037357 0.000000 0.000000
# 5 0.000000 0.000000 0.000000 0.000000 0.040597 0.000000
# 6 0.000000 0.000000 0.000000 0.000000 0.000000 0.034646
#
#
# Mechanical properties :
#
#
# Convention : Reuss Voigt Hill
#
# Bulk Modulus (GPa) = 57.36452 64.97527 61.16989
# Shear Modulus (GPa) = 25.58245 26.43681 26.00963
#
# Velocity S-wave (km/s) = 3.71786 3.77944 3.74878
# Velocity P-wave (km/s) = 7.03028 7.35884 7.19643
#
# Compressibility (1/GPa) = 0.01743238
#
# Stress axis : x y z
#
# Youngs Moduli (GPa) = 49.63954 81.25819 67.64798
#
# Poissons Ratio (x) = 0.52375 0.23014
# Poissons Ratio (y) = 0.31995 0.34184
# Poissons Ratio (z) = 0.16888 0.41062
#
# Static dielectric constant tensor:
#      x y z
#    x 3.361960 0.000000 0.000000 
#    y 0.000000 3.389680 0.000000 
#    z 0.000000 0.000000 3.254190 
# 
# 
# High freq. dielectric constant tensor:
#      x y z
#    x 1.708890 0.000000 0.000000 
#    y 0.000000 1.716760 0.000000 
#    z 0.000000 0.000000 1.702570 
# 
# From -- ./inp_files/59819.got.cif
#   From: 2010.03.12/outbox.cif.g09.slc.cpg/sg65_30_cif.got.tgz:59819.got - 2010.04.10 20:52:16.
