data_PCOD8269644
_publ_section_title
;
Structure prediction by ZEFSAII (Michael W. Deem and Ramdas Pophale) SiO2 
 PCOD8269644
Probable space group: C M M M
;
_chemical_formula_sum "Si O2"
_cell_formula_units_Z 72
_cell_length_a 28.929135
_cell_length_b 10.440539
_cell_length_c 11.815786
_cell_angle_alpha 90.000000
_cell_angle_beta 90.000000
_cell_angle_gamma 90.000000
_cell_volume 3568.789931
_symmetry_space_group_name_H-M "C M M M"
_symmetry_group_IT_number 65
_symmetry_cell_setting 'orthorhombic'
loop_
_space_group_symop_operation_xyz
x,y,z
-x,-y,z
x,-y,-z
-x,y,-z
-x,-y,-z
x,y,-z
-x,y,z
x,-y,z
1/2+x,1/2+y,z
1/2-x,1/2-y,z
1/2+x,1/2-y,-z
1/2-x,1/2+y,-z
1/2-x,1/2-y,-z
1/2+x,1/2+y,-z
1/2-x,1/2+y,z
1/2+x,1/2-y,z
loop_
_atom_site_type_symbol
_atom_site_label
_atom_site_fract_x
_atom_site_fract_y
_atom_site_fract_z
Si Si1 0.404576 0.653871 0.500000
Si Si2 0.824612 0.357152 0.500000
Si Si3 0.550915 0.000000 0.865985
Si Si4 0.212003 0.353100 0.255436
Si Si5 0.381931 0.222002 0.133171
Si Si6 0.949775 0.853934 0.728789
O O1 0.393409 0.500000 0.500000
O O2 0.357849 0.735733 0.500000
O O3 0.432793 0.702136 0.390959
O O4 0.848586 0.500000 0.500000
O O5 0.792236 0.346611 0.609830
O O6 0.579730 0.878951 0.825087
O O7 0.500000 0.000000 0.810795
O O8 0.547233 0.000000 0.000000
O O9 0.224477 0.500000 0.218053
O O10 0.250000 0.250000 0.214489
O O11 0.165251 0.308731 0.195216
O O12 0.408393 0.347845 0.177488
O O13 0.372620 0.225536 0.000000
O O14 0.000000 0.792443 0.764923
O O15 0.959348 0.000000 0.706771
#
# Coordination Sequence:
#
# PCOD8269644 Si02
#       6
#     8   8   8  16  16  16
#     4  10  19  35  63  91 121 163 206 249 308 377
#     4  10  21  40  64  92 122 153 195 260 322 369
#     4   9  18  34  58  85 115 157 203 244 294 355
#     4  11  24  42  65  91 123 161 205 260 319 377
#     4  11  22  38  60  86 121 162 207 255 303 362
#     4  10  21  37  59  89 125 164 205 251 306 370
#
# _framework density 20.174906
#
# number of rings (size 3 to 8) (size 9 to 14) (size 15 to 20)
#    0.000    1.667    3.333    1.333    0.000    5.333 
#    0.000    1.111    0.000    0.667    0.000    0.000 
#    0.000    0.000    0.000    0.000    0.000    0.000 
#
# Total GULP energy -446016.130597 kJ/mol
# GULP energy per Si atom -12389.336961 kJ/mol
# Density = 2.012899 g / cm^3
# Si number density = 20.174906 Si / 1000 Ang^3
#
#
#
# Elastic Constant Matrix: (Units=GPa)
#
#
# Indices 1 2 3 4 5 6 
#
# 1 153.9336 57.5550 38.0966 0.0000 0.0000 0.0000
# 2 57.5550 74.3302 12.4334 0.0000 0.0000 0.0000
# 3 38.0966 12.4334 83.7390 0.0000 0.0000 0.0000
# 4 0.0000 0.0000 0.0000 16.8643 0.0000 0.0000
# 5 0.0000 0.0000 0.0000 0.0000 21.6580 0.0000
# 6 0.0000 0.0000 0.0000 0.0000 0.0000 50.3156
#
#
#
# Elastic Compliance Matrix: (Units=1/GPa)
#
#
# Indices 1 2 3 4 5 6 
#
# 1 0.010056 -0.007200 -0.003506 0.000000 0.000000 0.000000
# 2 -0.007200 0.018951 0.000462 0.000000 0.000000 0.000000
# 3 -0.003506 0.000462 0.013468 0.000000 0.000000 0.000000
# 4 0.000000 0.000000 0.000000 0.059297 0.000000 0.000000
# 5 0.000000 0.000000 0.000000 0.000000 0.046172 0.000000
# 6 0.000000 0.000000 0.000000 0.000000 0.000000 0.019875
#
#
# Mechanical properties :
#
#
# Convention : Reuss Voigt Hill
#
# Bulk Modulus (GPa) = 45.48080 58.68587 52.08333
# Shear Modulus (GPa) = 25.55754 31.36209 28.45981
#
# Velocity S-wave (km/s) = 3.56307 3.94700 3.75994
# Velocity P-wave (km/s) = 6.28645 7.06566 6.68741
#
# Compressibility (1/GPa) = 0.02198730
#
# Stress axis : x y z
#
# Youngs Moduli (GPa) = 99.44256 52.76656 74.24851
#
# Poissons Ratio (x) = 0.37993 0.26031
# Poissons Ratio (y) = 0.71600 -0.03429
# Poissons Ratio (z) = 0.34863 -0.02437
#
# Static dielectric constant tensor:
#      x y z
#    x 3.867030 0.000000 0.000000 
#    y 0.000000 3.853570 0.000000 
#    z 0.000000 0.000000 3.589360 
# 
# 
# High freq. dielectric constant tensor:
#      x y z
#    x 1.790300 0.000000 0.000000 
#    y 0.000000 1.787380 0.000000 
#    z 0.000000 0.000000 1.782090 
# 
# From -- ./inp_files/32034.got.cif
#   From: 2010.03.12/outbox.cif.g09.slc.cpg/sg65_17_cif.got.tgz:32034.got - 2010.04.10 20:52:16.
