data_PCOD8269519
_publ_section_title
;
Structure prediction by ZEFSAII (Michael W. Deem and Ramdas Pophale) SiO2 
 PCOD8269519
Probable space group: C M M M
;
_chemical_formula_sum "Si O2"
_cell_formula_units_Z 80
_cell_length_a 28.892827
_cell_length_b 15.450237
_cell_length_c 8.683660
_cell_angle_alpha 90.000000
_cell_angle_beta 90.000000
_cell_angle_gamma 90.000000
_cell_volume 3876.394723
_symmetry_space_group_name_H-M "C M M M"
_symmetry_group_IT_number 65
_symmetry_cell_setting 'orthorhombic'
loop_
_space_group_symop_operation_xyz
x,y,z
-x,-y,z
x,-y,-z
-x,y,-z
-x,-y,-z
x,y,-z
-x,y,z
x,-y,z
1/2+x,1/2+y,z
1/2-x,1/2-y,z
1/2+x,1/2-y,-z
1/2-x,1/2+y,-z
1/2-x,1/2-y,-z
1/2+x,1/2+y,-z
1/2-x,1/2+y,z
1/2+x,1/2-y,z
loop_
_atom_site_type_symbol
_atom_site_label
_atom_site_fract_x
_atom_site_fract_y
_atom_site_fract_z
Si Si1 0.705246 0.153977 0.179070
Si Si2 0.201794 0.840334 0.679913
Si Si3 0.112518 0.096341 0.176418
Si Si4 0.605303 0.902872 0.822174
Si Si5 0.946787 0.754252 0.320640
O O1 0.749199 0.116110 0.273023
O O2 0.695184 0.252330 0.225781
O O3 0.659730 0.099006 0.219021
O O4 0.717495 0.148826 0.000000
O O5 0.201507 0.819743 0.500000
O O6 0.159275 0.901710 0.723135
O O7 0.075275 0.166023 0.230353
O O8 0.091232 0.000000 0.195477
O O9 0.125309 0.115899 0.000000
O O10 0.577138 0.836673 0.717694
O O11 0.587137 0.000000 0.789759
O O12 0.597979 0.876749 0.000000
O O13 0.940557 0.772735 0.500000
O O14 0.000000 0.747699 0.271509
#
# Coordination Sequence:
#
# PCOD8269519 Si02
#       5
#    16  16  16  16  16
#     4  10  19  34  58  87 124 168 210 250 296 353
#     4  11  21  34  57  89 126 165 205 250 303 358
#     4  11  24  42  65  92 122 160 206 254 305 364
#     4  10  22  40  64  93 124 162 208 254 300 356
#     4  11  25  44  66  92 123 158 197 251 316 373
#
# _framework density 20.637733999999998
#
# number of rings (size 3 to 8) (size 9 to 14) (size 15 to 20)
#    0.000    1.400    2.000    4.800    0.000    6.000 
#    0.000    6.000    0.000    0.000    0.000    0.000 
#    0.000    0.000    0.000    0.000    0.000    0.000 
#
# Total GULP energy -496098.801609 kJ/mol
# GULP energy per Si atom -12402.470040 kJ/mol
# Density = 2.059076 g / cm^3
# Si number density = 20.637734 Si / 1000 Ang^3
#
#
#
# Elastic Constant Matrix: (Units=GPa)
#
#
# Indices 1 2 3 4 5 6 
#
# 1 116.8326 47.4603 48.1752 0.0000 0.0000 0.0000
# 2 47.4603 101.4790 22.0909 0.0000 0.0000 0.0000
# 3 48.1752 22.0909 54.2605 0.0000 0.0000 0.0000
# 4 0.0000 0.0000 0.0000 12.0816 0.0000 0.0000
# 5 0.0000 0.0000 0.0000 0.0000 36.1924 0.0000
# 6 0.0000 0.0000 0.0000 0.0000 0.0000 4.9317
#
#
#
# Elastic Compliance Matrix: (Units=1/GPa)
#
#
# Indices 1 2 3 4 5 6 
#
# 1 0.015226 -0.004585 -0.011652 0.000000 0.000000 0.000000
# 2 -0.004585 0.012193 -0.000894 0.000000 0.000000 0.000000
# 3 -0.011652 -0.000894 0.029139 0.000000 0.000000 0.000000
# 4 0.000000 0.000000 0.000000 0.082770 0.000000 0.000000
# 5 0.000000 0.000000 0.000000 0.000000 0.027630 0.000000
# 6 0.000000 0.000000 0.000000 0.000000 0.000000 0.202771
#
#
# Mechanical properties :
#
#
# Convention : Reuss Voigt Hill
#
# Bulk Modulus (GPa) = 44.84854 56.44720 50.64787
# Shear Modulus (GPa) = 12.15294 20.96420 16.55857
#
# Velocity S-wave (km/s) = 2.42930 3.19065 2.83564
# Velocity P-wave (km/s) = 5.44492 6.40191 5.94271
#
# Compressibility (1/GPa) = 0.02229727
#
# Stress axis : x y z
#
# Youngs Moduli (GPa) = 65.67565 82.01475 34.31843
#
# Poissons Ratio (x) = 0.37600 0.39989
# Poissons Ratio (y) = 0.30110 0.03067
# Poissons Ratio (z) = 0.76527 0.07329
#
# Static dielectric constant tensor:
#      x y z
#    x 3.882740 0.000000 0.000000 
#    y 0.000000 3.603120 0.000000 
#    z 0.000000 0.000000 3.735280 
# 
# 
# High freq. dielectric constant tensor:
#      x y z
#    x 1.807620 0.000000 0.000000 
#    y 0.000000 1.801650 0.000000 
#    z 0.000000 0.000000 1.812930 
# 
# From -- ./inp_files/16034.got.cif
#   From: 2010.03.12/outbox.cif.g09.slc.cpg/sg65_9_cif.got.tgz:16034.got - 2010.04.10 20:52:16.
