data_PCOD8269113
_publ_section_title
;
Structure prediction by ZEFSAII (Michael W. Deem and Ramdas Pophale) SiO2 
 PCOD8269113
Probable space group: C M M M
;
_chemical_formula_sum "Si O2"
_cell_formula_units_Z 120
_cell_length_a 8.915855
_cell_length_b 27.433458
_cell_length_c 25.793612
_cell_angle_alpha 90.000000
_cell_angle_beta 90.000000
_cell_angle_gamma 90.000000
_cell_volume 6308.930070
_symmetry_space_group_name_H-M "C M M M"
_symmetry_group_IT_number 65
_symmetry_cell_setting 'orthorhombic'
loop_
_space_group_symop_operation_xyz
x,y,z
-x,-y,z
x,-y,-z
-x,y,-z
-x,-y,-z
x,y,-z
-x,y,z
x,-y,z
1/2+x,1/2+y,z
1/2-x,1/2-y,z
1/2+x,1/2-y,-z
1/2-x,1/2+y,-z
1/2-x,1/2-y,-z
1/2+x,1/2+y,-z
1/2-x,1/2+y,z
1/2+x,1/2-y,z
loop_
_atom_site_type_symbol
_atom_site_label
_atom_site_fract_x
_atom_site_fract_y
_atom_site_fract_z
Si Si1 0.824060 0.357452 0.897292
Si Si2 0.823149 0.301953 0.206002
Si Si3 0.677739 0.802802 0.000000
Si Si4 0.176683 0.055016 0.152981
Si Si5 0.676250 0.603325 0.440150
Si Si6 0.668399 0.797563 0.561513
Si Si7 0.823302 0.889958 0.256381
Si Si8 0.172181 0.444003 0.650925
O O1 0.777221 0.321622 0.850705
O O2 0.766441 0.332725 0.950004
O O3 0.748035 0.410278 0.890725
O O4 0.000000 0.366463 0.898536
O O5 0.750000 0.250000 0.214878
O O6 0.758345 0.338336 0.249154
O O7 0.000000 0.297743 0.212537
O O8 0.750000 0.750000 0.000000
O O9 0.500000 0.796090 0.000000
O O10 0.223457 0.073572 0.210026
O O11 0.000000 0.056631 0.145882
O O12 0.237829 0.000000 0.145933
O O13 0.716144 0.593446 0.500000
O O14 0.500000 0.600885 0.430283
O O15 0.735546 0.655836 0.421512
O O16 0.760695 0.562539 0.406647
O O17 0.661689 0.793454 0.500000
O O18 0.500000 0.801341 0.584244
O O19 0.750000 0.750000 0.584933
O O20 0.769954 0.912204 0.310134
O O21 0.000000 0.881340 0.257969
O O22 0.186962 0.500000 0.666971
O O23 0.000000 0.426864 0.652141
#
# Coordination Sequence:
#
# PCOD8269113 Si02
#       8
#    16  16   8  16  16  16  16  16
#     4   9  19  33  50  75 107 143 184 228 270 319
#     4  10  19  33  54  81 112 145 181 220 268 323
#     4  10  20  34  51  74 105 141 184 229 273 320
#     4   9  18  33  54  79 105 135 175 222 270 321
#     4  10  21  37  57  81 109 142 181 221 260 307
#     4   9  16  28  49  76 105 136 170 208 250 296
#     4  10  20  36  58  82 108 138 174 218 267 319
#     4  11  24  40  58  81 109 140 174 215 265 319
#
# _framework density 19.020658000000001
#
# number of rings (size 3 to 8) (size 9 to 14) (size 15 to 20)
#    0.000    2.267    0.000    2.800    0.000    6.133 
#    0.000    2.333    0.000    2.000    0.000    0.000 
#    0.000    0.000    0.000    0.000    0.000    0.000 
#
# Total GULP energy -744184.309917 kJ/mol
# GULP energy per Si atom -12403.071832 kJ/mol
# Density = 1.897737 g / cm^3
# Si number density = 19.020658 Si / 1000 Ang^3
#
#
#
# Elastic Constant Matrix: (Units=GPa)
#
#
# Indices 1 2 3 4 5 6 
#
# 1 73.9635 45.3451 30.5574 0.0000 0.0000 0.0000
# 2 45.3451 138.5410 49.6455 0.0000 0.0000 0.0000
# 3 30.5574 49.6455 85.5502 0.0000 0.0000 0.0000
# 4 0.0000 0.0000 0.0000 25.8895 0.0000 0.0000
# 5 0.0000 0.0000 0.0000 0.0000 26.8856 0.0000
# 6 0.0000 0.0000 0.0000 0.0000 0.0000 37.1367
#
#
#
# Elastic Compliance Matrix: (Units=1/GPa)
#
#
# Indices 1 2 3 4 5 6 
#
# 1 0.017825 -0.004485 -0.003764 0.000000 0.000000 0.000000
# 2 -0.004485 0.010242 -0.004341 0.000000 0.000000 0.000000
# 3 -0.003764 -0.004341 0.015553 0.000000 0.000000 0.000000
# 4 0.000000 0.000000 0.000000 0.038626 0.000000 0.000000
# 5 0.000000 0.000000 0.000000 0.000000 0.037195 0.000000
# 6 0.000000 0.000000 0.000000 0.000000 0.000000 0.026928
#
#
# Mechanical properties :
#
#
# Convention : Reuss Voigt Hill
#
# Bulk Modulus (GPa) = 54.23472 61.01673 57.62572
# Shear Modulus (GPa) = 28.13807 29.48281 28.81044
#
# Velocity S-wave (km/s) = 3.85040 3.94133 3.89613
# Velocity P-wave (km/s) = 6.95290 7.27055 7.11350
#
# Compressibility (1/GPa) = 0.01843837
#
# Stress axis : x y z
#
# Youngs Moduli (GPa) = 56.10050 97.63837 64.29723
#
# Poissons Ratio (x) = 0.43795 0.24201
# Poissons Ratio (y) = 0.25164 0.27913
# Poissons Ratio (z) = 0.21116 0.42388
#
# Static dielectric constant tensor:
#      x y z
#    x 3.508870 0.000000 0.000000 
#    y 0.000000 3.582060 0.000000 
#    z 0.000000 0.000000 3.379480 
# 
# 
# High freq. dielectric constant tensor:
#      x y z
#    x 1.746750 0.000000 0.000000 
#    y 0.000000 1.744910 0.000000 
#    z 0.000000 0.000000 1.719930 
# 
# From -- ./inp_files/73947.got.cif
#   From: 2010.03.12/outbox.cif.g09.slc.cpg/sg65_37_cif.got.tgz:73947.got - 2010.04.10 20:52:16.
