data_PCOD8269142
_publ_section_title
;
Structure prediction by ZEFSAII (Michael W. Deem and Ramdas Pophale) SiO2 
 PCOD8269142
Probable space group: C M M M
;
_chemical_formula_sum "Si O2"
_cell_formula_units_Z 88
_cell_length_a 8.984045
_cell_length_b 18.778866
_cell_length_c 28.403496
_cell_angle_alpha 90.000000
_cell_angle_beta 90.000000
_cell_angle_gamma 90.000000
_cell_volume 4791.958843
_symmetry_space_group_name_H-M "C M M M"
_symmetry_group_IT_number 65
_symmetry_cell_setting 'orthorhombic'
loop_
_space_group_symop_operation_xyz
x,y,z
-x,-y,z
x,-y,-z
-x,y,-z
-x,-y,-z
x,y,-z
-x,y,z
x,-y,z
1/2+x,1/2+y,z
1/2-x,1/2-y,z
1/2+x,1/2-y,-z
1/2-x,1/2+y,-z
1/2-x,1/2-y,-z
1/2+x,1/2+y,-z
1/2-x,1/2+y,z
1/2+x,1/2-y,z
loop_
_atom_site_type_symbol
_atom_site_label
_atom_site_fract_x
_atom_site_fract_y
_atom_site_fract_z
Si Si1 0.825212 0.173744 0.284661
Si Si2 0.673898 0.177448 0.554477
Si Si3 0.674314 0.916224 0.000000
Si Si4 0.171215 0.823876 0.816799
Si Si5 0.825271 0.081939 0.628100
Si Si6 0.176303 0.827675 0.919222
O O1 0.750000 0.250000 0.291168
O O2 0.787391 0.137748 0.232994
O O3 0.766752 0.120664 0.324729
O O4 0.000000 0.185588 0.290143
O O5 0.710571 0.163471 0.500000
O O6 0.500000 0.184506 0.563976
O O7 0.750000 0.250000 0.572331
O O8 0.739546 0.111460 0.582930
O O9 0.749820 0.883184 0.954167
O O10 0.500000 0.898422 0.000000
O O11 0.704840 0.000000 0.000000
O O12 0.250000 0.750000 0.816518
O O13 0.209124 0.861416 0.866788
O O14 0.000000 0.805023 0.816513
O O15 0.000000 0.093405 0.620352
O O16 0.783340 0.000000 0.633636
O O17 0.250000 0.750000 0.925518
O O18 0.000000 0.820959 0.929192
#
# Coordination Sequence:
#
# PCOD8269142 Si02
#       6
#    16  16   8  16  16  16
#     4   9  17  31  51  75 102 132 168 207 249 296
#     4  10  21  37  57  79 102 130 167 212 259 306
#     4  11  24  39  52  69  99 137 172 209 256 305
#     4   8  15  28  48  75 102 128 161 204 250 294
#     4  10  21  35  51  74 106 142 175 208 249 298
#     4  10  19  33  55  80 104 131 167 209 252 300
#
# _framework density 18.364097999999998
#
# number of rings (size 3 to 8) (size 9 to 14) (size 15 to 20)
#    0.000    2.455    0.000    2.182    0.000    5.455 
#    0.000    2.727    0.000    3.273    0.000    0.000 
#    0.000    0.000    0.000    0.000    0.000    0.000 
#
# Total GULP energy -545202.122433 kJ/mol
# GULP energy per Si atom -12390.957328 kJ/mol
# Density = 1.832230 g / cm^3
# Si number density = 18.364098 Si / 1000 Ang^3
#
#
#
# Elastic Constant Matrix: (Units=GPa)
#
#
# Indices 1 2 3 4 5 6 
#
# 1 67.3042 47.1395 57.5730 0.0000 0.0000 0.0000
# 2 47.1395 103.2182 78.0284 0.0000 0.0000 0.0000
# 3 57.5730 78.0284 155.0962 0.0000 0.0000 0.0000
# 4 0.0000 0.0000 0.0000 6.9455 0.0000 0.0000
# 5 0.0000 0.0000 0.0000 0.0000 21.7810 0.0000
# 6 0.0000 0.0000 0.0000 0.0000 0.0000 25.6679
#
#
#
# Elastic Compliance Matrix: (Units=1/GPa)
#
#
# Indices 1 2 3 4 5 6 
#
# 1 0.024529 -0.006970 -0.005599 0.000000 0.000000 0.000000
# 2 -0.006970 0.017615 -0.006275 0.000000 0.000000 0.000000
# 3 -0.005599 -0.006275 0.011683 0.000000 0.000000 0.000000
# 4 0.000000 0.000000 0.000000 0.143978 0.000000 0.000000
# 5 0.000000 0.000000 0.000000 0.000000 0.045912 0.000000
# 6 0.000000 0.000000 0.000000 0.000000 0.000000 0.038959
#
#
# Mechanical properties :
#
#
# Convention : Reuss Voigt Hill
#
# Bulk Modulus (GPa) = 61.95912 76.78891 69.37402
# Shear Modulus (GPa) = 15.34958 20.40405 17.87682
#
# Velocity S-wave (km/s) = 2.89424 3.33691 3.12343
# Velocity P-wave (km/s) = 6.70681 7.53340 7.13209
#
# Compressibility (1/GPa) = 0.01613967
#
# Stress axis : x y z
#
# Youngs Moduli (GPa) = 40.76836 56.77098 85.59675
#
# Poissons Ratio (x) = 0.39568 0.47924
# Poissons Ratio (y) = 0.28415 0.53709
# Poissons Ratio (z) = 0.22826 0.35622
#
# Static dielectric constant tensor:
#      x y z
#    x 3.385800 0.000000 0.000000 
#    y 0.000000 3.067820 0.000000 
#    z 0.000000 0.000000 4.240950 
# 
# 
# High freq. dielectric constant tensor:
#      x y z
#    x 1.716260 0.000000 0.000000 
#    y 0.000000 1.675660 0.000000 
#    z 0.000000 0.000000 1.740980 
# 
# From -- ./inp_files/76515.got.cif
#   From: 2010.03.12/outbox.cif.g09.slc.cpg/sg65_39_cif.got.tgz:76515.got - 2010.04.10 20:52:16.
