data_PCOD8269893
_publ_section_title
;
Structure prediction by ZEFSAII (Michael W. Deem and Ramdas Pophale) SiO2 
 PCOD8269893
Probable space group: C M M M
;
_chemical_formula_sum "Si O2"
_cell_formula_units_Z 104
_cell_length_a 29.964465
_cell_length_b 9.027983
_cell_length_c 28.114715
_cell_angle_alpha 90.000000
_cell_angle_beta 90.000000
_cell_angle_gamma 90.000000
_cell_volume 7605.555608
_symmetry_space_group_name_H-M "C M M M"
_symmetry_group_IT_number 65
_symmetry_cell_setting 'orthorhombic'
loop_
_space_group_symop_operation_xyz
x,y,z
-x,-y,z
x,-y,-z
-x,y,-z
-x,-y,-z
x,y,-z
-x,y,z
x,-y,z
1/2+x,1/2+y,z
1/2-x,1/2-y,z
1/2+x,1/2-y,-z
1/2-x,1/2+y,-z
1/2-x,1/2-y,-z
1/2+x,1/2+y,-z
1/2-x,1/2+y,z
1/2+x,1/2-y,z
loop_
_atom_site_type_symbol
_atom_site_label
_atom_site_fract_x
_atom_site_fract_y
_atom_site_fract_z
Si Si1 0.446793 0.667276 0.000000
Si Si2 0.446772 0.332623 0.813109
Si Si3 0.117209 0.671920 0.555875
Si Si4 0.947517 0.171743 0.625019
Si Si5 0.053106 0.667187 0.280062
Si Si6 0.553201 0.167276 0.906596
Si Si7 0.206391 0.832703 0.556619
O O1 0.428386 0.750291 0.046650
O O2 0.428514 0.500000 0.000000
O O3 0.500000 0.667949 0.000000
O O4 0.500000 0.332039 0.812884
O O5 0.428538 0.500000 0.812653
O O6 0.428036 0.247793 0.766877
O O7 0.428473 0.251045 0.860065
O O8 0.111110 0.696663 0.500000
O O9 0.118684 0.500000 0.569299
O O10 0.075367 0.749031 0.580617
O O11 0.162745 0.746240 0.574580
O O12 0.929941 0.244652 0.673786
O O13 0.000000 0.195642 0.618850
O O14 0.934599 0.000000 0.625885
O O15 0.071725 0.500000 0.281740
O O16 0.000000 0.666840 0.278550
O O17 0.500000 0.167830 0.906650
O O18 0.571502 0.000000 0.906352
O O19 0.207993 0.833116 0.500000
O O20 0.250000 0.750000 0.577059
O O21 0.205331 0.000000 0.576431
#
# Coordination Sequence:
#
# PCOD8269893 Si02
#       7
#     8  16  16  16  16  16  16
#     4   9  15  21  27  35  49  69  91 115 147 189
#     4   9  15  22  32  45  59  74  95 125 160 197
#     4  10  20  32  45  61  80 101 125 151 179 214
#     4  10  20  32  44  57  74  97 124 153 185 220
#     4   9  16  26  39  52  65  82 106 137 172 208
#     4   9  15  21  28  38  52  70  92 118 150 190
#     4   9  16  27  44  64  84 103 122 145 174 208
#
# _framework density 13.674215
#
# number of rings (size 3 to 8) (size 9 to 14) (size 15 to 20)
#    0.000    2.692    0.000    3.000    0.000   10.462 
#    0.000    1.538    0.000    0.000    0.000    0.000 
#    0.000    0.000    0.000    0.000    0.000    0.000 
#
# Total GULP energy -644768.517634 kJ/mol
# GULP energy per Si atom -12399.394570 kJ/mol
# Density = 1.364309 g / cm^3
# Si number density = 13.674215 Si / 1000 Ang^3
#
#
#
# Elastic Constant Matrix: (Units=GPa)
#
#
# Indices 1 2 3 4 5 6 
#
# 1 26.3484 30.7124 26.8954 0.0000 0.0000 0.0000
# 2 30.7124 148.7661 61.0102 0.0000 0.0000 0.0000
# 3 26.8954 61.0102 78.8418 0.0000 0.0000 0.0000
# 4 0.0000 0.0000 0.0000 28.8842 0.0000 0.0000
# 5 0.0000 0.0000 0.0000 0.0000 0.4723 0.0000
# 6 0.0000 0.0000 0.0000 0.0000 0.0000 15.3698
#
#
#
# Elastic Compliance Matrix: (Units=1/GPa)
#
#
# Indices 1 2 3 4 5 6 
#
# 1 0.061696 -0.006014 -0.016392 0.000000 0.000000 0.000000
# 2 -0.006014 0.010433 -0.006022 0.000000 0.000000 0.000000
# 3 -0.016392 -0.006022 0.022936 0.000000 0.000000 0.000000
# 4 0.000000 0.000000 0.000000 0.034621 0.000000 0.000000
# 5 0.000000 0.000000 0.000000 0.000000 2.117423 0.000000
# 6 0.000000 0.000000 0.000000 0.000000 0.000000 0.065063
#
#
# Mechanical properties :
#
#
# Convention : Reuss Voigt Hill
#
# Bulk Modulus (GPa) = 26.17277 54.57693 40.37485
# Shear Modulus (GPa) = 2.09928 17.96780 10.03354
#
# Velocity S-wave (km/s) = 1.24038 3.62883 2.71173
# Velocity P-wave (km/s) = 4.60795 7.58662 6.27654
#
# Compressibility (1/GPa) = 0.03820766
#
# Stress axis : x y z
#
# Youngs Moduli (GPa) = 16.20844 95.84753 43.60049
#
# Poissons Ratio (x) = 0.57646 0.71472
# Poissons Ratio (y) = 0.09748 0.26256
# Poissons Ratio (z) = 0.26570 0.57718
#
# Static dielectric constant tensor:
#      x y z
#    x 2.199520 0.000000 0.000000 
#    y 0.000000 2.983240 0.000000 
#    z 0.000000 0.000000 2.729990 
# 
# 
# High freq. dielectric constant tensor:
#      x y z
#    x 1.442340 0.000000 0.000000 
#    y 0.000000 1.547910 0.000000 
#    z 0.000000 0.000000 1.514890 
# 
# From -- ./inp_files/76053.got.cif
#   From: 2010.03.12/outbox.cif.g09.slc.cpg/sg65_39_cif.got.tgz:76053.got - 2010.04.10 20:52:16.
