data_PCOD8269094
_publ_section_title
;
Structure prediction by ZEFSAII (Michael W. Deem and Ramdas Pophale) SiO2 
 PCOD8269094
Probable space group: C M M M
;
_chemical_formula_sum "Si O2"
_cell_formula_units_Z 88
_cell_length_a 18.890716
_cell_length_b 27.273497
_cell_length_c 9.017879
_cell_angle_alpha 90.000000
_cell_angle_beta 90.000000
_cell_angle_gamma 90.000000
_cell_volume 4646.154520
_symmetry_space_group_name_H-M "C M M M"
_symmetry_group_IT_number 65
_symmetry_cell_setting 'orthorhombic'
loop_
_space_group_symop_operation_xyz
x,y,z
-x,-y,z
x,-y,-z
-x,y,-z
-x,-y,-z
x,y,-z
-x,y,z
x,-y,z
1/2+x,1/2+y,z
1/2-x,1/2-y,z
1/2+x,1/2-y,-z
1/2-x,1/2+y,-z
1/2-x,1/2-y,-z
1/2+x,1/2+y,-z
1/2-x,1/2+y,z
1/2+x,1/2-y,z
loop_
_atom_site_type_symbol
_atom_site_label
_atom_site_fract_x
_atom_site_fract_y
_atom_site_fract_z
Si Si1 0.084098 0.714470 0.333036
Si Si2 0.081387 0.188468 0.173175
Si Si3 0.803618 0.556576 0.674210
Si Si4 0.078820 0.000000 0.823890
Si Si5 0.667540 0.592594 0.824802
Si Si6 0.917203 0.383199 0.827111
O O1 0.113526 0.710689 0.500000
O O2 0.112087 0.764464 0.259118
O O3 0.111298 0.667944 0.240177
O O4 0.000000 0.715269 0.330321
O O5 0.128646 0.142478 0.220769
O O6 0.000000 0.177132 0.215964
O O7 0.087680 0.199677 0.000000
O O8 0.808186 0.565408 0.500000
O O9 0.788964 0.500000 0.713608
O O10 0.742256 0.590365 0.742311
O O11 0.877727 0.572014 0.747562
O O12 0.119159 0.048064 0.766904
O O13 0.000000 0.000000 0.755891
O O14 0.074467 0.000000 0.000000
O O15 0.680488 0.589195 0.000000
O O16 0.000000 0.390502 0.796172
O O17 0.899546 0.383227 0.000000
#
# Coordination Sequence:
#
# PCOD8269094 Si02
#       6
#    16  16  16   8  16  16
#     4   9  17  31  53  81 113 147 179 216 269 329
#     4   9  17  30  51  81 114 147 186 231 275 318
#     4  11  24  40  57  78 110 149 183 221 274 332
#     4   9  16  28  51  81 108 139 186 237 277 314
#     4  10  19  33  54  79 109 147 189 232 274 320
#     4  10  21  38  62  88 110 135 174 225 275 327
#
# _framework density 18.940396
#
# number of rings (size 3 to 8) (size 9 to 14) (size 15 to 20)
#    0.000    2.273    0.909    2.182    0.000    7.636 
#    0.000    2.727    0.000    7.636    0.000    0.000 
#    0.000    0.000    0.000    0.000    0.000    0.000 
#
# Total GULP energy -545726.689895 kJ/mol
# GULP energy per Si atom -12402.879316 kJ/mol
# Density = 1.889729 g / cm^3
# Si number density = 18.940396 Si / 1000 Ang^3
#
#
#
# Elastic Constant Matrix: (Units=GPa)
#
#
# Indices 1 2 3 4 5 6 
#
# 1 79.7602 47.0209 44.5970 0.0000 0.0000 0.0000
# 2 47.0209 91.1412 52.5528 0.0000 0.0000 0.0000
# 3 44.5970 52.5528 88.8998 0.0000 0.0000 0.0000
# 4 0.0000 0.0000 0.0000 31.4455 0.0000 0.0000
# 5 0.0000 0.0000 0.0000 0.0000 22.2992 0.0000
# 6 0.0000 0.0000 0.0000 0.0000 0.0000 19.7542
#
#
#
# Elastic Compliance Matrix: (Units=1/GPa)
#
#
# Indices 1 2 3 4 5 6 
#
# 1 0.019887 -0.006838 -0.005934 0.000000 0.000000 0.000000
# 2 -0.006838 0.018997 -0.007800 0.000000 0.000000 0.000000
# 3 -0.005934 -0.007800 0.018836 0.000000 0.000000 0.000000
# 4 0.000000 0.000000 0.000000 0.031801 0.000000 0.000000
# 5 0.000000 0.000000 0.000000 0.000000 0.044845 0.000000
# 6 0.000000 0.000000 0.000000 0.000000 0.000000 0.050622
#
#
# Mechanical properties :
#
#
# Convention : Reuss Voigt Hill
#
# Bulk Modulus (GPa) = 60.32648 60.90472 60.61560
# Shear Modulus (GPa) = 21.58358 22.40848 21.99603
#
# Velocity S-wave (km/s) = 3.37939 3.44336 3.41152
# Velocity P-wave (km/s) = 6.86636 6.93071 6.89861
#
# Compressibility (1/GPa) = 0.01657647
#
# Stress axis : x y z
#
# Youngs Moduli (GPa) = 50.28457 52.63893 53.08947
#
# Poissons Ratio (x) = 0.35996 0.31503
# Poissons Ratio (y) = 0.34386 0.41408
# Poissons Ratio (z) = 0.29838 0.41057
#
# Static dielectric constant tensor:
#      x y z
#    x 3.300930 0.000000 0.000000 
#    y 0.000000 3.579650 0.000000 
#    z 0.000000 0.000000 3.389880 
# 
# 
# High freq. dielectric constant tensor:
#      x y z
#    x 1.718040 0.000000 0.000000 
#    y 0.000000 1.744490 0.000000 
#    z 0.000000 0.000000 1.728890 
# 
# From -- ./inp_files/10030.got.cif
#   From: 2010.03.12/outbox.cif.g09.slc.cpg/sg65_6_cif.got.tgz:10030.got - 2010.04.10 20:52:16.
