data_PCOD8269999
_publ_section_title
;
Structure prediction by ZEFSAII (Michael W. Deem and Ramdas Pophale) SiO2 
 PCOD8269999
Probable space group: C M M M
;
_chemical_formula_sum "Si O2"
_cell_formula_units_Z 88
_cell_length_a 8.122008
_cell_length_b 20.415010
_cell_length_c 29.281405
_cell_angle_alpha 90.000000
_cell_angle_beta 90.000000
_cell_angle_gamma 90.000000
_cell_volume 4855.175371
_symmetry_space_group_name_H-M "C M M M"
_symmetry_group_IT_number 65
_symmetry_cell_setting 'orthorhombic'
loop_
_space_group_symop_operation_xyz
x,y,z
-x,-y,z
x,-y,-z
-x,y,-z
-x,-y,-z
x,y,-z
-x,y,z
x,-y,z
1/2+x,1/2+y,z
1/2-x,1/2-y,z
1/2+x,1/2-y,-z
1/2-x,1/2+y,-z
1/2-x,1/2-y,-z
1/2+x,1/2+y,-z
1/2-x,1/2+y,z
1/2+x,1/2-y,z
loop_
_atom_site_type_symbol
_atom_site_label
_atom_site_fract_x
_atom_site_fract_y
_atom_site_fract_z
Si Si1 0.308754 0.426435 0.210064
Si Si2 0.689474 0.181310 0.721859
Si Si3 0.695922 0.926948 0.449029
Si Si4 0.316570 0.577767 0.893387
Si Si5 0.000000 0.421918 0.948069
Si Si6 0.195189 0.679412 0.620596
O O1 0.500000 0.426112 0.221575
O O2 0.237494 0.500000 0.216210
O O3 0.218724 0.378463 0.244380
O O4 0.277975 0.401430 0.158532
O O5 0.500000 0.189333 0.713238
O O6 0.750000 0.250000 0.743512
O O7 0.769623 0.168780 0.671819
O O8 0.758193 0.908864 0.500000
O O9 0.500000 0.924518 0.448055
O O10 0.771590 0.875834 0.412670
O O11 0.756306 0.000000 0.435813
O O12 0.500000 0.604106 0.908188
O O13 0.321642 0.500000 0.896730
O O14 0.167735 0.605795 0.924613
O O15 0.000000 0.500000 0.944933
O O16 0.000000 0.397253 0.000000
O O17 0.250000 0.750000 0.601778
O O18 0.000000 0.673761 0.620384
#
# Coordination Sequence:
#
# PCOD8269999 Si02
#       6
#    16  16  16  16   8  16
#     4   9  18  32  49  69  94 126 161 198 242 291
#     4  10  20  32  47  67  94 127 157 198 245 287
#     4   8  14  26  45  67  90 117 150 191 234 274
#     4   8  15  27  41  60  90 126 160 200 247 291
#     4   9  16  24  38  62  92 128 166 202 242 294
#     4   9  18  31  46  66  91 118 151 188 233 284
#
# _framework density 18.12499
#
# number of rings (size 3 to 8) (size 9 to 14) (size 15 to 20)
#    0.000    3.182    0.000    2.182    1.273    2.545 
#    0.000    3.636    0.000    0.545    0.000    1.273 
#    0.000    0.727    0.364    0.000    0.000    0.000 
#
# Total GULP energy -545255.401006 kJ/mol
# GULP energy per Si atom -12392.168205 kJ/mol
# Density = 1.808374 g / cm^3
# Si number density = 18.124990 Si / 1000 Ang^3
#
#
#
# Elastic Constant Matrix: (Units=GPa)
#
#
# Indices 1 2 3 4 5 6 
#
# 1 61.9412 26.3409 45.3647 0.0000 0.0000 0.0000
# 2 26.3409 85.7512 63.5634 0.0000 0.0000 0.0000
# 3 45.3647 63.5634 114.6155 0.0000 0.0000 0.0000
# 4 0.0000 0.0000 0.0000 2.3062 0.0000 0.0000
# 5 0.0000 0.0000 0.0000 0.0000 13.0377 0.0000
# 6 0.0000 0.0000 0.0000 0.0000 0.0000 19.5752
#
#
#
# Elastic Compliance Matrix: (Units=1/GPa)
#
#
# Indices 1 2 3 4 5 6 
#
# 1 0.022749 -0.000533 -0.008709 0.000000 0.000000 0.000000
# 2 -0.000533 0.019814 -0.010778 0.000000 0.000000 0.000000
# 3 -0.008709 -0.010778 0.018149 0.000000 0.000000 0.000000
# 4 0.000000 0.000000 0.000000 0.433618 0.000000 0.000000
# 5 0.000000 0.000000 0.000000 0.000000 0.076701 0.000000
# 6 0.000000 0.000000 0.000000 0.000000 0.000000 0.051085
#
#
# Mechanical properties :
#
#
# Convention : Reuss Voigt Hill
#
# Bulk Modulus (GPa) = 48.37008 59.20508 53.78758
# Shear Modulus (GPa) = 7.47333 15.45307 11.46320
#
# Velocity S-wave (km/s) = 2.03277 2.92307 2.51759
# Velocity P-wave (km/s) = 5.67930 6.64291 6.17992
#
# Compressibility (1/GPa) = 0.02067394
#
# Stress axis : x y z
#
# Youngs Moduli (GPa) = 43.95820 50.46850 55.10006
#
# Poissons Ratio (x) = 0.02688 0.47984
# Poissons Ratio (y) = 0.02342 0.59386
# Poissons Ratio (z) = 0.38281 0.54394
#
# Static dielectric constant tensor:
#      x y z
#    x 3.328980 0.000000 0.000000 
#    y 0.000000 3.274140 0.000000 
#    z 0.000000 0.000000 3.520700 
# 
# 
# High freq. dielectric constant tensor:
#      x y z
#    x 1.691790 0.000000 0.000000 
#    y 0.000000 1.666110 0.000000 
#    z 0.000000 0.000000 1.699220 
# 
# From -- ./inp_files/75353.got.cif
#   From: 2010.03.12/outbox.cif.g09.slc.cpg/sg65_38_cif.got.tgz:75353.got - 2010.04.10 20:52:16.
