data_PCOD8269081
_publ_section_title
;
Structure prediction by ZEFSAII (Michael W. Deem and Ramdas Pophale) SiO2 
 PCOD8269081
Probable space group: C M M M
;
_chemical_formula_sum "Si O2"
_cell_formula_units_Z 80
_cell_length_a 18.188232
_cell_length_b 9.241583
_cell_length_c 25.879685
_cell_angle_alpha 90.000000
_cell_angle_beta 90.000000
_cell_angle_gamma 90.000000
_cell_volume 4350.065933
_symmetry_space_group_name_H-M "C M M M"
_symmetry_group_IT_number 65
_symmetry_cell_setting 'orthorhombic'
loop_
_space_group_symop_operation_xyz
x,y,z
-x,-y,z
x,-y,-z
-x,y,-z
-x,-y,-z
x,y,-z
-x,y,z
x,-y,z
1/2+x,1/2+y,z
1/2-x,1/2-y,z
1/2+x,1/2-y,-z
1/2-x,1/2+y,-z
1/2-x,1/2-y,-z
1/2+x,1/2+y,-z
1/2-x,1/2+y,z
1/2+x,1/2-y,z
loop_
_atom_site_type_symbol
_atom_site_label
_atom_site_fract_x
_atom_site_fract_y
_atom_site_fract_z
Si Si1 0.672017 0.330110 0.387772
Si Si2 0.323290 0.663820 0.500000
Si Si3 0.585584 0.166686 0.302346
Si Si4 0.085095 0.331246 0.900013
Si Si5 0.826397 0.669590 0.200530
Si Si6 0.412538 0.663483 0.000000
O O1 0.684151 0.500000 0.376795
O O2 0.750000 0.250000 0.381299
O O3 0.636040 0.303547 0.445385
O O4 0.613288 0.267088 0.348407
O O5 0.297341 0.500000 0.500000
O O6 0.250000 0.750000 0.500000
O O7 0.500000 0.194728 0.293840
O O8 0.625671 0.213121 0.249927
O O9 0.601759 0.000000 0.316243
O O10 0.095790 0.500000 0.911528
O O11 0.130094 0.279502 0.850218
O O12 0.000000 0.294830 0.889665
O O13 0.116883 0.244155 0.949009
O O14 0.811192 0.500000 0.198883
O O15 0.750000 0.750000 0.204032
O O16 0.382552 0.500000 0.000000
O O17 0.500000 0.668854 0.000000
#
# Coordination Sequence:
#
# PCOD8269081 Si02
#       6
#    16   8  16  16  16   8
#     4  10  19  33  54  79 106 137 174 214 257 306
#     4   8  16  30  49  74 103 135 171 211 253 300
#     4  10  21  37  55  76 104 137 173 215 262 310
#     4   9  17  32  54  76  99 132 172 207 242 293
#     4  10  21  36  54  76 102 133 169 210 256 305
#     4   9  17  29  48  77 108 133 161 203 252 295
#
# _framework density 18.390526000000001
#
# number of rings (size 3 to 8) (size 9 to 14) (size 15 to 20)
#    0.000    2.500    0.000    2.100    0.000    8.000 
#    0.000    1.000    0.000    6.600    0.000    0.000 
#    0.000    0.000    0.000    0.000    0.000    0.000 
#
# Total GULP energy -495860.419675 kJ/mol
# GULP energy per Si atom -12396.510492 kJ/mol
# Density = 1.834867 g / cm^3
# Si number density = 18.390526 Si / 1000 Ang^3
#
#
#
# Elastic Constant Matrix: (Units=GPa)
#
#
# Indices 1 2 3 4 5 6 
#
# 1 93.8494 47.2528 73.3812 0.0000 0.0000 0.0000
# 2 47.2528 79.9942 79.1524 0.0000 0.0000 0.0000
# 3 73.3812 79.1524 191.3866 0.0000 0.0000 0.0000
# 4 0.0000 0.0000 0.0000 21.3263 0.0000 0.0000
# 5 0.0000 0.0000 0.0000 0.0000 -6.7992 0.0000
# 6 0.0000 0.0000 0.0000 0.0000 0.0000 27.4358
#
#
#
# Elastic Compliance Matrix: (Units=1/GPa)
#
#
# Indices 1 2 3 4 5 6 
#
# 1 0.016760 -0.005995 -0.003947 0.000000 0.000000 0.000000
# 2 -0.005995 0.023304 -0.007340 0.000000 0.000000 0.000000
# 3 -0.003947 -0.007340 0.009774 0.000000 0.000000 0.000000
# 4 0.000000 0.000000 0.000000 0.046890 0.000000 0.000000
# 5 0.000000 0.000000 0.000000 0.000000 -0.147076 0.000000
# 6 0.000000 0.000000 0.000000 0.000000 0.000000 0.036449
#
#
# Mechanical properties :
#
#
# Convention : Reuss Voigt Hill
#
# Bulk Modulus (GPa) = 65.46370 84.97810 75.22090
# Shear Modulus (GPa) = 194.13849 19.42216 106.78032
#
# Velocity S-wave (km/s) = 10.28560 3.25329 7.62815
# Velocity P-wave (km/s) = 13.29405 7.77301 10.88925
#
# Compressibility (1/GPa) = 0.01527564
#
# Stress axis : x y z
#
# Youngs Moduli (GPa) = 59.66708 42.91037 102.31561
#
# Poissons Ratio (x) = 0.25724 0.40380
# Poissons Ratio (y) = 0.35770 0.75095
# Poissons Ratio (z) = 0.23548 0.31494
#
# Static dielectric constant tensor:
#      x y z
#    x 3.074060 0.000000 0.000000 
#    y 0.000000 3.399420 0.000000 
#    z 0.000000 0.000000 3.966560 
# 
# 
# High freq. dielectric constant tensor:
#      x y z
#    x 1.683950 0.000000 0.000000 
#    y 0.000000 1.713480 0.000000 
#    z 0.000000 0.000000 1.736090 
# 
# From -- ./inp_files/70866.got.cif
#   From: 2010.03.12/outbox.cif.g09.slc.cpg/sg65_36_cif.got.tgz:70866.got - 2010.04.10 20:52:16.
