data_PCOD8269652
_publ_section_title
;
Structure prediction by ZEFSAII (Michael W. Deem and Ramdas Pophale) SiO2 
 PCOD8269652
Probable space group: C M M M
;
_chemical_formula_sum "Si O2"
_cell_formula_units_Z 88
_cell_length_a 21.361466
_cell_length_b 12.775538
_cell_length_c 17.734024
_cell_angle_alpha 90.000000
_cell_angle_beta 90.000000
_cell_angle_gamma 90.000000
_cell_volume 4839.689998
_symmetry_space_group_name_H-M "C M M M"
_symmetry_group_IT_number 65
_symmetry_cell_setting 'orthorhombic'
loop_
_space_group_symop_operation_xyz
x,y,z
-x,-y,z
x,-y,-z
-x,y,-z
-x,-y,-z
x,y,-z
-x,y,z
x,-y,z
1/2+x,1/2+y,z
1/2-x,1/2-y,z
1/2+x,1/2-y,-z
1/2-x,1/2+y,-z
1/2-x,1/2-y,-z
1/2+x,1/2+y,-z
1/2-x,1/2+y,z
1/2+x,1/2-y,z
loop_
_atom_site_type_symbol
_atom_site_label
_atom_site_fract_x
_atom_site_fract_y
_atom_site_fract_z
Si Si1 0.569954 0.721084 0.705161
Si Si2 0.322852 0.222320 0.084977
Si Si3 0.250000 0.750000 0.326078
Si Si4 0.657796 0.621757 0.587678
Si Si5 0.428057 0.378639 0.138715
Si Si6 0.347690 0.119304 0.767063
O O1 0.500000 0.723578 0.677272
O O2 0.606062 0.689149 0.630143
O O3 0.581822 0.637386 0.771881
O O4 0.585981 0.837438 0.737032
O O5 0.250000 0.250000 0.100115
O O6 0.372577 0.317725 0.095042
O O7 0.341907 0.129975 0.142496
O O8 0.329911 0.179836 0.000000
O O9 0.275625 0.657823 0.379425
O O10 0.299794 0.801348 0.271190
O O11 0.653841 0.648556 0.500000
O O12 0.648048 0.500000 0.603439
O O13 0.500000 0.343233 0.116750
O O14 0.419190 0.500000 0.118950
O O15 0.337634 0.000000 0.742782
#
# Coordination Sequence:
#
# PCOD8269652 Si02
#       6
#    16  16   8  16  16  16
#     4   9  19  35  53  76 106 137 173 221 264 307
#     4  10  21  36  50  76 114 146 176 219 276 330
#     4  10  19  36  53  76 104 140 174 222 255 306
#     4  10  20  32  51  80 110 140 172 210 262 319
#     4   9  18  34  57  81 105 141 185 224 266 319
#     4  10  20  35  56  77  98 137 182 219 260 310
#
# _framework density 18.182983
#
# number of rings (size 3 to 8) (size 9 to 14) (size 15 to 20)
#    0.000    2.364    0.909    1.364    0.000    3.636 
#    0.000    3.636    0.000    4.909    0.000   10.182 
#    0.000    0.000    0.000    0.000    0.000    0.000 
#
# Total GULP energy -545288.102884 kJ/mol
# GULP energy per Si atom -12392.911429 kJ/mol
# Density = 1.814160 g / cm^3
# Si number density = 18.182983 Si / 1000 Ang^3
#
#
#
# Elastic Constant Matrix: (Units=GPa)
#
#
# Indices 1 2 3 4 5 6 
#
# 1 80.8591 17.8609 21.4720 0.0000 0.0000 0.0000
# 2 17.8609 86.0060 30.4799 0.0000 0.0000 0.0000
# 3 21.4720 30.4799 103.2732 0.0000 0.0000 0.0000
# 4 0.0000 0.0000 0.0000 17.1983 0.0000 0.0000
# 5 0.0000 0.0000 0.0000 0.0000 15.6027 0.0000
# 6 0.0000 0.0000 0.0000 0.0000 0.0000 21.3803
#
#
#
# Elastic Compliance Matrix: (Units=1/GPa)
#
#
# Indices 1 2 3 4 5 6 
#
# 1 0.013392 -0.002004 -0.002193 0.000000 0.000000 0.000000
# 2 -0.002004 0.013285 -0.003504 0.000000 0.000000 0.000000
# 3 -0.002193 -0.003504 0.011173 0.000000 0.000000 0.000000
# 4 0.000000 0.000000 0.000000 0.058145 0.000000 0.000000
# 5 0.000000 0.000000 0.000000 0.000000 0.064092 0.000000
# 6 0.000000 0.000000 0.000000 0.000000 0.000000 0.046772
#
#
# Mechanical properties :
#
#
# Convention : Reuss Voigt Hill
#
# Bulk Modulus (GPa) = 44.54725 45.52933 45.03829
# Shear Modulus (GPa) = 21.76328 24.19129 22.97728
#
# Velocity S-wave (km/s) = 3.46338 3.65147 3.55867
# Velocity P-wave (km/s) = 6.36757 6.54764 6.45823
#
# Compressibility (1/GPa) = 0.02244808
#
# Stress axis : x y z
#
# Youngs Moduli (GPa) = 74.67040 75.27190 89.49941
#
# Poissons Ratio (x) = 0.15084 0.19627
# Poissons Ratio (y) = 0.14964 0.31363
# Poissons Ratio (z) = 0.16375 0.26378
#
# Static dielectric constant tensor:
#      x y z
#    x 3.651780 0.000000 0.000000 
#    y 0.000000 3.185320 0.000000 
#    z 0.000000 0.000000 3.358640 
# 
# 
# High freq. dielectric constant tensor:
#      x y z
#    x 1.712460 0.000000 0.000000 
#    y 0.000000 1.685310 0.000000 
#    z 0.000000 0.000000 1.707950 
# 
# From -- ./inp_files/55669.got.cif
#   From: 2010.03.12/outbox.cif.g09.slc.cpg/sg65_28_cif.got.tgz:55669.got - 2010.04.10 20:52:16.
