data_PCOD8269041
_publ_section_title
;
Structure prediction by ZEFSAII (Michael W. Deem and Ramdas Pophale) SiO2 
 PCOD8269041
Probable space group: C M M M
;
_chemical_formula_sum "Si O2"
_cell_formula_units_Z 80
_cell_length_a 27.589254
_cell_length_b 18.028584
_cell_length_c 8.575004
_cell_angle_alpha 90.000000
_cell_angle_beta 90.000000
_cell_angle_gamma 90.000000
_cell_volume 4265.165686
_symmetry_space_group_name_H-M "C M M M"
_symmetry_group_IT_number 65
_symmetry_cell_setting 'orthorhombic'
loop_
_space_group_symop_operation_xyz
x,y,z
-x,-y,z
x,-y,-z
-x,y,-z
-x,-y,-z
x,y,-z
-x,y,z
x,-y,z
1/2+x,1/2+y,z
1/2-x,1/2-y,z
1/2+x,1/2-y,-z
1/2-x,1/2+y,-z
1/2-x,1/2-y,-z
1/2+x,1/2+y,-z
1/2-x,1/2+y,z
1/2+x,1/2-y,z
loop_
_atom_site_type_symbol
_atom_site_label
_atom_site_fract_x
_atom_site_fract_y
_atom_site_fract_z
Si Si1 0.904642 0.083618 0.181431
Si Si2 0.148055 0.288857 0.181557
Si Si3 0.206350 0.585047 0.683689
Si Si4 0.310259 0.355134 0.316981
Si Si5 0.445334 0.726153 0.318702
O O1 0.848512 0.094084 0.225917
O O2 0.938203 0.139502 0.278449
O O3 0.920854 0.000000 0.220686
O O4 0.911189 0.101489 0.000000
O O5 0.163262 0.371576 0.229708
O O6 0.181478 0.231090 0.276596
O O7 0.091437 0.277297 0.221421
O O8 0.156195 0.275324 0.000000
O O9 0.199164 0.592935 0.500000
O O10 0.203874 0.500000 0.737311
O O11 0.257261 0.619949 0.737528
O O12 0.317377 0.367908 0.500000
O O13 0.434314 0.737599 0.500000
O O14 0.500000 0.749978 0.276542
#
# Coordination Sequence:
#
# PCOD8269041 Si02
#       5
#    16  16  16  16  16
#     4  10  20  32  48  74 109 144 174 210 257 304
#     4  11  22  35  54  79 107 138 170 210 260 309
#     4  10  21  36  54  77 106 140 176 214 255 299
#     4  10  19  33  54  77 104 142 183 215 246 292
#     4  10  21  37  57  77  97 129 174 219 261 307
#
# _framework density 18.756598
#
# number of rings (size 3 to 8) (size 9 to 14) (size 15 to 20)
#    0.000    1.800    0.000    7.200    0.000    8.800 
#    0.000    2.000    0.000    0.600    0.000    4.200 
#    0.000    0.000    0.000    0.000    0.000    0.000 
#
# Total GULP energy -496132.994322 kJ/mol
# GULP energy per Si atom -12403.324858 kJ/mol
# Density = 1.871391 g / cm^3
# Si number density = 18.756598 Si / 1000 Ang^3
#
#
#
# Elastic Constant Matrix: (Units=GPa)
#
#
# Indices 1 2 3 4 5 6 
#
# 1 100.0704 54.4358 22.4043 0.0000 0.0000 0.0000
# 2 54.4358 94.1693 18.0647 0.0000 0.0000 0.0000
# 3 22.4043 18.0647 41.3668 0.0000 0.0000 0.0000
# 4 0.0000 0.0000 0.0000 27.7477 0.0000 0.0000
# 5 0.0000 0.0000 0.0000 0.0000 9.8477 0.0000
# 6 0.0000 0.0000 0.0000 0.0000 0.0000 12.5586
#
#
#
# Elastic Compliance Matrix: (Units=1/GPa)
#
#
# Indices 1 2 3 4 5 6 
#
# 1 0.015425 -0.007983 -0.004868 0.000000 0.000000 0.000000
# 2 -0.007983 0.015721 -0.002542 0.000000 0.000000 0.000000
# 3 -0.004868 -0.002542 0.027921 0.000000 0.000000 0.000000
# 4 0.000000 0.000000 0.000000 0.036039 0.000000 0.000000
# 5 0.000000 0.000000 0.000000 0.000000 0.101547 0.000000
# 6 0.000000 0.000000 0.000000 0.000000 0.000000 0.079627
#
#
# Mechanical properties :
#
#
# Convention : Reuss Voigt Hill
#
# Bulk Modulus (GPa) = 35.35917 47.26846 41.31382
# Shear Modulus (GPa) = 15.79812 19.41092 17.60452
#
# Velocity S-wave (km/s) = 2.90534 3.22045 3.06694
# Velocity P-wave (km/s) = 5.49064 6.25173 5.88351
#
# Compressibility (1/GPa) = 0.02828121
#
# Stress axis : x y z
#
# Youngs Moduli (GPa) = 64.82794 63.60739 35.81575
#
# Poissons Ratio (x) = 0.50778 0.17436
# Poissons Ratio (y) = 0.51752 0.09104
# Poissons Ratio (z) = 0.31560 0.16168
#
# Static dielectric constant tensor:
#      x y z
#    x 3.392500 0.000000 0.000000 
#    y 0.000000 3.376040 0.000000 
#    z 0.000000 0.000000 3.427190 
# 
# 
# High freq. dielectric constant tensor:
#      x y z
#    x 1.719960 0.000000 0.000000 
#    y 0.000000 1.714110 0.000000 
#    z 0.000000 0.000000 1.736080 
# 
# From -- ./inp_files/9667.got.cif
#   From: 2010.03.12/outbox.cif.g09.slc.cpg/sg65_5_cif.got.tgz:9667.got - 2010.04.10 20:52:16.
