data_PCOD8269045
_publ_section_title
;
Structure prediction by ZEFSAII (Michael W. Deem and Ramdas Pophale) SiO2 
 PCOD8269045
Probable space group: C M M M
;
_chemical_formula_sum "Si O2"
_cell_formula_units_Z 80
_cell_length_a 19.285117
_cell_length_b 9.056928
_cell_length_c 26.089506
_cell_angle_alpha 90.000000
_cell_angle_beta 90.000000
_cell_angle_gamma 90.000000
_cell_volume 4556.895288
_symmetry_space_group_name_H-M "C M M M"
_symmetry_group_IT_number 65
_symmetry_cell_setting 'orthorhombic'
loop_
_space_group_symop_operation_xyz
x,y,z
-x,-y,z
x,-y,-z
-x,y,-z
-x,-y,-z
x,y,-z
-x,y,z
x,-y,z
1/2+x,1/2+y,z
1/2-x,1/2-y,z
1/2+x,1/2-y,-z
1/2-x,1/2+y,-z
1/2-x,1/2-y,-z
1/2+x,1/2+y,-z
1/2-x,1/2+y,z
1/2+x,1/2-y,z
loop_
_atom_site_type_symbol
_atom_site_label
_atom_site_fract_x
_atom_site_fract_y
_atom_site_fract_z
Si Si1 0.079848 0.172052 0.702220
Si Si2 0.820796 0.168255 0.000000
Si Si3 0.678142 0.670658 0.500000
Si Si4 0.175173 0.173984 0.111284
Si Si5 0.418874 0.171554 0.805913
Si Si6 0.323848 0.673528 0.389324
O O1 0.104693 0.264358 0.751259
O O2 0.123395 0.230459 0.653765
O O3 0.000000 0.203475 0.689395
O O4 0.092819 0.000000 0.713557
O O5 0.750000 0.250000 0.000000
O O6 0.858474 0.204496 0.054211
O O7 0.799129 0.000000 0.000000
O O8 0.695499 0.500000 0.500000
O O9 0.750000 0.750000 0.500000
O O10 0.641355 0.711133 0.554398
O O11 0.250000 0.250000 0.117356
O O12 0.121365 0.242585 0.150329
O O13 0.183516 0.000000 0.121985
O O14 0.500000 0.199436 0.814741
O O15 0.399567 0.000000 0.807859
O O16 0.311836 0.500000 0.383476
O O17 0.250000 0.750000 0.381802
#
# Coordination Sequence:
#
# PCOD8269045 Si02
#       6
#    16   8   8  16  16  16
#     4   9  18  33  50  67  91 125 161 196 239 289
#     4   8  16  30  49  74 101 129 159 193 237 286
#     4   8  14  26  43  65  93 121 149 184 230 280
#     4  10  19  33  54  78 103 130 162 200 241 287
#     4  10  21  36  52  71  97 130 167 205 246 291
#     4   9  17  29  47  70  94 121 154 192 233 280
#
# _framework density 17.555812
#
# number of rings (size 3 to 8) (size 9 to 14) (size 15 to 20)
#    0.000    2.800    0.000    1.200    0.000    3.600 
#    0.000    3.000    0.000    6.000    0.000    0.000 
#    0.000   11.200    0.000    0.000    0.000    0.000 
#
# Total GULP energy -495537.302350 kJ/mol
# GULP energy per Si atom -12388.432559 kJ/mol
# Density = 1.751585 g / cm^3
# Si number density = 17.555812 Si / 1000 Ang^3
#
#
#
# Elastic Constant Matrix: (Units=GPa)
#
#
# Indices 1 2 3 4 5 6 
#
# 1 58.1292 36.3875 76.1185 0.0000 0.0000 0.0000
# 2 36.3875 70.8291 71.9672 0.0000 0.0000 0.0000
# 3 76.1185 71.9672 203.2372 0.0000 0.0000 0.0000
# 4 0.0000 0.0000 0.0000 22.8089 0.0000 0.0000
# 5 0.0000 0.0000 0.0000 0.0000 -0.4482 0.0000
# 6 0.0000 0.0000 0.0000 0.0000 0.0000 25.5575
#
#
#
# Elastic Compliance Matrix: (Units=1/GPa)
#
#
# Indices 1 2 3 4 5 6 
#
# 1 0.036156 -0.007522 -0.010878 0.000000 0.000000 0.000000
# 2 -0.007522 0.023618 -0.005546 0.000000 0.000000 0.000000
# 3 -0.010878 -0.005546 0.010958 0.000000 0.000000 0.000000
# 4 0.000000 0.000000 0.000000 0.043843 0.000000 0.000000
# 5 0.000000 0.000000 0.000000 0.000000 -2.230987 0.000000
# 6 0.000000 0.000000 0.000000 0.000000 0.000000 0.039127
#
#
# Mechanical properties :
#
#
# Convention : Reuss Voigt Hill
#
# Bulk Modulus (GPa) = 43.78193 77.90467 60.84330
# Shear Modulus (GPa) = -2.47307 19.43179 8.47936
#
# Velocity S-wave (km/s) = -1.18817 3.33056 2.20010
# Velocity P-wave (km/s) = 4.80734 7.69818 6.41765
#
# Compressibility (1/GPa) = 0.02284047
#
# Stress axis : x y z
#
# Youngs Moduli (GPa) = 27.65786 42.34071 91.25440
#
# Poissons Ratio (x) = 0.31848 0.99267
# Poissons Ratio (y) = 0.20804 0.50610
# Poissons Ratio (z) = 0.30086 0.23482
#
# Static dielectric constant tensor:
#      x y z
#    x 2.936510 0.000000 0.000000 
#    y 0.000000 3.517980 0.000000 
#    z 0.000000 0.000000 4.234880 
# 
# 
# High freq. dielectric constant tensor:
#      x y z
#    x 1.641460 0.000000 0.000000 
#    y 0.000000 1.683850 0.000000 
#    z 0.000000 0.000000 1.704940 
# 
# From -- ./inp_files/67331.got.cif
#   From: 2010.03.12/outbox.cif.g09.slc.cpg/sg65_34_cif.got.tgz:67331.got - 2010.04.10 20:52:16.
