data_PCOD8269157
_publ_section_title
;
Structure prediction by ZEFSAII (Michael W. Deem and Ramdas Pophale) SiO2 
 PCOD8269157
Probable space group: C M M M
;
_chemical_formula_sum "Si O2"
_cell_formula_units_Z 80
_cell_length_a 18.347430
_cell_length_b 9.027983
_cell_length_c 26.017696
_cell_angle_alpha 90.000000
_cell_angle_beta 90.000000
_cell_angle_gamma 90.000000
_cell_volume 4309.578610
_symmetry_space_group_name_H-M "C M M M"
_symmetry_group_IT_number 65
_symmetry_cell_setting 'orthorhombic'
loop_
_space_group_symop_operation_xyz
x,y,z
-x,-y,z
x,-y,-z
-x,y,-z
-x,-y,-z
x,y,-z
-x,y,z
x,-y,z
1/2+x,1/2+y,z
1/2-x,1/2-y,z
1/2+x,1/2-y,-z
1/2-x,1/2+y,-z
1/2-x,1/2-y,-z
1/2+x,1/2+y,-z
1/2-x,1/2+y,z
1/2+x,1/2-y,z
loop_
_atom_site_type_symbol
_atom_site_label
_atom_site_fract_x
_atom_site_fract_y
_atom_site_fract_z
Si Si1 0.671710 0.326244 0.388616
Si Si2 0.325081 0.669905 0.500000
Si Si3 0.584227 0.170986 0.301575
Si Si4 0.083835 0.176613 0.888626
Si Si5 0.826985 0.674545 0.200505
Si Si6 0.414105 0.660904 0.000000
O O1 0.683312 0.500000 0.380026
O O2 0.750000 0.250000 0.381221
O O3 0.636000 0.291528 0.445516
O O4 0.614296 0.267938 0.347919
O O5 0.304620 0.500000 0.500000
O O6 0.250000 0.750000 0.500000
O O7 0.500000 0.208915 0.294022
O O8 0.623672 0.215265 0.249105
O O9 0.597164 0.000000 0.315184
O O10 0.135969 0.260156 0.849868
O O11 0.000000 0.216982 0.876220
O O12 0.095261 0.000000 0.885505
O O13 0.106505 0.238942 0.945785
O O14 0.816884 0.500000 0.193634
O O15 0.750000 0.750000 0.209890
O O16 0.376152 0.500000 0.000000
O O17 0.500000 0.637063 0.000000
#
# Coordination Sequence:
#
# PCOD8269157 Si02
#       6
#    16   8  16  16  16   8
#     4  10  19  33  55  81 108 139 175 214 256 304
#     4   8  16  30  49  76 107 137 171 211 253 298
#     4  10  22  39  56  76 104 136 171 215 265 313
#     4   9  17  32  56  83 109 138 173 212 255 306
#     4  11  23  38  55  76 104 137 174 217 264 311
#     4   7  12  26  50  79 108 137 169 207 252 301
#
# _framework density 18.563299000000001
#
# number of rings (size 3 to 8) (size 9 to 14) (size 15 to 20)
#    0.000    2.500    0.000    3.600    0.000    5.600 
#    0.000    1.500    0.000    4.800    0.000    0.000 
#    0.000    0.000    0.000    0.000    0.000    0.000 
#
# Total GULP energy -495631.720934 kJ/mol
# GULP energy per Si atom -12390.793023 kJ/mol
# Density = 1.852105 g / cm^3
# Si number density = 18.563299 Si / 1000 Ang^3
#
#
#
# Elastic Constant Matrix: (Units=GPa)
#
#
# Indices 1 2 3 4 5 6 
#
# 1 106.9914 49.7749 75.9834 0.0000 0.0000 0.0000
# 2 49.7749 69.3518 67.9815 0.0000 0.0000 0.0000
# 3 75.9834 67.9815 178.4592 0.0000 0.0000 0.0000
# 4 0.0000 0.0000 0.0000 -379.8555 0.0000 0.0000
# 5 0.0000 0.0000 0.0000 0.0000 30.8703 0.0000
# 6 0.0000 0.0000 0.0000 0.0000 0.0000 16.8196
#
#
#
# Elastic Compliance Matrix: (Units=1/GPa)
#
#
# Indices 1 2 3 4 5 6 
#
# 1 0.015467 -0.007414 -0.003761 0.000000 0.000000 0.000000
# 2 -0.007414 0.026566 -0.006963 0.000000 0.000000 0.000000
# 3 -0.003761 -0.006963 0.009857 0.000000 0.000000 0.000000
# 4 0.000000 0.000000 0.000000 -0.002633 0.000000 0.000000
# 5 0.000000 0.000000 0.000000 0.000000 0.032394 0.000000
# 6 0.000000 0.000000 0.000000 0.000000 0.000000 0.059454
#
#
# Mechanical properties :
#
#
# Convention : Reuss Voigt Hill
#
# Bulk Modulus (GPa) = 64.04680 82.47577 73.26129
# Shear Modulus (GPa) = 27.38424 -55.69560 -14.15568
#
# Velocity S-wave (km/s) = 3.84498 -5.48345 -2.76445
# Velocity P-wave (km/s) = 7.36807 2.10594 5.41865
#
# Compressibility (1/GPa) = 0.01561358
#
# Stress axis : x y z
#
# Youngs Moduli (GPa) = 64.65489 37.64210 101.44584
#
# Poissons Ratio (x) = 0.27907 0.38155
# Poissons Ratio (y) = 0.47935 0.70640
# Poissons Ratio (z) = 0.24317 0.26211
#
# Static dielectric constant tensor:
#      x y z
#    x 3.166560 0.000000 0.000000 
#    y 0.000000 3.320560 0.000000 
#    z 0.000000 0.000000 4.138740 
# 
# 
# High freq. dielectric constant tensor:
#      x y z
#    x 1.693950 0.000000 0.000000 
#    y 0.000000 1.711690 0.000000 
#    z 0.000000 0.000000 1.748180 
# 
# From -- ./inp_files/75106.got.cif
#   From: 2010.03.12/outbox.cif.g09.slc.cpg/sg65_38_cif.got.tgz:75106.got - 2010.04.10 20:52:16.
