data_PCOD8269818
_publ_section_title
;
Structure prediction by ZEFSAII (Michael W. Deem and Ramdas Pophale) SiO2 
 PCOD8269818
Probable space group: C M M M
;
_chemical_formula_sum "Si O2"
_cell_formula_units_Z 96
_cell_length_a 15.549950
_cell_length_b 29.358440
_cell_length_c 13.973094
_cell_angle_alpha 90.000000
_cell_angle_beta 90.000000
_cell_angle_gamma 90.000000
_cell_volume 6379.028649
_symmetry_space_group_name_H-M "C M M M"
_symmetry_group_IT_number 65
_symmetry_cell_setting 'orthorhombic'
loop_
_space_group_symop_operation_xyz
x,y,z
-x,-y,z
x,-y,-z
-x,y,-z
-x,-y,-z
x,y,-z
-x,y,z
x,-y,z
1/2+x,1/2+y,z
1/2-x,1/2-y,z
1/2+x,1/2-y,-z
1/2-x,1/2+y,-z
1/2-x,1/2-y,-z
1/2+x,1/2+y,-z
1/2-x,1/2+y,z
1/2+x,1/2-y,z
loop_
_atom_site_type_symbol
_atom_site_label
_atom_site_fract_x
_atom_site_fract_y
_atom_site_fract_z
Si Si1 0.500000 0.261126 0.394431
Si Si2 0.000000 0.866715 0.606429
Si Si3 0.669205 0.221920 0.387428
Si Si4 0.095924 0.000000 0.387839
Si Si5 0.659564 0.411334 0.297517
Si Si6 0.834934 0.615192 0.612276
Si Si7 0.000000 0.446401 0.612836
Si Si8 0.899335 0.947286 0.892800
O O1 0.500000 0.237669 0.500000
O O2 0.500000 0.314063 0.408882
O O3 0.585493 0.245160 0.339551
O O4 0.086025 0.877832 0.664358
O O5 0.000000 0.890527 0.500000
O O6 0.673079 0.230788 0.500000
O O7 0.750000 0.250000 0.341932
O O8 0.656089 0.168672 0.365475
O O9 0.148777 0.042031 0.351999
O O10 0.090157 0.000000 0.500000
O O11 0.000000 0.000000 0.342462
O O12 0.754810 0.396387 0.321605
O O13 0.652241 0.416591 0.182862
O O14 0.815460 0.607171 0.500000
O O15 0.916096 0.583451 0.644727
O O16 0.000000 0.500000 0.651789
O O17 0.000000 0.449464 0.500000
O O18 0.000000 0.939160 0.877522
O O19 0.876932 0.000000 0.875126
O O20 0.871859 0.932741 0.000000
#
# Coordination Sequence:
#
# PCOD8269818 Si02
#       8
#     8   8  16   8  16  16   8  16
#     4   9  17  28  44  59  82 121 155 185 224 257
#     4  11  20  28  39  66 102 126 146 178 217 274
#     4   9  16  28  43  59  81 113 153 189 222 262
#     4  11  20  28  37  56  94 134 152 164 196 263
#     4  12  20  29  43  65  93 122 153 181 222 269
#     4  10  20  31  45  64  89 122 159 194 228 266
#     4   9  19  33  43  55  81 121 166 201 220 248
#     4   9  17  31  47  62  84 118 156 190 221 259
#
# _framework density 15.049313
#
# number of rings (size 3 to 8) (size 9 to 14) (size 15 to 20)
#    0.000    2.000    2.500    3.500    1.167    4.667 
#    0.000    0.000    0.000    0.000    0.000    0.583 
#    0.000    9.333    0.000    0.000    0.000    0.000 
#
# Total GULP energy -594640.112605 kJ/mol
# GULP energy per Si atom -12388.335679 kJ/mol
# Density = 1.501506 g / cm^3
# Si number density = 15.049313 Si / 1000 Ang^3
#
#
#
# Elastic Constant Matrix: (Units=GPa)
#
#
# Indices 1 2 3 4 5 6 
#
# 1 129.8840 51.6869 35.8617 0.0000 0.0000 0.0000
# 2 51.6869 88.2165 22.7926 0.0000 0.0000 0.0000
# 3 35.8617 22.7926 72.7507 0.0000 0.0000 0.0000
# 4 0.0000 0.0000 0.0000 12.6556 0.0000 0.0000
# 5 0.0000 0.0000 0.0000 0.0000 14.5857 0.0000
# 6 0.0000 0.0000 0.0000 0.0000 0.0000 63.4356
#
#
#
# Elastic Compliance Matrix: (Units=1/GPa)
#
#
# Indices 1 2 3 4 5 6 
#
# 1 0.010867 -0.005422 -0.003658 0.000000 0.000000 0.000000
# 2 -0.005422 0.015039 -0.002039 0.000000 0.000000 0.000000
# 3 -0.003658 -0.002039 0.016188 0.000000 0.000000 0.000000
# 4 0.000000 0.000000 0.000000 0.079016 0.000000 0.000000
# 5 0.000000 0.000000 0.000000 0.000000 0.068560 0.000000
# 6 0.000000 0.000000 0.000000 0.000000 0.000000 0.015764
#
#
# Mechanical properties :
#
#
# Convention : Reuss Voigt Hill
#
# Bulk Modulus (GPa) = 50.36333 56.83707 53.60020
# Shear Modulus (GPa) = 21.34098 30.16938 25.75518
#
# Velocity S-wave (km/s) = 3.76981 4.48225 4.14138
# Velocity P-wave (km/s) = 7.24478 8.03969 7.65256
#
# Compressibility (1/GPa) = 0.01985572
#
# Stress axis : x y z
#
# Youngs Moduli (GPa) = 92.02364 66.49248 61.77558
#
# Poissons Ratio (x) = 0.36051 0.22598
# Poissons Ratio (y) = 0.49894 0.12597
# Poissons Ratio (z) = 0.33662 0.13559
#
# Static dielectric constant tensor:
#      x y z
#    x 3.058500 0.000000 0.000000 
#    y 0.000000 2.989100 0.000000 
#    z 0.000000 0.000000 2.621530 
# 
# 
# High freq. dielectric constant tensor:
#      x y z
#    x 1.579130 0.000000 0.000000 
#    y 0.000000 1.583290 0.000000 
#    z 0.000000 0.000000 1.519070 
# 
# From -- ./inp_files/41029.got.cif
#   From: 2010.03.12/outbox.cif.g09.slc.cpg/sg65_21_cif.got.tgz:41029.got - 2010.04.10 20:52:16.
