data_PCOD8269832
_publ_section_title
;
Structure prediction by ZEFSAII (Michael W. Deem and Ramdas Pophale) SiO2 
 PCOD8269832
Probable space group: C M M M
;
_chemical_formula_sum "Si O2"
_cell_formula_units_Z 96
_cell_length_a 31.700176
_cell_length_b 13.223104
_cell_length_c 12.727961
_cell_angle_alpha 90.000000
_cell_angle_beta 90.000000
_cell_angle_gamma 90.000000
_cell_volume 5335.239540
_symmetry_space_group_name_H-M "C M M M"
_symmetry_group_IT_number 65
_symmetry_cell_setting 'orthorhombic'
loop_
_space_group_symop_operation_xyz
x,y,z
-x,-y,z
x,-y,-z
-x,y,-z
-x,-y,-z
x,y,-z
-x,y,z
x,-y,z
1/2+x,1/2+y,z
1/2-x,1/2-y,z
1/2+x,1/2-y,-z
1/2-x,1/2+y,-z
1/2-x,1/2-y,-z
1/2+x,1/2+y,-z
1/2-x,1/2+y,z
1/2+x,1/2-y,z
loop_
_atom_site_type_symbol
_atom_site_label
_atom_site_fract_x
_atom_site_fract_y
_atom_site_fract_z
Si Si1 0.644549 0.616176 0.121085
Si Si2 0.352990 0.379017 0.500000
Si Si3 0.243130 0.881662 0.500000
Si Si4 0.759243 0.116843 0.115002
Si Si5 0.048448 0.614754 0.621715
Si Si6 0.120329 0.247801 0.694412
Si Si7 0.203047 0.621362 0.697863
O O1 0.631150 0.500000 0.139177
O O2 0.693124 0.631644 0.154665
O O3 0.617569 0.689572 0.194773
O O4 0.637401 0.646613 0.000000
O O5 0.357354 0.500000 0.500000
O O6 0.304582 0.341443 0.500000
O O7 0.375586 0.335079 0.602901
O O8 0.267911 0.841980 0.601639
O O9 0.241368 0.000000 0.500000
O O10 0.725999 0.164154 0.196914
O O11 0.749275 0.000000 0.106585
O O12 0.752335 0.166474 0.000000
O O13 0.061025 0.623267 0.500000
O O14 0.056132 0.500000 0.660481
O O15 0.076720 0.691820 0.687446
O O16 0.000000 0.645601 0.639083
O O17 0.157408 0.329887 0.688587
O O18 0.198209 0.500000 0.698276
#
# Coordination Sequence:
#
# PCOD8269832 Si02
#       7
#    16   8   8  16  16  16  16
#     4   9  19  35  53  73 103 147 192 225 254 297
#     4  11  23  35  47  70 105 143 176 212 259 305
#     4   9  19  33  43  58  99 149 178 201 248 315
#     4   8  15  30  48  66  97 142 185 223 261 297
#     4   9  19  38  62  85 110 137 164 201 258 330
#     4  12  21  32  54  82 103 131 174 225 265 311
#     4  10  20  31  45  70 103 136 173 220 266 308
#
# _framework density 17.993569000000001
#
# number of rings (size 3 to 8) (size 9 to 14) (size 15 to 20)
#    0.000    2.333    0.833    4.000    0.000    6.667 
#    0.000    1.667    0.000    4.500    0.000    2.333 
#    0.000    0.000    0.000    0.000    0.000    0.000 
#
# Total GULP energy -595107.563403 kJ/mol
# GULP energy per Si atom -12398.074238 kJ/mol
# Density = 1.795261 g / cm^3
# Si number density = 17.993569 Si / 1000 Ang^3
#
#
#
# Elastic Constant Matrix: (Units=GPa)
#
#
# Indices 1 2 3 4 5 6 
#
# 1 87.2846 47.1815 44.9061 0.0000 0.0000 0.0000
# 2 47.1815 95.8520 38.5025 0.0000 0.0000 0.0000
# 3 44.9061 38.5025 105.1641 0.0000 0.0000 0.0000
# 4 0.0000 0.0000 0.0000 -8.3446 0.0000 0.0000
# 5 0.0000 0.0000 0.0000 0.0000 22.5671 0.0000
# 6 0.0000 0.0000 0.0000 0.0000 0.0000 31.3834
#
#
#
# Elastic Compliance Matrix: (Units=1/GPa)
#
#
# Indices 1 2 3 4 5 6 
#
# 1 0.017683 -0.006649 -0.005117 0.000000 0.000000 0.000000
# 2 -0.006649 0.014732 -0.002554 0.000000 0.000000 0.000000
# 3 -0.005117 -0.002554 0.012629 0.000000 0.000000 0.000000
# 4 0.000000 0.000000 0.000000 -0.119839 0.000000 0.000000
# 5 0.000000 0.000000 0.000000 0.000000 0.044312 0.000000
# 6 0.000000 0.000000 0.000000 0.000000 0.000000 0.031864
#
#
# Mechanical properties :
#
#
# Convention : Reuss Voigt Hill
#
# Bulk Modulus (GPa) = 60.96074 61.05343 61.00709
# Shear Modulus (GPa) = 140.88685 19.63523 80.26104
#
# Velocity S-wave (km/s) = 8.85824 3.30697 6.68597
# Velocity P-wave (km/s) = 11.77189 6.97035 9.67375
#
# Compressibility (1/GPa) = 0.01640400
#
# Stress axis : x y z
#
# Youngs Moduli (GPa) = 56.55070 67.88101 79.18300
#
# Poissons Ratio (x) = 0.45134 0.40515
# Poissons Ratio (y) = 0.37601 0.20226
# Poissons Ratio (z) = 0.28935 0.17339
#
# Static dielectric constant tensor:
#      x y z
#    x 3.004010 0.000000 0.000000 
#    y 0.000000 3.359780 0.000000 
#    z 0.000000 0.000000 3.630160 
# 
# 
# High freq. dielectric constant tensor:
#      x y z
#    x 1.654100 0.000000 0.000000 
#    y 0.000000 1.716650 0.000000 
#    z 0.000000 0.000000 1.696630 
# 
# From -- ./inp_files/33916.got.cif
#   From: 2010.03.12/outbox.cif.g09.slc.cpg/sg65_17_cif.got.tgz:33916.got - 2010.04.10 20:52:16.
