data_PCOD8269908
_publ_section_title
;
Structure prediction by ZEFSAII (Michael W. Deem and Ramdas Pophale) SiO2 
 PCOD8269908
Probable space group: C M M M
;
_chemical_formula_sum "Si O2"
_cell_formula_units_Z 72
_cell_length_a 9.005975
_cell_length_b 34.443752
_cell_length_c 13.145461
_cell_angle_alpha 90.000000
_cell_angle_beta 90.000000
_cell_angle_gamma 90.000000
_cell_volume 4077.716342
_symmetry_space_group_name_H-M "C M M M"
_symmetry_group_IT_number 65
_symmetry_cell_setting 'orthorhombic'
loop_
_space_group_symop_operation_xyz
x,y,z
-x,-y,z
x,-y,-z
-x,y,-z
-x,-y,-z
x,y,-z
-x,y,z
x,-y,z
1/2+x,1/2+y,z
1/2-x,1/2-y,z
1/2+x,1/2-y,-z
1/2-x,1/2+y,-z
1/2-x,1/2-y,-z
1/2+x,1/2+y,-z
1/2-x,1/2+y,z
1/2+x,1/2-y,z
loop_
_atom_site_type_symbol
_atom_site_label
_atom_site_fract_x
_atom_site_fract_y
_atom_site_fract_z
Si Si1 0.162143 0.285153 0.115753
Si Si2 0.324184 0.078521 0.118371
Si Si3 0.175237 0.849553 0.211200
Si Si4 0.826479 0.790164 0.384815
Si Si5 0.833552 0.000000 0.880020
O O1 0.250000 0.250000 0.171309
O O2 0.262868 0.323449 0.119368
O O3 0.000000 0.291088 0.167889
O O4 0.135215 0.273806 0.000000
O O5 0.500000 0.077684 0.131853
O O6 0.254696 0.109197 0.197598
O O7 0.257273 0.037686 0.155213
O O8 0.282478 0.087471 0.000000
O O9 0.223082 0.826623 0.314310
O O10 0.000000 0.855570 0.202957
O O11 0.782185 0.801359 0.500000
O O12 0.750000 0.750000 0.351653
O O13 0.000000 0.783192 0.372820
O O14 0.000000 0.000000 0.832564
O O15 0.846112 0.000000 0.000000
#
# Coordination Sequence:
#
# PCOD8269908 Si02
#       5
#    16  16  16  16   8
#     4  10  20  32  44  60  87 123 158 191 229 275
#     4  10  20  33  49  71 101 134 164 195 233 279
#     4  11  21  31  47  70  94 122 157 198 240 282
#     4   9  19  35  52  70  93 122 158 201 248 294
#     4   9  17  31  51  73  98 129 164 199 233 274
#
# _framework density 17.656942000000001
#
# number of rings (size 3 to 8) (size 9 to 14) (size 15 to 20)
#    0.000    2.111    0.000    3.667    0.000   10.222 
#    0.000    0.000    0.000    0.000    0.000    0.778 
#    0.000    6.222    0.000    0.000    0.000    0.000 
#
# Total GULP energy -446176.967482 kJ/mol
# GULP energy per Si atom -12393.804652 kJ/mol
# Density = 1.761675 g / cm^3
# Si number density = 17.656942 Si / 1000 Ang^3
#
#
#
# Elastic Constant Matrix: (Units=GPa)
#
#
# Indices 1 2 3 4 5 6 
#
# 1 108.6516 69.3577 40.2068 0.0000 0.0000 0.0000
# 2 69.3577 163.6617 46.8426 0.0000 0.0000 0.0000
# 3 40.2068 46.8426 68.6262 0.0000 0.0000 0.0000
# 4 0.0000 0.0000 0.0000 28.2706 0.0000 0.0000
# 5 0.0000 0.0000 0.0000 0.0000 13.4518 0.0000
# 6 0.0000 0.0000 0.0000 0.0000 0.0000 37.9997
#
#
#
# Elastic Compliance Matrix: (Units=1/GPa)
#
#
# Indices 1 2 3 4 5 6 
#
# 1 0.013936 -0.004436 -0.005137 0.000000 0.000000 0.000000
# 2 -0.004436 0.009005 -0.003548 0.000000 0.000000 0.000000
# 3 -0.005137 -0.003548 0.020003 0.000000 0.000000 0.000000
# 4 0.000000 0.000000 0.000000 0.035372 0.000000 0.000000
# 5 0.000000 0.000000 0.000000 0.000000 0.074339 0.000000
# 6 0.000000 0.000000 0.000000 0.000000 0.000000 0.026316
#
#
# Mechanical properties :
#
#
# Convention : Reuss Voigt Hill
#
# Bulk Modulus (GPa) = 59.86974 72.63928 66.25451
# Shear Modulus (GPa) = 23.72108 28.24660 25.98384
#
# Velocity S-wave (km/s) = 3.66928 4.00402 3.84030
# Velocity P-wave (km/s) = 7.20640 7.91232 7.56760
#
# Compressibility (1/GPa) = 0.01670293
#
# Stress axis : x y z
#
# Youngs Moduli (GPa) = 71.75507 111.04366 49.99137
#
# Poissons Ratio (x) = 0.49255 0.25682
# Poissons Ratio (y) = 0.31828 0.17738
# Poissons Ratio (z) = 0.36863 0.39400
#
# Static dielectric constant tensor:
#      x y z
#    x 3.572100 0.000000 0.000000 
#    y 0.000000 3.342880 0.000000 
#    z 0.000000 0.000000 3.104320 
# 
# 
# High freq. dielectric constant tensor:
#      x y z
#    x 1.701960 0.000000 0.000000 
#    y 0.000000 1.675900 0.000000 
#    z 0.000000 0.000000 1.645400 
# 
# From -- ./inp_files/36984.got.cif
#   From: 2010.03.12/outbox.cif.g09.slc.cpg/sg65_19_cif.got.tgz:36984.got - 2010.04.10 20:52:16.
