data_PCOD8269480
_publ_section_title
;
Structure prediction by ZEFSAII (Michael W. Deem and Ramdas Pophale) SiO2 
 PCOD8269480
Probable space group: C M M M
;
_chemical_formula_sum "Si O2"
_cell_formula_units_Z 72
_cell_length_a 18.366943
_cell_length_b 8.710194
_cell_length_c 23.380657
_cell_angle_alpha 90.000000
_cell_angle_beta 90.000000
_cell_angle_gamma 90.000000
_cell_volume 3740.429013
_symmetry_space_group_name_H-M "C M M M"
_symmetry_group_IT_number 65
_symmetry_cell_setting 'orthorhombic'
loop_
_space_group_symop_operation_xyz
x,y,z
-x,-y,z
x,-y,-z
-x,y,-z
-x,-y,-z
x,y,-z
-x,y,z
x,-y,z
1/2+x,1/2+y,z
1/2-x,1/2-y,z
1/2+x,1/2-y,-z
1/2-x,1/2+y,-z
1/2-x,1/2-y,-z
1/2+x,1/2+y,-z
1/2-x,1/2+y,z
1/2+x,1/2-y,z
loop_
_atom_site_type_symbol
_atom_site_label
_atom_site_fract_x
_atom_site_fract_y
_atom_site_fract_z
Si Si1 0.172689 0.322968 0.000000
Si Si2 0.585518 0.677498 0.772554
Si Si3 0.669241 0.818219 0.124079
Si Si4 0.081579 0.317512 0.563291
Si Si5 0.328781 0.818868 0.669698
O O1 0.250000 0.250000 0.000000
O O2 0.134717 0.280198 0.060634
O O3 0.188879 0.500000 0.000000
O O4 0.500000 0.705130 0.771558
O O5 0.606140 0.500000 0.764432
O O6 0.615309 0.736634 0.832617
O O7 0.619902 0.775317 0.721898
O O8 0.750000 0.750000 0.131044
O O9 0.672311 0.000000 0.135993
O O10 0.107257 0.263286 0.500000
O O11 0.080292 0.500000 0.566143
O O12 0.136501 0.251561 0.610987
O O13 0.000000 0.255312 0.575483
O O14 0.250000 0.750000 0.679606
O O15 0.321684 0.000000 0.666577
#
# Coordination Sequence:
#
# PCOD8269480 Si02
#       5
#     8  16  16  16  16
#     4   8  16  30  51  80 109 139 173 213 259 308
#     4  11  24  40  56  76 105 140 179 224 272 320
#     4  10  19  34  57  83 111 141 177 218 262 314
#     4   8  15  30  53  80 108 139 177 219 262 311
#     4  11  22  36  56  81 109 142 180 221 267 317
#
# _framework density 19.249129
#
# number of rings (size 3 to 8) (size 9 to 14) (size 15 to 20)
#    0.000    2.222    0.000    4.000    0.000    4.000 
#    0.000    0.556    0.000    5.333    0.000    7.778 
#    0.000    0.000    0.000    0.000    0.000    0.000 
#
# Total GULP energy -446178.429637 kJ/mol
# GULP energy per Si atom -12393.845268 kJ/mol
# Density = 1.920532 g / cm^3
# Si number density = 19.249129 Si / 1000 Ang^3
#
#
#
# Elastic Constant Matrix: (Units=GPa)
#
#
# Indices 1 2 3 4 5 6 
#
# 1 86.8601 34.0481 58.8151 0.0000 0.0000 0.0000
# 2 34.0481 48.2858 30.9247 0.0000 0.0000 0.0000
# 3 58.8151 30.9247 157.3721 0.0000 0.0000 0.0000
# 4 0.0000 0.0000 0.0000 451.1823 0.0000 0.0000
# 5 0.0000 0.0000 0.0000 0.0000 25.1256 0.0000
# 6 0.0000 0.0000 0.0000 0.0000 0.0000 18.2874
#
#
#
# Elastic Compliance Matrix: (Units=1/GPa)
#
#
# Indices 1 2 3 4 5 6 
#
# 1 0.018905 -0.010073 -0.005086 0.000000 0.000000 0.000000
# 2 -0.010073 0.029059 -0.001946 0.000000 0.000000 0.000000
# 3 -0.005086 -0.001946 0.008637 0.000000 0.000000 0.000000
# 4 0.000000 0.000000 0.000000 0.002216 0.000000 0.000000
# 5 0.000000 0.000000 0.000000 0.000000 0.039800 0.000000
# 6 0.000000 0.000000 0.000000 0.000000 0.000000 0.054683
#
#
# Mechanical properties :
#
#
# Convention : Reuss Voigt Hill
#
# Bulk Modulus (GPa) = 44.65896 60.01042 52.33469
# Shear Modulus (GPa) = 25.64431 110.16774 67.90602
#
# Velocity S-wave (km/s) = 3.65394 7.57343 5.94593
# Velocity P-wave (km/s) = 6.40722 10.37878 8.62472
#
# Compressibility (1/GPa) = 0.02239192
#
# Stress axis : x y z
#
# Youngs Moduli (GPa) = 52.89518 34.41251 115.77434
#
# Poissons Ratio (x) = 0.34665 0.58883
# Poissons Ratio (y) = 0.53284 0.22524
# Poissons Ratio (z) = 0.26903 0.06695
#
# Static dielectric constant tensor:
#      x y z
#    x 3.430620 0.000000 0.000000 
#    y 0.000000 3.446130 0.000000 
#    z 0.000000 0.000000 4.122670 
# 
# 
# High freq. dielectric constant tensor:
#      x y z
#    x 1.731290 0.000000 0.000000 
#    y 0.000000 1.737610 0.000000 
#    z 0.000000 0.000000 1.775920 
# 
# From -- ./inp_files/74602.got.cif
#   From: 2010.03.12/outbox.cif.g09.slc.cpg/sg65_38_cif.got.tgz:74602.got - 2010.04.10 20:52:16.
