data_PCOD8269658
_publ_section_title
;
Structure prediction by ZEFSAII (Michael W. Deem and Ramdas Pophale) SiO2 
 PCOD8269658
Probable space group: C M M M
;
_chemical_formula_sum "Si O2"
_cell_formula_units_Z 112
_cell_length_a 18.372336
_cell_length_b 27.443588
_cell_length_c 12.946459
_cell_angle_alpha 90.000000
_cell_angle_beta 90.000000
_cell_angle_gamma 90.000000
_cell_volume 6527.641134
_symmetry_space_group_name_H-M "C M M M"
_symmetry_group_IT_number 65
_symmetry_cell_setting 'orthorhombic'
loop_
_space_group_symop_operation_xyz
x,y,z
-x,-y,z
x,-y,-z
-x,y,-z
-x,-y,-z
x,y,-z
-x,y,z
x,-y,z
1/2+x,1/2+y,z
1/2-x,1/2-y,z
1/2+x,1/2-y,-z
1/2-x,1/2+y,-z
1/2-x,1/2-y,-z
1/2+x,1/2+y,-z
1/2-x,1/2+y,z
1/2+x,1/2-y,z
loop_
_atom_site_type_symbol
_atom_site_label
_atom_site_fract_x
_atom_site_fract_y
_atom_site_fract_z
Si Si1 0.276668 0.054400 0.120969
Si Si2 0.819769 0.127210 0.249181
Si Si3 0.580248 0.893653 0.119009
Si Si4 0.282318 0.196654 0.617315
Si Si5 0.085098 0.799099 0.119507
Si Si6 0.083145 0.296936 0.245687
Si Si7 0.416796 0.445087 0.621458
O O1 0.224855 0.091789 0.176587
O O2 0.360926 0.065478 0.147859
O O3 0.259994 0.000000 0.160316
O O4 0.261989 0.059090 0.000000
O O5 0.764956 0.160447 0.313647
O O6 0.871420 0.158615 0.176375
O O7 0.867501 0.095272 0.326008
O O8 0.500000 0.914557 0.145676
O O9 0.596689 0.844917 0.180255
O O10 0.585636 0.878785 0.000000
O O11 0.282146 0.177327 0.500000
O O12 0.250000 0.250000 0.625106
O O13 0.365628 0.200021 0.654628
O O14 0.104828 0.748123 0.173036
O O15 0.000000 0.810900 0.129227
O O16 0.109126 0.796355 0.000000
O O17 0.000000 0.292332 0.284506
O O18 0.408046 0.438506 0.500000
O O19 0.500000 0.436185 0.655002
O O20 0.393235 0.500000 0.653769
#
# Coordination Sequence:
#
# PCOD8269658 Si02
#       7
#    16  16  16  16  16  16  16
#     4  10  21  34  50  77 109 138 174 218 259 306
#     4  12  20  35  55  77 105 145 174 207 261 321
#     4   9  17  31  53  78 104 136 174 215 257 305
#     4  11  23  38  53  78 110 138 176 224 262 306
#     4  10  21  35  53  79 109 139 173 212 252 309
#     4  10  19  36  56  78 105 140 178 212 257 311
#     4   9  19  36  57  80 102 128 172 225 267 306
#
# _framework density 17.157806000000001
#
# number of rings (size 3 to 8) (size 9 to 14) (size 15 to 20)
#    0.000    1.857    2.857    2.571    0.000    2.286 
#    0.000    2.143    0.000    0.000    0.000    6.000 
#    0.000    2.286    0.000    0.000    0.000    0.000 
#
# Total GULP energy -694390.631960 kJ/mol
# GULP energy per Si atom -12399.832714 kJ/mol
# Density = 1.711875 g / cm^3
# Si number density = 17.157806 Si / 1000 Ang^3
#
#
#
# Elastic Constant Matrix: (Units=GPa)
#
#
# Indices 1 2 3 4 5 6 
#
# 1 88.2943 47.5227 52.3575 0.0000 0.0000 0.0000
# 2 47.5227 101.4714 53.4002 0.0000 0.0000 0.0000
# 3 52.3575 53.4002 64.4471 0.0000 0.0000 0.0000
# 4 0.0000 0.0000 0.0000 27.1337 0.0000 0.0000
# 5 0.0000 0.0000 0.0000 0.0000 26.0945 0.0000
# 6 0.0000 0.0000 0.0000 0.0000 0.0000 11.1291
#
#
#
# Elastic Compliance Matrix: (Units=1/GPa)
#
#
# Indices 1 2 3 4 5 6 
#
# 1 0.021998 -0.001591 -0.016553 0.000000 0.000000 0.000000
# 2 -0.001591 0.017590 -0.013282 0.000000 0.000000 0.000000
# 3 -0.016553 -0.013282 0.039970 0.000000 0.000000 0.000000
# 4 0.000000 0.000000 0.000000 0.036855 0.000000 0.000000
# 5 0.000000 0.000000 0.000000 0.000000 0.038322 0.000000
# 6 0.000000 0.000000 0.000000 0.000000 0.000000 0.089854
#
#
# Mechanical properties :
#
#
# Convention : Reuss Voigt Hill
#
# Bulk Modulus (GPa) = 59.86166 62.30819 61.08493
# Shear Modulus (GPa) = 15.97395 19.60027 17.78711
#
# Velocity S-wave (km/s) = 3.05454 3.38354 3.22324
# Velocity P-wave (km/s) = 6.88512 7.18735 7.03786
#
# Compressibility (1/GPa) = 0.01670518
#
# Stress axis : x y z
#
# Youngs Moduli (GPa) = 45.45900 56.84995 25.01898
#
# Poissons Ratio (x) = 0.09047 0.41413
# Poissons Ratio (y) = 0.07234 0.33231
# Poissons Ratio (z) = 0.75247 0.75509
#
# Static dielectric constant tensor:
#      x y z
#    x 3.309160 0.000000 0.000000 
#    y 0.000000 3.243990 0.000000 
#    z 0.000000 0.000000 3.156980 
# 
# 
# High freq. dielectric constant tensor:
#      x y z
#    x 1.672250 0.000000 0.000000 
#    y 0.000000 1.668730 0.000000 
#    z 0.000000 0.000000 1.654980 
# 
# From -- ./inp_files/29376.got.cif
#   From: 2010.03.12/outbox.cif.g09.slc.cpg/sg65_15_cif.got.tgz:29376.got - 2010.04.10 20:52:16.
