data_PCOD8269888
_publ_section_title
;
Structure prediction by ZEFSAII (Michael W. Deem and Ramdas Pophale) SiO2 
 PCOD8269888
Probable space group: C M M M
;
_chemical_formula_sum "Si O2"
_cell_formula_units_Z 96
_cell_length_a 29.864351
_cell_length_b 9.085805
_cell_length_c 25.955579
_cell_angle_alpha 90.000000
_cell_angle_beta 90.000000
_cell_angle_gamma 90.000000
_cell_volume 7042.830142
_symmetry_space_group_name_H-M "C M M M"
_symmetry_group_IT_number 65
_symmetry_cell_setting 'orthorhombic'
loop_
_space_group_symop_operation_xyz
x,y,z
-x,-y,z
x,-y,-z
-x,y,-z
-x,-y,-z
x,y,-z
-x,y,z
x,-y,z
1/2+x,1/2+y,z
1/2-x,1/2-y,z
1/2+x,1/2-y,-z
1/2-x,1/2+y,-z
1/2-x,1/2-y,-z
1/2+x,1/2+y,-z
1/2-x,1/2+y,z
1/2+x,1/2-y,z
loop_
_atom_site_type_symbol
_atom_site_label
_atom_site_fract_x
_atom_site_fract_y
_atom_site_fract_z
Si Si1 0.949785 0.825055 0.554551
Si Si2 0.946358 0.166108 0.335227
Si Si3 0.793534 0.166384 0.061328
Si Si4 0.052787 0.170054 0.134723
Si Si5 0.053284 0.334699 0.763650
Si Si6 0.617395 0.170920 0.060503
O O1 0.925557 0.776552 0.500000
O O2 0.927656 0.773019 0.608996
O O3 0.000000 0.762166 0.552124
O O4 0.951533 0.000000 0.557464
O O5 0.927372 0.267593 0.289463
O O6 0.000000 0.169246 0.336822
O O7 0.929753 0.000000 0.324743
O O8 0.750000 0.250000 0.083404
O O9 0.837448 0.251722 0.080739
O O10 0.794254 0.000000 0.082803
O O11 0.791937 0.165671 0.000000
O O12 0.070237 0.237824 0.188454
O O13 0.075003 0.255493 0.087542
O O14 0.000000 0.191310 0.128668
O O15 0.066670 0.000000 0.133230
O O16 0.071682 0.500000 0.769869
O O17 0.000000 0.332765 0.761784
O O18 0.620097 0.000000 0.074873
O O19 0.610982 0.195145 0.000000
#
# Coordination Sequence:
#
# PCOD8269888 Si02
#       6
#    16  16  16  16  16  16
#     4   7   9  13  22  37  55  73  94 122 157 197
#     4   8  12  18  29  43  57  74  99 131 165 202
#     4   9  16  27  44  64  84 103 122 144 171 205
#     4  10  20  32  44  56  71  93 122 155 188 221
#     4   9  16  25  36  48  62  81 107 140 177 214
#     4  10  20  32  45  61  80 100 121 145 177 219
#
# _framework density 13.630884999999999
#
# number of rings (size 3 to 8) (size 9 to 14) (size 15 to 20)
#    0.000    3.167    0.000    3.500    0.000    6.333 
#    0.000    1.667    0.000    0.500    0.000    3.500 
#    0.000    0.000    0.000    0.000    0.000    0.000 
#
# Total GULP energy -594666.512892 kJ/mol
# GULP energy per Si atom -12388.885685 kJ/mol
# Density = 1.359986 g / cm^3
# Si number density = 13.630885 Si / 1000 Ang^3
#
#
#
# Elastic Constant Matrix: (Units=GPa)
#
#
# Indices 1 2 3 4 5 6 
#
# 1 28.1438 27.5603 27.4666 0.0000 0.0000 0.0000
# 2 27.5603 101.3269 50.0349 0.0000 0.0000 0.0000
# 3 27.4666 50.0349 79.4615 0.0000 0.0000 0.0000
# 4 0.0000 0.0000 0.0000 13.2198 0.0000 0.0000
# 5 0.0000 0.0000 0.0000 0.0000 0.5318 0.0000
# 6 0.0000 0.0000 0.0000 0.0000 0.0000 16.6516
#
#
#
# Elastic Compliance Matrix: (Units=1/GPa)
#
#
# Indices 1 2 3 4 5 6 
#
# 1 0.058341 -0.008577 -0.014765 0.000000 0.000000 0.000000
# 2 -0.008577 0.015583 -0.006848 0.000000 0.000000 0.000000
# 3 -0.014765 -0.006848 0.022000 0.000000 0.000000 0.000000
# 4 0.000000 0.000000 0.000000 0.075644 0.000000 0.000000
# 5 0.000000 0.000000 0.000000 0.000000 1.880306 0.000000
# 6 0.000000 0.000000 0.000000 0.000000 0.000000 0.060054
#
#
# Mechanical properties :
#
#
# Convention : Reuss Voigt Hill
#
# Bulk Modulus (GPa) = 28.13385 46.56174 37.34780
# Shear Modulus (GPa) = 2.28921 13.00533 7.64727
#
# Velocity S-wave (km/s) = 1.29733 3.09221 2.37117
# Velocity P-wave (km/s) = 4.78839 6.85436 5.91231
#
# Compressibility (1/GPa) = 0.03554437
#
# Stress axis : x y z
#
# Youngs Moduli (GPa) = 17.14055 64.17090 45.45425
#
# Poissons Ratio (x) = 0.55042 0.67114
# Poissons Ratio (y) = 0.14702 0.31125
# Poissons Ratio (z) = 0.25308 0.43942
#
# Static dielectric constant tensor:
#      x y z
#    x 2.248720 0.000000 0.000000 
#    y 0.000000 2.779120 0.000000 
#    z 0.000000 0.000000 2.955480 
# 
# 
# High freq. dielectric constant tensor:
#      x y z
#    x 1.447380 0.000000 0.000000 
#    y 0.000000 1.522930 0.000000 
#    z 0.000000 0.000000 1.518440 
# 
# From -- ./inp_files/73461.got.cif
#   From: 2010.03.12/outbox.cif.g09.slc.cpg/sg65_37_cif.got.tgz:73461.got - 2010.04.10 20:52:16.
