data_PCOD8269062
_publ_section_title
;
Structure prediction by ZEFSAII (Michael W. Deem and Ramdas Pophale) SiO2 
 PCOD8269062
Probable space group: C M M M
;
_chemical_formula_sum "Si O2"
_cell_formula_units_Z 88
_cell_length_a 8.692316
_cell_length_b 18.725163
_cell_length_c 28.078512
_cell_angle_alpha 90.000000
_cell_angle_beta 90.000000
_cell_angle_gamma 90.000000
_cell_volume 4570.199959
_symmetry_space_group_name_H-M "C M M M"
_symmetry_group_IT_number 65
_symmetry_cell_setting 'orthorhombic'
loop_
_space_group_symop_operation_xyz
x,y,z
-x,-y,z
x,-y,-z
-x,y,-z
-x,-y,-z
x,y,-z
-x,y,z
x,-y,z
1/2+x,1/2+y,z
1/2-x,1/2-y,z
1/2+x,1/2-y,-z
1/2-x,1/2+y,-z
1/2-x,1/2-y,-z
1/2+x,1/2+y,-z
1/2-x,1/2+y,z
1/2+x,1/2-y,z
loop_
_atom_site_type_symbol
_atom_site_label
_atom_site_fract_x
_atom_site_fract_y
_atom_site_fract_z
Si Si1 0.182959 0.171077 0.500000
Si Si2 0.319118 0.174171 0.221811
Si Si3 0.682507 0.673572 0.322320
Si Si4 0.178679 0.083030 0.140793
Si Si5 0.182595 0.080256 0.410545
Si Si6 0.681025 0.675541 0.946979
O O1 0.250000 0.250000 0.500000
O O2 0.244697 0.128134 0.454037
O O3 0.000000 0.176606 0.500000
O O4 0.500000 0.182591 0.228063
O O5 0.250000 0.250000 0.205862
O O6 0.247053 0.148233 0.271574
O O7 0.281154 0.115803 0.182363
O O8 0.500000 0.679859 0.319406
O O9 0.750000 0.750000 0.337215
O O10 0.736393 0.615756 0.361131
O O11 0.231426 0.114578 0.089933
O O12 0.000000 0.099664 0.151004
O O13 0.213321 0.000000 0.138785
O O14 0.000000 0.076787 0.413128
O O15 0.250867 0.000000 0.413767
O O16 0.500000 0.684144 0.948081
O O17 0.750000 0.750000 0.928999
O O18 0.742767 0.655888 0.000000
#
# Coordination Sequence:
#
# PCOD8269062 Si02
#       6
#     8  16  16  16  16  16
#     4  10  19  33  55  79 105 136 172 214 256 302
#     4  11  22  37  57  79 105 138 179 223 266 314
#     4  10  19  33  54  78 104 135 173 216 261 310
#     4  10  21  36  54  78 109 143 177 216 264 315
#     4   9  18  32  52  78 105 136 174 213 254 304
#     4   9  18  33  54  79 105 136 175 216 258 307
#
# _framework density 19.255175000000001
#
# number of rings (size 3 to 8) (size 9 to 14) (size 15 to 20)
#    0.000    2.182    0.000    4.636    0.000    4.727 
#    0.000    4.545    0.000    4.909    0.000    3.818 
#    0.000    0.000    0.000    0.000    0.000    0.000 
#
# Total GULP energy -545668.278328 kJ/mol
# GULP energy per Si atom -12401.551780 kJ/mol
# Density = 1.921135 g / cm^3
# Si number density = 19.255175 Si / 1000 Ang^3
#
#
#
# Elastic Constant Matrix: (Units=GPa)
#
#
# Indices 1 2 3 4 5 6 
#
# 1 62.5326 34.0949 40.4172 0.0000 0.0000 0.0000
# 2 34.0949 147.8127 96.6684 0.0000 0.0000 0.0000
# 3 40.4172 96.6684 148.7162 0.0000 0.0000 0.0000
# 4 0.0000 0.0000 0.0000 12.0736 0.0000 0.0000
# 5 0.0000 0.0000 0.0000 0.0000 8.8984 0.0000
# 6 0.0000 0.0000 0.0000 0.0000 0.0000 27.1856
#
#
#
# Elastic Compliance Matrix: (Units=1/GPa)
#
#
# Indices 1 2 3 4 5 6 
#
# 1 0.019674 -0.001811 -0.004170 0.000000 0.000000 0.000000
# 2 -0.001811 0.011935 -0.007266 0.000000 0.000000 0.000000
# 3 -0.004170 -0.007266 0.012580 0.000000 0.000000 0.000000
# 4 0.000000 0.000000 0.000000 0.082825 0.000000 0.000000
# 5 0.000000 0.000000 0.000000 0.000000 0.112379 0.000000
# 6 0.000000 0.000000 0.000000 0.000000 0.000000 0.036784
#
#
# Mechanical properties :
#
#
# Convention : Reuss Voigt Hill
#
# Bulk Modulus (GPa) = 56.50902 77.93584 67.22243
# Shear Modulus (GPa) = 16.20383 22.15693 19.18038
#
# Velocity S-wave (km/s) = 2.90406 3.39588 3.15955
# Velocity P-wave (km/s) = 6.37620 7.47925 6.94964
#
# Compressibility (1/GPa) = 0.01769629
#
# Stress axis : x y z
#
# Youngs Moduli (GPa) = 50.82811 83.78920 79.49023
#
# Poissons Ratio (x) = 0.15176 0.33144
# Poissons Ratio (y) = 0.09206 0.57754
# Poissons Ratio (z) = 0.21193 0.60878
#
# Static dielectric constant tensor:
#      x y z
#    x 3.386270 0.000000 0.000000 
#    y 0.000000 3.530370 0.000000 
#    z 0.000000 0.000000 3.820910 
# 
# 
# High freq. dielectric constant tensor:
#      x y z
#    x 1.728590 0.000000 0.000000 
#    y 0.000000 1.748200 0.000000 
#    z 0.000000 0.000000 1.765560 
# 
# From -- ./inp_files/76608.got.cif
#   From: 2010.03.12/outbox.cif.g09.slc.cpg/sg65_39_cif.got.tgz:76608.got - 2010.04.10 20:52:16.
