data_PCOD8269455
_publ_section_title
;
Structure prediction by ZEFSAII (Michael W. Deem and Ramdas Pophale) SiO2 
 PCOD8269455
Probable space group: C M M M
;
_chemical_formula_sum "Si O2"
_cell_formula_units_Z 64
_cell_length_a 19.070969
_cell_length_b 7.715933
_cell_length_c 22.015741
_cell_angle_alpha 90.000000
_cell_angle_beta 90.000000
_cell_angle_gamma 90.000000
_cell_volume 3239.623312
_symmetry_space_group_name_H-M "C M M M"
_symmetry_group_IT_number 65
_symmetry_cell_setting 'orthorhombic'
loop_
_space_group_symop_operation_xyz
x,y,z
-x,-y,z
x,-y,-z
-x,y,-z
-x,-y,-z
x,y,-z
-x,y,z
x,-y,z
1/2+x,1/2+y,z
1/2-x,1/2-y,z
1/2+x,1/2-y,-z
1/2-x,1/2+y,-z
1/2-x,1/2-y,-z
1/2+x,1/2+y,-z
1/2-x,1/2+y,z
1/2+x,1/2-y,z
loop_
_atom_site_type_symbol
_atom_site_label
_atom_site_fract_x
_atom_site_fract_y
_atom_site_fract_z
Si Si1 0.330024 0.303066 0.370256
Si Si2 0.577860 0.201057 0.871796
Si Si3 0.827520 0.295717 0.764366
Si Si4 0.578599 0.702998 0.000000
Si Si5 0.580946 0.000000 0.428236
O O1 0.342720 0.500000 0.393152
O O2 0.250000 0.250000 0.383796
O O3 0.345731 0.297761 0.298562
O O4 0.382256 0.173963 0.404323
O O5 0.500000 0.286318 0.871619
O O6 0.622627 0.282133 0.816983
O O7 0.572492 0.000000 0.858852
O O8 0.615192 0.232643 0.937536
O O9 0.836245 0.500000 0.754268
O O10 0.750000 0.250000 0.786124
O O11 0.578356 0.500000 0.000000
O O12 0.500000 0.782029 0.000000
O O13 0.500000 0.000000 0.406701
O O14 0.586813 0.000000 0.500000
#
# Coordination Sequence:
#
# PCOD8269455 Si02
#       5
#    16  16  16   8   8
#     4  11  21  41  68  95 125 167 216 257 305 371
#     4   9  18  32  51  74 101 141 188 232 286 351
#     4  10  19  34  56  84 115 150 188 243 298 350
#     4   9  17  29  46  69 102 137 177 235 288 339
#     4  11  26  46  66  96 137 168 202 262 316 360
#
# _framework density 19.755382000000001
#
# number of rings (size 3 to 8) (size 9 to 14) (size 15 to 20)
#    0.000    2.000    2.500    2.625    0.000    6.000 
#    0.000    1.875    0.000    0.000    0.000    0.000 
#    0.000    0.000    0.000    0.000    0.000    0.000 
#
# Total GULP energy -396677.649060 kJ/mol
# GULP energy per Si atom -12396.176533 kJ/mol
# Density = 1.971042 g / cm^3
# Si number density = 19.755382 Si / 1000 Ang^3
#
#
#
# Elastic Constant Matrix: (Units=GPa)
#
#
# Indices 1 2 3 4 5 6 
#
# 1 108.0249 43.8579 75.8377 0.0000 0.0000 0.0000
# 2 43.8579 115.4599 33.7427 0.0000 0.0000 0.0000
# 3 75.8377 33.7427 110.8120 0.0000 0.0000 0.0000
# 4 0.0000 0.0000 0.0000 19.2493 0.0000 0.0000
# 5 0.0000 0.0000 0.0000 0.0000 24.3034 0.0000
# 6 0.0000 0.0000 0.0000 0.0000 0.0000 0.9640
#
#
#
# Elastic Compliance Matrix: (Units=1/GPa)
#
#
# Indices 1 2 3 4 5 6 
#
# 1 0.019222 -0.003795 -0.012000 0.000000 0.000000 0.000000
# 2 -0.003795 0.010256 -0.000526 0.000000 0.000000 0.000000
# 3 -0.012000 -0.000526 0.017397 0.000000 0.000000 0.000000
# 4 0.000000 0.000000 0.000000 0.051950 0.000000 0.000000
# 5 0.000000 0.000000 0.000000 0.000000 0.041146 0.000000
# 6 0.000000 0.000000 0.000000 0.000000 0.000000 1.037390
#
#
# Mechanical properties :
#
#
# Convention : Reuss Voigt Hill
#
# Bulk Modulus (GPa) = 70.25333 71.24148 70.74741
# Shear Modulus (GPa) = 4.11608 20.96057 12.53833
#
# Velocity S-wave (km/s) = 1.44501 3.26084 2.52202
# Velocity P-wave (km/s) = 6.19862 7.09349 6.66110
#
# Compressibility (1/GPa) = 0.01423420
#
# Stress axis : x y z
#
# Youngs Moduli (GPa) = 52.02362 97.50221 57.48162
#
# Poissons Ratio (x) = 0.36999 0.68976
# Poissons Ratio (y) = 0.19741 0.03024
# Poissons Ratio (z) = 0.62427 0.05129
#
# Static dielectric constant tensor:
#      x y z
#    x 3.883090 0.000000 0.000000 
#    y 0.000000 3.539560 0.000000 
#    z 0.000000 0.000000 3.775890 
# 
# 
# High freq. dielectric constant tensor:
#      x y z
#    x 1.741710 0.000000 0.000000 
#    y 0.000000 1.774450 0.000000 
#    z 0.000000 0.000000 1.778120 
# 
# From -- ./inp_files/70281.got.cif
#   From: 2010.03.12/outbox.cif.g09.slc.cpg/sg65_36_cif.got.tgz:70281.got - 2010.04.10 20:52:16.
