data_PCOD8269117
_publ_section_title
;
Structure prediction by ZEFSAII (Michael W. Deem and Ramdas Pophale) SiO2 
 PCOD8269117
Probable space group: C M M M
;
_chemical_formula_sum "Si O2"
_cell_formula_units_Z 88
_cell_length_a 30.127679
_cell_length_b 19.954017
_cell_length_c 7.920670
_cell_angle_alpha 90.000000
_cell_angle_beta 90.000000
_cell_angle_gamma 90.000000
_cell_volume 4761.655077
_symmetry_space_group_name_H-M "C M M M"
_symmetry_group_IT_number 65
_symmetry_cell_setting 'orthorhombic'
loop_
_space_group_symop_operation_xyz
x,y,z
-x,-y,z
x,-y,-z
-x,y,-z
-x,-y,-z
x,y,-z
-x,y,z
x,-y,z
1/2+x,1/2+y,z
1/2-x,1/2-y,z
1/2+x,1/2-y,-z
1/2-x,1/2+y,-z
1/2-x,1/2-y,-z
1/2+x,1/2+y,-z
1/2-x,1/2+y,z
1/2+x,1/2-y,z
loop_
_atom_site_type_symbol
_atom_site_label
_atom_site_fract_x
_atom_site_fract_y
_atom_site_fract_z
Si Si1 0.417617 0.133368 0.809867
Si Si2 0.096714 0.882760 0.808635
Si Si3 0.203223 0.212944 0.500000
Si Si4 0.500000 0.212909 0.693636
Si Si5 0.952102 0.500000 0.686866
Si Si6 0.500000 0.629323 0.693633
Si Si7 0.342655 0.575219 0.500000
Si Si8 0.144468 0.748459 0.807606
O O1 0.457993 0.183321 0.786264
O O2 0.421610 0.064893 0.709125
O O3 0.373914 0.175034 0.759669
O O4 0.414968 0.109593 0.000000
O O5 0.126994 0.918941 0.668246
O O6 0.105109 0.803103 0.789474
O O7 0.044693 0.899271 0.779562
O O8 0.109244 0.906531 0.000000
O O9 0.250000 0.250000 0.500000
O O10 0.197356 0.131000 0.500000
O O11 0.182388 0.237846 0.326149
O O12 0.500000 0.189581 0.500000
O O13 0.500000 0.291637 0.713245
O O14 0.968705 0.500000 0.500000
O O15 0.000000 0.500000 0.790326
O O16 0.500000 0.606772 0.500000
O O17 0.321898 0.500000 0.500000
O O18 0.163260 0.749738 0.000000
#
# Coordination Sequence:
#
# PCOD8269117 Si02
#       8
#    16  16   8   8   8   8   8  16
#     4  11  21  33  48  70 104 147 191 238 285 330
#     4  10  19  33  54  83 116 155 198 234 274 321
#     4  10  22  40  69  95 113 139 175 222 286 356
#     4  11  21  26  46  73 105 147 189 244 286 320
#     4  11  23  33  43  65 102 152 204 244 276 322
#     4  11  19  29  48  78 116 155 195 245 283 311
#     4  10  22  41  62  86 119 148 182 231 276 332
#     4   9  20  35  57  86 114 141 181 235 285 334
#
# _framework density 18.480968000000001
#
# number of rings (size 3 to 8) (size 9 to 14) (size 15 to 20)
#    0.000    1.727    3.636    1.364    2.545    1.818 
#    0.000    0.909    2.000    1.091    0.000    0.000 
#    0.000    0.000    0.000    0.000    0.000    0.000 
#
# Total GULP energy -545131.577088 kJ/mol
# GULP energy per Si atom -12389.354025 kJ/mol
# Density = 1.843890 g / cm^3
# Si number density = 18.480968 Si / 1000 Ang^3
#
#
#
# Elastic Constant Matrix: (Units=GPa)
#
#
# Indices 1 2 3 4 5 6 
#
# 1 87.2252 37.5182 40.4269 0.0000 0.0000 0.0000
# 2 37.5182 103.2454 51.5362 0.0000 0.0000 0.0000
# 3 40.4269 51.5362 88.5061 0.0000 0.0000 0.0000
# 4 0.0000 0.0000 0.0000 16.5345 0.0000 0.0000
# 5 0.0000 0.0000 0.0000 0.0000 21.0092 0.0000
# 6 0.0000 0.0000 0.0000 0.0000 0.0000 16.2820
#
#
#
# Elastic Compliance Matrix: (Units=1/GPa)
#
#
# Indices 1 2 3 4 5 6 
#
# 1 0.015131 -0.002888 -0.005230 0.000000 0.000000 0.000000
# 2 -0.002888 0.014206 -0.006953 0.000000 0.000000 0.000000
# 3 -0.005230 -0.006953 0.017736 0.000000 0.000000 0.000000
# 4 0.000000 0.000000 0.000000 0.060480 0.000000 0.000000
# 5 0.000000 0.000000 0.000000 0.000000 0.047598 0.000000
# 6 0.000000 0.000000 0.000000 0.000000 0.000000 0.061418
#
#
# Mechanical properties :
#
#
# Convention : Reuss Voigt Hill
#
# Bulk Modulus (GPa) = 59.06080 59.77103 59.41591
# Shear Modulus (GPa) = 19.81362 20.73149 20.27256
#
# Velocity S-wave (km/s) = 3.27786 3.35292 3.31561
# Velocity P-wave (km/s) = 6.80829 6.88488 6.84669
#
# Compressibility (1/GPa) = 0.01693171
#
# Stress axis : x y z
#
# Youngs Moduli (GPa) = 66.09151 70.39480 56.38285
#
# Poissons Ratio (x) = 0.20329 0.29486
# Poissons Ratio (y) = 0.19086 0.39201
# Poissons Ratio (z) = 0.34563 0.48943
#
# Static dielectric constant tensor:
#      x y z
#    x 2.975700 0.000000 0.000000 
#    y 0.000000 3.366370 0.000000 
#    z 0.000000 0.000000 3.656970 
# 
# 
# High freq. dielectric constant tensor:
#      x y z
#    x 1.666010 0.000000 0.000000 
#    y 0.000000 1.711550 0.000000 
#    z 0.000000 0.000000 1.736710 
# 
# From -- ./inp_files/14123.got.cif
#   From: 2010.03.12/outbox.cif.g09.slc.cpg/sg65_8_cif.got.tgz:14123.got - 2010.04.10 20:52:16.
