data_PCOD8269979
_publ_section_title
;
Structure prediction by ZEFSAII (Michael W. Deem and Ramdas Pophale) SiO2 
 PCOD8269979
Probable space group: C M M M
;
_chemical_formula_sum "Si O2"
_cell_formula_units_Z 88
_cell_length_a 28.614343
_cell_length_b 9.187987
_cell_length_c 19.222241
_cell_angle_alpha 90.000000
_cell_angle_beta 90.000000
_cell_angle_gamma 90.000000
_cell_volume 5053.685002
_symmetry_space_group_name_H-M "C M M M"
_symmetry_group_IT_number 65
_symmetry_cell_setting 'orthorhombic'
loop_
_space_group_symop_operation_xyz
x,y,z
-x,-y,z
x,-y,-z
-x,y,-z
-x,-y,-z
x,y,-z
-x,y,z
x,-y,z
1/2+x,1/2+y,z
1/2-x,1/2-y,z
1/2+x,1/2-y,-z
1/2-x,1/2+y,-z
1/2-x,1/2-y,-z
1/2+x,1/2+y,-z
1/2-x,1/2+y,z
1/2+x,1/2-y,z
loop_
_atom_site_type_symbol
_atom_site_label
_atom_site_fract_x
_atom_site_fract_y
_atom_site_fract_z
Si Si1 0.122698 0.173492 0.922254
Si Si2 0.201415 0.169421 0.181362
Si Si3 0.907399 0.329134 0.579987
Si Si4 0.447814 0.672793 0.809368
Si Si5 0.629380 0.669259 0.299085
Si Si6 0.000000 0.161897 0.581787
O O1 0.169236 0.226540 0.882139
O O2 0.076829 0.228541 0.880524
O O3 0.122637 0.000000 0.924110
O O4 0.122047 0.239514 0.000000
O O5 0.250000 0.250000 0.179757
O O6 0.175617 0.200779 0.254328
O O7 0.211277 0.000000 0.172611
O O8 0.894833 0.292789 0.500000
O O9 0.913359 0.500000 0.590775
O O10 0.867211 0.264502 0.630180
O O11 0.954690 0.250591 0.605095
O O12 0.500000 0.739831 0.803277
O O13 0.450192 0.500000 0.811566
O O14 0.416366 0.720547 0.743957
O O15 0.625983 0.500000 0.319026
O O16 0.000000 0.144617 0.500000
O O17 0.000000 0.000000 0.616515
#
# Coordination Sequence:
#
# PCOD8269979 Si02
#       6
#    16  16  16  16  16   8
#     4   8  14  25  41  64  95 125 153 191 237 280
#     4   9  18  32  49  70  95 122 156 198 242 287
#     4  10  20  32  46  68  98 126 156 199 243 281
#     4   8  14  24  39  62  91 123 160 196 228 269
#     4   9  18  31  47  68  93 123 160 199 238 286
#     4   9  17  29  45  65  91 127 164 191 224 273
#
# _framework density 17.413036000000002
#
# number of rings (size 3 to 8) (size 9 to 14) (size 15 to 20)
#    0.000    3.182    0.000    3.000    1.273    3.636 
#    0.000    1.818    0.000    0.545    0.000    0.000 
#    0.000    0.000    0.000    8.000    0.000    8.000 
#
# Total GULP energy -545345.937935 kJ/mol
# GULP energy per Si atom -12394.225862 kJ/mol
# Density = 1.737340 g / cm^3
# Si number density = 17.413036 Si / 1000 Ang^3
#
#
#
# Elastic Constant Matrix: (Units=GPa)
#
#
# Indices 1 2 3 4 5 6 
#
# 1 103.9440 21.0285 36.9947 0.0000 0.0000 0.0000
# 2 21.0285 44.2779 34.2044 0.0000 0.0000 0.0000
# 3 36.9947 34.2044 110.4388 0.0000 0.0000 0.0000
# 4 0.0000 0.0000 0.0000 13.2796 0.0000 0.0000
# 5 0.0000 0.0000 0.0000 0.0000 16.7592 0.0000
# 6 0.0000 0.0000 0.0000 0.0000 0.0000 26.1588
#
#
#
# Elastic Compliance Matrix: (Units=1/GPa)
#
#
# Indices 1 2 3 4 5 6 
#
# 1 0.011257 -0.003199 -0.002780 0.000000 0.000000 0.000000
# 2 -0.003199 0.030596 -0.008405 0.000000 0.000000 0.000000
# 3 -0.002780 -0.008405 0.012589 0.000000 0.000000 0.000000
# 4 0.000000 0.000000 0.000000 0.075304 0.000000 0.000000
# 5 0.000000 0.000000 0.000000 0.000000 0.059669 0.000000
# 6 0.000000 0.000000 0.000000 0.000000 0.000000 0.038228
#
#
# Mechanical properties :
#
#
# Convention : Reuss Voigt Hill
#
# Bulk Modulus (GPa) = 38.94740 49.23509 44.09124
# Shear Modulus (GPa) = 18.87019 22.33507 20.60263
#
# Velocity S-wave (km/s) = 3.29550 3.58531 3.44346
# Velocity P-wave (km/s) = 6.07419 6.74355 6.41761
#
# Compressibility (1/GPa) = 0.02567566
#
# Stress axis : x y z
#
# Youngs Moduli (GPa) = 88.83218 32.68386 79.43357
#
# Poissons Ratio (x) = 0.10454 0.22085
# Poissons Ratio (y) = 0.28413 0.66761
# Poissons Ratio (z) = 0.24698 0.27469
#
# Static dielectric constant tensor:
#      x y z
#    x 3.232180 0.000000 0.000000 
#    y 0.000000 2.851010 0.000000 
#    z 0.000000 0.000000 3.420790 
# 
# 
# High freq. dielectric constant tensor:
#      x y z
#    x 1.655710 0.000000 0.000000 
#    y 0.000000 1.633710 0.000000 
#    z 0.000000 0.000000 1.679250 
# 
# From -- ./inp_files/58021.got.cif
#   From: 2010.03.12/outbox.cif.g09.slc.cpg/sg65_30_cif.got.tgz:58021.got - 2010.04.10 20:52:16.
