data_PCOD8269685
_publ_section_title
;
Structure prediction by ZEFSAII (Michael W. Deem and Ramdas Pophale) SiO2 
 PCOD8269685
Probable space group: C M M M
;
_chemical_formula_sum "Si O2"
_cell_formula_units_Z 72
_cell_length_a 14.223172
_cell_length_b 18.814275
_cell_length_c 13.060516
_cell_angle_alpha 90.000000
_cell_angle_beta 90.000000
_cell_angle_gamma 90.000000
_cell_volume 3494.976703
_symmetry_space_group_name_H-M "C M M M"
_symmetry_group_IT_number 65
_symmetry_cell_setting 'orthorhombic'
loop_
_space_group_symop_operation_xyz
x,y,z
-x,-y,z
x,-y,-z
-x,y,-z
-x,-y,-z
x,y,-z
-x,y,z
x,-y,z
1/2+x,1/2+y,z
1/2-x,1/2-y,z
1/2+x,1/2-y,-z
1/2-x,1/2+y,-z
1/2-x,1/2-y,-z
1/2+x,1/2+y,-z
1/2-x,1/2+y,z
1/2+x,1/2-y,z
loop_
_atom_site_type_symbol
_atom_site_label
_atom_site_fract_x
_atom_site_fract_y
_atom_site_fract_z
Si Si1 0.889815 0.817519 0.387453
Si Si2 0.388861 0.167854 0.695630
Si Si3 0.732234 0.832911 0.113512
Si Si4 0.890675 0.082495 0.208321
Si Si5 0.111929 0.420021 0.500000
O O1 0.843036 0.825738 0.500000
O O2 0.852928 0.747402 0.329372
O O3 0.865172 0.886563 0.320523
O O4 0.000000 0.808192 0.402002
O O5 0.500000 0.163106 0.710785
O O6 0.341696 0.141104 0.800858
O O7 0.352243 0.119069 0.602442
O O8 0.750000 0.750000 0.125719
O O9 0.829871 0.875981 0.124331
O O10 0.691940 0.849350 0.000000
O O11 0.000000 0.095364 0.181926
O O12 0.864645 0.000000 0.208131
O O13 0.151142 0.500000 0.500000
O O14 0.000000 0.418267 0.500000
#
# Coordination Sequence:
#
# PCOD8269685 Si02
#       5
#    16  16  16  16   8
#     4   9  16  31  58  89 121 158 198 243 301 368
#     4  10  19  36  62  90 123 160 197 245 307 368
#     4  11  24  40  60  88 121 159 207 259 305 359
#     4  10  22  41  63  88 122 163 206 254 307 364
#     4   9  18  34  59  90 122 158 199 242 291 358
#
# _framework density 20.600995999999999
#
# number of rings (size 3 to 8) (size 9 to 14) (size 15 to 20)
#    0.000    2.111    3.333    0.000    0.000    2.667 
#    2.000    7.222    0.000    0.000    0.000    4.667 
#    0.000    0.000    0.000    0.000    0.000    0.000 
#
# Total GULP energy -446365.011543 kJ/mol
# GULP energy per Si atom -12399.028098 kJ/mol
# Density = 2.055411 g / cm^3
# Si number density = 20.600996 Si / 1000 Ang^3
#
#
#
# Elastic Constant Matrix: (Units=GPa)
#
#
# Indices 1 2 3 4 5 6 
#
# 1 61.0379 37.8924 54.7280 0.0000 0.0000 0.0000
# 2 37.8924 148.3086 58.2480 0.0000 0.0000 0.0000
# 3 54.7280 58.2480 187.3734 0.0000 0.0000 0.0000
# 4 0.0000 0.0000 0.0000 -4.1733 0.0000 0.0000
# 5 0.0000 0.0000 0.0000 0.0000 25.8605 0.0000
# 6 0.0000 0.0000 0.0000 0.0000 0.0000 18.1937
#
#
#
# Elastic Compliance Matrix: (Units=1/GPa)
#
#
# Indices 1 2 3 4 5 6 
#
# 1 0.023978 -0.003845 -0.005808 0.000000 0.000000 0.000000
# 2 -0.003845 0.008297 -0.001456 0.000000 0.000000 0.000000
# 3 -0.005808 -0.001456 0.007486 0.000000 0.000000 0.000000
# 4 0.000000 0.000000 0.000000 -0.239618 0.000000 0.000000
# 5 0.000000 0.000000 0.000000 0.000000 0.038669 0.000000
# 6 0.000000 0.000000 0.000000 0.000000 0.000000 0.054964
#
#
# Mechanical properties :
#
#
# Convention : Reuss Voigt Hill
#
# Bulk Modulus (GPa) = 57.00553 77.60631 67.30592
# Shear Modulus (GPa) = -63.97350 24.36627 -19.80362
#
# Velocity S-wave (km/s) = -5.57862 3.44288 -3.10384
# Velocity P-wave (km/s) = 3.70990 7.31830 4.46061
#
# Compressibility (1/GPa) = 0.01754216
#
# Stress axis : x y z
#
# Youngs Moduli (GPa) = 41.70466 120.52497 133.58147
#
# Poissons Ratio (x) = 0.46344 0.77587
# Poissons Ratio (y) = 0.16036 0.19452
# Poissons Ratio (z) = 0.24223 0.17550
#
# Static dielectric constant tensor:
#      x y z
#    x 3.528650 0.000000 0.000000 
#    y 0.000000 3.692630 0.000000 
#    z 0.000000 0.000000 3.876210 
# 
# 
# High freq. dielectric constant tensor:
#      x y z
#    x 1.794880 0.000000 0.000000 
#    y 0.000000 1.794660 0.000000 
#    z 0.000000 0.000000 1.808790 
# 
# From -- ./inp_files/39771.got.cif
#   From: 2010.03.12/outbox.cif.g09.slc.cpg/sg65_20_cif.got.tgz:39771.got - 2010.04.10 20:52:16.
