data_PCOD8269615
_publ_section_title
;
Structure prediction by ZEFSAII (Michael W. Deem and Ramdas Pophale) SiO2 
 PCOD8269615
Probable space group: C M M M
;
_chemical_formula_sum "Si O2"
_cell_formula_units_Z 72
_cell_length_a 26.737489
_cell_length_b 15.496037
_cell_length_c 8.870631
_cell_angle_alpha 90.000000
_cell_angle_beta 90.000000
_cell_angle_gamma 90.000000
_cell_volume 3675.325243
_symmetry_space_group_name_H-M "C M M M"
_symmetry_group_IT_number 65
_symmetry_cell_setting 'orthorhombic'
loop_
_space_group_symop_operation_xyz
x,y,z
-x,-y,z
x,-y,-z
-x,y,-z
-x,-y,-z
x,y,-z
-x,y,z
x,-y,z
1/2+x,1/2+y,z
1/2-x,1/2-y,z
1/2+x,1/2-y,-z
1/2-x,1/2+y,-z
1/2-x,1/2-y,-z
1/2+x,1/2+y,-z
1/2-x,1/2+y,z
1/2+x,1/2-y,z
loop_
_atom_site_type_symbol
_atom_site_label
_atom_site_fract_x
_atom_site_fract_y
_atom_site_fract_z
Si Si1 0.443809 0.662341 0.320673
Si Si2 0.223427 0.338189 0.674039
Si Si3 0.273192 0.500000 0.822765
Si Si4 0.618592 0.500000 0.679557
Si Si5 0.893614 0.662642 0.325369
Si Si6 0.943495 0.500000 0.822097
O O1 0.444097 0.659993 0.500000
O O2 0.500000 0.653476 0.257088
O O3 0.410598 0.583700 0.258803
O O4 0.420299 0.751604 0.263081
O O5 0.235685 0.359509 0.500000
O O6 0.250000 0.250000 0.724417
O O7 0.242514 0.415682 0.776342
O O8 0.164945 0.326321 0.701212
O O9 0.326140 0.500000 0.742387
O O10 0.281155 0.500000 0.000000
O O11 0.621506 0.500000 0.500000
O O12 0.906147 0.646778 0.500000
O O13 0.914081 0.583256 0.232148
O O14 0.000000 0.500000 0.757251
O O15 0.944285 0.500000 0.000000
#
# Coordination Sequence:
#
# PCOD8269615 Si02
#       6
#    16  16   8   8  16   8
#     4   9  17  31  56  89 116 139 176 226 276 325
#     4  10  21  39  62  86 112 145 187 233 282 336
#     4  12  25  38  55  82 116 153 190 231 280 332
#     4  10  19  35  59  84 113 149 186 225 269 322
#     4  10  20  35  58  85 110 140 180 227 277 327
#     4  11  24  39  54  76 109 149 188 225 271 326
#
# _framework density 19.590102999999999
#
# number of rings (size 3 to 8) (size 9 to 14) (size 15 to 20)
#    0.000    1.889    0.000    4.333    0.000   10.667 
#    0.000    3.333    0.000    2.667    0.000    0.000 
#    0.000    0.000    0.000    0.000    0.000    0.000 
#
# Total GULP energy -446542.830137 kJ/mol
# GULP energy per Si atom -12403.967504 kJ/mol
# Density = 1.954552 g / cm^3
# Si number density = 19.590103 Si / 1000 Ang^3
#
#
#
# Elastic Constant Matrix: (Units=GPa)
#
#
# Indices 1 2 3 4 5 6 
#
# 1 87.6014 28.5546 18.7301 0.0000 0.0000 0.0000
# 2 28.5546 136.5761 26.5613 0.0000 0.0000 0.0000
# 3 18.7301 26.5613 36.0154 0.0000 0.0000 0.0000
# 4 0.0000 0.0000 0.0000 -4.9346 0.0000 0.0000
# 5 0.0000 0.0000 0.0000 0.0000 -622.0283 0.0000
# 6 0.0000 0.0000 0.0000 0.0000 0.0000 44.9656
#
#
#
# Elastic Compliance Matrix: (Units=1/GPa)
#
#
# Indices 1 2 3 4 5 6 
#
# 1 0.013157 -0.001658 -0.005620 0.000000 0.000000 0.000000
# 2 -0.001658 0.008757 -0.005596 0.000000 0.000000 0.000000
# 3 -0.005620 -0.005596 0.034816 0.000000 0.000000 0.000000
# 4 0.000000 0.000000 0.000000 -0.202652 0.000000 0.000000
# 5 0.000000 0.000000 0.000000 0.000000 -0.001608 0.000000
# 6 0.000000 0.000000 0.000000 0.000000 0.000000 0.022239
#
#
# Mechanical properties :
#
#
# Convention : Reuss Voigt Hill
#
# Bulk Modulus (GPa) = 32.27651 45.32054 38.79852
# Shear Modulus (GPa) = -56.04397 -103.97632 -80.01015
#
# Velocity S-wave (km/s) = -5.35448 -7.29323 -6.39772
# Velocity P-wave (km/s) = 4.65999 6.90919 5.89290
#
# Compressibility (1/GPa) = 0.03098228
#
# Stress axis : x y z
#
# Youngs Moduli (GPa) = 76.00316 114.19628 28.72280
#
# Poissons Ratio (x) = 0.18933 0.16142
# Poissons Ratio (y) = 0.12601 0.16073
# Poissons Ratio (z) = 0.42713 0.63904
#
# Static dielectric constant tensor:
#      x y z
#    x 3.725880 0.000000 0.000000 
#    y 0.000000 3.716730 0.000000 
#    z 0.000000 0.000000 3.246590 
# 
# 
# High freq. dielectric constant tensor:
#      x y z
#    x 1.785300 0.000000 0.000000 
#    y 0.000000 1.783170 0.000000 
#    z 0.000000 0.000000 1.723340 
# 
# From -- ./inp_files/15822.got.cif
#   From: 2010.03.12/outbox.cif.g09.slc.cpg/sg65_8_cif.got.tgz:15822.got - 2010.04.10 20:52:16.
