data_PCOD8269270
_publ_section_title
;
Structure prediction by ZEFSAII (Michael W. Deem and Ramdas Pophale) SiO2 
 PCOD8269270
Probable space group: C M M M
;
_chemical_formula_sum "Si O2"
_cell_formula_units_Z 104
_cell_length_a 8.000129
_cell_length_b 23.984572
_cell_length_c 29.797296
_cell_angle_alpha 90.000000
_cell_angle_beta 90.000000
_cell_angle_gamma 90.000000
_cell_volume 5717.495324
_symmetry_space_group_name_H-M "C M M M"
_symmetry_group_IT_number 65
_symmetry_cell_setting 'orthorhombic'
loop_
_space_group_symop_operation_xyz
x,y,z
-x,-y,z
x,-y,-z
-x,y,-z
-x,-y,-z
x,y,-z
-x,y,z
x,-y,z
1/2+x,1/2+y,z
1/2-x,1/2-y,z
1/2+x,1/2-y,-z
1/2-x,1/2+y,-z
1/2-x,1/2-y,-z
1/2+x,1/2+y,-z
1/2-x,1/2+y,z
1/2+x,1/2-y,z
loop_
_atom_site_type_symbol
_atom_site_label
_atom_site_fract_x
_atom_site_fract_y
_atom_site_fract_z
Si Si1 0.693513 0.690794 0.950746
Si Si2 0.192849 0.500000 0.841932
Si Si3 0.690955 0.889495 0.294336
Si Si4 0.801591 0.686271 0.783003
Si Si5 0.806402 0.378869 0.130368
Si Si6 0.000000 0.934198 0.450156
Si Si7 0.811299 0.000000 0.253021
Si Si8 0.695936 0.065677 0.612378
O O1 0.500000 0.692582 0.958208
O O2 0.750000 0.750000 0.930249
O O3 0.734307 0.642304 0.916240
O O4 0.778562 0.680538 0.000000
O O5 0.231946 0.444698 0.870371
O O6 0.317619 0.500000 0.800381
O O7 0.000000 0.500000 0.825450
O O8 0.500000 0.874194 0.300358
O O9 0.773899 0.840764 0.263369
O O10 0.708614 0.946782 0.268147
O O11 0.760126 0.897995 0.344832
O O12 0.750000 0.750000 0.786396
O O13 0.727811 0.652422 0.825936
O O14 0.000000 0.680030 0.782012
O O15 0.000000 0.365444 0.131082
O O16 0.826143 0.915702 0.426257
O O17 0.000000 0.907622 0.500000
O O18 0.000000 0.000000 0.453476
O O19 0.000000 0.000000 0.272334
O O20 0.500000 0.077792 0.599396
O O21 0.715252 0.000000 0.623775
#
# Coordination Sequence:
#
# PCOD8269270 Si02
#       8
#    16   8  16  16  16   8   8  16
#     4  10  21  37  57  79 103 131 166 213 261 307
#     4  10  20  38  55  73 104 137 171 205 250 302
#     4  10  19  34  51  68 100 142 175 211 255 306
#     4  10  21  35  51  72 102 138 170 206 256 306
#     4  10  20  35  57  78 100 135 171 209 252 303
#     4   9  18  30  44  66 104 140 170 216 261 308
#     4  12  22  28  48  79 101 131 175 219 253 289
#     4   9  17  28  47  70  95 134 177 213 257 310
#
# _framework density 18.189784
#
# number of rings (size 3 to 8) (size 9 to 14) (size 15 to 20)
#    0.000    2.077    2.308    1.615    1.077    4.308 
#    0.000    1.923    0.000    2.308    0.000    0.000 
#    0.000    0.615    0.308    0.000    0.000    0.000 
#
# Total GULP energy -644347.414072 kJ/mol
# GULP energy per Si atom -12391.296424 kJ/mol
# Density = 1.814838 g / cm^3
# Si number density = 18.189784 Si / 1000 Ang^3
#
#
#
# Elastic Constant Matrix: (Units=GPa)
#
#
# Indices 1 2 3 4 5 6 
#
# 1 45.0761 22.0691 43.5273 0.0000 0.0000 0.0000
# 2 22.0691 102.8119 56.4273 0.0000 0.0000 0.0000
# 3 43.5273 56.4273 141.7871 0.0000 0.0000 0.0000
# 4 0.0000 0.0000 0.0000 27.8121 0.0000 0.0000
# 5 0.0000 0.0000 0.0000 0.0000 25.0529 0.0000
# 6 0.0000 0.0000 0.0000 0.0000 0.0000 17.4644
#
#
#
# Elastic Compliance Matrix: (Units=1/GPa)
#
#
# Indices 1 2 3 4 5 6 
#
# 1 0.031813 -0.001879 -0.009019 0.000000 0.000000 0.000000
# 2 -0.001879 0.012556 -0.004420 0.000000 0.000000 0.000000
# 3 -0.009019 -0.004420 0.011580 0.000000 0.000000 0.000000
# 4 0.000000 0.000000 0.000000 0.035956 0.000000 0.000000
# 5 0.000000 0.000000 0.000000 0.000000 0.039916 0.000000
# 6 0.000000 0.000000 0.000000 0.000000 0.000000 0.057259
#
#
# Mechanical properties :
#
#
# Convention : Reuss Voigt Hill
#
# Bulk Modulus (GPa) = 39.50346 59.30253 49.40300
# Shear Modulus (GPa) = 21.91507 25.24264 23.57886
#
# Velocity S-wave (km/s) = 3.47479 3.72928 3.60428
# Velocity P-wave (km/s) = 6.15333 7.15655 6.67382
#
# Compressibility (1/GPa) = 0.02531424
#
# Stress axis : x y z
#
# Youngs Moduli (GPa) = 31.43328 79.64507 86.35242
#
# Poissons Ratio (x) = 0.14967 0.77878
# Poissons Ratio (y) = 0.05907 0.38167
# Poissons Ratio (z) = 0.28348 0.35203
#
# Static dielectric constant tensor:
#      x y z
#    x 3.289110 0.000000 0.000000 
#    y 0.000000 3.159430 0.000000 
#    z 0.000000 0.000000 5.178120 
# 
# 
# High freq. dielectric constant tensor:
#      x y z
#    x 1.699680 0.000000 0.000000 
#    y 0.000000 1.675260 0.000000 
#    z 0.000000 0.000000 1.700220 
# 
# From -- ./inp_files/73630.got.cif
#   From: 2010.03.12/outbox.cif.g09.slc.cpg/sg65_37_cif.got.tgz:73630.got - 2010.04.10 20:52:16.
