data_PCOD8269291
_publ_section_title
;
Structure prediction by ZEFSAII (Michael W. Deem and Ramdas Pophale) SiO2 
 PCOD8269291
Probable space group: C M M M
;
_chemical_formula_sum "Si O2"
_cell_formula_units_Z 88
_cell_length_a 9.102551
_cell_length_b 30.508130
_cell_length_c 16.964938
_cell_angle_alpha 90.000000
_cell_angle_beta 90.000000
_cell_angle_gamma 90.000000
_cell_volume 4711.193976
_symmetry_space_group_name_H-M "C M M M"
_symmetry_group_IT_number 65
_symmetry_cell_setting 'orthorhombic'
loop_
_space_group_symop_operation_xyz
x,y,z
-x,-y,z
x,-y,-z
-x,y,-z
-x,-y,-z
x,y,-z
-x,y,z
x,-y,z
1/2+x,1/2+y,z
1/2-x,1/2-y,z
1/2+x,1/2-y,-z
1/2-x,1/2+y,-z
1/2-x,1/2-y,-z
1/2+x,1/2+y,-z
1/2-x,1/2+y,z
1/2+x,1/2-y,z
loop_
_atom_site_type_symbol
_atom_site_label
_atom_site_fract_x
_atom_site_fract_y
_atom_site_fract_z
Si Si1 0.826290 0.888488 0.709801
Si Si2 0.172059 0.208048 0.756139
Si Si3 0.658236 0.450434 0.000000
Si Si4 0.166090 0.410088 0.134822
Si Si5 0.669114 0.950332 0.407480
Si Si6 0.334440 0.188597 0.911368
O O1 0.782648 0.836648 0.710515
O O2 0.750553 0.911847 0.782975
O O3 0.769614 0.913099 0.632170
O O4 0.000000 0.893663 0.716658
O O5 0.250000 0.250000 0.714620
O O6 0.221662 0.207788 0.847771
O O7 0.000000 0.215374 0.753014
O O8 0.752472 0.442848 0.922356
O O9 0.614493 0.500000 0.000000
O O10 0.500000 0.424346 0.000000
O O11 0.170038 0.363486 0.092650
O O12 0.000000 0.425900 0.149672
O O13 0.692979 0.945023 0.500000
O O14 0.500000 0.941820 0.384738
O O15 0.714149 0.000000 0.381879
O O16 0.500000 0.205036 0.892340
O O17 0.287139 0.202820 0.000000
#
# Coordination Sequence:
#
# PCOD8269291 Si02
#       6
#    16  16   8  16  16  16
#     4  10  21  36  56  84 113 144 181 223 275 328
#     4  10  21  35  51  75 105 141 183 226 272 323
#     4  11  23  35  47  67  98 135 176 227 281 325
#     4  10  19  34  53  72  96 134 182 225 267 321
#     4   9  19  37  61  89 118 146 178 216 262 323
#     4   9  17  31  50  71  95 127 171 223 274 323
#
# _framework density 18.678916000000001
#
# number of rings (size 3 to 8) (size 9 to 14) (size 15 to 20)
#    0.000    2.273    0.909    2.455    0.000    5.818 
#    0.000    0.909    0.000    0.545    0.000    0.000 
#    0.000    0.000    0.000    0.000    0.000    0.000 
#
# Total GULP energy -545447.321789 kJ/mol
# GULP energy per Si atom -12396.530041 kJ/mol
# Density = 1.863640 g / cm^3
# Si number density = 18.678916 Si / 1000 Ang^3
#
#
#
# Elastic Constant Matrix: (Units=GPa)
#
#
# Indices 1 2 3 4 5 6 
#
# 1 115.3527 59.4045 45.5550 0.0000 0.0000 0.0000
# 2 59.4045 101.3811 46.4312 0.0000 0.0000 0.0000
# 3 45.5550 46.4312 70.6264 0.0000 0.0000 0.0000
# 4 0.0000 0.0000 0.0000 -102.8734 0.0000 0.0000
# 5 0.0000 0.0000 0.0000 0.0000 11.2213 0.0000
# 6 0.0000 0.0000 0.0000 0.0000 0.0000 29.6817
#
#
#
# Elastic Compliance Matrix: (Units=1/GPa)
#
#
# Indices 1 2 3 4 5 6 
#
# 1 0.013564 -0.005639 -0.005042 0.000000 0.000000 0.000000
# 2 -0.005639 0.016457 -0.007182 0.000000 0.000000 0.000000
# 3 -0.005042 -0.007182 0.022133 0.000000 0.000000 0.000000
# 4 0.000000 0.000000 0.000000 -0.009721 0.000000 0.000000
# 5 0.000000 0.000000 0.000000 0.000000 0.089116 0.000000
# 6 0.000000 0.000000 0.000000 0.000000 0.000000 0.033691
#
#
# Mechanical properties :
#
#
# Convention : Reuss Voigt Hill
#
# Bulk Modulus (GPa) = 60.87073 65.57129 63.22101
# Shear Modulus (GPa) = 24.21980 -3.32945 10.44517
#
# Velocity S-wave (km/s) = 3.60479 -1.33654 2.36730
# Velocity P-wave (km/s) = 7.06999 5.72703 6.43365
#
# Compressibility (1/GPa) = 0.01642826
#
# Stress axis : x y z
#
# Youngs Moduli (GPa) = 73.72400 60.76386 45.18161
#
# Poissons Ratio (x) = 0.34263 0.22781
# Poissons Ratio (y) = 0.41571 0.32450
# Poissons Ratio (z) = 0.37172 0.43642
#
# Static dielectric constant tensor:
#      x y z
#    x 3.503860 0.000000 0.000000 
#    y 0.000000 3.516560 0.000000 
#    z 0.000000 0.000000 3.238210 
# 
# 
# High freq. dielectric constant tensor:
#      x y z
#    x 1.736120 0.000000 0.000000 
#    y 0.000000 1.726720 0.000000 
#    z 0.000000 0.000000 1.696170 
# 
# From -- ./inp_files/50312.got.cif
#   From: 2010.03.12/outbox.cif.g09.slc.cpg/sg65_26_cif.got.tgz:50312.got - 2010.04.10 20:52:16.
