data_PCOD8269584
_publ_section_title
;
Structure prediction by ZEFSAII (Michael W. Deem and Ramdas Pophale) SiO2 
 PCOD8269584
Probable space group: C M M M
;
_chemical_formula_sum "Si O2"
_cell_formula_units_Z 104
_cell_length_a 22.257480
_cell_length_b 14.502562
_cell_length_c 17.243000
_cell_angle_alpha 90.000000
_cell_angle_beta 90.000000
_cell_angle_gamma 90.000000
_cell_volume 5565.876310
_symmetry_space_group_name_H-M "C M M M"
_symmetry_group_IT_number 65
_symmetry_cell_setting 'orthorhombic'
loop_
_space_group_symop_operation_xyz
x,y,z
-x,-y,z
x,-y,-z
-x,y,-z
-x,-y,-z
x,y,-z
-x,y,z
x,-y,z
1/2+x,1/2+y,z
1/2-x,1/2-y,z
1/2+x,1/2-y,-z
1/2-x,1/2+y,-z
1/2-x,1/2-y,-z
1/2+x,1/2+y,-z
1/2-x,1/2+y,z
1/2+x,1/2-y,z
loop_
_atom_site_type_symbol
_atom_site_label
_atom_site_fract_x
_atom_site_fract_y
_atom_site_fract_z
Si Si1 0.571022 0.396296 0.000000
Si Si2 0.264057 0.356475 0.410704
Si Si3 0.135730 0.400739 0.634084
Si Si4 0.568212 0.897912 0.209775
Si Si5 0.070269 0.799164 0.843561
Si Si6 0.565008 0.733776 0.416534
Si Si7 0.121646 0.106969 0.302858
O O1 0.592917 0.340954 0.924528
O O2 0.598140 0.500000 0.000000
O O3 0.500000 0.401825 0.000000
O O4 0.278864 0.388278 0.500000
O O5 0.250000 0.250000 0.410134
O O6 0.207066 0.409601 0.376022
O O7 0.316774 0.377748 0.349781
O O8 0.108573 0.500000 0.607562
O O9 0.116098 0.381912 0.722185
O O10 0.113327 0.315565 0.583605
O O11 0.500000 0.893079 0.242904
O O12 0.577867 0.812500 0.150878
O O13 0.578654 0.000000 0.171189
O O14 0.115872 0.841892 0.779877
O O15 0.000000 0.824595 0.826595
O O16 0.571593 0.685449 0.500000
O O17 0.500000 0.780250 0.404996
O O18 0.570252 0.653373 0.354286
O O19 0.108421 0.000000 0.289932
#
# Coordination Sequence:
#
# PCOD8269584 Si02
#       7
#     8  16  16  16  16  16  16
#     4   9  18  32  53  83 114 145 180 220 270 328
#     4  11  22  38  57  76 105 145 188 237 285 325
#     4  11  21  35  56  79 105 141 184 234 284 327
#     4   9  17  31  54  82 111 144 182 226 277 333
#     4  10  19  35  57  82 114 146 178 222 275 332
#     4  11  23  37  52  74 106 142 183 230 277 329
#     4  12  24  37  55  78 106 145 187 226 270 328
#
# _framework density 18.685286999999999
#
# number of rings (size 3 to 8) (size 9 to 14) (size 15 to 20)
#    0.000    1.462    3.077    2.769    0.000    5.846 
#    0.000    1.923    0.000    2.308    0.000    4.846 
#    0.000    4.923    0.000    0.000    0.000    0.000 
#
# Total GULP energy -644239.472611 kJ/mol
# GULP energy per Si atom -12389.220627 kJ/mol
# Density = 1.864276 g / cm^3
# Si number density = 18.685287 Si / 1000 Ang^3
#
#
#
# Elastic Constant Matrix: (Units=GPa)
#
#
# Indices 1 2 3 4 5 6 
#
# 1 76.1322 23.4220 43.1641 0.0000 0.0000 0.0000
# 2 23.4220 148.9968 65.0196 0.0000 0.0000 0.0000
# 3 43.1641 65.0196 131.4032 0.0000 0.0000 0.0000
# 4 0.0000 0.0000 0.0000 6.6278 0.0000 0.0000
# 5 0.0000 0.0000 0.0000 0.0000 12.1154 0.0000
# 6 0.0000 0.0000 0.0000 0.0000 0.0000 18.7926
#
#
#
# Elastic Compliance Matrix: (Units=1/GPa)
#
#
# Indices 1 2 3 4 5 6 
#
# 1 0.016151 -0.000285 -0.005164 0.000000 0.000000 0.000000
# 2 -0.000285 0.008565 -0.004144 0.000000 0.000000 0.000000
# 3 -0.005164 -0.004144 0.011357 0.000000 0.000000 0.000000
# 4 0.000000 0.000000 0.000000 0.150879 0.000000 0.000000
# 5 0.000000 0.000000 0.000000 0.000000 0.082540 0.000000
# 6 0.000000 0.000000 0.000000 0.000000 0.000000 0.053212
#
#
# Mechanical properties :
#
#
# Convention : Reuss Voigt Hill
#
# Bulk Modulus (GPa) = 59.22306 68.86039 64.04173
# Shear Modulus (GPa) = 14.38768 22.50227 18.44498
#
# Velocity S-wave (km/s) = 2.77790 3.47404 3.14529
# Velocity P-wave (km/s) = 6.48481 7.28180 6.89483
#
# Compressibility (1/GPa) = 0.01688531
#
# Stress axis : x y z
#
# Youngs Moduli (GPa) = 61.91700 116.75574 88.05063
#
# Poissons Ratio (x) = 0.03332 0.45470
# Poissons Ratio (y) = 0.01767 0.36490
# Poissons Ratio (z) = 0.31974 0.48387
#
# Static dielectric constant tensor:
#      x y z
#    x 3.577940 0.000000 0.000000 
#    y 0.000000 3.792130 0.000000 
#    z 0.000000 0.000000 3.318600 
# 
# 
# High freq. dielectric constant tensor:
#      x y z
#    x 1.705340 0.000000 0.000000 
#    y 0.000000 1.746070 0.000000 
#    z 0.000000 0.000000 1.697900 
# 
# From -- ./inp_files/55910.got.cif
#   From: 2010.03.12/outbox.cif.g09.slc.cpg/sg65_28_cif.got.tgz:55910.got - 2010.04.10 20:52:16.
