data_PCOD8269534
_publ_section_title
;
Structure prediction by ZEFSAII (Michael W. Deem and Ramdas Pophale) SiO2 
 PCOD8269534
Probable space group: C M M M
;
_chemical_formula_sum "Si O2"
_cell_formula_units_Z 64
_cell_length_a 17.443106
_cell_length_b 15.658853
_cell_length_c 11.746232
_cell_angle_alpha 90.000000
_cell_angle_beta 90.000000
_cell_angle_gamma 90.000000
_cell_volume 3208.354447
_symmetry_space_group_name_H-M "C M M M"
_symmetry_group_IT_number 65
_symmetry_cell_setting 'orthorhombic'
loop_
_space_group_symop_operation_xyz
x,y,z
-x,-y,z
x,-y,-z
-x,y,-z
-x,-y,-z
x,y,-z
-x,y,z
x,-y,z
1/2+x,1/2+y,z
1/2-x,1/2-y,z
1/2+x,1/2-y,-z
1/2-x,1/2+y,-z
1/2-x,1/2-y,-z
1/2+x,1/2+y,-z
1/2-x,1/2+y,z
1/2+x,1/2-y,z
loop_
_atom_site_type_symbol
_atom_site_label
_atom_site_fract_x
_atom_site_fract_y
_atom_site_fract_z
Si Si1 0.914674 0.784747 0.500000
Si Si2 0.000000 0.099256 0.134109
Si Si3 0.854688 0.175956 0.258783
Si Si4 0.189421 0.632767 0.743464
Si Si5 0.868002 0.596255 0.500000
Si Si6 0.912937 0.500000 0.134187
O O1 0.871184 0.824876 0.606936
O O2 0.922460 0.680303 0.500000
O O3 0.000000 0.821237 0.500000
O O4 0.074908 0.142554 0.185793
O O5 0.000000 0.000000 0.166025
O O6 0.000000 0.114612 0.000000
O O7 0.836653 0.272563 0.227449
O O8 0.779564 0.119413 0.228812
O O9 0.183078 0.604158 0.612496
O O10 0.133225 0.581319 0.824120
O O11 0.907416 0.500000 0.500000
O O12 0.000000 0.500000 0.184058
O O13 0.916307 0.500000 0.000000
#
# Coordination Sequence:
#
# PCOD8269534 Si02
#       6
#     8   8  16  16   8   8
#     4  10  19  36  63  94 130 167 204 252 313 384
#     4  11  26  43  63  90 121 161 218 275 307 355
#     4  10  22  42  65  92 126 167 211 256 317 381
#     4  10  22  41  66  92 128 168 205 257 318 383
#     4  10  19  34  59  97 129 161 202 251 313 384
#     4  11  26  43  63  94 129 165 214 267 313 371
#
# _framework density 19.94792
#
# number of rings (size 3 to 8) (size 9 to 14) (size 15 to 20)
#    0.000    1.750    2.500    0.750    3.500    6.250 
#    0.000    3.750    0.000    0.000    0.000    0.000 
#    0.000    0.000    0.000    0.000    0.000    0.000 
#
# Total GULP energy -396555.499405 kJ/mol
# GULP energy per Si atom -12392.359356 kJ/mol
# Density = 1.990252 g / cm^3
# Si number density = 19.947920 Si / 1000 Ang^3
#
#
#
# Elastic Constant Matrix: (Units=GPa)
#
#
# Indices 1 2 3 4 5 6 
#
# 1 199.9232 63.1919 66.3323 0.0000 0.0000 0.0000
# 2 63.1919 82.8270 42.8518 0.0000 0.0000 0.0000
# 3 66.3323 42.8518 96.6990 0.0000 0.0000 0.0000
# 4 0.0000 0.0000 0.0000 -130.9782 0.0000 0.0000
# 5 0.0000 0.0000 0.0000 0.0000 14.6623 0.0000
# 6 0.0000 0.0000 0.0000 0.0000 0.0000 23.4018
#
#
#
# Elastic Compliance Matrix: (Units=1/GPa)
#
#
# Indices 1 2 3 4 5 6 
#
# 1 0.007324 -0.003878 -0.003306 0.000000 0.000000 0.000000
# 2 -0.003878 0.017718 -0.005192 0.000000 0.000000 0.000000
# 3 -0.003306 -0.005192 0.014910 0.000000 0.000000 0.000000
# 4 0.000000 0.000000 0.000000 -0.007635 0.000000 0.000000
# 5 0.000000 0.000000 0.000000 0.000000 0.068202 0.000000
# 6 0.000000 0.000000 0.000000 0.000000 0.000000 0.042732
#
#
# Mechanical properties :
#
#
# Convention : Reuss Voigt Hill
#
# Bulk Modulus (GPa) = 65.78291 80.46678 73.12484
# Shear Modulus (GPa) = 28.89022 -4.77796 12.05613
#
# Velocity S-wave (km/s) = 3.80976 -1.54933 2.46108
# Velocity P-wave (km/s) = 7.23887 6.10127 6.69428
#
# Compressibility (1/GPa) = 0.01520152
#
# Stress axis : x y z
#
# Youngs Moduli (GPa) = 136.52854 56.44051 67.07024
#
# Poissons Ratio (x) = 0.21886 0.22173
# Poissons Ratio (y) = 0.52942 0.34820
# Poissons Ratio (z) = 0.45135 0.29301
#
# Static dielectric constant tensor:
#      x y z
#    x 3.789050 0.000000 0.000000 
#    y 0.000000 3.849850 0.000000 
#    z 0.000000 0.000000 3.551020 
# 
# 
# High freq. dielectric constant tensor:
#      x y z
#    x 1.787860 0.000000 0.000000 
#    y 0.000000 1.779210 0.000000 
#    z 0.000000 0.000000 1.774380 
# 
# From -- ./inp_files/24012.got.cif
#   From: 2010.03.12/outbox.cif.g09.slc.cpg/sg65_13_cif.got.tgz:24012.got - 2010.04.10 20:52:16.
