data_PCOD8269348
_publ_section_title
;
Structure prediction by ZEFSAII (Michael W. Deem and Ramdas Pophale) SiO2 
 PCOD8269348
Probable space group: C M M M
;
_chemical_formula_sum "Si O2"
_cell_formula_units_Z 104
_cell_length_a 8.964914
_cell_length_b 28.286894
_cell_length_c 22.749437
_cell_angle_alpha 90.000000
_cell_angle_beta 90.000000
_cell_angle_gamma 90.000000
_cell_volume 5769.019993
_symmetry_space_group_name_H-M "C M M M"
_symmetry_group_IT_number 65
_symmetry_cell_setting 'orthorhombic'
loop_
_space_group_symop_operation_xyz
x,y,z
-x,-y,z
x,-y,-z
-x,y,-z
-x,-y,-z
x,y,-z
-x,y,z
x,-y,z
1/2+x,1/2+y,z
1/2-x,1/2-y,z
1/2+x,1/2-y,-z
1/2-x,1/2+y,-z
1/2-x,1/2-y,-z
1/2+x,1/2+y,-z
1/2-x,1/2+y,z
1/2+x,1/2-y,z
loop_
_atom_site_type_symbol
_atom_site_label
_atom_site_fract_x
_atom_site_fract_y
_atom_site_fract_z
Si Si1 0.325906 0.297117 0.844859
Si Si2 0.825010 0.897720 0.889456
Si Si3 0.176174 0.797932 0.289180
Si Si4 0.670710 0.554449 0.432337
Si Si5 0.176651 0.445827 0.000000
Si Si6 0.329077 0.944718 0.781671
Si Si7 0.673542 0.111746 0.334610
O O1 0.500000 0.287745 0.845801
O O2 0.250000 0.250000 0.871081
O O3 0.282739 0.342278 0.884380
O O4 0.272027 0.306801 0.778179
O O5 0.735410 0.919580 0.942891
O O6 0.781603 0.924073 0.829961
O O7 0.000000 0.904465 0.900310
O O8 0.250000 0.750000 0.312988
O O9 0.234392 0.840154 0.329361
O O10 0.000000 0.794074 0.294880
O O11 0.692893 0.568644 0.500000
O O12 0.500000 0.563104 0.413037
O O13 0.714261 0.500000 0.422581
O O14 0.780691 0.586477 0.394580
O O15 0.232807 0.500000 0.000000
O O16 0.000000 0.443753 0.000000
O O17 0.500000 0.933601 0.799461
O O18 0.286886 0.922420 0.719396
O O19 0.300635 0.000000 0.776447
O O20 0.500000 0.124132 0.336518
#
# Coordination Sequence:
#
# PCOD8269348 Si02
#       7
#    16  16  16  16   8  16  16
#     4   9  19  34  55  82 111 140 176 220 269 324
#     4  11  22  38  58  83 109 139 181 228 273 322
#     4  10  19  34  54  80 113 146 183 225 274 330
#     4   9  19  36  56  78 108 149 193 234 278 328
#     4  11  25  43  60  79 106 145 188 225 268 327
#     4  10  21  35  51  76 111 146 179 220 271 325
#     4  11  21  33  53  82 114 147 184 227 277 330
#
# _framework density 18.027325000000001
#
# number of rings (size 3 to 8) (size 9 to 14) (size 15 to 20)
#    0.000    1.923    1.538    3.000    0.000    6.462 
#    0.000    1.154    0.000    0.462    0.000    0.000 
#    0.000    0.000    0.000    0.000    0.000    0.000 
#
# Total GULP energy -644999.812120 kJ/mol
# GULP energy per Si atom -12403.842541 kJ/mol
# Density = 1.798629 g / cm^3
# Si number density = 18.027325 Si / 1000 Ang^3
#
#
#
# Elastic Constant Matrix: (Units=GPa)
#
#
# Indices 1 2 3 4 5 6 
#
# 1 68.8775 52.7347 36.8976 0.0000 0.0000 0.0000
# 2 52.7347 135.0106 53.9933 0.0000 0.0000 0.0000
# 3 36.8976 53.9933 82.3617 0.0000 0.0000 0.0000
# 4 0.0000 0.0000 0.0000 31.6323 0.0000 0.0000
# 5 0.0000 0.0000 0.0000 0.0000 17.8724 0.0000
# 6 0.0000 0.0000 0.0000 0.0000 0.0000 34.2663
#
#
#
# Elastic Compliance Matrix: (Units=1/GPa)
#
#
# Indices 1 2 3 4 5 6 
#
# 1 0.022641 -0.006488 -0.005890 0.000000 0.000000 0.000000
# 2 -0.006488 0.011898 -0.004893 0.000000 0.000000 0.000000
# 3 -0.005890 -0.004893 0.017988 0.000000 0.000000 0.000000
# 4 0.000000 0.000000 0.000000 0.031613 0.000000 0.000000
# 5 0.000000 0.000000 0.000000 0.000000 0.055952 0.000000
# 6 0.000000 0.000000 0.000000 0.000000 0.000000 0.029183
#
#
# Mechanical properties :
#
#
# Convention : Reuss Voigt Hill
#
# Bulk Modulus (GPa) = 55.60222 63.72235 59.66229
# Shear Modulus (GPa) = 23.83075 26.26248 25.04662
#
# Velocity S-wave (km/s) = 3.63977 3.82097 3.73147
# Velocity P-wave (km/s) = 6.96952 7.40883 7.19253
#
# Compressibility (1/GPa) = 0.01798489
#
# Stress axis : x y z
#
# Youngs Moduli (GPa) = 44.16728 84.04798 55.59277
#
# Poissons Ratio (x) = 0.54532 0.32743
# Poissons Ratio (y) = 0.28656 0.27203
# Poissons Ratio (z) = 0.26013 0.41126
#
# Static dielectric constant tensor:
#      x y z
#    x 3.169450 0.000000 0.000000 
#    y 0.000000 3.465770 0.000000 
#    z 0.000000 0.000000 2.546130 
# 
# 
# High freq. dielectric constant tensor:
#      x y z
#    x 1.704570 0.000000 0.000000 
#    y 0.000000 1.707990 0.000000 
#    z 0.000000 0.000000 1.679120 
# 
# From -- ./inp_files/60419.got.cif
#   From: 2010.03.12/outbox.cif.g09.slc.cpg/sg65_31_cif.got.tgz:60419.got - 2010.04.10 20:52:16.
