data_PCOD8269991
_publ_section_title
;
Structure prediction by ZEFSAII (Michael W. Deem and Ramdas Pophale) SiO2 
 PCOD8269991
Probable space group: C M M M
;
_chemical_formula_sum "Si O2"
_cell_formula_units_Z 56
_cell_length_a 9.174917
_cell_length_b 28.797287
_cell_length_c 12.100652
_cell_angle_alpha 90.000000
_cell_angle_beta 90.000000
_cell_angle_gamma 90.000000
_cell_volume 3197.146155
_symmetry_space_group_name_H-M "C M M M"
_symmetry_group_IT_number 65
_symmetry_cell_setting 'orthorhombic'
loop_
_space_group_symop_operation_xyz
x,y,z
-x,-y,z
x,-y,-z
-x,y,-z
-x,-y,-z
x,y,-z
-x,y,z
x,-y,z
1/2+x,1/2+y,z
1/2-x,1/2-y,z
1/2+x,1/2-y,-z
1/2-x,1/2+y,-z
1/2-x,1/2-y,-z
1/2+x,1/2+y,-z
1/2-x,1/2+y,z
1/2+x,1/2-y,z
loop_
_atom_site_type_symbol
_atom_site_label
_atom_site_fract_x
_atom_site_fract_y
_atom_site_fract_z
Si Si1 0.328898 0.626538 0.822698
Si Si2 0.328602 0.908063 0.626811
Si Si3 0.672693 0.447559 0.000000
Si Si4 0.661796 0.500000 0.629781
Si Si5 0.668785 0.298137 0.000000
O O1 0.500000 0.624169 0.795736
O O2 0.237699 0.630671 0.708556
O O3 0.277724 0.580882 0.891264
O O4 0.289851 0.672481 0.891526
O O5 0.290838 0.895254 0.500000
O O6 0.500000 0.913402 0.642892
O O7 0.251620 0.955262 0.666513
O O8 0.738855 0.500000 0.000000
O O9 0.500000 0.449673 0.000000
O O10 0.500000 0.500000 0.685472
O O11 0.643066 0.500000 0.500000
O O12 0.750000 0.250000 0.000000
O O13 0.500000 0.286714 0.000000
#
# Coordination Sequence:
#
# PCOD8269991 Si02
#       5
#    16  16   8   8   8
#     4   9  18  32  51  76 101 128 169 209 247 302
#     4  10  20  32  46  69 104 139 170 209 253 295
#     4   8  15  28  46  69  97 128 161 203 249 288
#     4   9  17  29  45  64  89 132 183 215 239 279
#     4   9  19  36  57  81 104 127 161 210 261 308
#
# _framework density 17.515620999999999
#
# number of rings (size 3 to 8) (size 9 to 14) (size 15 to 20)
#    0.000    2.857    0.000    3.000    2.000    4.571 
#    0.000    2.143    0.000    1.714    0.000    0.000 
#    0.000    0.000    0.000    0.000    0.000    0.000 
#
# Total GULP energy -347069.330822 kJ/mol
# GULP energy per Si atom -12395.333244 kJ/mol
# Density = 1.747575 g / cm^3
# Si number density = 17.515621 Si / 1000 Ang^3
#
#
#
# Elastic Constant Matrix: (Units=GPa)
#
#
# Indices 1 2 3 4 5 6 
#
# 1 85.7347 48.8534 64.1536 0.0000 0.0000 0.0000
# 2 48.8534 118.3723 57.4066 0.0000 0.0000 0.0000
# 3 64.1536 57.4066 123.9486 0.0000 0.0000 0.0000
# 4 0.0000 0.0000 0.0000 14.8147 0.0000 0.0000
# 5 0.0000 0.0000 0.0000 0.0000 27.2618 0.0000
# 6 0.0000 0.0000 0.0000 0.0000 0.0000 28.7657
#
#
#
# Elastic Compliance Matrix: (Units=1/GPa)
#
#
# Indices 1 2 3 4 5 6 
#
# 1 0.020602 -0.004296 -0.008673 0.000000 0.000000 0.000000
# 2 -0.004296 0.011791 -0.003237 0.000000 0.000000 0.000000
# 3 -0.008673 -0.003237 0.014056 0.000000 0.000000 0.000000
# 4 0.000000 0.000000 0.000000 0.067500 0.000000 0.000000
# 5 0.000000 0.000000 0.000000 0.000000 0.036681 0.000000
# 6 0.000000 0.000000 0.000000 0.000000 0.000000 0.034764
#
#
# Mechanical properties :
#
#
# Convention : Reuss Voigt Hill
#
# Bulk Modulus (GPa) = 71.24822 74.32030 72.78426
# Shear Modulus (GPa) = 22.47312 24.67792 23.57552
#
# Velocity S-wave (km/s) = 3.58583 3.75762 3.67273
# Velocity P-wave (km/s) = 7.60983 7.83257 7.72201
#
# Compressibility (1/GPa) = 0.01403544
#
# Stress axis : x y z
#
# Youngs Moduli (GPa) = 48.53829 84.81001 71.14182
#
# Poissons Ratio (x) = 0.36438 0.61705
# Poissons Ratio (y) = 0.20854 0.23030
# Poissons Ratio (z) = 0.42100 0.27455
#
# Static dielectric constant tensor:
#      x y z
#    x 3.087890 0.000000 0.000000 
#    y 0.000000 3.163820 0.000000 
#    z 0.000000 0.000000 3.297700 
# 
# 
# High freq. dielectric constant tensor:
#      x y z
#    x 1.665420 0.000000 0.000000 
#    y 0.000000 1.644210 0.000000 
#    z 0.000000 0.000000 1.682300 
# 
# From -- ./inp_files/20487.got.cif
#   From: 2010.03.12/outbox.cif.g09.slc.cpg/sg65_11_cif.got.tgz:20487.got - 2010.04.10 20:52:16.
