data_PCOD8269215
_publ_section_title
;
Structure prediction by ZEFSAII (Michael W. Deem and Ramdas Pophale) SiO2 
 PCOD8269215
Probable space group: C M M M
;
_chemical_formula_sum "Si O2"
_cell_formula_units_Z 72
_cell_length_a 20.244899
_cell_length_b 19.885599
_cell_length_c 9.264495
_cell_angle_alpha 90.000000
_cell_angle_beta 90.000000
_cell_angle_gamma 90.000000
_cell_volume 3729.718401
_symmetry_space_group_name_H-M "C M M M"
_symmetry_group_IT_number 65
_symmetry_cell_setting 'orthorhombic'
loop_
_space_group_symop_operation_xyz
x,y,z
-x,-y,z
x,-y,-z
-x,y,-z
-x,-y,-z
x,y,-z
-x,y,z
x,-y,z
1/2+x,1/2+y,z
1/2-x,1/2-y,z
1/2+x,1/2-y,-z
1/2-x,1/2+y,-z
1/2-x,1/2-y,-z
1/2+x,1/2+y,-z
1/2-x,1/2+y,z
1/2+x,1/2-y,z
loop_
_atom_site_type_symbol
_atom_site_label
_atom_site_fract_x
_atom_site_fract_y
_atom_site_fract_z
Si Si1 0.500000 0.619759 0.327731
Si Si2 0.751253 0.329758 0.839886
Si Si3 0.572901 0.000000 0.671876
Si Si4 0.000000 0.273419 0.328631
Si Si5 0.870568 0.923431 0.833777
Si Si6 0.621731 0.859886 0.670875
O O1 0.500000 0.612336 0.500000
O O2 0.500000 0.697014 0.276460
O O3 0.434762 0.584926 0.265554
O O4 0.750000 0.250000 0.846286
O O5 0.684248 0.367629 0.788265
O O6 0.805947 0.343518 0.722338
O O7 0.768997 0.357378 0.000000
O O8 0.608953 0.065682 0.730610
O O9 0.500000 0.000000 0.736480
O O10 0.570442 0.000000 0.500000
O O11 0.065758 0.309600 0.266632
O O12 0.000000 0.279068 0.500000
O O13 0.843663 0.000000 0.811494
O O14 0.891141 0.911947 0.000000
O O15 0.620273 0.856429 0.500000
#
# Coordination Sequence:
#
# PCOD8269215 Si02
#       6
#     8  16   8   8  16  16
#     4  11  22  36  58  86 111 134 175 234 279 314
#     4  10  22  39  57  80 111 146 184 226 271 322
#     4   9  16  30  53  81 111 144 181 220 263 323
#     4   9  18  33  54  82 113 146 179 216 272 332
#     4  10  22  40  59  78 106 147 184 215 268 337
#     4  10  19  33  56  82 110 145 184 223 268 321
#
# _framework density 19.304407000000001
#
# number of rings (size 3 to 8) (size 9 to 14) (size 15 to 20)
#    0.000    2.111    1.111    2.000    1.556    3.111 
#    0.000    1.667    0.000    0.667    0.000    0.000 
#    0.000    0.000    0.000    0.000    0.000    0.000 
#
# Total GULP energy -446234.204549 kJ/mol
# GULP energy per Si atom -12395.394571 kJ/mol
# Density = 1.926047 g / cm^3
# Si number density = 19.304407 Si / 1000 Ang^3
#
#
#
# Elastic Constant Matrix: (Units=GPa)
#
#
# Indices 1 2 3 4 5 6 
#
# 1 124.4727 48.8118 31.2916 0.0000 0.0000 0.0000
# 2 48.8118 124.8745 27.1070 0.0000 0.0000 0.0000
# 3 31.2916 27.1070 32.8468 0.0000 0.0000 0.0000
# 4 0.0000 0.0000 0.0000 21.1222 0.0000 0.0000
# 5 0.0000 0.0000 0.0000 0.0000 -38.8052 0.0000
# 6 0.0000 0.0000 0.0000 0.0000 0.0000 30.0750
#
#
#
# Elastic Compliance Matrix: (Units=1/GPa)
#
#
# Indices 1 2 3 4 5 6 
#
# 1 0.011172 -0.002506 -0.008576 0.000000 0.000000 0.000000
# 2 -0.002506 0.010318 -0.006128 0.000000 0.000000 0.000000
# 3 -0.008576 -0.006128 0.043671 0.000000 0.000000 0.000000
# 4 0.000000 0.000000 0.000000 0.047343 0.000000 0.000000
# 5 0.000000 0.000000 0.000000 0.000000 -0.025770 0.000000
# 6 0.000000 0.000000 0.000000 0.000000 0.000000 0.033250
#
#
# Mechanical properties :
#
#
# Convention : Reuss Voigt Hill
#
# Bulk Modulus (GPa) = 32.52776 55.17942 43.85359
# Shear Modulus (GPa) = 30.36746 14.14398 22.25572
#
# Velocity S-wave (km/s) = 3.97052 2.70975 3.39910
# Velocity P-wave (km/s) = 6.15682 6.19969 6.17830
#
# Compressibility (1/GPa) = 0.03074297
#
# Stress axis : x y z
#
# Youngs Moduli (GPa) = 89.50725 96.92181 22.89863
#
# Poissons Ratio (x) = 0.24284 0.19637
# Poissons Ratio (y) = 0.22427 0.14032
# Poissons Ratio (z) = 0.76757 0.59391
#
# Static dielectric constant tensor:
#      x y z
#    x 3.460030 0.000000 0.000000 
#    y 0.000000 3.841730 0.000000 
#    z 0.000000 0.000000 3.242780 
# 
# 
# High freq. dielectric constant tensor:
#      x y z
#    x 1.752460 0.000000 0.000000 
#    y 0.000000 1.771880 0.000000 
#    z 0.000000 0.000000 1.721380 
# 
# From -- ./inp_files/11336.got.cif
#   From: 2010.03.12/outbox.cif.g09.slc.cpg/sg65_6_cif.got.tgz:11336.got - 2010.04.10 20:52:16.
