data_PCOD8269555
_publ_section_title
;
Structure prediction by ZEFSAII (Michael W. Deem and Ramdas Pophale) SiO2 
 PCOD8269555
Probable space group: C M M M
;
_chemical_formula_sum "Si O2"
_cell_formula_units_Z 88
_cell_length_a 23.832860
_cell_length_b 8.996823
_cell_length_c 22.333132
_cell_angle_alpha 90.000000
_cell_angle_beta 90.000000
_cell_angle_gamma 90.000000
_cell_volume 4788.670677
_symmetry_space_group_name_H-M "C M M M"
_symmetry_group_IT_number 65
_symmetry_cell_setting 'orthorhombic'
loop_
_space_group_symop_operation_xyz
x,y,z
-x,-y,z
x,-y,-z
-x,y,-z
-x,-y,-z
x,y,-z
-x,y,z
x,-y,z
1/2+x,1/2+y,z
1/2-x,1/2-y,z
1/2+x,1/2-y,-z
1/2-x,1/2+y,-z
1/2-x,1/2-y,-z
1/2+x,1/2+y,-z
1/2-x,1/2+y,z
1/2+x,1/2-y,z
loop_
_atom_site_type_symbol
_atom_site_label
_atom_site_fract_x
_atom_site_fract_y
_atom_site_fract_z
Si Si1 0.000000 0.162487 0.680395
Si Si2 0.384233 0.823395 0.163396
Si Si3 0.103661 0.674861 0.626759
Si Si4 0.692285 0.328222 0.069870
Si Si5 0.435750 0.823900 0.500000
Si Si6 0.809822 0.674263 0.723414
Si Si7 0.000000 0.834901 0.180248
O O1 0.945612 0.253133 0.663650
O O2 0.000000 0.140755 0.750002
O O3 0.000000 0.000000 0.649005
O O4 0.355879 0.757122 0.104679
O O5 0.350393 0.772385 0.222877
O O6 0.446187 0.758588 0.161603
O O7 0.387082 0.000000 0.159448
O O8 0.094176 0.500000 0.630108
O O9 0.099494 0.731268 0.557918
O O10 0.162164 0.718112 0.659158
O O11 0.695429 0.500000 0.089476
O O12 0.750000 0.250000 0.087582
O O13 0.679127 0.311842 0.000000
O O14 0.500000 0.760235 0.500000
O O15 0.439836 0.000000 0.500000
O O16 0.799763 0.500000 0.727571
O O17 0.750000 0.750000 0.729138
O O18 0.000000 0.000000 0.149998
#
# Coordination Sequence:
#
# PCOD8269555 Si02
#       7
#     8  16  16  16   8  16   8
#     4  11  21  32  52  82 111 144 175 220 280 329
#     4  11  22  37  59  86 113 146 187 232 281 331
#     4  10  19  35  55  78 107 141 184 227 270 327
#     4  10  21  38  60  86 117 153 192 234 278 325
#     4   9  16  28  55  82 100 136 184 228 269 320
#     4  10  22  36  54  78 108 143 180 227 274 323
#     4  11  23  37  55  83 117 150 181 223 280 341
#
# _framework density 18.376707
#
# number of rings (size 3 to 8) (size 9 to 14) (size 15 to 20)
#    0.000    1.727    2.727    2.182    0.000    5.455 
#    0.000    1.818    0.000    2.727    0.000    0.000 
#    0.000    0.000    0.000    0.000    0.000    0.000 
#
# Total GULP energy -545525.706395 kJ/mol
# GULP energy per Si atom -12398.311509 kJ/mol
# Density = 1.833488 g / cm^3
# Si number density = 18.376707 Si / 1000 Ang^3
#
#
#
# Elastic Constant Matrix: (Units=GPa)
#
#
# Indices 1 2 3 4 5 6 
#
# 1 159.9323 60.5840 64.7262 0.0000 0.0000 0.0000
# 2 60.5840 75.9869 41.0615 0.0000 0.0000 0.0000
# 3 64.7262 41.0615 84.1839 0.0000 0.0000 0.0000
# 4 0.0000 0.0000 0.0000 17.4291 0.0000 0.0000
# 5 0.0000 0.0000 0.0000 0.0000 35.2411 0.0000
# 6 0.0000 0.0000 0.0000 0.0000 0.0000 32.8749
#
#
#
# Elastic Compliance Matrix: (Units=1/GPa)
#
#
# Indices 1 2 3 4 5 6 
#
# 1 0.010513 -0.005451 -0.005424 0.000000 0.000000 0.000000
# 2 -0.005451 0.020696 -0.005904 0.000000 0.000000 0.000000
# 3 -0.005424 -0.005904 0.018929 0.000000 0.000000 0.000000
# 4 0.000000 0.000000 0.000000 0.057375 0.000000 0.000000
# 5 0.000000 0.000000 0.000000 0.000000 0.028376 0.000000
# 6 0.000000 0.000000 0.000000 0.000000 0.000000 0.030418
#
#
# Mechanical properties :
#
#
# Convention : Reuss Voigt Hill
#
# Bulk Modulus (GPa) = 60.31283 72.53850 66.42566
# Shear Modulus (GPa) = 24.34371 27.35778 25.85075
#
# Velocity S-wave (km/s) = 3.64360 3.86258 3.75469
# Velocity P-wave (km/s) = 7.11285 7.71048 7.41768
#
# Compressibility (1/GPa) = 0.01658022
#
# Stress axis : x y z
#
# Youngs Moduli (GPa) = 95.12394 48.31795 52.82883
#
# Poissons Ratio (x) = 0.26336 0.28656
# Poissons Ratio (y) = 0.51847 0.31191
# Poissons Ratio (z) = 0.51598 0.28527
#
# Static dielectric constant tensor:
#      x y z
#    x 3.288980 0.000000 0.000000 
#    y 0.000000 3.500130 0.000000 
#    z 0.000000 0.000000 3.601570 
# 
# 
# High freq. dielectric constant tensor:
#      x y z
#    x 1.709130 0.000000 0.000000 
#    y 0.000000 1.712480 0.000000 
#    z 0.000000 0.000000 1.714010 
# 
# From -- ./inp_files/71115.got.cif
#   From: 2010.03.12/outbox.cif.g09.slc.cpg/sg65_36_cif.got.tgz:71115.got - 2010.04.10 20:52:16.
