data_PCOD8269848
_publ_section_title
;
Structure prediction by ZEFSAII (Michael W. Deem and Ramdas Pophale) SiO2 
 PCOD8269848
Probable space group: C M M M
;
_chemical_formula_sum "Si O2"
_cell_formula_units_Z 88
_cell_length_a 9.237770
_cell_length_b 26.832484
_cell_length_c 21.087777
_cell_angle_alpha 90.000000
_cell_angle_beta 90.000000
_cell_angle_gamma 90.000000
_cell_volume 5227.076118
_symmetry_space_group_name_H-M "C M M M"
_symmetry_group_IT_number 65
_symmetry_cell_setting 'orthorhombic'
loop_
_space_group_symop_operation_xyz
x,y,z
-x,-y,z
x,-y,-z
-x,y,-z
-x,-y,-z
x,y,-z
-x,y,z
x,-y,z
1/2+x,1/2+y,z
1/2-x,1/2-y,z
1/2+x,1/2-y,-z
1/2-x,1/2+y,-z
1/2-x,1/2-y,-z
1/2+x,1/2+y,-z
1/2-x,1/2+y,z
1/2+x,1/2-y,z
loop_
_atom_site_type_symbol
_atom_site_label
_atom_site_fract_x
_atom_site_fract_y
_atom_site_fract_z
Si Si1 0.333839 0.944560 0.201633
Si Si2 0.332399 0.057386 0.572455
Si Si3 0.168514 0.201800 0.245571
Si Si4 0.332253 0.399358 0.314812
Si Si5 0.331401 0.198041 0.000000
Si Si6 0.331764 0.846316 0.867157
O O1 0.500000 0.939103 0.222913
O O2 0.239031 0.936152 0.263986
O O3 0.296502 0.904465 0.146906
O O4 0.302190 0.000000 0.174773
O O5 0.296297 0.071050 0.500000
O O6 0.500000 0.067160 0.587111
O O7 0.236747 0.092887 0.616393
O O8 0.293285 0.000000 0.586011
O O9 0.250000 0.250000 0.273359
O O10 0.194841 0.157721 0.295440
O O11 0.235925 0.188624 0.177472
O O12 0.000000 0.213291 0.235855
O O13 0.500000 0.412645 0.317781
O O14 0.250000 0.250000 0.000000
O O15 0.287691 0.165083 0.060770
O O16 0.500000 0.210621 0.000000
O O17 0.500000 0.834382 0.854243
#
# Coordination Sequence:
#
# PCOD8269848 Si02
#       6
#    16  16  16  16   8  16
#     4   9  17  30  48  68  92 124 158 189 225 273
#     4   9  18  32  49  70  97 128 159 188 221 267
#     4  10  20  33  49  70  94 120 153 193 235 277
#     4  10  20  31  46  71  98 122 152 192 234 273
#     4  10  20  32  47  67  91 119 152 192 237 282
#     4   9  18  32  48  68  94 122 153 190 232 277
#
# _framework density 16.835415999999999
#
# number of rings (size 3 to 8) (size 9 to 14) (size 15 to 20)
#    0.000    2.545    0.000    2.727    0.000    7.636 
#    0.000    1.364    0.000    3.273    0.000    0.000 
#    0.000    6.545    0.000    0.000    0.000    0.000 
#
# Total GULP energy -545654.346537 kJ/mol
# GULP energy per Si atom -12401.235149 kJ/mol
# Density = 1.679710 g / cm^3
# Si number density = 16.835416 Si / 1000 Ang^3
#
#
#
# Elastic Constant Matrix: (Units=GPa)
#
#
# Indices 1 2 3 4 5 6 
#
# 1 84.9956 55.3905 59.1280 0.0000 0.0000 0.0000
# 2 55.3905 111.8154 59.8352 0.0000 0.0000 0.0000
# 3 59.1280 59.8352 122.1103 0.0000 0.0000 0.0000
# 4 0.0000 0.0000 0.0000 20.4591 0.0000 0.0000
# 5 0.0000 0.0000 0.0000 0.0000 22.1260 0.0000
# 6 0.0000 0.0000 0.0000 0.0000 0.0000 27.0949
#
#
#
# Elastic Compliance Matrix: (Units=1/GPa)
#
#
# Indices 1 2 3 4 5 6 
#
# 1 0.020874 -0.006685 -0.006832 0.000000 0.000000 0.000000
# 2 -0.006685 0.014262 -0.003752 0.000000 0.000000 0.000000
# 3 -0.006832 -0.003752 0.013336 0.000000 0.000000 0.000000
# 4 0.000000 0.000000 0.000000 0.048878 0.000000 0.000000
# 5 0.000000 0.000000 0.000000 0.000000 0.045196 0.000000
# 6 0.000000 0.000000 0.000000 0.000000 0.000000 0.036907
#
#
# Mechanical properties :
#
#
# Convention : Reuss Voigt Hill
#
# Bulk Modulus (GPa) = 71.75946 74.18096 72.97021
# Shear Modulus (GPa) = 22.86897 23.57384 23.22140
#
# Velocity S-wave (km/s) = 3.68963 3.74605 3.71795
# Velocity P-wave (km/s) = 7.80178 7.92898 7.86563
#
# Compressibility (1/GPa) = 0.01393544
#
# Stress axis : x y z
#
# Youngs Moduli (GPa) = 47.90534 70.11428 74.98430
#
# Poissons Ratio (x) = 0.46868 0.51232
# Poissons Ratio (y) = 0.32023 0.28134
# Poissons Ratio (z) = 0.32730 0.26306
#
# Static dielectric constant tensor:
#      x y z
#    x 3.204650 0.000000 0.000000 
#    y 0.000000 3.243470 0.000000 
#    z 0.000000 0.000000 3.064110 
# 
# 
# High freq. dielectric constant tensor:
#      x y z
#    x 1.653240 0.000000 0.000000 
#    y 0.000000 1.647900 0.000000 
#    z 0.000000 0.000000 1.634680 
# 
# From -- ./inp_files/60230.got.cif
#   From: 2010.03.12/outbox.cif.g09.slc.cpg/sg65_31_cif.got.tgz:60230.got - 2010.04.10 20:52:16.
