data_PCOD8269258
_publ_section_title
;
Structure prediction by ZEFSAII (Michael W. Deem and Ramdas Pophale) SiO2 
 PCOD8269258
Probable space group: C M M M
;
_chemical_formula_sum "Si O2"
_cell_formula_units_Z 72
_cell_length_a 15.616729
_cell_length_b 7.874853
_cell_length_c 28.051431
_cell_angle_alpha 90.000000
_cell_angle_beta 90.000000
_cell_angle_gamma 90.000000
_cell_volume 3449.749422
_symmetry_space_group_name_H-M "C M M M"
_symmetry_group_IT_number 65
_symmetry_cell_setting 'orthorhombic'
loop_
_space_group_symop_operation_xyz
x,y,z
-x,-y,z
x,-y,-z
-x,y,-z
-x,-y,-z
x,y,-z
-x,y,z
x,-y,z
1/2+x,1/2+y,z
1/2-x,1/2-y,z
1/2+x,1/2-y,-z
1/2-x,1/2+y,-z
1/2-x,1/2-y,-z
1/2+x,1/2+y,-z
1/2-x,1/2+y,z
1/2+x,1/2-y,z
loop_
_atom_site_type_symbol
_atom_site_label
_atom_site_fract_x
_atom_site_fract_y
_atom_site_fract_z
Si Si1 0.842102 0.199440 0.217172
Si Si2 0.000000 0.696842 0.611646
Si Si3 0.101850 0.000000 0.946697
Si Si4 0.157830 0.299826 0.446552
Si Si5 0.599486 0.809333 0.117432
Si Si6 0.000000 0.200402 0.719465
O O1 0.750000 0.250000 0.239227
O O2 0.850111 0.293599 0.166761
O O3 0.915548 0.264860 0.252912
O O4 0.851720 0.000000 0.208741
O O5 0.084631 0.779461 0.587622
O O6 0.000000 0.719485 0.667762
O O7 0.000000 0.500000 0.599371
O O8 0.134715 0.829716 0.920045
O O9 0.000000 0.000000 0.948964
O O10 0.140353 0.000000 0.000000
O O11 0.147541 0.223937 0.500000
O O12 0.149494 0.500000 0.448328
O O13 0.250000 0.250000 0.425035
O O14 0.500000 0.773555 0.128007
O O15 0.613618 0.000000 0.096860
O O16 0.000000 0.000000 0.714420
#
# Coordination Sequence:
#
# PCOD8269258 Si02
#       6
#    16   8   8  16  16   8
#     4  11  22  39  61  87 115 150 198 249 298 356
#     4  10  21  36  56  80 112 152 189 237 292 359
#     4   9  18  32  54  86 124 161 197 245 299 358
#     4   9  18  34  56  82 111 148 194 241 288 343
#     4  10  19  33  58  87 117 156 199 246 297 355
#     4  10  24  41  59  81 120 157 189 244 305 352
#
# _framework density 20.871079999999999
#
# number of rings (size 3 to 8) (size 9 to 14) (size 15 to 20)
#    0.000    2.111    2.222    1.000    0.000    5.333 
#    0.000    6.667    0.000    4.000    0.000    0.000 
#    0.000    0.000    0.000    0.000    0.000    0.000 
#
# Total GULP energy -446415.991372 kJ/mol
# GULP energy per Si atom -12400.444205 kJ/mol
# Density = 2.082358 g / cm^3
# Si number density = 20.871080 Si / 1000 Ang^3
#
#
#
# Elastic Constant Matrix: (Units=GPa)
#
#
# Indices 1 2 3 4 5 6 
#
# 1 151.2527 27.7195 76.1954 0.0000 0.0000 0.0000
# 2 27.7195 83.5100 35.4839 0.0000 0.0000 0.0000
# 3 76.1954 35.4839 137.8325 0.0000 0.0000 0.0000
# 4 0.0000 0.0000 0.0000 26.4315 0.0000 0.0000
# 5 0.0000 0.0000 0.0000 0.0000 10.8402 0.0000
# 6 0.0000 0.0000 0.0000 0.0000 0.0000 24.9975
#
#
#
# Elastic Compliance Matrix: (Units=1/GPa)
#
#
# Indices 1 2 3 4 5 6 
#
# 1 0.009238 -0.001007 -0.004848 0.000000 0.000000 0.000000
# 2 -0.001007 0.013555 -0.002933 0.000000 0.000000 0.000000
# 3 -0.004848 -0.002933 0.010690 0.000000 0.000000 0.000000
# 4 0.000000 0.000000 0.000000 0.037834 0.000000 0.000000
# 5 0.000000 0.000000 0.000000 0.000000 0.092249 0.000000
# 6 0.000000 0.000000 0.000000 0.000000 0.000000 0.040004
#
#
# Mechanical properties :
#
#
# Convention : Reuss Voigt Hill
#
# Bulk Modulus (GPa) = 62.86041 72.37699 67.61870
# Shear Modulus (GPa) = 22.08015 28.00026 25.04021
#
# Velocity S-wave (km/s) = 3.25611 3.66673 3.46751
# Velocity P-wave (km/s) = 6.65734 7.25810 6.96420
#
# Compressibility (1/GPa) = 0.01590826
#
# Stress axis : x y z
#
# Youngs Moduli (GPa) = 108.24799 73.77321 93.54341
#
# Poissons Ratio (x) = 0.07426 0.45348
# Poissons Ratio (y) = 0.10896 0.27438
# Poissons Ratio (z) = 0.52476 0.21639
#
# Static dielectric constant tensor:
#      x y z
#    x 3.945820 0.000000 0.000000 
#    y 0.000000 3.667330 0.000000 
#    z 0.000000 0.000000 3.713780 
# 
# 
# High freq. dielectric constant tensor:
#      x y z
#    x 1.815650 0.000000 0.000000 
#    y 0.000000 1.812650 0.000000 
#    z 0.000000 0.000000 1.799690 
# 
# From -- ./inp_files/74681.got.cif
#   From: 2010.03.12/outbox.cif.g09.slc.cpg/sg65_38_cif.got.tgz:74681.got - 2010.04.10 20:52:16.
