data_PCOD8269987
_publ_section_title
;
Structure prediction by ZEFSAII (Michael W. Deem and Ramdas Pophale) SiO2 
 PCOD8269987
Probable space group: C M M M
;
_chemical_formula_sum "Si O2"
_cell_formula_units_Z 104
_cell_length_a 8.959108
_cell_length_b 28.402190
_cell_length_c 22.928209
_cell_angle_alpha 90.000000
_cell_angle_beta 90.000000
_cell_angle_gamma 90.000000
_cell_volume 5834.272801
_symmetry_space_group_name_H-M "C M M M"
_symmetry_group_IT_number 65
_symmetry_cell_setting 'orthorhombic'
loop_
_space_group_symop_operation_xyz
x,y,z
-x,-y,z
x,-y,-z
-x,y,-z
-x,-y,-z
x,y,-z
-x,y,z
x,-y,z
1/2+x,1/2+y,z
1/2-x,1/2-y,z
1/2+x,1/2-y,-z
1/2-x,1/2+y,-z
1/2-x,1/2-y,-z
1/2+x,1/2+y,-z
1/2-x,1/2+y,z
1/2+x,1/2-y,z
loop_
_atom_site_type_symbol
_atom_site_label
_atom_site_fract_x
_atom_site_fract_y
_atom_site_fract_z
Si Si1 0.324605 0.138112 0.658850
Si Si2 0.824001 0.699980 0.230051
Si Si3 0.678680 0.198873 0.000000
Si Si4 0.171814 0.946384 0.288439
Si Si5 0.824313 0.351958 0.115143
Si Si6 0.826452 0.798177 0.432123
Si Si7 0.172635 0.447638 0.166286
O O1 0.500000 0.137933 0.648253
O O2 0.278113 0.167760 0.715630
O O3 0.266831 0.085079 0.667142
O O4 0.245339 0.158582 0.601961
O O5 0.750000 0.750000 0.238914
O O6 0.760471 0.675679 0.171327
O O7 0.000000 0.706694 0.226488
O O8 0.750000 0.250000 0.000000
O O9 0.740929 0.170464 0.943906
O O10 0.500000 0.203141 0.000000
O O11 0.228689 0.939649 0.222912
O O12 0.000000 0.930892 0.290341
O O13 0.193018 0.000000 0.308896
O O14 0.782572 0.407636 0.119133
O O15 0.000000 0.345799 0.113942
O O16 0.796717 0.807315 0.500000
O O17 0.750000 0.750000 0.411084
O O18 0.000000 0.794241 0.417337
O O19 0.199519 0.500000 0.139617
O O20 0.000000 0.441135 0.185056
#
# Coordination Sequence:
#
# PCOD8269987 Si02
#       7
#    16  16   8  16  16  16  16
#     4  11  21  34  54  78 106 140 177 218 264 315
#     4  10  20  32  46  69 101 131 165 210 259 306
#     4  10  20  34  53  69  95 135 174 216 255 306
#     4  10  20  33  51  78 109 137 170 214 264 319
#     4   9  17  32  49  71  99 130 169 213 258 305
#     4  10  21  37  56  79 110 147 184 221 261 308
#     4   9  16  30  52  73  98 132 167 207 260 320
#
# _framework density 17.825700999999999
#
# number of rings (size 3 to 8) (size 9 to 14) (size 15 to 20)
#    0.000    2.154    1.538    2.308    0.000    4.308 
#    0.000    1.154    0.000    2.769    0.000    3.231 
#    0.000    3.077    0.000    0.000    0.000    0.000 
#
# Total GULP energy -644833.412099 kJ/mol
# GULP energy per Si atom -12400.642540 kJ/mol
# Density = 1.778513 g / cm^3
# Si number density = 17.825701 Si / 1000 Ang^3
#
#
#
# Elastic Constant Matrix: (Units=GPa)
#
#
# Indices 1 2 3 4 5 6 
#
# 1 60.0592 47.1914 42.3068 0.0000 0.0000 0.0000
# 2 47.1914 137.0304 56.3012 0.0000 0.0000 0.0000
# 3 42.3068 56.3012 87.0411 0.0000 0.0000 0.0000
# 4 0.0000 0.0000 0.0000 31.8062 0.0000 0.0000
# 5 0.0000 0.0000 0.0000 0.0000 18.6146 0.0000
# 6 0.0000 0.0000 0.0000 0.0000 0.0000 29.5598
#
#
#
# Elastic Compliance Matrix: (Units=1/GPa)
#
#
# Indices 1 2 3 4 5 6 
#
# 1 0.028099 -0.005537 -0.010076 0.000000 0.000000 0.000000
# 2 -0.005537 0.011030 -0.004443 0.000000 0.000000 0.000000
# 3 -0.010076 -0.004443 0.019261 0.000000 0.000000 0.000000
# 4 0.000000 0.000000 0.000000 0.031440 0.000000 0.000000
# 5 0.000000 0.000000 0.000000 0.000000 0.053721 0.000000
# 6 0.000000 0.000000 0.000000 0.000000 0.000000 0.033830
#
#
# Mechanical properties :
#
#
# Convention : Reuss Voigt Hill
#
# Bulk Modulus (GPa) = 54.71501 63.96996 59.34249
# Shear Modulus (GPa) = 22.36282 25.21820 23.79051
#
# Velocity S-wave (km/s) = 3.54577 3.76534 3.65721
# Velocity P-wave (km/s) = 6.89380 7.40730 7.15515
#
# Compressibility (1/GPa) = 0.01827652
#
# Stress axis : x y z
#
# Youngs Moduli (GPa) = 35.58906 90.66065 51.91972
#
# Poissons Ratio (x) = 0.50198 0.52314
# Poissons Ratio (y) = 0.19705 0.23070
# Poissons Ratio (z) = 0.35860 0.40285
#
# Static dielectric constant tensor:
#      x y z
#    x 3.211830 0.000000 0.000000 
#    y 0.000000 3.522380 0.000000 
#    z 0.000000 0.000000 3.299730 
# 
# 
# High freq. dielectric constant tensor:
#      x y z
#    x 1.680020 0.000000 0.000000 
#    y 0.000000 1.701000 0.000000 
#    z 0.000000 0.000000 1.671300 
# 
# From -- ./inp_files/68524.got.cif
#   From: 2010.03.12/outbox.cif.g09.slc.cpg/sg65_35_cif.got.tgz:68524.got - 2010.04.10 20:52:16.
