data_PCOD8269736
_publ_section_title
;
Structure prediction by ZEFSAII (Michael W. Deem and Ramdas Pophale) SiO2 
 PCOD8269736
Probable space group: C M M M
;
_chemical_formula_sum "Si O2"
_cell_formula_units_Z 104
_cell_length_a 9.007580
_cell_length_b 30.328246
_cell_length_c 22.651911
_cell_angle_alpha 90.000000
_cell_angle_beta 90.000000
_cell_angle_gamma 90.000000
_cell_volume 6188.141967
_symmetry_space_group_name_H-M "C M M M"
_symmetry_group_IT_number 65
_symmetry_cell_setting 'orthorhombic'
loop_
_space_group_symop_operation_xyz
x,y,z
-x,-y,z
x,-y,-z
-x,y,-z
-x,-y,-z
x,y,-z
-x,y,z
x,-y,z
1/2+x,1/2+y,z
1/2-x,1/2-y,z
1/2+x,1/2-y,-z
1/2-x,1/2+y,-z
1/2-x,1/2-y,-z
1/2+x,1/2+y,-z
1/2-x,1/2+y,z
1/2+x,1/2-y,z
loop_
_atom_site_type_symbol
_atom_site_label
_atom_site_fract_x
_atom_site_fract_y
_atom_site_fract_z
Si Si1 0.172796 0.327183 0.566161
Si Si2 0.176639 0.206080 0.318912
Si Si3 0.833195 0.087239 0.401799
Si Si4 0.164629 0.500000 0.430931
Si Si5 0.664795 0.614699 0.731637
Si Si6 0.325221 0.050292 0.819305
Si Si7 0.833547 0.052254 0.064453
O O1 0.194745 0.307463 0.500000
O O2 0.262848 0.299124 0.614285
O O3 0.233513 0.376856 0.565250
O O4 0.000000 0.327531 0.583867
O O5 0.250000 0.250000 0.291351
O O6 0.221686 0.165334 0.276025
O O7 0.000000 0.210259 0.323110
O O8 0.840696 0.094539 0.332632
O O9 0.000000 0.087937 0.428332
O O10 0.757703 0.041023 0.410189
O O11 0.146543 0.500000 0.500000
O O12 0.000000 0.500000 0.401719
O O13 0.500000 0.614073 0.759982
O O14 0.772169 0.584897 0.770637
O O15 0.500000 0.050042 0.818877
O O16 0.272219 0.068545 0.882955
O O17 0.266079 0.000000 0.807250
O O18 0.000000 0.069604 0.076666
O O19 0.832936 0.000000 0.062818
O O20 0.778457 0.069844 0.000000
#
# Coordination Sequence:
#
# PCOD8269736 Si02
#       7
#    16  16  16   8  16  16  16
#     4  10  20  34  52  73  96 121 149 186 237 295
#     4  10  21  37  56  76  96 122 156 196 246 298
#     4  10  21  35  50  68  89 119 158 200 244 287
#     4  11  23  35  47  65  89 119 156 197 242 293
#     4   9  20  36  51  69  94 125 160 197 239 288
#     4  10  20  30  44  71 102 134 170 205 242 279
#     4   8  14  26  44  65  92 131 173 206 239 278
#
# _framework density 16.806336999999999
#
# number of rings (size 3 to 8) (size 9 to 14) (size 15 to 20)
#    0.000    2.385    0.000    3.923    1.077    8.923 
#    0.000    1.538    0.000    0.000    0.000    0.000 
#    0.000    0.615    0.000    2.000    0.000    2.462 
#
# Total GULP energy -644523.255029 kJ/mol
# GULP energy per Si atom -12394.677981 kJ/mol
# Density = 1.676809 g / cm^3
# Si number density = 16.806337 Si / 1000 Ang^3
#
#
#
# Elastic Constant Matrix: (Units=GPa)
#
#
# Indices 1 2 3 4 5 6 
#
# 1 92.9049 39.5428 37.7343 0.0000 0.0000 0.0000
# 2 39.5428 96.1964 32.1197 0.0000 0.0000 0.0000
# 3 37.7343 32.1197 64.4319 0.0000 0.0000 0.0000
# 4 0.0000 0.0000 0.0000 9.9074 0.0000 0.0000
# 5 0.0000 0.0000 0.0000 0.0000 25.8943 0.0000
# 6 0.0000 0.0000 0.0000 0.0000 0.0000 27.6471
#
#
#
# Elastic Compliance Matrix: (Units=1/GPa)
#
#
# Indices 1 2 3 4 5 6 
#
# 1 0.015280 -0.003951 -0.006979 0.000000 0.000000 0.000000
# 2 -0.003951 0.013493 -0.004412 0.000000 0.000000 0.000000
# 3 -0.006979 -0.004412 0.021807 0.000000 0.000000 0.000000
# 4 0.000000 0.000000 0.000000 0.100934 0.000000 0.000000
# 5 0.000000 0.000000 0.000000 0.000000 0.038619 0.000000
# 6 0.000000 0.000000 0.000000 0.000000 0.000000 0.036170
#
#
# Mechanical properties :
#
#
# Convention : Reuss Voigt Hill
#
# Bulk Modulus (GPa) = 50.26351 52.48074 51.37212
# Shear Modulus (GPa) = 18.96676 22.29885 20.63281
#
# Velocity S-wave (km/s) = 3.36303 3.64650 3.50763
# Velocity P-wave (km/s) = 6.71211 7.00170 6.85843
#
# Compressibility (1/GPa) = 0.01989515
#
# Stress axis : x y z
#
# Youngs Moduli (GPa) = 65.44561 74.11420 45.85636
#
# Poissons Ratio (x) = 0.29280 0.32004
# Poissons Ratio (y) = 0.25855 0.20234
# Poissons Ratio (z) = 0.45676 0.32703
#
# Static dielectric constant tensor:
#      x y z
#    x 3.485450 0.000000 0.000000 
#    y 0.000000 2.984550 0.000000 
#    z 0.000000 0.000000 3.375410 
# 
# 
# High freq. dielectric constant tensor:
#      x y z
#    x 1.660430 0.000000 0.000000 
#    y 0.000000 1.626360 0.000000 
#    z 0.000000 0.000000 1.628180 
# 
# From -- ./inp_files/60874.got.cif
#   From: 2010.03.12/outbox.cif.g09.slc.cpg/sg65_31_cif.got.tgz:60874.got - 2010.04.10 20:52:16.
