data_PCOD8269960
_publ_section_title
;
Structure prediction by ZEFSAII (Michael W. Deem and Ramdas Pophale) SiO2 
 PCOD8269960
Probable space group: C M M M
;
_chemical_formula_sum "Si O2"
_cell_formula_units_Z 72
_cell_length_a 18.419909
_cell_length_b 9.739284
_cell_length_c 23.428090
_cell_angle_alpha 90.000000
_cell_angle_beta 90.000000
_cell_angle_gamma 90.000000
_cell_volume 4202.922619
_symmetry_space_group_name_H-M "C M M M"
_symmetry_group_IT_number 65
_symmetry_cell_setting 'orthorhombic'
loop_
_space_group_symop_operation_xyz
x,y,z
-x,-y,z
x,-y,-z
-x,y,-z
-x,-y,-z
x,y,-z
-x,y,z
x,-y,z
1/2+x,1/2+y,z
1/2-x,1/2-y,z
1/2+x,1/2-y,-z
1/2-x,1/2+y,-z
1/2-x,1/2-y,-z
1/2+x,1/2+y,-z
1/2-x,1/2+y,z
1/2+x,1/2-y,z
loop_
_atom_site_type_symbol
_atom_site_label
_atom_site_fract_x
_atom_site_fract_y
_atom_site_fract_z
Si Si1 0.083672 0.157332 0.223739
Si Si2 0.913127 0.345715 0.122357
Si Si3 0.678815 0.661107 0.333751
Si Si4 0.580889 0.337202 0.563510
Si Si5 0.579465 0.837097 0.000000
O O1 0.116378 0.246782 0.171904
O O2 0.126851 0.191200 0.280760
O O3 0.000000 0.194548 0.235718
O O4 0.092524 0.000000 0.205559
O O5 0.886840 0.500000 0.136514
O O6 0.881329 0.296199 0.060071
O O7 0.000000 0.340395 0.118945
O O8 0.698320 0.500000 0.338504
O O9 0.750000 0.750000 0.325284
O O10 0.638135 0.717552 0.390256
O O11 0.606017 0.291402 0.500000
O O12 0.500000 0.278821 0.576146
O O13 0.577332 0.500000 0.567810
O O14 0.500000 0.767585 0.000000
O O15 0.570304 0.000000 0.000000
#
# Coordination Sequence:
#
# PCOD8269960 Si02
#       5
#    16  16  16  16   8
#     4   9  17  29  44  62  86 116 149 184 221 260
#     4   8  13  22  38  60  85 113 144 177 215 261
#     4  10  20  32  46  66  92 120 149 183 223 263
#     4   8  14  27  49  73  92 114 149 187 218 255
#     4   7  10  18  33  55  84 113 138 169 213 263
#
# _framework density 17.130935999999998
#
# number of rings (size 3 to 8) (size 9 to 14) (size 15 to 20)
#    0.000    3.444    0.000    2.667    0.000    4.000 
#    0.000    0.556    0.000    5.333    0.000    2.333 
#    0.000    0.000    0.000    0.000    0.000    0.000 
#
# Total GULP energy -446025.018492 kJ/mol
# GULP energy per Si atom -12389.583847 kJ/mol
# Density = 1.709195 g / cm^3
# Si number density = 17.130936 Si / 1000 Ang^3
#
#
#
# Elastic Constant Matrix: (Units=GPa)
#
#
# Indices 1 2 3 4 5 6 
#
# 1 58.2940 34.7216 53.0627 0.0000 0.0000 0.0000
# 2 34.7216 52.2516 63.2278 0.0000 0.0000 0.0000
# 3 53.0627 63.2278 167.7951 0.0000 0.0000 0.0000
# 4 0.0000 0.0000 0.0000 22.1502 0.0000 0.0000
# 5 0.0000 0.0000 0.0000 0.0000 1.2350 0.0000
# 6 0.0000 0.0000 0.0000 0.0000 0.0000 18.5127
#
#
#
# Elastic Compliance Matrix: (Units=1/GPa)
#
#
# Indices 1 2 3 4 5 6 
#
# 1 0.029512 -0.015289 -0.003572 0.000000 0.000000 0.000000
# 2 -0.015289 0.043100 -0.011406 0.000000 0.000000 0.000000
# 3 -0.003572 -0.011406 0.011387 0.000000 0.000000 0.000000
# 4 0.000000 0.000000 0.000000 0.045146 0.000000 0.000000
# 5 0.000000 0.000000 0.000000 0.000000 0.809687 0.000000
# 6 0.000000 0.000000 0.000000 0.000000 0.000000 0.054017
#
#
# Mechanical properties :
#
#
# Convention : Reuss Voigt Hill
#
# Bulk Modulus (GPa) = 42.61516 64.48497 53.55007
# Shear Modulus (GPa) = 4.71163 16.86817 10.78990
#
# Velocity S-wave (km/s) = 1.66022 3.14134 2.51240
# Velocity P-wave (km/s) = 5.34839 7.13312 6.30423
#
# Compressibility (1/GPa) = 0.02346583
#
# Stress axis : x y z
#
# Youngs Moduli (GPa) = 33.88429 23.20212 87.82022
#
# Poissons Ratio (x) = 0.35474 0.31365
# Poissons Ratio (y) = 0.51807 1.00164
# Poissons Ratio (z) = 0.12102 0.26463
#
# Static dielectric constant tensor:
#      x y z
#    x 2.861890 0.000000 0.000000 
#    y 0.000000 2.917990 0.000000 
#    z 0.000000 0.000000 3.725790 
# 
# 
# High freq. dielectric constant tensor:
#      x y z
#    x 1.617040 0.000000 0.000000 
#    y 0.000000 1.622240 0.000000 
#    z 0.000000 0.000000 1.685680 
# 
# From -- ./inp_files/70733.got.cif
#   From: 2010.03.12/outbox.cif.g09.slc.cpg/sg65_36_cif.got.tgz:70733.got - 2010.04.10 20:52:16.
