data_PCOD8269569
_publ_section_title
;
Structure prediction by ZEFSAII (Michael W. Deem and Ramdas Pophale) SiO2 
 PCOD8269569
Probable space group: C M M M
;
_chemical_formula_sum "Si O2"
_cell_formula_units_Z 72
_cell_length_a 34.002047
_cell_length_b 8.822384
_cell_length_c 12.636899
_cell_angle_alpha 90.000000
_cell_angle_beta 90.000000
_cell_angle_gamma 90.000000
_cell_volume 3790.805784
_symmetry_space_group_name_H-M "C M M M"
_symmetry_group_IT_number 65
_symmetry_cell_setting 'orthorhombic'
loop_
_space_group_symop_operation_xyz
x,y,z
-x,-y,z
x,-y,-z
-x,y,-z
-x,-y,-z
x,y,-z
-x,y,z
x,-y,z
1/2+x,1/2+y,z
1/2-x,1/2-y,z
1/2+x,1/2-y,-z
1/2-x,1/2+y,-z
1/2-x,1/2-y,-z
1/2+x,1/2+y,-z
1/2-x,1/2+y,z
1/2+x,1/2-y,z
loop_
_atom_site_type_symbol
_atom_site_label
_atom_site_fract_x
_atom_site_fract_y
_atom_site_fract_z
Si Si1 0.433381 0.327748 0.381708
Si Si2 0.292758 0.179790 0.500000
Si Si3 0.655140 0.324667 0.677129
Si Si4 0.626534 0.821859 0.881809
Si Si5 0.542163 0.177544 0.819846
O O1 0.447938 0.293547 0.500000
O O2 0.443075 0.500000 0.348766
O O3 0.386880 0.299631 0.376362
O O4 0.456351 0.215816 0.304513
O O5 0.250000 0.250000 0.500000
O O6 0.313917 0.233355 0.392794
O O7 0.290486 0.000000 0.500000
O O8 0.667577 0.500000 0.679400
O O9 0.654412 0.262469 0.797854
O O10 0.581397 0.756886 0.875923
O O11 0.626797 0.000000 0.855605
O O12 0.642487 0.789447 0.000000
O O13 0.500000 0.240599 0.865012
O O14 0.542151 0.000000 0.836044
#
# Coordination Sequence:
#
# PCOD8269569 Si02
#       5
#    16   8  16  16  16
#     4   9  17  30  47  66  93 132 175 217 266 321
#     4  12  24  38  60  90 121 148 173 204 254 311
#     4  10  19  35  56  80 111 142 179 221 264 315
#     4   9  18  33  53  77 104 140 188 233 275 324
#     4   9  18  30  43  65  97 133 177 229 280 323
#
# _framework density 18.993324000000001
#
# number of rings (size 3 to 8) (size 9 to 14) (size 15 to 20)
#    0.000    2.444    1.111    1.667    0.000    3.111 
#    0.000    4.444    0.000    0.667    0.000    6.222 
#    0.000    0.000    0.000    0.000    0.000    0.000 
#
# Total GULP energy -446170.051986 kJ/mol
# GULP energy per Si atom -12393.612555 kJ/mol
# Density = 1.895009 g / cm^3
# Si number density = 18.993324 Si / 1000 Ang^3
#
#
#
# Elastic Constant Matrix: (Units=GPa)
#
#
# Indices 1 2 3 4 5 6 
#
# 1 82.5698 37.4648 38.6627 0.0000 0.0000 0.0000
# 2 37.4648 74.3481 38.1604 0.0000 0.0000 0.0000
# 3 38.6627 38.1604 115.2179 0.0000 0.0000 0.0000
# 4 0.0000 0.0000 0.0000 26.1259 0.0000 0.0000
# 5 0.0000 0.0000 0.0000 0.0000 3.0701 0.0000
# 6 0.0000 0.0000 0.0000 0.0000 0.0000 21.3199
#
#
#
# Elastic Compliance Matrix: (Units=1/GPa)
#
#
# Indices 1 2 3 4 5 6 
#
# 1 0.016739 -0.006689 -0.003401 0.000000 0.000000 0.000000
# 2 -0.006689 0.018878 -0.004008 0.000000 0.000000 0.000000
# 3 -0.003401 -0.004008 0.011148 0.000000 0.000000 0.000000
# 4 0.000000 0.000000 0.000000 0.038276 0.000000 0.000000
# 5 0.000000 0.000000 0.000000 0.000000 0.325720 0.000000
# 6 0.000000 0.000000 0.000000 0.000000 0.000000 0.046904
#
#
# Mechanical properties :
#
#
# Convention : Reuss Voigt Hill
#
# Bulk Modulus (GPa) = 53.85573 55.63461 54.74517
# Shear Modulus (GPa) = 10.16154 20.62638 15.39396
#
# Velocity S-wave (km/s) = 2.31553 3.29900 2.85000
# Velocity P-wave (km/s) = 5.96368 6.62317 6.30206
#
# Compressibility (1/GPa) = 0.01856813
#
# Stress axis : x y z
#
# Youngs Moduli (GPa) = 59.74180 52.97171 89.70204
#
# Poissons Ratio (x) = 0.35433 0.30512
# Poissons Ratio (y) = 0.39961 0.35951
# Poissons Ratio (z) = 0.20321 0.21230
#
# Static dielectric constant tensor:
#      x y z
#    x 3.494280 0.000000 0.000000 
#    y 0.000000 3.407620 0.000000 
#    z 0.000000 0.000000 3.524070 
# 
# 
# High freq. dielectric constant tensor:
#      x y z
#    x 1.712450 0.000000 0.000000 
#    y 0.000000 1.727510 0.000000 
#    z 0.000000 0.000000 1.738380 
# 
# From -- ./inp_files/47451.got.cif
#   From: 2010.03.12/outbox.cif.g09.slc.cpg/sg65_24_cif.got.tgz:47451.got - 2010.04.10 20:52:16.
