data_PCOD8269866
_publ_section_title
;
Structure prediction by ZEFSAII (Michael W. Deem and Ramdas Pophale) SiO2 
 PCOD8269866
Probable space group: C M M M
;
_chemical_formula_sum "Si O2"
_cell_formula_units_Z 72
_cell_length_a 9.957449
_cell_length_b 20.531661
_cell_length_c 20.073146
_cell_angle_alpha 90.000000
_cell_angle_beta 90.000000
_cell_angle_gamma 90.000000
_cell_volume 4103.813531
_symmetry_space_group_name_H-M "C M M M"
_symmetry_group_IT_number 65
_symmetry_cell_setting 'orthorhombic'
loop_
_space_group_symop_operation_xyz
x,y,z
-x,-y,z
x,-y,-z
-x,y,-z
-x,-y,-z
x,y,-z
-x,y,z
x,-y,z
1/2+x,1/2+y,z
1/2-x,1/2-y,z
1/2+x,1/2-y,-z
1/2-x,1/2+y,-z
1/2-x,1/2-y,-z
1/2+x,1/2+y,-z
1/2-x,1/2+y,z
1/2+x,1/2-y,z
loop_
_atom_site_type_symbol
_atom_site_label
_atom_site_fract_x
_atom_site_fract_y
_atom_site_fract_z
Si Si1 0.342261 0.812294 0.601017
Si Si2 0.842541 0.000000 0.078096
Si Si3 0.356783 0.803671 0.000000
Si Si4 0.150359 0.305357 0.246767
Si Si5 0.842384 0.575623 0.500000
Si Si6 0.648280 0.894998 0.124915
O O1 0.500000 0.795867 0.586617
O O2 0.250000 0.750000 0.578889
O O3 0.315729 0.827798 0.678377
O O4 0.299381 0.879331 0.563361
O O5 0.775352 0.939887 0.114350
O O6 0.000000 0.000000 0.091714
O O7 0.808405 0.000000 0.000000
O O8 0.250000 0.750000 0.000000
O O9 0.341053 0.843004 0.932803
O O10 0.500000 0.768350 0.000000
O O11 0.250000 0.250000 0.221471
O O12 0.166215 0.366364 0.198391
O O13 0.000000 0.276667 0.243049
O O14 0.781139 0.500000 0.500000
O O15 0.000000 0.565868 0.500000
O O16 0.500000 0.928992 0.120252
#
# Coordination Sequence:
#
# PCOD8269866 Si02
#       6
#    16   8   8  16   8  16
#     4   9  17  31  52  78 104 135 174 211 254 304
#     4  11  23  37  53  73  95 126 169 212 252 295
#     4  10  20  31  48  71  95 124 158 198 247 296
#     4   9  18  32  51  77 103 130 165 205 252 300
#     4   9  17  30  49  75 108 139 172 216 256 295
#     4  10  20  35  52  71  98 131 165 202 249 300
#
# _framework density 17.544657000000001
#
# number of rings (size 3 to 8) (size 9 to 14) (size 15 to 20)
#    0.000    2.444    1.111    1.333    0.000    2.222 
#    2.000    0.000    0.000    1.333    0.000    0.000 
#    0.000    0.000    0.000    0.000    0.000    0.000 
#
# Total GULP energy -445982.827420 kJ/mol
# GULP energy per Si atom -12388.411873 kJ/mol
# Density = 1.750472 g / cm^3
# Si number density = 17.544657 Si / 1000 Ang^3
#
#
#
# Elastic Constant Matrix: (Units=GPa)
#
#
# Indices 1 2 3 4 5 6 
#
# 1 107.7527 71.3294 42.0626 0.0000 0.0000 0.0000
# 2 71.3294 116.1089 49.7799 0.0000 0.0000 0.0000
# 3 42.0626 49.7799 101.3425 0.0000 0.0000 0.0000
# 4 0.0000 0.0000 0.0000 36.9475 0.0000 0.0000
# 5 0.0000 0.0000 0.0000 0.0000 19.2898 0.0000
# 6 0.0000 0.0000 0.0000 0.0000 0.0000 35.2212
#
#
#
# Elastic Compliance Matrix: (Units=1/GPa)
#
#
# Indices 1 2 3 4 5 6 
#
# 1 0.016055 -0.008875 -0.002304 0.000000 0.000000 0.000000
# 2 -0.008875 0.015817 -0.004085 0.000000 0.000000 0.000000
# 3 -0.002304 -0.004085 0.012831 0.000000 0.000000 0.000000
# 4 0.000000 0.000000 0.000000 0.027065 0.000000 0.000000
# 5 0.000000 0.000000 0.000000 0.000000 0.051841 0.000000
# 6 0.000000 0.000000 0.000000 0.000000 0.000000 0.028392
#
#
# Mechanical properties :
#
#
# Convention : Reuss Voigt Hill
#
# Bulk Modulus (GPa) = 70.55888 72.39423 71.47655
# Shear Modulus (GPa) = 26.70157 29.09384 27.89770
#
# Velocity S-wave (km/s) = 3.90541 4.07661 3.99193
# Velocity P-wave (km/s) = 7.78719 7.96936 7.87880
#
# Compressibility (1/GPa) = 0.01417256
#
# Stress axis : x y z
#
# Youngs Moduli (GPa) = 62.28509 63.22483 77.93831
#
# Poissons Ratio (x) = 0.56114 0.17958
# Poissons Ratio (y) = 0.55280 0.31841
# Poissons Ratio (z) = 0.14352 0.25830
#
# Static dielectric constant tensor:
#      x y z
#    x 3.366300 0.000000 0.000000 
#    y 0.000000 3.115770 0.000000 
#    z 0.000000 0.000000 3.426970 
# 
# 
# High freq. dielectric constant tensor:
#      x y z
#    x 1.675020 0.000000 0.000000 
#    y 0.000000 1.658700 0.000000 
#    z 0.000000 0.000000 1.691920 
# 
# From -- ./inp_files/59379.got.cif
#   From: 2010.03.12/outbox.cif.g09.slc.cpg/sg65_30_cif.got.tgz:59379.got - 2010.04.10 20:52:16.
