data_PCOD8269797
_publ_section_title
;
Structure prediction by ZEFSAII (Michael W. Deem and Ramdas Pophale) SiO2 
 PCOD8269797
Probable space group: C M M M
;
_chemical_formula_sum "Si O2"
_cell_formula_units_Z 104
_cell_length_a 26.844804
_cell_length_b 9.289581
_cell_length_c 26.497123
_cell_angle_alpha 90.000000
_cell_angle_beta 90.000000
_cell_angle_gamma 90.000000
_cell_volume 6607.772544
_symmetry_space_group_name_H-M "C M M M"
_symmetry_group_IT_number 65
_symmetry_cell_setting 'orthorhombic'
loop_
_space_group_symop_operation_xyz
x,y,z
-x,-y,z
x,-y,-z
-x,y,-z
-x,-y,-z
x,y,-z
-x,y,z
x,-y,z
1/2+x,1/2+y,z
1/2-x,1/2-y,z
1/2+x,1/2-y,-z
1/2-x,1/2+y,-z
1/2-x,1/2-y,-z
1/2+x,1/2+y,-z
1/2-x,1/2+y,z
1/2+x,1/2-y,z
loop_
_atom_site_type_symbol
_atom_site_label
_atom_site_fract_x
_atom_site_fract_y
_atom_site_fract_z
Si Si1 0.440937 0.159158 0.406594
Si Si2 0.940466 0.160687 0.500000
Si Si3 0.101557 0.832593 0.796170
Si Si4 0.798387 0.831890 0.145830
Si Si5 0.347719 0.833094 0.057685
Si Si6 0.442672 0.830388 0.293879
Si Si7 0.444570 0.163787 0.115904
O O1 0.500000 0.150749 0.410799
O O2 0.419165 0.263079 0.449722
O O3 0.426882 0.214775 0.350690
O O4 0.418643 0.000000 0.415606
O O5 0.000000 0.162897 0.500000
O O6 0.919426 0.000000 0.500000
O O7 0.158025 0.804832 0.813869
O O8 0.093903 0.756217 0.742678
O O9 0.063579 0.766834 0.836581
O O10 0.089570 0.000000 0.790796
O O11 0.750000 0.750000 0.167085
O O12 0.812207 0.765403 0.091525
O O13 0.787220 0.000000 0.138515
O O14 0.405459 0.803255 0.071486
O O15 0.334074 0.000000 0.066692
O O16 0.339518 0.787763 0.000000
O O17 0.500000 0.787597 0.283189
O O18 0.435380 0.000000 0.285999
O O19 0.500000 0.190516 0.094210
O O20 0.438406 0.000000 0.135252
#
# Coordination Sequence:
#
# PCOD8269797 Si02
#       7
#    16   8  16  16  16  16  16
#     4   8  14  24  36  50  72 106 146 182 212 243
#     4   9  15  21  31  49  73 103 142 185 222 251
#     4  10  20  31  44  64  87 109 136 173 214 254
#     4  10  21  36  52  68  85 107 136 169 209 257
#     4   9  18  32  49  69  91 113 138 169 205 244
#     4   9  17  28  42  61  85 115 150 181 209 246
#     4   9  17  29  45  64  87 116 146 172 199 237
#
# _framework density 15.739039999999999
#
# number of rings (size 3 to 8) (size 9 to 14) (size 15 to 20)
#    0.000    2.846    0.000    2.538    0.000    6.769 
#    0.000    3.077    0.000    0.000    0.000    4.308 
#    0.000    0.000    0.000    0.692    0.000    9.154 
#
# Total GULP energy -644712.002305 kJ/mol
# GULP energy per Si atom -12398.307737 kJ/mol
# Density = 1.570322 g / cm^3
# Si number density = 15.739040 Si / 1000 Ang^3
#
#
#
# Elastic Constant Matrix: (Units=GPa)
#
#
# Indices 1 2 3 4 5 6 
#
# 1 59.2006 35.4175 27.2529 0.0000 0.0000 0.0000
# 2 35.4175 92.9768 63.4197 0.0000 0.0000 0.0000
# 3 27.2529 63.4197 117.6407 0.0000 0.0000 0.0000
# 4 0.0000 0.0000 0.0000 21.5488 0.0000 0.0000
# 5 0.0000 0.0000 0.0000 0.0000 11.5965 0.0000
# 6 0.0000 0.0000 0.0000 0.0000 0.0000 20.3610
#
#
#
# Elastic Compliance Matrix: (Units=1/GPa)
#
#
# Indices 1 2 3 4 5 6 
#
# 1 0.021939 -0.007735 -0.000913 0.000000 0.000000 0.000000
# 2 -0.007735 0.019737 -0.008848 0.000000 0.000000 0.000000
# 3 -0.000913 -0.008848 0.013482 0.000000 0.000000 0.000000
# 4 0.000000 0.000000 0.000000 0.046406 0.000000 0.000000
# 5 0.000000 0.000000 0.000000 0.000000 0.086233 0.000000
# 6 0.000000 0.000000 0.000000 0.000000 0.000000 0.049113
#
#
# Mechanical properties :
#
#
# Convention : Reuss Voigt Hill
#
# Bulk Modulus (GPa) = 49.58641 57.99981 53.79311
# Shear Modulus (GPa) = 17.94526 20.28315 19.11421
#
# Velocity S-wave (km/s) = 3.38031 3.59376 3.48867
# Velocity P-wave (km/s) = 6.84172 7.35874 7.10493
#
# Compressibility (1/GPa) = 0.02016682
#
# Stress axis : x y z
#
# Youngs Moduli (GPa) = 45.58036 50.66551 74.17246
#
# Poissons Ratio (x) = 0.39188 0.06770
# Poissons Ratio (y) = 0.35255 0.65631
# Poissons Ratio (z) = 0.04160 0.44831
#
# Static dielectric constant tensor:
#      x y z
#    x 2.734350 0.000000 0.000000 
#    y 0.000000 3.107180 0.000000 
#    z 0.000000 0.000000 3.035010 
# 
# 
# High freq. dielectric constant tensor:
#      x y z
#    x 1.562690 0.000000 0.000000 
#    y 0.000000 1.610570 0.000000 
#    z 0.000000 0.000000 1.599660 
# 
# From -- ./inp_files/68181.got.cif
#   From: 2010.03.12/outbox.cif.g09.slc.cpg/sg65_35_cif.got.tgz:68181.got - 2010.04.10 20:52:16.
