data_PCOD8269853
_publ_section_title
;
Structure prediction by ZEFSAII (Michael W. Deem and Ramdas Pophale) SiO2 
 PCOD8269853
Probable space group: C M M M
;
_chemical_formula_sum "Si O2"
_cell_formula_units_Z 72
_cell_length_a 9.267787
_cell_length_b 15.891408
_cell_length_c 24.629016
_cell_angle_alpha 90.000000
_cell_angle_beta 90.000000
_cell_angle_gamma 90.000000
_cell_volume 3627.316762
_symmetry_space_group_name_H-M "C M M M"
_symmetry_group_IT_number 65
_symmetry_cell_setting 'orthorhombic'
loop_
_space_group_symop_operation_xyz
x,y,z
-x,-y,z
x,-y,-z
-x,y,-z
-x,-y,-z
x,y,-z
-x,y,z
x,-y,z
1/2+x,1/2+y,z
1/2-x,1/2-y,z
1/2+x,1/2-y,-z
1/2-x,1/2+y,-z
1/2-x,1/2-y,-z
1/2+x,1/2+y,-z
1/2-x,1/2+y,z
1/2+x,1/2-y,z
loop_
_atom_site_type_symbol
_atom_site_label
_atom_site_fract_x
_atom_site_fract_y
_atom_site_fract_z
Si Si1 0.831735 0.835443 0.875719
Si Si2 0.842030 0.404002 0.341765
Si Si3 0.171477 0.000000 0.061674
Si Si4 0.161649 0.100172 0.559943
Si Si5 0.331301 0.334746 0.249366
O O1 0.750000 0.750000 0.892959
O O2 0.803406 0.858599 0.813128
O O3 0.000000 0.819889 0.887318
O O4 0.770634 0.914869 0.909697
O O5 0.866123 0.500000 0.356990
O O6 0.763867 0.359856 0.393377
O O7 0.741734 0.403154 0.288133
O O8 0.000000 0.361914 0.331831
O O9 0.000000 0.000000 0.065509
O O10 0.227019 0.000000 0.000000
O O11 0.218557 0.126755 0.500000
O O12 0.000000 0.134989 0.568846
O O13 0.158552 0.000000 0.564754
O O14 0.500000 0.327112 0.261718
O O15 0.250000 0.250000 0.265086
#
# Coordination Sequence:
#
# PCOD8269853 Si02
#       5
#    16  16   8  16  16
#     4   9  19  35  56  81 110 146 187 229 276 329
#     4  10  20  31  46  73 104 132 168 213 262 313
#     4   9  18  34  57  85 115 149 188 227 270 325
#     4   8  14  26  44  66  94 129 169 211 256 308
#     4  10  20  34  53  73 100 134 173 216 263 319
#
# _framework density 19.849383
#
# number of rings (size 3 to 8) (size 9 to 14) (size 15 to 20)
#    0.000    2.778    0.000    2.000    1.556    3.111 
#    0.000    2.778    0.000    1.333    0.000    0.000 
#    0.000    0.000    0.000    0.000    0.000    0.000 
#
# Total GULP energy -446194.732534 kJ/mol
# GULP energy per Si atom -12394.298126 kJ/mol
# Density = 1.980420 g / cm^3
# Si number density = 19.849383 Si / 1000 Ang^3
#
#
#
# Elastic Constant Matrix: (Units=GPa)
#
#
# Indices 1 2 3 4 5 6 
#
# 1 113.6450 38.7675 68.1387 0.0000 0.0000 0.0000
# 2 38.7675 76.6199 54.8706 0.0000 0.0000 0.0000
# 3 68.1387 54.8706 136.1939 0.0000 0.0000 0.0000
# 4 0.0000 0.0000 0.0000 3.7471 0.0000 0.0000
# 5 0.0000 0.0000 0.0000 0.0000 22.0041 0.0000
# 6 0.0000 0.0000 0.0000 0.0000 0.0000 24.8635
#
#
#
# Elastic Compliance Matrix: (Units=1/GPa)
#
#
# Indices 1 2 3 4 5 6 
#
# 1 0.012952 -0.002689 -0.005397 0.000000 0.000000 0.000000
# 2 -0.002689 0.018902 -0.006270 0.000000 0.000000 0.000000
# 3 -0.005397 -0.006270 0.012569 0.000000 0.000000 0.000000
# 4 0.000000 0.000000 0.000000 0.266876 0.000000 0.000000
# 5 0.000000 0.000000 0.000000 0.000000 0.045446 0.000000
# 6 0.000000 0.000000 0.000000 0.000000 0.000000 0.040220
#
#
# Mechanical properties :
#
#
# Convention : Reuss Voigt Hill
#
# Bulk Modulus (GPa) = 63.64679 72.22358 67.93518
# Shear Modulus (GPa) = 11.60325 21.10174 16.35250
#
# Velocity S-wave (km/s) = 2.42040 3.26405 2.87336
# Velocity P-wave (km/s) = 6.32025 7.11830 6.73111
#
# Compressibility (1/GPa) = 0.01571171
#
# Stress axis : x y z
#
# Youngs Moduli (GPa) = 77.20596 52.90389 79.56177
#
# Poissons Ratio (x) = 0.14223 0.42939
# Poissons Ratio (y) = 0.20757 0.49888
# Poissons Ratio (z) = 0.41668 0.33173
#
# Static dielectric constant tensor:
#      x y z
#    x 3.782060 0.000000 0.000000 
#    y 0.000000 3.310890 0.000000 
#    z 0.000000 0.000000 3.707210 
# 
# 
# High freq. dielectric constant tensor:
#      x y z
#    x 1.765540 0.000000 0.000000 
#    y 0.000000 1.744750 0.000000 
#    z 0.000000 0.000000 1.778330 
# 
# From -- ./inp_files/70351.got.cif
#   From: 2010.03.12/outbox.cif.g09.slc.cpg/sg65_36_cif.got.tgz:70351.got - 2010.04.10 20:52:16.
