data_PCOD8269087
_publ_section_title
;
Structure prediction by ZEFSAII (Michael W. Deem and Ramdas Pophale) SiO2 
 PCOD8269087
Probable space group: C M M M
;
_chemical_formula_sum "Si O2"
_cell_formula_units_Z 64
_cell_length_a 15.545182
_cell_length_b 9.455854
_cell_length_c 22.475466
_cell_angle_alpha 90.000000
_cell_angle_beta 90.000000
_cell_angle_gamma 90.000000
_cell_volume 3303.735531
_symmetry_space_group_name_H-M "C M M M"
_symmetry_group_IT_number 65
_symmetry_cell_setting 'orthorhombic'
loop_
_space_group_symop_operation_xyz
x,y,z
-x,-y,z
x,-y,-z
-x,y,-z
-x,-y,-z
x,y,-z
-x,y,z
x,-y,z
1/2+x,1/2+y,z
1/2-x,1/2-y,z
1/2+x,1/2-y,-z
1/2-x,1/2+y,-z
1/2-x,1/2-y,-z
1/2+x,1/2+y,-z
1/2-x,1/2+y,z
1/2+x,1/2-y,z
loop_
_atom_site_type_symbol
_atom_site_label
_atom_site_fract_x
_atom_site_fract_y
_atom_site_fract_z
Si Si1 0.397239 0.841584 0.390759
Si Si2 0.904866 0.332390 0.261169
Si Si3 0.397225 0.340695 0.500000
Si Si4 0.832569 0.332451 0.137956
Si Si5 0.000000 0.667724 0.066806
O O1 0.500000 0.843208 0.390994
O O2 0.366238 0.786048 0.325537
O O3 0.360825 0.737581 0.441386
O O4 0.362977 0.000000 0.403711
O O5 0.914290 0.500000 0.260847
O O6 0.844749 0.284670 0.206746
O O7 0.000000 0.266254 0.251893
O O8 0.362092 0.500000 0.500000
O O9 0.500000 0.337228 0.500000
O O10 0.818467 0.500000 0.131484
O O11 0.750000 0.250000 0.112638
O O12 0.914891 0.279710 0.100718
O O13 0.000000 0.500000 0.066036
O O14 0.000000 0.729564 0.000000
#
# Coordination Sequence:
#
# PCOD8269087 Si02
#       5
#    16  16   8  16   8
#     4   8  13  21  36  56  78 110 158 207 245 285
#     4   8  13  25  46  68  89 123 170 214 251 296
#     4   9  15  21  29  49  86 123 152 188 246 308
#     4  10  19  33  54  79 107 138 176 218 260 306
#     4   9  18  34  57  81 107 144 183 212 246 305
#
# _framework density 19.372011000000001
#
# number of rings (size 3 to 8) (size 9 to 14) (size 15 to 20)
#    0.000    3.250    1.250    1.875    0.000    2.000 
#    0.000    1.875    0.000    2.250    0.000    0.875 
#    0.000    0.000    0.000    0.000    0.000    0.000 
#
# Total GULP energy -396564.592840 kJ/mol
# GULP energy per Si atom -12392.643526 kJ/mol
# Density = 1.932792 g / cm^3
# Si number density = 19.372011 Si / 1000 Ang^3
#
#
#
# Elastic Constant Matrix: (Units=GPa)
#
#
# Indices 1 2 3 4 5 6 
#
# 1 90.1198 32.1920 52.8937 0.0000 0.0000 0.0000
# 2 32.1920 62.7894 48.6419 0.0000 0.0000 0.0000
# 3 52.8937 48.6419 165.0382 0.0000 0.0000 0.0000
# 4 0.0000 0.0000 0.0000 11.4071 0.0000 0.0000
# 5 0.0000 0.0000 0.0000 0.0000 5.6404 0.0000
# 6 0.0000 0.0000 0.0000 0.0000 0.0000 19.0659
#
#
#
# Elastic Compliance Matrix: (Units=1/GPa)
#
#
# Indices 1 2 3 4 5 6 
#
# 1 0.014819 -0.005078 -0.003253 0.000000 0.000000 0.000000
# 2 -0.005078 0.022378 -0.004968 0.000000 0.000000 0.000000
# 3 -0.003253 -0.004968 0.008566 0.000000 0.000000 0.000000
# 4 0.000000 0.000000 0.000000 0.087665 0.000000 0.000000
# 5 0.000000 0.000000 0.000000 0.000000 0.177293 0.000000
# 6 0.000000 0.000000 0.000000 0.000000 0.000000 0.052450
#
#
# Mechanical properties :
#
#
# Convention : Reuss Voigt Hill
#
# Bulk Modulus (GPa) = 52.17603 65.04473 58.61038
# Shear Modulus (GPa) = 12.62121 19.50398 16.06260
#
# Velocity S-wave (km/s) = 2.55525 3.17647 2.88265
# Velocity P-wave (km/s) = 5.97478 6.86315 6.43431
#
# Compressibility (1/GPa) = 0.01916589
#
# Stress axis : x y z
#
# Youngs Moduli (GPa) = 67.47879 44.68582 116.74030
#
# Poissons Ratio (x) = 0.22691 0.37975
# Poissons Ratio (y) = 0.34265 0.57999
# Poissons Ratio (z) = 0.21950 0.22201
#
# Static dielectric constant tensor:
#      x y z
#    x 3.124800 0.000000 0.000000 
#    y 0.000000 3.107840 0.000000 
#    z 0.000000 0.000000 4.064090 
# 
# 
# High freq. dielectric constant tensor:
#      x y z
#    x 1.721800 0.000000 0.000000 
#    y 0.000000 1.703350 0.000000 
#    z 0.000000 0.000000 1.767890 
# 
# From -- ./inp_files/66962.got.cif
#   From: 2010.03.12/outbox.cif.g09.slc.cpg/sg65_34_cif.got.tgz:66962.got - 2010.04.10 20:52:16.
