data_PCOD8269272
_publ_section_title
;
Structure prediction by ZEFSAII (Michael W. Deem and Ramdas Pophale) SiO2 
 PCOD8269272
Probable space group: C M M M
;
_chemical_formula_sum "Si O2"
_cell_formula_units_Z 88
_cell_length_a 9.138202
_cell_length_b 31.558555
_cell_length_c 16.979891
_cell_angle_alpha 90.000000
_cell_angle_beta 90.000000
_cell_angle_gamma 90.000000
_cell_volume 4896.804454
_symmetry_space_group_name_H-M "C M M M"
_symmetry_group_IT_number 65
_symmetry_cell_setting 'orthorhombic'
loop_
_space_group_symop_operation_xyz
x,y,z
-x,-y,z
x,-y,-z
-x,y,-z
-x,-y,-z
x,y,-z
-x,y,z
x,-y,z
1/2+x,1/2+y,z
1/2-x,1/2-y,z
1/2+x,1/2-y,-z
1/2-x,1/2+y,-z
1/2-x,1/2-y,-z
1/2+x,1/2+y,-z
1/2-x,1/2+y,z
1/2+x,1/2-y,z
loop_
_atom_site_type_symbol
_atom_site_label
_atom_site_fract_x
_atom_site_fract_y
_atom_site_fract_z
Si Si1 0.172929 0.206128 0.500000
Si Si2 0.827710 0.862558 0.786329
Si Si3 0.329107 0.707726 0.089776
Si Si4 0.170332 0.045678 0.742822
Si Si5 0.163371 0.437805 0.412738
Si Si6 0.335035 0.842180 0.631231
O O1 0.250000 0.250000 0.500000
O O2 0.224042 0.184241 0.420475
O O3 0.000000 0.210019 0.500000
O O4 0.787245 0.835472 0.863874
O O5 0.780978 0.912828 0.793962
O O6 0.731546 0.842125 0.718157
O O7 0.000000 0.858875 0.767131
O O8 0.500000 0.716859 0.096780
O O9 0.250000 0.750000 0.123409
O O10 0.279999 0.699635 0.000000
O O11 0.237352 0.043600 0.655788
O O12 0.000000 0.049367 0.728655
O O13 0.208959 0.000000 0.784559
O O14 0.222391 0.450658 0.500000
O O15 0.159554 0.387655 0.407833
O O16 0.000000 0.455919 0.401396
O O17 0.500000 0.822915 0.633617
#
# Coordination Sequence:
#
# PCOD8269272 Si02
#       6
#     8  16  16  16  16  16
#     4  12  24  36  50  68  93 128 169 212 258 301
#     4   9  18  33  52  74 100 134 171 203 250 307
#     4   9  18  33  54  79 106 132 160 200 249 304
#     4   9  18  31  46  67  95 128 168 211 250 293
#     4   9  17  30  47  65  89 122 160 204 254 301
#     4  10  19  34  51  69  95 127 167 210 252 297
#
# _framework density 17.970904000000001
#
# number of rings (size 3 to 8) (size 9 to 14) (size 15 to 20)
#    0.000    2.545    0.909    1.364    0.000    3.273 
#    0.000    3.636    0.000    0.545    0.000    3.818 
#    0.000    0.000    0.000   13.636    0.000   14.182 
#
# Total GULP energy -545128.054187 kJ/mol
# GULP energy per Si atom -12389.273959 kJ/mol
# Density = 1.793000 g / cm^3
# Si number density = 17.970904 Si / 1000 Ang^3
#
#
#
# Elastic Constant Matrix: (Units=GPa)
#
#
# Indices 1 2 3 4 5 6 
#
# 1 70.4857 44.2470 30.4572 0.0000 0.0000 0.0000
# 2 44.2470 139.1165 64.9592 0.0000 0.0000 0.0000
# 3 30.4572 64.9592 80.0715 0.0000 0.0000 0.0000
# 4 0.0000 0.0000 0.0000 19.5136 0.0000 0.0000
# 5 0.0000 0.0000 0.0000 0.0000 21.3839 0.0000
# 6 0.0000 0.0000 0.0000 0.0000 0.0000 15.7563
#
#
#
# Elastic Compliance Matrix: (Units=1/GPa)
#
#
# Indices 1 2 3 4 5 6 
#
# 1 0.018354 -0.004150 -0.003615 0.000000 0.000000 0.000000
# 2 -0.004150 0.012510 -0.008570 0.000000 0.000000 0.000000
# 3 -0.003615 -0.008570 0.020817 0.000000 0.000000 0.000000
# 4 0.000000 0.000000 0.000000 0.051246 0.000000 0.000000
# 5 0.000000 0.000000 0.000000 0.000000 0.046764 0.000000
# 6 0.000000 0.000000 0.000000 0.000000 0.000000 0.063466
#
#
# Mechanical properties :
#
#
# Convention : Reuss Voigt Hill
#
# Bulk Modulus (GPa) = 52.60188 63.22230 57.91209
# Shear Modulus (GPa) = 19.82827 21.33146 20.57986
#
# Velocity S-wave (km/s) = 3.32528 3.44902 3.38772
# Velocity P-wave (km/s) = 6.63909 7.14967 6.89910
#
# Compressibility (1/GPa) = 0.01901073
#
# Stress axis : x y z
#
# Youngs Moduli (GPa) = 54.48309 79.93631 48.03819
#
# Poissons Ratio (x) = 0.33171 0.17366
# Poissons Ratio (y) = 0.22609 0.41171
# Poissons Ratio (z) = 0.19696 0.68509
#
# Static dielectric constant tensor:
#      x y z
#    x 3.667180 0.000000 0.000000 
#    y 0.000000 3.653130 0.000000 
#    z 0.000000 0.000000 3.150990 
# 
# 
# High freq. dielectric constant tensor:
#      x y z
#    x 1.694600 0.000000 0.000000 
#    y 0.000000 1.708190 0.000000 
#    z 0.000000 0.000000 1.664010 
# 
# From -- ./inp_files/50319.got.cif
#   From: 2010.03.12/outbox.cif.g09.slc.cpg/sg65_26_cif.got.tgz:50319.got - 2010.04.10 20:52:16.
