data_PCOD8269273
_publ_section_title
;
Structure prediction by ZEFSAII (Michael W. Deem and Ramdas Pophale) SiO2 
 PCOD8269273
Probable space group: C M M M
;
_chemical_formula_sum "Si O2"
_cell_formula_units_Z 88
_cell_length_a 17.884123
_cell_length_b 30.048201
_cell_length_c 9.503401
_cell_angle_alpha 90.000000
_cell_angle_beta 90.000000
_cell_angle_gamma 90.000000
_cell_volume 5106.992014
_symmetry_space_group_name_H-M "C M M M"
_symmetry_group_IT_number 65
_symmetry_cell_setting 'orthorhombic'
loop_
_space_group_symop_operation_xyz
x,y,z
-x,-y,z
x,-y,-z
-x,y,-z
-x,-y,-z
x,y,-z
-x,y,z
x,-y,z
1/2+x,1/2+y,z
1/2-x,1/2-y,z
1/2+x,1/2-y,-z
1/2-x,1/2+y,-z
1/2-x,1/2-y,-z
1/2+x,1/2+y,-z
1/2-x,1/2+y,z
1/2+x,1/2-y,z
loop_
_atom_site_type_symbol
_atom_site_label
_atom_site_fract_x
_atom_site_fract_y
_atom_site_fract_z
Si Si1 0.500000 0.947227 0.345446
Si Si2 0.586316 0.742005 0.658211
Si Si3 0.162196 0.448752 0.332959
Si Si4 0.805950 0.290390 0.840474
Si Si5 0.764954 0.884860 0.161116
Si Si6 0.916058 0.844974 0.838680
O O1 0.500000 0.925534 0.500000
O O2 0.579381 0.933624 0.272735
O O3 0.500000 0.000000 0.361505
O O4 0.617515 0.736570 0.500000
O O5 0.500000 0.754025 0.656422
O O6 0.625135 0.783616 0.734972
O O7 0.602070 0.696547 0.740416
O O8 0.164798 0.441389 0.500000
O O9 0.177023 0.500000 0.295017
O O10 0.227440 0.420861 0.261129
O O11 0.750000 0.250000 0.814685
O O12 0.766181 0.336301 0.802272
O O13 0.835768 0.290772 0.000000
O O14 0.854752 0.883571 0.190097
O O15 0.748350 0.898002 0.000000
O O16 0.000000 0.863644 0.810319
O O17 0.907781 0.828351 0.000000
#
# Coordination Sequence:
#
# PCOD8269273 Si02
#       6
#     8  16  16  16  16  16
#     4   7  12  28  53  75  95 125 165 199 231 287
#     4  10  20  32  47  70  98 129 169 212 249 288
#     4   9  18  34  56  78 100 130 165 201 247 300
#     4  10  19  34  51  69  98 135 170 204 245 296
#     4  10  20  33  51  77 102 127 165 209 251 294
#     4   9  17  32  53  72  95 132 172 206 245 296
#
# _framework density 17.231278
#
# number of rings (size 3 to 8) (size 9 to 14) (size 15 to 20)
#    0.000    2.636    1.818    1.636    0.000    3.273 
#    1.636    0.455    0.000    2.182    0.000    3.818 
#    0.000    0.000    0.000    0.000    0.000    0.000 
#
# Total GULP energy -545295.170443 kJ/mol
# GULP energy per Si atom -12393.072056 kJ/mol
# Density = 1.719206 g / cm^3
# Si number density = 17.231278 Si / 1000 Ang^3
#
#
#
# Elastic Constant Matrix: (Units=GPa)
#
#
# Indices 1 2 3 4 5 6 
#
# 1 122.8047 54.6116 56.9734 0.0000 0.0000 0.0000
# 2 54.6116 73.4327 40.7774 0.0000 0.0000 0.0000
# 3 56.9734 40.7774 78.2012 0.0000 0.0000 0.0000
# 4 0.0000 0.0000 0.0000 27.4184 0.0000 0.0000
# 5 0.0000 0.0000 0.0000 0.0000 27.5640 0.0000
# 6 0.0000 0.0000 0.0000 0.0000 0.0000 26.9234
#
#
#
# Elastic Compliance Matrix: (Units=1/GPa)
#
#
# Indices 1 2 3 4 5 6 
#
# 1 0.014407 -0.006877 -0.006910 0.000000 0.000000 0.000000
# 2 -0.006877 0.022451 -0.006697 0.000000 0.000000 0.000000
# 3 -0.006910 -0.006697 0.021314 0.000000 0.000000 0.000000
# 4 0.000000 0.000000 0.000000 0.036472 0.000000 0.000000
# 5 0.000000 0.000000 0.000000 0.000000 0.036279 0.000000
# 6 0.000000 0.000000 0.000000 0.000000 0.000000 0.037142
#
#
# Mechanical properties :
#
#
# Convention : Reuss Voigt Hill
#
# Bulk Modulus (GPa) = 58.12590 64.35150 61.23870
# Shear Modulus (GPa) = 23.28085 24.51957 23.90021
#
# Velocity S-wave (km/s) = 3.67969 3.77632 3.72832
# Velocity P-wave (km/s) = 7.20136 7.51272 7.35868
#
# Compressibility (1/GPa) = 0.01720404
#
# Stress axis : x y z
#
# Youngs Moduli (GPa) = 69.40922 44.54111 46.91786
#
# Poissons Ratio (x) = 0.30633 0.32422
# Poissons Ratio (y) = 0.47735 0.31419
# Poissons Ratio (z) = 0.47964 0.29827
#
# Static dielectric constant tensor:
#      x y z
#    x 3.556790 0.000000 0.000000 
#    y 0.000000 2.867060 0.000000 
#    z 0.000000 0.000000 3.202890 
# 
# 
# High freq. dielectric constant tensor:
#      x y z
#    x 1.678850 0.000000 0.000000 
#    y 0.000000 1.625770 0.000000 
#    z 0.000000 0.000000 1.656420 
# 
# From -- ./inp_files/10004.got.cif
#   From: 2010.03.12/outbox.cif.g09.slc.cpg/sg65_6_cif.got.tgz:10004.got - 2010.04.10 20:52:16.
