data_PCOD8269941
_publ_section_title
;
Structure prediction by ZEFSAII (Michael W. Deem and Ramdas Pophale) SiO2 
 PCOD8269941
Probable space group: C M M M
;
_chemical_formula_sum "Si O2"
_cell_formula_units_Z 128
_cell_length_a 30.315549
_cell_length_b 23.704557
_cell_length_c 9.772226
_cell_angle_alpha 90.000000
_cell_angle_beta 90.000000
_cell_angle_gamma 90.000000
_cell_volume 7022.484402
_symmetry_space_group_name_H-M "C M M M"
_symmetry_group_IT_number 65
_symmetry_cell_setting 'orthorhombic'
loop_
_space_group_symop_operation_xyz
x,y,z
-x,-y,z
x,-y,-z
-x,y,-z
-x,-y,-z
x,y,-z
-x,y,z
x,-y,z
1/2+x,1/2+y,z
1/2-x,1/2-y,z
1/2+x,1/2-y,-z
1/2-x,1/2+y,-z
1/2-x,1/2-y,-z
1/2+x,1/2+y,-z
1/2-x,1/2+y,z
1/2+x,1/2-y,z
loop_
_atom_site_type_symbol
_atom_site_label
_atom_site_fract_x
_atom_site_fract_y
_atom_site_fract_z
Si Si1 0.710646 0.936323 0.337441
Si Si2 0.373456 0.436606 0.346044
Si Si3 0.343511 0.262872 0.658236
Si Si4 0.368936 0.138904 0.339940
Si Si5 0.421727 0.715230 0.152952
Si Si6 0.291963 0.366071 0.339396
Si Si7 0.451175 0.593821 0.154543
Si Si8 0.450564 0.837997 0.841975
O O1 0.714277 0.937110 0.500000
O O2 0.662721 0.912329 0.295790
O O3 0.747990 0.894163 0.274348
O O4 0.715850 0.000000 0.279045
O O5 0.385273 0.416867 0.500000
O O6 0.354986 0.500000 0.346725
O O7 0.335100 0.397900 0.281451
O O8 0.417289 0.434730 0.256505
O O9 0.355418 0.270930 0.500000
O O10 0.341434 0.196445 0.694416
O O11 0.382005 0.292512 0.742174
O O12 0.298261 0.298452 0.691205
O O13 0.381381 0.136892 0.500000
O O14 0.413954 0.132611 0.253845
O O15 0.452930 0.661511 0.169880
O O16 0.449900 0.771045 0.184747
O O17 0.401735 0.719072 0.000000
O O18 0.288956 0.377010 0.500000
O O19 0.500000 0.571082 0.188955
O O20 0.437797 0.577069 0.000000
O O21 0.500000 0.859434 0.804265
O O22 0.439824 0.852363 0.000000
#
# Coordination Sequence:
#
# PCOD8269941 Si02
#       8
#    16  16  16  16  16  16  16  16
#     4   9  17  30  49  73 100 131 166 200 238 289
#     4  10  20  33  48  65  86 116 158 204 243 281
#     4   9  16  27  45  71 101 124 150 192 243 286
#     4   9  18  30  47  75 106 131 158 199 246 287
#     4   9  16  28  46  68  94 124 158 193 231 283
#     4   9  16  28  48  71  95 124 158 198 242 289
#     4  10  20  32  46  64  87 118 156 197 242 290
#     4   9  17  30  50  74 100 132 166 196 232 286
#
# _framework density 18.227167999999999
#
# number of rings (size 3 to 8) (size 9 to 14) (size 15 to 20)
#    0.000    2.750    1.250    0.750    0.000    4.500 
#    0.000    3.750    0.000    4.500    0.000    6.125 
#    0.000    0.000    0.000    0.000    0.000    0.000 
#
# Total GULP energy -793084.808294 kJ/mol
# GULP energy per Si atom -12391.950130 kJ/mol
# Density = 1.818568 g / cm^3
# Si number density = 18.227168 Si / 1000 Ang^3
#
#
#
# Elastic Constant Matrix: (Units=GPa)
#
#
# Indices 1 2 3 4 5 6 
#
# 1 117.5693 45.9832 42.0239 0.0000 0.0000 0.0000
# 2 45.9832 59.8965 18.8393 0.0000 0.0000 0.0000
# 3 42.0239 18.8393 46.9712 0.0000 0.0000 0.0000
# 4 0.0000 0.0000 0.0000 14.9932 0.0000 0.0000
# 5 0.0000 0.0000 0.0000 0.0000 0.3145 0.0000
# 6 0.0000 0.0000 0.0000 0.0000 0.0000 19.3302
#
#
#
# Elastic Compliance Matrix: (Units=1/GPa)
#
#
# Indices 1 2 3 4 5 6 
#
# 1 0.015683 -0.008728 -0.010531 0.000000 0.000000 0.000000
# 2 -0.008728 0.023963 -0.001802 0.000000 0.000000 0.000000
# 3 -0.010531 -0.001802 0.031434 0.000000 0.000000 0.000000
# 4 0.000000 0.000000 0.000000 0.066697 0.000000 0.000000
# 5 0.000000 0.000000 0.000000 0.000000 3.180035 0.000000
# 6 0.000000 0.000000 0.000000 0.000000 0.000000 0.051733
#
#
# Mechanical properties :
#
#
# Convention : Reuss Voigt Hill
#
# Bulk Modulus (GPa) = 34.53268 48.68109 41.60688
# Shear Modulus (GPa) = 1.46142 14.76695 8.11419
#
# Velocity S-wave (km/s) = 0.89639 2.84942 2.11219
# Velocity P-wave (km/s) = 4.47864 6.13120 5.36888
#
# Compressibility (1/GPa) = 0.02895808
#
# Stress axis : x y z
#
# Youngs Moduli (GPa) = 63.76132 41.73101 31.81238
#
# Poissons Ratio (x) = 0.36423 0.33501
# Poissons Ratio (y) = 0.55651 0.05734
# Poissons Ratio (z) = 0.67147 0.07521
#
# Static dielectric constant tensor:
#      x y z
#    x 3.332130 0.000000 0.000000 
#    y 0.000000 3.373900 0.000000 
#    z 0.000000 0.000000 3.107930 
# 
# 
# High freq. dielectric constant tensor:
#      x y z
#    x 1.696730 0.000000 0.000000 
#    y 0.000000 1.699580 0.000000 
#    z 0.000000 0.000000 1.669820 
# 
# From -- ./inp_files/32986.got.cif
#   From: 2010.03.12/outbox.cif.g09.slc.cpg/sg65_17_cif.got.tgz:32986.got - 2010.04.10 20:52:16.
