data_PCOD8269193
_publ_section_title
;
Structure prediction by ZEFSAII (Michael W. Deem and Ramdas Pophale) SiO2 
 PCOD8269193
Probable space group: C M M M
;
_chemical_formula_sum "Si O2"
_cell_formula_units_Z 72
_cell_length_a 14.639327
_cell_length_b 27.045131
_cell_length_c 9.071464
_cell_angle_alpha 90.000000
_cell_angle_beta 90.000000
_cell_angle_gamma 90.000000
_cell_volume 3591.596855
_symmetry_space_group_name_H-M "C M M M"
_symmetry_group_IT_number 65
_symmetry_cell_setting 'orthorhombic'
loop_
_space_group_symop_operation_xyz
x,y,z
-x,-y,z
x,-y,-z
-x,y,-z
-x,-y,-z
x,y,-z
-x,y,z
x,-y,z
1/2+x,1/2+y,z
1/2-x,1/2-y,z
1/2+x,1/2-y,-z
1/2-x,1/2+y,-z
1/2-x,1/2-y,-z
1/2+x,1/2+y,-z
1/2-x,1/2+y,z
1/2+x,1/2-y,z
loop_
_atom_site_type_symbol
_atom_site_label
_atom_site_fract_x
_atom_site_fract_y
_atom_site_fract_z
Si Si1 0.787250 0.587968 0.672155
Si Si2 0.601229 0.367582 0.328435
Si Si3 0.393926 0.000000 0.824959
Si Si4 0.400048 0.837248 0.834470
Si Si5 0.153209 0.768471 0.831269
O O1 0.800186 0.576217 0.500000
O O2 0.679471 0.592288 0.715522
O O3 0.839473 0.547233 0.766522
O O4 0.831547 0.640659 0.713556
O O5 0.610624 0.356918 0.500000
O O6 0.500000 0.388778 0.288859
O O7 0.613238 0.314858 0.253334
O O8 0.500000 0.000000 0.771121
O O9 0.390252 0.000000 0.000000
O O10 0.500000 0.861693 0.814903
O O11 0.412920 0.778532 0.812777
O O12 0.362598 0.848290 0.000000
O O13 0.250000 0.750000 0.767669
O O14 0.163806 0.785416 0.000000
#
# Coordination Sequence:
#
# PCOD8269193 Si02
#       5
#    16  16   8  16  16
#     4  11  23  39  61  87 115 147 189 238 287 342
#     4  10  22  39  58  83 118 159 199 239 286 338
#     4  11  25  45  68  91 116 146 179 225 290 355
#     4  10  20  34  53  80 116 155 193 235 286 341
#     4  10  19  33  55  82 115 156 201 244 284 331
#
# _framework density 20.046793999999998
#
# number of rings (size 3 to 8) (size 9 to 14) (size 15 to 20)
#    0.000    1.667    2.222    2.333    0.000    7.556 
#    0.000    0.556    0.000    3.333    0.000    0.000 
#    0.000    0.000    0.000    0.000    0.000    0.000 
#
# Total GULP energy -446208.043944 kJ/mol
# GULP energy per Si atom -12394.667887 kJ/mol
# Density = 2.000117 g / cm^3
# Si number density = 20.046794 Si / 1000 Ang^3
#
#
#
# Elastic Constant Matrix: (Units=GPa)
#
#
# Indices 1 2 3 4 5 6 
#
# 1 168.9159 56.6216 53.2379 0.0000 0.0000 0.0000
# 2 56.6216 82.8696 35.8619 0.0000 0.0000 0.0000
# 3 53.2379 35.8619 59.6629 0.0000 0.0000 0.0000
# 4 0.0000 0.0000 0.0000 -1.4688 0.0000 0.0000
# 5 0.0000 0.0000 0.0000 0.0000 24.4624 0.0000
# 6 0.0000 0.0000 0.0000 0.0000 0.0000 28.0418
#
#
#
# Elastic Compliance Matrix: (Units=1/GPa)
#
#
# Indices 1 2 3 4 5 6 
#
# 1 0.008967 -0.003601 -0.005837 0.000000 0.000000 0.000000
# 2 -0.003601 0.017755 -0.007459 0.000000 0.000000 0.000000
# 3 -0.005837 -0.007459 0.026453 0.000000 0.000000 0.000000
# 4 0.000000 0.000000 0.000000 -0.680813 0.000000 0.000000
# 5 0.000000 0.000000 0.000000 0.000000 0.040879 0.000000
# 6 0.000000 0.000000 0.000000 0.000000 0.000000 0.035661
#
#
# Mechanical properties :
#
#
# Convention : Reuss Voigt Hill
#
# Bulk Modulus (GPa) = 51.59677 66.98793 59.29235
# Shear Modulus (GPa) = -9.78773 21.25553 5.73390
#
# Velocity S-wave (km/s) = -2.21202 3.25975 1.69306
# Velocity P-wave (km/s) = 4.38976 6.90335 5.78473
#
# Compressibility (1/GPa) = 0.01938106
#
# Stress axis : x y z
#
# Youngs Moduli (GPa) = 111.52386 56.32077 37.80330
#
# Poissons Ratio (x) = 0.20280 0.22065
# Poissons Ratio (y) = 0.40157 0.28199
# Poissons Ratio (z) = 0.65094 0.42012
#
# Static dielectric constant tensor:
#      x y z
#    x 4.158760 0.000000 0.000000 
#    y 0.000000 3.509980 0.000000 
#    z 0.000000 0.000000 3.528820 
# 
# 
# High freq. dielectric constant tensor:
#      x y z
#    x 1.802540 0.000000 0.000000 
#    y 0.000000 1.762200 0.000000 
#    z 0.000000 0.000000 1.771210 
# 
# From -- ./inp_files/7276.got.cif
#   From: 2010.03.12/outbox.cif.g09.slc.cpg/sg65_4_cif.got.tgz:7276.got - 2010.04.10 20:52:16.
