data_PCOD8269875
_publ_section_title
;
Structure prediction by ZEFSAII (Michael W. Deem and Ramdas Pophale) SiO2 
 PCOD8269875
Probable space group: C M M M
;
_chemical_formula_sum "Si O2"
_cell_formula_units_Z 88
_cell_length_a 14.121505
_cell_length_b 21.653022
_cell_length_c 14.721122
_cell_angle_alpha 90.000000
_cell_angle_beta 90.000000
_cell_angle_gamma 90.000000
_cell_volume 4501.325442
_symmetry_space_group_name_H-M "C M M M"
_symmetry_group_IT_number 65
_symmetry_cell_setting 'orthorhombic'
loop_
_space_group_symop_operation_xyz
x,y,z
-x,-y,z
x,-y,-z
-x,y,-z
-x,-y,-z
x,y,-z
-x,y,z
x,-y,z
1/2+x,1/2+y,z
1/2-x,1/2-y,z
1/2+x,1/2-y,-z
1/2-x,1/2+y,-z
1/2-x,1/2-y,-z
1/2+x,1/2+y,-z
1/2-x,1/2+y,z
1/2+x,1/2-y,z
loop_
_atom_site_type_symbol
_atom_site_label
_atom_site_fract_x
_atom_site_fract_y
_atom_site_fract_z
Si Si1 0.607415 0.359220 0.601207
Si Si2 0.215383 0.389567 0.703055
Si Si3 0.604695 0.768879 0.332715
Si Si4 0.775931 0.351732 0.097796
Si Si5 0.112195 0.500000 0.394606
Si Si6 0.606277 0.266712 0.131433
O O1 0.623519 0.385371 0.500000
O O2 0.500000 0.371753 0.634309
O O3 0.676773 0.396215 0.669101
O O4 0.626496 0.285026 0.595236
O O5 0.181022 0.323111 0.665883
O O6 0.210126 0.395049 0.813273
O O7 0.150160 0.440634 0.657962
O O8 0.500000 0.798059 0.347434
O O9 0.609526 0.730966 0.239420
O O10 0.671623 0.321982 0.096621
O O11 0.855776 0.299151 0.098154
O O12 0.786748 0.387454 0.000000
O O13 0.144990 0.500000 0.500000
O O14 0.000000 0.500000 0.388028
O O15 0.500000 0.275985 0.093945
#
# Coordination Sequence:
#
# PCOD8269875 Si02
#       6
#    16  16  16  16   8  16
#     4  10  20  33  53  83 114 143 180 226 282 351
#     4  11  21  38  58  78 111 151 184 234 286 326
#     4   9  17  30  51  81 115 148 181 221 277 339
#     4  10  20  31  49  81 114 149 191 226 266 329
#     4  11  26  46  66  86 104 135 192 244 280 330
#     4   9  16  29  48  76 118 156 182 217 268 326
#
# _framework density 19.549797000000002
#
# number of rings (size 3 to 8) (size 9 to 14) (size 15 to 20)
#    0.000    2.091    1.818    2.727    0.000    4.364 
#    0.000    2.727    0.000    2.182    0.000    0.000 
#    0.000    2.909    0.000    0.000    0.000    0.000 
#
# Total GULP energy -545302.155324 kJ/mol
# GULP energy per Si atom -12393.230803 kJ/mol
# Density = 1.950530 g / cm^3
# Si number density = 19.549797 Si / 1000 Ang^3
#
#
#
# Elastic Constant Matrix: (Units=GPa)
#
#
# Indices 1 2 3 4 5 6 
#
# 1 115.3395 16.9260 41.0509 0.0000 0.0000 0.0000
# 2 16.9260 36.8057 37.5296 0.0000 0.0000 0.0000
# 3 41.0509 37.5296 143.9552 0.0000 0.0000 0.0000
# 4 0.0000 0.0000 0.0000 10.4470 0.0000 0.0000
# 5 0.0000 0.0000 0.0000 0.0000 9.5555 0.0000
# 6 0.0000 0.0000 0.0000 0.0000 0.0000 22.9979
#
#
#
# Elastic Compliance Matrix: (Units=1/GPa)
#
#
# Indices 1 2 3 4 5 6 
#
# 1 0.009785 -0.002254 -0.002203 0.000000 0.000000 0.000000
# 2 -0.002254 0.037527 -0.009141 0.000000 0.000000 0.000000
# 3 -0.002203 -0.009141 0.009958 0.000000 0.000000 0.000000
# 4 0.000000 0.000000 0.000000 0.095721 0.000000 0.000000
# 5 0.000000 0.000000 0.000000 0.000000 0.104652 0.000000
# 6 0.000000 0.000000 0.000000 0.000000 0.000000 0.043482
#
#
# Mechanical properties :
#
#
# Convention : Reuss Voigt Hill
#
# Bulk Modulus (GPa) = 33.25030 54.12370 43.68700
# Shear Modulus (GPa) = 14.77788 21.97302 18.37545
#
# Velocity S-wave (km/s) = 2.75236 3.35618 3.06915
# Velocity P-wave (km/s) = 5.21014 6.53940 5.91225
#
# Compressibility (1/GPa) = 0.03007492
#
# Stress axis : x y z
#
# Youngs Moduli (GPa) = 102.19971 26.64781 100.42455
#
# Poissons Ratio (x) = 0.06006 0.22121
# Poissons Ratio (y) = 0.23033 0.91794
# Poissons Ratio (z) = 0.22512 0.24358
#
# Static dielectric constant tensor:
#      x y z
#    x 3.796260 0.000000 0.000000 
#    y 0.000000 2.987600 0.000000 
#    z 0.000000 0.000000 3.797250 
# 
# 
# High freq. dielectric constant tensor:
#      x y z
#    x 1.778800 0.000000 0.000000 
#    y 0.000000 1.689600 0.000000 
#    z 0.000000 0.000000 1.774140 
# 
# From -- ./inp_files/40549.got.cif
#   From: 2010.03.12/outbox.cif.g09.slc.cpg/sg65_21_cif.got.tgz:40549.got - 2010.04.10 20:52:16.
