data_PCOD8269179
_publ_section_title
;
Structure prediction by ZEFSAII (Michael W. Deem and Ramdas Pophale) SiO2 
 PCOD8269179
Probable space group: C M M M
;
_chemical_formula_sum "Si O2"
_cell_formula_units_Z 64
_cell_length_a 8.978139
_cell_length_b 14.890643
_cell_length_c 24.240061
_cell_angle_alpha 90.000000
_cell_angle_beta 90.000000
_cell_angle_gamma 90.000000
_cell_volume 3240.660122
_symmetry_space_group_name_H-M "C M M M"
_symmetry_group_IT_number 65
_symmetry_cell_setting 'orthorhombic'
loop_
_space_group_symop_operation_xyz
x,y,z
-x,-y,z
x,-y,-z
-x,y,-z
-x,-y,-z
x,y,-z
-x,y,z
x,-y,z
1/2+x,1/2+y,z
1/2-x,1/2-y,z
1/2+x,1/2-y,-z
1/2-x,1/2+y,-z
1/2-x,1/2-y,-z
1/2+x,1/2+y,-z
1/2-x,1/2+y,z
1/2+x,1/2-y,z
loop_
_atom_site_type_symbol
_atom_site_label
_atom_site_fract_x
_atom_site_fract_y
_atom_site_fract_z
Si Si1 0.331525 0.107045 0.000000
Si Si2 0.324143 0.500000 0.584025
Si Si3 0.824038 0.151529 0.500000
Si Si4 0.330827 0.606592 0.109250
Si Si5 0.823997 0.661067 0.220580
Si Si6 0.674348 0.000000 0.701581
O O1 0.245077 0.143615 0.946390
O O2 0.500000 0.144047 0.000000
O O3 0.331827 0.000000 0.000000
O O4 0.500000 0.500000 0.588077
O O5 0.273886 0.591559 0.552759
O O6 0.256352 0.500000 0.644050
O O7 0.750000 0.250000 0.500000
O O8 0.000000 0.166990 0.500000
O O9 0.500000 0.642151 0.112395
O O10 0.326589 0.500000 0.110414
O O11 0.237793 0.643898 0.159922
O O12 0.750000 0.750000 0.245256
O O13 0.774818 0.584896 0.262975
O O14 0.000000 0.670038 0.216386
O O15 0.500000 0.000000 0.689947
#
# Coordination Sequence:
#
# PCOD8269179 Si02
#       6
#     8   8   8  16  16   8
#     4   9  17  29  50  79 110 146 185 230 289 353
#     4   9  20  38  60  86 121 159 199 238 285 341
#     4   9  19  37  60  90 124 161 197 239 286 336
#     4  10  19  33  55  82 111 145 188 237 290 352
#     4  11  23  40  59  83 114 151 194 242 294 351
#     4  10  23  41  61  85 119 156 197 244 290 340
#
# _framework density 19.749063
#
# number of rings (size 3 to 8) (size 9 to 14) (size 15 to 20)
#    0.000    2.125    1.250    2.625    0.000    6.500 
#    0.000    6.875    0.000    0.000    0.000    0.000 
#    0.000    0.000    0.000    0.000    0.000    0.000 
#
# Total GULP energy -396805.001933 kJ/mol
# GULP energy per Si atom -12400.156310 kJ/mol
# Density = 1.970411 g / cm^3
# Si number density = 19.749063 Si / 1000 Ang^3
#
#
#
# Elastic Constant Matrix: (Units=GPa)
#
#
# Indices 1 2 3 4 5 6 
#
# 1 101.4523 61.8037 66.9215 0.0000 0.0000 0.0000
# 2 61.8037 131.7257 81.5459 0.0000 0.0000 0.0000
# 3 66.9215 81.5459 172.4103 0.0000 0.0000 0.0000
# 4 0.0000 0.0000 0.0000 75.4059 0.0000 0.0000
# 5 0.0000 0.0000 0.0000 0.0000 40.0092 0.0000
# 6 0.0000 0.0000 0.0000 0.0000 0.0000 32.4436
#
#
#
# Elastic Compliance Matrix: (Units=1/GPa)
#
#
# Indices 1 2 3 4 5 6 
#
# 1 0.015217 -0.004925 -0.003577 0.000000 0.000000 0.000000
# 2 -0.004925 0.012329 -0.003919 0.000000 0.000000 0.000000
# 3 -0.003577 -0.003919 0.009042 0.000000 0.000000 0.000000
# 4 0.000000 0.000000 0.000000 0.013262 0.000000 0.000000
# 5 0.000000 0.000000 0.000000 0.000000 0.024994 0.000000
# 6 0.000000 0.000000 0.000000 0.000000 0.000000 0.030823
#
#
# Mechanical properties :
#
#
# Convention : Reuss Voigt Hill
#
# Bulk Modulus (GPa) = 85.14509 91.79226 88.46868
# Shear Modulus (GPa) = 37.19571 42.59289 39.89430
#
# Velocity S-wave (km/s) = 4.34454 4.64907 4.49938
# Velocity P-wave (km/s) = 8.26885 8.68324 8.47858
#
# Compressibility (1/GPa) = 0.01174466
#
# Stress axis : x y z
#
# Youngs Moduli (GPa) = 65.71756 81.11152 110.59099
#
# Poissons Ratio (x) = 0.39948 0.39558
# Poissons Ratio (y) = 0.32367 0.43346
# Poissons Ratio (z) = 0.23507 0.31792
#
# Static dielectric constant tensor:
#      x y z
#    x 3.639110 0.000000 0.000000 
#    y 0.000000 3.693860 0.000000 
#    z 0.000000 0.000000 5.723930 
# 
# 
# High freq. dielectric constant tensor:
#      x y z
#    x 1.774810 0.000000 0.000000 
#    y 0.000000 1.772510 0.000000 
#    z 0.000000 0.000000 1.769550 
# 
# From -- ./inp_files/66880.got.cif
#   From: 2010.03.12/outbox.cif.g09.slc.cpg/sg65_34_cif.got.tgz:66880.got - 2010.04.10 20:52:16.
