data_PCOD8269071
_publ_section_title
;
Structure prediction by ZEFSAII (Michael W. Deem and Ramdas Pophale) SiO2 
 PCOD8269071
Probable space group: C M M M
;
_chemical_formula_sum "Si O2"
_cell_formula_units_Z 88
_cell_length_a 8.843822
_cell_length_b 23.377489
_cell_length_c 22.647149
_cell_angle_alpha 90.000000
_cell_angle_beta 90.000000
_cell_angle_gamma 90.000000
_cell_volume 4682.215428
_symmetry_space_group_name_H-M "C M M M"
_symmetry_group_IT_number 65
_symmetry_cell_setting 'orthorhombic'
loop_
_space_group_symop_operation_xyz
x,y,z
-x,-y,z
x,-y,-z
-x,y,-z
-x,-y,-z
x,y,-z
-x,y,z
x,-y,z
1/2+x,1/2+y,z
1/2-x,1/2-y,z
1/2+x,1/2-y,-z
1/2-x,1/2+y,-z
1/2-x,1/2-y,-z
1/2+x,1/2+y,-z
1/2-x,1/2+y,z
1/2+x,1/2-y,z
loop_
_atom_site_type_symbol
_atom_site_label
_atom_site_fract_x
_atom_site_fract_y
_atom_site_fract_z
Si Si1 0.679365 0.500000 0.760514
Si Si2 0.822660 0.888366 0.824988
Si Si3 0.321643 0.064686 0.066295
Si Si4 0.821142 0.188234 0.281509
Si Si5 0.680186 0.500000 0.373248
Si Si6 0.677057 0.811031 0.500000
Si Si7 0.320320 0.117852 0.613392
O O1 0.500000 0.500000 0.761605
O O2 0.744263 0.556156 0.791978
O O3 0.736336 0.500000 0.693995
O O4 0.747348 0.887636 0.889681
O O5 0.782997 0.832907 0.785207
O O6 0.000000 0.893495 0.834081
O O7 0.500000 0.067126 0.071330
O O8 0.264927 0.000000 0.081374
O O9 0.269902 0.080762 0.000000
O O10 0.750000 0.250000 0.291878
O O11 0.752993 0.143016 0.327265
O O12 0.000000 0.191163 0.291827
O O13 0.500000 0.500000 0.380769
O O14 0.751904 0.443919 0.402577
O O15 0.500000 0.803241 0.500000
O O16 0.750000 0.750000 0.500000
O O17 0.729976 0.843353 0.558674
O O18 0.500000 0.114305 0.621030
#
# Coordination Sequence:
#
# PCOD8269071 Si02
#       7
#     8  16  16  16   8   8  16
#     4   9  16  31  51  77 111 143 174 218 275 326
#     4  10  19  33  54  78 108 144 180 223 275 328
#     4   9  18  31  47  74 112 146 177 219 270 325
#     4  11  23  39  58  83 113 146 186 237 285 333
#     4  11  21  38  60  86 121 154 184 228 282 341
#     4  10  24  43  62  83 113 150 194 242 283 330
#     4  11  23  40  61  87 116 150 189 233 284 340
#
# _framework density 18.794521
#
# number of rings (size 3 to 8) (size 9 to 14) (size 15 to 20)
#    0.000    1.818    2.727    2.455    0.000    5.091 
#    0.000    2.727    0.000    0.545    0.000    0.000 
#    0.000    0.000    0.000    0.000    0.000    0.000 
#
# Total GULP energy -545575.427055 kJ/mol
# GULP energy per Si atom -12399.441524 kJ/mol
# Density = 1.875174 g / cm^3
# Si number density = 18.794521 Si / 1000 Ang^3
#
#
#
# Elastic Constant Matrix: (Units=GPa)
#
#
# Indices 1 2 3 4 5 6 
#
# 1 67.7440 43.4417 44.9997 0.0000 0.0000 0.0000
# 2 43.4417 124.1799 46.6678 0.0000 0.0000 0.0000
# 3 44.9997 46.6678 119.9519 0.0000 0.0000 0.0000
# 4 0.0000 0.0000 0.0000 27.3286 0.0000 0.0000
# 5 0.0000 0.0000 0.0000 0.0000 27.5681 0.0000
# 6 0.0000 0.0000 0.0000 0.0000 0.0000 30.8408
#
#
#
# Elastic Compliance Matrix: (Units=1/GPa)
#
#
# Indices 1 2 3 4 5 6 
#
# 1 0.022462 -0.005495 -0.006289 0.000000 0.000000 0.000000
# 2 -0.005495 0.010776 -0.002131 0.000000 0.000000 0.000000
# 3 -0.006289 -0.002131 0.011525 0.000000 0.000000 0.000000
# 4 0.000000 0.000000 0.000000 0.036592 0.000000 0.000000
# 5 0.000000 0.000000 0.000000 0.000000 0.036274 0.000000
# 6 0.000000 0.000000 0.000000 0.000000 0.000000 0.032425
#
#
# Mechanical properties :
#
#
# Convention : Reuss Voigt Hill
#
# Bulk Modulus (GPa) = 59.05280 64.67713 61.86496
# Shear Modulus (GPa) = 27.24383 28.93193 28.08788
#
# Velocity S-wave (km/s) = 3.81144 3.92775 3.87003
# Velocity P-wave (km/s) = 7.13147 7.42005 7.27719
#
# Compressibility (1/GPa) = 0.01693400
#
# Stress axis : x y z
#
# Youngs Moduli (GPa) = 44.51868 92.79985 86.76688
#
# Poissons Ratio (x) = 0.50989 0.54568
# Poissons Ratio (y) = 0.24461 0.18491
# Poissons Ratio (z) = 0.27998 0.19777
#
# Static dielectric constant tensor:
#      x y z
#    x 3.287920 0.000000 0.000000 
#    y 0.000000 3.415440 0.000000 
#    z 0.000000 0.000000 3.629010 
# 
# 
# High freq. dielectric constant tensor:
#      x y z
#    x 1.723940 0.000000 0.000000 
#    y 0.000000 1.717980 0.000000 
#    z 0.000000 0.000000 1.735710 
# 
# From -- ./inp_files/67662.got.cif
#   From: 2010.03.12/outbox.cif.g09.slc.cpg/sg65_34_cif.got.tgz:67662.got - 2010.04.10 20:52:16.
