data_PCOD8269691
_publ_section_title
;
Structure prediction by ZEFSAII (Michael W. Deem and Ramdas Pophale) SiO2 
 PCOD8269691
Probable space group: C M M M
;
_chemical_formula_sum "Si O2"
_cell_formula_units_Z 104
_cell_length_a 29.575808
_cell_length_b 20.762680
_cell_length_c 9.048650
_cell_angle_alpha 90.000000
_cell_angle_beta 90.000000
_cell_angle_gamma 90.000000
_cell_volume 5556.531988
_symmetry_space_group_name_H-M "C M M M"
_symmetry_group_IT_number 65
_symmetry_cell_setting 'orthorhombic'
loop_
_space_group_symop_operation_xyz
x,y,z
-x,-y,z
x,-y,-z
-x,y,-z
-x,-y,-z
x,y,-z
-x,y,z
x,-y,z
1/2+x,1/2+y,z
1/2-x,1/2-y,z
1/2+x,1/2-y,-z
1/2-x,1/2+y,-z
1/2-x,1/2-y,-z
1/2+x,1/2+y,-z
1/2-x,1/2+y,z
1/2+x,1/2-y,z
loop_
_atom_site_type_symbol
_atom_site_label
_atom_site_fract_x
_atom_site_fract_y
_atom_site_fract_z
Si Si1 0.714475 0.071470 0.825363
Si Si2 0.051546 0.574614 0.333815
Si Si3 0.448467 0.627775 0.672856
Si Si4 0.373849 0.145527 0.172636
Si Si5 0.053610 0.000000 0.834783
Si Si6 0.632572 0.719165 0.674183
Si Si7 0.222447 0.186065 0.175269
O O1 0.664596 0.094900 0.779981
O O2 0.750836 0.123079 0.767139
O O3 0.722996 0.000000 0.757283
O O4 0.718057 0.067744 0.000000
O O5 0.069529 0.588359 0.500000
O O6 0.056270 0.500000 0.295009
O O7 0.078268 0.614899 0.212487
O O8 0.000000 0.597063 0.322326
O O9 0.447046 0.613362 0.500000
O O10 0.500000 0.645209 0.722164
O O11 0.429543 0.563993 0.752430
O O12 0.415152 0.685953 0.716580
O O13 0.366992 0.209485 0.264543
O O14 0.371416 0.162539 0.000000
O O15 0.000000 0.000000 0.835922
O O16 0.073655 0.000000 0.000000
O O17 0.639648 0.720415 0.500000
O O18 0.674020 0.681110 0.747168
O O19 0.250000 0.250000 0.223383
O O20 0.215576 0.186094 0.000000
#
# Coordination Sequence:
#
# PCOD8269691 Si02
#       7
#    16  16  16  16   8  16  16
#     4   9  18  34  57  82 108 141 182 226 277 339
#     4   9  19  36  55  77 111 152 189 228 278 334
#     4   9  19  37  58  78 107 149 188 222 271 337
#     4  11  21  35  56  82 111 144 189 238 281 329
#     4   9  17  31  55  85 111 137 177 229 277 323
#     4  11  23  37  56  83 112 146 189 232 278 334
#     4  10  19  37  60  81 110 148 185 227 281 339
#
# _framework density 18.716709999999999
#
# number of rings (size 3 to 8) (size 9 to 14) (size 15 to 20)
#    0.000    2.231    1.538    2.077    0.000    4.308 
#    1.385    2.308    0.000    1.846    0.000    0.000 
#    0.000    0.000    0.000    0.000    0.000    0.000 
#
# Total GULP energy -644789.467121 kJ/mol
# GULP energy per Si atom -12399.797445 kJ/mol
# Density = 1.867411 g / cm^3
# Si number density = 18.716710 Si / 1000 Ang^3
#
#
#
# Elastic Constant Matrix: (Units=GPa)
#
#
# Indices 1 2 3 4 5 6 
#
# 1 108.2135 58.6028 35.9597 0.0000 0.0000 0.0000
# 2 58.6028 133.1497 30.1948 0.0000 0.0000 0.0000
# 3 35.9597 30.1948 43.0172 0.0000 0.0000 0.0000
# 4 0.0000 0.0000 0.0000 26.8201 0.0000 0.0000
# 5 0.0000 0.0000 0.0000 0.0000 31.6074 0.0000
# 6 0.0000 0.0000 0.0000 0.0000 0.0000 32.2243
#
#
#
# Elastic Compliance Matrix: (Units=1/GPa)
#
#
# Indices 1 2 3 4 5 6 
#
# 1 0.014660 -0.004369 -0.009189 0.000000 0.000000 0.000000
# 2 -0.004369 0.010234 -0.003532 0.000000 0.000000 0.000000
# 3 -0.009189 -0.003532 0.033406 0.000000 0.000000 0.000000
# 4 0.000000 0.000000 0.000000 0.037285 0.000000 0.000000
# 5 0.000000 0.000000 0.000000 0.000000 0.031638 0.000000
# 6 0.000000 0.000000 0.000000 0.000000 0.000000 0.031032
#
#
# Mechanical properties :
#
#
# Convention : Reuss Voigt Hill
#
# Bulk Modulus (GPa) = 41.45403 59.32166 50.38785
# Shear Modulus (GPa) = 24.94076 28.77192 26.85634
#
# Velocity S-wave (km/s) = 3.65436 3.92501 3.79210
# Velocity P-wave (km/s) = 6.32471 7.23217 6.79361
#
# Compressibility (1/GPa) = 0.02412311
#
# Stress axis : x y z
#
# Youngs Moduli (GPa) = 68.21186 97.71385 29.93439
#
# Poissons Ratio (x) = 0.42688 0.27505
# Poissons Ratio (y) = 0.29799 0.10571
# Poissons Ratio (z) = 0.62677 0.34508
#
# Static dielectric constant tensor:
#      x y z
#    x 3.542910 0.000000 0.000000 
#    y 0.000000 3.623870 0.000000 
#    z 0.000000 0.000000 3.308370 
# 
# 
# High freq. dielectric constant tensor:
#      x y z
#    x 1.724950 0.000000 0.000000 
#    y 0.000000 1.731010 0.000000 
#    z 0.000000 0.000000 1.711180 
# 
# From -- ./inp_files/12801.got.cif
#   From: 2010.03.12/outbox.cif.g09.slc.cpg/sg65_7_cif.got.tgz:12801.got - 2010.04.10 20:52:16.
