data_PCOD8269346
_publ_section_title
;
Structure prediction by ZEFSAII (Michael W. Deem and Ramdas Pophale) SiO2 
 PCOD8269346
Probable space group: C M M M
;
_chemical_formula_sum "Si O2"
_cell_formula_units_Z 80
_cell_length_a 18.495555
_cell_length_b 19.175315
_cell_length_c 12.581341
_cell_angle_alpha 90.000000
_cell_angle_beta 90.000000
_cell_angle_gamma 90.000000
_cell_volume 4462.074409
_symmetry_space_group_name_H-M "C M M M"
_symmetry_group_IT_number 65
_symmetry_cell_setting 'orthorhombic'
loop_
_space_group_symop_operation_xyz
x,y,z
-x,-y,z
x,-y,-z
-x,y,-z
-x,-y,-z
x,y,-z
-x,y,z
x,-y,z
1/2+x,1/2+y,z
1/2-x,1/2-y,z
1/2+x,1/2-y,-z
1/2-x,1/2+y,-z
1/2-x,1/2-y,-z
1/2+x,1/2+y,-z
1/2-x,1/2+y,z
1/2+x,1/2-y,z
loop_
_atom_site_type_symbol
_atom_site_label
_atom_site_fract_x
_atom_site_fract_y
_atom_site_fract_z
Si Si1 0.234081 0.921987 0.192175
Si Si2 0.169594 0.780538 0.805441
Si Si3 0.339681 0.077393 0.620574
Si Si4 0.082335 0.715650 0.622881
Si Si5 0.916197 0.282761 0.000000
Si Si6 0.157523 0.577769 0.000000
O O1 0.171441 0.864431 0.179490
O O2 0.270273 0.909560 0.306438
O O3 0.200716 0.000000 0.182667
O O4 0.294355 0.909987 0.103454
O O5 0.250000 0.750000 0.813772
O O6 0.135493 0.763740 0.691138
O O7 0.119840 0.749035 0.896063
O O8 0.311814 0.084347 0.500000
O O9 0.401565 0.133961 0.644586
O O10 0.372275 0.000000 0.642251
O O11 0.095302 0.734803 0.500000
O O12 0.000000 0.729607 0.656866
O O13 0.906963 0.366448 0.000000
O O14 0.000000 0.263855 0.000000
O O15 0.123909 0.500000 0.000000
#
# Coordination Sequence:
#
# PCOD8269346 Si02
#       6
#    16  16  16  16   8   8
#     4  10  20  34  54  80 107 136 175 225 271 311
#     4  12  21  36  59  81 106 143 184 225 266 314
#     4   9  17  30  49  76 110 144 176 210 258 322
#     4  10  21  35  52  79 113 146 180 220 268 320
#     4  12  24  37  56  83 114 145 177 218 269 321
#     4  10  19  34  54  79 112 144 173 205 257 326
#
# _framework density 17.928879999999999
#
# number of rings (size 3 to 8) (size 9 to 14) (size 15 to 20)
#    0.000    1.600    4.000    1.500    0.000    1.800 
#    0.000    2.000    0.000    9.000    0.000    1.400 
#    0.000    0.000    0.000    0.000    0.000    0.000 
#
# Total GULP energy -495997.994510 kJ/mol
# GULP energy per Si atom -12399.949863 kJ/mol
# Density = 1.788807 g / cm^3
# Si number density = 17.928880 Si / 1000 Ang^3
#
#
#
# Elastic Constant Matrix: (Units=GPa)
#
#
# Indices 1 2 3 4 5 6 
#
# 1 101.7500 58.7034 44.3546 0.0000 0.0000 0.0000
# 2 58.7034 129.1208 39.6738 0.0000 0.0000 0.0000
# 3 44.3546 39.6738 90.5962 0.0000 0.0000 0.0000
# 4 0.0000 0.0000 0.0000 57.1932 0.0000 0.0000
# 5 0.0000 0.0000 0.0000 0.0000 38.0107 0.0000
# 6 0.0000 0.0000 0.0000 0.0000 0.0000 22.7170
#
#
#
# Elastic Compliance Matrix: (Units=1/GPa)
#
#
# Indices 1 2 3 4 5 6 
#
# 1 0.015099 -0.005308 -0.005068 0.000000 0.000000 0.000000
# 2 -0.005308 0.010814 -0.002137 0.000000 0.000000 0.000000
# 3 -0.005068 -0.002137 0.014455 0.000000 0.000000 0.000000
# 4 0.000000 0.000000 0.000000 0.017485 0.000000 0.000000
# 5 0.000000 0.000000 0.000000 0.000000 0.026308 0.000000
# 6 0.000000 0.000000 0.000000 0.000000 0.000000 0.044020
#
#
# Mechanical properties :
#
#
# Convention : Reuss Voigt Hill
#
# Bulk Modulus (GPa) = 65.17635 67.43674 66.30654
# Shear Modulus (GPa) = 31.58109 35.49985 33.54047
#
# Velocity S-wave (km/s) = 4.20153 4.45459 4.32991
# Velocity P-wave (km/s) = 7.74395 8.00955 7.87787
#
# Compressibility (1/GPa) = 0.01534299
#
# Stress axis : x y z
#
# Youngs Moduli (GPa) = 66.22755 92.46909 69.17879
#
# Poissons Ratio (x) = 0.49078 0.35061
# Poissons Ratio (y) = 0.35151 0.14786
# Poissons Ratio (z) = 0.33566 0.19764
#
# Static dielectric constant tensor:
#      x y z
#    x 2.971420 0.000000 0.000000 
#    y 0.000000 3.636730 0.000000 
#    z 0.000000 0.000000 3.557330 
# 
# 
# High freq. dielectric constant tensor:
#      x y z
#    x 1.651110 0.000000 0.000000 
#    y 0.000000 1.701140 0.000000 
#    z 0.000000 0.000000 1.716490 
# 
# From -- ./inp_files/26694.got.cif
#   From: 2010.03.12/outbox.cif.g09.slc.cpg/sg65_14_cif.got.tgz:26694.got - 2010.04.10 20:52:16.
