data_PCOD8269472
_publ_section_title
;
Structure prediction by ZEFSAII (Michael W. Deem and Ramdas Pophale) SiO2 
 PCOD8269472
Probable space group: C M M M
;
_chemical_formula_sum "Si O2"
_cell_formula_units_Z 80
_cell_length_a 18.948336
_cell_length_b 8.847445
_cell_length_c 25.566028
_cell_angle_alpha 90.000000
_cell_angle_beta 90.000000
_cell_angle_gamma 90.000000
_cell_volume 4286.000417
_symmetry_space_group_name_H-M "C M M M"
_symmetry_group_IT_number 65
_symmetry_cell_setting 'orthorhombic'
loop_
_space_group_symop_operation_xyz
x,y,z
-x,-y,z
x,-y,-z
-x,y,-z
-x,-y,-z
x,y,-z
-x,y,z
x,-y,z
1/2+x,1/2+y,z
1/2-x,1/2-y,z
1/2+x,1/2-y,-z
1/2-x,1/2+y,-z
1/2-x,1/2-y,-z
1/2+x,1/2+y,-z
1/2-x,1/2+y,z
1/2+x,1/2-y,z
loop_
_atom_site_type_symbol
_atom_site_label
_atom_site_fract_x
_atom_site_fract_y
_atom_site_fract_z
Si Si1 0.082452 0.822861 0.203941
Si Si2 0.175834 0.321393 0.289786
Si Si3 0.578107 0.820059 0.500000
Si Si4 0.176173 0.673473 0.000000
Si Si5 0.322701 0.177523 0.408831
Si Si6 0.327550 0.821363 0.886466
O O1 0.112845 0.745766 0.255808
O O2 0.118652 0.753425 0.153182
O O3 0.000000 0.786116 0.201250
O O4 0.097788 0.000000 0.206091
O O5 0.180500 0.500000 0.281748
O O6 0.250000 0.250000 0.271561
O O7 0.158586 0.275963 0.349538
O O8 0.500000 0.749974 0.500000
O O9 0.616806 0.761871 0.447589
O O10 0.575038 0.000000 0.500000
O O11 0.250000 0.750000 0.000000
O O12 0.138762 0.713669 0.055399
O O13 0.194555 0.500000 0.000000
O O14 0.250000 0.250000 0.427364
O O15 0.313554 0.000000 0.413839
O O16 0.250000 0.750000 0.879967
O O17 0.321988 0.000000 0.875515
#
# Coordination Sequence:
#
# PCOD8269472 Si02
#       6
#    16  16   8   8  16  16
#     4  11  24  39  53  73 104 140 176 215 261 310
#     4  10  20  35  56  80 104 133 173 217 261 310
#     4   9  17  30  49  75 106 137 170 208 250 297
#     4   8  16  30  51  80 107 133 167 209 255 300
#     4   9  18  32  53  78 102 132 168 209 254 301
#     4  10  19  34  57  82 108 137 172 213 256 305
#
# _framework density 18.665420000000001
#
# number of rings (size 3 to 8) (size 9 to 14) (size 15 to 20)
#    0.000    2.300    0.000    2.700    0.000    4.000 
#    0.000    2.500    0.000    4.200    0.000    0.000 
#    0.000    0.000    0.000    0.000    0.000    0.000 
#
# Total GULP energy -495832.022061 kJ/mol
# GULP energy per Si atom -12395.800552 kJ/mol
# Density = 1.862294 g / cm^3
# Si number density = 18.665420 Si / 1000 Ang^3
#
#
#
# Elastic Constant Matrix: (Units=GPa)
#
#
# Indices 1 2 3 4 5 6 
#
# 1 135.0937 52.9150 90.1986 0.0000 0.0000 0.0000
# 2 52.9150 70.9360 48.0388 0.0000 0.0000 0.0000
# 3 90.1986 48.0388 150.0945 0.0000 0.0000 0.0000
# 4 0.0000 0.0000 0.0000 17.4811 0.0000 0.0000
# 5 0.0000 0.0000 0.0000 0.0000 9.0001 0.0000
# 6 0.0000 0.0000 0.0000 0.0000 0.0000 27.7092
#
#
#
# Elastic Compliance Matrix: (Units=1/GPa)
#
#
# Indices 1 2 3 4 5 6 
#
# 1 0.014188 -0.006140 -0.006561 0.000000 0.000000 0.000000
# 2 -0.006140 0.020656 -0.002921 0.000000 0.000000 0.000000
# 3 -0.006561 -0.002921 0.011540 0.000000 0.000000 0.000000
# 4 0.000000 0.000000 0.000000 0.057205 0.000000 0.000000
# 5 0.000000 0.000000 0.000000 0.000000 0.111110 0.000000
# 6 0.000000 0.000000 0.000000 0.000000 0.000000 0.036089
#
#
# Mechanical properties :
#
#
# Convention : Reuss Voigt Hill
#
# Bulk Modulus (GPa) = 66.05350 82.04768 74.05059
# Shear Modulus (GPa) = 17.41681 21.83619 19.62650
#
# Velocity S-wave (km/s) = 3.05799 3.42405 3.24619
# Velocity P-wave (km/s) = 6.92340 7.72558 7.33546
#
# Compressibility (1/GPa) = 0.01513924
#
# Stress axis : x y z
#
# Youngs Moduli (GPa) = 70.48227 48.41256 86.65439
#
# Poissons Ratio (x) = 0.29727 0.56853
# Poissons Ratio (y) = 0.43279 0.25312
# Poissons Ratio (z) = 0.46243 0.14141
#
# Static dielectric constant tensor:
#      x y z
#    x 3.349090 0.000000 0.000000 
#    y 0.000000 3.430330 0.000000 
#    z 0.000000 0.000000 3.743860 
# 
# 
# High freq. dielectric constant tensor:
#      x y z
#    x 1.703670 0.000000 0.000000 
#    y 0.000000 1.724180 0.000000 
#    z 0.000000 0.000000 1.748130 
# 
# From -- ./inp_files/75041.got.cif
#   From: 2010.03.12/outbox.cif.g09.slc.cpg/sg65_38_cif.got.tgz:75041.got - 2010.04.10 20:52:16.
