data_PCOD8269397
_publ_section_title
;
Structure prediction by ZEFSAII (Michael W. Deem and Ramdas Pophale) SiO2 
 PCOD8269397
Probable space group: C M M M
;
_chemical_formula_sum "Si O2"
_cell_formula_units_Z 120
_cell_length_a 9.125273
_cell_length_b 26.034892
_cell_length_c 27.449284
_cell_angle_alpha 90.000000
_cell_angle_beta 90.000000
_cell_angle_gamma 90.000000
_cell_volume 6521.277289
_symmetry_space_group_name_H-M "C M M M"
_symmetry_group_IT_number 65
_symmetry_cell_setting 'orthorhombic'
loop_
_space_group_symop_operation_xyz
x,y,z
-x,-y,z
x,-y,-z
-x,y,-z
-x,-y,-z
x,y,-z
-x,y,z
x,-y,z
1/2+x,1/2+y,z
1/2-x,1/2-y,z
1/2+x,1/2-y,-z
1/2-x,1/2+y,-z
1/2-x,1/2-y,-z
1/2+x,1/2+y,-z
1/2-x,1/2+y,z
1/2+x,1/2-y,z
loop_
_atom_site_type_symbol
_atom_site_label
_atom_site_fract_x
_atom_site_fract_y
_atom_site_fract_z
Si Si1 0.829327 0.897428 0.606272
Si Si2 0.828482 0.841832 0.055089
Si Si3 0.166581 0.056085 0.894308
Si Si4 0.672189 0.803125 0.443521
Si Si5 0.170823 0.404797 0.805067
Si Si6 0.326210 0.500000 0.444865
Si Si7 0.671322 0.200791 0.145403
Si Si8 0.832081 0.940984 0.710730
O O1 0.737442 0.848394 0.589371
O O2 0.806717 0.905758 0.663598
O O3 0.000000 0.888631 0.593157
O O4 0.765732 0.948288 0.579952
O O5 0.789394 0.901426 0.065931
O O6 0.735607 0.806605 0.091184
O O7 0.000000 0.830893 0.062975
O O8 0.780374 0.829556 0.000000
O O9 0.262973 0.058041 0.845701
O O10 0.000000 0.064636 0.877368
O O11 0.188701 0.000000 0.918436
O O12 0.703610 0.815962 0.500000
O O13 0.500000 0.797717 0.433119
O O14 0.750000 0.750000 0.428584
O O15 0.208885 0.346348 0.819320
O O16 0.233567 0.416984 0.752496
O O17 0.000000 0.415015 0.803624
O O18 0.500000 0.500000 0.439315
O O19 0.271794 0.500000 0.500000
O O20 0.500000 0.210565 0.140595
O O21 0.750000 0.250000 0.169210
O O22 0.000000 0.938608 0.727577
O O23 0.787617 0.000000 0.699574
#
# Coordination Sequence:
#
# PCOD8269397 Si02
#       8
#    16  16  16  16  16   8  16  16
#     4  10  19  34  55  82 113 146 185 227 271 322
#     4   9  18  32  50  74 104 136 169 205 250 306
#     4   9  17  30  49  73 101 134 172 212 253 300
#     4  10  21  37  57  81 109 144 187 232 276 323
#     4  10  21  35  52  76 102 132 172 217 263 312
#     4   9  16  28  51  81 111 145 183 221 264 319
#     4  10  21  37  56  76  99 128 167 215 262 312
#     4  10  20  35  55  80 111 144 178 215 257 312
#
# _framework density 18.401304
#
# number of rings (size 3 to 8) (size 9 to 14) (size 15 to 20)
#    0.000    2.333    0.667    2.000    0.000    6.400 
#    0.000    2.333    0.000    2.800    0.000    3.733 
#    0.000    0.000    0.000    0.000    0.000    0.000 
#
# Total GULP energy -744034.584098 kJ/mol
# GULP energy per Si atom -12400.576402 kJ/mol
# Density = 1.835942 g / cm^3
# Si number density = 18.401304 Si / 1000 Ang^3
#
#
#
# Elastic Constant Matrix: (Units=GPa)
#
#
# Indices 1 2 3 4 5 6 
#
# 1 74.9397 48.6829 33.5936 0.0000 0.0000 0.0000
# 2 48.6829 113.7971 27.8794 0.0000 0.0000 0.0000
# 3 33.5936 27.8794 64.0836 0.0000 0.0000 0.0000
# 4 0.0000 0.0000 0.0000 16.5761 0.0000 0.0000
# 5 0.0000 0.0000 0.0000 0.0000 21.7959 0.0000
# 6 0.0000 0.0000 0.0000 0.0000 0.0000 30.5825
#
#
#
# Elastic Compliance Matrix: (Units=1/GPa)
#
#
# Indices 1 2 3 4 5 6 
#
# 1 0.021780 -0.007298 -0.008242 0.000000 0.000000 0.000000
# 2 -0.007298 0.012282 -0.001517 0.000000 0.000000 0.000000
# 3 -0.008242 -0.001517 0.020585 0.000000 0.000000 0.000000
# 4 0.000000 0.000000 0.000000 0.060328 0.000000 0.000000
# 5 0.000000 0.000000 0.000000 0.000000 0.045880 0.000000
# 6 0.000000 0.000000 0.000000 0.000000 0.000000 0.032698
#
#
# Mechanical properties :
#
#
# Convention : Reuss Voigt Hill
#
# Bulk Modulus (GPa) = 48.70588 52.57024 50.63806
# Shear Modulus (GPa) = 21.32078 23.30186 22.31132
#
# Velocity S-wave (km/s) = 3.40760 3.56239 3.48585
# Velocity P-wave (km/s) = 6.48139 6.74920 6.61665
#
# Compressibility (1/GPa) = 0.02053140
#
# Stress axis : x y z
#
# Youngs Moduli (GPa) = 45.91350 81.42318 48.57809
#
# Poissons Ratio (x) = 0.59425 0.40040
# Poissons Ratio (y) = 0.33509 0.07370
# Poissons Ratio (z) = 0.37843 0.12353
#
# Static dielectric constant tensor:
#      x y z
#    x 3.302410 0.000000 0.000000 
#    y 0.000000 3.515950 0.000000 
#    z 0.000000 0.000000 3.253210 
# 
# 
# High freq. dielectric constant tensor:
#      x y z
#    x 1.705850 0.000000 0.000000 
#    y 0.000000 1.722940 0.000000 
#    z 0.000000 0.000000 1.701500 
# 
# From -- ./inp_files/74015.got.cif
#   From: 2010.03.12/outbox.cif.g09.slc.cpg/sg65_38_cif.got.tgz:74015.got - 2010.04.10 20:52:16.
