data_PCOD8269356
_publ_section_title
;
Structure prediction by ZEFSAII (Michael W. Deem and Ramdas Pophale) SiO2 
 PCOD8269356
Probable space group: C M M M
;
_chemical_formula_sum "Si O2"
_cell_formula_units_Z 88
_cell_length_a 18.812634
_cell_length_b 28.690213
_cell_length_c 8.755578
_cell_angle_alpha 90.000000
_cell_angle_beta 90.000000
_cell_angle_gamma 90.000000
_cell_volume 4725.722331
_symmetry_space_group_name_H-M "C M M M"
_symmetry_group_IT_number 65
_symmetry_cell_setting 'orthorhombic'
loop_
_space_group_symop_operation_xyz
x,y,z
-x,-y,z
x,-y,-z
-x,y,-z
-x,-y,-z
x,y,-z
-x,y,z
x,-y,z
1/2+x,1/2+y,z
1/2-x,1/2-y,z
1/2+x,1/2-y,-z
1/2-x,1/2+y,-z
1/2-x,1/2-y,-z
1/2+x,1/2+y,-z
1/2-x,1/2+y,z
1/2+x,1/2-y,z
loop_
_atom_site_type_symbol
_atom_site_label
_atom_site_fract_x
_atom_site_fract_y
_atom_site_fract_z
Si Si1 0.289359 0.683122 0.819190
Si Si2 0.858845 0.722153 0.819165
Si Si3 0.849336 0.086130 0.818371
Si Si4 0.232100 0.000000 0.318800
Si Si5 0.500000 0.447796 0.180597
Si Si6 0.000000 0.424648 0.318537
Si Si7 0.108855 0.500000 0.318493
Si Si8 0.500000 0.819808 0.680947
O O1 0.207162 0.689167 0.768432
O O2 0.338929 0.725682 0.763317
O O3 0.320443 0.635060 0.752935
O O4 0.291964 0.682993 0.000000
O O5 0.930153 0.706765 0.736247
O O6 0.871242 0.720114 0.000000
O O7 0.804485 0.045706 0.743545
O O8 0.930924 0.080595 0.764971
O O9 0.841967 0.082788 0.000000
O O10 0.311973 0.000000 0.253580
O O11 0.229655 0.000000 0.500000
O O12 0.500000 0.500000 0.251795
O O13 0.500000 0.452572 0.000000
O O14 0.069168 0.453150 0.260390
O O15 0.000000 0.421864 0.500000
O O16 0.000000 0.372416 0.250512
O O17 0.108109 0.500000 0.500000
O O18 0.500000 0.820693 0.500000
#
# Coordination Sequence:
#
# PCOD8269356 Si02
#       8
#    16  16  16   8   8   8   8   8
#     4   8  17  34  58  81  99 132 177 219 264 314
#     4   9  18  36  56  77 107 136 171 218 266 314
#     4  10  19  34  55  76 100 133 174 214 255 307
#     4  11  22  32  49  80 108 135 172 214 262 315
#     4   9  16  29  48  70  95 125 162 204 243 291
#     4   8  16  32  50  69  98 140 180 214 249 300
#     4   8  16  32  50  67  97 139 180 215 250 299
#     4  11  22  32  51  83 111 140 178 215 260 316
#
# _framework density 18.621493000000001
#
# number of rings (size 3 to 8) (size 9 to 14) (size 15 to 20)
#    0.000    2.818    0.909    2.182    2.545    0.727 
#    0.000    6.364    0.000    0.000    0.000    5.091 
#    0.000    0.000    0.000    0.000    0.000    0.000 
#
# Total GULP energy -545410.005066 kJ/mol
# GULP energy per Si atom -12395.681933 kJ/mol
# Density = 1.857911 g / cm^3
# Si number density = 18.621493 Si / 1000 Ang^3
#
#
#
# Elastic Constant Matrix: (Units=GPa)
#
#
# Indices 1 2 3 4 5 6 
#
# 1 198.8090 107.9392 31.7557 0.0000 0.0000 0.0000
# 2 107.9392 174.8000 26.2950 0.0000 0.0000 0.0000
# 3 31.7557 26.2950 27.9472 0.0000 0.0000 0.0000
# 4 0.0000 0.0000 0.0000 15.6913 0.0000 0.0000
# 5 0.0000 0.0000 0.0000 0.0000 15.1318 0.0000
# 6 0.0000 0.0000 0.0000 0.0000 0.0000 56.7879
#
#
#
# Elastic Compliance Matrix: (Units=1/GPa)
#
#
# Indices 1 2 3 4 5 6 
#
# 1 0.008189 -0.004260 -0.005297 0.000000 0.000000 0.000000
# 2 -0.004260 0.008880 -0.003515 0.000000 0.000000 0.000000
# 3 -0.005297 -0.003515 0.045107 0.000000 0.000000 0.000000
# 4 0.000000 0.000000 0.000000 0.063730 0.000000 0.000000
# 5 0.000000 0.000000 0.000000 0.000000 0.066086 0.000000
# 6 0.000000 0.000000 0.000000 0.000000 0.000000 0.017609
#
#
# Mechanical properties :
#
#
# Convention : Reuss Voigt Hill
#
# Bulk Modulus (GPa) = 27.75193 81.50401 54.62797
# Shear Modulus (GPa) = 20.18126 33.22662 26.70394
#
# Velocity S-wave (km/s) = 3.29563 4.22870 3.79098
# Velocity P-wave (km/s) = 5.42375 8.22839 6.96862
#
# Compressibility (1/GPa) = 0.03603353
#
# Stress axis : x y z
#
# Youngs Moduli (GPa) = 122.11863 112.61314 22.16938
#
# Poissons Ratio (x) = 0.47971 0.11743
# Poissons Ratio (y) = 0.52020 0.07792
# Poissons Ratio (z) = 0.64683 0.39580
#
# Static dielectric constant tensor:
#      x y z
#    x 3.727810 0.000000 0.000000 
#    y 0.000000 4.349220 0.000000 
#    z 0.000000 0.000000 2.926320 
# 
# 
# High freq. dielectric constant tensor:
#      x y z
#    x 1.736290 0.000000 0.000000 
#    y 0.000000 1.732530 0.000000 
#    z 0.000000 0.000000 1.673670 
# 
# From -- ./inp_files/10243.got.cif
#   From: 2010.03.12/outbox.cif.g09.slc.cpg/sg65_6_cif.got.tgz:10243.got - 2010.04.10 20:52:16.
