data_PCOD8269879
_publ_section_title
;
Structure prediction by ZEFSAII (Michael W. Deem and Ramdas Pophale) SiO2 
 PCOD8269879
Probable space group: C M M M
;
_chemical_formula_sum "Si O2"
_cell_formula_units_Z 88
_cell_length_a 19.141112
_cell_length_b 27.368519
_cell_length_c 9.265293
_cell_angle_alpha 90.000000
_cell_angle_beta 90.000000
_cell_angle_gamma 90.000000
_cell_volume 4853.752409
_symmetry_space_group_name_H-M "C M M M"
_symmetry_group_IT_number 65
_symmetry_cell_setting 'orthorhombic'
loop_
_space_group_symop_operation_xyz
x,y,z
-x,-y,z
x,-y,-z
-x,y,-z
-x,-y,-z
x,y,-z
-x,y,z
x,-y,z
1/2+x,1/2+y,z
1/2-x,1/2-y,z
1/2+x,1/2-y,-z
1/2-x,1/2+y,-z
1/2-x,1/2-y,-z
1/2+x,1/2+y,-z
1/2-x,1/2+y,z
1/2+x,1/2-y,z
loop_
_atom_site_type_symbol
_atom_site_label
_atom_site_fract_x
_atom_site_fract_y
_atom_site_fract_z
Si Si1 0.418790 0.187598 0.834455
Si Si2 0.577359 0.445494 0.671459
Si Si3 0.194989 0.873514 0.671286
Si Si4 0.675963 0.724672 0.837734
Si Si5 0.920512 0.500000 0.671374
Si Si6 0.149662 0.400020 0.671191
O O1 0.500000 0.197508 0.816870
O O2 0.380304 0.236379 0.779143
O O3 0.398158 0.141608 0.738723
O O4 0.397464 0.176824 0.000000
O O5 0.581914 0.446149 0.500000
O O6 0.500000 0.427566 0.719819
O O7 0.591107 0.500000 0.731071
O O8 0.636703 0.410183 0.734758
O O9 0.192179 0.870204 0.500000
O O10 0.176781 0.820777 0.731800
O O11 0.270511 0.892910 0.722882
O O12 0.750000 0.750000 0.834921
O O13 0.657151 0.707417 0.000000
O O14 0.922642 0.500000 0.500000
O O15 0.878926 0.547737 0.726853
O O16 0.000000 0.500000 0.732373
O O17 0.143444 0.396026 0.500000
#
# Coordination Sequence:
#
# PCOD8269879 Si02
#       6
#    16  16  16  16   8  16
#     4  10  21  37  56  76  99 132 174 212 249 302
#     4   8  15  29  49  74 106 140 169 202 250 304
#     4  10  20  31  51  81 106 130 169 216 253 294
#     4  10  20  36  54  71  98 136 170 203 253 307
#     4   9  18  32  49  71 102 136 166 201 251 305
#     4  10  20  33  52  78 106 135 168 209 255 301
#
# _framework density 18.130303000000001
#
# number of rings (size 3 to 8) (size 9 to 14) (size 15 to 20)
#    0.000    2.455    1.818    1.091    1.273    2.909 
#    0.000    0.455    0.000    2.182    0.000    1.273 
#    0.000    0.000    0.000    0.000    0.000    0.000 
#
# Total GULP energy -545564.920260 kJ/mol
# GULP energy per Si atom -12399.202733 kJ/mol
# Density = 1.808904 g / cm^3
# Si number density = 18.130303 Si / 1000 Ang^3
#
#
#
# Elastic Constant Matrix: (Units=GPa)
#
#
# Indices 1 2 3 4 5 6 
#
# 1 126.3116 81.1198 20.6636 0.0000 0.0000 0.0000
# 2 81.1198 147.0042 26.6985 0.0000 0.0000 0.0000
# 3 20.6636 26.6985 16.8435 0.0000 0.0000 0.0000
# 4 0.0000 0.0000 0.0000 -11.0584 0.0000 0.0000
# 5 0.0000 0.0000 0.0000 0.0000 2.5582 0.0000
# 6 0.0000 0.0000 0.0000 0.0000 0.0000 38.4991
#
#
#
# Elastic Compliance Matrix: (Units=1/GPa)
#
#
# Indices 1 2 3 4 5 6 
#
# 1 0.012720 -0.005877 -0.006290 0.000000 0.000000 0.000000
# 2 -0.005877 0.012268 -0.012236 0.000000 0.000000 0.000000
# 3 -0.006290 -0.012236 0.086481 0.000000 0.000000 0.000000
# 4 0.000000 0.000000 0.000000 -0.090429 0.000000 0.000000
# 5 0.000000 0.000000 0.000000 0.000000 0.390901 0.000000
# 6 0.000000 0.000000 0.000000 0.000000 0.000000 0.025975
#
#
# Mechanical properties :
#
#
# Convention : Reuss Voigt Hill
#
# Bulk Modulus (GPa) = 15.95803 60.79147 38.37475
# Shear Modulus (GPa) = 9.85013 16.77829 13.31421
#
# Velocity S-wave (km/s) = 2.33340 3.04538 2.71285
# Velocity P-wave (km/s) = 4.01007 6.78004 5.56999
#
# Compressibility (1/GPa) = 0.06266438
#
# Stress axis : x y z
#
# Youngs Moduli (GPa) = 78.61555 81.51460 11.56323
#
# Poissons Ratio (x) = 0.47905 0.07273
# Poissons Ratio (y) = 0.46202 0.14148
# Poissons Ratio (z) = 0.49446 0.99739
#
# Static dielectric constant tensor:
#      x y z
#    x 3.658810 0.000000 0.000000 
#    y 0.000000 3.408500 0.000000 
#    z 0.000000 0.000000 3.026020 
# 
# 
# High freq. dielectric constant tensor:
#      x y z
#    x 1.718830 0.000000 0.000000 
#    y 0.000000 1.709310 0.000000 
#    z 0.000000 0.000000 1.662520 
# 
# From -- ./inp_files/10168.got.cif
#   From: 2010.03.12/outbox.cif.g09.slc.cpg/sg65_6_cif.got.tgz:10168.got - 2010.04.10 20:52:16.
