data_PCOD8269398
_publ_section_title
;
Structure prediction by ZEFSAII (Michael W. Deem and Ramdas Pophale) SiO2 
 PCOD8269398
Probable space group: C M M M
;
_chemical_formula_sum "Si O2"
_cell_formula_units_Z 120
_cell_length_a 9.042646
_cell_length_b 26.158870
_cell_length_c 27.089363
_cell_angle_alpha 90.000000
_cell_angle_beta 90.000000
_cell_angle_gamma 90.000000
_cell_volume 6407.864238
_symmetry_space_group_name_H-M "C M M M"
_symmetry_group_IT_number 65
_symmetry_cell_setting 'orthorhombic'
loop_
_space_group_symop_operation_xyz
x,y,z
-x,-y,z
x,-y,-z
-x,y,-z
-x,-y,-z
x,y,-z
-x,y,z
x,-y,z
1/2+x,1/2+y,z
1/2-x,1/2-y,z
1/2+x,1/2-y,-z
1/2-x,1/2+y,-z
1/2-x,1/2-y,-z
1/2+x,1/2+y,-z
1/2-x,1/2+y,z
1/2+x,1/2-y,z
loop_
_atom_site_type_symbol
_atom_site_label
_atom_site_fract_x
_atom_site_fract_y
_atom_site_fract_z
Si Si1 0.671213 0.056912 0.906744
Si Si2 0.667347 0.558589 0.287841
Si Si3 0.827223 0.150921 0.054089
Si Si4 0.824681 0.000000 0.443925
Si Si5 0.328712 0.104009 0.197203
Si Si6 0.824986 0.801797 0.154832
Si Si7 0.828121 0.897602 0.392745
Si Si8 0.326298 0.197081 0.557124
O O1 0.500000 0.063185 0.919043
O O2 0.757271 0.095010 0.942347
O O3 0.702213 0.067765 0.849311
O O4 0.727249 0.000000 0.918393
O O5 0.500000 0.565103 0.268022
O O6 0.694832 0.500000 0.304165
O O7 0.782088 0.573516 0.245640
O O8 0.693499 0.595524 0.334306
O O9 0.769543 0.186783 0.098534
O O10 0.000000 0.143377 0.060267
O O11 0.787407 0.174356 0.000000
O O12 0.762903 0.051589 0.418925
O O13 0.771156 0.000000 0.500000
O O14 0.000000 0.000000 0.437979
O O15 0.500000 0.119539 0.200934
O O16 0.230589 0.154827 0.192043
O O17 0.750000 0.750000 0.172548
O O18 0.000000 0.796837 0.158337
O O19 0.736909 0.848523 0.409810
O O20 0.000000 0.889513 0.406595
O O21 0.290784 0.185101 0.500000
O O22 0.500000 0.202320 0.566704
O O23 0.250000 0.250000 0.573417
#
# Coordination Sequence:
#
# PCOD8269398 Si02
#       8
#    16  16  16   8  16  16  16  16
#     4   9  18  32  49  71 100 133 172 216 258 306
#     4  10  20  35  55  81 114 147 180 220 268 321
#     4   9  19  34  50  72 103 136 170 208 254 312
#     4   9  16  28  51  81 111 147 187 221 260 317
#     4  10  20  35  55  78 103 136 178 221 266 318
#     4  10  20  36  57  79 104 134 170 216 267 317
#     4  10  19  34  55  82 114 148 186 227 271 325
#     4  10  21  37  57  81 109 144 187 233 279 326
#
# _framework density 18.726989
#
# number of rings (size 3 to 8) (size 9 to 14) (size 15 to 20)
#    0.000    2.333    0.667    2.000    0.000    4.800 
#    0.000    2.333    0.000    4.400    0.000    0.000 
#    0.000    0.000    0.000    0.000    0.000    0.000 
#
# Total GULP energy -744051.913787 kJ/mol
# GULP energy per Si atom -12400.865230 kJ/mol
# Density = 1.868437 g / cm^3
# Si number density = 18.726989 Si / 1000 Ang^3
#
#
#
# Elastic Constant Matrix: (Units=GPa)
#
#
# Indices 1 2 3 4 5 6 
#
# 1 61.4915 34.4541 27.4570 0.0000 0.0000 0.0000
# 2 34.4541 102.4226 22.0998 0.0000 0.0000 0.0000
# 3 27.4570 22.0998 64.7091 0.0000 0.0000 0.0000
# 4 0.0000 0.0000 0.0000 17.1814 0.0000 0.0000
# 5 0.0000 0.0000 0.0000 0.0000 26.0731 0.0000
# 6 0.0000 0.0000 0.0000 0.0000 0.0000 33.9071
#
#
#
# Elastic Compliance Matrix: (Units=1/GPa)
#
#
# Indices 1 2 3 4 5 6 
#
# 1 0.023141 -0.006117 -0.007730 0.000000 0.000000 0.000000
# 2 -0.006117 0.012157 -0.001557 0.000000 0.000000 0.000000
# 3 -0.007730 -0.001557 0.019265 0.000000 0.000000 0.000000
# 4 0.000000 0.000000 0.000000 0.058202 0.000000 0.000000
# 5 0.000000 0.000000 0.000000 0.000000 0.038354 0.000000
# 6 0.000000 0.000000 0.000000 0.000000 0.000000 0.029492
#
#
# Mechanical properties :
#
#
# Convention : Reuss Voigt Hill
#
# Bulk Modulus (GPa) = 42.09301 44.07169 43.08235
# Shear Modulus (GPa) = 22.79591 25.07314 23.93452
#
# Velocity S-wave (km/s) = 3.49273 3.66304 3.57890
# Velocity P-wave (km/s) = 6.22829 6.44013 6.33510
#
# Compressibility (1/GPa) = 0.02375691
#
# Stress axis : x y z
#
# Youngs Moduli (GPa) = 43.21287 82.25793 51.90649
#
# Poissons Ratio (x) = 0.50314 0.40125
# Poissons Ratio (y) = 0.26431 0.08079
# Poissons Ratio (z) = 0.33404 0.12804
#
# Static dielectric constant tensor:
#      x y z
#    x 3.313660 0.000000 0.000000 
#    y 0.000000 3.445710 0.000000 
#    z 0.000000 0.000000 3.375310 
# 
# 
# High freq. dielectric constant tensor:
#      x y z
#    x 1.718960 0.000000 0.000000 
#    y 0.000000 1.727590 0.000000 
#    z 0.000000 0.000000 1.720020 
# 
# From -- ./inp_files/73965.got.cif
#   From: 2010.03.12/outbox.cif.g09.slc.cpg/sg65_37_cif.got.tgz:73965.got - 2010.04.10 20:52:16.
