data_PCOD8269759
_publ_section_title
;
Structure prediction by ZEFSAII (Michael W. Deem and Ramdas Pophale) SiO2 
 PCOD8269759
Probable space group: C M M M
;
_chemical_formula_sum "Si O2"
_cell_formula_units_Z 80
_cell_length_a 28.431913
_cell_length_b 8.840677
_cell_length_c 20.878536
_cell_angle_alpha 90.000000
_cell_angle_beta 90.000000
_cell_angle_gamma 90.000000
_cell_volume 5247.973676
_symmetry_space_group_name_H-M "C M M M"
_symmetry_group_IT_number 65
_symmetry_cell_setting 'orthorhombic'
loop_
_space_group_symop_operation_xyz
x,y,z
-x,-y,z
x,-y,-z
-x,y,-z
-x,-y,-z
x,y,-z
-x,y,z
x,-y,z
1/2+x,1/2+y,z
1/2-x,1/2-y,z
1/2+x,1/2-y,-z
1/2-x,1/2+y,-z
1/2-x,1/2-y,-z
1/2+x,1/2+y,-z
1/2-x,1/2+y,z
1/2+x,1/2-y,z
loop_
_atom_site_type_symbol
_atom_site_label
_atom_site_fract_x
_atom_site_fract_y
_atom_site_fract_z
Si Si1 0.298846 0.678116 0.926438
Si Si2 0.056012 0.669292 0.363212
Si Si3 0.551565 0.820162 0.500000
Si Si4 0.890025 0.678733 0.122065
Si Si5 0.945020 0.174905 0.764571
Si Si6 0.447476 0.179784 0.000000
O O1 0.295785 0.500000 0.917779
O O2 0.250000 0.750000 0.903487
O O3 0.339213 0.743903 0.880960
O O4 0.309359 0.724173 0.000000
O O5 0.074087 0.500000 0.346798
O O6 0.077093 0.725839 0.432583
O O7 0.071831 0.782476 0.307073
O O8 0.000000 0.666955 0.369887
O O9 0.500000 0.744315 0.500000
O O10 0.546532 0.000000 0.500000
O O11 0.883505 0.500000 0.118914
O O12 0.915701 0.723225 0.187070
O O13 0.921014 0.739950 0.062846
O O14 0.000000 0.212483 0.773711
O O15 0.934232 0.000000 0.777064
O O16 0.500000 0.247951 0.000000
O O17 0.449374 0.000000 0.000000
#
# Coordination Sequence:
#
# PCOD8269759 Si02
#       6
#    16  16   8  16  16   8
#     4  10  20  34  52  71  91 110 135 172 219 269
#     4   8  13  23  39  57  77 106 144 182 218 256
#     4   7  10  18  35  57  77  99 136 183 220 251
#     4  11  20  32  49  66  86 112 146 184 224 265
#     4  10  20  31  41  58  87 120 152 185 221 262
#     4   9  18  30  44  63  84 107 142 185 220 253
#
# _framework density 15.243979
#
# number of rings (size 3 to 8) (size 9 to 14) (size 15 to 20)
#    0.000    2.600    1.000    3.600    0.000    2.800 
#    0.000    0.500    0.000    5.400    0.000    0.000 
#    0.000    0.000    0.000    0.900    0.000   11.500 
#
# Total GULP energy -495791.503745 kJ/mol
# GULP energy per Si atom -12394.787594 kJ/mol
# Density = 1.520928 g / cm^3
# Si number density = 15.243979 Si / 1000 Ang^3
#
#
#
# Elastic Constant Matrix: (Units=GPa)
#
#
# Indices 1 2 3 4 5 6 
#
# 1 71.2120 27.5769 37.4099 0.0000 0.0000 0.0000
# 2 27.5769 53.2662 24.4725 0.0000 0.0000 0.0000
# 3 37.4099 24.4725 107.7140 0.0000 0.0000 0.0000
# 4 0.0000 0.0000 0.0000 18.2737 0.0000 0.0000
# 5 0.0000 0.0000 0.0000 0.0000 3.0581 0.0000
# 6 0.0000 0.0000 0.0000 0.0000 0.0000 19.9164
#
#
#
# Elastic Compliance Matrix: (Units=1/GPa)
#
#
# Indices 1 2 3 4 5 6 
#
# 1 0.019767 -0.007905 -0.005069 0.000000 0.000000 0.000000
# 2 -0.007905 0.024123 -0.002735 0.000000 0.000000 0.000000
# 3 -0.005069 -0.002735 0.011666 0.000000 0.000000 0.000000
# 4 0.000000 0.000000 0.000000 0.054723 0.000000 0.000000
# 5 0.000000 0.000000 0.000000 0.000000 0.327005 0.000000
# 6 0.000000 0.000000 0.000000 0.000000 0.000000 0.050210
#
#
# Mechanical properties :
#
#
# Convention : Reuss Voigt Hill
#
# Bulk Modulus (GPa) = 41.43017 45.67899 43.55458
# Shear Modulus (GPa) = 9.48843 17.76515 13.62679
#
# Velocity S-wave (km/s) = 2.49758 3.41748 2.99308
# Velocity P-wave (km/s) = 5.96274 6.75297 6.37012
#
# Compressibility (1/GPa) = 0.02413700
#
# Stress axis : x y z
#
# Youngs Moduli (GPa) = 50.59027 41.45470 85.72004
#
# Poissons Ratio (x) = 0.32768 0.43453
# Poissons Ratio (y) = 0.39990 0.23447
# Poissons Ratio (z) = 0.25645 0.11339
#
# Static dielectric constant tensor:
#      x y z
#    x 2.624310 0.000000 0.000000 
#    y 0.000000 2.801520 0.000000 
#    z 0.000000 0.000000 3.183460 
# 
# 
# High freq. dielectric constant tensor:
#      x y z
#    x 1.535230 0.000000 0.000000 
#    y 0.000000 1.579600 0.000000 
#    z 0.000000 0.000000 1.585910 
# 
# From -- ./inp_files/65086.got.cif
#   From: 2010.03.12/outbox.cif.g09.slc.cpg/sg65_33_cif.got.tgz:65086.got - 2010.04.10 20:52:16.
