data_PCOD8269910
_publ_section_title
;
Structure prediction by ZEFSAII (Michael W. Deem and Ramdas Pophale) SiO2 
 PCOD8269910
Probable space group: C M M M
;
_chemical_formula_sum "Si O2"
_cell_formula_units_Z 80
_cell_length_a 8.962066
_cell_length_b 28.299763
_cell_length_c 20.695332
_cell_angle_alpha 90.000000
_cell_angle_beta 90.000000
_cell_angle_gamma 90.000000
_cell_volume 5248.839998
_symmetry_space_group_name_H-M "C M M M"
_symmetry_group_IT_number 65
_symmetry_cell_setting 'orthorhombic'
loop_
_space_group_symop_operation_xyz
x,y,z
-x,-y,z
x,-y,-z
-x,y,-z
-x,-y,-z
x,y,-z
-x,y,z
x,-y,z
1/2+x,1/2+y,z
1/2-x,1/2-y,z
1/2+x,1/2-y,-z
1/2-x,1/2+y,-z
1/2-x,1/2-y,-z
1/2+x,1/2+y,-z
1/2-x,1/2+y,z
1/2+x,1/2-y,z
loop_
_atom_site_type_symbol
_atom_site_label
_atom_site_fract_x
_atom_site_fract_y
_atom_site_fract_z
Si Si1 0.174317 0.203314 0.926623
Si Si2 0.823647 0.897524 0.121336
Si Si3 0.830345 0.555905 0.000000
Si Si4 0.325588 0.055250 0.242190
Si Si5 0.831248 0.443594 0.500000
Si Si6 0.832058 0.056100 0.372724
O O1 0.250000 0.250000 0.896518
O O2 0.218648 0.157675 0.884809
O O3 0.000000 0.212056 0.925470
O O4 0.230597 0.194822 0.000000
O O5 0.760128 0.915321 0.188578
O O6 0.000000 0.905426 0.118607
O O7 0.752344 0.926595 0.063460
O O8 0.826949 0.500000 0.000000
O O9 0.000000 0.574693 0.000000
O O10 0.500000 0.066534 0.239065
O O11 0.262889 0.072457 0.310972
O O12 0.293979 0.000000 0.230925
O O13 0.831129 0.500000 0.500000
O O14 0.746983 0.423700 0.436866
O O15 0.000000 0.424338 0.500000
O O16 0.000000 0.076392 0.368109
O O17 0.836273 0.000000 0.376398
#
# Coordination Sequence:
#
# PCOD8269910 Si02
#       6
#    16  16   8  16   8  16
#     4   9  18  33  50  69  88 106 134 174 220 270
#     4  11  21  34  49  66  87 112 144 181 221 265
#     4  11  23  35  46  63  86 113 148 185 218 255
#     4  10  20  32  44  61  87 118 152 186 220 261
#     4   9  15  23  37  57  81 109 142 183 224 257
#     4   9  16  26  40  58  80 110 148 185 220 258
#
# _framework density 15.241462
#
# number of rings (size 3 to 8) (size 9 to 14) (size 15 to 20)
#    0.000    2.200    1.000    3.000    0.000    9.600 
#    0.000    0.000    0.000    0.000    0.000    0.000 
#    0.000    0.000    0.000    0.900    0.000   12.300 
#
# Total GULP energy -496023.967536 kJ/mol
# GULP energy per Si atom -12400.599188 kJ/mol
# Density = 1.520677 g / cm^3
# Si number density = 15.241462 Si / 1000 Ang^3
#
#
#
# Elastic Constant Matrix: (Units=GPa)
#
#
# Indices 1 2 3 4 5 6 
#
# 1 103.8317 45.4553 55.2626 0.0000 0.0000 0.0000
# 2 45.4553 62.9316 45.4177 0.0000 0.0000 0.0000
# 3 55.2626 45.4177 123.7836 0.0000 0.0000 0.0000
# 4 0.0000 0.0000 0.0000 -1.2810 0.0000 0.0000
# 5 0.0000 0.0000 0.0000 0.0000 30.9523 0.0000
# 6 0.0000 0.0000 0.0000 0.0000 0.0000 20.6685
#
#
#
# Elastic Compliance Matrix: (Units=1/GPa)
#
#
# Indices 1 2 3 4 5 6 
#
# 1 0.015277 -0.008314 -0.003770 0.000000 0.000000 0.000000
# 2 -0.008314 0.026138 -0.005879 0.000000 0.000000 0.000000
# 3 -0.003770 -0.005879 0.011919 0.000000 0.000000 0.000000
# 4 0.000000 0.000000 0.000000 -0.780610 0.000000 0.000000
# 5 0.000000 0.000000 0.000000 0.000000 0.032308 0.000000
# 6 0.000000 0.000000 0.000000 0.000000 0.000000 0.048383
#
#
# Mechanical properties :
#
#
# Convention : Reuss Voigt Hill
#
# Bulk Modulus (GPa) = 57.44218 64.75758 61.09988
# Shear Modulus (GPa) = -8.26640 19.69537 5.71448
#
# Velocity S-wave (km/s) = -2.33140 3.59865 1.93841
# Velocity P-wave (km/s) = 5.52474 7.73609 6.72197
#
# Compressibility (1/GPa) = 0.01740881
#
# Stress axis : x y z
#
# Youngs Moduli (GPa) = 65.45765 38.25858 83.90216
#
# Poissons Ratio (x) = 0.31807 0.31631
# Poissons Ratio (y) = 0.54420 0.49323
# Poissons Ratio (z) = 0.24677 0.22491
#
# Static dielectric constant tensor:
#      x y z
#    x 3.150830 0.000000 0.000000 
#    y 0.000000 2.668400 0.000000 
#    z 0.000000 0.000000 2.987650 
# 
# 
# High freq. dielectric constant tensor:
#      x y z
#    x 1.604820 0.000000 0.000000 
#    y 0.000000 1.534790 0.000000 
#    z 0.000000 0.000000 1.581910 
# 
# From -- ./inp_files/57880.got.cif
#   From: 2010.03.12/outbox.cif.g09.slc.cpg/sg65_29_cif.got.tgz:57880.got - 2010.04.10 20:52:16.
