data_PCOD8269469
_publ_section_title
;
Structure prediction by ZEFSAII (Michael W. Deem and Ramdas Pophale) SiO2 
 PCOD8269469
Probable space group: C M M M
;
_chemical_formula_sum "Si O2"
_cell_formula_units_Z 88
_cell_length_a 8.892226
_cell_length_b 18.608419
_cell_length_c 28.397915
_cell_angle_alpha 90.000000
_cell_angle_beta 90.000000
_cell_angle_gamma 90.000000
_cell_volume 4699.010584
_symmetry_space_group_name_H-M "C M M M"
_symmetry_group_IT_number 65
_symmetry_cell_setting 'orthorhombic'
loop_
_space_group_symop_operation_xyz
x,y,z
-x,-y,z
x,-y,-z
-x,y,-z
-x,-y,-z
x,y,-z
-x,y,z
x,-y,z
1/2+x,1/2+y,z
1/2-x,1/2-y,z
1/2+x,1/2-y,-z
1/2-x,1/2+y,-z
1/2-x,1/2-y,-z
1/2+x,1/2+y,-z
1/2-x,1/2+y,z
1/2+x,1/2-y,z
loop_
_atom_site_type_symbol
_atom_site_label
_atom_site_fract_x
_atom_site_fract_y
_atom_site_fract_z
Si Si1 0.326308 0.084419 0.631253
Si Si2 0.172616 0.824942 0.815524
Si Si3 0.174879 0.415626 0.000000
Si Si4 0.677688 0.328562 0.917729
Si Si5 0.823858 0.824334 0.554418
Si Si6 0.177266 0.171601 0.713506
O O1 0.500000 0.106748 0.630052
O O2 0.247127 0.111079 0.583742
O O3 0.249088 0.117902 0.676703
O O4 0.303741 0.000000 0.633987
O O5 0.250000 0.750000 0.814255
O O6 0.213965 0.862653 0.865428
O O7 0.210658 0.863796 0.765691
O O8 0.000000 0.805838 0.816487
O O9 0.250660 0.383586 0.953798
O O10 0.203676 0.500000 0.000000
O O11 0.000000 0.395980 0.000000
O O12 0.500000 0.322062 0.926988
O O13 0.750000 0.250000 0.923983
O O14 0.787333 0.839495 0.500000
O O15 0.750000 0.750000 0.571375
O O16 0.000000 0.819478 0.564239
O O17 0.250000 0.250000 0.708319
O O18 0.000000 0.178527 0.703862
#
# Coordination Sequence:
#
# PCOD8269469 Si02
#       6
#    16  16   8  16  16  16
#     4  11  24  39  54  76 109 147 184 221 263 312
#     4   8  16  30  51  80 107 133 168 213 262 310
#     4  11  24  39  52  71 103 141 180 219 262 313
#     4  10  19  34  57  82 107 135 172 216 263 315
#     4  10  21  38  61  86 110 138 175 219 266 317
#     4  10  19  34  57  82 109 140 176 218 263 312
#
# _framework density 18.727346000000001
#
# number of rings (size 3 to 8) (size 9 to 14) (size 15 to 20)
#    0.000    2.091    0.000    3.273    0.000    5.091 
#    0.000    2.727    0.000    5.455    0.000    0.000 
#    0.000    0.000    0.000    0.000    0.000    0.000 
#
# Total GULP energy -545269.559615 kJ/mol
# GULP energy per Si atom -12392.489991 kJ/mol
# Density = 1.868472 g / cm^3
# Si number density = 18.727346 Si / 1000 Ang^3
#
#
#
# Elastic Constant Matrix: (Units=GPa)
#
#
# Indices 1 2 3 4 5 6 
#
# 1 115.9772 54.6181 75.1552 0.0000 0.0000 0.0000
# 2 54.6181 73.0307 62.9213 0.0000 0.0000 0.0000
# 3 75.1552 62.9213 160.2100 0.0000 0.0000 0.0000
# 4 0.0000 0.0000 0.0000 2.1841 0.0000 0.0000
# 5 0.0000 0.0000 0.0000 0.0000 25.5042 0.0000
# 6 0.0000 0.0000 0.0000 0.0000 0.0000 29.4260
#
#
#
# Elastic Compliance Matrix: (Units=1/GPa)
#
#
# Indices 1 2 3 4 5 6 
#
# 1 0.014775 -0.007676 -0.003917 0.000000 0.000000 0.000000
# 2 -0.007676 0.024683 -0.006094 0.000000 0.000000 0.000000
# 3 -0.003917 -0.006094 0.010472 0.000000 0.000000 0.000000
# 4 0.000000 0.000000 0.000000 0.457847 0.000000 0.000000
# 5 0.000000 0.000000 0.000000 0.000000 0.039209 0.000000
# 6 0.000000 0.000000 0.000000 0.000000 0.000000 0.033984
#
#
# Mechanical properties :
#
#
# Convention : Reuss Voigt Hill
#
# Bulk Modulus (GPa) = 68.68437 81.62301 75.15369
# Shear Modulus (GPa) = 8.04900 21.85774 14.95337
#
# Velocity S-wave (km/s) = 2.07541 3.42007 2.82880
# Velocity P-wave (km/s) = 6.51910 7.69905 7.13352
#
# Compressibility (1/GPa) = 0.01455935
#
# Stress axis : x y z
#
# Youngs Moduli (GPa) = 67.68148 40.51315 95.49037
#
# Poissons Ratio (x) = 0.31096 0.37399
# Poissons Ratio (y) = 0.51950 0.58187
# Poissons Ratio (z) = 0.26508 0.24687
#
# Static dielectric constant tensor:
#      x y z
#    x 3.639090 0.000000 0.000000 
#    y 0.000000 3.077100 0.000000 
#    z 0.000000 0.000000 4.448400 
# 
# 
# High freq. dielectric constant tensor:
#      x y z
#    x 1.745620 0.000000 0.000000 
#    y 0.000000 1.690510 0.000000 
#    z 0.000000 0.000000 1.756950 
# 
# From -- ./inp_files/76639.got.cif
#   From: 2010.03.12/outbox.cif.g09.slc.cpg/sg65_39_cif.got.tgz:76639.got - 2010.04.10 20:52:16.
