data_PCOD8269315
_publ_section_title
;
Structure prediction by ZEFSAII (Michael W. Deem and Ramdas Pophale) SiO2 
 PCOD8269315
Probable space group: C M M M
;
_chemical_formula_sum "Si O2"
_cell_formula_units_Z 104
_cell_length_a 8.944524
_cell_length_b 28.487039
_cell_length_c 22.822341
_cell_angle_alpha 90.000000
_cell_angle_beta 90.000000
_cell_angle_gamma 90.000000
_cell_volume 5815.201046
_symmetry_space_group_name_H-M "C M M M"
_symmetry_group_IT_number 65
_symmetry_cell_setting 'orthorhombic'
loop_
_space_group_symop_operation_xyz
x,y,z
-x,-y,z
x,-y,-z
-x,y,-z
-x,-y,-z
x,y,-z
-x,y,z
x,-y,z
1/2+x,1/2+y,z
1/2-x,1/2-y,z
1/2+x,1/2-y,-z
1/2-x,1/2+y,-z
1/2-x,1/2-y,-z
1/2+x,1/2+y,-z
1/2-x,1/2+y,z
1/2+x,1/2-y,z
loop_
_atom_site_type_symbol
_atom_site_label
_atom_site_fract_x
_atom_site_fract_y
_atom_site_fract_z
Si Si1 0.823828 0.200370 0.272343
Si Si2 0.825489 0.297983 0.932321
Si Si3 0.822893 0.550783 0.340576
Si Si4 0.328271 0.053321 0.792079
Si Si5 0.675716 0.199568 0.500000
Si Si6 0.822851 0.350198 0.381267
Si Si7 0.325565 0.638945 0.159903
O O1 0.750000 0.250000 0.258780
O O2 0.758566 0.179461 0.331809
O O3 0.781791 0.166699 0.218697
O O4 0.000000 0.206772 0.279809
O O5 0.750000 0.250000 0.910607
O O6 0.760387 0.340772 0.895707
O O7 0.000000 0.293145 0.920583
O O8 0.788403 0.307811 0.000000
O O9 0.761519 0.500000 0.364398
O O10 0.767350 0.558237 0.274212
O O11 0.769675 0.595096 0.379412
O O12 0.000000 0.548065 0.339915
O O13 0.500000 0.070069 0.795918
O O14 0.226298 0.085309 0.833445
O O15 0.312124 0.000000 0.814076
O O16 0.500000 0.207408 0.500000
O O17 0.750000 0.250000 0.500000
O O18 0.727489 0.170202 0.443558
O O19 0.000000 0.346150 0.371339
O O20 0.500000 0.641245 0.146849
#
# Coordination Sequence:
#
# PCOD8269315 Si02
#       7
#    16  16  16  16   8  16  16
#     4  11  23  35  49  74 104 134 171 213 262 311
#     4  10  21  37  57  80 108 144 184 222 261 311
#     4   8  14  27  50  77 102 131 166 206 257 313
#     4   9  17  31  53  79 106 139 177 214 261 320
#     4  10  22  36  51  73  97 133 178 218 263 314
#     4  10  19  34  54  74 101 134 171 215 260 312
#     4  11  22  34  52  80 111 141 175 217 266 317
#
# _framework density 17.884160999999999
#
# number of rings (size 3 to 8) (size 9 to 14) (size 15 to 20)
#    0.000    2.154    1.538    3.231    0.000    6.154 
#    0.000    0.385    0.000    3.231    0.000    3.231 
#    0.000    1.846    0.000    0.000    0.000    0.000 
#
# Total GULP energy -644806.402366 kJ/mol
# GULP energy per Si atom -12400.123122 kJ/mol
# Density = 1.784346 g / cm^3
# Si number density = 17.884161 Si / 1000 Ang^3
#
#
#
# Elastic Constant Matrix: (Units=GPa)
#
#
# Indices 1 2 3 4 5 6 
#
# 1 55.6194 38.9498 40.1492 0.0000 0.0000 0.0000
# 2 38.9498 136.4681 53.3697 0.0000 0.0000 0.0000
# 3 40.1492 53.3697 87.8107 0.0000 0.0000 0.0000
# 4 0.0000 0.0000 0.0000 15.9772 0.0000 0.0000
# 5 0.0000 0.0000 0.0000 0.0000 23.0957 0.0000
# 6 0.0000 0.0000 0.0000 0.0000 0.0000 27.5230
#
#
#
# Elastic Compliance Matrix: (Units=1/GPa)
#
#
# Indices 1 2 3 4 5 6 
#
# 1 0.028387 -0.003970 -0.010566 0.000000 0.000000 0.000000
# 2 -0.003970 0.010168 -0.004365 0.000000 0.000000 0.000000
# 3 -0.010566 -0.004365 0.018872 0.000000 0.000000 0.000000
# 4 0.000000 0.000000 0.000000 0.062589 0.000000 0.000000
# 5 0.000000 0.000000 0.000000 0.000000 0.043298 0.000000
# 6 0.000000 0.000000 0.000000 0.000000 0.000000 0.036333
#
#
# Mechanical properties :
#
#
# Convention : Reuss Voigt Hill
#
# Bulk Modulus (GPa) = 50.95551 60.53731 55.74641
# Shear Modulus (GPa) = 20.49264 23.14781 21.82023
#
# Velocity S-wave (km/s) = 3.38872 3.60157 3.49676
# Velocity P-wave (km/s) = 6.62307 7.15669 6.89504
#
# Compressibility (1/GPa) = 0.01962496
#
# Stress axis : x y z
#
# Youngs Moduli (GPa) = 35.22783 98.35123 52.98822
#
# Poissons Ratio (x) = 0.39042 0.55989
# Poissons Ratio (y) = 0.13984 0.23128
# Poissons Ratio (z) = 0.37223 0.42927
#
# Static dielectric constant tensor:
#      x y z
#    x 3.171680 0.000000 0.000000 
#    y 0.000000 1.930420 0.000000 
#    z 0.000000 0.000000 3.220500 
# 
# 
# High freq. dielectric constant tensor:
#      x y z
#    x 1.679900 0.000000 0.000000 
#    y 0.000000 1.704930 0.000000 
#    z 0.000000 0.000000 1.674410 
# 
# From -- ./inp_files/60414.got.cif
#   From: 2010.03.12/outbox.cif.g09.slc.cpg/sg65_31_cif.got.tgz:60414.got - 2010.04.10 20:52:16.
