data_PCOD8269573
_publ_section_title
;
Structure prediction by ZEFSAII (Michael W. Deem and Ramdas Pophale) SiO2 
 PCOD8269573
Probable space group: C M M M
;
_chemical_formula_sum "Si O2"
_cell_formula_units_Z 104
_cell_length_a 28.270605
_cell_length_b 8.951972
_cell_length_c 22.786390
_cell_angle_alpha 90.000000
_cell_angle_beta 90.000000
_cell_angle_gamma 90.000000
_cell_volume 5766.726361
_symmetry_space_group_name_H-M "C M M M"
_symmetry_group_IT_number 65
_symmetry_cell_setting 'orthorhombic'
loop_
_space_group_symop_operation_xyz
x,y,z
-x,-y,z
x,-y,-z
-x,y,-z
-x,-y,-z
x,y,-z
-x,y,z
x,-y,z
1/2+x,1/2+y,z
1/2-x,1/2-y,z
1/2+x,1/2-y,-z
1/2-x,1/2+y,-z
1/2-x,1/2-y,-z
1/2+x,1/2+y,-z
1/2-x,1/2+y,z
1/2+x,1/2-y,z
loop_
_atom_site_type_symbol
_atom_site_label
_atom_site_fract_x
_atom_site_fract_y
_atom_site_fract_z
Si Si1 0.702789 0.673832 0.155294
Si Si2 0.390182 0.824513 0.333058
Si Si3 0.701669 0.676498 0.710341
Si Si4 0.897372 0.174960 0.109460
Si Si5 0.445448 0.671035 0.432293
Si Si6 0.444156 0.670047 0.769253
Si Si7 0.946196 0.323423 0.000000
O O1 0.712505 0.500000 0.153537
O O2 0.750000 0.750000 0.129861
O O3 0.692399 0.723839 0.222110
O O4 0.657998 0.717289 0.115320
O O5 0.340359 0.740927 0.328738
O O6 0.413175 0.781599 0.394967
O O7 0.425051 0.776855 0.281033
O O8 0.381669 0.000000 0.330177
O O9 0.704525 0.500000 0.702342
O O10 0.750000 0.750000 0.687535
O O11 0.923982 0.223190 0.168566
O O12 0.904192 0.000000 0.096935
O O13 0.919170 0.267204 0.056941
O O14 0.431902 0.693099 0.500000
O O15 0.500000 0.712733 0.421526
O O16 0.436573 0.500000 0.412823
O O17 0.500000 0.682654 0.771193
O O18 0.427475 0.500000 0.756364
O O19 0.945608 0.500000 0.000000
O O20 0.000000 0.262517 0.000000
#
# Coordination Sequence:
#
# PCOD8269573 Si02
#       7
#    16  16  16  16  16  16   8
#     4   9  18  33  56  83 110 138 175 221 271 324
#     4  12  23  33  51  82 117 150 183 223 277 333
#     4  10  19  35  56  81 113 145 183 227 274 329
#     4  10  20  38  60  81 104 141 187 227 269 326
#     4   9  19  37  59  80 106 147 195 237 279 328
#     4  10  20  35  55  78 107 143 183 230 280 326
#     4  11  25  41  56  79 110 143 180 227 280 331
#
# _framework density 18.034495
#
# number of rings (size 3 to 8) (size 9 to 14) (size 15 to 20)
#    0.000    1.923    1.538    3.462    0.000    5.846 
#    0.000    1.154    0.000    0.462    0.000    0.000 
#    0.000    0.000    0.000    0.000    0.000    0.000 
#
# Total GULP energy -644983.875611 kJ/mol
# GULP energy per Si atom -12403.536069 kJ/mol
# Density = 1.799345 g / cm^3
# Si number density = 18.034495 Si / 1000 Ang^3
#
#
#
# Elastic Constant Matrix: (Units=GPa)
#
#
# Indices 1 2 3 4 5 6 
#
# 1 123.4315 50.5362 56.2922 0.0000 0.0000 0.0000
# 2 50.5362 78.0686 38.7011 0.0000 0.0000 0.0000
# 3 56.2922 38.7011 90.7415 0.0000 0.0000 0.0000
# 4 0.0000 0.0000 0.0000 29.0090 0.0000 0.0000
# 5 0.0000 0.0000 0.0000 0.0000 13.5938 0.0000
# 6 0.0000 0.0000 0.0000 0.0000 0.0000 32.8891
#
#
#
# Elastic Compliance Matrix: (Units=1/GPa)
#
#
# Indices 1 2 3 4 5 6 
#
# 1 0.012974 -0.005590 -0.005664 0.000000 0.000000 0.000000
# 2 -0.005590 0.018653 -0.004487 0.000000 0.000000 0.000000
# 3 -0.005664 -0.004487 0.016448 0.000000 0.000000 0.000000
# 4 0.000000 0.000000 0.000000 0.034472 0.000000 0.000000
# 5 0.000000 0.000000 0.000000 0.000000 0.073563 0.000000
# 6 0.000000 0.000000 0.000000 0.000000 0.000000 0.030405
#
#
# Mechanical properties :
#
#
# Convention : Reuss Voigt Hill
#
# Bulk Modulus (GPa) = 60.27459 64.81117 62.54288
# Shear Modulus (GPa) = 22.36856 24.87917 23.62386
#
# Velocity S-wave (km/s) = 3.52564 3.71824 3.62322
# Velocity P-wave (km/s) = 7.07587 7.37896 7.22900
#
# Compressibility (1/GPa) = 0.01659074
#
# Stress axis : x y z
#
# Youngs Moduli (GPa) = 77.07932 53.61189 60.79834
#
# Poissons Ratio (x) = 0.29971 0.34436
# Poissons Ratio (y) = 0.43091 0.27282
# Poissons Ratio (z) = 0.43658 0.24057
#
# Static dielectric constant tensor:
#      x y z
#    x 3.498550 0.000000 0.000000 
#    y 0.000000 3.603960 0.000000 
#    z 0.000000 0.000000 3.241940 
# 
# 
# High freq. dielectric constant tensor:
#      x y z
#    x 1.710580 0.000000 0.000000 
#    y 0.000000 1.694500 0.000000 
#    z 0.000000 0.000000 1.681670 
# 
# From -- ./inp_files/65877.got.cif
#   From: 2010.03.12/outbox.cif.g09.slc.cpg/sg65_33_cif.got.tgz:65877.got - 2010.04.10 20:52:16.
