data_PCOD8269447
_publ_section_title
;
Structure prediction by ZEFSAII (Michael W. Deem and Ramdas Pophale) SiO2 
 PCOD8269447
Probable space group: C M M M
;
_chemical_formula_sum "Si O2"
_cell_formula_units_Z 88
_cell_length_a 23.659054
_cell_length_b 21.546023
_cell_length_c 9.089846
_cell_angle_alpha 90.000000
_cell_angle_beta 90.000000
_cell_angle_gamma 90.000000
_cell_volume 4633.626459
_symmetry_space_group_name_H-M "C M M M"
_symmetry_group_IT_number 65
_symmetry_cell_setting 'orthorhombic'
loop_
_space_group_symop_operation_xyz
x,y,z
-x,-y,z
x,-y,-z
-x,y,-z
-x,-y,-z
x,y,-z
-x,y,z
x,-y,z
1/2+x,1/2+y,z
1/2-x,1/2-y,z
1/2+x,1/2-y,-z
1/2-x,1/2+y,-z
1/2-x,1/2-y,-z
1/2+x,1/2+y,-z
1/2-x,1/2+y,z
1/2+x,1/2-y,z
loop_
_atom_site_type_symbol
_atom_site_label
_atom_site_fract_x
_atom_site_fract_y
_atom_site_fract_z
Si Si1 0.733326 0.932088 0.664373
Si Si2 0.066639 0.000000 0.173765
Si Si3 0.936091 0.571603 0.664490
Si Si4 0.143430 0.098016 0.669156
Si Si5 0.150981 0.650667 0.828312
Si Si6 0.314075 0.733440 0.326065
O O1 0.722250 0.905130 0.500000
O O2 0.799791 0.941800 0.687696
O O3 0.708240 0.884242 0.780429
O O4 0.704623 0.000000 0.682074
O O5 0.094564 0.063317 0.238391
O O6 0.000000 0.000000 0.212976
O O7 0.076416 0.000000 0.000000
O O8 0.910868 0.581688 0.500000
O O9 0.933047 0.500000 0.708406
O O10 0.902348 0.609592 0.785089
O O11 0.000000 0.595486 0.668166
O O12 0.122918 0.100105 0.500000
O O13 0.161041 0.166958 0.725909
O O14 0.144934 0.716429 0.747963
O O15 0.152410 0.661951 0.000000
O O16 0.317607 0.738288 0.500000
O O17 0.250000 0.750000 0.273370
#
# Coordination Sequence:
#
# PCOD8269447 Si02
#       6
#    16   8  16  16  16  16
#     4  10  19  34  56  82 114 150 191 239 290 339
#     4  11  25  43  63  89 125 163 192 237 308 367
#     4   9  19  38  62  83 106 145 197 245 284 326
#     4  10  20  38  64  89 110 145 199 249 289 338
#     4  12  24  34  51  84 124 157 189 229 284 352
#     4  10  20  38  61  83 114 155 197 241 289 343
#
# _framework density 18.991605
#
# number of rings (size 3 to 8) (size 9 to 14) (size 15 to 20)
#    0.000    1.727    2.727    3.000    0.000    5.818 
#    0.000    1.818    0.000    1.091    0.000    0.000 
#    0.000    0.000    0.000    0.000    0.000    0.000 
#
# Total GULP energy -545418.684073 kJ/mol
# GULP energy per Si atom -12395.879183 kJ/mol
# Density = 1.894838 g / cm^3
# Si number density = 18.991605 Si / 1000 Ang^3
#
#
#
# Elastic Constant Matrix: (Units=GPa)
#
#
# Indices 1 2 3 4 5 6 
#
# 1 97.5715 45.3745 31.6825 0.0000 0.0000 0.0000
# 2 45.3745 130.8949 46.7202 0.0000 0.0000 0.0000
# 3 31.6825 46.7202 49.4223 0.0000 0.0000 0.0000
# 4 0.0000 0.0000 0.0000 17.7144 0.0000 0.0000
# 5 0.0000 0.0000 0.0000 0.0000 17.3908 0.0000
# 6 0.0000 0.0000 0.0000 0.0000 0.0000 -7.9081
#
#
#
# Elastic Compliance Matrix: (Units=1/GPa)
#
#
# Indices 1 2 3 4 5 6 
#
# 1 0.013420 -0.002387 -0.006347 0.000000 0.000000 0.000000
# 2 -0.002387 0.011955 -0.009771 0.000000 0.000000 0.000000
# 3 -0.006347 -0.009771 0.033539 0.000000 0.000000 0.000000
# 4 0.000000 0.000000 0.000000 0.056451 0.000000 0.000000
# 5 0.000000 0.000000 0.000000 0.000000 0.057502 0.000000
# 6 0.000000 0.000000 0.000000 0.000000 0.000000 -0.126453
#
#
# Mechanical properties :
#
#
# Convention : Reuss Voigt Hill
#
# Bulk Modulus (GPa) = 45.65201 58.38255 52.01728
# Shear Modulus (GPa) = 55.11222 15.71351 35.41286
#
# Velocity S-wave (km/s) = 5.39280 2.87956 4.32285
# Velocity P-wave (km/s) = 7.92884 6.47023 7.23638
#
# Compressibility (1/GPa) = 0.02190484
#
# Stress axis : x y z
#
# Youngs Moduli (GPa) = 74.51814 83.64974 29.81584
#
# Poissons Ratio (x) = 0.19964 0.18923
# Poissons Ratio (y) = 0.17784 0.29133
# Poissons Ratio (z) = 0.47294 0.81735
#
# Static dielectric constant tensor:
#      x y z
#    x 3.379520 0.000000 0.000000 
#    y 0.000000 3.631220 0.000000 
#    z 0.000000 0.000000 3.242020 
# 
# 
# High freq. dielectric constant tensor:
#      x y z
#    x 1.723710 0.000000 0.000000 
#    y 0.000000 1.748580 0.000000 
#    z 0.000000 0.000000 1.718740 
# 
# From -- ./inp_files/13968.got.cif
#   From: 2010.03.12/outbox.cif.g09.slc.cpg/sg65_7_cif.got.tgz:13968.got - 2010.04.10 20:52:16.
