data_PCOD8269220
_publ_section_title
;
Structure prediction by ZEFSAII (Michael W. Deem and Ramdas Pophale) SiO2 
 PCOD8269220
Probable space group: C M M M
;
_chemical_formula_sum "Si O2"
_cell_formula_units_Z 96
_cell_length_a 22.693284
_cell_length_b 24.206537
_cell_length_c 9.158559
_cell_angle_alpha 90.000000
_cell_angle_beta 90.000000
_cell_angle_gamma 90.000000
_cell_volume 5031.032922
_symmetry_space_group_name_H-M "C M M M"
_symmetry_group_IT_number 65
_symmetry_cell_setting 'orthorhombic'
loop_
_space_group_symop_operation_xyz
x,y,z
-x,-y,z
x,-y,-z
-x,y,-z
-x,-y,-z
x,y,-z
-x,y,z
x,-y,z
1/2+x,1/2+y,z
1/2-x,1/2-y,z
1/2+x,1/2-y,-z
1/2-x,1/2+y,-z
1/2-x,1/2-y,-z
1/2+x,1/2+y,-z
1/2-x,1/2+y,z
1/2+x,1/2-y,z
loop_
_atom_site_type_symbol
_atom_site_label
_atom_site_fract_x
_atom_site_fract_y
_atom_site_fract_z
Si Si1 0.612955 0.300288 0.167307
Si Si2 0.727709 0.000000 0.168244
Si Si3 0.065935 0.083551 0.833302
Si Si4 0.352547 0.500000 0.325952
Si Si5 0.769845 0.812334 0.334343
Si Si6 0.175476 0.616169 0.169433
Si Si7 0.935013 0.315831 0.827291
O O1 0.566578 0.350057 0.183331
O O2 0.669271 0.320916 0.253850
O O3 0.586773 0.243604 0.234399
O O4 0.631472 0.290293 0.000000
O O5 0.785725 0.000000 0.267644
O O6 0.685378 0.948203 0.202153
O O7 0.748737 0.000000 0.000000
O O8 0.000000 0.063706 0.792566
O O9 0.113260 0.054369 0.729040
O O10 0.081109 0.067007 0.000000
O O11 0.350603 0.500000 0.500000
O O12 0.777697 0.831609 0.500000
O O13 0.750000 0.750000 0.321123
O O14 0.721650 0.850224 0.261688
O O15 0.109779 0.635169 0.218330
O O16 0.185376 0.630362 0.000000
O O17 0.000000 0.329114 0.762321
O O18 0.939663 0.310887 0.000000
#
# Coordination Sequence:
#
# PCOD8269220 Si02
#       7
#    16   8  16   8  16  16  16
#     4  10  19  33  56  83 110 142 182 221 266 325
#     4  10  22  39  58  82 110 143 183 228 275 326
#     4  10  21  37  57  81 110 145 183 225 271 322
#     4  12  25  39  56  78 105 143 189 230 273 322
#     4  11  22  34  51  79 114 145 179 226 276 322
#     4  10  20  36  58  82 110 144 183 223 269 325
#     4   9  17  31  54  83 111 139 174 218 266 319
#
# _framework density 19.081568999999998
#
# number of rings (size 3 to 8) (size 9 to 14) (size 15 to 20)
#    0.000    1.833    1.667    3.000    0.000    9.333 
#    0.000    0.417    0.000    5.500    0.000    0.000 
#    0.000    2.000    0.000    0.000    0.000    0.000 
#
# Total GULP energy -595168.346322 kJ/mol
# GULP energy per Si atom -12399.340548 kJ/mol
# Density = 1.903814 g / cm^3
# Si number density = 19.081569 Si / 1000 Ang^3
#
#
#
# Elastic Constant Matrix: (Units=GPa)
#
#
# Indices 1 2 3 4 5 6 
#
# 1 136.5501 78.0993 48.1548 0.0000 0.0000 0.0000
# 2 78.0993 121.6903 52.0461 0.0000 0.0000 0.0000
# 3 48.1548 52.0461 76.1476 0.0000 0.0000 0.0000
# 4 0.0000 0.0000 0.0000 13.9297 0.0000 0.0000
# 5 0.0000 0.0000 0.0000 0.0000 -1.9600 0.0000
# 6 0.0000 0.0000 0.0000 0.0000 0.0000 28.1814
#
#
#
# Elastic Compliance Matrix: (Units=1/GPa)
#
#
# Indices 1 2 3 4 5 6 
#
# 1 0.012138 -0.006369 -0.003323 0.000000 0.000000 0.000000
# 2 -0.006369 0.014954 -0.006193 0.000000 0.000000 0.000000
# 3 -0.003323 -0.006193 0.019467 0.000000 0.000000 0.000000
# 4 0.000000 0.000000 0.000000 0.071789 0.000000 0.000000
# 5 0.000000 0.000000 0.000000 0.000000 -0.510194 0.000000
# 6 0.000000 0.000000 0.000000 0.000000 0.000000 0.035484
#
#
# Mechanical properties :
#
#
# Convention : Reuss Voigt Hill
#
# Bulk Modulus (GPa) = 67.61928 76.77648 72.19788
# Shear Modulus (GPa) = -15.64145 18.43606 1.39731
#
# Velocity S-wave (km/s) = -2.86617 3.11170 0.85666
# Velocity P-wave (km/s) = 4.95587 7.29613 6.23675
#
# Compressibility (1/GPa) = 0.01478868
#
# Stress axis : x y z
#
# Youngs Moduli (GPa) = 82.38844 66.87298 51.36972
#
# Poissons Ratio (x) = 0.42589 0.17069
# Poissons Ratio (y) = 0.52470 0.31815
# Poissons Ratio (z) = 0.27376 0.41416
#
# Static dielectric constant tensor:
#      x y z
#    x 3.719790 0.000000 0.000000 
#    y 0.000000 3.565590 0.000000 
#    z 0.000000 0.000000 3.307260 
# 
# 
# High freq. dielectric constant tensor:
#      x y z
#    x 1.745460 0.000000 0.000000 
#    y 0.000000 1.748670 0.000000 
#    z 0.000000 0.000000 1.712210 
# 
# From -- ./inp_files/14394.got.cif
#   From: 2010.03.12/outbox.cif.g09.slc.cpg/sg65_8_cif.got.tgz:14394.got - 2010.04.10 20:52:16.
