data_PCOD8269473
_publ_section_title
;
Structure prediction by ZEFSAII (Michael W. Deem and Ramdas Pophale) SiO2 
 PCOD8269473
Probable space group: C M M M
;
_chemical_formula_sum "Si O2"
_cell_formula_units_Z 56
_cell_length_a 18.709687
_cell_length_b 8.878329
_cell_length_c 17.894840
_cell_angle_alpha 90.000000
_cell_angle_beta 90.000000
_cell_angle_gamma 90.000000
_cell_volume 2972.525413
_symmetry_space_group_name_H-M "C M M M"
_symmetry_group_IT_number 65
_symmetry_cell_setting 'orthorhombic'
loop_
_space_group_symop_operation_xyz
x,y,z
-x,-y,z
x,-y,-z
-x,y,-z
-x,-y,-z
x,y,-z
-x,y,z
x,-y,z
1/2+x,1/2+y,z
1/2-x,1/2-y,z
1/2+x,1/2-y,-z
1/2-x,1/2+y,-z
1/2-x,1/2-y,-z
1/2+x,1/2+y,-z
1/2-x,1/2+y,z
1/2+x,1/2-y,z
loop_
_atom_site_type_symbol
_atom_site_label
_atom_site_fract_x
_atom_site_fract_y
_atom_site_fract_z
Si Si1 0.675299 0.173018 0.000000
Si Si2 0.416217 0.674834 0.292177
Si Si3 0.676024 0.823656 0.413543
Si Si4 0.671893 0.822250 0.838018
O O1 0.750000 0.250000 0.000000
O O2 0.637226 0.212980 0.079140
O O3 0.694009 0.000000 0.000000
O O4 0.500000 0.702479 0.288013
O O5 0.396139 0.500000 0.293840
O O6 0.388496 0.751984 0.367642
O O7 0.381789 0.750526 0.220191
O O8 0.661423 0.787523 0.500000
O O9 0.750000 0.750000 0.386417
O O10 0.680582 0.000000 0.397576
O O11 0.750000 0.750000 0.829291
O O12 0.678376 0.000000 0.823089
#
# Coordination Sequence:
#
# PCOD8269473 Si02
#       4
#     8  16  16  16
#     4   8  16  30  51  80 107 135 173 219 269 316
#     4  11  24  39  54  76 109 147 184 221 265 317
#     4  10  21  38  61  86 110 138 175 219 266 317
#     4  10  19  34  57  82 109 140 178 223 269 319
#
# _framework density 18.839202
#
# number of rings (size 3 to 8) (size 9 to 14) (size 15 to 20)
#    0.000    2.000    0.000    3.429    0.000    5.714 
#    0.000    3.571    0.000    4.286    0.000    0.000 
#    0.000    0.000    0.000    0.000    0.000    0.000 
#
# Total GULP energy -347076.906912 kJ/mol
# GULP energy per Si atom -12395.603818 kJ/mol
# Density = 1.879632 g / cm^3
# Si number density = 18.839202 Si / 1000 Ang^3
#
#
#
# Elastic Constant Matrix: (Units=GPa)
#
#
# Indices 1 2 3 4 5 6 
#
# 1 83.9213 61.2447 66.6131 0.0000 0.0000 0.0000
# 2 61.2447 120.2332 73.1678 0.0000 0.0000 0.0000
# 3 66.6131 73.1678 143.9355 0.0000 0.0000 0.0000
# 4 0.0000 0.0000 0.0000 29.4467 0.0000 0.0000
# 5 0.0000 0.0000 0.0000 0.0000 6.0431 0.0000
# 6 0.0000 0.0000 0.0000 0.0000 0.0000 30.9742
#
#
#
# Elastic Compliance Matrix: (Units=1/GPa)
#
#
# Indices 1 2 3 4 5 6 
#
# 1 0.022695 -0.007484 -0.006699 0.000000 0.000000 0.000000
# 2 -0.007484 0.014510 -0.003913 0.000000 0.000000 0.000000
# 3 -0.006699 -0.003913 0.012037 0.000000 0.000000 0.000000
# 4 0.000000 0.000000 0.000000 0.033960 0.000000 0.000000
# 5 0.000000 0.000000 0.000000 0.000000 0.165478 0.000000
# 6 0.000000 0.000000 0.000000 0.000000 0.000000 0.032285
#
#
# Mechanical properties :
#
#
# Convention : Reuss Voigt Hill
#
# Bulk Modulus (GPa) = 76.62082 83.34905 79.98493
# Shear Modulus (GPa) = 15.55185 23.09708 19.32447
#
# Velocity S-wave (km/s) = 2.87628 3.50524 3.20622
# Velocity P-wave (km/s) = 7.19652 7.79235 7.50035
#
# Compressibility (1/GPa) = 0.01305128
#
# Stress axis : x y z
#
# Youngs Moduli (GPa) = 44.06316 68.91654 83.07913
#
# Poissons Ratio (x) = 0.51575 0.55653
# Poissons Ratio (y) = 0.32976 0.32506
# Poissons Ratio (z) = 0.29517 0.26965
#
# Static dielectric constant tensor:
#      x y z
#    x 3.155530 0.000000 0.000000 
#    y 0.000000 3.656980 0.000000 
#    z 0.000000 0.000000 4.210060 
# 
# 
# High freq. dielectric constant tensor:
#      x y z
#    x 1.702040 0.000000 0.000000 
#    y 0.000000 1.750550 0.000000 
#    z 0.000000 0.000000 1.758110 
# 
# From -- ./inp_files/48749.got.cif
#   From: 2010.03.12/outbox.cif.g09.slc.cpg/sg65_25_cif.got.tgz:48749.got - 2010.04.10 20:52:16.
