data_PCOD8269048
_publ_section_title
;
Structure prediction by ZEFSAII (Michael W. Deem and Ramdas Pophale) SiO2 
 PCOD8269048
Probable space group: C M M M
;
_chemical_formula_sum "Si O2"
_cell_formula_units_Z 72
_cell_length_a 18.393322
_cell_length_b 9.224971
_cell_length_c 23.246572
_cell_angle_alpha 90.000000
_cell_angle_beta 90.000000
_cell_angle_gamma 90.000000
_cell_volume 3944.428637
_symmetry_space_group_name_H-M "C M M M"
_symmetry_group_IT_number 65
_symmetry_cell_setting 'orthorhombic'
loop_
_space_group_symop_operation_xyz
x,y,z
-x,-y,z
x,-y,-z
-x,y,-z
-x,-y,-z
x,y,-z
-x,y,z
x,-y,z
1/2+x,1/2+y,z
1/2-x,1/2-y,z
1/2+x,1/2-y,-z
1/2-x,1/2+y,-z
1/2-x,1/2-y,-z
1/2+x,1/2+y,-z
1/2-x,1/2+y,z
1/2+x,1/2-y,z
loop_
_atom_site_type_symbol
_atom_site_label
_atom_site_fract_x
_atom_site_fract_y
_atom_site_fract_z
Si Si1 0.672888 0.670043 0.624899
Si Si2 0.918746 0.672088 0.936077
Si Si3 0.322704 0.335638 0.500000
Si Si4 0.915576 0.333664 0.718607
Si Si5 0.324761 0.830432 0.168753
O O1 0.685339 0.500000 0.636665
O O2 0.750000 0.750000 0.632268
O O3 0.637224 0.697601 0.560829
O O4 0.614918 0.730918 0.669218
O O5 0.921578 0.500000 0.931098
O O6 0.862732 0.733250 0.888855
O O7 0.000000 0.732971 0.924402
O O8 0.892663 0.719291 0.000000
O O9 0.297561 0.500000 0.500000
O O10 0.250000 0.250000 0.500000
O O11 0.901795 0.500000 0.700921
O O12 0.877479 0.296361 0.778468
O O13 0.000000 0.300178 0.726753
O O14 0.250000 0.750000 0.179893
O O15 0.308663 0.000000 0.162730
#
# Coordination Sequence:
#
# PCOD8269048 Si02
#       5
#    16  16   8  16  16
#     4  10  19  33  54  78 103 131 165 204 246 294
#     4   8  14  27  49  74  97 125 164 204 239 282
#     4   8  16  30  49  74 101 129 161 199 243 290
#     4  10  21  36  52  71  98 132 169 209 253 299
#     4  10  20  33  50  73 100 129 162 203 249 294
#
# _framework density 18.253595000000001
#
# number of rings (size 3 to 8) (size 9 to 14) (size 15 to 20)
#    0.000    2.667    0.000    2.667    0.000    7.111 
#    0.000    0.556    0.000    5.333    0.000    1.556 
#    0.000    0.000    0.000    0.000    0.000    0.000 
#
# Total GULP energy -446152.081928 kJ/mol
# GULP energy per Si atom -12393.113387 kJ/mol
# Density = 1.821205 g / cm^3
# Si number density = 18.253595 Si / 1000 Ang^3
#
#
#
# Elastic Constant Matrix: (Units=GPa)
#
#
# Indices 1 2 3 4 5 6 
#
# 1 117.9895 48.3898 77.7611 0.0000 0.0000 0.0000
# 2 48.3898 59.3424 61.9194 0.0000 0.0000 0.0000
# 3 77.7611 61.9194 159.1047 0.0000 0.0000 0.0000
# 4 0.0000 0.0000 0.0000 -3.2206 0.0000 0.0000
# 5 0.0000 0.0000 0.0000 0.0000-1601.0410 0.0000
# 6 0.0000 0.0000 0.0000 0.0000 0.0000 23.4093
#
#
#
# Elastic Compliance Matrix: (Units=1/GPa)
#
#
# Indices 1 2 3 4 5 6 
#
# 1 0.014152 -0.007279 -0.004084 0.000000 0.000000 0.000000
# 2 -0.007279 0.032116 -0.008941 0.000000 0.000000 0.000000
# 3 -0.004084 -0.008941 0.011761 0.000000 0.000000 0.000000
# 4 0.000000 0.000000 0.000000 -0.310500 0.000000 0.000000
# 5 0.000000 0.000000 0.000000 0.000000 -0.000625 0.000000
# 6 0.000000 0.000000 0.000000 0.000000 0.000000 0.042718
#
#
# Mechanical properties :
#
#
# Convention : Reuss Voigt Hill
#
# Bulk Modulus (GPa) = 57.40169 79.17524 68.28847
# Shear Modulus (GPa) = -30.49496 -306.27938 -168.38717
#
# Velocity S-wave (km/s) = -4.09177 -12.96748 -9.61504
# Velocity P-wave (km/s) = 3.03178 13.44389 9.26138
#
# Compressibility (1/GPa) = 0.01742109
#
# Stress axis : x y z
#
# Youngs Moduli (GPa) = 70.66114 31.13670 85.02691
#
# Poissons Ratio (x) = 0.22663 0.34725
# Poissons Ratio (y) = 0.51432 0.76027
# Poissons Ratio (z) = 0.28858 0.27841
#
# Static dielectric constant tensor:
#      x y z
#    x 3.195570 0.000000 0.000000 
#    y 0.000000 3.143660 0.000000 
#    z 0.000000 0.000000 4.057190 
# 
# 
# High freq. dielectric constant tensor:
#      x y z
#    x 1.689590 0.000000 0.000000 
#    y 0.000000 1.682740 0.000000 
#    z 0.000000 0.000000 1.731510 
# 
# From -- ./inp_files/64293.got.cif
#   From: 2010.03.12/outbox.cif.g09.slc.cpg/sg65_33_cif.got.tgz:64293.got - 2010.04.10 20:52:16.
