data_PCOD8269079
_publ_section_title
;
Structure prediction by ZEFSAII (Michael W. Deem and Ramdas Pophale) SiO2 
 PCOD8269079
Probable space group: C M M M
;
_chemical_formula_sum "Si O2"
_cell_formula_units_Z 104
_cell_length_a 8.948902
_cell_length_b 19.548332
_cell_length_c 32.690255
_cell_angle_alpha 90.000000
_cell_angle_beta 90.000000
_cell_angle_gamma 90.000000
_cell_volume 5718.705957
_symmetry_space_group_name_H-M "C M M M"
_symmetry_group_IT_number 65
_symmetry_cell_setting 'orthorhombic'
loop_
_space_group_symop_operation_xyz
x,y,z
-x,-y,z
x,-y,-z
-x,y,-z
-x,-y,-z
x,y,-z
-x,y,z
x,-y,z
1/2+x,1/2+y,z
1/2-x,1/2-y,z
1/2+x,1/2-y,-z
1/2-x,1/2+y,-z
1/2-x,1/2-y,-z
1/2+x,1/2+y,-z
1/2-x,1/2+y,z
1/2+x,1/2-y,z
loop_
_atom_site_type_symbol
_atom_site_label
_atom_site_fract_x
_atom_site_fract_y
_atom_site_fract_z
Si Si1 0.823461 0.175315 0.088883
Si Si2 0.670621 0.320602 0.000000
Si Si3 0.825157 0.579569 0.155132
Si Si4 0.826196 0.318779 0.604933
Si Si5 0.329027 0.420261 0.453654
Si Si6 0.327108 0.580118 0.760557
Si Si7 0.176396 0.320353 0.698827
O O1 0.750000 0.250000 0.093826
O O2 0.748702 0.122548 0.119338
O O3 0.000000 0.181312 0.097736
O O4 0.791487 0.142643 0.043282
O O5 0.750000 0.250000 0.000000
O O6 0.500000 0.300539 0.000000
O O7 0.793778 0.500000 0.146384
O O8 0.749906 0.602883 0.197343
O O9 0.000000 0.595610 0.157695
O O10 0.750000 0.250000 0.588451
O O11 0.778174 0.382165 0.577518
O O12 0.780608 0.333475 0.651694
O O13 0.000000 0.307402 0.600517
O O14 0.292103 0.397696 0.500000
O O15 0.500000 0.402634 0.443140
O O16 0.298193 0.500000 0.448224
O O17 0.500000 0.601455 0.762161
O O18 0.306779 0.500000 0.752962
O O19 0.244982 0.616986 0.723478
O O20 0.250000 0.250000 0.714469
O O21 0.000000 0.316524 0.705896
#
# Coordination Sequence:
#
# PCOD8269079 Si02
#       7
#    16   8  16  16  16  16  16
#     4  10  19  33  54  79 106 136 174 216 259 309
#     4   8  16  30  49  74 103 135 169 211 259 304
#     4  10  21  37  55  76 105 139 174 215 262 308
#     4  10  21  36  55  79 107 140 176 215 260 310
#     4   9  19  36  56  78 106 140 177 218 263 309
#     4  10  21  37  57  80 105 136 174 213 257 311
#     4  10  21  37  56  79 108 139 173 215 261 308
#
# _framework density 18.185931
#
# number of rings (size 3 to 8) (size 9 to 14) (size 15 to 20)
#    0.000    2.308    0.000    2.769    0.000    6.462 
#    0.000    7.308    0.000    2.308    0.000    0.000 
#    0.000    0.000    0.000    0.000    0.000    0.000 
#
# Total GULP energy -644728.599617 kJ/mol
# GULP energy per Si atom -12398.626916 kJ/mol
# Density = 1.814454 g / cm^3
# Si number density = 18.185931 Si / 1000 Ang^3
#
#
#
# Elastic Constant Matrix: (Units=GPa)
#
#
# Indices 1 2 3 4 5 6 
#
# 1 100.2489 46.0049 61.5295 0.0000 0.0000 0.0000
# 2 46.0049 66.4963 60.4404 0.0000 0.0000 0.0000
# 3 61.5295 60.4404 115.7091 0.0000 0.0000 0.0000
# 4 0.0000 0.0000 0.0000 47.6500 0.0000 0.0000
# 5 0.0000 0.0000 0.0000 0.0000 34.5366 0.0000
# 6 0.0000 0.0000 0.0000 0.0000 0.0000 35.7341
#
#
#
# Elastic Compliance Matrix: (Units=1/GPa)
#
#
# Indices 1 2 3 4 5 6 
#
# 1 0.016122 -0.006400 -0.005230 0.000000 0.000000 0.000000
# 2 -0.006400 0.031173 -0.012880 0.000000 0.000000 0.000000
# 3 -0.005230 -0.012880 0.018151 0.000000 0.000000 0.000000
# 4 0.000000 0.000000 0.000000 0.020986 0.000000 0.000000
# 5 0.000000 0.000000 0.000000 0.000000 0.028955 0.000000
# 6 0.000000 0.000000 0.000000 0.000000 0.000000 0.027984
#
#
# Mechanical properties :
#
#
# Convention : Reuss Voigt Hill
#
# Bulk Modulus (GPa) = 60.87750 68.71155 64.79452
# Shear Modulus (GPa) = 25.26930 31.21612 28.24271
#
# Velocity S-wave (km/s) = 3.73164 4.14756 3.94508
# Velocity P-wave (km/s) = 7.21904 7.79751 7.51384
#
# Compressibility (1/GPa) = 0.01642643
#
# Stress axis : x y z
#
# Youngs Moduli (GPa) = 62.02563 32.07864 55.09272
#
# Poissons Ratio (x) = 0.20532 0.28813
# Poissons Ratio (y) = 0.39699 0.70959
# Poissons Ratio (z) = 0.32439 0.41317
#
# Static dielectric constant tensor:
#      x y z
#    x 3.498380 0.000000 0.000000 
#    y 0.000000 3.188260 0.000000 
#    z 0.000000 0.000000 3.418820 
# 
# 
# High freq. dielectric constant tensor:
#      x y z
#    x 1.720080 0.000000 0.000000 
#    y 0.000000 1.691470 0.000000 
#    z 0.000000 0.000000 1.715270 
# 
# From -- ./inp_files/73346.got.cif
#   From: 2010.03.12/outbox.cif.g09.slc.cpg/sg65_37_cif.got.tgz:73346.got - 2010.04.10 20:52:16.
