data_PCOD8269811
_publ_section_title
;
Structure prediction by ZEFSAII (Michael W. Deem and Ramdas Pophale) SiO2 
 PCOD8269811
Probable space group: C M M M
;
_chemical_formula_sum "Si O2"
_cell_formula_units_Z 80
_cell_length_a 9.257704
_cell_length_b 27.160923
_cell_length_c 19.118127
_cell_angle_alpha 90.000000
_cell_angle_beta 90.000000
_cell_angle_gamma 90.000000
_cell_volume 4807.210697
_symmetry_space_group_name_H-M "C M M M"
_symmetry_group_IT_number 65
_symmetry_cell_setting 'orthorhombic'
loop_
_space_group_symop_operation_xyz
x,y,z
-x,-y,z
x,-y,-z
-x,y,-z
-x,-y,-z
x,y,-z
-x,y,z
x,-y,z
1/2+x,1/2+y,z
1/2-x,1/2-y,z
1/2+x,1/2-y,-z
1/2-x,1/2+y,-z
1/2-x,1/2-y,-z
1/2+x,1/2+y,-z
1/2-x,1/2+y,z
1/2+x,1/2-y,z
loop_
_atom_site_type_symbol
_atom_site_label
_atom_site_fract_x
_atom_site_fract_y
_atom_site_fract_z
Si Si1 0.833068 0.056858 0.658585
Si Si2 0.328654 0.055308 0.923470
Si Si3 0.832319 0.363989 0.420785
Si Si4 0.169540 0.603165 0.216348
Si Si5 0.333641 0.200937 0.707124
O O1 0.760770 0.087714 0.595993
O O2 0.754656 0.067469 0.731696
O O3 0.000000 0.071964 0.665449
O O4 0.815110 0.000000 0.639007
O O5 0.500000 0.054875 0.924824
O O6 0.274928 0.091998 0.862393
O O7 0.272148 0.000000 0.908093
O O8 0.271169 0.072988 0.000000
O O9 0.802255 0.346939 0.500000
O O10 0.786538 0.319727 0.369026
O O11 0.000000 0.377324 0.408310
O O12 0.202058 0.660051 0.234077
O O13 0.000000 0.591647 0.225336
O O14 0.500000 0.215130 0.707055
O O15 0.250000 0.250000 0.726497
#
# Coordination Sequence:
#
# PCOD8269811 Si02
#       5
#    16  16  16  16  16
#     4  10  20  31  44  66  95 124 153 184 219 263
#     4   8  13  22  41  71  99 119 145 184 225 260
#     4   9  19  35  51  67  88 114 148 188 227 272
#     4   9  17  30  48  68  91 120 154 190 225 265
#     4   9  18  31  47  67  88 113 148 188 229 271
#
# _framework density 16.641666000000001
#
# number of rings (size 3 to 8) (size 9 to 14) (size 15 to 20)
#    0.000    3.000    0.000    3.000    0.000    6.800 
#    0.000    2.000    0.000    1.200    0.000    2.800 
#    0.000    0.000    0.000    0.000    0.000    0.400 
#
# Total GULP energy -495844.793165 kJ/mol
# GULP energy per Si atom -12396.119829 kJ/mol
# Density = 1.660379 g / cm^3
# Si number density = 16.641666 Si / 1000 Ang^3
#
#
#
# Elastic Constant Matrix: (Units=GPa)
#
#
# Indices 1 2 3 4 5 6 
#
# 1 46.8989 35.9213 22.0462 0.0000 0.0000 0.0000
# 2 35.9213 96.6344 53.5635 0.0000 0.0000 0.0000
# 3 22.0462 53.5635 133.9496 0.0000 0.0000 0.0000
# 4 0.0000 0.0000 0.0000 17.9238 0.0000 0.0000
# 5 0.0000 0.0000 0.0000 0.0000 6.6440 0.0000
# 6 0.0000 0.0000 0.0000 0.0000 0.0000 28.2717
#
#
#
# Elastic Compliance Matrix: (Units=1/GPa)
#
#
# Indices 1 2 3 4 5 6 
#
# 1 0.029849 -0.010757 -0.000611 0.000000 0.000000 0.000000
# 2 -0.010757 0.017171 -0.005096 0.000000 0.000000 0.000000
# 3 -0.000611 -0.005096 0.009604 0.000000 0.000000 0.000000
# 4 0.000000 0.000000 0.000000 0.055792 0.000000 0.000000
# 5 0.000000 0.000000 0.000000 0.000000 0.150512 0.000000
# 6 0.000000 0.000000 0.000000 0.000000 0.000000 0.035371
#
#
# Mechanical properties :
#
#
# Convention : Reuss Voigt Hill
#
# Bulk Modulus (GPa) = 42.20123 55.61608 48.90865
# Shear Modulus (GPa) = 14.74382 21.63137 18.18760
#
# Velocity S-wave (km/s) = 2.97973 3.60923 3.30948
# Velocity P-wave (km/s) = 6.10346 7.13169 6.63752
#
# Compressibility (1/GPa) = 0.02369599
#
# Stress axis : x y z
#
# Youngs Moduli (GPa) = 33.50237 58.23614 104.12403
#
# Poissons Ratio (x) = 0.62642 0.06365
# Poissons Ratio (y) = 0.36037 0.53063
# Poissons Ratio (z) = 0.02048 0.29678
#
# Static dielectric constant tensor:
#      x y z
#    x 2.963040 0.000000 0.000000 
#    y 0.000000 2.973950 0.000000 
#    z 0.000000 0.000000 3.462780 
# 
# 
# High freq. dielectric constant tensor:
#      x y z
#    x 1.621320 0.000000 0.000000 
#    y 0.000000 1.626120 0.000000 
#    z 0.000000 0.000000 1.641060 
# 
# From -- ./inp_files/49837.got.cif
#   From: 2010.03.12/outbox.cif.g09.slc.cpg/sg65_25_cif.got.tgz:49837.got - 2010.04.10 20:52:16.
