data_PCOD8269687
_publ_section_title
;
Structure prediction by ZEFSAII (Michael W. Deem and Ramdas Pophale) SiO2 
 PCOD8269687
Probable space group: C M M M
;
_chemical_formula_sum "Si O2"
_cell_formula_units_Z 104
_cell_length_a 21.499362
_cell_length_b 24.151250
_cell_length_c 9.934678
_cell_angle_alpha 90.000000
_cell_angle_beta 90.000000
_cell_angle_gamma 90.000000
_cell_volume 5158.447101
_symmetry_space_group_name_H-M "C M M M"
_symmetry_group_IT_number 65
_symmetry_cell_setting 'orthorhombic'
loop_
_space_group_symop_operation_xyz
x,y,z
-x,-y,z
x,-y,-z
-x,y,-z
-x,-y,-z
x,y,-z
-x,y,z
x,-y,z
1/2+x,1/2+y,z
1/2-x,1/2-y,z
1/2+x,1/2-y,-z
1/2-x,1/2+y,-z
1/2-x,1/2-y,-z
1/2+x,1/2+y,-z
1/2-x,1/2+y,z
1/2+x,1/2-y,z
loop_
_atom_site_type_symbol
_atom_site_label
_atom_site_fract_x
_atom_site_fract_y
_atom_site_fract_z
Si Si1 0.112888 0.184641 0.653085
Si Si2 0.283056 0.000000 0.348589
Si Si3 0.247565 0.313297 0.655169
Si Si4 0.663312 0.500000 0.158147
Si Si5 0.851618 0.393079 0.256650
Si Si6 0.573686 0.934067 0.000000
Si Si7 0.069158 0.095743 0.152774
Si Si8 0.933514 0.700125 0.652117
O O1 0.088793 0.177920 0.500000
O O2 0.183184 0.162687 0.662603
O O3 0.070379 0.148521 0.750506
O O4 0.109166 0.248824 0.704183
O O5 0.327486 0.052741 0.331918
O O6 0.255562 0.000000 0.500000
O O7 0.227200 0.000000 0.241577
O O8 0.221727 0.316668 0.500000
O O9 0.250000 0.250000 0.703608
O O10 0.206630 0.350437 0.757841
O O11 0.621748 0.552549 0.197800
O O12 0.680662 0.500000 0.000000
O O13 0.887350 0.409068 0.122002
O O14 0.901938 0.359705 0.342299
O O15 0.500000 0.916829 0.000000
O O16 0.578718 0.000000 0.000000
O O17 0.000000 0.069119 0.163481
O O18 0.081987 0.115036 0.000000
O O19 0.947844 0.713588 0.500000
O O20 0.000000 0.699175 0.730204
#
# Coordination Sequence:
#
# PCOD8269687 Si02
#       8
#    16   8  16   8  16   8  16  16
#     4  10  20  37  60  91 128 170 210 254 320 383
#     4  12  26  41  67 100 130 160 206 273 324 378
#     4  10  19  36  63  93 129 167 204 259 325 387
#     4  10  23  42  66  88 123 169 213 257 320 386
#     4  12  23  42  65  93 126 165 214 258 320 385
#     4  11  26  50  71  90 126 180 225 265 323 394
#     4  10  21  39  61  88 122 166 217 266 311 369
#     4  10  20  36  61  90 122 162 210 263 317 376
#
# _framework density 20.161106
#
# number of rings (size 3 to 8) (size 9 to 14) (size 15 to 20)
#    0.000    1.462    2.308    3.462    1.077    3.692 
#    2.769    0.385    0.000    3.231    0.000    0.000 
#    0.000    0.000    0.000    0.000    0.000    0.000 
#
# Total GULP energy -644347.460396 kJ/mol
# GULP energy per Si atom -12391.297315 kJ/mol
# Density = 2.011522 g / cm^3
# Si number density = 20.161106 Si / 1000 Ang^3
#
#
#
# Elastic Constant Matrix: (Units=GPa)
#
#
# Indices 1 2 3 4 5 6 
#
# 1 134.7965 59.9598 51.2554 0.0000 0.0000 0.0000
# 2 59.9598 141.4885 53.1307 0.0000 0.0000 0.0000
# 3 51.2554 53.1307 82.6301 0.0000 0.0000 0.0000
# 4 0.0000 0.0000 0.0000 16.4514 0.0000 0.0000
# 5 0.0000 0.0000 0.0000 0.0000 34.1115 0.0000
# 6 0.0000 0.0000 0.0000 0.0000 0.0000 36.8129
#
#
#
# Elastic Compliance Matrix: (Units=1/GPa)
#
#
# Indices 1 2 3 4 5 6 
#
# 1 0.010394 -0.002615 -0.004766 0.000000 0.000000 0.000000
# 2 -0.002615 0.009975 -0.004792 0.000000 0.000000 0.000000
# 3 -0.004766 -0.004792 0.018140 0.000000 0.000000 0.000000
# 4 0.000000 0.000000 0.000000 0.060785 0.000000 0.000000
# 5 0.000000 0.000000 0.000000 0.000000 0.029316 0.000000
# 6 0.000000 0.000000 0.000000 0.000000 0.000000 0.027164
#
#
# Mechanical properties :
#
#
# Convention : Reuss Voigt Hill
#
# Bulk Modulus (GPa) = 70.60615 76.40076 73.50345
# Shear Modulus (GPa) = 27.05024 30.44643 28.74834
#
# Velocity S-wave (km/s) = 3.66690 3.89029 3.78025
# Velocity P-wave (km/s) = 7.28184 7.62604 7.45593
#
# Compressibility (1/GPa) = 0.01416307
#
# Stress axis : x y z
#
# Youngs Moduli (GPa) = 96.20898 100.24671 55.12788
#
# Poissons Ratio (x) = 0.26216 0.26273
# Poissons Ratio (y) = 0.25160 0.26417
# Poissons Ratio (z) = 0.45852 0.48038
#
# Static dielectric constant tensor:
#      x y z
#    x 3.947470 0.000000 0.000000 
#    y 0.000000 3.738540 0.000000 
#    z 0.000000 0.000000 3.406440 
# 
# 
# High freq. dielectric constant tensor:
#      x y z
#    x 1.808650 0.000000 0.000000 
#    y 0.000000 1.793350 0.000000 
#    z 0.000000 0.000000 1.753580 
# 
# From -- ./inp_files/12470.got.cif
#   From: 2010.03.12/outbox.cif.g09.slc.cpg/sg65_7_cif.got.tgz:12470.got - 2010.04.10 20:52:16.
