data_PCOD8269586
_publ_section_title
;
Structure prediction by ZEFSAII (Michael W. Deem and Ramdas Pophale) SiO2 
 PCOD8269586
Probable space group: C M M M
;
_chemical_formula_sum "Si O2"
_cell_formula_units_Z 80
_cell_length_a 21.463632
_cell_length_b 23.001506
_cell_length_c 7.745713
_cell_angle_alpha 90.000000
_cell_angle_beta 90.000000
_cell_angle_gamma 90.000000
_cell_volume 3824.026443
_symmetry_space_group_name_H-M "C M M M"
_symmetry_group_IT_number 65
_symmetry_cell_setting 'orthorhombic'
loop_
_space_group_symop_operation_xyz
x,y,z
-x,-y,z
x,-y,-z
-x,y,-z
-x,-y,-z
x,y,-z
-x,y,z
x,-y,z
1/2+x,1/2+y,z
1/2-x,1/2-y,z
1/2+x,1/2-y,-z
1/2-x,1/2+y,-z
1/2-x,1/2-y,-z
1/2+x,1/2+y,-z
1/2-x,1/2+y,z
1/2+x,1/2-y,z
loop_
_atom_site_type_symbol
_atom_site_label
_atom_site_fract_x
_atom_site_fract_y
_atom_site_fract_z
Si Si1 0.873251 0.876468 0.295041
Si Si2 0.749690 0.434774 0.198954
Si Si3 0.319620 0.255949 0.295976
Si Si4 0.862915 0.367519 0.694020
Si Si5 0.500000 0.566427 0.705639
Si Si6 0.426634 0.934259 0.000000
O O1 0.873673 0.876163 0.500000
O O2 0.822557 0.921650 0.226650
O O3 0.855860 0.812349 0.222071
O O4 0.939808 0.898520 0.224132
O O5 0.762438 0.500000 0.262542
O O6 0.792145 0.391394 0.310104
O O7 0.768926 0.427414 0.000000
O O8 0.313058 0.261339 0.500000
O O9 0.250000 0.250000 0.215215
O O10 0.360557 0.199655 0.246628
O O11 0.890516 0.373171 0.500000
O O12 0.905014 0.402990 0.825894
O O13 0.500000 0.500000 0.775911
O O14 0.500000 0.565196 0.500000
O O15 0.500000 0.934189 0.000000
O O16 0.400156 0.000000 0.000000
#
# Coordination Sequence:
#
# PCOD8269586 Si02
#       6
#    16  16  16  16   8   8
#     4  10  19  35  57  82 117 160 208 259 310 366
#     4  11  22  35  54  86 124 156 200 261 316 370
#     4   9  17  33  57  88 122 153 196 253 308 367
#     4  11  22  40  66  94 125 161 204 253 312 379
#     4   9  18  32  53  83 117 159 211 256 302 366
#     4  11  26  48  67  90 128 163 202 259 315 379
#
# _framework density 20.920356000000002
#
# number of rings (size 3 to 8) (size 9 to 14) (size 15 to 20)
#    0.000    1.800    3.000    1.800    0.000    4.000 
#    3.600    3.000    0.000    1.800    0.000    0.000 
#    0.000    0.000    0.000    0.000    0.000    0.000 
#
# Total GULP energy -496014.310436 kJ/mol
# GULP energy per Si atom -12400.357761 kJ/mol
# Density = 2.087274 g / cm^3
# Si number density = 20.920356 Si / 1000 Ang^3
#
#
#
# Elastic Constant Matrix: (Units=GPa)
#
#
# Indices 1 2 3 4 5 6 
#
# 1 97.8752 65.6936 15.8516 0.0000 0.0000 0.0000
# 2 65.6936 165.5670 31.9007 0.0000 0.0000 0.0000
# 3 15.8516 31.9007 62.4895 0.0000 0.0000 0.0000
# 4 0.0000 0.0000 0.0000 11.9288 0.0000 0.0000
# 5 0.0000 0.0000 0.0000 0.0000 18.6607 0.0000
# 6 0.0000 0.0000 0.0000 0.0000 0.0000 34.7967
#
#
#
# Elastic Compliance Matrix: (Units=1/GPa)
#
#
# Indices 1 2 3 4 5 6 
#
# 1 0.013961 -0.005387 -0.000791 0.000000 0.000000 0.000000
# 2 -0.005387 0.008777 -0.003114 0.000000 0.000000 0.000000
# 3 -0.000791 -0.003114 0.017793 0.000000 0.000000 0.000000
# 4 0.000000 0.000000 0.000000 0.083831 0.000000 0.000000
# 5 0.000000 0.000000 0.000000 0.000000 0.053589 0.000000
# 6 0.000000 0.000000 0.000000 0.000000 0.000000 0.028738
#
#
# Mechanical properties :
#
#
# Convention : Reuss Voigt Hill
#
# Bulk Modulus (GPa) = 45.56589 61.42482 53.49536
# Shear Modulus (GPa) = 21.49704 27.24295 24.37000
#
# Velocity S-wave (km/s) = 3.20904 3.61255 3.41676
# Velocity P-wave (km/s) = 5.96310 6.84293 6.41811
#
# Compressibility (1/GPa) = 0.02194624
#
# Stress axis : x y z
#
# Youngs Moduli (GPa) = 71.62822 113.92993 56.20091
#
# Poissons Ratio (x) = 0.61373 0.04448
# Poissons Ratio (y) = 0.38586 0.17503
# Poissons Ratio (z) = 0.05669 0.35481
#
# Static dielectric constant tensor:
#      x y z
#    x 3.777360 0.000000 0.000000 
#    y 0.000000 4.105730 0.000000 
#    z 0.000000 0.000000 3.435930 
# 
# 
# High freq. dielectric constant tensor:
#      x y z
#    x 1.804780 0.000000 0.000000 
#    y 0.000000 1.836150 0.000000 
#    z 0.000000 0.000000 1.799010 
# 
# From -- ./inp_files/11549.got.cif
#   From: 2010.03.12/outbox.cif.g09.slc.cpg/sg65_6_cif.got.tgz:11549.got - 2010.04.10 20:52:16.
