data_PCOD8269227
_publ_section_title
;
Structure prediction by ZEFSAII (Michael W. Deem and Ramdas Pophale) SiO2 
 PCOD8269227
Probable space group: C M M M
;
_chemical_formula_sum "Si O2"
_cell_formula_units_Z 64
_cell_length_a 10.815052
_cell_length_b 33.147346
_cell_length_c 8.285436
_cell_angle_alpha 90.000000
_cell_angle_beta 90.000000
_cell_angle_gamma 90.000000
_cell_volume 2970.248194
_symmetry_space_group_name_H-M "C M M M"
_symmetry_group_IT_number 65
_symmetry_cell_setting 'orthorhombic'
loop_
_space_group_symop_operation_xyz
x,y,z
-x,-y,z
x,-y,-z
-x,y,-z
-x,-y,-z
x,y,-z
-x,y,z
x,-y,z
1/2+x,1/2+y,z
1/2-x,1/2-y,z
1/2+x,1/2-y,-z
1/2-x,1/2+y,-z
1/2-x,1/2-y,-z
1/2+x,1/2+y,-z
1/2-x,1/2+y,z
1/2+x,1/2-y,z
loop_
_atom_site_type_symbol
_atom_site_label
_atom_site_fract_x
_atom_site_fract_y
_atom_site_fract_z
Si Si1 0.500000 0.455091 0.188763
Si Si2 0.858698 0.500000 0.175156
Si Si3 0.756505 0.667103 0.687784
Si Si4 0.000000 0.200198 0.813050
Si Si5 0.247262 0.580979 0.191354
Si Si6 0.000000 0.711569 0.313111
O O1 0.500000 0.500000 0.269764
O O2 0.612971 0.427491 0.241947
O O3 0.500000 0.462015 0.000000
O O4 0.824360 0.458237 0.263220
O O5 0.000000 0.500000 0.140882
O O6 0.787284 0.500000 0.000000
O O7 0.737222 0.676435 0.500000
O O8 0.626007 0.675683 0.776191
O O9 0.796360 0.620879 0.716741
O O10 0.871629 0.693367 0.759706
O O11 0.000000 0.240774 0.709858
O O12 0.000000 0.211478 0.000000
O O13 0.225219 0.586746 0.000000
O O14 0.000000 0.700219 0.500000
#
# Coordination Sequence:
#
# PCOD8269227 Si02
#       6
#     8   8  16   8  16   8
#     4   9  15  28  50  76 104 141 191 244 297 346
#     4   9  18  31  50  80 117 159 203 252 308 358
#     4  11  24  42  64  91 128 168 205 249 306 372
#     4  12  25  43  68  98 125 154 201 257 312 368
#     4  10  19  33  56  84 116 155 205 257 302 353
#     4  10  24  45  67  91 124 168 206 242 304 377
#
# _framework density 21.547021000000001
#
# number of rings (size 3 to 8) (size 9 to 14) (size 15 to 20)
#    0.000    1.750    1.250    3.375    1.750    6.000 
#    0.000    0.625    0.000    1.500    0.000    0.000 
#    0.000    0.000    0.000    0.000    0.000    0.000 
#
# Total GULP energy -396574.426652 kJ/mol
# GULP energy per Si atom -12392.950833 kJ/mol
# Density = 2.149798 g / cm^3
# Si number density = 21.547021 Si / 1000 Ang^3
#
#
#
# Elastic Constant Matrix: (Units=GPa)
#
#
# Indices 1 2 3 4 5 6 
#
# 1 130.3453 42.0746 14.5139 0.0000 0.0000 0.0000
# 2 42.0746 148.6654 -0.1613 0.0000 0.0000 0.0000
# 3 14.5139 -0.1613 33.1223 0.0000 0.0000 0.0000
# 4 0.0000 0.0000 0.0000 36.7556 0.0000 0.0000
# 5 0.0000 0.0000 0.0000 0.0000 5.3649 0.0000
# 6 0.0000 0.0000 0.0000 0.0000 0.0000 24.3945
#
#
#
# Elastic Compliance Matrix: (Units=1/GPa)
#
#
# Indices 1 2 3 4 5 6 
#
# 1 0.008926 -0.002530 -0.003923 0.000000 0.000000 0.000000
# 2 -0.002530 0.007444 0.001145 0.000000 0.000000 0.000000
# 3 -0.003923 0.001145 0.031916 0.000000 0.000000 0.000000
# 4 0.000000 0.000000 0.000000 0.027207 0.000000 0.000000
# 5 0.000000 0.000000 0.000000 0.000000 0.186396 0.000000
# 6 0.000000 0.000000 0.000000 0.000000 0.000000 0.040993
#
#
# Mechanical properties :
#
#
# Convention : Reuss Voigt Hill
#
# Bulk Modulus (GPa) = 26.54781 47.22080 36.88431
# Shear Modulus (GPa) = 15.33487 30.35007 22.84247
#
# Velocity S-wave (km/s) = 2.67065 3.75714 3.25948
# Velocity P-wave (km/s) = 4.67520 6.38626 5.59650
#
# Compressibility (1/GPa) = 0.03766789
#
# Stress axis : x y z
#
# Youngs Moduli (GPa) = 112.03751 134.33850 31.33233
#
# Poissons Ratio (x) = 0.33992 0.12293
# Poissons Ratio (y) = 0.28349 -0.03588
# Poissons Ratio (z) = 0.43957 -0.15382
#
# Static dielectric constant tensor:
#      x y z
#    x 3.880840 0.000000 0.000000 
#    y 0.000000 3.984360 0.000000 
#    z 0.000000 0.000000 3.381170 
# 
# 
# High freq. dielectric constant tensor:
#      x y z
#    x 1.858960 0.000000 0.000000 
#    y 0.000000 1.863290 0.000000 
#    z 0.000000 0.000000 1.797540 
# 
# From -- ./inp_files/5047.got.cif
#   From: 2010.03.12/outbox.cif.g09.slc.cpg/sg65_3_cif.got.tgz:5047.got - 2010.04.10 20:52:16.
