data_PCOD8269857
_publ_section_title
;
Structure prediction by ZEFSAII (Michael W. Deem and Ramdas Pophale) SiO2 
 PCOD8269857
Probable space group: C M M M
;
_chemical_formula_sum "Si O2"
_cell_formula_units_Z 72
_cell_length_a 9.629517
_cell_length_b 28.568327
_cell_length_c 15.253011
_cell_angle_alpha 90.000000
_cell_angle_beta 90.000000
_cell_angle_gamma 90.000000
_cell_volume 4196.090979
_symmetry_space_group_name_H-M "C M M M"
_symmetry_group_IT_number 65
_symmetry_cell_setting 'orthorhombic'
loop_
_space_group_symop_operation_xyz
x,y,z
-x,-y,z
x,-y,-z
-x,y,-z
-x,-y,-z
x,y,-z
-x,y,z
x,-y,z
1/2+x,1/2+y,z
1/2-x,1/2-y,z
1/2+x,1/2-y,-z
1/2-x,1/2+y,-z
1/2-x,1/2-y,-z
1/2+x,1/2+y,-z
1/2-x,1/2+y,z
1/2+x,1/2-y,z
loop_
_atom_site_type_symbol
_atom_site_label
_atom_site_fract_x
_atom_site_fract_y
_atom_site_fract_z
Si Si1 0.663985 0.554611 0.689705
Si Si2 0.340143 0.205961 0.100006
Si Si3 0.339316 0.795418 0.599630
Si Si4 0.337807 0.553758 0.500000
Si Si5 0.660996 0.133945 0.248291
O O1 0.500000 0.562670 0.701067
O O2 0.699503 0.500000 0.704847
O O3 0.717945 0.572947 0.593144
O O4 0.748562 0.586511 0.757614
O O5 0.500000 0.220405 0.112215
O O6 0.250000 0.250000 0.130579
O O7 0.302240 0.162136 0.160458
O O8 0.306482 0.191822 0.000000
O O9 0.309860 0.812553 0.500000
O O10 0.500000 0.781752 0.612447
O O11 0.250000 0.750000 0.622555
O O12 0.296077 0.836154 0.666322
O O13 0.299915 0.500000 0.500000
O O14 0.500000 0.561506 0.500000
O O15 0.500000 0.119980 0.251716
#
# Coordination Sequence:
#
# PCOD8269857 Si02
#       5
#    16  16  16   8  16
#     4   9  18  32  49  69  94 125 162 202 238 277
#     4   9  18  33  52  74  99 125 156 196 240 285
#     4   9  18  31  44  62  92 125 155 187 224 272
#     4   7  12  26  45  63  86 117 154 195 234 269
#     4  10  20  31  47  71  97 125 156 195 240 285
#
# _framework density 17.158828
#
# number of rings (size 3 to 8) (size 9 to 14) (size 15 to 20)
#    0.000    3.000    0.000    2.000    1.556    2.222 
#    0.000    0.000    0.000    2.667    0.000    4.667 
#    0.000    0.000    0.000    0.000    0.000    0.000 
#
# Total GULP energy -446138.914933 kJ/mol
# GULP energy per Si atom -12392.747637 kJ/mol
# Density = 1.711977 g / cm^3
# Si number density = 17.158828 Si / 1000 Ang^3
#
#
#
# Elastic Constant Matrix: (Units=GPa)
#
#
# Indices 1 2 3 4 5 6 
#
# 1 59.2944 62.2288 40.5521 0.0000 0.0000 0.0000
# 2 62.2288 111.5927 59.3676 0.0000 0.0000 0.0000
# 3 40.5521 59.3676 81.3550 0.0000 0.0000 0.0000
# 4 0.0000 0.0000 0.0000 23.2962 0.0000 0.0000
# 5 0.0000 0.0000 0.0000 0.0000 18.8540 0.0000
# 6 0.0000 0.0000 0.0000 0.0000 0.0000 35.0957
#
#
#
# Elastic Compliance Matrix: (Units=1/GPa)
#
#
# Indices 1 2 3 4 5 6 
#
# 1 0.042591 -0.020361 -0.006372 0.000000 0.000000 0.000000
# 2 -0.020361 0.024381 -0.007643 0.000000 0.000000 0.000000
# 3 -0.006372 -0.007643 0.021045 0.000000 0.000000 0.000000
# 4 0.000000 0.000000 0.000000 0.042926 0.000000 0.000000
# 5 0.000000 0.000000 0.000000 0.000000 0.053039 0.000000
# 6 0.000000 0.000000 0.000000 0.000000 0.000000 0.028493
#
#
# Mechanical properties :
#
#
# Convention : Reuss Voigt Hill
#
# Bulk Modulus (GPa) = 51.90357 64.05989 57.98173
# Shear Modulus (GPa) = 17.38231 21.45543 19.41887
#
# Velocity S-wave (km/s) = 3.18626 3.53994 3.36774
# Velocity P-wave (km/s) = 6.62200 7.35682 6.99906
#
# Compressibility (1/GPa) = 0.01926650
#
# Stress axis : x y z
#
# Youngs Moduli (GPa) = 23.47904 41.01530 47.51676
#
# Poissons Ratio (x) = 0.83510 0.30278
# Poissons Ratio (y) = 0.47805 0.36316
# Poissons Ratio (z) = 0.14961 0.31347
#
# Static dielectric constant tensor:
#      x y z
#    x 3.058610 0.000000 0.000000 
#    y 0.000000 2.982100 0.000000 
#    z 0.000000 0.000000 3.324690 
# 
# 
# High freq. dielectric constant tensor:
#      x y z
#    x 1.651900 0.000000 0.000000 
#    y 0.000000 1.647330 0.000000 
#    z 0.000000 0.000000 1.655780 
# 
# From -- ./inp_files/37020.got.cif
#   From: 2010.03.12/outbox.cif.g09.slc.cpg/sg65_19_cif.got.tgz:37020.got - 2010.04.10 20:52:16.
