data_PCOD8269840
_publ_section_title
;
Structure prediction by ZEFSAII (Michael W. Deem and Ramdas Pophale) SiO2 
 PCOD8269840
Probable space group: C M M M
;
_chemical_formula_sum "Si O2"
_cell_formula_units_Z 88
_cell_length_a 30.301553
_cell_length_b 9.107329
_cell_length_c 17.644180
_cell_angle_alpha 90.000000
_cell_angle_beta 90.000000
_cell_angle_gamma 90.000000
_cell_volume 4869.197525
_symmetry_space_group_name_H-M "C M M M"
_symmetry_group_IT_number 65
_symmetry_cell_setting 'orthorhombic'
loop_
_space_group_symop_operation_xyz
x,y,z
-x,-y,z
x,-y,-z
-x,y,-z
-x,-y,-z
x,y,-z
-x,y,z
x,-y,z
1/2+x,1/2+y,z
1/2-x,1/2-y,z
1/2+x,1/2-y,-z
1/2-x,1/2+y,-z
1/2-x,1/2-y,-z
1/2+x,1/2+y,-z
1/2-x,1/2+y,z
1/2+x,1/2-y,z
loop_
_atom_site_type_symbol
_atom_site_label
_atom_site_fract_x
_atom_site_fract_y
_atom_site_fract_z
Si Si1 0.950891 0.674424 0.085726
Si Si2 0.166509 0.831920 0.416865
Si Si3 0.622413 0.833840 0.200107
Si Si4 0.500000 0.327179 0.586738
Si Si5 0.415214 0.835385 0.366002
Si Si6 0.705324 0.327260 0.741634
O O1 0.950966 0.500000 0.091958
O O2 0.911819 0.736119 0.139267
O O3 0.000000 0.731590 0.109910
O O4 0.940793 0.725189 0.000000
O O5 0.189537 0.811557 0.500000
O O6 0.123341 0.731633 0.417263
O O7 0.198442 0.787044 0.347560
O O8 0.151401 0.000000 0.405281
O O9 0.597599 0.835352 0.279006
O O10 0.665819 0.732996 0.205920
O O11 0.636539 0.000000 0.177630
O O12 0.500000 0.500000 0.595537
O O13 0.500000 0.276608 0.500000
O O14 0.457802 0.264002 0.628246
O O15 0.424841 0.000000 0.394867
O O16 0.709436 0.500000 0.754437
O O17 0.750000 0.250000 0.768665
#
# Coordination Sequence:
#
# PCOD8269840 Si02
#       6
#    16  16  16   8  16  16
#     4   8  14  26  49  81 111 137 165 197 236 287
#     4   9  18  33  50  67  92 126 161 201 252 306
#     4   9  18  32  52  76 104 133 163 201 247 293
#     4  11  23  35  45  59  86 127 170 210 251 293
#     4  10  20  31  46  69  94 123 162 207 249 291
#     4  10  20  34  52  73  99 129 168 210 254 302
#
# _framework density 18.072793999999998
#
# number of rings (size 3 to 8) (size 9 to 14) (size 15 to 20)
#    0.000    2.636    0.000    2.455    1.273    5.091 
#    0.000    0.000    0.000    1.091    0.000    1.273 
#    0.000    0.000    0.000    0.000    0.000    0.000 
#
# Total GULP energy -545438.028239 kJ/mol
# GULP energy per Si atom -12396.318824 kJ/mol
# Density = 1.803166 g / cm^3
# Si number density = 18.072794 Si / 1000 Ang^3
#
#
#
# Elastic Constant Matrix: (Units=GPa)
#
#
# Indices 1 2 3 4 5 6 
#
# 1 135.3494 49.6680 49.7636 0.0000 0.0000 0.0000
# 2 49.6680 66.6691 20.8395 0.0000 0.0000 0.0000
# 3 49.7636 20.8395 72.5534 0.0000 0.0000 0.0000
# 4 0.0000 0.0000 0.0000 13.9722 0.0000 0.0000
# 5 0.0000 0.0000 0.0000 0.0000 4.9502 0.0000
# 6 0.0000 0.0000 0.0000 0.0000 0.0000 32.0676
#
#
#
# Elastic Compliance Matrix: (Units=1/GPa)
#
#
# Indices 1 2 3 4 5 6 
#
# 1 0.012408 -0.007233 -0.006433 0.000000 0.000000 0.000000
# 2 -0.007233 0.020695 -0.000983 0.000000 0.000000 0.000000
# 3 -0.006433 -0.000983 0.018478 0.000000 0.000000 0.000000
# 4 0.000000 0.000000 0.000000 0.071571 0.000000 0.000000
# 5 0.000000 0.000000 0.000000 0.000000 0.202013 0.000000
# 6 0.000000 0.000000 0.000000 0.000000 0.000000 0.031184
#
#
# Mechanical properties :
#
#
# Convention : Reuss Voigt Hill
#
# Bulk Modulus (GPa) = 44.87827 57.23491 51.05659
# Shear Modulus (GPa) = 12.72027 20.48472 16.60250
#
# Velocity S-wave (km/s) = 2.65587 3.37034 3.03421
# Velocity P-wave (km/s) = 5.85583 6.84715 6.37080
#
# Compressibility (1/GPa) = 0.02228250
#
# Stress axis : x y z
#
# Youngs Moduli (GPa) = 80.59613 48.32037 54.11975
#
# Poissons Ratio (x) = 0.34949 0.34814
# Poissons Ratio (y) = 0.58293 0.05322
# Poissons Ratio (z) = 0.51845 0.04752
#
# Static dielectric constant tensor:
#      x y z
#    x 3.272130 0.000000 0.000000 
#    y 0.000000 3.294080 0.000000 
#    z 0.000000 0.000000 3.315420 
# 
# 
# High freq. dielectric constant tensor:
#      x y z
#    x 1.695370 0.000000 0.000000 
#    y 0.000000 1.687050 0.000000 
#    z 0.000000 0.000000 1.682960 
# 
# From -- ./inp_files/50362.got.cif
#   From: 2010.03.12/outbox.cif.g09.slc.cpg/sg65_26_cif.got.tgz:50362.got - 2010.04.10 20:52:16.
