data_PCOD8269353
_publ_section_title
;
Structure prediction by ZEFSAII (Michael W. Deem and Ramdas Pophale) SiO2 
 PCOD8269353
Probable space group: C M M M
;
_chemical_formula_sum "Si O2"
_cell_formula_units_Z 64
_cell_length_a 7.612582
_cell_length_b 27.694167
_cell_length_c 14.734686
_cell_angle_alpha 90.000000
_cell_angle_beta 90.000000
_cell_angle_gamma 90.000000
_cell_volume 3106.427168
_symmetry_space_group_name_H-M "C M M M"
_symmetry_group_IT_number 65
_symmetry_cell_setting 'orthorhombic'
loop_
_space_group_symop_operation_xyz
x,y,z
-x,-y,z
x,-y,-z
-x,y,-z
-x,-y,-z
x,y,-z
-x,y,z
x,-y,z
1/2+x,1/2+y,z
1/2-x,1/2-y,z
1/2+x,1/2-y,-z
1/2-x,1/2+y,-z
1/2-x,1/2-y,-z
1/2+x,1/2+y,-z
1/2-x,1/2+y,z
1/2+x,1/2-y,z
loop_
_atom_site_type_symbol
_atom_site_label
_atom_site_fract_x
_atom_site_fract_y
_atom_site_fract_z
Si Si1 0.706458 0.305474 0.196187
Si Si2 0.705180 0.694579 0.000000
Si Si3 0.200428 0.397566 0.719574
Si Si4 0.208154 0.554469 0.098294
Si Si5 0.500000 0.555563 0.607172
O O1 0.500000 0.312316 0.198849
O O2 0.750000 0.250000 0.217024
O O3 0.782281 0.324061 0.096950
O O4 0.792405 0.339164 0.273859
O O5 0.750000 0.750000 0.000000
O O6 0.500000 0.686010 0.000000
O O7 0.280127 0.416256 0.815665
O O8 0.323504 0.418016 0.640813
O O9 0.000000 0.414425 0.700615
O O10 0.280112 0.500000 0.105441
O O11 0.000000 0.554185 0.101701
O O12 0.270138 0.576724 0.000000
O O13 0.500000 0.500000 0.639735
O O14 0.500000 0.559365 0.500000
#
# Coordination Sequence:
#
# PCOD8269353 Si02
#       5
#    16   8  16  16   8
#     4  10  19  34  54  86 127 173 217 262 304 358
#     4   8  16  28  46  74 120 169 218 259 295 341
#     4  11  22  38  63  95 125 165 207 256 311 379
#     4   8  15  29  50  80 120 162 203 244 290 355
#     4  11  26  48  71  95 123 155 202 270 334 387
#
# _framework density 20.602447000000002
#
# number of rings (size 3 to 8) (size 9 to 14) (size 15 to 20)
#    0.000    2.375    1.250    2.250    1.750    3.000 
#    0.000    1.875    0.000    3.000    0.000    0.000 
#    0.000    0.000    0.000    0.000    0.000    0.000 
#
# Total GULP energy -396446.362802 kJ/mol
# GULP energy per Si atom -12388.948838 kJ/mol
# Density = 2.055555 g / cm^3
# Si number density = 20.602447 Si / 1000 Ang^3
#
#
#
# Elastic Constant Matrix: (Units=GPa)
#
#
# Indices 1 2 3 4 5 6 
#
# 1 85.9574 25.3485 33.4284 0.0000 0.0000 0.0000
# 2 25.3485 84.4356 47.9283 0.0000 0.0000 0.0000
# 3 33.4284 47.9283 85.7310 0.0000 0.0000 0.0000
# 4 0.0000 0.0000 0.0000 26.1991 0.0000 0.0000
# 5 0.0000 0.0000 0.0000 0.0000 24.9557 0.0000
# 6 0.0000 0.0000 0.0000 0.0000 0.0000 18.9136
#
#
#
# Elastic Compliance Matrix: (Units=1/GPa)
#
#
# Indices 1 2 3 4 5 6 
#
# 1 0.013859 -0.001601 -0.004509 0.000000 0.000000 0.000000
# 2 -0.001601 0.017534 -0.009178 0.000000 0.000000 0.000000
# 3 -0.004509 -0.009178 0.018553 0.000000 0.000000 0.000000
# 4 0.000000 0.000000 0.000000 0.038169 0.000000 0.000000
# 5 0.000000 0.000000 0.000000 0.000000 0.040071 0.000000
# 6 0.000000 0.000000 0.000000 0.000000 0.000000 0.052872
#
#
# Mechanical properties :
#
#
# Convention : Reuss Voigt Hill
#
# Bulk Modulus (GPa) = 51.62532 52.17049 51.89791
# Shear Modulus (GPa) = 22.92611 23.97493 23.45052
#
# Velocity S-wave (km/s) = 3.33946 3.41500 3.37744
# Velocity P-wave (km/s) = 6.32310 6.39742 6.36037
#
# Compressibility (1/GPa) = 0.01937034
#
# Stress axis : x y z
#
# Youngs Moduli (GPa) = 72.15338 57.03275 53.89838
#
# Poissons Ratio (x) = 0.09133 0.24302
# Poissons Ratio (y) = 0.11555 0.49468
# Poissons Ratio (z) = 0.32533 0.52344
#
# Static dielectric constant tensor:
#      x y z
#    x 3.273950 0.000000 0.000000 
#    y 0.000000 3.901280 0.000000 
#    z 0.000000 0.000000 3.692220 
# 
# 
# High freq. dielectric constant tensor:
#      x y z
#    x 1.797470 0.000000 0.000000 
#    y 0.000000 1.812850 0.000000 
#    z 0.000000 0.000000 1.763720 
# 
# From -- ./inp_files/36412.got.cif
#   From: 2010.03.12/outbox.cif.g09.slc.cpg/sg65_19_cif.got.tgz:36412.got - 2010.04.10 20:52:16.
