data_PCOD8269202
_publ_section_title
;
Structure prediction by ZEFSAII (Michael W. Deem and Ramdas Pophale) SiO2 
 PCOD8269202
Probable space group: C M M M
;
_chemical_formula_sum "Si O2"
_cell_formula_units_Z 88
_cell_length_a 20.826290
_cell_length_b 27.080127
_cell_length_c 7.676015
_cell_angle_alpha 90.000000
_cell_angle_beta 90.000000
_cell_angle_gamma 90.000000
_cell_volume 4329.108025
_symmetry_space_group_name_H-M "C M M M"
_symmetry_group_IT_number 65
_symmetry_cell_setting 'orthorhombic'
loop_
_space_group_symop_operation_xyz
x,y,z
-x,-y,z
x,-y,-z
-x,y,-z
-x,-y,-z
x,y,-z
-x,y,z
x,-y,z
1/2+x,1/2+y,z
1/2-x,1/2-y,z
1/2+x,1/2-y,-z
1/2-x,1/2+y,-z
1/2-x,1/2-y,-z
1/2+x,1/2+y,-z
1/2-x,1/2+y,z
1/2+x,1/2-y,z
loop_
_atom_site_type_symbol
_atom_site_label
_atom_site_fract_x
_atom_site_fract_y
_atom_site_fract_z
Si Si1 0.621849 0.628034 0.304914
Si Si2 0.743612 0.693518 0.206733
Si Si3 0.126415 0.651206 0.803239
Si Si4 0.427515 0.945405 0.705620
Si Si5 0.922991 0.058895 0.000000
Si Si6 0.500000 0.686615 0.794923
Si Si7 0.500000 0.199328 0.205217
O O1 0.625213 0.605327 0.500000
O O2 0.683476 0.662702 0.276318
O O3 0.611819 0.582928 0.168852
O O4 0.562229 0.664385 0.292932
O O5 0.750000 0.750000 0.272905
O O6 0.807110 0.667231 0.284929
O O7 0.738728 0.691999 0.000000
O O8 0.121188 0.592043 0.797019
O O9 0.063922 0.675105 0.709658
O O10 0.129009 0.670876 0.000000
O O11 0.422676 0.940155 0.500000
O O12 0.500000 0.934211 0.768230
O O13 0.407017 0.000000 0.765315
O O14 0.000000 0.070035 0.000000
O O15 0.910744 0.000000 0.000000
O O16 0.500000 0.743759 0.750497
O O17 0.500000 0.675683 0.000000
O O18 0.500000 0.188330 0.000000
#
# Coordination Sequence:
#
# PCOD8269202 Si02
#       7
#    16  16  16  16   8   8   8
#     4  12  23  40  66  98 130 164 213 264 315 384
#     4  10  21  39  62  87 124 174 212 250 314 383
#     4  10  19  33  55  85 113 148 202 251 297 355
#     4   9  18  33  52  73 103 148 191 232 292 352
#     4  11  24  46  73 100 130 167 210 267 339 395
#     4  11  19  37  63  88 125 165 200 246 309 375
#     4   9  18  31  54  86 119 159 204 250 300 358
#
# _framework density 20.327511999999999
#
# number of rings (size 3 to 8) (size 9 to 14) (size 15 to 20)
#    0.000    1.727    3.636    1.909    0.000    4.727 
#    0.000    6.364    0.000    0.000    0.000    0.000 
#    0.000    0.000    0.000    0.000    0.000    0.000 
#
# Total GULP energy -545376.069578 kJ/mol
# GULP energy per Si atom -12394.910672 kJ/mol
# Density = 2.028125 g / cm^3
# Si number density = 20.327512 Si / 1000 Ang^3
#
#
#
# Elastic Constant Matrix: (Units=GPa)
#
#
# Indices 1 2 3 4 5 6 
#
# 1 173.9311 84.5366 29.5945 0.0000 0.0000 0.0000
# 2 84.5366 156.2281 38.8079 0.0000 0.0000 0.0000
# 3 29.5945 38.8079 84.4041 0.0000 0.0000 0.0000
# 4 0.0000 0.0000 0.0000 -0.5829 0.0000 0.0000
# 5 0.0000 0.0000 0.0000 0.0000 -14.6625 0.0000
# 6 0.0000 0.0000 0.0000 0.0000 0.0000 37.4035
#
#
#
# Elastic Compliance Matrix: (Units=1/GPa)
#
#
# Indices 1 2 3 4 5 6 
#
# 1 0.007862 -0.004030 -0.000904 0.000000 0.000000 0.000000
# 2 -0.004030 0.009292 -0.002859 0.000000 0.000000 0.000000
# 3 -0.000904 -0.002859 0.013479 0.000000 0.000000 0.000000
# 4 0.000000 0.000000 0.000000 -1.715656 0.000000 0.000000
# 5 0.000000 0.000000 0.000000 0.000000 -0.068201 0.000000
# 6 0.000000 0.000000 0.000000 0.000000 0.000000 0.026735
#
#
# Mechanical properties :
#
#
# Convention : Reuss Voigt Hill
#
# Bulk Modulus (GPa) = 66.45683 80.04901 73.25292
# Shear Modulus (GPa) = -2.93102 21.87324 9.47111
#
# Velocity S-wave (km/s) = -1.20209 3.28387 2.16087
# Velocity P-wave (km/s) = 5.55314 7.33781 6.50695
#
# Compressibility (1/GPa) = 0.01504736
#
# Stress axis : x y z
#
# Youngs Moduli (GPa) = 127.19939 107.62447 74.18769
#
# Poissons Ratio (x) = 0.43367 0.06705
# Poissons Ratio (y) = 0.51255 0.21212
# Poissons Ratio (z) = 0.11496 0.30773
#
# Static dielectric constant tensor:
#      x y z
#    x 3.836580 0.000000 0.000000 
#    y 0.000000 3.783220 0.000000 
#    z 0.000000 0.000000 3.505230 
# 
# 
# High freq. dielectric constant tensor:
#      x y z
#    x 1.793010 0.000000 0.000000 
#    y 0.000000 1.795190 0.000000 
#    z 0.000000 0.000000 1.780130 
# 
# From -- ./inp_files/10234.got.cif
#   From: 2010.03.12/outbox.cif.g09.slc.cpg/sg65_6_cif.got.tgz:10234.got - 2010.04.10 20:52:16.
