data_PCOD8269009
_publ_section_title
;
Structure prediction by ZEFSAII (Michael W. Deem and Ramdas Pophale) SiO2 
 PCOD8269009
Probable space group: C M M M
;
_chemical_formula_sum "Si O2"
_cell_formula_units_Z 120
_cell_length_a 17.999525
_cell_length_b 21.478490
_cell_length_c 17.254204
_cell_angle_alpha 90.000000
_cell_angle_beta 90.000000
_cell_angle_gamma 90.000000
_cell_volume 6670.520433
_symmetry_space_group_name_H-M "C M M M"
_symmetry_group_IT_number 65
_symmetry_cell_setting 'orthorhombic'
loop_
_space_group_symop_operation_xyz
x,y,z
-x,-y,z
x,-y,-z
-x,y,-z
-x,-y,-z
x,y,-z
-x,y,z
x,-y,z
1/2+x,1/2+y,z
1/2-x,1/2-y,z
1/2+x,1/2-y,-z
1/2-x,1/2+y,-z
1/2-x,1/2-y,-z
1/2+x,1/2+y,-z
1/2-x,1/2+y,z
1/2+x,1/2-y,z
loop_
_atom_site_type_symbol
_atom_site_label
_atom_site_fract_x
_atom_site_fract_y
_atom_site_fract_z
Si Si1 0.739774 0.430024 0.158443
Si Si2 0.225005 0.816585 0.412127
Si Si3 0.418518 0.679939 0.668185
Si Si4 0.826251 0.398161 0.310561
Si Si5 0.581487 0.570364 0.220935
Si Si6 0.588391 0.000000 0.592040
Si Si7 0.695377 0.806770 0.088982
Si Si8 0.913458 0.706572 0.224951
O O1 0.749539 0.500000 0.122382
O O2 0.784991 0.431844 0.239394
O O3 0.651770 0.414790 0.166274
O O4 0.769793 0.375246 0.103546
O O5 0.249897 0.826704 0.500000
O O6 0.250000 0.750000 0.380034
O O7 0.136041 0.817632 0.404736
O O8 0.259974 0.870046 0.360679
O O9 0.500000 0.697564 0.636609
O O10 0.415496 0.611054 0.702102
O O11 0.395355 0.726762 0.737265
O O12 0.875254 0.441118 0.366048
O O13 0.882095 0.345820 0.281387
O O14 0.500000 0.581196 0.179324
O O15 0.588279 0.500000 0.250435
O O16 0.500000 0.000000 0.605835
O O17 0.606421 0.000000 0.500000
O O18 0.750000 0.750000 0.110468
O O19 0.622650 0.797382 0.140429
O O20 0.670971 0.803001 0.000000
O O21 0.000000 0.695153 0.213129
#
# Coordination Sequence:
#
# PCOD8269009 Si02
#       8
#    16  16  16  16  16   8  16  16
#     4  10  19  33  58  83 106 144 184 224 267 319
#     4  11  22  35  53  78 110 148 185 231 286 333
#     4  10  19  33  53  78 108 144 185 230 274 326
#     4  11  20  36  58  80 107 142 189 235 272 333
#     4   9  17  29  49  79 109 137 176 221 263 308
#     4  11  24  40  56  78 112 148 184 237 294 338
#     4  10  22  37  57  84 114 143 174 218 272 328
#     4  10  21  35  58  83 105 141 183 225 274 327
#
# _framework density 17.989601
#
# number of rings (size 3 to 8) (size 9 to 14) (size 15 to 20)
#    0.000    1.800    3.333    1.600    1.867    0.800 
#    0.000    0.000    0.000    1.200    0.000    5.600 
#    0.000    0.000    0.000    0.000    0.000    0.000 
#
# Total GULP energy -743710.707891 kJ/mol
# GULP energy per Si atom -12395.178465 kJ/mol
# Density = 1.794866 g / cm^3
# Si number density = 17.989601 Si / 1000 Ang^3
#
#
#
# Elastic Constant Matrix: (Units=GPa)
#
#
# Indices 1 2 3 4 5 6 
#
# 1 115.2577 34.9091 40.0808 0.0000 0.0000 0.0000
# 2 34.9091 92.1018 26.3878 0.0000 0.0000 0.0000
# 3 40.0808 26.3878 67.6473 0.0000 0.0000 0.0000
# 4 0.0000 0.0000 0.0000 28.8825 0.0000 0.0000
# 5 0.0000 0.0000 0.0000 0.0000 23.3537 0.0000
# 6 0.0000 0.0000 0.0000 0.0000 0.0000 27.4982
#
#
#
# Elastic Compliance Matrix: (Units=1/GPa)
#
#
# Indices 1 2 3 4 5 6 
#
# 1 0.011498 -0.002709 -0.005756 0.000000 0.000000 0.000000
# 2 -0.002709 0.012862 -0.003412 0.000000 0.000000 0.000000
# 3 -0.005756 -0.003412 0.019524 0.000000 0.000000 0.000000
# 4 0.000000 0.000000 0.000000 0.034623 0.000000 0.000000
# 5 0.000000 0.000000 0.000000 0.000000 0.042820 0.000000
# 6 0.000000 0.000000 0.000000 0.000000 0.000000 0.036366
#
#
# Mechanical properties :
#
#
# Convention : Reuss Voigt Hill
#
# Bulk Modulus (GPa) = 49.67709 53.08469 51.38089
# Shear Modulus (GPa) = 26.57351 27.52215 27.04783
#
# Velocity S-wave (km/s) = 3.84755 3.91563 3.88174
# Velocity P-wave (km/s) = 6.88567 7.07216 6.97954
#
# Compressibility (1/GPa) = 0.02013000
#
# Stress axis : x y z
#
# Youngs Moduli (GPa) = 86.96881 77.74881 51.21923
#
# Poissons Ratio (x) = 0.21063 0.29482
# Poissons Ratio (y) = 0.23560 0.17476
# Poissons Ratio (z) = 0.50059 0.26528
#
# Static dielectric constant tensor:
#      x y z
#    x 3.553200 0.000000 0.000000 
#    y 0.000000 3.498440 0.000000 
#    z 0.000000 0.000000 3.007350 
# 
# 
# High freq. dielectric constant tensor:
#      x y z
#    x 1.710230 0.000000 0.000000 
#    y 0.000000 1.712470 0.000000 
#    z 0.000000 0.000000 1.666130 
# 
# From -- ./inp_files/54940.got.cif
#   From: 2010.03.12/outbox.cif.g09.slc.cpg/sg65_28_cif.got.tgz:54940.got - 2010.04.10 20:52:16.
