data_PCOD8269388
_publ_section_title
;
Structure prediction by ZEFSAII (Michael W. Deem and Ramdas Pophale) SiO2 
 PCOD8269388
Probable space group: C M M M
;
_chemical_formula_sum "Si O2"
_cell_formula_units_Z 80
_cell_length_a 15.326552
_cell_length_b 23.233303
_cell_length_c 12.417527
_cell_angle_alpha 90.000000
_cell_angle_beta 90.000000
_cell_angle_gamma 90.000000
_cell_volume 4421.712816
_symmetry_space_group_name_H-M "C M M M"
_symmetry_group_IT_number 65
_symmetry_cell_setting 'orthorhombic'
loop_
_space_group_symop_operation_xyz
x,y,z
-x,-y,z
x,-y,-z
-x,y,-z
-x,-y,-z
x,y,-z
-x,y,z
x,-y,z
1/2+x,1/2+y,z
1/2-x,1/2-y,z
1/2+x,1/2-y,-z
1/2-x,1/2+y,-z
1/2-x,1/2-y,-z
1/2+x,1/2+y,-z
1/2-x,1/2+y,z
1/2+x,1/2-y,z
loop_
_atom_site_type_symbol
_atom_site_label
_atom_site_fract_x
_atom_site_fract_y
_atom_site_fract_z
Si Si1 0.596698 0.757279 0.000000
Si Si2 0.596145 0.621376 0.000000
Si Si3 0.849174 0.252964 0.769030
Si Si4 0.601270 0.377341 0.232695
Si Si5 0.097181 0.645637 0.623628
Si Si6 0.754321 0.065495 0.627015
O O1 0.647099 0.777020 0.892030
O O2 0.500000 0.784937 0.000000
O O3 0.588719 0.689437 0.000000
O O4 0.639765 0.603143 0.114118
O O5 0.500000 0.594236 0.000000
O O6 0.750000 0.250000 0.730575
O O7 0.894322 0.191370 0.755629
O O8 0.899719 0.296333 0.692035
O O9 0.500000 0.395518 0.245955
O O10 0.658380 0.408486 0.321962
O O11 0.116584 0.661729 0.500000
O O12 0.168412 0.599822 0.665833
O O13 0.000000 0.618781 0.635580
O O14 0.766468 0.069766 0.500000
O O15 0.742497 0.000000 0.664911
#
# Coordination Sequence:
#
# PCOD8269388 Si02
#       6
#     8   8  16  16  16  16
#     4   9  17  29  47  77 113 144 175 207 247 310
#     4   7  14  29  50  74 104 139 174 205 241 300
#     4  11  19  32  54  82 113 143 174 211 261 315
#     4  10  19  34  55  80 110 143 172 208 260 314
#     4  10  21  37  56  78 105 138 176 219 266 315
#     4  10  22  39  56  76 102 135 179 225 265 310
#
# _framework density 18.092535999999999
#
# number of rings (size 3 to 8) (size 9 to 14) (size 15 to 20)
#    0.000    2.200    2.000    3.300    0.000    2.400 
#    0.000    3.500    0.000    1.800    0.000    0.000 
#    0.000    4.000    0.000    0.000    0.000    0.000 
#
# Total GULP energy -495768.614279 kJ/mol
# GULP energy per Si atom -12394.215357 kJ/mol
# Density = 1.805136 g / cm^3
# Si number density = 18.092536 Si / 1000 Ang^3
#
#
#
# Elastic Constant Matrix: (Units=GPa)
#
#
# Indices 1 2 3 4 5 6 
#
# 1 108.7997 32.1929 32.6319 0.0000 0.0000 0.0000
# 2 32.1929 80.4027 42.9101 0.0000 0.0000 0.0000
# 3 32.6319 42.9101 63.8396 0.0000 0.0000 0.0000
# 4 0.0000 0.0000 0.0000 0.9871 0.0000 0.0000
# 5 0.0000 0.0000 0.0000 0.0000 26.6341 0.0000
# 6 0.0000 0.0000 0.0000 0.0000 0.0000 10.8648
#
#
#
# Elastic Compliance Matrix: (Units=1/GPa)
#
#
# Indices 1 2 3 4 5 6 
#
# 1 0.011101 -0.002209 -0.004190 0.000000 0.000000 0.000000
# 2 -0.002209 0.019834 -0.012203 0.000000 0.000000 0.000000
# 3 -0.004190 -0.012203 0.026008 0.000000 0.000000 0.000000
# 4 0.000000 0.000000 0.000000 1.013054 0.000000 0.000000
# 5 0.000000 0.000000 0.000000 0.000000 0.037546 0.000000
# 6 0.000000 0.000000 0.000000 0.000000 0.000000 0.092041
#
#
# Mechanical properties :
#
#
# Convention : Reuss Voigt Hill
#
# Bulk Modulus (GPa) = 50.65604 52.05684 51.35644
# Shear Modulus (GPa) = 4.02134 17.38433 10.70283
#
# Velocity S-wave (km/s) = 1.49247 3.10313 2.43484
# Velocity P-wave (km/s) = 5.57037 6.45556 6.02923
#
# Compressibility (1/GPa) = 0.01974098
#
# Stress axis : x y z
#
# Youngs Moduli (GPa) = 90.07848 50.41785 38.44976
#
# Poissons Ratio (x) = 0.11137 0.16110
# Poissons Ratio (y) = 0.19897 0.46919
# Poissons Ratio (z) = 0.37741 0.61523
#
# Static dielectric constant tensor:
#      x y z
#    x 3.373410 0.000000 0.000000 
#    y 0.000000 3.082120 0.000000 
#    z 0.000000 0.000000 3.617490 
# 
# 
# High freq. dielectric constant tensor:
#      x y z
#    x 1.704210 0.000000 0.000000 
#    y 0.000000 1.664690 0.000000 
#    z 0.000000 0.000000 1.707380 
# 
# From -- ./inp_files/24651.got.cif
#   From: 2010.03.12/outbox.cif.g09.slc.cpg/sg65_13_cif.got.tgz:24651.got - 2010.04.10 20:52:16.
