data_PCOD8269199
_publ_section_title
;
Structure prediction by ZEFSAII (Michael W. Deem and Ramdas Pophale) SiO2 
 PCOD8269199
Probable space group: C M M M
;
_chemical_formula_sum "Si O2"
_cell_formula_units_Z 64
_cell_length_a 18.762002
_cell_length_b 10.525816
_cell_length_c 16.687943
_cell_angle_alpha 90.000000
_cell_angle_beta 90.000000
_cell_angle_gamma 90.000000
_cell_volume 3295.624779
_symmetry_space_group_name_H-M "C M M M"
_symmetry_group_IT_number 65
_symmetry_cell_setting 'orthorhombic'
loop_
_space_group_symop_operation_xyz
x,y,z
-x,-y,z
x,-y,-z
-x,y,-z
-x,-y,-z
x,y,-z
-x,y,z
x,-y,z
1/2+x,1/2+y,z
1/2-x,1/2-y,z
1/2+x,1/2-y,-z
1/2-x,1/2+y,-z
1/2-x,1/2-y,-z
1/2+x,1/2+y,-z
1/2-x,1/2+y,z
1/2+x,1/2-y,z
loop_
_atom_site_type_symbol
_atom_site_label
_atom_site_fract_x
_atom_site_fract_y
_atom_site_fract_z
Si Si1 0.082515 0.253489 0.184194
Si Si2 0.415405 0.000000 0.910303
Si Si3 0.198267 0.139690 0.908276
Si Si4 0.685650 0.149245 0.500000
Si Si5 0.919681 0.646134 0.355663
O O1 0.111001 0.376838 0.136931
O O2 0.128249 0.138120 0.148195
O O3 0.096879 0.267579 0.278747
O O4 0.000000 0.226589 0.167300
O O5 0.500000 0.000000 0.913836
O O6 0.382452 0.000000 0.000000
O O7 0.250000 0.250000 0.876591
O O8 0.234290 0.000000 0.900162
O O9 0.175566 0.165990 0.000000
O O10 0.750000 0.250000 0.500000
O O11 0.637473 0.179256 0.576855
O O12 0.710616 0.000000 0.500000
O O13 0.913961 0.500000 0.328707
O O14 0.000000 0.673011 0.387694
#
# Coordination Sequence:
#
# PCOD8269199 Si02
#       5
#    16   8  16   8  16
#     4  10  19  33  55  84 114 143 183 233 283 333
#     4   9  16  26  46  79 113 143 176 219 270 319
#     4  10  23  40  56  77 109 151 194 236 284 337
#     4  10  21  37  59  85 113 148 184 230 282 338
#     4   9  17  33  57  85 114 145 186 232 276 332
#
# _framework density 19.419685999999999
#
# number of rings (size 3 to 8) (size 9 to 14) (size 15 to 20)
#    0.000    2.375    1.250    1.125    1.750    4.500 
#    0.000    5.000    0.000    3.000    0.000    0.000 
#    0.000    0.000    0.000    0.000    0.000    0.000 
#
# Total GULP energy -396717.499614 kJ/mol
# GULP energy per Si atom -12397.421863 kJ/mol
# Density = 1.937549 g / cm^3
# Si number density = 19.419686 Si / 1000 Ang^3
#
#
#
# Elastic Constant Matrix: (Units=GPa)
#
#
# Indices 1 2 3 4 5 6 
#
# 1 100.8872 56.0347 56.9427 0.0000 0.0000 0.0000
# 2 56.0347 92.5704 37.5164 0.0000 0.0000 0.0000
# 3 56.9427 37.5164 94.9138 0.0000 0.0000 0.0000
# 4 0.0000 0.0000 0.0000 23.0123 0.0000 0.0000
# 5 0.0000 0.0000 0.0000 0.0000 29.7478 0.0000
# 6 0.0000 0.0000 0.0000 0.0000 0.0000 35.1471
#
#
#
# Elastic Compliance Matrix: (Units=1/GPa)
#
#
# Indices 1 2 3 4 5 6 
#
# 1 0.019133 -0.008251 -0.008217 0.000000 0.000000 0.000000
# 2 -0.008251 0.016422 -0.001541 0.000000 0.000000 0.000000
# 3 -0.008217 -0.001541 0.016075 0.000000 0.000000 0.000000
# 4 0.000000 0.000000 0.000000 0.043455 0.000000 0.000000
# 5 0.000000 0.000000 0.000000 0.000000 0.033616 0.000000
# 6 0.000000 0.000000 0.000000 0.000000 0.000000 0.028452
#
#
# Mechanical properties :
#
#
# Convention : Reuss Voigt Hill
#
# Bulk Modulus (GPa) = 64.05745 65.48436 64.77091
# Shear Modulus (GPa) = 25.20491 26.77327 25.98909
#
# Velocity S-wave (km/s) = 3.60655 3.71707 3.66223
# Velocity P-wave (km/s) = 7.09932 7.22606 7.16297
#
# Compressibility (1/GPa) = 0.01561099
#
# Stress axis : x y z
#
# Youngs Moduli (GPa) = 52.26583 60.89507 62.20977
#
# Poissons Ratio (x) = 0.50247 0.51119
# Poissons Ratio (y) = 0.43126 0.09584
# Poissons Ratio (z) = 0.42948 0.09382
#
# Static dielectric constant tensor:
#      x y z
#    x 3.424300 0.000000 0.000000 
#    y 0.000000 3.402740 0.000000 
#    z 0.000000 0.000000 3.503780 
# 
# 
# High freq. dielectric constant tensor:
#      x y z
#    x 1.752280 0.000000 0.000000 
#    y 0.000000 1.734260 0.000000 
#    z 0.000000 0.000000 1.753670 
# 
# From -- ./inp_files/41918.got.cif
#   From: 2010.03.12/outbox.cif.g09.slc.cpg/sg65_21_cif.got.tgz:41918.got - 2010.04.10 20:52:16.
