data_PCOD8269936
_publ_section_title
;
Structure prediction by ZEFSAII (Michael W. Deem and Ramdas Pophale) SiO2 
 PCOD8269936
Probable space group: C M M M
;
_chemical_formula_sum "Si O2"
_cell_formula_units_Z 104
_cell_length_a 29.406943
_cell_length_b 8.962200
_cell_length_c 23.004801
_cell_angle_alpha 90.000000
_cell_angle_beta 90.000000
_cell_angle_gamma 90.000000
_cell_volume 6062.936113
_symmetry_space_group_name_H-M "C M M M"
_symmetry_group_IT_number 65
_symmetry_cell_setting 'orthorhombic'
loop_
_space_group_symop_operation_xyz
x,y,z
-x,-y,z
x,-y,-z
-x,y,-z
-x,-y,-z
x,y,-z
-x,y,z
x,-y,z
1/2+x,1/2+y,z
1/2-x,1/2-y,z
1/2+x,1/2-y,-z
1/2-x,1/2+y,-z
1/2-x,1/2-y,-z
1/2+x,1/2+y,-z
1/2-x,1/2+y,z
1/2+x,1/2-y,z
loop_
_atom_site_type_symbol
_atom_site_label
_atom_site_fract_x
_atom_site_fract_y
_atom_site_fract_z
Si Si1 0.049162 0.166172 0.068932
Si Si2 0.701422 0.322926 0.284150
Si Si3 0.551084 0.824087 0.566542
Si Si4 0.799362 0.823184 0.500000
Si Si5 0.139616 0.825554 0.607242
Si Si6 0.636965 0.824862 0.935205
Si Si7 0.701728 0.178423 0.166285
O O1 0.088069 0.277533 0.090296
O O2 0.000000 0.218989 0.093438
O O3 0.060148 0.000000 0.091711
O O4 0.047150 0.166216 0.000000
O O5 0.708411 0.500000 0.276637
O O6 0.750000 0.250000 0.300415
O O7 0.664442 0.284511 0.332887
O O8 0.681562 0.249370 0.225295
O O9 0.558479 0.773120 0.500000
O O10 0.500000 0.775822 0.586760
O O11 0.589885 0.749611 0.606155
O O12 0.556124 0.000000 0.572117
O O13 0.750000 0.750000 0.500000
O O14 0.827680 0.767637 0.444175
O O15 0.792415 0.000000 0.500000
O O16 0.131474 0.000000 0.600544
O O17 0.673451 0.766692 0.889315
O O18 0.638130 0.000000 0.939460
O O19 0.646273 0.756941 0.000000
O O20 0.750000 0.250000 0.155090
O O21 0.703941 0.000000 0.172003
#
# Coordination Sequence:
#
# PCOD8269936 Si02
#       7
#    16  16  16   8  16  16  16
#     4   8  14  25  42  66  95 124 153 185 225 277
#     4  10  20  34  52  73  96 126 165 203 239 287
#     4   9  18  32  50  74 102 131 165 202 241 289
#     4  10  20  32  45  68 101 129 156 191 235 284
#     4  10  20  33  50  73 100 129 162 200 242 287
#     4   9  18  31  47  70  98 125 156 196 242 291
#     4  10  20  34  51  70  94 126 163 201 241 287
#
# _framework density 17.153404999999999
#
# number of rings (size 3 to 8) (size 9 to 14) (size 15 to 20)
#    0.000    2.615    0.769    3.231    0.000    4.000 
#    0.000    2.308    0.000    0.923    0.000    0.000 
#    0.000    0.000    0.000    0.000    0.000    0.000 
#
# Total GULP energy -644501.717308 kJ/mol
# GULP energy per Si atom -12394.263794 kJ/mol
# Density = 1.711436 g / cm^3
# Si number density = 17.153405 Si / 1000 Ang^3
#
#
#
# Elastic Constant Matrix: (Units=GPa)
#
#
# Indices 1 2 3 4 5 6 
#
# 1 130.6650 42.7486 80.7853 0.0000 0.0000 0.0000
# 2 42.7486 44.8984 39.3255 0.0000 0.0000 0.0000
# 3 80.7853 39.3255 108.6360 0.0000 0.0000 0.0000
# 4 0.0000 0.0000 0.0000 21.6733 0.0000 0.0000
# 5 0.0000 0.0000 0.0000 0.0000 15.6315 0.0000
# 6 0.0000 0.0000 0.0000 0.0000 0.0000 34.0981
#
#
#
# Elastic Compliance Matrix: (Units=1/GPa)
#
#
# Indices 1 2 3 4 5 6 
#
# 1 0.015470 -0.006813 -0.009037 0.000000 0.000000 0.000000
# 2 -0.006813 0.035614 -0.007825 0.000000 0.000000 0.000000
# 3 -0.009037 -0.007825 0.018758 0.000000 0.000000 0.000000
# 4 0.000000 0.000000 0.000000 0.046140 0.000000 0.000000
# 5 0.000000 0.000000 0.000000 0.000000 0.063973 0.000000
# 6 0.000000 0.000000 0.000000 0.000000 0.000000 0.029327
#
#
# Mechanical properties :
#
#
# Convention : Reuss Voigt Hill
#
# Bulk Modulus (GPa) = 44.46514 67.76870 56.11692
# Shear Modulus (GPa) = 18.93007 22.36993 20.65000
#
# Velocity S-wave (km/s) = 3.32561 3.61516 3.47341
# Velocity P-wave (km/s) = 6.38158 7.55110 6.99084
#
# Compressibility (1/GPa) = 0.02248953
#
# Stress axis : x y z
#
# Youngs Moduli (GPa) = 64.64250 28.07922 53.30992
#
# Poissons Ratio (x) = 0.19131 0.48178
# Poissons Ratio (y) = 0.44043 0.41716
# Poissons Ratio (z) = 0.58420 0.21973
#
# Static dielectric constant tensor:
#      x y z
#    x 3.518110 0.000000 0.000000 
#    y 0.000000 3.171670 0.000000 
#    z 0.000000 0.000000 3.280670 
# 
# 
# High freq. dielectric constant tensor:
#      x y z
#    x 1.666750 0.000000 0.000000 
#    y 0.000000 1.660180 0.000000 
#    z 0.000000 0.000000 1.638410 
# 
# From -- ./inp_files/72110.got.cif
#   From: 2010.03.12/outbox.cif.g09.slc.cpg/sg65_37_cif.got.tgz:72110.got - 2010.04.10 20:52:16.
