data_PCOD8269226
_publ_section_title
;
Structure prediction by ZEFSAII (Michael W. Deem and Ramdas Pophale) SiO2 
 PCOD8269226
Probable space group: C M M M
;
_chemical_formula_sum "Si O2"
_cell_formula_units_Z 88
_cell_length_a 14.420762
_cell_length_b 17.137233
_cell_length_c 18.071784
_cell_angle_alpha 90.000000
_cell_angle_beta 90.000000
_cell_angle_gamma 90.000000
_cell_volume 4466.115372
_symmetry_space_group_name_H-M "C M M M"
_symmetry_group_IT_number 65
_symmetry_cell_setting 'orthorhombic'
loop_
_space_group_symop_operation_xyz
x,y,z
-x,-y,z
x,-y,-z
-x,y,-z
-x,-y,-z
x,y,-z
-x,y,z
x,-y,z
1/2+x,1/2+y,z
1/2-x,1/2-y,z
1/2+x,1/2-y,-z
1/2-x,1/2+y,-z
1/2-x,1/2-y,-z
1/2+x,1/2+y,-z
1/2-x,1/2+y,z
1/2+x,1/2-y,z
loop_
_atom_site_type_symbol
_atom_site_label
_atom_site_fract_x
_atom_site_fract_y
_atom_site_fract_z
Si Si1 0.108028 0.846639 0.705039
Si Si2 0.895769 0.092767 0.000000
Si Si3 0.297271 0.406970 0.852068
Si Si4 0.396102 0.171415 0.341297
Si Si5 0.763170 0.088829 0.583053
Si Si6 0.599881 0.908546 0.189518
O O1 0.152560 0.866869 0.783488
O O2 0.127749 0.756329 0.689948
O O3 0.153147 0.896611 0.639531
O O4 0.000000 0.867257 0.707849
O O5 0.844085 0.123760 0.927063
O O6 0.000000 0.125743 0.000000
O O7 0.895718 0.000000 0.000000
O O8 0.305556 0.500000 0.842820
O O9 0.189306 0.379297 0.856388
O O10 0.500000 0.169507 0.374714
O O11 0.323509 0.146691 0.403917
O O12 0.384301 0.110209 0.275203
O O13 0.799881 0.104512 0.500000
O O14 0.728926 0.000000 0.592084
O O15 0.500000 0.871779 0.162754
O O16 0.593078 0.000000 0.180641
#
# Coordination Sequence:
#
# PCOD8269226 Si02
#       6
#    16   8  16  16  16  16
#     4  11  23  37  57  84 114 152 192 232 282 346
#     4   9  18  32  51  80 117 153 193 243 285 326
#     4  10  19  33  56  84 114 151 193 236 286 340
#     4  10  21  37  58  84 112 145 187 235 285 339
#     4  11  24  40  58  83 114 148 190 239 286 336
#     4   9  17  31  54  82 110 142 185 235 282 334
#
# _framework density 19.703925000000002
#
# number of rings (size 3 to 8) (size 9 to 14) (size 15 to 20)
#    0.000    1.909    1.818    2.182    0.000    5.455 
#    0.000    4.091    0.000    4.909    0.000    3.818 
#    0.000    0.000    0.000    0.000    0.000    0.000 
#
# Total GULP energy -545482.226427 kJ/mol
# GULP energy per Si atom -12397.323328 kJ/mol
# Density = 1.965908 g / cm^3
# Si number density = 19.703925 Si / 1000 Ang^3
#
#
#
# Elastic Constant Matrix: (Units=GPa)
#
#
# Indices 1 2 3 4 5 6 
#
# 1 161.9405 52.6031 90.1290 0.0000 0.0000 0.0000
# 2 52.6031 35.3909 32.6573 0.0000 0.0000 0.0000
# 3 90.1290 32.6573 148.5526 0.0000 0.0000 0.0000
# 4 0.0000 0.0000 0.0000 16.8424 0.0000 0.0000
# 5 0.0000 0.0000 0.0000 0.0000 23.1819 0.0000
# 6 0.0000 0.0000 0.0000 0.0000 0.0000 26.0929
#
#
#
# Elastic Compliance Matrix: (Units=1/GPa)
#
#
# Indices 1 2 3 4 5 6 
#
# 1 0.014462 -0.016808 -0.005079 0.000000 0.000000 0.000000
# 2 -0.016808 0.054982 -0.001889 0.000000 0.000000 0.000000
# 3 -0.005079 -0.001889 0.010228 0.000000 0.000000 0.000000
# 4 0.000000 0.000000 0.000000 0.059374 0.000000 0.000000
# 5 0.000000 0.000000 0.000000 0.000000 0.043137 0.000000
# 6 0.000000 0.000000 0.000000 0.000000 0.000000 0.038325
#
#
# Mechanical properties :
#
#
# Convention : Reuss Voigt Hill
#
# Bulk Modulus (GPa) = 31.13416 77.40699 54.27057
# Shear Modulus (GPa) = 17.93609 24.58975 21.26292
#
# Velocity S-wave (km/s) = 3.02036 3.53648 3.28856
# Velocity P-wave (km/s) = 5.29138 7.48638 6.48246
#
# Compressibility (1/GPa) = 0.03211907
#
# Stress axis : x y z
#
# Youngs Moduli (GPa) = 69.14793 18.18773 97.76631
#
# Poissons Ratio (x) = 0.30571 0.49656
# Poissons Ratio (y) = 1.16226 0.18470
# Poissons Ratio (z) = 0.35121 0.03436
#
# Static dielectric constant tensor:
#      x y z
#    x 4.164620 0.000000 0.000000 
#    y 0.000000 3.450620 0.000000 
#    z 0.000000 0.000000 3.467870 
# 
# 
# High freq. dielectric constant tensor:
#      x y z
#    x 1.788840 0.000000 0.000000 
#    y 0.000000 1.753580 0.000000 
#    z 0.000000 0.000000 1.748860 
# 
# From -- ./inp_files/52975.got.cif
#   From: 2010.03.12/outbox.cif.g09.slc.cpg/sg65_27_cif.got.tgz:52975.got - 2010.04.10 20:52:16.
