data_PCOD8269773
_publ_section_title
;
Structure prediction by ZEFSAII (Michael W. Deem and Ramdas Pophale) SiO2 
 PCOD8269773
Probable space group: C M M M
;
_chemical_formula_sum "Si O2"
_cell_formula_units_Z 120
_cell_length_a 36.334673
_cell_length_b 9.528254
_cell_length_c 23.210561
_cell_angle_alpha 90.000000
_cell_angle_beta 90.000000
_cell_angle_gamma 90.000000
_cell_volume 8035.635327
_symmetry_space_group_name_H-M "C M M M"
_symmetry_group_IT_number 65
_symmetry_cell_setting 'orthorhombic'
loop_
_space_group_symop_operation_xyz
x,y,z
-x,-y,z
x,-y,-z
-x,y,-z
-x,-y,-z
x,y,-z
-x,y,z
x,-y,z
1/2+x,1/2+y,z
1/2-x,1/2-y,z
1/2+x,1/2-y,-z
1/2-x,1/2+y,-z
1/2-x,1/2-y,-z
1/2+x,1/2+y,-z
1/2-x,1/2+y,z
1/2+x,1/2-y,z
loop_
_atom_site_type_symbol
_atom_site_label
_atom_site_fract_x
_atom_site_fract_y
_atom_site_fract_z
Si Si1 0.958551 0.832979 0.500000
Si Si2 0.828935 0.335922 0.154506
Si Si3 0.916406 0.836275 0.387258
Si Si4 0.142883 0.344292 0.663648
Si Si5 0.786295 0.162565 0.932997
Si Si6 0.099267 0.345442 0.217728
Si Si7 0.286637 0.164352 0.729498
Si Si8 0.041653 0.836715 0.270620
O O1 0.937013 0.778745 0.443771
O O2 0.000000 0.771286 0.500000
O O3 0.960621 0.000000 0.500000
O O4 0.824251 0.500000 0.138295
O O5 0.819468 0.234763 0.101409
O O6 0.871504 0.301477 0.168838
O O7 0.802754 0.296325 0.208030
O O8 0.876935 0.759952 0.381135
O O9 0.942853 0.801884 0.333756
O O10 0.907838 0.000000 0.392155
O O11 0.143655 0.500000 0.636265
O O12 0.120551 0.347908 0.722488
O O13 0.184213 0.294370 0.679286
O O14 0.750000 0.250000 0.917404
O O15 0.780939 0.000000 0.914584
O O16 0.795979 0.173979 0.000000
O O17 0.083437 0.500000 0.204362
O O18 0.065166 0.238797 0.220699
O O19 0.250000 0.250000 0.717162
O O20 0.277816 0.000000 0.726808
O O21 0.000000 0.781338 0.268079
O O22 0.043898 0.000000 0.257378
#
# Coordination Sequence:
#
# PCOD8269773 Si02
#       8
#     8  16  16  16  16  16  16  16
#     4   9  16  26  41  61  84 107 132 165 200 229
#     4   9  17  29  43  59  81 108 137 169 203 238
#     4   9  16  26  41  59  78 105 139 167 193 230
#     4   8  15  28  41  54  78 107 130 158 199 240
#     4  10  20  31  42  58  81 110 143 174 202 233
#     4   8  15  27  41  57  78 105 135 164 197 240
#     4   9  17  27  40  60  83 105 130 162 201 242
#     4   9  16  25  38  58  83 108 135 166 197 232
#
# _framework density 14.933479999999999
#
# number of rings (size 3 to 8) (size 9 to 14) (size 15 to 20)
#    0.000    3.133    0.000    2.800    0.000    5.333 
#    0.000    3.000    0.000    1.600    0.000    0.467 
#    0.000    0.533    0.000    5.867    0.000    4.267 
#
# Total GULP energy -743755.214585 kJ/mol
# GULP energy per Si atom -12395.920243 kJ/mol
# Density = 1.489949 g / cm^3
# Si number density = 14.933480 Si / 1000 Ang^3
#
#
#
# Elastic Constant Matrix: (Units=GPa)
#
#
# Indices 1 2 3 4 5 6 
#
# 1 114.8883 59.6038 44.8014 0.0000 0.0000 0.0000
# 2 59.6038 69.9879 40.5434 0.0000 0.0000 0.0000
# 3 44.8014 40.5434 58.2482 0.0000 0.0000 0.0000
# 4 0.0000 0.0000 0.0000 17.8712 0.0000 0.0000
# 5 0.0000 0.0000 0.0000 0.0000 23.8555 0.0000
# 6 0.0000 0.0000 0.0000 0.0000 0.0000 27.8761
#
#
#
# Elastic Compliance Matrix: (Units=1/GPa)
#
#
# Indices 1 2 3 4 5 6 
#
# 1 0.016369 -0.011138 -0.004838 0.000000 0.000000 0.000000
# 2 -0.011138 0.031520 -0.013373 0.000000 0.000000 0.000000
# 3 -0.004838 -0.013373 0.030197 0.000000 0.000000 0.000000
# 4 0.000000 0.000000 0.000000 0.055956 0.000000 0.000000
# 5 0.000000 0.000000 0.000000 0.000000 0.041919 0.000000
# 6 0.000000 0.000000 0.000000 0.000000 0.000000 0.035873
#
#
# Mechanical properties :
#
#
# Convention : Reuss Voigt Hill
#
# Bulk Modulus (GPa) = 51.57478 59.22461 55.39969
# Shear Modulus (GPa) = 18.05093 20.46563 19.25828
#
# Velocity S-wave (km/s) = 3.48049 3.70598 3.59500
# Velocity P-wave (km/s) = 7.12482 7.61954 7.37633
#
# Compressibility (1/GPa) = 0.01938932
#
# Stress axis : x y z
#
# Youngs Moduli (GPa) = 61.09177 31.72553 33.11592
#
# Poissons Ratio (x) = 0.35335 0.16020
# Poissons Ratio (y) = 0.68043 0.44286
# Poissons Ratio (z) = 0.29554 0.42427
#
# Static dielectric constant tensor:
#      x y z
#    x 2.986400 0.000000 0.000000 
#    y 0.000000 2.928570 0.000000 
#    z 0.000000 0.000000 2.691760 
# 
# 
# High freq. dielectric constant tensor:
#      x y z
#    x 1.565470 0.000000 0.000000 
#    y 0.000000 1.569460 0.000000 
#    z 0.000000 0.000000 1.536190 
# 
# From -- ./inp_files/66084.got.cif
#   From: 2010.03.12/outbox.cif.g09.slc.cpg/sg65_34_cif.got.tgz:66084.got - 2010.04.10 20:52:16.
