data_PCOD8269496
_publ_section_title
;
Structure prediction by ZEFSAII (Michael W. Deem and Ramdas Pophale) SiO2 
 PCOD8269496
Probable space group: C M M M
;
_chemical_formula_sum "Si O2"
_cell_formula_units_Z 112
_cell_length_a 26.207691
_cell_length_b 14.202029
_cell_length_c 14.868206
_cell_angle_alpha 90.000000
_cell_angle_beta 90.000000
_cell_angle_gamma 90.000000
_cell_volume 5533.981773
_symmetry_space_group_name_H-M "C M M M"
_symmetry_group_IT_number 65
_symmetry_cell_setting 'orthorhombic'
loop_
_space_group_symop_operation_xyz
x,y,z
-x,-y,z
x,-y,-z
-x,y,-z
-x,-y,-z
x,y,-z
-x,y,z
x,-y,z
1/2+x,1/2+y,z
1/2-x,1/2-y,z
1/2+x,1/2-y,-z
1/2-x,1/2+y,-z
1/2-x,1/2-y,-z
1/2+x,1/2+y,-z
1/2-x,1/2+y,z
1/2+x,1/2-y,z
loop_
_atom_site_type_symbol
_atom_site_label
_atom_site_fract_x
_atom_site_fract_y
_atom_site_fract_z
Si Si1 0.058376 0.271403 0.399792
Si Si2 0.767555 0.355470 0.213372
Si Si3 0.363400 0.194751 0.898651
Si Si4 0.131076 0.895363 0.645901
Si Si5 0.560138 0.107594 0.231465
Si Si6 0.255246 0.639740 0.595819
Si Si7 0.661234 0.602848 0.152505
O O1 0.064302 0.314894 0.500000
O O2 0.091453 0.177480 0.394856
O O3 0.076841 0.348747 0.327493
O O4 0.000000 0.242941 0.380382
O O5 0.750000 0.250000 0.230001
O O6 0.819292 0.359396 0.156844
O O7 0.773885 0.400073 0.314579
O O8 0.722743 0.406721 0.158535
O O9 0.415859 0.168406 0.849576
O O10 0.355317 0.307944 0.907313
O O11 0.364202 0.155092 0.000000
O O12 0.185485 0.886176 0.599406
O O13 0.136693 0.875778 0.751413
O O14 0.109504 0.000000 0.628503
O O15 0.500000 0.113010 0.217661
O O16 0.579437 0.000000 0.228331
O O17 0.233937 0.598133 0.500000
O O18 0.250000 0.750000 0.591880
O O19 0.642473 0.500000 0.114867
#
# Coordination Sequence:
#
# PCOD8269496 Si02
#       7
#    16  16  16  16  16  16  16
#     4  10  21  37  61  92 122 154 192 234 285 346
#     4   8  17  32  50  78 116 151 191 238 281 329
#     4  11  22  38  62  88 116 149 193 249 303 352
#     4  10  19  34  57  86 124 165 201 237 281 338
#     4  10  23  44  66  87 113 145 187 242 301 358
#     4   9  17  29  49  75 109 160 205 237 273 320
#     4   9  18  34  56  83 121 164 198 229 279 348
#
# _framework density 20.238592000000001
#
# number of rings (size 3 to 8) (size 9 to 14) (size 15 to 20)
#    0.000    2.429    1.429    1.286    0.000    5.714 
#    0.000    2.857    0.000    0.429    0.000    1.000 
#    0.000    0.000    0.000    0.000    0.000    0.000 
#
# Total GULP energy -693874.879782 kJ/mol
# GULP energy per Si atom -12390.622853 kJ/mol
# Density = 2.019253 g / cm^3
# Si number density = 20.238592 Si / 1000 Ang^3
#
#
#
# Elastic Constant Matrix: (Units=GPa)
#
#
# Indices 1 2 3 4 5 6 
#
# 1 53.1781 31.9522 45.9675 0.0000 0.0000 0.0000
# 2 31.9522 97.9281 34.0415 0.0000 0.0000 0.0000
# 3 45.9675 34.0415 150.4006 0.0000 0.0000 0.0000
# 4 0.0000 0.0000 0.0000 11.6612 0.0000 0.0000
# 5 0.0000 0.0000 0.0000 0.0000 19.7748 0.0000
# 6 0.0000 0.0000 0.0000 0.0000 0.0000 17.6176
#
#
#
# Elastic Compliance Matrix: (Units=1/GPa)
#
#
# Indices 1 2 3 4 5 6 
#
# 1 0.029427 -0.007028 -0.007403 0.000000 0.000000 0.000000
# 2 -0.007028 0.012762 -0.000741 0.000000 0.000000 0.000000
# 3 -0.007403 -0.000741 0.009079 0.000000 0.000000 0.000000
# 4 0.000000 0.000000 0.000000 0.085754 0.000000 0.000000
# 5 0.000000 0.000000 0.000000 0.000000 0.050569 0.000000
# 6 0.000000 0.000000 0.000000 0.000000 0.000000 0.056762
#
#
# Mechanical properties :
#
#
# Convention : Reuss Voigt Hill
#
# Bulk Modulus (GPa) = 47.79029 58.38102 53.08565
# Shear Modulus (GPa) = 17.75118 22.44710 20.09914
#
# Velocity S-wave (km/s) = 2.96479 3.33396 3.15478
# Velocity P-wave (km/s) = 5.94850 6.61282 6.28944
#
# Compressibility (1/GPa) = 0.02092475
#
# Stress axis : x y z
#
# Youngs Moduli (GPa) = 33.98260 78.35694 110.14223
#
# Poissons Ratio (x) = 0.55069 0.81540
# Poissons Ratio (y) = 0.23883 0.08157
# Poissons Ratio (z) = 0.25158 0.05803
#
# Static dielectric constant tensor:
#      x y z
#    x 3.472040 0.000000 0.000000 
#    y 0.000000 3.746300 0.000000 
#    z 0.000000 0.000000 3.856310 
# 
# 
# High freq. dielectric constant tensor:
#      x y z
#    x 1.760630 0.000000 0.000000 
#    y 0.000000 1.789500 0.000000 
#    z 0.000000 0.000000 1.794410 
# 
# From -- ./inp_files/40814.got.cif
#   From: 2010.03.12/outbox.cif.g09.slc.cpg/sg65_21_cif.got.tgz:40814.got - 2010.04.10 20:52:16.
