data_PCOD8269762
_publ_section_title
;
Structure prediction by ZEFSAII (Michael W. Deem and Ramdas Pophale) SiO2 
 PCOD8269762
Probable space group: C M M M
;
_chemical_formula_sum "Si O2"
_cell_formula_units_Z 96
_cell_length_a 29.435573
_cell_length_b 9.272596
_cell_length_c 25.702217
_cell_angle_alpha 90.000000
_cell_angle_beta 90.000000
_cell_angle_gamma 90.000000
_cell_volume 7015.270452
_symmetry_space_group_name_H-M "C M M M"
_symmetry_group_IT_number 65
_symmetry_cell_setting 'orthorhombic'
loop_
_space_group_symop_operation_xyz
x,y,z
-x,-y,z
x,-y,-z
-x,y,-z
-x,-y,-z
x,y,-z
-x,y,z
x,-y,z
1/2+x,1/2+y,z
1/2-x,1/2-y,z
1/2+x,1/2-y,-z
1/2-x,1/2+y,-z
1/2-x,1/2-y,-z
1/2+x,1/2+y,-z
1/2-x,1/2+y,z
1/2+x,1/2-y,z
loop_
_atom_site_type_symbol
_atom_site_label
_atom_site_fract_x
_atom_site_fract_y
_atom_site_fract_z
Si Si1 0.446000 0.338224 0.652352
Si Si2 0.445986 0.838227 0.443284
Si Si3 0.293538 0.836124 0.061893
Si Si4 0.117314 0.832685 0.061303
Si Si5 0.053898 0.665243 0.865413
Si Si6 0.053965 0.837747 0.766618
O O1 0.500000 0.331683 0.648980
O O2 0.428502 0.500000 0.645318
O O3 0.424023 0.248384 0.604921
O O4 0.430211 0.281450 0.709414
O O5 0.431725 0.773470 0.500000
O O6 0.500000 0.836451 0.438926
O O7 0.427529 0.000000 0.438934
O O8 0.250000 0.750000 0.083882
O O9 0.337941 0.750699 0.081054
O O10 0.293923 0.000000 0.083687
O O11 0.291765 0.839466 0.000000
O O12 0.073934 0.759250 0.087763
O O13 0.121113 0.000000 0.077292
O O14 0.110783 0.815762 0.000000
O O15 0.070054 0.500000 0.869731
O O16 0.072273 0.729350 0.810680
O O17 0.000000 0.677539 0.869437
O O18 0.000000 0.841977 0.768092
O O19 0.072475 0.000000 0.776830
#
# Coordination Sequence:
#
# PCOD8269762 Si02
#       6
#    16  16  16  16  16  16
#     4   8  13  20  30  43  56  72  97 129 164 201
#     4   8  13  19  25  35  53  75  96 120 155 199
#     4   9  16  27  44  64  84 102 119 141 170 206
#     4  10  20  32  45  60  77  98 123 148 178 218
#     4  10  20  31  42  56  73  94 121 153 188 223
#     4   8  14  25  38  49  62  81 107 140 176 212
#
# _framework density 13.684433
#
# number of rings (size 3 to 8) (size 9 to 14) (size 15 to 20)
#    0.000    3.167    0.000    3.000    0.000    5.333 
#    0.000    6.667    0.000    0.000    0.000    0.000 
#    0.000    0.000    0.000    0.000    0.000    0.000 
#
# Total GULP energy -594796.648548 kJ/mol
# GULP energy per Si atom -12391.596845 kJ/mol
# Density = 1.365329 g / cm^3
# Si number density = 13.684433 Si / 1000 Ang^3
#
#
#
# Elastic Constant Matrix: (Units=GPa)
#
#
# Indices 1 2 3 4 5 6 
#
# 1 24.8577 25.9455 21.9434 0.0000 0.0000 0.0000
# 2 25.9455 104.4467 50.8257 0.0000 0.0000 0.0000
# 3 21.9434 50.8257 73.2514 0.0000 0.0000 0.0000
# 4 0.0000 0.0000 0.0000 25.4801 0.0000 0.0000
# 5 0.0000 0.0000 0.0000 0.0000 0.5900 0.0000
# 6 0.0000 0.0000 0.0000 0.0000 0.0000 16.6305
#
#
#
# Elastic Compliance Matrix: (Units=1/GPa)
#
#
# Indices 1 2 3 4 5 6 
#
# 1 0.060157 -0.009322 -0.011553 0.000000 0.000000 0.000000
# 2 -0.009322 0.015899 -0.008239 0.000000 0.000000 0.000000
# 3 -0.011553 -0.008239 0.022829 0.000000 0.000000 0.000000
# 4 0.000000 0.000000 0.000000 0.039246 0.000000 0.000000
# 5 0.000000 0.000000 0.000000 0.000000 1.694819 0.000000
# 6 0.000000 0.000000 0.000000 0.000000 0.000000 0.060131
#
#
# Mechanical properties :
#
#
# Convention : Reuss Voigt Hill
#
# Bulk Modulus (GPa) = 24.59551 44.44278 34.51914
# Shear Modulus (GPa) = 2.54471 15.46287 9.00379
#
# Velocity S-wave (km/s) = 1.36514 3.36514 2.56785
# Velocity P-wave (km/s) = 4.52738 6.90263 5.83710
#
# Compressibility (1/GPa) = 0.04065783
#
# Stress axis : x y z
#
# Youngs Moduli (GPa) = 16.62310 62.89605 43.80327
#
# Poissons Ratio (x) = 0.58630 0.50606
# Poissons Ratio (y) = 0.15496 0.36091
# Poissons Ratio (z) = 0.19205 0.51822
#
# Static dielectric constant tensor:
#      x y z
#    x 2.245660 0.000000 0.000000 
#    y 0.000000 2.945580 0.000000 
#    z 0.000000 0.000000 2.912400 
# 
# 
# High freq. dielectric constant tensor:
#      x y z
#    x 1.451120 0.000000 0.000000 
#    y 0.000000 1.534510 0.000000 
#    z 0.000000 0.000000 1.514710 
# 
# From -- ./inp_files/73694.got.cif
#   From: 2010.03.12/outbox.cif.g09.slc.cpg/sg65_37_cif.got.tgz:73694.got - 2010.04.10 20:52:16.
