data_PCOD8269907
_publ_section_title
;
Structure prediction by ZEFSAII (Michael W. Deem and Ramdas Pophale) SiO2 
 PCOD8269907
Probable space group: C M M M
;
_chemical_formula_sum "Si O2"
_cell_formula_units_Z 80
_cell_length_a 28.125011
_cell_length_b 8.811782
_cell_length_c 20.862514
_cell_angle_alpha 90.000000
_cell_angle_beta 90.000000
_cell_angle_gamma 90.000000
_cell_volume 5170.387422
_symmetry_space_group_name_H-M "C M M M"
_symmetry_group_IT_number 65
_symmetry_cell_setting 'orthorhombic'
loop_
_space_group_symop_operation_xyz
x,y,z
-x,-y,z
x,-y,-z
-x,y,-z
-x,-y,-z
x,y,-z
-x,y,z
x,-y,z
1/2+x,1/2+y,z
1/2-x,1/2-y,z
1/2+x,1/2-y,-z
1/2-x,1/2+y,-z
1/2-x,1/2-y,-z
1/2+x,1/2+y,-z
1/2-x,1/2+y,z
1/2+x,1/2-y,z
loop_
_atom_site_type_symbol
_atom_site_label
_atom_site_fract_x
_atom_site_fract_y
_atom_site_fract_z
Si Si1 0.106783 0.321338 0.381263
Si Si2 0.056670 0.330013 0.863070
Si Si3 0.943713 0.172295 0.500000
Si Si4 0.555816 0.325308 0.264838
Si Si5 0.200327 0.177118 0.425643
Si Si6 0.552145 0.819544 0.000000
O O1 0.109741 0.500000 0.389868
O O2 0.074166 0.254394 0.436847
O O3 0.083835 0.280780 0.313557
O O4 0.159491 0.252853 0.383336
O O5 0.074833 0.500000 0.846924
O O6 0.073068 0.217087 0.806823
O O7 0.077886 0.273188 0.932530
O O8 0.000000 0.331550 0.869309
O O9 0.000000 0.175336 0.500000
O O10 0.924183 0.000000 0.500000
O O11 0.500000 0.292960 0.272972
O O12 0.567987 0.500000 0.278552
O O13 0.189138 0.210826 0.500000
O O14 0.250000 0.250000 0.404850
O O15 0.202535 0.000000 0.411120
O O16 0.500000 0.743666 0.000000
O O17 0.547090 0.000000 0.000000
#
# Coordination Sequence:
#
# PCOD8269907 Si02
#       6
#    16  16   8  16  16   8
#     4  12  23  34  50  69  89 115 150 187 225 269
#     4   8  13  23  39  58  80 109 147 186 222 262
#     4  11  23  37  50  65  88 117 149 187 229 267
#     4  10  20  32  44  60  87 122 156 190 229 269
#     4  10  20  35  55  74  94 114 138 176 224 273
#     4   7  10  18  35  57  79 105 140 183 224 259
#
# _framework density 15.472728
#
# number of rings (size 3 to 8) (size 9 to 14) (size 15 to 20)
#    0.000    2.200    1.000    5.100    0.000    5.200 
#    0.000    0.500    0.000    3.000    0.000    0.000 
#    0.000    0.000    0.000    0.900    0.000   11.500 
#
# Total GULP energy -495838.921580 kJ/mol
# GULP energy per Si atom -12395.973040 kJ/mol
# Density = 1.543751 g / cm^3
# Si number density = 15.472728 Si / 1000 Ang^3
#
#
#
# Elastic Constant Matrix: (Units=GPa)
#
#
# Indices 1 2 3 4 5 6 
#
# 1 56.9317 36.7044 34.5908 0.0000 0.0000 0.0000
# 2 36.7044 92.3144 36.5967 0.0000 0.0000 0.0000
# 3 34.5908 36.5967 110.2289 0.0000 0.0000 0.0000
# 4 0.0000 0.0000 0.0000 16.0311 0.0000 0.0000
# 5 0.0000 0.0000 0.0000 0.0000 1.6161 0.0000
# 6 0.0000 0.0000 0.0000 0.0000 0.0000 21.7778
#
#
#
# Elastic Compliance Matrix: (Units=1/GPa)
#
#
# Indices 1 2 3 4 5 6 
#
# 1 0.026218 -0.008248 -0.005489 0.000000 0.000000 0.000000
# 2 -0.008248 0.015069 -0.002415 0.000000 0.000000 0.000000
# 3 -0.005489 -0.002415 0.011596 0.000000 0.000000 0.000000
# 4 0.000000 0.000000 0.000000 0.062379 0.000000 0.000000
# 5 0.000000 0.000000 0.000000 0.000000 0.618760 0.000000
# 6 0.000000 0.000000 0.000000 0.000000 0.000000 0.045918
#
#
# Mechanical properties :
#
#
# Convention : Reuss Voigt Hill
#
# Bulk Modulus (GPa) = 48.59206 52.80653 50.69929
# Shear Modulus (GPa) = 6.10424 17.99054 12.04739
#
# Velocity S-wave (km/s) = 1.98840 3.41358 2.79340
# Velocity P-wave (km/s) = 6.06175 7.05263 6.57588
#
# Compressibility (1/GPa) = 0.02057950
#
# Stress axis : x y z
#
# Youngs Moduli (GPa) = 38.14241 66.35994 86.23509
#
# Poissons Ratio (x) = 0.54735 0.47333
# Poissons Ratio (y) = 0.31460 0.20824
# Poissons Ratio (z) = 0.20936 0.16024
#
# Static dielectric constant tensor:
#      x y z
#    x 2.661590 0.000000 0.000000 
#    y 0.000000 3.005840 0.000000 
#    z 0.000000 0.000000 3.322160 
# 
# 
# High freq. dielectric constant tensor:
#      x y z
#    x 1.544450 0.000000 0.000000 
#    y 0.000000 1.599870 0.000000 
#    z 0.000000 0.000000 1.595980 
# 
# From -- ./inp_files/60055.got.cif
#   From: 2010.03.12/outbox.cif.g09.slc.cpg/sg65_31_cif.got.tgz:60055.got - 2010.04.10 20:52:16.
