data_PCOD8269318
_publ_section_title
;
Structure prediction by ZEFSAII (Michael W. Deem and Ramdas Pophale) SiO2 
 PCOD8269318
Probable space group: C M M M
;
_chemical_formula_sum "Si O2"
_cell_formula_units_Z 88
_cell_length_a 18.965982
_cell_length_b 27.847868
_cell_length_c 9.250948
_cell_angle_alpha 90.000000
_cell_angle_beta 90.000000
_cell_angle_gamma 90.000000
_cell_volume 4886.000708
_symmetry_space_group_name_H-M "C M M M"
_symmetry_group_IT_number 65
_symmetry_cell_setting 'orthorhombic'
loop_
_space_group_symop_operation_xyz
x,y,z
-x,-y,z
x,-y,-z
-x,y,-z
-x,-y,-z
x,y,-z
-x,y,z
x,-y,z
1/2+x,1/2+y,z
1/2-x,1/2-y,z
1/2+x,1/2-y,-z
1/2-x,1/2+y,-z
1/2-x,1/2-y,-z
1/2+x,1/2+y,-z
1/2-x,1/2+y,z
1/2+x,1/2-y,z
loop_
_atom_site_type_symbol
_atom_site_label
_atom_site_fract_x
_atom_site_fract_y
_atom_site_fract_z
Si Si1 0.418719 0.317520 0.332410
Si Si2 0.416886 0.500000 0.162956
Si Si3 0.083770 0.724835 0.162916
Si Si4 0.190998 0.553575 0.329113
Si Si5 0.918643 0.368674 0.330417
Si Si6 0.155116 0.084277 0.330632
O O1 0.411473 0.304043 0.500000
O O2 0.500000 0.329278 0.293855
O O3 0.388773 0.272772 0.241419
O O4 0.370560 0.362592 0.290417
O O5 0.500000 0.500000 0.162411
O O6 0.391984 0.452774 0.244271
O O7 0.386886 0.500000 0.000000
O O8 0.110639 0.678092 0.248262
O O9 0.000000 0.725115 0.165288
O O10 0.113345 0.723587 0.000000
O O11 0.187574 0.549377 0.500000
O O12 0.185606 0.500000 0.261292
O O13 0.125987 0.585812 0.273702
O O14 0.263903 0.578538 0.282036
O O15 0.907542 0.359529 0.500000
O O16 0.000000 0.379304 0.293646
O O17 0.145154 0.073633 0.500000
#
# Coordination Sequence:
#
# PCOD8269318 Si02
#       6
#    16   8  16  16  16  16
#     4   9  17  29  48  74  99 125 163 207 248 293
#     4  11  23  35  49  73 104 135 170 212 251 291
#     4   9  17  30  49  72  99 131 164 202 250 299
#     4   9  17  31  52  76 101 130 166 210 256 300
#     4   9  17  30  51  77 102 129 164 207 253 303
#     4  10  19  34  54  74  99 134 172 210 251 297
#
# _framework density 18.010639999999999
#
# number of rings (size 3 to 8) (size 9 to 14) (size 15 to 20)
#    0.000    2.636    0.909    1.364    0.000    4.727 
#    0.000    5.455    0.000    5.455    0.000    2.545 
#    0.000    0.000    0.000    0.000    0.000    0.000 
#
# Total GULP energy -545592.010184 kJ/mol
# GULP energy per Si atom -12399.818413 kJ/mol
# Density = 1.796965 g / cm^3
# Si number density = 18.010640 Si / 1000 Ang^3
#
#
#
# Elastic Constant Matrix: (Units=GPa)
#
#
# Indices 1 2 3 4 5 6 
#
# 1 80.7487 76.6117 34.6583 0.0000 0.0000 0.0000
# 2 76.6117 183.1801 62.7720 0.0000 0.0000 0.0000
# 3 34.6583 62.7720 65.4803 0.0000 0.0000 0.0000
# 4 0.0000 0.0000 0.0000 0.6395 0.0000 0.0000
# 5 0.0000 0.0000 0.0000 0.0000 11.1903 0.0000
# 6 0.0000 0.0000 0.0000 0.0000 0.0000 -34.6905
#
#
#
# Elastic Compliance Matrix: (Units=1/GPa)
#
#
# Indices 1 2 3 4 5 6 
#
# 1 0.021231 -0.007489 -0.004058 0.000000 0.000000 0.000000
# 2 -0.007489 0.010771 -0.006362 0.000000 0.000000 0.000000
# 3 -0.004058 -0.006362 0.023519 0.000000 0.000000 0.000000
# 4 0.000000 0.000000 0.000000 1.563780 0.000000 0.000000
# 5 0.000000 0.000000 0.000000 0.000000 0.089363 0.000000
# 6 0.000000 0.000000 0.000000 0.000000 0.000000 -0.028826
#
#
# Mechanical properties :
#
#
# Convention : Reuss Voigt Hill
#
# Bulk Modulus (GPa) = 50.75457 75.27702 63.01580
# Shear Modulus (GPa) = 2.90322 5.78567 4.34445
#
# Velocity S-wave (km/s) = 1.27100 1.79425 1.55480
# Velocity P-wave (km/s) = 5.51321 6.79552 6.18767
#
# Compressibility (1/GPa) = 0.01970266
#
# Stress axis : x y z
#
# Youngs Moduli (GPa) = 47.10060 92.83944 42.51925
#
# Poissons Ratio (x) = 0.69525 0.17256
# Poissons Ratio (y) = 0.35273 0.27051
# Poissons Ratio (z) = 0.19116 0.59065
#
# Static dielectric constant tensor:
#      x y z
#    x 3.215260 0.000000 0.000000 
#    y 0.000000 3.605210 0.000000 
#    z 0.000000 0.000000 3.231090 
# 
# 
# High freq. dielectric constant tensor:
#      x y z
#    x 1.677180 0.000000 0.000000 
#    y 0.000000 1.709630 0.000000 
#    z 0.000000 0.000000 1.675400 
# 
# From -- ./inp_files/10043.got.cif
#   From: 2010.03.12/outbox.cif.g09.slc.cpg/sg65_6_cif.got.tgz:10043.got - 2010.04.10 20:52:16.
