data_PCOD8269843
_publ_section_title
;
Structure prediction by ZEFSAII (Michael W. Deem and Ramdas Pophale) SiO2 
 PCOD8269843
Probable space group: C M M M
;
_chemical_formula_sum "Si O2"
_cell_formula_units_Z 88
_cell_length_a 9.060062
_cell_length_b 25.600248
_cell_length_c 22.253692
_cell_angle_alpha 90.000000
_cell_angle_beta 90.000000
_cell_angle_gamma 90.000000
_cell_volume 5161.517630
_symmetry_space_group_name_H-M "C M M M"
_symmetry_group_IT_number 65
_symmetry_cell_setting 'orthorhombic'
loop_
_space_group_symop_operation_xyz
x,y,z
-x,-y,z
x,-y,-z
-x,y,-z
-x,-y,-z
x,y,-z
-x,y,z
x,-y,z
1/2+x,1/2+y,z
1/2-x,1/2-y,z
1/2+x,1/2-y,-z
1/2-x,1/2+y,-z
1/2-x,1/2-y,-z
1/2+x,1/2+y,-z
1/2-x,1/2+y,z
1/2+x,1/2-y,z
loop_
_atom_site_type_symbol
_atom_site_label
_atom_site_fract_x
_atom_site_fract_y
_atom_site_fract_z
Si Si1 0.832184 0.904876 0.352530
Si Si2 0.675174 0.195325 0.304531
Si Si3 0.824356 0.000000 0.431583
Si Si4 0.669771 0.304373 0.066326
Si Si5 0.830452 0.349915 0.176512
Si Si6 0.337420 0.558747 0.220774
O O1 0.736555 0.851580 0.346535
O O2 0.766120 0.945635 0.401731
O O3 0.826671 0.938202 0.292108
O O4 0.000000 0.888072 0.368435
O O5 0.500000 0.198756 0.313817
O O6 0.750000 0.250000 0.323638
O O7 0.715067 0.184976 0.234333
O O8 0.769791 0.000000 0.500000
O O9 0.000000 0.000000 0.425042
O O10 0.500000 0.294129 0.080308
O O11 0.750000 0.250000 0.069091
O O12 0.734532 0.340003 0.117956
O O13 0.691596 0.330017 0.000000
O O14 0.796182 0.409707 0.191484
O O15 0.000000 0.342103 0.160337
O O16 0.500000 0.579669 0.200581
O O17 0.316468 0.500000 0.199158
#
# Coordination Sequence:
#
# PCOD8269843 Si02
#       6
#    16  16   8  16  16  16
#     4   9  16  29  49  73 101 132 164 199 240 288
#     4  10  20  32  47  71 100 131 164 201 247 295
#     4   9  16  28  51  81 107 131 164 203 240 283
#     4  10  20  33  49  68  91 121 156 194 236 283
#     4  10  20  31  46  70  97 125 158 196 242 291
#     4   9  16  28  47  69  95 127 160 194 236 286
#
# _framework density 17.049249
#
# number of rings (size 3 to 8) (size 9 to 14) (size 15 to 20)
#    0.000    2.455    0.909    2.182    0.000    5.091 
#    0.000    0.455    0.000    2.182    0.000    3.818 
#    0.000    0.000    0.000    0.000    0.000    0.000 
#
# Total GULP energy -545326.959738 kJ/mol
# GULP energy per Si atom -12393.794540 kJ/mol
# Density = 1.701044 g / cm^3
# Si number density = 17.049249 Si / 1000 Ang^3
#
#
#
# Elastic Constant Matrix: (Units=GPa)
#
#
# Indices 1 2 3 4 5 6 
#
# 1 76.8367 47.9282 42.1732 0.0000 0.0000 0.0000
# 2 47.9282 113.4631 50.5056 0.0000 0.0000 0.0000
# 3 42.1732 50.5056 91.1029 0.0000 0.0000 0.0000
# 4 0.0000 0.0000 0.0000 28.8312 0.0000 0.0000
# 5 0.0000 0.0000 0.0000 0.0000 15.8433 0.0000
# 6 0.0000 0.0000 0.0000 0.0000 0.0000 27.8086
#
#
#
# Elastic Compliance Matrix: (Units=1/GPa)
#
#
# Indices 1 2 3 4 5 6 
#
# 1 0.019895 -0.005715 -0.006042 0.000000 0.000000 0.000000
# 2 -0.005715 0.013342 -0.004751 0.000000 0.000000 0.000000
# 3 -0.006042 -0.004751 0.016408 0.000000 0.000000 0.000000
# 4 0.000000 0.000000 0.000000 0.034685 0.000000 0.000000
# 5 0.000000 0.000000 0.000000 0.000000 0.063118 0.000000
# 6 0.000000 0.000000 0.000000 0.000000 0.000000 0.035960
#
#
# Mechanical properties :
#
#
# Convention : Reuss Voigt Hill
#
# Bulk Modulus (GPa) = 60.13367 62.51296 61.32331
# Shear Modulus (GPa) = 22.52588 23.88300 23.20444
#
# Velocity S-wave (km/s) = 3.63881 3.74682 3.69321
# Velocity P-wave (km/s) = 7.28023 7.44741 7.36429
#
# Compressibility (1/GPa) = 0.01662962
#
# Stress axis : x y z
#
# Youngs Moduli (GPa) = 50.26283 74.94961 60.94768
#
# Poissons Ratio (x) = 0.42831 0.36824
# Poissons Ratio (y) = 0.28723 0.28958
# Poissons Ratio (z) = 0.30368 0.35611
#
# Static dielectric constant tensor:
#      x y z
#    x 3.178770 0.000000 0.000000 
#    y 0.000000 3.813970 0.000000 
#    z 0.000000 0.000000 3.188500 
# 
# 
# High freq. dielectric constant tensor:
#      x y z
#    x 1.655470 0.000000 0.000000 
#    y 0.000000 1.652620 0.000000 
#    z 0.000000 0.000000 1.633450 
# 
# From -- ./inp_files/59787.got.cif
#   From: 2010.03.12/outbox.cif.g09.slc.cpg/sg65_30_cif.got.tgz:59787.got - 2010.04.10 20:52:16.
