data_PCOD8269410
_publ_section_title
;
Structure prediction by ZEFSAII (Michael W. Deem and Ramdas Pophale) SiO2 
 PCOD8269410
Probable space group: C M M M
;
_chemical_formula_sum "Si O2"
_cell_formula_units_Z 72
_cell_length_a 19.006847
_cell_length_b 8.712125
_cell_length_c 23.128950
_cell_angle_alpha 90.000000
_cell_angle_beta 90.000000
_cell_angle_gamma 90.000000
_cell_volume 3829.923453
_symmetry_space_group_name_H-M "C M M M"
_symmetry_group_IT_number 65
_symmetry_cell_setting 'orthorhombic'
loop_
_space_group_symop_operation_xyz
x,y,z
-x,-y,z
x,-y,-z
-x,y,-z
-x,-y,-z
x,y,-z
-x,y,z
x,-y,z
1/2+x,1/2+y,z
1/2-x,1/2-y,z
1/2+x,1/2-y,-z
1/2-x,1/2+y,-z
1/2-x,1/2-y,-z
1/2+x,1/2+y,-z
1/2-x,1/2+y,z
1/2+x,1/2-y,z
loop_
_atom_site_type_symbol
_atom_site_label
_atom_site_fract_x
_atom_site_fract_y
_atom_site_fract_z
Si Si1 0.421291 0.182271 0.500000
Si Si2 0.175358 0.180314 0.273778
Si Si3 0.583542 0.327340 0.063219
Si Si4 0.325529 0.817519 0.604694
Si Si5 0.583100 0.174674 0.821484
O O1 0.500000 0.251450 0.500000
O O2 0.381108 0.240261 0.442884
O O3 0.424068 0.000000 0.500000
O O4 0.250000 0.250000 0.254763
O O5 0.148906 0.255155 0.333492
O O6 0.118280 0.214462 0.224967
O O7 0.183808 0.000000 0.282632
O O8 0.500000 0.326194 0.062972
O O9 0.610865 0.500000 0.074537
O O10 0.611305 0.218032 0.114414
O O11 0.610613 0.269470 0.000000
O O12 0.250000 0.750000 0.587788
O O13 0.320219 0.000000 0.607000
O O14 0.500000 0.199748 0.817136
O O15 0.604567 0.000000 0.808725
#
# Coordination Sequence:
#
# PCOD8269410 Si02
#       5
#     8  16  16  16  16
#     4   9  19  34  53  79 108 137 168 206 254 303
#     4  11  22  37  56  77 104 137 176 218 262 312
#     4   8  14  26  45  70 101 136 173 213 257 305
#     4  10  19  34  56  78 102 134 173 212 252 303
#     4  10  20  33  51  77 107 138 174 216 262 311
#
# _framework density 18.799330999999999
#
# number of rings (size 3 to 8) (size 9 to 14) (size 15 to 20)
#    0.000    2.333    0.000    5.667    0.000    2.667 
#    0.000    6.111    0.000    5.333    0.000    0.000 
#    0.000    0.000    0.000    0.000    0.000    0.000 
#
# Total GULP energy -446350.402437 kJ/mol
# GULP energy per Si atom -12398.622290 kJ/mol
# Density = 1.875654 g / cm^3
# Si number density = 18.799331 Si / 1000 Ang^3
#
#
#
# Elastic Constant Matrix: (Units=GPa)
#
#
# Indices 1 2 3 4 5 6 
#
# 1 66.6471 29.5777 64.8119 0.0000 0.0000 0.0000
# 2 29.5777 93.8437 44.0077 0.0000 0.0000 0.0000
# 3 64.8119 44.0077 149.1609 0.0000 0.0000 0.0000
# 4 0.0000 0.0000 0.0000 30.0318 0.0000 0.0000
# 5 0.0000 0.0000 0.0000 0.0000 12.9278 0.0000
# 6 0.0000 0.0000 0.0000 0.0000 0.0000 23.7412
#
#
#
# Elastic Compliance Matrix: (Units=1/GPa)
#
#
# Indices 1 2 3 4 5 6 
#
# 1 0.026930 -0.003482 -0.010674 0.000000 0.000000 0.000000
# 2 -0.003482 0.012817 -0.002269 0.000000 0.000000 0.000000
# 3 -0.010674 -0.002269 0.012011 0.000000 0.000000 0.000000
# 4 0.000000 0.000000 0.000000 0.033298 0.000000 0.000000
# 5 0.000000 0.000000 0.000000 0.000000 0.077353 0.000000
# 6 0.000000 0.000000 0.000000 0.000000 0.000000 0.042121
#
#
# Mechanical properties :
#
#
# Convention : Reuss Voigt Hill
#
# Bulk Modulus (GPa) = 52.88417 65.16070 59.02244
# Shear Modulus (GPa) = 20.51848 24.75710 22.63779
#
# Velocity S-wave (km/s) = 3.30729 3.63287 3.47390
# Velocity P-wave (km/s) = 6.54035 7.23418 6.89600
#
# Compressibility (1/GPa) = 0.01890925
#
# Stress axis : x y z
#
# Youngs Moduli (GPa) = 37.13367 78.01916 83.25455
#
# Poissons Ratio (x) = 0.27168 0.88865
# Poissons Ratio (y) = 0.12931 0.18886
# Poissons Ratio (z) = 0.39636 0.17699
#
# Static dielectric constant tensor:
#      x y z
#    x 3.190510 0.000000 0.000000 
#    y 0.000000 3.431260 0.000000 
#    z 0.000000 0.000000 3.794870 
# 
# 
# High freq. dielectric constant tensor:
#      x y z
#    x 1.696130 0.000000 0.000000 
#    y 0.000000 1.728570 0.000000 
#    z 0.000000 0.000000 1.747660 
# 
# From -- ./inp_files/64295.got.cif
#   From: 2010.03.12/outbox.cif.g09.slc.cpg/sg65_33_cif.got.tgz:64295.got - 2010.04.10 20:52:16.
