data_PCOD8269661
_publ_section_title
;
Structure prediction by ZEFSAII (Michael W. Deem and Ramdas Pophale) SiO2 
 PCOD8269661
Probable space group: C M M M
;
_chemical_formula_sum "Si O2"
_cell_formula_units_Z 88
_cell_length_a 27.550570
_cell_length_b 19.042232
_cell_length_c 8.647777
_cell_angle_alpha 90.000000
_cell_angle_beta 90.000000
_cell_angle_gamma 90.000000
_cell_volume 4536.834350
_symmetry_space_group_name_H-M "C M M M"
_symmetry_group_IT_number 65
_symmetry_cell_setting 'orthorhombic'
loop_
_space_group_symop_operation_xyz
x,y,z
-x,-y,z
x,-y,-z
-x,y,-z
-x,-y,-z
x,y,-z
-x,y,z
x,-y,z
1/2+x,1/2+y,z
1/2-x,1/2-y,z
1/2+x,1/2-y,-z
1/2-x,1/2+y,-z
1/2-x,1/2-y,-z
1/2+x,1/2+y,-z
1/2-x,1/2+y,z
1/2+x,1/2-y,z
loop_
_atom_site_type_symbol
_atom_site_label
_atom_site_fract_x
_atom_site_fract_y
_atom_site_fract_z
Si Si1 0.500000 0.580059 0.182836
Si Si2 0.124298 0.303763 0.684666
Si Si3 0.554167 0.077433 0.683848
Si Si4 0.731343 0.171621 0.326163
Si Si5 0.095568 0.149806 0.318237
Si Si6 0.187347 0.919225 0.822537
O O1 0.500000 0.500000 0.246902
O O2 0.547640 0.620309 0.238732
O O3 0.500000 0.579222 0.000000
O O4 0.125344 0.301797 0.500000
O O5 0.088372 0.362517 0.753647
O O6 0.177423 0.325169 0.745773
O O7 0.106969 0.227922 0.746036
O O8 0.554237 0.082271 0.500000
O O9 0.500000 0.090402 0.747005
O O10 0.572448 0.000000 0.735499
O O11 0.731518 0.139995 0.500000
O O12 0.750000 0.250000 0.330927
O O13 0.764721 0.124186 0.218451
O O14 0.086250 0.150764 0.500000
O O15 0.141704 0.101411 0.282455
O O16 0.199636 0.000000 0.791929
O O17 0.173374 0.905048 0.000000
#
# Coordination Sequence:
#
# PCOD8269661 Si02
#       6
#     8  16  16  16  16  16
#     4  11  25  43  59  81 118 155 190 238 289 345
#     4   9  18  31  51  81 115 145 181 234 286 333
#     4   8  14  25  43  70 106 144 176 211 267 334
#     4  10  19  36  57  82 114 145 186 238 287 335
#     4  11  22  38  61  88 115 148 192 241 292 344
#     4  11  24  40  58  83 116 154 195 237 286 348
#
# _framework density 19.396784
#
# number of rings (size 3 to 8) (size 9 to 14) (size 15 to 20)
#    0.000    2.091    1.818    2.455    1.273    5.455 
#    0.000    1.818    0.000    0.000    0.000    0.000 
#    0.000    0.727    0.000    0.000    0.000    0.000 
#
# Total GULP energy -545583.871063 kJ/mol
# GULP energy per Si atom -12399.633433 kJ/mol
# Density = 1.935264 g / cm^3
# Si number density = 19.396784 Si / 1000 Ang^3
#
#
#
# Elastic Constant Matrix: (Units=GPa)
#
#
# Indices 1 2 3 4 5 6 
#
# 1 156.5130 76.6553 19.5992 0.0000 0.0000 0.0000
# 2 76.6553 122.3282 27.3514 0.0000 0.0000 0.0000
# 3 19.5992 27.3514 34.9462 0.0000 0.0000 0.0000
# 4 0.0000 0.0000 0.0000 15.3871 0.0000 0.0000
# 5 0.0000 0.0000 0.0000 0.0000 21.5128 0.0000
# 6 0.0000 0.0000 0.0000 0.0000 0.0000 41.4550
#
#
#
# Elastic Compliance Matrix: (Units=1/GPa)
#
#
# Indices 1 2 3 4 5 6 
#
# 1 0.009236 -0.005612 -0.000788 0.000000 0.000000 0.000000
# 2 -0.005612 0.013318 -0.007277 0.000000 0.000000 0.000000
# 3 -0.000788 -0.007277 0.034753 0.000000 0.000000 0.000000
# 4 0.000000 0.000000 0.000000 0.064989 0.000000 0.000000
# 5 0.000000 0.000000 0.000000 0.000000 0.046484 0.000000
# 6 0.000000 0.000000 0.000000 0.000000 0.000000 0.024123
#
#
# Mechanical properties :
#
#
# Convention : Reuss Voigt Hill
#
# Bulk Modulus (GPa) = 33.38382 62.33325 47.85854
# Shear Modulus (GPa) = 21.71645 28.34975 25.03310
#
# Velocity S-wave (km/s) = 3.34966 3.82720 3.59636
# Velocity P-wave (km/s) = 5.67527 7.19274 6.47859
#
# Compressibility (1/GPa) = 0.02995463
#
# Stress axis : x y z
#
# Youngs Moduli (GPa) = 108.26821 75.08566 28.77488
#
# Poissons Ratio (x) = 0.42135 0.02268
# Poissons Ratio (y) = 0.60756 0.20938
# Poissons Ratio (z) = 0.08532 0.54636
#
# Static dielectric constant tensor:
#      x y z
#    x 3.637190 0.000000 0.000000 
#    y 0.000000 3.789970 0.000000 
#    z 0.000000 0.000000 3.183450 
# 
# 
# High freq. dielectric constant tensor:
#      x y z
#    x 1.767730 0.000000 0.000000 
#    y 0.000000 1.766130 0.000000 
#    z 0.000000 0.000000 1.716580 
# 
# From -- ./inp_files/13973.got.cif
#   From: 2010.03.12/outbox.cif.g09.slc.cpg/sg65_7_cif.got.tgz:13973.got - 2010.04.10 20:52:16.
