data_PCOD8269819
_publ_section_title
;
Structure prediction by ZEFSAII (Michael W. Deem and Ramdas Pophale) SiO2 
 PCOD8269819
Probable space group: C M M M
;
_chemical_formula_sum "Si O2"
_cell_formula_units_Z 80
_cell_length_a 29.095267
_cell_length_b 21.081012
_cell_length_c 7.534868
_cell_angle_alpha 90.000000
_cell_angle_beta 90.000000
_cell_angle_gamma 90.000000
_cell_volume 4621.569101
_symmetry_space_group_name_H-M "C M M M"
_symmetry_group_IT_number 65
_symmetry_cell_setting 'orthorhombic'
loop_
_space_group_symop_operation_xyz
x,y,z
-x,-y,z
x,-y,-z
-x,y,-z
-x,-y,-z
x,y,-z
-x,y,z
x,-y,z
1/2+x,1/2+y,z
1/2-x,1/2-y,z
1/2+x,1/2-y,-z
1/2-x,1/2+y,-z
1/2-x,1/2-y,-z
1/2+x,1/2+y,-z
1/2-x,1/2+y,z
1/2+x,1/2-y,z
loop_
_atom_site_type_symbol
_atom_site_label
_atom_site_fract_x
_atom_site_fract_y
_atom_site_fract_z
Si Si1 0.352486 0.905994 0.199242
Si Si2 0.250821 0.931247 0.789626
Si Si3 0.551754 0.208623 0.500000
Si Si4 0.921714 0.432243 0.500000
Si Si5 0.212833 0.199367 0.211335
Si Si6 0.878284 0.736286 0.800073
O O1 0.303479 0.928183 0.273310
O O2 0.391324 0.934149 0.323675
O O3 0.352400 0.830350 0.202589
O O4 0.361438 0.931275 0.000000
O O5 0.223035 0.871197 0.710975
O O6 0.230515 0.000000 0.726899
O O7 0.249441 0.926166 0.000000
O O8 0.500000 0.235265 0.500000
O O9 0.548016 0.131606 0.500000
O O10 0.577386 0.235531 0.326596
O O11 0.949621 0.500000 0.500000
O O12 0.250000 0.250000 0.287893
O O13 0.160610 0.215121 0.270405
O O14 0.215867 0.200910 0.000000
O O15 0.895043 0.753017 0.000000
#
# Coordination Sequence:
#
# PCOD8269819 Si02
#       6
#    16  16   8   8  16  16
#     4   9  16  28  44  63  90 123 158 192 221 257
#     4   9  15  22  37  63  95 130 161 188 221 259
#     4  10  22  37  50  68  90 111 150 205 249 282
#     4  10  20  31  45  65  86 115 154 191 236 285
#     4   9  14  24  43  66  95 129 159 188 223 270
#     4   9  17  31  51  70  90 121 157 191 231 277
#
# _framework density 17.310137000000001
#
# number of rings (size 3 to 8) (size 9 to 14) (size 15 to 20)
#    0.000    2.800    2.000    0.600    0.000    1.800 
#    0.000    1.500    0.000    0.000    0.000    5.600 
#    0.000    1.600    0.000    7.800    0.000    0.000 
#
# Total GULP energy -495597.976048 kJ/mol
# GULP energy per Si atom -12389.949401 kJ/mol
# Density = 1.727074 g / cm^3
# Si number density = 17.310137 Si / 1000 Ang^3
#
#
#
# Elastic Constant Matrix: (Units=GPa)
#
#
# Indices 1 2 3 4 5 6 
#
# 1 103.2800 49.4557 35.5921 0.0000 0.0000 0.0000
# 2 49.4557 98.8101 10.7353 0.0000 0.0000 0.0000
# 3 35.5921 10.7353 65.5448 0.0000 0.0000 0.0000
# 4 0.0000 0.0000 0.0000 2.5907 0.0000 0.0000
# 5 0.0000 0.0000 0.0000 0.0000 41.1655 0.0000
# 6 0.0000 0.0000 0.0000 0.0000 0.0000 5.8669
#
#
#
# Elastic Compliance Matrix: (Units=1/GPa)
#
#
# Indices 1 2 3 4 5 6 
#
# 1 0.015542 -0.006986 -0.007295 0.000000 0.000000 0.000000
# 2 -0.006986 0.013444 0.001592 0.000000 0.000000 0.000000
# 3 -0.007295 0.001592 0.018957 0.000000 0.000000 0.000000
# 4 0.000000 0.000000 0.000000 0.386003 0.000000 0.000000
# 5 0.000000 0.000000 0.000000 0.000000 0.024292 0.000000
# 6 0.000000 0.000000 0.000000 0.000000 0.000000 0.170447
#
#
# Mechanical properties :
#
#
# Convention : Reuss Voigt Hill
#
# Bulk Modulus (GPa) = 44.31860 51.02235 47.67047
# Shear Modulus (GPa) = 7.55759 21.38140 14.46949
#
# Velocity S-wave (km/s) = 2.09176 3.51835 2.89433
# Velocity P-wave (km/s) = 5.61179 6.78560 6.22642
#
# Compressibility (1/GPa) = 0.02256389
#
# Stress axis : x y z
#
# Youngs Moduli (GPa) = 64.34225 74.38136 52.74957
#
# Poissons Ratio (x) = 0.51965 0.38482
# Poissons Ratio (y) = 0.44951 -0.08396
# Poissons Ratio (z) = 0.46939 -0.11839
#
# Static dielectric constant tensor:
#      x y z
#    x 2.835300 0.000000 0.000000 
#    y 0.000000 3.512340 0.000000 
#    z 0.000000 0.000000 3.217230 
# 
# 
# High freq. dielectric constant tensor:
#      x y z
#    x 1.620820 0.000000 0.000000 
#    y 0.000000 1.659530 0.000000 
#    z 0.000000 0.000000 1.662360 
# 
# From -- ./inp_files/11595.got.cif
#   From: 2010.03.12/outbox.cif.g09.slc.cpg/sg65_6_cif.got.tgz:11595.got - 2010.04.10 20:52:16.
