data_PCOD8269905
_publ_section_title
;
Structure prediction by ZEFSAII (Michael W. Deem and Ramdas Pophale) SiO2 
 PCOD8269905
Probable space group: C M M M
;
_chemical_formula_sum "Si O2"
_cell_formula_units_Z 96
_cell_length_a 8.875441
_cell_length_b 28.385572
_cell_length_c 25.923681
_cell_angle_alpha 90.000000
_cell_angle_beta 90.000000
_cell_angle_gamma 90.000000
_cell_volume 6531.068821
_symmetry_space_group_name_H-M "C M M M"
_symmetry_group_IT_number 65
_symmetry_cell_setting 'orthorhombic'
loop_
_space_group_symop_operation_xyz
x,y,z
-x,-y,z
x,-y,-z
-x,y,-z
-x,-y,-z
x,y,-z
-x,y,z
x,-y,z
1/2+x,1/2+y,z
1/2-x,1/2-y,z
1/2+x,1/2-y,-z
1/2-x,1/2+y,-z
1/2-x,1/2-y,-z
1/2+x,1/2+y,-z
1/2-x,1/2+y,z
1/2+x,1/2-y,z
loop_
_atom_site_type_symbol
_atom_site_label
_atom_site_fract_x
_atom_site_fract_y
_atom_site_fract_z
Si Si1 0.831079 0.944119 0.704520
Si Si2 0.677354 0.201044 0.940598
Si Si3 0.169868 0.443789 0.397372
Si Si4 0.675419 0.944892 0.809079
Si Si5 0.320991 0.447395 0.000000
Si Si6 0.678632 0.609835 0.098674
Si Si7 0.169755 0.943846 0.500000
O O1 0.758486 0.923636 0.652181
O O2 0.728785 0.928462 0.752608
O O3 0.000000 0.923873 0.710816
O O4 0.836094 0.000000 0.700940
O O5 0.500000 0.203888 0.932400
O O6 0.750000 0.250000 0.922823
O O7 0.746104 0.160966 0.904207
O O8 0.720000 0.190240 0.000000
O O9 0.171837 0.500000 0.397085
O O10 0.247397 0.424278 0.449198
O O11 0.000000 0.424677 0.395421
O O12 0.500000 0.933284 0.815353
O O13 0.772301 0.915704 0.849470
O O14 0.708534 0.000000 0.817754
O O15 0.261380 0.420867 0.050605
O O16 0.253043 0.500000 0.000000
O O17 0.500000 0.449266 0.000000
O O18 0.500000 0.615494 0.097544
O O19 0.000000 0.924644 0.500000
O O20 0.172079 0.000000 0.500000
#
# Coordination Sequence:
#
# PCOD8269905 Si02
#       7
#    16  16  16  16   8  16   8
#     4   9  16  26  39  53  69  94 129 166 203 243
#     4  10  20  34  52  71  91 110 133 163 201 246
#     4   9  15  22  32  46  65  89 118 156 202 246
#     4  10  20  32  44  60  83 110 140 174 210 247
#     4   9  18  30  44  63  86 111 138 167 200 241
#     4  11  20  32  49  67  88 111 138 169 206 249
#     4   9  15  21  29  43  63  87 117 155 198 243
#
# _framework density 14.698971999999999
#
# number of rings (size 3 to 8) (size 9 to 14) (size 15 to 20)
#    0.000    2.333    0.833    3.250    0.000    7.333 
#    0.000    0.000    0.000    2.000    0.000    0.000 
#    0.000    0.000    0.000    0.000    0.000    0.000 
#
# Total GULP energy -595247.690002 kJ/mol
# GULP energy per Si atom -12400.993542 kJ/mol
# Density = 1.466552 g / cm^3
# Si number density = 14.698972 Si / 1000 Ang^3
#
#
#
# Elastic Constant Matrix: (Units=GPa)
#
#
# Indices 1 2 3 4 5 6 
#
# 1 86.6334 25.9843 34.0209 0.0000 0.0000 0.0000
# 2 25.9843 53.7720 30.5869 0.0000 0.0000 0.0000
# 3 34.0209 30.5869 105.3619 0.0000 0.0000 0.0000
# 4 0.0000 0.0000 0.0000 1.4334 0.0000 0.0000
# 5 0.0000 0.0000 0.0000 0.0000 29.6350 0.0000
# 6 0.0000 0.0000 0.0000 0.0000 0.0000 16.4568
#
#
#
# Elastic Compliance Matrix: (Units=1/GPa)
#
#
# Indices 1 2 3 4 5 6 
#
# 1 0.014313 -0.005136 -0.003131 0.000000 0.000000 0.000000
# 2 -0.005136 0.024118 -0.005343 0.000000 0.000000 0.000000
# 3 -0.003131 -0.005343 0.012053 0.000000 0.000000 0.000000
# 4 0.000000 0.000000 0.000000 0.697641 0.000000 0.000000
# 5 0.000000 0.000000 0.000000 0.000000 0.033744 0.000000
# 6 0.000000 0.000000 0.000000 0.000000 0.000000 0.060765
#
#
# Mechanical properties :
#
#
# Convention : Reuss Voigt Hill
#
# Bulk Modulus (GPa) = 42.98313 47.43903 45.21108
# Shear Modulus (GPa) = 5.69731 19.85007 12.77369
#
# Velocity S-wave (km/s) = 1.97089 3.67882 2.95111
# Velocity P-wave (km/s) = 5.87239 7.09850 6.51436
#
# Compressibility (1/GPa) = 0.02326494
#
# Stress axis : x y z
#
# Youngs Moduli (GPa) = 69.86857 41.46262 82.96598
#
# Poissons Ratio (x) = 0.21293 0.25973
# Poissons Ratio (y) = 0.35881 0.44331
# Poissons Ratio (z) = 0.21873 0.22155
#
# Static dielectric constant tensor:
#      x y z
#    x 2.963060 0.000000 0.000000 
#    y 0.000000 2.425780 0.000000 
#    z 0.000000 0.000000 2.941770 
# 
# 
# High freq. dielectric constant tensor:
#      x y z
#    x 1.579070 0.000000 0.000000 
#    y 0.000000 1.495080 0.000000 
#    z 0.000000 0.000000 1.564330 
# 
# From -- ./inp_files/68085.got.cif
#   From: 2010.03.12/outbox.cif.g09.slc.cpg/sg65_35_cif.got.tgz:68085.got - 2010.04.10 20:52:16.
