data_PCOD8269783
_publ_section_title
;
Structure prediction by ZEFSAII (Michael W. Deem and Ramdas Pophale) SiO2 
 PCOD8269783
Probable space group: C M M M
;
_chemical_formula_sum "Si O2"
_cell_formula_units_Z 88
_cell_length_a 36.677155
_cell_length_b 10.494722
_cell_length_c 13.991182
_cell_angle_alpha 90.000000
_cell_angle_beta 90.000000
_cell_angle_gamma 90.000000
_cell_volume 5385.437443
_symmetry_space_group_name_H-M "C M M M"
_symmetry_group_IT_number 65
_symmetry_cell_setting 'orthorhombic'
loop_
_space_group_symop_operation_xyz
x,y,z
-x,-y,z
x,-y,-z
-x,y,-z
-x,-y,-z
x,y,-z
-x,y,z
x,-y,z
1/2+x,1/2+y,z
1/2-x,1/2-y,z
1/2+x,1/2-y,-z
1/2-x,1/2+y,-z
1/2-x,1/2-y,-z
1/2+x,1/2+y,-z
1/2-x,1/2+y,z
1/2+x,1/2-y,z
loop_
_atom_site_type_symbol
_atom_site_label
_atom_site_fract_x
_atom_site_fract_y
_atom_site_fract_z
Si Si1 0.539725 0.348766 0.391131
Si Si2 0.111030 0.147400 0.703853
Si Si3 0.315218 0.651193 0.391028
Si Si4 0.250000 0.250000 0.738801
Si Si5 0.795114 0.360866 0.107379
Si Si6 0.646541 0.355413 0.106619
O O1 0.546309 0.307755 0.500000
O O2 0.500000 0.296806 0.356148
O O3 0.539378 0.500000 0.381533
O O4 0.573026 0.288103 0.329861
O O5 0.146530 0.205598 0.650646
O O6 0.114039 0.167044 0.818106
O O7 0.109379 0.000000 0.675282
O O8 0.310945 0.698810 0.500000
O O9 0.314553 0.500000 0.385017
O O10 0.282237 0.703385 0.328633
O O11 0.236286 0.359837 0.811942
O O12 0.814518 0.500000 0.114245
O O13 0.822158 0.245161 0.130162
O O14 0.778881 0.343863 0.000000
O O15 0.662124 0.500000 0.118765
O O16 0.630845 0.334693 0.000000
#
# Coordination Sequence:
#
# PCOD8269783 Si02
#       6
#    16  16  16   8  16  16
#     4   8  13  21  36  61  91 119 146 180 223 268
#     4   9  15  26  43  62  85 117 151 185 223 268
#     4  10  20  31  43  61  84 115 156 193 224 266
#     4  12  20  32  46  62  86 118 152 192 236 276
#     4  10  21  34  48  67  90 117 152 195 241 282
#     4   9  17  30  48  68  89 116 153 192 230 276
#
# _framework density 16.340363
#
# number of rings (size 3 to 8) (size 9 to 14) (size 15 to 20)
#    0.000    2.545    1.818    2.182    0.000    2.909 
#    0.000    1.818    0.000    0.545    0.000    3.818 
#    0.000    0.727    0.000    6.545    0.000    6.545 
#
# Total GULP energy -545077.488930 kJ/mol
# GULP energy per Si atom -12388.124748 kJ/mol
# Density = 1.630317 g / cm^3
# Si number density = 16.340363 Si / 1000 Ang^3
#
#
#
# Elastic Constant Matrix: (Units=GPa)
#
#
# Indices 1 2 3 4 5 6 
#
# 1 145.7944 27.5712 82.9989 0.0000 0.0000 0.0000
# 2 27.5712 48.0954 25.1189 0.0000 0.0000 0.0000
# 3 82.9989 25.1189 132.7204 0.0000 0.0000 0.0000
# 4 0.0000 0.0000 0.0000 2.2516 0.0000 0.0000
# 5 0.0000 0.0000 0.0000 0.0000 25.3195 0.0000
# 6 0.0000 0.0000 0.0000 0.0000 0.0000 10.9544
#
#
#
# Elastic Compliance Matrix: (Units=1/GPa)
#
#
# Indices 1 2 3 4 5 6 
#
# 1 0.011032 -0.003020 -0.006328 0.000000 0.000000 0.000000
# 2 -0.003020 0.023899 -0.002635 0.000000 0.000000 0.000000
# 3 -0.006328 -0.002635 0.011990 0.000000 0.000000 0.000000
# 4 0.000000 0.000000 0.000000 0.444134 0.000000 0.000000
# 5 0.000000 0.000000 0.000000 0.000000 0.039495 0.000000
# 6 0.000000 0.000000 0.000000 0.000000 0.000000 0.091288
#
#
# Mechanical properties :
#
#
# Convention : Reuss Voigt Hill
#
# Bulk Modulus (GPa) = 43.55864 66.44313 55.00088
# Shear Modulus (GPa) = 7.65162 20.43316 14.04239
#
# Velocity S-wave (km/s) = 2.16629 3.54004 2.93468
# Velocity P-wave (km/s) = 5.74213 7.58020 6.72426
#
# Compressibility (1/GPa) = 0.02295756
#
# Stress axis : x y z
#
# Youngs Moduli (GPa) = 90.64274 41.84257 83.39946
#
# Poissons Ratio (x) = 0.12635 0.52773
# Poissons Ratio (y) = 0.27370 0.21974
# Poissons Ratio (z) = 0.57357 0.11025
#
# Static dielectric constant tensor:
#      x y z
#    x 3.320270 0.000000 0.000000 
#    y 0.000000 2.733260 0.000000 
#    z 0.000000 0.000000 3.358110 
# 
# 
# High freq. dielectric constant tensor:
#      x y z
#    x 1.610630 0.000000 0.000000 
#    y 0.000000 1.578490 0.000000 
#    z 0.000000 0.000000 1.645110 
# 
# From -- ./inp_files/47620.got.cif
#   From: 2010.03.12/outbox.cif.g09.slc.cpg/sg65_24_cif.got.tgz:47620.got - 2010.04.10 20:52:16.
