data_PCOD8269918
_publ_section_title
;
Structure prediction by ZEFSAII (Michael W. Deem and Ramdas Pophale) SiO2 
 PCOD8269918
Probable space group: C M M M
;
_chemical_formula_sum "Si O2"
_cell_formula_units_Z 72
_cell_length_a 8.954141
_cell_length_b 25.362846
_cell_length_c 20.347084
_cell_angle_alpha 90.000000
_cell_angle_beta 90.000000
_cell_angle_gamma 90.000000
_cell_volume 4620.873629
_symmetry_space_group_name_H-M "C M M M"
_symmetry_group_IT_number 65
_symmetry_cell_setting 'orthorhombic'
loop_
_space_group_symop_operation_xyz
x,y,z
-x,-y,z
x,-y,-z
-x,y,-z
-x,-y,-z
x,y,-z
-x,y,z
x,-y,z
1/2+x,1/2+y,z
1/2-x,1/2-y,z
1/2+x,1/2-y,-z
1/2-x,1/2+y,-z
1/2-x,1/2-y,-z
1/2+x,1/2+y,-z
1/2-x,1/2+y,z
1/2+x,1/2-y,z
loop_
_atom_site_type_symbol
_atom_site_label
_atom_site_fract_x
_atom_site_fract_y
_atom_site_fract_z
Si Si1 0.673060 0.693644 0.194341
Si Si2 0.328803 0.105137 0.577856
Si Si3 0.174122 0.806598 0.660450
Si Si4 0.331549 0.500000 0.421840
Si Si5 0.174472 0.306985 0.071349
O O1 0.500000 0.699886 0.177975
O O2 0.750000 0.750000 0.197689
O O3 0.697354 0.668100 0.266402
O O4 0.750873 0.661532 0.133398
O O5 0.314015 0.109395 0.500000
O O6 0.500000 0.104885 0.600557
O O7 0.245661 0.154921 0.607792
O O8 0.252991 0.051685 0.604490
O O9 0.250000 0.750000 0.653619
O O10 0.000000 0.799589 0.644869
O O11 0.500000 0.500000 0.394207
O O12 0.331221 0.500000 0.500000
O O13 0.250000 0.250000 0.068973
O O14 0.000000 0.300837 0.084810
O O15 0.202284 0.334937 0.000000
#
# Coordination Sequence:
#
# PCOD8269918 Si02
#       5
#    16  16  16   8  16
#     4   9  16  25  37  52  72 101 136 171 206 246
#     4  10  20  33  49  68  88 111 141 177 216 258
#     4  10  20  32  45  62  85 115 149 181 216 258
#     4   9  17  31  51  71  89 109 134 169 214 259
#     4   9  15  21  31  48  69  95 129 167 204 241
#
# _framework density 15.581467999999999
#
# number of rings (size 3 to 8) (size 9 to 14) (size 15 to 20)
#    0.000    2.556    0.000    4.333    0.000    7.111 
#    0.000    0.000    0.000    0.000    0.000    0.000 
#    0.000    0.000    0.000    1.000    0.000   19.111 
#
# Total GULP energy -445997.093100 kJ/mol
# GULP energy per Si atom -12388.808142 kJ/mol
# Density = 1.554600 g / cm^3
# Si number density = 15.581468 Si / 1000 Ang^3
#
#
#
# Elastic Constant Matrix: (Units=GPa)
#
#
# Indices 1 2 3 4 5 6 
#
# 1 137.0046 42.4534 44.9845 0.0000 0.0000 0.0000
# 2 42.4534 65.3038 30.2198 0.0000 0.0000 0.0000
# 3 44.9845 30.2198 52.0675 0.0000 0.0000 0.0000
# 4 0.0000 0.0000 0.0000 -54.4457 0.0000 0.0000
# 5 0.0000 0.0000 0.0000 0.0000 27.6374 0.0000
# 6 0.0000 0.0000 0.0000 0.0000 0.0000 21.0115
#
#
#
# Elastic Compliance Matrix: (Units=1/GPa)
#
#
# Indices 1 2 3 4 5 6 
#
# 1 0.010805 -0.003697 -0.007189 0.000000 0.000000 0.000000
# 2 -0.003697 0.022201 -0.009691 0.000000 0.000000 0.000000
# 3 -0.007189 -0.009691 0.031042 0.000000 0.000000 0.000000
# 4 0.000000 0.000000 0.000000 -0.018367 0.000000 0.000000
# 5 0.000000 0.000000 0.000000 0.000000 0.036183 0.000000
# 6 0.000000 0.000000 0.000000 0.000000 0.000000 0.047593
#
#
# Mechanical properties :
#
#
# Convention : Reuss Voigt Hill
#
# Bulk Modulus (GPa) = 43.68220 54.41012 49.04616
# Shear Modulus (GPa) = 28.05132 7.95519 18.00325
#
# Velocity S-wave (km/s) = 4.24760 2.26200 3.40285
# Velocity P-wave (km/s) = 7.22161 6.46666 6.85454
#
# Compressibility (1/GPa) = 0.02289262
#
# Stress axis : x y z
#
# Youngs Moduli (GPa) = 92.54666 45.04217 32.21442
#
# Poissons Ratio (x) = 0.16654 0.23160
# Poissons Ratio (y) = 0.34219 0.31219
# Poissons Ratio (z) = 0.66536 0.43651
#
# Static dielectric constant tensor:
#      x y z
#    x 3.283030 0.000000 0.000000 
#    y 0.000000 2.511320 0.000000 
#    z 0.000000 0.000000 3.932760 
# 
# 
# High freq. dielectric constant tensor:
#      x y z
#    x 1.624470 0.000000 0.000000 
#    y 0.000000 1.526240 0.000000 
#    z 0.000000 0.000000 1.606110 
# 
# From -- ./inp_files/57130.got.cif
#   From: 2010.03.12/outbox.cif.g09.slc.cpg/sg65_29_cif.got.tgz:57130.got - 2010.04.10 20:52:16.
