data_PCOD8269111
_publ_section_title
;
Structure prediction by ZEFSAII (Michael W. Deem and Ramdas Pophale) SiO2 
 PCOD8269111
Probable space group: C M M M
;
_chemical_formula_sum "Si O2"
_cell_formula_units_Z 120
_cell_length_a 26.324849
_cell_length_b 8.748175
_cell_length_c 27.499961
_cell_angle_alpha 90.000000
_cell_angle_beta 90.000000
_cell_angle_gamma 90.000000
_cell_volume 6333.086631
_symmetry_space_group_name_H-M "C M M M"
_symmetry_group_IT_number 65
_symmetry_cell_setting 'orthorhombic'
loop_
_space_group_symop_operation_xyz
x,y,z
-x,-y,z
x,-y,-z
-x,y,-z
-x,-y,-z
x,y,-z
-x,y,z
x,-y,z
1/2+x,1/2+y,z
1/2-x,1/2-y,z
1/2+x,1/2-y,-z
1/2-x,1/2+y,-z
1/2-x,1/2-y,-z
1/2+x,1/2+y,-z
1/2-x,1/2+y,z
1/2+x,1/2-y,z
loop_
_atom_site_type_symbol
_atom_site_label
_atom_site_fract_x
_atom_site_fract_y
_atom_site_fract_z
Si Si1 0.500000 0.818514 0.554264
Si Si2 0.844264 0.820389 0.052650
Si Si3 0.441389 0.678135 0.291861
Si Si4 0.802559 0.319513 0.555363
Si Si5 0.901968 0.681768 0.613174
Si Si6 0.556208 0.324576 0.896366
Si Si7 0.599987 0.821176 0.804863
Si Si8 0.697754 0.681093 0.846696
O O1 0.500000 0.749859 0.500000
O O2 0.550595 0.760141 0.581090
O O3 0.500000 0.000000 0.552173
O O4 0.903538 0.781212 0.061930
O O5 0.811820 0.755764 0.098048
O O6 0.836017 0.000000 0.049766
O O7 0.828678 0.747623 0.000000
O O8 0.500000 0.711767 0.305128
O O9 0.431620 0.500000 0.282965
O O10 0.405272 0.737885 0.334735
O O11 0.427319 0.769907 0.243902
O O12 0.811808 0.263935 0.500000
O O13 0.798093 0.500000 0.557619
O O14 0.750000 0.250000 0.575932
O O15 0.849844 0.263216 0.587831
O O16 0.903326 0.500000 0.619845
O O17 0.500000 0.299868 0.917955
O O18 0.564995 0.500000 0.879630
O O19 0.562956 0.219087 0.849323
O O20 0.653641 0.735540 0.810815
O O21 0.610506 0.000000 0.803392
O O22 0.699910 0.500000 0.845953
O O23 0.750000 0.750000 0.827104
#
# Coordination Sequence:
#
# PCOD8269111 Si02
#       8
#     8  16  16  16  16  16  16  16
#     4   9  16  28  51  81 111 143 179 225 274 319
#     4   8  15  28  47  74 107 141 176 213 256 312
#     4  11  23  38  56  79 111 145 176 216 272 331
#     4   9  18  33  54  80 109 144 186 228 268 313
#     4  10  19  33  54  81 111 143 185 228 269 324
#     4   9  17  30  49  74 105 139 176 219 266 315
#     4  11  22  36  56  79 102 134 178 223 268 320
#     4  10  20  36  57  80 107 137 173 219 269 319
#
# _framework density 18.948107
#
# number of rings (size 3 to 8) (size 9 to 14) (size 15 to 20)
#    0.000    2.333    0.667    3.600    0.000    5.333 
#    0.000    2.000    0.000   12.800    0.000    3.733 
#    0.000    0.000    0.000    0.000    0.000    0.000 
#
# Total GULP energy -743910.726776 kJ/mol
# GULP energy per Si atom -12398.512113 kJ/mol
# Density = 1.890498 g / cm^3
# Si number density = 18.948107 Si / 1000 Ang^3
#
#
#
# Elastic Constant Matrix: (Units=GPa)
#
#
# Indices 1 2 3 4 5 6 
#
# 1 109.7132 24.8916 13.9211 0.0000 0.0000 0.0000
# 2 24.8916 59.8015 18.8205 0.0000 0.0000 0.0000
# 3 13.9211 18.8205 73.9836 0.0000 0.0000 0.0000
# 4 0.0000 0.0000 0.0000 23.1445 0.0000 0.0000
# 5 0.0000 0.0000 0.0000 0.0000 5.1846 0.0000
# 6 0.0000 0.0000 0.0000 0.0000 0.0000 27.9087
#
#
#
# Elastic Compliance Matrix: (Units=1/GPa)
#
#
# Indices 1 2 3 4 5 6 
#
# 1 0.010121 -0.003928 -0.000905 0.000000 0.000000 0.000000
# 2 -0.003928 0.019702 -0.004273 0.000000 0.000000 0.000000
# 3 -0.000905 -0.004273 0.014774 0.000000 0.000000 0.000000
# 4 0.000000 0.000000 0.000000 0.043207 0.000000 0.000000
# 5 0.000000 0.000000 0.000000 0.000000 0.192877 0.000000
# 6 0.000000 0.000000 0.000000 0.000000 0.000000 0.035831
#
#
# Mechanical properties :
#
#
# Convention : Reuss Voigt Hill
#
# Bulk Modulus (GPa) = 37.90085 39.86275 38.88180
# Shear Modulus (GPa) = 14.55530 23.63857 19.09694
#
# Velocity S-wave (km/s) = 2.77459 3.53589 3.17812
# Velocity P-wave (km/s) = 5.50548 6.14439 5.83369
#
# Compressibility (1/GPa) = 0.02638463
#
# Stress axis : x y z
#
# Youngs Moduli (GPa) = 98.80789 50.75738 67.68749
#
# Poissons Ratio (x) = 0.19936 0.06127
# Poissons Ratio (y) = 0.38809 0.28921
# Poissons Ratio (z) = 0.08944 0.21687
#
# Static dielectric constant tensor:
#      x y z
#    x 3.603760 0.000000 0.000000 
#    y 0.000000 3.218240 0.000000 
#    z 0.000000 0.000000 3.525090 
# 
# 
# High freq. dielectric constant tensor:
#      x y z
#    x 1.741620 0.000000 0.000000 
#    y 0.000000 1.714220 0.000000 
#    z 0.000000 0.000000 1.728350 
# 
# From -- ./inp_files/76179.got.cif
#   From: 2010.03.12/outbox.cif.g09.slc.cpg/sg65_39_cif.got.tgz:76179.got - 2010.04.10 20:52:16.
