data_PCOD8269007
_publ_section_title
;
Structure prediction by ZEFSAII (Michael W. Deem and Ramdas Pophale) SiO2 
 PCOD8269007
Probable space group: C M M M
;
_chemical_formula_sum "Si O2"
_cell_formula_units_Z 112
_cell_length_a 31.396363
_cell_length_b 14.189159
_cell_length_c 13.697770
_cell_angle_alpha 90.000000
_cell_angle_beta 90.000000
_cell_angle_gamma 90.000000
_cell_volume 6102.191979
_symmetry_space_group_name_H-M "C M M M"
_symmetry_group_IT_number 65
_symmetry_cell_setting 'orthorhombic'
loop_
_space_group_symop_operation_xyz
x,y,z
-x,-y,z
x,-y,-z
-x,y,-z
-x,-y,-z
x,y,-z
-x,y,z
x,-y,z
1/2+x,1/2+y,z
1/2-x,1/2-y,z
1/2+x,1/2-y,-z
1/2-x,1/2+y,-z
1/2-x,1/2-y,-z
1/2+x,1/2+y,-z
1/2-x,1/2+y,z
1/2+x,1/2-y,z
loop_
_atom_site_type_symbol
_atom_site_label
_atom_site_fract_x
_atom_site_fract_y
_atom_site_fract_z
Si Si1 0.182138 0.610903 0.608048
Si Si2 0.826103 0.897138 0.203566
Si Si3 0.451865 0.245238 0.611908
Si Si4 0.879336 0.892036 0.390079
Si Si5 0.765741 0.349527 0.214916
Si Si6 0.153064 0.699227 0.113465
Si Si7 0.099622 0.389095 0.729219
O O1 0.184967 0.654288 0.500000
O O2 0.188483 0.500000 0.607209
O O3 0.219895 0.653987 0.672537
O O4 0.136529 0.637024 0.652126
O O5 0.841215 0.870973 0.313667
O O6 0.774979 0.916352 0.201574
O O7 0.839971 0.811018 0.134234
O O8 0.845457 0.000000 0.171324
O O9 0.446095 0.212464 0.500000
O O10 0.500000 0.279348 0.631294
O O11 0.420614 0.331192 0.638098
O O12 0.442649 0.156708 0.683234
O O13 0.863013 0.868520 0.500000
O O14 0.894012 0.000000 0.383110
O O15 0.750000 0.250000 0.178946
O O16 0.807376 0.368769 0.147536
O O17 0.111113 0.660336 0.167922
O O18 0.145525 0.685182 0.000000
O O19 0.092829 0.500000 0.744067
#
# Coordination Sequence:
#
# PCOD8269007 Si02
#       7
#    16  16  16  16  16  16  16
#     4   9  17  29  45  65  94 134 173 207 247 301
#     4  10  19  33  53  78 108 141 177 222 273 317
#     4  10  20  34  56  86 116 144 174 210 258 318
#     4   9  18  33  54  81 114 150 182 212 254 314
#     4   9  19  31  45  71 103 136 175 218 258 307
#     4  10  21  38  56  75 102 140 184 229 274 320
#     4  10  20  36  54  75 105 140 177 220 267 319
#
# _framework density 18.354061999999999
#
# number of rings (size 3 to 8) (size 9 to 14) (size 15 to 20)
#    0.000    2.429    1.429    0.857    0.000    6.000 
#    0.000    3.571    0.000    0.429    0.000    1.000 
#    0.000    2.286    0.000    0.000    0.000    0.000 
#
# Total GULP energy -693949.279567 kJ/mol
# GULP energy per Si atom -12391.951421 kJ/mol
# Density = 1.831229 g / cm^3
# Si number density = 18.354062 Si / 1000 Ang^3
#
#
#
# Elastic Constant Matrix: (Units=GPa)
#
#
# Indices 1 2 3 4 5 6 
#
# 1 66.2096 26.0204 32.9419 0.0000 0.0000 0.0000
# 2 26.0204 70.8404 33.5710 0.0000 0.0000 0.0000
# 3 32.9419 33.5710 113.6269 0.0000 0.0000 0.0000
# 4 0.0000 0.0000 0.0000 19.6222 0.0000 0.0000
# 5 0.0000 0.0000 0.0000 0.0000 11.4653 0.0000
# 6 0.0000 0.0000 0.0000 0.0000 0.0000 14.6148
#
#
#
# Elastic Compliance Matrix: (Units=1/GPa)
#
#
# Indices 1 2 3 4 5 6 
#
# 1 0.019119 -0.005111 -0.004033 0.000000 0.000000 0.000000
# 2 -0.005111 0.017781 -0.003772 0.000000 0.000000 0.000000
# 3 -0.004033 -0.003772 0.011084 0.000000 0.000000 0.000000
# 4 0.000000 0.000000 0.000000 0.050963 0.000000 0.000000
# 5 0.000000 0.000000 0.000000 0.000000 0.087220 0.000000
# 6 0.000000 0.000000 0.000000 0.000000 0.000000 0.068424
#
#
# Mechanical properties :
#
#
# Convention : Reuss Voigt Hill
#
# Bulk Modulus (GPa) = 45.14114 48.41595 46.77855
# Shear Modulus (GPa) = 17.37284 19.68336 18.52810
#
# Velocity S-wave (km/s) = 3.07993 3.27834 3.18068
# Velocity P-wave (km/s) = 6.10704 6.38484 6.24748
#
# Compressibility (1/GPa) = 0.02215274
#
# Stress axis : x y z
#
# Youngs Moduli (GPa) = 52.30467 56.23971 90.21910
#
# Poissons Ratio (x) = 0.28747 0.36382
# Poissons Ratio (y) = 0.26735 0.34026
# Poissons Ratio (z) = 0.21092 0.21211
#
# Static dielectric constant tensor:
#      x y z
#    x 3.341840 0.000000 0.000000 
#    y 0.000000 3.430120 0.000000 
#    z 0.000000 0.000000 3.209940 
# 
# 
# High freq. dielectric constant tensor:
#      x y z
#    x 1.684420 0.000000 0.000000 
#    y 0.000000 1.720640 0.000000 
#    z 0.000000 0.000000 1.691800 
# 
# From -- ./inp_files/33970.got.cif
#   From: 2010.03.12/outbox.cif.g09.slc.cpg/sg65_17_cif.got.tgz:33970.got - 2010.04.10 20:52:16.
