data_PCOD8269769
_publ_section_title
;
Structure prediction by ZEFSAII (Michael W. Deem and Ramdas Pophale) SiO2 
 PCOD8269769
Probable space group: C M M M
;
_chemical_formula_sum "Si O2"
_cell_formula_units_Z 96
_cell_length_a 29.998151
_cell_length_b 9.329575
_cell_length_c 25.360643
_cell_angle_alpha 90.000000
_cell_angle_beta 90.000000
_cell_angle_gamma 90.000000
_cell_volume 7097.683147
_symmetry_space_group_name_H-M "C M M M"
_symmetry_group_IT_number 65
_symmetry_cell_setting 'orthorhombic'
loop_
_space_group_symop_operation_xyz
x,y,z
-x,-y,z
x,-y,-z
-x,y,-z
-x,-y,-z
x,y,-z
-x,y,z
x,-y,z
1/2+x,1/2+y,z
1/2-x,1/2-y,z
1/2+x,1/2-y,-z
1/2-x,1/2+y,-z
1/2-x,1/2-y,-z
1/2+x,1/2+y,-z
1/2-x,1/2+y,z
1/2+x,1/2-y,z
loop_
_atom_site_type_symbol
_atom_site_label
_atom_site_fract_x
_atom_site_fract_y
_atom_site_fract_z
Si Si1 0.707544 0.162889 0.562747
Si Si2 0.947013 0.660924 0.058112
Si Si3 0.879030 0.165751 0.562148
Si Si4 0.946720 0.839568 0.155860
Si Si5 0.052955 0.341280 0.253055
Si Si6 0.552109 0.833754 0.628889
O O1 0.709163 0.160129 0.500000
O O2 0.750000 0.250000 0.584946
O O3 0.663585 0.245222 0.582508
O O4 0.707803 0.000000 0.584787
O O5 0.929377 0.500000 0.067668
O O6 0.927308 0.761896 0.103806
O O7 0.000000 0.661516 0.061014
O O8 0.931725 0.715526 0.000000
O O9 0.885139 0.182544 0.500000
O O10 0.922750 0.230408 0.588861
O O11 0.872899 0.000000 0.578038
O O12 0.927758 0.764906 0.208696
O O13 0.000000 0.836148 0.155679
O O14 0.928212 0.000000 0.155337
O O15 0.071663 0.500000 0.241158
O O16 0.067252 0.292427 0.311650
O O17 0.000000 0.345410 0.250327
O O18 0.500000 0.805039 0.620988
O O19 0.563301 0.000000 0.617272
#
# Coordination Sequence:
#
# PCOD8269769 Si02
#       6
#    16  16  16  16  16  16
#     4   9  16  27  44  63  81  99 118 141 170 206
#     4   8  13  20  28  37  51  73  98 122 153 196
#     4  10  20  31  42  58  79 100 121 145 177 219
#     4   9  15  20  28  43  59  74  95 126 164 203
#     4   8  14  25  38  48  59  78 106 139 173 209
#     4   9  18  31  44  56  70  92 123 156 188 220
#
# _framework density 13.525539999999999
#
# number of rings (size 3 to 8) (size 9 to 14) (size 15 to 20)
#    0.000    3.167    0.000    3.000    0.000    6.667 
#    0.000    5.000    0.000    0.000    0.000    0.000 
#    0.000    0.000    0.000    0.000    0.000    0.000 
#
# Total GULP energy -594927.413213 kJ/mol
# GULP energy per Si atom -12394.321109 kJ/mol
# Density = 1.349476 g / cm^3
# Si number density = 13.525540 Si / 1000 Ang^3
#
#
#
# Elastic Constant Matrix: (Units=GPa)
#
#
# Indices 1 2 3 4 5 6 
#
# 1 38.4046 36.6356 25.8087 0.0000 0.0000 0.0000
# 2 36.6356 114.9495 51.0903 0.0000 0.0000 0.0000
# 3 25.8087 51.0903 59.6660 0.0000 0.0000 0.0000
# 4 0.0000 0.0000 0.0000 18.1376 0.0000 0.0000
# 5 0.0000 0.0000 0.0000 0.0000 0.2255 0.0000
# 6 0.0000 0.0000 0.0000 0.0000 0.0000 16.7911
#
#
#
# Elastic Compliance Matrix: (Units=1/GPa)
#
#
# Indices 1 2 3 4 5 6 
#
# 1 0.041197 -0.008411 -0.010618 0.000000 0.000000 0.000000
# 2 -0.008411 0.015762 -0.009858 0.000000 0.000000 0.000000
# 3 -0.010618 -0.009858 0.029794 0.000000 0.000000 0.000000
# 4 0.000000 0.000000 0.000000 0.055134 0.000000 0.000000
# 5 0.000000 0.000000 0.000000 0.000000 4.434037 0.000000
# 6 0.000000 0.000000 0.000000 0.000000 0.000000 0.059555
#
#
# Mechanical properties :
#
#
# Convention : Reuss Voigt Hill
#
# Bulk Modulus (GPa) = 34.50767 48.89883 41.70325
# Shear Modulus (GPa) = 1.06317 13.66322 7.36319
#
# Velocity S-wave (km/s) = 0.88755 3.18178 2.33575
# Velocity P-wave (km/s) = 5.15933 7.05193 6.17853
#
# Compressibility (1/GPa) = 0.02897906
#
# Stress axis : x y z
#
# Youngs Moduli (GPa) = 24.27336 63.44546 33.56367
#
# Poissons Ratio (x) = 0.53362 0.35639
# Poissons Ratio (y) = 0.20416 0.33087
# Poissons Ratio (z) = 0.25774 0.62545
#
# Static dielectric constant tensor:
#      x y z
#    x 2.229900 0.000000 0.000000 
#    y 0.000000 2.899190 0.000000 
#    z 0.000000 0.000000 2.754670 
# 
# 
# High freq. dielectric constant tensor:
#      x y z
#    x 1.446630 0.000000 0.000000 
#    y 0.000000 1.528930 0.000000 
#    z 0.000000 0.000000 1.504700 
# 
# From -- ./inp_files/73703.got.cif
#   From: 2010.03.12/outbox.cif.g09.slc.cpg/sg65_37_cif.got.tgz:73703.got - 2010.04.10 20:52:16.
