data_PCOD8269972
_publ_section_title
;
Structure prediction by ZEFSAII (Michael W. Deem and Ramdas Pophale) SiO2 
 PCOD8269972
Probable space group: C M M M
;
_chemical_formula_sum "Si O2"
_cell_formula_units_Z 96
_cell_length_a 9.605232
_cell_length_b 18.965652
_cell_length_c 30.932810
_cell_angle_alpha 90.000000
_cell_angle_beta 90.000000
_cell_angle_gamma 90.000000
_cell_volume 5635.014144
_symmetry_space_group_name_H-M "C M M M"
_symmetry_group_IT_number 65
_symmetry_cell_setting 'orthorhombic'
loop_
_space_group_symop_operation_xyz
x,y,z
-x,-y,z
x,-y,-z
-x,y,-z
-x,-y,-z
x,y,-z
-x,y,z
x,-y,z
1/2+x,1/2+y,z
1/2-x,1/2-y,z
1/2+x,1/2-y,-z
1/2-x,1/2+y,-z
1/2-x,1/2-y,-z
1/2+x,1/2+y,-z
1/2-x,1/2+y,z
1/2+x,1/2-y,z
loop_
_atom_site_type_symbol
_atom_site_label
_atom_site_fract_x
_atom_site_fract_y
_atom_site_fract_z
Si Si1 0.165477 0.077781 0.378168
Si Si2 0.345116 0.583987 0.283795
Si Si3 0.165167 0.421425 0.951656
Si Si4 0.835726 0.321455 0.124059
Si Si5 0.660815 0.680863 0.548480
Si Si6 0.338991 0.081006 0.794964
O O1 0.208181 0.109815 0.331125
O O2 0.221847 0.125319 0.417207
O O3 0.000000 0.072518 0.379926
O O4 0.230529 0.000000 0.384354
O O5 0.500000 0.613225 0.274130
O O6 0.347748 0.500000 0.285020
O O7 0.243849 0.611449 0.246240
O O8 0.222328 0.500000 0.940288
O O9 0.220282 0.363044 0.918205
O O10 0.000000 0.424114 0.948750
O O11 0.213461 0.399926 0.000000
O O12 0.750000 0.250000 0.128533
O O13 0.800629 0.371256 0.164349
O O14 0.000000 0.304524 0.121230
O O15 0.678061 0.649987 0.500000
O O16 0.500000 0.698915 0.558002
O O17 0.750000 0.750000 0.554499
O O18 0.500000 0.086483 0.783101
O O19 0.297881 0.000000 0.805572
#
# Coordination Sequence:
#
# PCOD8269972 Si02
#       6
#    16  16  16  16  16  16
#     4   8  14  26  45  68  90 111 141 182 222 259
#     4   8  14  26  45  67  89 113 142 179 223 266
#     4   8  14  27  49  73  92 114 150 190 221 256
#     4  10  20  32  46  67  95 123 149 181 223 265
#     4   9  17  29  45  64  87 116 147 178 214 258
#     4   9  17  30  48  67  87 114 150 188 220 254
#
# _framework density 17.036337
#
# number of rings (size 3 to 8) (size 9 to 14) (size 15 to 20)
#    0.000    3.333    0.000    2.000    0.000    3.333 
#    0.000    3.333    0.000    7.000    0.000    3.500 
#    0.000    0.000    0.000    0.000    0.000    0.000 
#
# Total GULP energy -594879.423262 kJ/mol
# GULP energy per Si atom -12393.321318 kJ/mol
# Density = 1.699756 g / cm^3
# Si number density = 17.036337 Si / 1000 Ang^3
#
#
#
# Elastic Constant Matrix: (Units=GPa)
#
#
# Indices 1 2 3 4 5 6 
#
# 1 39.4322 37.0818 50.9098 0.0000 0.0000 0.0000
# 2 37.0818 88.2808 78.8679 0.0000 0.0000 0.0000
# 3 50.9098 78.8679 166.4923 0.0000 0.0000 0.0000
# 4 0.0000 0.0000 0.0000 8.8782 0.0000 0.0000
# 5 0.0000 0.0000 0.0000 0.0000 21.4614 0.0000
# 6 0.0000 0.0000 0.0000 0.0000 0.0000 20.6784
#
#
#
# Elastic Compliance Matrix: (Units=1/GPa)
#
#
# Indices 1 2 3 4 5 6 
#
# 1 0.048629 -0.012382 -0.009004 0.000000 0.000000 0.000000
# 2 -0.012382 0.022791 -0.007010 0.000000 0.000000 0.000000
# 3 -0.009004 -0.007010 0.012080 0.000000 0.000000 0.000000
# 4 0.000000 0.000000 0.000000 0.112635 0.000000 0.000000
# 5 0.000000 0.000000 0.000000 0.000000 0.046595 0.000000
# 6 0.000000 0.000000 0.000000 0.000000 0.000000 0.048360
#
#
# Mechanical properties :
#
#
# Convention : Reuss Voigt Hill
#
# Bulk Modulus (GPa) = 37.44240 69.76936 53.60588
# Shear Modulus (GPa) = 14.01398 18.69333 16.35365
#
# Velocity S-wave (km/s) = 2.87120 3.31609 3.10163
# Velocity P-wave (km/s) = 5.74608 7.46352 6.66039
#
# Compressibility (1/GPa) = 0.02670769
#
# Stress axis : x y z
#
# Youngs Moduli (GPa) = 20.56366 43.87669 82.77960
#
# Poissons Ratio (x) = 0.54329 0.74538
# Poissons Ratio (y) = 0.25462 0.58028
# Poissons Ratio (z) = 0.18516 0.30758
#
# Static dielectric constant tensor:
#      x y z
#    x 2.897960 0.000000 0.000000 
#    y 0.000000 3.115440 0.000000 
#    z 0.000000 0.000000 3.615260 
# 
# 
# High freq. dielectric constant tensor:
#      x y z
#    x 1.618010 0.000000 0.000000 
#    y 0.000000 1.634840 0.000000 
#    z 0.000000 0.000000 1.675440 
# 
# From -- ./inp_files/69022.got.cif
#   From: 2010.03.12/outbox.cif.g09.slc.cpg/sg65_35_cif.got.tgz:69022.got - 2010.04.10 20:52:16.
