data_PCOD8269670
_publ_section_title
;
Structure prediction by ZEFSAII (Michael W. Deem and Ramdas Pophale) SiO2 
 PCOD8269670
Probable space group: C M M M
;
_chemical_formula_sum "Si O2"
_cell_formula_units_Z 88
_cell_length_a 17.368896
_cell_length_b 17.902369
_cell_length_c 13.889424
_cell_angle_alpha 90.000000
_cell_angle_beta 90.000000
_cell_angle_gamma 90.000000
_cell_volume 4318.838408
_symmetry_space_group_name_H-M "C M M M"
_symmetry_group_IT_number 65
_symmetry_cell_setting 'orthorhombic'
loop_
_space_group_symop_operation_xyz
x,y,z
-x,-y,z
x,-y,-z
-x,y,-z
-x,-y,-z
x,y,-z
-x,y,z
x,-y,z
1/2+x,1/2+y,z
1/2-x,1/2-y,z
1/2+x,1/2-y,-z
1/2-x,1/2+y,-z
1/2-x,1/2-y,-z
1/2+x,1/2+y,-z
1/2-x,1/2+y,z
1/2+x,1/2-y,z
loop_
_atom_site_type_symbol
_atom_site_label
_atom_site_fract_x
_atom_site_fract_y
_atom_site_fract_z
Si Si1 0.347808 0.662060 0.112480
Si Si2 0.235605 0.163891 0.611664
Si Si3 0.794899 0.412434 0.783465
Si Si4 0.415465 0.583663 0.385813
Si Si5 0.000000 0.086319 0.112837
Si Si6 0.912182 0.322166 0.888884
O O1 0.271593 0.633701 0.163462
O O2 0.422246 0.620425 0.158103
O O3 0.359169 0.749951 0.129645
O O4 0.339361 0.643128 0.000000
O O5 0.248785 0.145115 0.500000
O O6 0.250000 0.250000 0.634653
O O7 0.294751 0.112408 0.671430
O O8 0.148932 0.143149 0.647106
O O9 0.781238 0.500000 0.794862
O O10 0.877297 0.390672 0.828196
O O11 0.421466 0.585074 0.500000
O O12 0.500000 0.604472 0.342342
O O13 0.391839 0.500000 0.351772
O O14 0.000000 0.000000 0.135005
O O15 0.000000 0.106698 0.000000
O O16 0.000000 0.306652 0.856368
O O17 0.909963 0.345196 0.000000
#
# Coordination Sequence:
#
# PCOD8269670 Si02
#       6
#    16  16  16  16   8  16
#     4  10  19  36  59  86 121 156 192 236 288 349
#     4  10  21  39  60  82 113 153 198 247 300 357
#     4  12  25  38  57  88 121 156 199 247 299 355
#     4   8  14  28  53  82 110 140 174 219 279 342
#     4   9  16  28  50  80 118 158 186 217 274 346
#     4  10  21  40  65  89 116 157 204 247 296 350
#
# _framework density 20.375848999999999
#
# number of rings (size 3 to 8) (size 9 to 14) (size 15 to 20)
#    0.000    2.091    0.909    3.818    0.000    5.091 
#    1.636    1.818    0.000    1.636    0.000    1.273 
#    0.000    0.000    0.000    0.000    0.000    0.000 
#
# Total GULP energy -545621.394776 kJ/mol
# GULP energy per Si atom -12400.486245 kJ/mol
# Density = 2.032947 g / cm^3
# Si number density = 20.375849 Si / 1000 Ang^3
#
#
#
# Elastic Constant Matrix: (Units=GPa)
#
#
# Indices 1 2 3 4 5 6 
#
# 1 100.2659 66.0211 40.9484 0.0000 0.0000 0.0000
# 2 66.0211 105.0110 37.1089 0.0000 0.0000 0.0000
# 3 40.9484 37.1089 52.7991 0.0000 0.0000 0.0000
# 4 0.0000 0.0000 0.0000 16.9100 0.0000 0.0000
# 5 0.0000 0.0000 0.0000 0.0000 29.1308 0.0000
# 6 0.0000 0.0000 0.0000 0.0000 0.0000 41.8798
#
#
#
# Elastic Compliance Matrix: (Units=1/GPa)
#
#
# Indices 1 2 3 4 5 6 
#
# 1 0.019632 -0.009263 -0.008715 0.000000 0.000000 0.000000
# 2 -0.009263 0.017040 -0.004792 0.000000 0.000000 0.000000
# 3 -0.008715 -0.004792 0.029067 0.000000 0.000000 0.000000
# 4 0.000000 0.000000 0.000000 0.059137 0.000000 0.000000
# 5 0.000000 0.000000 0.000000 0.000000 0.034328 0.000000
# 6 0.000000 0.000000 0.000000 0.000000 0.000000 0.023878
#
#
# Mechanical properties :
#
#
# Convention : Reuss Voigt Hill
#
# Bulk Modulus (GPa) = 49.51023 60.69255 55.10139
# Shear Modulus (GPa) = 21.24441 25.18394 23.21417
#
# Velocity S-wave (km/s) = 3.23248 3.51945 3.37901
# Velocity P-wave (km/s) = 6.18733 6.80930 6.50575
#
# Compressibility (1/GPa) = 0.02019785
#
# Stress axis : x y z
#
# Youngs Moduli (GPa) = 50.93688 58.68530 34.40305
#
# Poissons Ratio (x) = 0.54360 0.29984
# Poissons Ratio (y) = 0.47183 0.16487
# Poissons Ratio (z) = 0.44394 0.28124
#
# Static dielectric constant tensor:
#      x y z
#    x 3.873930 0.000000 0.000000 
#    y 0.000000 3.578320 0.000000 
#    z 0.000000 0.000000 3.740120 
# 
# 
# High freq. dielectric constant tensor:
#      x y z
#    x 1.791860 0.000000 0.000000 
#    y 0.000000 1.786720 0.000000 
#    z 0.000000 0.000000 1.797660 
# 
# From -- ./inp_files/42462.got.cif
#   From: 2010.03.12/outbox.cif.g09.slc.cpg/sg65_22_cif.got.tgz:42462.got - 2010.04.10 20:52:16.
