data_PCOD8269042
_publ_section_title
;
Structure prediction by ZEFSAII (Michael W. Deem and Ramdas Pophale) SiO2 
 PCOD8269042
Probable space group: C M M M
;
_chemical_formula_sum "Si O2"
_cell_formula_units_Z 88
_cell_length_a 20.007378
_cell_length_b 12.756590
_cell_length_c 18.091290
_cell_angle_alpha 90.000000
_cell_angle_beta 90.000000
_cell_angle_gamma 90.000000
_cell_volume 4617.366100
_symmetry_space_group_name_H-M "C M M M"
_symmetry_group_IT_number 65
_symmetry_cell_setting 'orthorhombic'
loop_
_space_group_symop_operation_xyz
x,y,z
-x,-y,z
x,-y,-z
-x,y,-z
-x,-y,-z
x,y,-z
-x,y,z
x,-y,z
1/2+x,1/2+y,z
1/2-x,1/2-y,z
1/2+x,1/2-y,-z
1/2-x,1/2+y,-z
1/2-x,1/2-y,-z
1/2+x,1/2+y,-z
1/2-x,1/2+y,z
1/2+x,1/2-y,z
loop_
_atom_site_type_symbol
_atom_site_label
_atom_site_fract_x
_atom_site_fract_y
_atom_site_fract_z
Si Si1 0.421400 0.380507 0.916933
Si Si2 0.420922 0.000000 0.583488
Si Si3 0.640288 0.719001 0.219601
Si Si4 0.241466 0.614235 0.274483
Si Si5 0.811914 0.121097 0.582408
Si Si6 0.923503 0.273153 0.636584
O O1 0.500000 0.364492 0.912048
O O2 0.403209 0.500000 0.894876
O O3 0.387343 0.296130 0.862777
O O4 0.396165 0.356807 0.000000
O O5 0.397363 0.893548 0.625480
O O6 0.500000 0.000000 0.581011
O O7 0.391829 0.000000 0.500000
O O8 0.683124 0.615966 0.240978
O O9 0.692549 0.814046 0.227002
O O10 0.580243 0.742234 0.276674
O O11 0.210366 0.500000 0.269134
O O12 0.251773 0.650242 0.360408
O O13 0.783048 0.136692 0.500000
O O14 0.877234 0.193859 0.591036
O O15 0.833477 0.000000 0.595783
O O16 0.000000 0.261460 0.609477
#
# Coordination Sequence:
#
# PCOD8269042 Si02
#       6
#    16   8  16  16  16  16
#     4   9  18  34  59  90 118 142 170 208 260 322
#     4   9  18  32  46  64  99 141 181 225 265 314
#     4  10  19  33  54  77 105 141 176 221 264 316
#     4   9  19  34  51  74 106 141 182 225 270 317
#     4   9  18  34  54  74 101 137 180 233 286 333
#     4  10  20  32  49  76 105 138 180 226 280 336
#
# _framework density 19.058485000000001
#
# number of rings (size 3 to 8) (size 9 to 14) (size 15 to 20)
#    0.000    2.636    0.000    2.182    1.273    2.182 
#    0.000   10.909    0.000    1.636    0.000    1.273 
#    0.000    0.000    0.000    0.000    0.000    0.000 
#
# Total GULP energy -545153.570898 kJ/mol
# GULP energy per Si atom -12389.853884 kJ/mol
# Density = 1.901511 g / cm^3
# Si number density = 19.058485 Si / 1000 Ang^3
#
#
#
# Elastic Constant Matrix: (Units=GPa)
#
#
# Indices 1 2 3 4 5 6 
#
# 1 56.8578 39.9419 35.3544 0.0000 0.0000 0.0000
# 2 39.9419 122.1397 54.0595 0.0000 0.0000 0.0000
# 3 35.3544 54.0595 147.7583 0.0000 0.0000 0.0000
# 4 0.0000 0.0000 0.0000 31.1101 0.0000 0.0000
# 5 0.0000 0.0000 0.0000 0.0000 21.6952 0.0000
# 6 0.0000 0.0000 0.0000 0.0000 0.0000 28.2825
#
#
#
# Elastic Compliance Matrix: (Units=1/GPa)
#
#
# Indices 1 2 3 4 5 6 
#
# 1 0.024229 -0.006393 -0.003458 0.000000 0.000000 0.000000
# 2 -0.006393 0.011456 -0.002662 0.000000 0.000000 0.000000
# 3 -0.003458 -0.002662 0.008569 0.000000 0.000000 0.000000
# 4 0.000000 0.000000 0.000000 0.032144 0.000000 0.000000
# 5 0.000000 0.000000 0.000000 0.000000 0.046093 0.000000
# 6 0.000000 0.000000 0.000000 0.000000 0.000000 0.035358
#
#
# Mechanical properties :
#
#
# Convention : Reuss Voigt Hill
#
# Bulk Modulus (GPa) = 52.00636 65.05194 58.52915
# Shear Modulus (GPa) = 26.41537 29.37756 27.89646
#
# Velocity S-wave (km/s) = 3.72696 3.93038 3.83002
# Velocity P-wave (km/s) = 6.77254 7.40298 7.09477
#
# Compressibility (1/GPa) = 0.01922842
#
# Stress axis : x y z
#
# Youngs Moduli (GPa) = 41.27293 87.29096 116.69739
#
# Poissons Ratio (x) = 0.55801 0.40360
# Poissons Ratio (y) = 0.26384 0.31062
# Poissons Ratio (z) = 0.14274 0.23235
#
# Static dielectric constant tensor:
#      x y z
#    x 3.260080 0.000000 0.000000 
#    y 0.000000 3.658770 0.000000 
#    z 0.000000 0.000000 3.467200 
# 
# 
# High freq. dielectric constant tensor:
#      x y z
#    x 1.731270 0.000000 0.000000 
#    y 0.000000 1.747310 0.000000 
#    z 0.000000 0.000000 1.722010 
# 
# From -- ./inp_files/54307.got.cif
#   From: 2010.03.12/outbox.cif.g09.slc.cpg/sg65_28_cif.got.tgz:54307.got - 2010.04.10 20:52:16.
