data_PCOD8269192
_publ_section_title
;
Structure prediction by ZEFSAII (Michael W. Deem and Ramdas Pophale) SiO2 
 PCOD8269192
Probable space group: C M M M
;
_chemical_formula_sum "Si O2"
_cell_formula_units_Z 88
_cell_length_a 8.059137
_cell_length_b 17.707080
_cell_length_c 30.417632
_cell_angle_alpha 90.000000
_cell_angle_beta 90.000000
_cell_angle_gamma 90.000000
_cell_volume 4340.711174
_symmetry_space_group_name_H-M "C M M M"
_symmetry_group_IT_number 65
_symmetry_cell_setting 'orthorhombic'
loop_
_space_group_symop_operation_xyz
x,y,z
-x,-y,z
x,-y,-z
-x,y,-z
-x,-y,-z
x,y,-z
-x,y,z
x,-y,z
1/2+x,1/2+y,z
1/2-x,1/2-y,z
1/2+x,1/2-y,-z
1/2-x,1/2+y,-z
1/2-x,1/2-y,-z
1/2+x,1/2+y,-z
1/2-x,1/2+y,z
1/2+x,1/2-y,z
loop_
_atom_site_type_symbol
_atom_site_label
_atom_site_fract_x
_atom_site_fract_y
_atom_site_fract_z
Si Si1 0.192196 0.164467 0.901143
Si Si2 0.189171 0.412591 0.818305
Si Si3 0.500000 0.911945 0.051121
Si Si4 0.689346 0.413032 0.272748
Si Si5 0.191509 0.414861 0.637394
Si Si6 0.304865 0.413547 0.452890
O O1 0.250000 0.250000 0.902108
O O2 0.195617 0.134175 0.851272
O O3 0.326100 0.119150 0.929997
O O4 0.000000 0.156552 0.918267
O O5 0.245636 0.500000 0.819140
O O6 0.208647 0.379716 0.768669
O O7 0.000000 0.403398 0.833923
O O8 0.500000 0.000000 0.061465
O O9 0.500000 0.892575 0.000000
O O10 0.500000 0.402456 0.260082
O O11 0.741902 0.500000 0.278751
O O12 0.727203 0.373339 0.319980
O O13 0.264693 0.500000 0.633247
O O14 0.228859 0.372943 0.590674
O O15 0.000000 0.415616 0.647147
O O16 0.247980 0.376553 0.500000
O O17 0.500000 0.408289 0.448822
O O18 0.244013 0.500000 0.453847
#
# Coordination Sequence:
#
# PCOD8269192 Si02
#       6
#    16  16   8  16  16  16
#     4  12  24  43  67  97 131 172 214 258 313 371
#     4  10  19  33  55  82 115 150 190 242 295 352
#     4  11  26  48  72 102 137 171 215 267 313 365
#     4   9  16  25  38  60  87 121 164 210 266 330
#     4   9  15  21  29  43  67  98 137 191 253 315
#     4   8  13  20  28  37  52  82 127 181 242 308
#
# _framework density 20.273174999999998
#
# number of rings (size 3 to 8) (size 9 to 14) (size 15 to 20)
#    0.000    2.273    1.818    2.727    0.000    7.636 
#    0.000    2.727    0.000    0.000    0.000    0.000 
#    0.000    0.000    0.000    0.000    0.000    0.909 
#
# Total GULP energy -545081.840712 kJ/mol
# GULP energy per Si atom -12388.223653 kJ/mol
# Density = 2.022703 g / cm^3
# Si number density = 20.273175 Si / 1000 Ang^3
#
#
#
# Elastic Constant Matrix: (Units=GPa)
#
#
# Indices 1 2 3 4 5 6 
#
# 1 108.4513 26.8813 56.7128 0.0000 0.0000 0.0000
# 2 26.8813 32.2240 46.2429 0.0000 0.0000 0.0000
# 3 56.7128 46.2429 159.6117 0.0000 0.0000 0.0000
# 4 0.0000 0.0000 0.0000 -1.4695 0.0000 0.0000
# 5 0.0000 0.0000 0.0000 0.0000 34.0141 0.0000
# 6 0.0000 0.0000 0.0000 0.0000 0.0000 16.9489
#
#
#
# Elastic Compliance Matrix: (Units=1/GPa)
#
#
# Indices 1 2 3 4 5 6 
#
# 1 0.012121 -0.006728 -0.002358 0.000000 0.000000 0.000000
# 2 -0.006728 0.056852 -0.014080 0.000000 0.000000 0.000000
# 3 -0.002358 -0.014080 0.011182 0.000000 0.000000 0.000000
# 4 0.000000 0.000000 0.000000 -0.680494 0.000000 0.000000
# 5 0.000000 0.000000 0.000000 0.000000 0.029400 0.000000
# 6 0.000000 0.000000 0.000000 0.000000 0.000000 0.059001
#
#
# Mechanical properties :
#
#
# Convention : Reuss Voigt Hill
#
# Bulk Modulus (GPa) = 29.56607 62.21790 45.89199
# Shear Modulus (GPa) = -11.00518 21.26202 5.12842
#
# Velocity S-wave (km/s) = -2.33243 3.24199 1.59222
# Velocity P-wave (km/s) = 2.71327 6.69107 5.10550
#
# Compressibility (1/GPa) = 0.03382255
#
# Stress axis : x y z
#
# Youngs Moduli (GPa) = 82.49935 17.58958 89.42705
#
# Poissons Ratio (x) = 0.11835 0.21083
# Poissons Ratio (y) = 0.55509 1.25918
# Poissons Ratio (z) = 0.19450 0.24767
#
# Static dielectric constant tensor:
#      x y z
#    x 3.638140 0.000000 0.000000 
#    y 0.000000 3.027300 0.000000 
#    z 0.000000 0.000000 4.206040 
# 
# 
# High freq. dielectric constant tensor:
#      x y z
#    x 1.795550 0.000000 0.000000 
#    y 0.000000 1.703210 0.000000 
#    z 0.000000 0.000000 1.822150 
# 
# From -- ./inp_files/76551.got.cif
#   From: 2010.03.12/outbox.cif.g09.slc.cpg/sg65_39_cif.got.tgz:76551.got - 2010.04.10 20:52:16.
