data_PCOD8269183
_publ_section_title
;
Structure prediction by ZEFSAII (Michael W. Deem and Ramdas Pophale) SiO2 
 PCOD8269183
Probable space group: C M M M
;
_chemical_formula_sum "Si O2"
_cell_formula_units_Z 64
_cell_length_a 9.076235
_cell_length_b 15.971049
_cell_length_c 22.379250
_cell_angle_alpha 90.000000
_cell_angle_beta 90.000000
_cell_angle_gamma 90.000000
_cell_volume 3244.028806
_symmetry_space_group_name_H-M "C M M M"
_symmetry_group_IT_number 65
_symmetry_cell_setting 'orthorhombic'
loop_
_space_group_symop_operation_xyz
x,y,z
-x,-y,z
x,-y,-z
-x,y,-z
-x,-y,-z
x,y,-z
-x,y,z
x,-y,z
1/2+x,1/2+y,z
1/2-x,1/2-y,z
1/2+x,1/2-y,-z
1/2-x,1/2+y,-z
1/2-x,1/2-y,-z
1/2+x,1/2+y,-z
1/2-x,1/2+y,z
1/2+x,1/2-y,z
loop_
_atom_site_type_symbol
_atom_site_label
_atom_site_fract_x
_atom_site_fract_y
_atom_site_fract_z
Si Si1 0.174628 0.407016 0.240267
Si Si2 0.325050 0.000000 0.432507
Si Si3 0.825192 0.334852 0.637051
Si Si4 0.172807 0.837691 0.000000
Si Si5 0.337743 0.097924 0.110919
O O1 0.243454 0.500000 0.248760
O O2 0.227790 0.347936 0.294251
O O3 0.219209 0.367395 0.175385
O O4 0.000000 0.415276 0.242837
O O5 0.268456 0.084611 0.400268
O O6 0.500000 0.000000 0.430594
O O7 0.264589 0.000000 0.500000
O O8 0.750000 0.250000 0.612551
O O9 0.000000 0.324878 0.631256
O O10 0.250000 0.750000 0.000000
O O11 0.220080 0.885639 0.940421
O O12 0.000000 0.827742 0.000000
O O13 0.500000 0.135673 0.094224
O O14 0.356207 0.000000 0.119539
#
# Coordination Sequence:
#
# PCOD8269183 Si02
#       5
#    16   8  16   8  16
#     4   8  14  29  54  79 102 136 178 218 261 319
#     4   9  18  34  57  81 109 150 193 226 262 325
#     4  10  19  33  55  82 112 145 186 230 274 323
#     4  12  25  38  51  69 101 139 177 220 271 322
#     4   9  18  34  57  80 102 132 173 216 264 323
#
# _framework density 19.728555
#
# number of rings (size 3 to 8) (size 9 to 14) (size 15 to 20)
#    0.000    2.625    1.250    3.000    0.000    3.500 
#    0.000    4.375    0.000    2.250    0.000    0.000 
#    0.000    0.000    0.000    0.000    0.000    0.000 
#
# Total GULP energy -396547.005489 kJ/mol
# GULP energy per Si atom -12392.093922 kJ/mol
# Density = 1.968365 g / cm^3
# Si number density = 19.728555 Si / 1000 Ang^3
#
#
#
# Elastic Constant Matrix: (Units=GPa)
#
#
# Indices 1 2 3 4 5 6 
#
# 1 61.8447 29.2681 39.4952 0.0000 0.0000 0.0000
# 2 29.2681 112.6670 60.5180 0.0000 0.0000 0.0000
# 3 39.4952 60.5180 161.4553 0.0000 0.0000 0.0000
# 4 0.0000 0.0000 0.0000 13.9101 0.0000 0.0000
# 5 0.0000 0.0000 0.0000 0.0000 8.2555 0.0000
# 6 0.0000 0.0000 0.0000 0.0000 0.0000 26.9043
#
#
#
# Elastic Compliance Matrix: (Units=1/GPa)
#
#
# Indices 1 2 3 4 5 6 
#
# 1 0.020057 -0.003224 -0.003698 0.000000 0.000000 0.000000
# 2 -0.003224 0.011631 -0.003571 0.000000 0.000000 0.000000
# 3 -0.003698 -0.003571 0.008437 0.000000 0.000000 0.000000
# 4 0.000000 0.000000 0.000000 0.071890 0.000000 0.000000
# 5 0.000000 0.000000 0.000000 0.000000 0.121131 0.000000
# 6 0.000000 0.000000 0.000000 0.000000 0.000000 0.037169
#
#
# Mechanical properties :
#
#
# Convention : Reuss Voigt Hill
#
# Bulk Modulus (GPa) = 52.24915 66.05885 59.15400
# Shear Modulus (GPa) = 16.79650 23.59302 20.19476
#
# Velocity S-wave (km/s) = 2.92101 3.46190 3.20289
# Velocity P-wave (km/s) = 6.15775 7.03820 6.61265
#
# Compressibility (1/GPa) = 0.01913907
#
# Stress axis : x y z
#
# Youngs Moduli (GPa) = 49.85837 85.97390 118.52842
#
# Poissons Ratio (x) = 0.27718 0.43830
# Poissons Ratio (y) = 0.16074 0.42328
# Poissons Ratio (z) = 0.18437 0.30702
#
# Static dielectric constant tensor:
#      x y z
#    x 2.798960 0.000000 0.000000 
#    y 0.000000 3.519160 0.000000 
#    z 0.000000 0.000000 3.715680 
# 
# 
# High freq. dielectric constant tensor:
#      x y z
#    x 1.715420 0.000000 0.000000 
#    y 0.000000 1.761070 0.000000 
#    z 0.000000 0.000000 1.783510 
# 
# From -- ./inp_files/66776.got.cif
#   From: 2010.03.12/outbox.cif.g09.slc.cpg/sg65_34_cif.got.tgz:66776.got - 2010.04.10 20:52:16.
