data_PCOD8269321
_publ_section_title
;
Structure prediction by ZEFSAII (Michael W. Deem and Ramdas Pophale) SiO2 
 PCOD8269321
Probable space group: C M M M
;
_chemical_formula_sum "Si O2"
_cell_formula_units_Z 104
_cell_length_a 28.659080
_cell_length_b 9.174507
_cell_length_c 23.376691
_cell_angle_alpha 90.000000
_cell_angle_beta 90.000000
_cell_angle_gamma 90.000000
_cell_volume 6146.501860
_symmetry_space_group_name_H-M "C M M M"
_symmetry_group_IT_number 65
_symmetry_cell_setting 'orthorhombic'
loop_
_space_group_symop_operation_xyz
x,y,z
-x,-y,z
x,-y,-z
-x,y,-z
-x,-y,-z
x,y,-z
-x,y,z
x,-y,z
1/2+x,1/2+y,z
1/2-x,1/2-y,z
1/2+x,1/2-y,-z
1/2-x,1/2+y,-z
1/2-x,1/2-y,-z
1/2+x,1/2+y,-z
1/2-x,1/2+y,z
1/2+x,1/2-y,z
loop_
_atom_site_type_symbol
_atom_site_label
_atom_site_fract_x
_atom_site_fract_y
_atom_site_fract_z
Si Si1 0.554191 0.169041 0.500000
Si Si2 0.703887 0.328743 0.104702
Si Si3 0.396166 0.327983 0.273023
Si Si4 0.053765 0.669639 0.830165
Si Si5 0.116111 0.334239 0.936010
Si Si6 0.795111 0.831308 0.236428
Si Si7 0.054945 0.328493 0.376170
O O1 0.500000 0.200367 0.500000
O O2 0.573177 0.229083 0.561007
O O3 0.564624 0.000000 0.500000
O O4 0.709166 0.500000 0.095246
O O5 0.750000 0.250000 0.080799
O O6 0.659909 0.272084 0.069601
O O7 0.696212 0.286027 0.170831
O O8 0.404134 0.500000 0.271898
O O9 0.421534 0.262639 0.218329
O O10 0.341295 0.288449 0.271596
O O11 0.416540 0.262615 0.330665
O O12 0.059778 0.500000 0.814929
O O13 0.075761 0.709079 0.891520
O O14 0.000000 0.714831 0.832747
O O15 0.132754 0.500000 0.924718
O O16 0.095513 0.317201 0.000000
O O17 0.750000 0.750000 0.262226
O O18 0.783794 0.000000 0.241393
O O19 0.064884 0.500000 0.368384
O O20 0.000000 0.298292 0.368381
#
# Coordination Sequence:
#
# PCOD8269321 Si02
#       7
#     8  16  16  16  16  16  16
#     4   7  12  26  47  69  98 135 174 213 242 271
#     4  10  19  34  54  75  98 125 157 196 244 299
#     4  11  21  33  49  75 106 132 160 200 249 295
#     4  10  21  36  53  72  95 127 166 205 244 289
#     4  10  21  36  53  73  96 124 161 204 250 298
#     4   9  19  33  50  72  97 125 158 196 242 294
#     4   9  17  30  49  74 103 138 177 209 239 280
#
# _framework density 16.920193000000001
#
# number of rings (size 3 to 8) (size 9 to 14) (size 15 to 20)
#    0.000    2.385    1.538    2.308    0.000    5.231 
#    0.000    1.923    0.000    1.385    0.000    2.692 
#    0.000    0.000    0.000    0.000    0.000    0.000 
#
# Total GULP energy -644619.313438 kJ/mol
# GULP energy per Si atom -12396.525258 kJ/mol
# Density = 1.688168 g / cm^3
# Si number density = 16.920193 Si / 1000 Ang^3
#
#
#
# Elastic Constant Matrix: (Units=GPa)
#
#
# Indices 1 2 3 4 5 6 
#
# 1 115.1668 55.2464 67.4060 0.0000 0.0000 0.0000
# 2 55.2464 67.7581 52.4307 0.0000 0.0000 0.0000
# 3 67.4060 52.4307 134.4080 0.0000 0.0000 0.0000
# 4 0.0000 0.0000 0.0000 10.5665 0.0000 0.0000
# 5 0.0000 0.0000 0.0000 0.0000 -0.1993 0.0000
# 6 0.0000 0.0000 0.0000 0.0000 0.0000 28.1668
#
#
#
# Elastic Compliance Matrix: (Units=1/GPa)
#
#
# Indices 1 2 3 4 5 6 
#
# 1 0.015713 -0.009617 -0.004129 0.000000 0.000000 0.000000
# 2 -0.009617 0.027025 -0.005719 0.000000 0.000000 0.000000
# 3 -0.004129 -0.005719 0.011742 0.000000 0.000000 0.000000
# 4 0.000000 0.000000 0.000000 0.094639 0.000000 0.000000
# 5 0.000000 0.000000 0.000000 0.000000 -5.016944 0.000000
# 6 0.000000 0.000000 0.000000 0.000000 0.000000 0.035503
#
#
# Mechanical properties :
#
#
# Convention : Reuss Voigt Hill
#
# Bulk Modulus (GPa) = 64.30854 74.16657 69.23755
# Shear Modulus (GPa) = -1.04423 17.19012 8.07294
#
# Velocity S-wave (km/s) = -0.78644 3.19086 2.18667
# Velocity P-wave (km/s) = 6.10449 7.58312 6.88363
#
# Compressibility (1/GPa) = 0.01555004
#
# Stress axis : x y z
#
# Youngs Moduli (GPa) = 63.64289 37.00320 85.16761
#
# Poissons Ratio (x) = 0.35584 0.35163
# Poissons Ratio (y) = 0.61203 0.48709
# Poissons Ratio (z) = 0.26276 0.21163
#
# Static dielectric constant tensor:
#      x y z
#    x 3.161500 0.000000 0.000000 
#    y 0.000000 3.096320 0.000000 
#    z 0.000000 0.000000 3.311580 
# 
# 
# High freq. dielectric constant tensor:
#      x y z
#    x 1.640740 0.000000 0.000000 
#    y 0.000000 1.647080 0.000000 
#    z 0.000000 0.000000 1.647080 
# 
# From -- ./inp_files/72102.got.cif
#   From: 2010.03.12/outbox.cif.g09.slc.cpg/sg65_37_cif.got.tgz:72102.got - 2010.04.10 20:52:16.
