data_PCOD8269521
_publ_section_title
;
Structure prediction by ZEFSAII (Michael W. Deem and Ramdas Pophale) SiO2 
 PCOD8269521
Probable space group: C M M M
;
_chemical_formula_sum "Si O2"
_cell_formula_units_Z 88
_cell_length_a 28.484781
_cell_length_b 8.938690
_cell_length_c 17.748416
_cell_angle_alpha 90.000000
_cell_angle_beta 90.000000
_cell_angle_gamma 90.000000
_cell_volume 4519.041818
_symmetry_space_group_name_H-M "C M M M"
_symmetry_group_IT_number 65
_symmetry_cell_setting 'orthorhombic'
loop_
_space_group_symop_operation_xyz
x,y,z
-x,-y,z
x,-y,-z
-x,y,-z
-x,-y,-z
x,y,-z
-x,y,z
x,-y,z
1/2+x,1/2+y,z
1/2-x,1/2-y,z
1/2+x,1/2-y,-z
1/2-x,1/2+y,-z
1/2-x,1/2-y,-z
1/2+x,1/2+y,-z
1/2-x,1/2+y,z
1/2+x,1/2-y,z
loop_
_atom_site_type_symbol
_atom_site_label
_atom_site_fract_x
_atom_site_fract_y
_atom_site_fract_z
Si Si1 0.203162 0.325702 0.345088
Si Si2 0.553506 0.674066 0.285470
Si Si3 0.202161 0.676113 0.830006
Si Si4 0.607519 0.677909 0.863602
Si Si5 0.555545 0.172210 0.000000
Si Si6 0.892717 0.322906 0.414933
O O1 0.209097 0.500000 0.358302
O O2 0.250000 0.250000 0.377693
O O3 0.196258 0.285745 0.257780
O O4 0.158332 0.261878 0.389786
O O5 0.500000 0.713412 0.264942
O O6 0.560268 0.500000 0.300735
O O7 0.586108 0.727329 0.216689
O O8 0.567016 0.758816 0.361664
O O9 0.203009 0.500000 0.846053
O O10 0.250000 0.750000 0.860950
O O11 0.159026 0.751712 0.873711
O O12 0.610149 0.500000 0.871836
O O13 0.574106 0.744024 0.926789
O O14 0.500000 0.184597 0.000000
O O15 0.572221 0.000000 0.000000
O O16 0.902877 0.270238 0.500000
O O17 0.893544 0.500000 0.407509
#
# Coordination Sequence:
#
# PCOD8269521 Si02
#       6
#    16  16  16  16   8  16
#     4   9  18  32  52  79 112 148 189 236 286 340
#     4  10  22  39  59  83 111 147 193 242 292 347
#     4  10  19  34  58  88 121 156 197 241 289 345
#     4  11  22  39  64  91 121 156 195 240 293 349
#     4  11  25  43  64  93 126 159 195 239 293 349
#     4  10  21  37  55  79 113 151 193 242 294 347
#
# _framework density 19.473154000000001
#
# number of rings (size 3 to 8) (size 9 to 14) (size 15 to 20)
#    0.000    1.909    1.818    1.909    0.000    5.091 
#    0.000    2.273    0.000    0.000    0.000    0.000 
#    0.000    0.000    0.000    0.000    0.000    0.000 
#
# Total GULP energy -545772.923875 kJ/mol
# GULP energy per Si atom -12403.930088 kJ/mol
# Density = 1.942883 g / cm^3
# Si number density = 19.473154 Si / 1000 Ang^3
#
#
#
# Elastic Constant Matrix: (Units=GPa)
#
#
# Indices 1 2 3 4 5 6 
#
# 1 118.4155 44.9570 39.2948 0.0000 0.0000 0.0000
# 2 44.9570 69.7495 39.0789 0.0000 0.0000 0.0000
# 3 39.2948 39.0789 85.9854 0.0000 0.0000 0.0000
# 4 0.0000 0.0000 0.0000 25.4746 0.0000 0.0000
# 5 0.0000 0.0000 0.0000 0.0000 1.5081 0.0000
# 6 0.0000 0.0000 0.0000 0.0000 0.0000 37.2465
#
#
#
# Elastic Compliance Matrix: (Units=1/GPa)
#
#
# Indices 1 2 3 4 5 6 
#
# 1 0.011583 -0.006037 -0.002549 0.000000 0.000000 0.000000
# 2 -0.006037 0.022382 -0.007413 0.000000 0.000000 0.000000
# 3 -0.002549 -0.007413 0.016164 0.000000 0.000000 0.000000
# 4 0.000000 0.000000 0.000000 0.039255 0.000000 0.000000
# 5 0.000000 0.000000 0.000000 0.000000 0.663073 0.000000
# 6 0.000000 0.000000 0.000000 0.000000 0.000000 0.026848
#
#
# Mechanical properties :
#
#
# Convention : Reuss Voigt Hill
#
# Bulk Modulus (GPa) = 55.16033 57.86798 56.51415
# Shear Modulus (GPa) = 6.11735 22.90049 14.50892
#
# Velocity S-wave (km/s) = 1.77433 3.43301 2.73256
# Velocity P-wave (km/s) = 5.70837 6.74503 6.24824
#
# Compressibility (1/GPa) = 0.01812897
#
# Stress axis : x y z
#
# Youngs Moduli (GPa) = 86.33352 44.67916 61.86561
#
# Poissons Ratio (x) = 0.26975 0.15772
# Poissons Ratio (y) = 0.52123 0.45861
# Poissons Ratio (z) = 0.22010 0.33121
#
# Static dielectric constant tensor:
#      x y z
#    x 3.694520 0.000000 0.000000 
#    y 0.000000 3.503230 0.000000 
#    z 0.000000 0.000000 3.506180 
# 
# 
# High freq. dielectric constant tensor:
#      x y z
#    x 1.772210 0.000000 0.000000 
#    y 0.000000 1.756730 0.000000 
#    z 0.000000 0.000000 1.745150 
# 
# From -- ./inp_files/57960.got.cif
#   From: 2010.03.12/outbox.cif.g09.slc.cpg/sg65_29_cif.got.tgz:57960.got - 2010.04.10 20:52:16.
