data_PCOD8269425
_publ_section_title
;
Structure prediction by ZEFSAII (Michael W. Deem and Ramdas Pophale) SiO2 
 PCOD8269425
Probable space group: C M M M
;
_chemical_formula_sum "Si O2"
_cell_formula_units_Z 72
_cell_length_a 26.794317
_cell_length_b 15.471620
_cell_length_c 8.860514
_cell_angle_alpha 90.000000
_cell_angle_beta 90.000000
_cell_angle_gamma 90.000000
_cell_volume 3673.139288
_symmetry_space_group_name_H-M "C M M M"
_symmetry_group_IT_number 65
_symmetry_cell_setting 'orthorhombic'
loop_
_space_group_symop_operation_xyz
x,y,z
-x,-y,z
x,-y,-z
-x,y,-z
-x,-y,-z
x,y,-z
-x,y,z
x,-y,z
1/2+x,1/2+y,z
1/2-x,1/2-y,z
1/2+x,1/2-y,-z
1/2-x,1/2+y,-z
1/2-x,1/2-y,-z
1/2+x,1/2+y,-z
1/2-x,1/2+y,z
1/2+x,1/2-y,z
loop_
_atom_site_type_symbol
_atom_site_label
_atom_site_fract_x
_atom_site_fract_y
_atom_site_fract_z
Si Si1 0.786692 0.500000 0.820475
Si Si2 0.057118 0.000000 0.677701
Si Si3 0.775000 0.163583 0.820446
Si Si4 0.611778 0.339536 0.178087
Si Si5 0.105109 0.500000 0.322805
Si Si6 0.942050 0.336482 0.826163
O O1 0.756927 0.416861 0.759788
O O2 0.841895 0.500000 0.757426
O O3 0.789953 0.500000 0.000000
O O4 0.081941 0.085467 0.741645
O O5 0.063086 0.000000 0.500000
O O6 0.000000 0.000000 0.729413
O O7 0.750000 0.250000 0.754237
O O8 0.831545 0.157022 0.762441
O O9 0.774618 0.165661 0.000000
O O10 0.588801 0.247496 0.224025
O O11 0.608426 0.354655 0.000000
O O12 0.113381 0.500000 0.500000
O O13 0.073936 0.416057 0.276699
O O14 0.000000 0.316267 0.800602
O O15 0.930800 0.360096 0.000000
#
# Coordination Sequence:
#
# PCOD8269425 Si02
#       6
#     8   8  16  16   8  16
#     4  10  19  34  56  79 108 146 184 226 274 325
#     4  11  24  39  55  80 118 159 190 223 276 336
#     4   9  17  31  55  85 111 137 176 228 282 330
#     4  10  20  37  63  90 112 141 187 237 280 328
#     4  12  25  38  55  81 114 153 192 231 278 333
#     4  10  21  38  61  87 113 144 185 234 285 334
#
# _framework density 19.601762000000001
#
# number of rings (size 3 to 8) (size 9 to 14) (size 15 to 20)
#    0.000    1.889    0.000    4.333    0.000    9.778 
#    0.000    2.222    0.000    2.667    0.000    0.000 
#    0.000    0.000    0.000    0.000    0.000    0.000 
#
# Total GULP energy -446545.460830 kJ/mol
# GULP energy per Si atom -12404.040579 kJ/mol
# Density = 1.955715 g / cm^3
# Si number density = 19.601762 Si / 1000 Ang^3
#
#
#
# Elastic Constant Matrix: (Units=GPa)
#
#
# Indices 1 2 3 4 5 6 
#
# 1 119.1997 46.8439 24.8014 0.0000 0.0000 0.0000
# 2 46.8439 135.6167 29.5562 0.0000 0.0000 0.0000
# 3 24.8014 29.5562 31.3651 0.0000 0.0000 0.0000
# 4 0.0000 0.0000 0.0000 -91.4059 0.0000 0.0000
# 5 0.0000 0.0000 0.0000 0.0000 14.7982 0.0000
# 6 0.0000 0.0000 0.0000 0.0000 0.0000 46.1472
#
#
#
# Elastic Compliance Matrix: (Units=1/GPa)
#
#
# Indices 1 2 3 4 5 6 
#
# 1 0.010585 -0.002306 -0.006197 0.000000 0.000000 0.000000
# 2 -0.002306 0.009782 -0.007394 0.000000 0.000000 0.000000
# 3 -0.006197 -0.007394 0.043751 0.000000 0.000000 0.000000
# 4 0.000000 0.000000 0.000000 -0.010940 0.000000 0.000000
# 5 0.000000 0.000000 0.000000 0.000000 0.067576 0.000000
# 6 0.000000 0.000000 0.000000 0.000000 0.000000 0.021670
#
#
# Mechanical properties :
#
#
# Convention : Reuss Voigt Hill
#
# Bulk Modulus (GPa) = 30.93769 54.28715 42.61242
# Shear Modulus (GPa) = 27.02832 6.23991 16.63412
#
# Velocity S-wave (km/s) = 3.71734 1.78613 2.91624
# Velocity P-wave (km/s) = 5.85169 5.65763 5.75548
#
# Compressibility (1/GPa) = 0.03232303
#
# Stress axis : x y z
#
# Youngs Moduli (GPa) = 94.47573 102.23259 22.85667
#
# Poissons Ratio (x) = 0.23570 0.14165
# Poissons Ratio (y) = 0.21781 0.16901
# Poissons Ratio (z) = 0.58548 0.75595
#
# Static dielectric constant tensor:
#      x y z
#    x 3.824530 0.000000 0.000000 
#    y 0.000000 3.718610 0.000000 
#    z 0.000000 0.000000 3.262810 
# 
# 
# High freq. dielectric constant tensor:
#      x y z
#    x 1.785920 0.000000 0.000000 
#    y 0.000000 1.783320 0.000000 
#    z 0.000000 0.000000 1.724760 
# 
# From -- ./inp_files/7422.got.cif
#   From: 2010.03.12/outbox.cif.g09.slc.cpg/sg65_4_cif.got.tgz:7422.got - 2010.04.10 20:52:16.
