data_PCOD8269139
_publ_section_title
;
Structure prediction by ZEFSAII (Michael W. Deem and Ramdas Pophale) SiO2 
 PCOD8269139
Probable space group: C M M M
;
_chemical_formula_sum "Si O2"
_cell_formula_units_Z 64
_cell_length_a 17.861209
_cell_length_b 8.880663
_cell_length_c 20.689871
_cell_angle_alpha 90.000000
_cell_angle_beta 90.000000
_cell_angle_gamma 90.000000
_cell_volume 3281.814467
_symmetry_space_group_name_H-M "C M M M"
_symmetry_group_IT_number 65
_symmetry_cell_setting 'orthorhombic'
loop_
_space_group_symop_operation_xyz
x,y,z
-x,-y,z
x,-y,-z
-x,y,-z
-x,-y,-z
x,y,-z
-x,y,z
x,-y,z
1/2+x,1/2+y,z
1/2-x,1/2-y,z
1/2+x,1/2-y,-z
1/2-x,1/2+y,-z
1/2-x,1/2-y,-z
1/2+x,1/2+y,-z
1/2-x,1/2+y,z
1/2+x,1/2-y,z
loop_
_atom_site_type_symbol
_atom_site_label
_atom_site_fract_x
_atom_site_fract_y
_atom_site_fract_z
Si Si1 0.412238 0.173573 0.370649
Si Si2 0.169541 0.677370 0.500000
Si Si3 0.169361 0.177901 0.745888
Si Si4 0.831102 0.178860 0.000000
Si Si5 0.415801 0.321007 0.872593
O O1 0.500000 0.196539 0.377925
O O2 0.375055 0.230878 0.436813
O O3 0.383100 0.277099 0.313214
O O4 0.391709 0.000000 0.356333
O O5 0.178666 0.500000 0.500000
O O6 0.250000 0.750000 0.500000
O O7 0.250000 0.250000 0.737310
O O8 0.131090 0.238889 0.811455
O O9 0.178581 0.000000 0.747552
O O10 0.750000 0.250000 0.000000
O O11 0.875857 0.237244 0.062577
O O12 0.823286 0.000000 0.000000
O O13 0.500000 0.254961 0.869658
O O14 0.419187 0.500000 0.872128
#
# Coordination Sequence:
#
# PCOD8269139 Si02
#       5
#    16   8  16   8  16
#     4  10  21  38  59  82 109 142 180 222 269 320
#     4  10  21  37  57  81 109 142 179 220 266 316
#     4  11  22  36  55  80 111 144 180 223 269 320
#     4  10  19  33  55  79 105 138 176 218 264 316
#     4   9  18  33  54  79 105 137 179 223 265 313
#
# _framework density 19.501407
#
# number of rings (size 3 to 8) (size 9 to 14) (size 15 to 20)
#    0.000    2.000    0.000    3.750    0.000    7.500 
#    0.000    1.250    0.000    6.750    0.000    0.000 
#    0.000    0.000    0.000    0.000    0.000    0.000 
#
# Total GULP energy -396920.067055 kJ/mol
# GULP energy per Si atom -12403.752095 kJ/mol
# Density = 1.945702 g / cm^3
# Si number density = 19.501407 Si / 1000 Ang^3
#
#
#
# Elastic Constant Matrix: (Units=GPa)
#
#
# Indices 1 2 3 4 5 6 
#
# 1 131.8378 26.1683 60.9888 0.0000 0.0000 0.0000
# 2 26.1683 35.8266 32.5832 0.0000 0.0000 0.0000
# 3 60.9888 32.5832 173.8225 0.0000 0.0000 0.0000
# 4 0.0000 0.0000 0.0000 46.5956 0.0000 0.0000
# 5 0.0000 0.0000 0.0000 0.0000 45.4534 0.0000
# 6 0.0000 0.0000 0.0000 0.0000 0.0000 28.9865
#
#
#
# Elastic Compliance Matrix: (Units=1/GPa)
#
#
# Indices 1 2 3 4 5 6 
#
# 1 0.009696 -0.004808 -0.002501 0.000000 0.000000 0.000000
# 2 -0.004808 0.036033 -0.005067 0.000000 0.000000 0.000000
# 3 -0.002501 -0.005067 0.007580 0.000000 0.000000 0.000000
# 4 0.000000 0.000000 0.000000 0.021461 0.000000 0.000000
# 5 0.000000 0.000000 0.000000 0.000000 0.022001 0.000000
# 6 0.000000 0.000000 0.000000 0.000000 0.000000 0.034499
#
#
# Mechanical properties :
#
#
# Convention : Reuss Voigt Hill
#
# Bulk Modulus (GPa) = 35.01772 64.55195 49.78484
# Shear Modulus (GPa) = 30.20393 38.99020 34.59706
#
# Velocity S-wave (km/s) = 3.93976 4.47626 4.21655
# Velocity P-wave (km/s) = 6.22022 7.73880 7.02069
#
# Compressibility (1/GPa) = 0.02855697
#
# Stress axis : x y z
#
# Youngs Moduli (GPa) = 103.13203 27.75259 131.91963
#
# Poissons Ratio (x) = 0.13343 0.32992
# Poissons Ratio (y) = 0.49584 0.66849
# Poissons Ratio (z) = 0.25792 0.14063
#
# Static dielectric constant tensor:
#      x y z
#    x 3.684980 0.000000 0.000000 
#    y 0.000000 3.866490 0.000000 
#    z 0.000000 0.000000 3.922100 
# 
# 
# High freq. dielectric constant tensor:
#      x y z
#    x 1.779050 0.000000 0.000000 
#    y 0.000000 1.727560 0.000000 
#    z 0.000000 0.000000 1.780000 
# 
# From -- ./inp_files/58817.got.cif
#   From: 2010.03.12/outbox.cif.g09.slc.cpg/sg65_30_cif.got.tgz:58817.got - 2010.04.10 20:52:16.
