data_PCOD8269677
_publ_section_title
;
Structure prediction by ZEFSAII (Michael W. Deem and Ramdas Pophale) SiO2 
 PCOD8269677
Probable space group: C M M M
;
_chemical_formula_sum "Si O2"
_cell_formula_units_Z 72
_cell_length_a 29.970464
_cell_length_b 14.451290
_cell_length_c 8.715361
_cell_angle_alpha 90.000000
_cell_angle_beta 90.000000
_cell_angle_gamma 90.000000
_cell_volume 3774.726272
_symmetry_space_group_name_H-M "C M M M"
_symmetry_group_IT_number 65
_symmetry_cell_setting 'orthorhombic'
loop_
_space_group_symop_operation_xyz
x,y,z
-x,-y,z
x,-y,-z
-x,y,-z
-x,-y,-z
x,y,-z
-x,y,z
x,-y,z
1/2+x,1/2+y,z
1/2-x,1/2-y,z
1/2+x,1/2-y,-z
1/2-x,1/2+y,-z
1/2-x,1/2-y,-z
1/2+x,1/2+y,-z
1/2-x,1/2+y,z
1/2+x,1/2-y,z
loop_
_atom_site_type_symbol
_atom_site_label
_atom_site_fract_x
_atom_site_fract_y
_atom_site_fract_z
Si Si1 0.704442 0.804265 0.177869
Si Si2 0.447287 0.000000 0.167274
Si Si3 0.128171 0.186404 0.679419
Si Si4 0.448665 0.200287 0.817596
Si Si5 0.237989 0.500000 0.181602
Si Si6 0.661820 0.500000 0.181731
O O1 0.750000 0.750000 0.205341
O O2 0.665841 0.760710 0.279168
O O3 0.711092 0.909487 0.235272
O O4 0.690219 0.799248 0.000000
O O5 0.434288 0.902466 0.248031
O O6 0.500000 0.000000 0.144022
O O7 0.424274 0.000000 0.000000
O O8 0.128192 0.168333 0.500000
O O9 0.080218 0.223275 0.732018
O O10 0.135907 0.090126 0.763832
O O11 0.500000 0.221358 0.778054
O O12 0.440681 0.203725 0.000000
O O13 0.287985 0.500000 0.251153
O O14 0.243148 0.500000 0.000000
O O15 0.663358 0.500000 0.000000
#
# Coordination Sequence:
#
# PCOD8269677 Si02
#       6
#    16   8  16  16   8   8
#     4  10  19  36  60  84 111 148 197 244 282 329
#     4   7  12  27  55  86 110 137 183 239 284 321
#     4  12  25  38  55  86 123 155 187 232 298 358
#     4   9  18  36  62  88 114 151 199 246 287 334
#     4   9  18  34  60  88 110 143 196 251 288 323
#     4  11  21  41  65  83 105 147 203 246 285 340
#
# _framework density 19.074231000000001
#
# number of rings (size 3 to 8) (size 9 to 14) (size 15 to 20)
#    0.000    2.111    2.222    3.667    0.000    1.778 
#    0.000    6.111    0.000    5.333    0.000    0.000 
#    0.000    0.000    0.000    0.000    0.000    0.000 
#
# Total GULP energy -446272.167800 kJ/mol
# GULP energy per Si atom -12396.449106 kJ/mol
# Density = 1.903082 g / cm^3
# Si number density = 19.074231 Si / 1000 Ang^3
#
#
#
# Elastic Constant Matrix: (Units=GPa)
#
#
# Indices 1 2 3 4 5 6 
#
# 1 89.1329 59.4511 34.8100 0.0000 0.0000 0.0000
# 2 59.4511 168.5301 36.3858 0.0000 0.0000 0.0000
# 3 34.8100 36.3858 67.2724 0.0000 0.0000 0.0000
# 4 0.0000 0.0000 0.0000 11.6611 0.0000 0.0000
# 5 0.0000 0.0000 0.0000 0.0000 -0.5134 0.0000
# 6 0.0000 0.0000 0.0000 0.0000 0.0000 17.5611
#
#
#
# Elastic Compliance Matrix: (Units=1/GPa)
#
#
# Indices 1 2 3 4 5 6 
#
# 1 0.016657 -0.004546 -0.006160 0.000000 0.000000 0.000000
# 2 -0.004546 0.007959 -0.001952 0.000000 0.000000 0.000000
# 3 -0.006160 -0.001952 0.019109 0.000000 0.000000 0.000000
# 4 0.000000 0.000000 0.000000 0.085755 0.000000 0.000000
# 5 0.000000 0.000000 0.000000 0.000000 -1.947894 0.000000
# 6 0.000000 0.000000 0.000000 0.000000 0.000000 0.056944
#
#
# Mechanical properties :
#
#
# Convention : Reuss Voigt Hill
#
# Bulk Modulus (GPa) = 54.32709 65.13659 59.73184
# Shear Modulus (GPa) = -2.89015 18.69434 7.90209
#
# Velocity S-wave (km/s) = -1.23227 3.13402 2.03760
# Velocity P-wave (km/s) = 5.14967 6.87890 6.07612
#
# Compressibility (1/GPa) = 0.01840702
#
# Stress axis : x y z
#
# Youngs Moduli (GPa) = 60.03387 125.64645 52.33233
#
# Poissons Ratio (x) = 0.57119 0.32239
# Poissons Ratio (y) = 0.27291 0.10217
# Poissons Ratio (z) = 0.36984 0.24531
#
# Static dielectric constant tensor:
#      x y z
#    x 3.433690 0.000000 0.000000 
#    y 0.000000 4.060120 0.000000 
#    z 0.000000 0.000000 3.143310 
# 
# 
# High freq. dielectric constant tensor:
#      x y z
#    x 1.733720 0.000000 0.000000 
#    y 0.000000 1.758010 0.000000 
#    z 0.000000 0.000000 1.705640 
# 
# From -- ./inp_files/15806.got.cif
#   From: 2010.03.12/outbox.cif.g09.slc.cpg/sg65_8_cif.got.tgz:15806.got - 2010.04.10 20:52:16.
