data_PCOD8269518
_publ_section_title
;
Structure prediction by ZEFSAII (Michael W. Deem and Ramdas Pophale) SiO2 
 PCOD8269518
Probable space group: C M M M
;
_chemical_formula_sum "Si O2"
_cell_formula_units_Z 72
_cell_length_a 15.482625
_cell_length_b 8.012215
_cell_length_c 28.059344
_cell_angle_alpha 90.000000
_cell_angle_beta 90.000000
_cell_angle_gamma 90.000000
_cell_volume 3480.764998
_symmetry_space_group_name_H-M "C M M M"
_symmetry_group_IT_number 65
_symmetry_cell_setting 'orthorhombic'
loop_
_space_group_symop_operation_xyz
x,y,z
-x,-y,z
x,-y,-z
-x,y,-z
-x,-y,-z
x,y,-z
-x,y,z
x,-y,z
1/2+x,1/2+y,z
1/2-x,1/2-y,z
1/2+x,1/2-y,-z
1/2-x,1/2+y,-z
1/2-x,1/2-y,-z
1/2+x,1/2+y,-z
1/2-x,1/2+y,z
1/2+x,1/2-y,z
loop_
_atom_site_type_symbol
_atom_site_label
_atom_site_fract_x
_atom_site_fract_y
_atom_site_fract_z
Si Si1 0.398763 0.312855 0.614724
Si Si2 0.000000 0.192820 0.883057
Si Si3 0.602881 0.000000 0.446467
Si Si4 0.843076 0.695798 0.053225
Si Si5 0.000000 0.801645 0.223100
Si Si6 0.841615 0.693839 0.285947
O O1 0.500000 0.286115 0.622827
O O2 0.379726 0.500000 0.594335
O O3 0.353771 0.297736 0.665697
O O4 0.363120 0.169080 0.579289
O O5 0.084990 0.239630 0.911522
O O6 0.000000 0.273752 0.830518
O O7 0.000000 0.000000 0.874089
O O8 0.500000 0.000000 0.447268
O O9 0.640034 0.000000 0.500000
O O10 0.849708 0.500000 0.050597
O O11 0.750000 0.750000 0.073370
O O12 0.856871 0.771640 0.000000
O O13 0.085282 0.733124 0.247889
O O14 0.000000 0.000000 0.225536
O O15 0.843906 0.500000 0.298818
O O16 0.750000 0.750000 0.263584
#
# Coordination Sequence:
#
# PCOD8269518 Si02
#       6
#    16   8   8  16   8  16
#     4  10  19  34  58  87 122 160 201 255 309 366
#     4  11  24  40  61  88 124 166 203 253 315 378
#     4   9  18  32  54  88 124 161 207 251 303 376
#     4  10  21  38  62  91 123 161 210 259 305 366
#     4  11  25  44  62  89 126 161 205 257 318 373
#     4  12  24  40  64  93 120 158 209 259 311 375
#
# _framework density 20.685109000000001
#
# number of rings (size 3 to 8) (size 9 to 14) (size 15 to 20)
#    0.000    1.444    2.222    3.667    0.000    5.778 
#    0.000    2.222    0.000    0.667    0.000    0.000 
#    0.000    0.000    0.000    0.000    0.000    0.000 
#
# Total GULP energy -446450.143171 kJ/mol
# GULP energy per Si atom -12401.392866 kJ/mol
# Density = 2.063803 g / cm^3
# Si number density = 20.685109 Si / 1000 Ang^3
#
#
#
# Elastic Constant Matrix: (Units=GPa)
#
#
# Indices 1 2 3 4 5 6 
#
# 1 129.9507 33.2247 73.1767 0.0000 0.0000 0.0000
# 2 33.2247 121.2575 44.0398 0.0000 0.0000 0.0000
# 3 73.1767 44.0398 149.2986 0.0000 0.0000 0.0000
# 4 0.0000 0.0000 0.0000 28.8261 0.0000 0.0000
# 5 0.0000 0.0000 0.0000 0.0000 9.8491 0.0000
# 6 0.0000 0.0000 0.0000 0.0000 0.0000 31.1318
#
#
#
# Elastic Compliance Matrix: (Units=1/GPa)
#
#
# Indices 1 2 3 4 5 6 
#
# 1 0.010772 -0.001158 -0.004938 0.000000 0.000000 0.000000
# 2 -0.001158 0.009361 -0.002194 0.000000 0.000000 0.000000
# 3 -0.004938 -0.002194 0.009765 0.000000 0.000000 0.000000
# 4 0.000000 0.000000 0.000000 0.034691 0.000000 0.000000
# 5 0.000000 0.000000 0.000000 0.000000 0.101532 0.000000
# 6 0.000000 0.000000 0.000000 0.000000 0.000000 0.032121
#
#
# Mechanical properties :
#
#
# Convention : Reuss Voigt Hill
#
# Bulk Modulus (GPa) = 75.08264 77.93212 76.50738
# Shear Modulus (GPa) = 22.80377 30.63245 26.71811
#
# Velocity S-wave (km/s) = 3.32388 3.85241 3.59787
# Velocity P-wave (km/s) = 7.14896 7.58587 7.37065
#
# Compressibility (1/GPa) = 0.01331866
#
# Stress axis : x y z
#
# Youngs Moduli (GPa) = 92.83293 106.82682 102.40185
#
# Poissons Ratio (x) = 0.12371 0.50568
# Poissons Ratio (y) = 0.10750 0.22464
# Poissons Ratio (z) = 0.45842 0.23434
#
# Static dielectric constant tensor:
#      x y z
#    x 3.698300 0.000000 0.000000 
#    y 0.000000 3.970290 0.000000 
#    z 0.000000 0.000000 4.142440 
# 
# 
# High freq. dielectric constant tensor:
#      x y z
#    x 1.807090 0.000000 0.000000 
#    y 0.000000 1.825930 0.000000 
#    z 0.000000 0.000000 1.798120 
# 
# From -- ./inp_files/74685.got.cif
#   From: 2010.03.12/outbox.cif.g09.slc.cpg/sg65_38_cif.got.tgz:74685.got - 2010.04.10 20:52:16.
