data_PCOD8269148
_publ_section_title
;
Structure prediction by ZEFSAII (Michael W. Deem and Ramdas Pophale) SiO2 
 PCOD8269148
Probable space group: C M M M
;
_chemical_formula_sum "Si O2"
_cell_formula_units_Z 88
_cell_length_a 16.418709
_cell_length_b 9.347538
_cell_length_c 29.950110
_cell_angle_alpha 90.000000
_cell_angle_beta 90.000000
_cell_angle_gamma 90.000000
_cell_volume 4596.578346
_symmetry_space_group_name_H-M "C M M M"
_symmetry_group_IT_number 65
_symmetry_cell_setting 'orthorhombic'
loop_
_space_group_symop_operation_xyz
x,y,z
-x,-y,z
x,-y,-z
-x,y,-z
-x,-y,-z
x,y,-z
-x,y,z
x,-y,z
1/2+x,1/2+y,z
1/2-x,1/2-y,z
1/2+x,1/2-y,-z
1/2-x,1/2+y,-z
1/2-x,1/2-y,-z
1/2+x,1/2+y,-z
1/2-x,1/2+y,z
1/2+x,1/2-y,z
loop_
_atom_site_type_symbol
_atom_site_label
_atom_site_fract_x
_atom_site_fract_y
_atom_site_fract_z
Si Si1 0.332955 0.834922 0.875397
Si Si2 0.500000 0.169260 0.550807
Si Si3 0.832374 0.665227 0.222757
Si Si4 0.588739 0.169211 0.311964
Si Si5 0.405089 0.343057 0.951202
Si Si6 0.832502 0.669702 0.401614
O O1 0.250000 0.750000 0.877854
O O2 0.373941 0.814523 0.826135
O O3 0.390250 0.775621 0.913885
O O4 0.315384 0.000000 0.884888
O O5 0.500000 0.223064 0.500000
O O6 0.585064 0.223405 0.573013
O O7 0.500000 0.000000 0.554975
O O8 0.811876 0.500000 0.231453
O O9 0.750000 0.750000 0.223823
O O10 0.887931 0.726425 0.262722
O O11 0.500000 0.233631 0.324097
O O12 0.654149 0.212897 0.349671
O O13 0.581748 0.000000 0.311123
O O14 0.500000 0.357371 0.956495
O O15 0.369517 0.500000 0.937562
O O16 0.368646 0.298093 0.000000
O O17 0.819720 0.500000 0.408563
O O18 0.750000 0.750000 0.418486
#
# Coordination Sequence:
#
# PCOD8269148 Si02
#       6
#    16   8  16  16  16  16
#     4  10  20  33  50  73 100 130 163 203 250 300
#     4   9  18  34  55  79 109 145 187 229 268 325
#     4   9  18  31  48  70  97 128 162 203 249 299
#     4   9  16  29  50  74 100 133 175 215 253 308
#     4   9  19  36  55  73  95 125 160 200 249 303
#     4  10  19  33  55  80 106 142 184 226 273 324
#
# _framework density 19.144677000000001
#
# number of rings (size 3 to 8) (size 9 to 14) (size 15 to 20)
#    0.000    2.636    0.909    1.636    0.000    2.909 
#    0.000    3.182    0.000    2.182    0.000    0.000 
#    0.000    0.000    0.000    0.000    0.000    0.000 
#
# Total GULP energy -545084.280357 kJ/mol
# GULP energy per Si atom -12388.279099 kJ/mol
# Density = 1.910110 g / cm^3
# Si number density = 19.144677 Si / 1000 Ang^3
#
#
#
# Elastic Constant Matrix: (Units=GPa)
#
#
# Indices 1 2 3 4 5 6 
#
# 1 102.9143 31.1627 52.6809 0.0000 0.0000 0.0000
# 2 31.1627 59.0512 41.8688 0.0000 0.0000 0.0000
# 3 52.6809 41.8688 137.8700 0.0000 0.0000 0.0000
# 4 0.0000 0.0000 0.0000 18.6010 0.0000 0.0000
# 5 0.0000 0.0000 0.0000 0.0000 24.7175 0.0000
# 6 0.0000 0.0000 0.0000 0.0000 0.0000 26.2032
#
#
#
# Elastic Compliance Matrix: (Units=1/GPa)
#
#
# Indices 1 2 3 4 5 6 
#
# 1 0.012850 -0.004205 -0.003633 0.000000 0.000000 0.000000
# 2 -0.004205 0.022958 -0.005365 0.000000 0.000000 0.000000
# 3 -0.003633 -0.005365 0.010271 0.000000 0.000000 0.000000
# 4 0.000000 0.000000 0.000000 0.053761 0.000000 0.000000
# 5 0.000000 0.000000 0.000000 0.000000 0.040457 0.000000
# 6 0.000000 0.000000 0.000000 0.000000 0.000000 0.038163
#
#
# Mechanical properties :
#
#
# Convention : Reuss Voigt Hill
#
# Bulk Modulus (GPa) = 50.83455 61.25115 56.04285
# Shear Modulus (GPa) = 23.64931 25.51255 24.58093
#
# Velocity S-wave (km/s) = 3.51849 3.65447 3.58712
# Velocity P-wave (km/s) = 6.56634 7.06188 6.81861
#
# Compressibility (1/GPa) = 0.01967166
#
# Stress axis : x y z
#
# Youngs Moduli (GPa) = 77.82185 43.55850 97.36513
#
# Poissons Ratio (x) = 0.18318 0.35372
# Poissons Ratio (y) = 0.32727 0.52236
# Poissons Ratio (z) = 0.28272 0.23369
#
# Static dielectric constant tensor:
#      x y z
#    x 3.480830 0.000000 0.000000 
#    y 0.000000 3.927160 0.000000 
#    z 0.000000 0.000000 4.078860 
# 
# 
# High freq. dielectric constant tensor:
#      x y z
#    x 1.732210 0.000000 0.000000 
#    y 0.000000 1.708530 0.000000 
#    z 0.000000 0.000000 1.760600 
# 
# From -- ./inp_files/77803.got.cif
#   From: 2010.03.12/outbox.cif.g09.slc.cpg/sg65_39_cif.got.tgz:77803.got - 2010.04.10 20:52:16.
