data_PCOD8269019
_publ_section_title
;
Structure prediction by ZEFSAII (Michael W. Deem and Ramdas Pophale) SiO2 
 PCOD8269019
Probable space group: C M M M
;
_chemical_formula_sum "Si O2"
_cell_formula_units_Z 72
_cell_length_a 18.033345
_cell_length_b 14.254853
_cell_length_c 13.728939
_cell_angle_alpha 90.000000
_cell_angle_beta 90.000000
_cell_angle_gamma 90.000000
_cell_volume 3529.197881
_symmetry_space_group_name_H-M "C M M M"
_symmetry_group_IT_number 65
_symmetry_cell_setting 'orthorhombic'
loop_
_space_group_symop_operation_xyz
x,y,z
-x,-y,z
x,-y,-z
-x,y,-z
-x,-y,-z
x,y,-z
-x,y,z
x,-y,z
1/2+x,1/2+y,z
1/2-x,1/2-y,z
1/2+x,1/2-y,-z
1/2-x,1/2+y,-z
1/2-x,1/2-y,-z
1/2+x,1/2+y,-z
1/2-x,1/2+y,z
1/2+x,1/2-y,z
loop_
_atom_site_type_symbol
_atom_site_label
_atom_site_fract_x
_atom_site_fract_y
_atom_site_fract_z
Si Si1 0.085457 0.728259 0.110835
Si Si2 0.916375 0.893058 0.251564
Si Si3 0.643652 0.888645 0.275931
Si Si4 0.287229 0.388568 0.609135
Si Si5 0.000000 0.611586 0.608798
O O1 0.094802 0.832329 0.154511
O O2 0.137833 0.655412 0.168431
O O3 0.000000 0.694899 0.117246
O O4 0.113256 0.730746 0.000000
O O5 0.861960 0.856290 0.336320
O O6 0.000000 0.883733 0.292258
O O7 0.897656 0.000000 0.222598
O O8 0.716216 0.850225 0.331473
O O9 0.572660 0.851733 0.335937
O O10 0.645320 0.000000 0.265411
O O11 0.286846 0.346305 0.500000
O O12 0.282637 0.500000 0.603283
O O13 0.000000 0.500000 0.605420
O O14 0.000000 0.652926 0.500000
#
# Coordination Sequence:
#
# PCOD8269019 Si02
#       5
#    16  16  16  16   8
#     4  10  21  37  57  80 108 143 186 232 274 320
#     4   9  19  37  59  80 105 139 182 232 280 326
#     4  10  19  33  53  81 115 146 179 217 260 322
#     4   9  18  34  57  83 112 146 179 219 273 327
#     4   9  16  28  49  75 106 145 179 209 251 307
#
# _framework density 20.401236000000001
#
# number of rings (size 3 to 8) (size 9 to 14) (size 15 to 20)
#    0.000    2.556    1.111    0.667    0.000    4.889 
#    0.000   11.111    0.000    4.000    0.000    0.000 
#    0.000    0.000    0.000    0.000    0.000    0.000 
#
# Total GULP energy -446452.899835 kJ/mol
# GULP energy per Si atom -12401.469440 kJ/mol
# Density = 2.035480 g / cm^3
# Si number density = 20.401236 Si / 1000 Ang^3
#
#
#
# Elastic Constant Matrix: (Units=GPa)
#
#
# Indices 1 2 3 4 5 6 
#
# 1 137.2316 33.3069 91.3441 0.0000 0.0000 0.0000
# 2 33.3069 36.4512 42.8633 0.0000 0.0000 0.0000
# 3 91.3441 42.8633 200.7897 0.0000 0.0000 0.0000
# 4 0.0000 0.0000 0.0000 26.2177 0.0000 0.0000
# 5 0.0000 0.0000 0.0000 0.0000 33.5484 0.0000
# 6 0.0000 0.0000 0.0000 0.0000 0.0000 20.9320
#
#
#
# Elastic Compliance Matrix: (Units=1/GPa)
#
#
# Indices 1 2 3 4 5 6 
#
# 1 0.011275 -0.005702 -0.003912 0.000000 0.000000 0.000000
# 2 -0.005702 0.039512 -0.005841 0.000000 0.000000 0.000000
# 3 -0.003912 -0.005841 0.008007 0.000000 0.000000 0.000000
# 4 0.000000 0.000000 0.000000 0.038142 0.000000 0.000000
# 5 0.000000 0.000000 0.000000 0.000000 0.029808 0.000000
# 6 0.000000 0.000000 0.000000 0.000000 0.000000 0.047774
#
#
# Mechanical properties :
#
#
# Convention : Reuss Voigt Hill
#
# Bulk Modulus (GPa) = 35.86249 78.83343 57.34796
# Shear Modulus (GPa) = 23.28594 29.93685 26.61139
#
# Velocity S-wave (km/s) = 3.38212 3.83483 3.61557
# Velocity P-wave (km/s) = 5.73310 7.63762 6.75284
#
# Compressibility (1/GPa) = 0.02788429
#
# Stress axis : x y z
#
# Youngs Moduli (GPa) = 88.69397 25.30850 124.89360
#
# Poissons Ratio (x) = 0.14431 0.48857
# Poissons Ratio (y) = 0.50574 0.72948
# Poissons Ratio (z) = 0.34696 0.14782
#
# Static dielectric constant tensor:
#      x y z
#    x 3.802000 0.000000 0.000000 
#    y 0.000000 3.477820 0.000000 
#    z 0.000000 0.000000 3.683110 
# 
# 
# High freq. dielectric constant tensor:
#      x y z
#    x 1.796580 0.000000 0.000000 
#    y 0.000000 1.791760 0.000000 
#    z 0.000000 0.000000 1.786410 
# 
# From -- ./inp_files/42166.got.cif
#   From: 2010.03.12/outbox.cif.g09.slc.cpg/sg65_22_cif.got.tgz:42166.got - 2010.04.10 20:52:16.
