data_PCOD8269189
_publ_section_title
;
Structure prediction by ZEFSAII (Michael W. Deem and Ramdas Pophale) SiO2 
 PCOD8269189
Probable space group: C M M M
;
_chemical_formula_sum "Si O2"
_cell_formula_units_Z 64
_cell_length_a 17.128423
_cell_length_b 14.851072
_cell_length_c 13.690286
_cell_angle_alpha 90.000000
_cell_angle_beta 90.000000
_cell_angle_gamma 90.000000
_cell_volume 3482.472569
_symmetry_space_group_name_H-M "C M M M"
_symmetry_group_IT_number 65
_symmetry_cell_setting 'orthorhombic'
loop_
_space_group_symop_operation_xyz
x,y,z
-x,-y,z
x,-y,-z
-x,y,-z
-x,-y,-z
x,y,-z
-x,y,z
x,-y,z
1/2+x,1/2+y,z
1/2-x,1/2-y,z
1/2+x,1/2-y,-z
1/2-x,1/2+y,-z
1/2-x,1/2-y,-z
1/2+x,1/2+y,-z
1/2-x,1/2+y,z
1/2+x,1/2-y,z
loop_
_atom_site_type_symbol
_atom_site_label
_atom_site_fract_x
_atom_site_fract_y
_atom_site_fract_z
Si Si1 0.189397 0.000000 0.230846
Si Si2 0.319934 0.000000 0.614788
Si Si3 0.591784 0.864890 0.740520
Si Si4 0.339633 0.000000 0.114223
Si Si5 0.592164 0.399361 0.500000
Si Si6 0.091896 0.837937 0.290986
O O1 0.247556 0.000000 0.138560
O O2 0.135761 0.088718 0.224721
O O3 0.236480 0.000000 0.332506
O O4 0.367521 0.088805 0.647276
O O5 0.306956 0.000000 0.500000
O O6 0.500000 0.876702 0.727183
O O7 0.615831 0.760620 0.746169
O O8 0.620229 0.911350 0.840360
O O9 0.354064 0.000000 0.000000
O O10 0.627679 0.500000 0.500000
O O11 0.500000 0.406228 0.500000
O O12 0.619837 0.346566 0.403538
O O13 0.000000 0.855750 0.280676
#
# Coordination Sequence:
#
# PCOD8269189 Si02
#       6
#     8   8  16   8   8  16
#     4  10  21  36  54  78 114 145 182 221 271 323
#     4  10  22  33  46  73 111 154 183 216 268 320
#     4   9  20  37  57  82 106 135 182 232 279 323
#     4  10  22  41  62  80 102 138 184 230 284 341
#     4   9  16  26  46  78 110 152 188 207 243 300
#     4  10  19  33  55  82 114 147 185 227 263 310
#
# _framework density 18.377748
#
# number of rings (size 3 to 8) (size 9 to 14) (size 15 to 20)
#    0.000    2.625    1.250    1.875    3.500    6.000 
#    0.000    3.750    0.000    3.000    0.000    0.000 
#    0.000    0.000    0.000    0.000    0.000    0.000 
#
# Total GULP energy -396752.020737 kJ/mol
# GULP energy per Si atom -12398.500648 kJ/mol
# Density = 1.833592 g / cm^3
# Si number density = 18.377748 Si / 1000 Ang^3
#
#
#
# Elastic Constant Matrix: (Units=GPa)
#
#
# Indices 1 2 3 4 5 6 
#
# 1 67.5864 53.0454 10.5698 0.0000 0.0000 0.0000
# 2 53.0454 168.8668 40.6402 0.0000 0.0000 0.0000
# 3 10.5698 40.6402 101.1769 0.0000 0.0000 0.0000
# 4 0.0000 0.0000 0.0000 13.4121 0.0000 0.0000
# 5 0.0000 0.0000 0.0000 0.0000 18.2828 0.0000
# 6 0.0000 0.0000 0.0000 0.0000 0.0000 8.0336
#
#
#
# Elastic Compliance Matrix: (Units=1/GPa)
#
#
# Indices 1 2 3 4 5 6 
#
# 1 0.019658 -0.006289 0.000472 0.000000 0.000000 0.000000
# 2 -0.006289 0.008567 -0.002784 0.000000 0.000000 0.000000
# 3 0.000472 -0.002784 0.010953 0.000000 0.000000 0.000000
# 4 0.000000 0.000000 0.000000 0.074560 0.000000 0.000000
# 5 0.000000 0.000000 0.000000 0.000000 0.054696 0.000000
# 6 0.000000 0.000000 0.000000 0.000000 0.000000 0.124478
#
#
# Mechanical properties :
#
#
# Convention : Reuss Voigt Hill
#
# Bulk Modulus (GPa) = 45.50304 60.68232 53.09268
# Shear Modulus (GPa) = 15.75111 23.50401 19.62756
#
# Velocity S-wave (km/s) = 2.93076 3.58010 3.27158
# Velocity P-wave (km/s) = 6.02213 7.08383 6.57445
#
# Compressibility (1/GPa) = 0.02197655
#
# Stress axis : x y z
#
# Youngs Moduli (GPa) = 50.87066 116.72230 91.30155
#
# Poissons Ratio (x) = 0.73403 -0.04313
# Poissons Ratio (y) = 0.31991 0.25421
# Poissons Ratio (z) = -0.02403 0.32499
#
# Static dielectric constant tensor:
#      x y z
#    x 3.428520 0.000000 0.000000 
#    y 0.000000 3.498490 0.000000 
#    z 0.000000 0.000000 3.025080 
# 
# 
# High freq. dielectric constant tensor:
#      x y z
#    x 1.721030 0.000000 0.000000 
#    y 0.000000 1.720380 0.000000 
#    z 0.000000 0.000000 1.674640 
# 
# From -- ./inp_files/42095.got.cif
#   From: 2010.03.12/outbox.cif.g09.slc.cpg/sg65_22_cif.got.tgz:42095.got - 2010.04.10 20:52:16.
