data_PCOD8269078
_publ_section_title
;
Structure prediction by ZEFSAII (Michael W. Deem and Ramdas Pophale) SiO2 
 PCOD8269078
Probable space group: C M M M
;
_chemical_formula_sum "Si O2"
_cell_formula_units_Z 104
_cell_length_a 8.852448
_cell_length_b 19.857480
_cell_length_c 32.996638
_cell_angle_alpha 90.000000
_cell_angle_beta 90.000000
_cell_angle_gamma 90.000000
_cell_volume 5800.390204
_symmetry_space_group_name_H-M "C M M M"
_symmetry_group_IT_number 65
_symmetry_cell_setting 'orthorhombic'
loop_
_space_group_symop_operation_xyz
x,y,z
-x,-y,z
x,-y,-z
-x,y,-z
-x,-y,-z
x,y,-z
-x,y,z
x,-y,z
1/2+x,1/2+y,z
1/2-x,1/2-y,z
1/2+x,1/2-y,-z
1/2-x,1/2+y,-z
1/2-x,1/2-y,-z
1/2+x,1/2+y,-z
1/2-x,1/2+y,z
1/2+x,1/2-y,z
loop_
_atom_site_type_symbol
_atom_site_label
_atom_site_fract_x
_atom_site_fract_y
_atom_site_fract_z
Si Si1 0.326619 0.820338 0.000000
Si Si2 0.321823 0.679666 0.701467
Si Si3 0.321439 0.824073 0.088058
Si Si4 0.679518 0.425103 0.455056
Si Si5 0.175824 0.578303 0.762572
Si Si6 0.822108 0.819202 0.391157
Si Si7 0.822497 0.077687 0.152814
O O1 0.250000 0.750000 0.000000
O O2 0.285972 0.855820 0.042930
O O3 0.500000 0.802930 0.000000
O O4 0.500000 0.683941 0.707846
O O5 0.250000 0.750000 0.716004
O O6 0.255085 0.618768 0.726941
O O7 0.277143 0.664412 0.655027
O O8 0.500000 0.818859 0.096243
O O9 0.250000 0.750000 0.093465
O O10 0.247208 0.876233 0.118339
O O11 0.729716 0.400654 0.500000
O O12 0.500000 0.426203 0.452432
O O13 0.742848 0.500000 0.446909
O O14 0.746158 0.376528 0.420474
O O15 0.204575 0.500000 0.753741
O O16 0.249441 0.599949 0.804915
O O17 0.000000 0.596109 0.764190
O O18 0.750000 0.750000 0.405810
O O19 0.000000 0.812914 0.395922
O O20 0.000000 0.090006 0.155502
O O21 0.783876 0.000000 0.143014
#
# Coordination Sequence:
#
# PCOD8269078 Si02
#       7
#     8  16  16  16  16  16  16
#     4   8  16  30  49  74 103 135 169 209 253 296
#     4  10  20  34  52  74 102 133 166 207 252 298
#     4  10  19  33  54  79 106 136 173 213 254 300
#     4   8  14  26  45  69  96 126 163 205 243 282
#     4  10  21  37  56  77 101 130 165 205 251 303
#     4   9  18  31  48  71  98 128 161 199 244 292
#     4  10  21  37  55  76 104 136 170 209 253 300
#
# _framework density 17.929828000000001
#
# number of rings (size 3 to 8) (size 9 to 14) (size 15 to 20)
#    0.000    2.615    0.000    2.308    0.000    4.615 
#    0.000    5.000    0.000    2.769    0.000    1.077 
#    0.000    0.000    0.000    0.000    0.000    0.000 
#
# Total GULP energy -644565.012647 kJ/mol
# GULP energy per Si atom -12395.481012 kJ/mol
# Density = 1.788902 g / cm^3
# Si number density = 17.929828 Si / 1000 Ang^3
#
#
#
# Elastic Constant Matrix: (Units=GPa)
#
#
# Indices 1 2 3 4 5 6 
#
# 1 68.3305 43.6435 50.3378 0.0000 0.0000 0.0000
# 2 43.6435 101.1056 88.9337 0.0000 0.0000 0.0000
# 3 50.3378 88.9337 141.8587 0.0000 0.0000 0.0000
# 4 0.0000 0.0000 0.0000 27.7044 0.0000 0.0000
# 5 0.0000 0.0000 0.0000 0.0000 19.3514 0.0000
# 6 0.0000 0.0000 0.0000 0.0000 0.0000 30.0367
#
#
#
# Elastic Compliance Matrix: (Units=1/GPa)
#
#
# Indices 1 2 3 4 5 6 
#
# 1 0.021165 -0.005640 -0.003974 0.000000 0.000000 0.000000
# 2 -0.005640 0.023553 -0.012764 0.000000 0.000000 0.000000
# 3 -0.003974 -0.012764 0.016462 0.000000 0.000000 0.000000
# 4 0.000000 0.000000 0.000000 0.036095 0.000000 0.000000
# 5 0.000000 0.000000 0.000000 0.000000 0.051676 0.000000
# 6 0.000000 0.000000 0.000000 0.000000 0.000000 0.033293
#
#
# Mechanical properties :
#
#
# Convention : Reuss Voigt Hill
#
# Bulk Modulus (GPa) = 60.89439 75.23608 68.06524
# Shear Modulus (GPa) = 21.50763 23.97716 22.74239
#
# Velocity S-wave (km/s) = 3.46720 3.66085 3.56534
# Velocity P-wave (km/s) = 7.07566 7.74090 7.41575
#
# Compressibility (1/GPa) = 0.01642187
#
# Stress axis : x y z
#
# Youngs Moduli (GPa) = 47.24761 42.45731 60.74693
#
# Poissons Ratio (x) = 0.23947 0.24143
# Poissons Ratio (y) = 0.26649 0.77540
# Poissons Ratio (z) = 0.18778 0.54194
#
# Static dielectric constant tensor:
#      x y z
#    x 3.291080 0.000000 0.000000 
#    y 0.000000 3.320860 0.000000 
#    z 0.000000 0.000000 3.592570 
# 
# 
# High freq. dielectric constant tensor:
#      x y z
#    x 1.690310 0.000000 0.000000 
#    y 0.000000 1.683670 0.000000 
#    z 0.000000 0.000000 1.706920 
# 
# From -- ./inp_files/76839.got.cif
#   From: 2010.03.12/outbox.cif.g09.slc.cpg/sg65_39_cif.got.tgz:76839.got - 2010.04.10 20:52:16.
