data_PCOD8269460
_publ_section_title
;
Structure prediction by ZEFSAII (Michael W. Deem and Ramdas Pophale) SiO2 
 PCOD8269460
Probable space group: C M M M
;
_chemical_formula_sum "Si O2"
_cell_formula_units_Z 104
_cell_length_a 30.386069
_cell_length_b 9.124520
_cell_length_c 20.339774
_cell_angle_alpha 90.000000
_cell_angle_beta 90.000000
_cell_angle_gamma 90.000000
_cell_volume 5639.371046
_symmetry_space_group_name_H-M "C M M M"
_symmetry_group_IT_number 65
_symmetry_cell_setting 'orthorhombic'
loop_
_space_group_symop_operation_xyz
x,y,z
-x,-y,z
x,-y,-z
-x,y,-z
-x,-y,-z
x,y,-z
-x,y,z
x,-y,z
1/2+x,1/2+y,z
1/2-x,1/2-y,z
1/2+x,1/2-y,-z
1/2-x,1/2+y,-z
1/2-x,1/2-y,-z
1/2+x,1/2+y,-z
1/2-x,1/2+y,z
1/2+x,1/2-y,z
loop_
_atom_site_type_symbol
_atom_site_label
_atom_site_fract_x
_atom_site_fract_y
_atom_site_fract_z
Si Si1 0.793921 0.832646 0.702312
Si Si2 0.641046 0.327312 0.814043
Si Si3 0.574657 0.826544 0.632728
Si Si4 0.000000 0.842998 0.572597
Si Si5 0.704932 0.672776 0.074557
Si Si6 0.450364 0.328342 0.233694
Si Si7 0.155998 0.167346 0.575648
O O1 0.750000 0.750000 0.722742
O O2 0.834938 0.772437 0.746618
O O3 0.802055 0.816300 0.623796
O O4 0.785847 0.000000 0.721327
O O5 0.643510 0.500000 0.816458
O O6 0.666142 0.265657 0.878300
O O7 0.589177 0.280315 0.815984
O O8 0.542017 0.758808 0.580409
O O9 0.558817 0.762630 0.701503
O O10 0.622253 0.779510 0.607885
O O11 0.571862 0.000000 0.635591
O O12 0.000000 0.899914 0.500000
O O13 0.000000 0.000000 0.613942
O O14 0.711857 0.500000 0.082616
O O15 0.750000 0.750000 0.095820
O O16 0.691948 0.714293 0.000000
O O17 0.500000 0.292906 0.206681
O O18 0.446178 0.500000 0.249942
O O19 0.167976 0.209205 0.500000
O O20 0.137963 0.000000 0.578747
#
# Coordination Sequence:
#
# PCOD8269460 Si02
#       7
#    16  16  16   8  16  16  16
#     4  10  20  34  52  74 100 131 171 217 261 312
#     4   9  17  32  53  77 105 137 176 217 257 305
#     4  12  23  34  51  76 103 127 162 221 279 317
#     4  11  23  37  53  71  95 133 174 209 260 335
#     4   9  17  30  51  80 114 147 176 211 257 308
#     4  10  19  34  57  76  97 136 181 215 254 317
#     4  10  21  38  56  70  92 133 177 213 258 322
#
# _framework density 18.441772
#
# number of rings (size 3 to 8) (size 9 to 14) (size 15 to 20)
#    0.000    1.923    2.308    2.538    0.000    3.692 
#    0.000    0.769    0.000    0.462    0.000    3.231 
#    0.000    0.000    0.000    5.231    0.000    5.538 
#
# Total GULP energy -644252.475084 kJ/mol
# GULP energy per Si atom -12389.470675 kJ/mol
# Density = 1.839980 g / cm^3
# Si number density = 18.441772 Si / 1000 Ang^3
#
#
#
# Elastic Constant Matrix: (Units=GPa)
#
#
# Indices 1 2 3 4 5 6 
#
# 1 147.1516 38.7512 64.2263 0.0000 0.0000 0.0000
# 2 38.7512 63.2901 21.0074 0.0000 0.0000 0.0000
# 3 64.2263 21.0074 103.5752 0.0000 0.0000 0.0000
# 4 0.0000 0.0000 0.0000 8.7851 0.0000 0.0000
# 5 0.0000 0.0000 0.0000 0.0000 21.0848 0.0000
# 6 0.0000 0.0000 0.0000 0.0000 0.0000 25.3910
#
#
#
# Elastic Compliance Matrix: (Units=1/GPa)
#
#
# Indices 1 2 3 4 5 6 
#
# 1 0.010404 -0.004534 -0.005532 0.000000 0.000000 0.000000
# 2 -0.004534 0.018917 -0.001025 0.000000 0.000000 0.000000
# 3 -0.005532 -0.001025 0.013293 0.000000 0.000000 0.000000
# 4 0.000000 0.000000 0.000000 0.113829 0.000000 0.000000
# 5 0.000000 0.000000 0.000000 0.000000 0.047427 0.000000
# 6 0.000000 0.000000 0.000000 0.000000 0.000000 0.039384
#
#
# Mechanical properties :
#
#
# Convention : Reuss Voigt Hill
#
# Bulk Modulus (GPa) = 48.94404 62.44297 55.69350
# Shear Modulus (GPa) = 18.36566 23.72099 21.04332
#
# Velocity S-wave (km/s) = 3.15917 3.59034 3.38163
# Velocity P-wave (km/s) = 6.31700 7.14986 6.74629
#
# Compressibility (1/GPa) = 0.02043150
#
# Stress axis : x y z
#
# Youngs Moduli (GPa) = 96.11465 52.86343 75.22705
#
# Poissons Ratio (x) = 0.23969 0.41615
# Poissons Ratio (y) = 0.43579 0.07712
# Poissons Ratio (z) = 0.53170 0.05419
#
# Static dielectric constant tensor:
#      x y z
#    x 4.075890 0.000000 0.000000 
#    y 0.000000 3.209720 0.000000 
#    z 0.000000 0.000000 3.507330 
# 
# 
# High freq. dielectric constant tensor:
#      x y z
#    x 1.716170 0.000000 0.000000 
#    y 0.000000 1.695360 0.000000 
#    z 0.000000 0.000000 1.698030 
# 
# From -- ./inp_files/60893.got.cif
#   From: 2010.03.12/outbox.cif.g09.slc.cpg/sg65_31_cif.got.tgz:60893.got - 2010.04.10 20:52:16.
