data_PCOD8269594
_publ_section_title
;
Structure prediction by ZEFSAII (Michael W. Deem and Ramdas Pophale) SiO2 
 PCOD8269594
Probable space group: C M M M
;
_chemical_formula_sum "Si O2"
_cell_formula_units_Z 88
_cell_length_a 29.022765
_cell_length_b 17.426661
_cell_length_c 9.249665
_cell_angle_alpha 90.000000
_cell_angle_beta 90.000000
_cell_angle_gamma 90.000000
_cell_volume 4678.202021
_symmetry_space_group_name_H-M "C M M M"
_symmetry_group_IT_number 65
_symmetry_cell_setting 'orthorhombic'
loop_
_space_group_symop_operation_xyz
x,y,z
-x,-y,z
x,-y,-z
-x,y,-z
-x,-y,-z
x,y,-z
-x,y,z
x,-y,z
1/2+x,1/2+y,z
1/2-x,1/2-y,z
1/2+x,1/2-y,-z
1/2-x,1/2+y,-z
1/2-x,1/2-y,-z
1/2+x,1/2+y,-z
1/2-x,1/2+y,z
1/2+x,1/2-y,z
loop_
_atom_site_type_symbol
_atom_site_label
_atom_site_fract_x
_atom_site_fract_y
_atom_site_fract_z
Si Si1 0.203652 0.408529 0.838518
Si Si2 0.696784 0.585009 0.829179
Si Si3 0.400172 0.359874 0.170122
Si Si4 0.945574 0.000000 0.333523
Si Si5 0.946681 0.298299 0.168004
Si Si6 0.884550 0.590191 0.667016
O O1 0.204546 0.500000 0.842879
O O2 0.253704 0.381147 0.775934
O O3 0.163015 0.378423 0.735835
O O4 0.194603 0.375798 0.000000
O O5 0.687432 0.500000 0.763655
O O6 0.654063 0.639383 0.786598
O O7 0.701125 0.577314 0.000000
O O8 0.426908 0.424539 0.256495
O O9 0.419909 0.277975 0.216335
O O10 0.407156 0.375767 0.000000
O O11 0.929751 0.000000 0.500000
O O12 0.000000 0.000000 0.318843
O O13 0.927955 0.369871 0.258219
O O14 0.000000 0.286746 0.205138
O O15 0.938899 0.316027 0.000000
O O16 0.883838 0.611919 0.500000
O O17 0.890234 0.500000 0.692887
#
# Coordination Sequence:
#
# PCOD8269594 Si02
#       6
#    16  16  16   8  16  16
#     4   8  14  27  51  80 108 137 171 213 260 310
#     4   8  13  25  50  82 109 137 175 218 259 303
#     4  10  19  35  58  81 107 141 184 229 268 313
#     4  11  23  35  49  75 111 149 189 229 270 317
#     4  10  22  38  56  80 107 137 177 226 280 328
#     4  10  21  37  57  80 105 137 178 219 266 330
#
# _framework density 18.810645999999998
#
# number of rings (size 3 to 8) (size 9 to 14) (size 15 to 20)
#    0.000    2.636    0.909    2.455    0.000    4.000 
#    0.000    3.636    0.000    5.455    0.000    0.000 
#    0.000    0.000    0.000    0.000    0.000    0.000 
#
# Total GULP energy -545468.671866 kJ/mol
# GULP energy per Si atom -12397.015270 kJ/mol
# Density = 1.876783 g / cm^3
# Si number density = 18.810646 Si / 1000 Ang^3
#
#
#
# Elastic Constant Matrix: (Units=GPa)
#
#
# Indices 1 2 3 4 5 6 
#
# 1 138.4084 58.5988 53.6187 0.0000 0.0000 0.0000
# 2 58.5988 62.6245 43.6642 0.0000 0.0000 0.0000
# 3 53.6187 43.6642 76.0765 0.0000 0.0000 0.0000
# 4 0.0000 0.0000 0.0000 17.1069 0.0000 0.0000
# 5 0.0000 0.0000 0.0000 0.0000 17.1246 0.0000
# 6 0.0000 0.0000 0.0000 0.0000 0.0000 26.4873
#
#
#
# Elastic Compliance Matrix: (Units=1/GPa)
#
#
# Indices 1 2 3 4 5 6 
#
# 1 0.012499 -0.009258 -0.003495 0.000000 0.000000 0.000000
# 2 -0.009258 0.033480 -0.012690 0.000000 0.000000 0.000000
# 3 -0.003495 -0.012690 0.022892 0.000000 0.000000 0.000000
# 4 0.000000 0.000000 0.000000 0.058456 0.000000 0.000000
# 5 0.000000 0.000000 0.000000 0.000000 0.058396 0.000000
# 6 0.000000 0.000000 0.000000 0.000000 0.000000 0.037754
#
#
# Mechanical properties :
#
#
# Convention : Reuss Voigt Hill
#
# Bulk Modulus (GPa) = 55.61069 65.43033 60.52051
# Shear Modulus (GPa) = 17.83434 20.22559 19.02997
#
# Velocity S-wave (km/s) = 3.08246 3.28261 3.18411
# Velocity P-wave (km/s) = 6.50356 7.01617 6.76472
#
# Compressibility (1/GPa) = 0.01798215
#
# Stress axis : x y z
#
# Youngs Moduli (GPa) = 80.00767 29.86898 43.68361
#
# Poissons Ratio (x) = 0.27653 0.15269
# Poissons Ratio (y) = 0.74073 0.55436
# Poissons Ratio (z) = 0.27966 0.37905
#
# Static dielectric constant tensor:
#      x y z
#    x 3.861160 0.000000 0.000000 
#    y 0.000000 3.492220 0.000000 
#    z 0.000000 0.000000 3.273220 
# 
# 
# High freq. dielectric constant tensor:
#      x y z
#    x 1.751370 0.000000 0.000000 
#    y 0.000000 1.705380 0.000000 
#    z 0.000000 0.000000 1.702870 
# 
# From -- ./inp_files/18269.got.cif
#   From: 2010.03.12/outbox.cif.g09.slc.cpg/sg65_10_cif.got.tgz:18269.got - 2010.04.10 20:52:16.
