data_PCOD8269532
_publ_section_title
;
Structure prediction by ZEFSAII (Michael W. Deem and Ramdas Pophale) SiO2 
 PCOD8269532
Probable space group: C M M M
;
_chemical_formula_sum "Si O2"
_cell_formula_units_Z 72
_cell_length_a 23.303330
_cell_length_b 8.997890
_cell_length_c 17.435392
_cell_angle_alpha 90.000000
_cell_angle_beta 90.000000
_cell_angle_gamma 90.000000
_cell_volume 3655.866942
_symmetry_space_group_name_H-M "C M M M"
_symmetry_group_IT_number 65
_symmetry_cell_setting 'orthorhombic'
loop_
_space_group_symop_operation_xyz
x,y,z
-x,-y,z
x,-y,-z
-x,y,-z
-x,-y,-z
x,y,-z
-x,y,z
x,-y,z
1/2+x,1/2+y,z
1/2-x,1/2-y,z
1/2+x,1/2-y,-z
1/2-x,1/2+y,-z
1/2-x,1/2-y,-z
1/2+x,1/2+y,-z
1/2-x,1/2+y,z
1/2+x,1/2-y,z
loop_
_atom_site_type_symbol
_atom_site_label
_atom_site_fract_x
_atom_site_fract_y
_atom_site_fract_z
Si Si1 0.191202 0.172684 0.213622
Si Si2 0.376206 0.330690 0.366385
Si Si3 0.811457 0.674633 0.500000
Si Si4 0.881262 0.325468 0.088539
Si Si5 0.000000 0.324539 0.843406
Si Si6 0.500000 0.330550 0.683866
O O1 0.250000 0.250000 0.238606
O O2 0.145350 0.201527 0.280607
O O3 0.168106 0.242258 0.135170
O O4 0.202824 0.000000 0.200176
O O5 0.361997 0.500000 0.390709
O O6 0.346261 0.219550 0.424635
O O7 0.444350 0.300741 0.368561
O O8 0.802239 0.500000 0.500000
O O9 0.750000 0.750000 0.500000
O O10 0.876375 0.500000 0.105198
O O11 0.943561 0.263243 0.113687
O O12 0.871485 0.288050 0.000000
O O13 0.000000 0.277915 0.755534
O O14 0.000000 0.500000 0.848177
O O15 0.500000 0.500000 0.714667
#
# Coordination Sequence:
#
# PCOD8269532 Si02
#       6
#    16  16   8  16   8   8
#     4  11  23  39  61  86 116 156 203 251 301 358
#     4  10  22  41  65  92 124 159 198 242 296 356
#     4  12  26  43  66  93 125 160 202 248 293 348
#     4  10  21  37  58  86 120 158 200 247 301 358
#     4  10  19  34  59  89 121 156 196 245 298 355
#     4  10  20  38  64  93 124 158 195 240 295 356
#
# _framework density 19.694371
#
# number of rings (size 3 to 8) (size 9 to 14) (size 15 to 20)
#    0.000    1.556    2.222    2.667    0.000    7.111 
#    0.000    2.222    0.000    2.000    0.000    0.000 
#    0.000    0.000    0.000    0.000    0.000    0.000 
#
# Total GULP energy -446601.714593 kJ/mol
# GULP energy per Si atom -12405.603183 kJ/mol
# Density = 1.964955 g / cm^3
# Si number density = 19.694371 Si / 1000 Ang^3
#
#
#
# Elastic Constant Matrix: (Units=GPa)
#
#
# Indices 1 2 3 4 5 6 
#
# 1 138.0683 49.2008 40.9228 0.0000 0.0000 0.0000
# 2 49.2008 83.4733 46.8055 0.0000 0.0000 0.0000
# 3 40.9228 46.8055 97.9180 0.0000 0.0000 0.0000
# 4 0.0000 0.0000 0.0000 34.9158 0.0000 0.0000
# 5 0.0000 0.0000 0.0000 0.0000 26.1084 0.0000
# 6 0.0000 0.0000 0.0000 0.0000 0.0000 28.8178
#
#
#
# Elastic Compliance Matrix: (Units=1/GPa)
#
#
# Indices 1 2 3 4 5 6 
#
# 1 0.009382 -0.004551 -0.001746 0.000000 0.000000 0.000000
# 2 -0.004551 0.018574 -0.006977 0.000000 0.000000 0.000000
# 3 -0.001746 -0.006977 0.014277 0.000000 0.000000 0.000000
# 4 0.000000 0.000000 0.000000 0.028640 0.000000 0.000000
# 5 0.000000 0.000000 0.000000 0.000000 0.038302 0.000000
# 6 0.000000 0.000000 0.000000 0.000000 0.000000 0.034701
#
#
# Mechanical properties :
#
#
# Convention : Reuss Voigt Hill
#
# Bulk Modulus (GPa) = 63.74804 65.92421 64.83613
# Shear Modulus (GPa) = 28.46539 30.13709 29.30124
#
# Velocity S-wave (km/s) = 3.80591 3.91607 3.86138
# Velocity P-wave (km/s) = 7.19390 7.34805 7.27138
#
# Compressibility (1/GPa) = 0.01568676
#
# Stress axis : x y z
#
# Youngs Moduli (GPa) = 106.58743 53.83754 70.04265
#
# Poissons Ratio (x) = 0.24502 0.12226
# Poissons Ratio (y) = 0.48510 0.48866
# Poissons Ratio (z) = 0.18605 0.37560
#
# Static dielectric constant tensor:
#      x y z
#    x 3.819410 0.000000 0.000000 
#    y 0.000000 3.525320 0.000000 
#    z 0.000000 0.000000 3.447400 
# 
# 
# High freq. dielectric constant tensor:
#      x y z
#    x 1.784060 0.000000 0.000000 
#    y 0.000000 1.761040 0.000000 
#    z 0.000000 0.000000 1.765640 
# 
# From -- ./inp_files/46596.got.cif
#   From: 2010.03.12/outbox.cif.g09.slc.cpg/sg65_24_cif.got.tgz:46596.got - 2010.04.10 20:52:16.
