data_PCOD8269737
_publ_section_title
;
Structure prediction by ZEFSAII (Michael W. Deem and Ramdas Pophale) SiO2 
 PCOD8269737
Probable space group: C M M M
;
_chemical_formula_sum "Si O2"
_cell_formula_units_Z 88
_cell_length_a 20.309579
_cell_length_b 16.757000
_cell_length_c 13.716073
_cell_angle_alpha 90.000000
_cell_angle_beta 90.000000
_cell_angle_gamma 90.000000
_cell_volume 4667.958415
_symmetry_space_group_name_H-M "C M M M"
_symmetry_group_IT_number 65
_symmetry_cell_setting 'orthorhombic'
loop_
_space_group_symop_operation_xyz
x,y,z
-x,-y,z
x,-y,-z
-x,y,-z
-x,-y,-z
x,y,-z
-x,y,z
x,-y,z
1/2+x,1/2+y,z
1/2-x,1/2-y,z
1/2+x,1/2-y,-z
1/2-x,1/2+y,-z
1/2-x,1/2-y,-z
1/2+x,1/2+y,-z
1/2-x,1/2+y,z
1/2+x,1/2-y,z
loop_
_atom_site_type_symbol
_atom_site_label
_atom_site_fract_x
_atom_site_fract_y
_atom_site_fract_z
Si Si1 0.113532 0.141997 0.751310
Si Si2 0.781654 0.084456 0.500000
Si Si3 0.119894 0.312373 0.300560
Si Si4 0.577551 0.500000 0.109966
Si Si5 0.000000 0.405062 0.614486
Si Si6 0.500000 0.593630 0.391885
Si Si7 0.741291 0.910196 0.707887
Si Si8 0.671216 0.256726 0.500000
O O1 0.101274 0.237247 0.770663
O O2 0.101043 0.082836 0.841604
O O3 0.066013 0.119491 0.663010
O O4 0.190126 0.133778 0.725916
O O5 0.731660 0.089211 0.408869
O O6 0.840858 0.147833 0.500000
O O7 0.820108 0.000000 0.500000
O O8 0.061036 0.372471 0.323023
O O9 0.179742 0.360779 0.248897
O O10 0.139953 0.277770 0.404207
O O11 0.500000 0.500000 0.114088
O O12 0.604754 0.500000 0.000000
O O13 0.000000 0.500000 0.619823
O O14 0.000000 0.377717 0.500000
O O15 0.500000 0.500000 0.398490
O O16 0.500000 0.632692 0.500000
O O17 0.742059 0.000000 0.751479
O O18 0.750000 0.250000 0.500000
#
# Coordination Sequence:
#
# PCOD8269737 Si02
#       8
#    16   8  16   8   8   8  16   8
#     4  12  21  38  59  89 117 153 203 240 300 364
#     4  10  20  30  44  71 111 162 202 234 282 356
#     4  12  23  35  55  78 118 157 209 263 302 335
#     4  11  24  46  68  90 122 157 190 237 303 384
#     4  11  25  41  53  72 115 178 234 258 281 331
#     4  11  23  35  49  79 125 157 185 231 281 344
#     4  11  21  34  53  79 115 157 202 247 295 350
#     4  12  18  33  45  74 110 154 204 247 297 332
#
# _framework density 18.851925000000001
#
# number of rings (size 3 to 8) (size 9 to 14) (size 15 to 20)
#    0.000    0.636    7.273    1.636    2.545    0.727 
#    0.000    0.000    0.000    2.182    0.000    0.000 
#    0.000    0.727    0.000    0.000    0.000    0.000 
#
# Total GULP energy -545236.854386 kJ/mol
# GULP energy per Si atom -12391.746691 kJ/mol
# Density = 1.880902 g / cm^3
# Si number density = 18.851925 Si / 1000 Ang^3
#
#
#
# Elastic Constant Matrix: (Units=GPa)
#
#
# Indices 1 2 3 4 5 6 
#
# 1 122.3116 46.5647 28.4491 0.0000 0.0000 0.0000
# 2 46.5647 136.7669 27.1598 0.0000 0.0000 0.0000
# 3 28.4491 27.1598 62.3856 0.0000 0.0000 0.0000
# 4 0.0000 0.0000 0.0000 12.7056 0.0000 0.0000
# 5 0.0000 0.0000 0.0000 0.0000 9.1184 0.0000
# 6 0.0000 0.0000 0.0000 0.0000 0.0000 34.8498
#
#
#
# Elastic Compliance Matrix: (Units=1/GPa)
#
#
# Indices 1 2 3 4 5 6 
#
# 1 0.010001 -0.002736 -0.003370 0.000000 0.000000 0.000000
# 2 -0.002736 0.008752 -0.002563 0.000000 0.000000 0.000000
# 3 -0.003370 -0.002563 0.018682 0.000000 0.000000 0.000000
# 4 0.000000 0.000000 0.000000 0.078705 0.000000 0.000000
# 5 0.000000 0.000000 0.000000 0.000000 0.109668 0.000000
# 6 0.000000 0.000000 0.000000 0.000000 0.000000 0.028695
#
#
# Mechanical properties :
#
#
# Convention : Reuss Voigt Hill
#
# Bulk Modulus (GPa) = 49.75491 58.42347 54.08919
# Shear Modulus (GPa) = 17.95082 25.95414 21.95248
#
# Velocity S-wave (km/s) = 3.08912 3.71447 3.41613
# Velocity P-wave (km/s) = 6.25886 7.03238 6.65686
#
# Compressibility (1/GPa) = 0.02009852
#
# Stress axis : x y z
#
# Youngs Moduli (GPa) = 99.98812 114.25828 53.52849
#
# Poissons Ratio (x) = 0.31260 0.18037
# Poissons Ratio (y) = 0.27356 0.13717
# Poissons Ratio (z) = 0.33693 0.29280
#
# Static dielectric constant tensor:
#      x y z
#    x 3.641970 0.000000 0.000000 
#    y 0.000000 4.307120 0.000000 
#    z 0.000000 0.000000 3.149600 
# 
# 
# High freq. dielectric constant tensor:
#      x y z
#    x 1.740850 0.000000 0.000000 
#    y 0.000000 1.760150 0.000000 
#    z 0.000000 0.000000 1.651010 
# 
# From -- ./inp_files/42612.got.cif
#   From: 2010.03.12/outbox.cif.g09.slc.cpg/sg65_22_cif.got.tgz:42612.got - 2010.04.10 20:52:16.
