data_PCOD8269673
_publ_section_title
;
Structure prediction by ZEFSAII (Michael W. Deem and Ramdas Pophale) SiO2 
 PCOD8269673
Probable space group: C M M M
;
_chemical_formula_sum "Si O2"
_cell_formula_units_Z 104
_cell_length_a 26.850355
_cell_length_b 21.616259
_cell_length_c 9.338551
_cell_angle_alpha 90.000000
_cell_angle_beta 90.000000
_cell_angle_gamma 90.000000
_cell_volume 5420.134483
_symmetry_space_group_name_H-M "C M M M"
_symmetry_group_IT_number 65
_symmetry_cell_setting 'orthorhombic'
loop_
_space_group_symop_operation_xyz
x,y,z
-x,-y,z
x,-y,-z
-x,y,-z
-x,-y,-z
x,y,-z
-x,y,z
x,-y,z
1/2+x,1/2+y,z
1/2-x,1/2-y,z
1/2+x,1/2-y,-z
1/2-x,1/2+y,-z
1/2-x,1/2-y,-z
1/2+x,1/2+y,-z
1/2-x,1/2+y,z
1/2+x,1/2-y,z
loop_
_atom_site_type_symbol
_atom_site_label
_atom_site_fract_x
_atom_site_fract_y
_atom_site_fract_z
Si Si1 0.615350 0.316941 0.830448
Si Si2 0.941702 0.500000 0.157991
Si Si3 0.055052 0.931944 0.169778
Si Si4 0.612265 0.097796 0.336842
Si Si5 0.216911 0.189810 0.668626
Si Si6 0.443450 0.777390 0.339042
Si Si7 0.276865 0.930159 0.669678
O O1 0.597906 0.385084 0.780449
O O2 0.665910 0.299801 0.751533
O O3 0.570919 0.272508 0.779768
O O4 0.622609 0.310932 0.000000
O O5 0.925915 0.439192 0.240997
O O6 0.000000 0.500000 0.145909
O O7 0.917563 0.500000 0.000000
O O8 0.000000 0.913680 0.229203
O O9 0.069904 0.000000 0.226945
O O10 0.052159 0.931857 0.000000
O O11 0.608521 0.074215 0.500000
O O12 0.596940 0.168620 0.324077
O O13 0.667786 0.086697 0.276914
O O14 0.206328 0.186165 0.500000
O O15 0.250000 0.250000 0.704124
O O16 0.241026 0.125056 0.725637
O O17 0.439694 0.749717 0.500000
O O18 0.500000 0.800378 0.309648
O O19 0.275705 0.929135 0.500000
O O20 0.261983 0.000000 0.724472
#
# Coordination Sequence:
#
# PCOD8269673 Si02
#       7
#    16   8  16  16  16  16  16
#     4  11  22  35  55  83 113 144 181 229 284 337
#     4  11  23  35  49  77 117 151 179 221 278 329
#     4   8  15  30  52  77 107 145 184 216 255 320
#     4  10  19  36  60  81 104 141 191 234 268 319
#     4  10  21  38  58  78 105 143 185 230 283 338
#     4  10  21  36  56  83 113 148 190 231 273 327
#     4   9  17  32  57  84 105 134 182 236 280 322
#
# _framework density 19.187716999999999
#
# number of rings (size 3 to 8) (size 9 to 14) (size 15 to 20)
#    0.000    2.231    0.769    3.000    0.000    6.154 
#    0.000    0.769    0.000    1.385    0.000    5.385 
#    0.000    0.000    0.000    0.000    0.000    0.000 
#
# Total GULP energy -644566.213900 kJ/mol
# GULP energy per Si atom -12395.504113 kJ/mol
# Density = 1.914404 g / cm^3
# Si number density = 19.187717 Si / 1000 Ang^3
#
#
#
# Elastic Constant Matrix: (Units=GPa)
#
#
# Indices 1 2 3 4 5 6 
#
# 1 83.6024 44.3288 31.0404 0.0000 0.0000 0.0000
# 2 44.3288 117.9946 34.1127 0.0000 0.0000 0.0000
# 3 31.0404 34.1127 56.6789 0.0000 0.0000 0.0000
# 4 0.0000 0.0000 0.0000 15.9372 0.0000 0.0000
# 5 0.0000 0.0000 0.0000 0.0000 22.4085 0.0000
# 6 0.0000 0.0000 0.0000 0.0000 0.0000 37.7034
#
#
#
# Elastic Compliance Matrix: (Units=1/GPa)
#
#
# Indices 1 2 3 4 5 6 
#
# 1 0.016707 -0.004396 -0.006504 0.000000 0.000000 0.000000
# 2 -0.004396 0.011417 -0.004464 0.000000 0.000000 0.000000
# 3 -0.006504 -0.004464 0.023892 0.000000 0.000000 0.000000
# 4 0.000000 0.000000 0.000000 0.062746 0.000000 0.000000
# 5 0.000000 0.000000 0.000000 0.000000 0.044626 0.000000
# 6 0.000000 0.000000 0.000000 0.000000 0.000000 0.026523
#
#
# Mechanical properties :
#
#
# Convention : Reuss Voigt Hill
#
# Bulk Modulus (GPa) = 46.97465 53.02662 50.00063
# Shear Modulus (GPa) = 22.34784 25.12940 23.73862
#
# Velocity S-wave (km/s) = 3.41647 3.62285 3.52117
# Velocity P-wave (km/s) = 6.33228 6.72278 6.53045
#
# Compressibility (1/GPa) = 0.02128808
#
# Stress axis : x y z
#
# Youngs Moduli (GPa) = 59.85416 87.58772 41.85568
#
# Poissons Ratio (x) = 0.38507 0.27222
# Poissons Ratio (y) = 0.26314 0.18683
# Poissons Ratio (z) = 0.38928 0.39097
#
# Static dielectric constant tensor:
#      x y z
#    x 3.531240 0.000000 0.000000 
#    y 0.000000 3.895480 0.000000 
#    z 0.000000 0.000000 3.229020 
# 
# 
# High freq. dielectric constant tensor:
#      x y z
#    x 1.749500 0.000000 0.000000 
#    y 0.000000 1.758320 0.000000 
#    z 0.000000 0.000000 1.710100 
# 
# From -- ./inp_files/16519.got.cif
#   From: 2010.03.12/outbox.cif.g09.slc.cpg/sg65_9_cif.got.tgz:16519.got - 2010.04.10 20:52:16.
