data_PCOD8269823
_publ_section_title
;
Structure prediction by ZEFSAII (Michael W. Deem and Ramdas Pophale) SiO2 
 PCOD8269823
Probable space group: C M M M
;
_chemical_formula_sum "Si O2"
_cell_formula_units_Z 96
_cell_length_a 27.164705
_cell_length_b 9.211050
_cell_length_c 23.733867
_cell_angle_alpha 90.000000
_cell_angle_beta 90.000000
_cell_angle_gamma 90.000000
_cell_volume 5938.580354
_symmetry_space_group_name_H-M "C M M M"
_symmetry_group_IT_number 65
_symmetry_cell_setting 'orthorhombic'
loop_
_space_group_symop_operation_xyz
x,y,z
-x,-y,z
x,-y,-z
-x,y,-z
-x,-y,-z
x,y,-z
-x,y,z
x,-y,z
1/2+x,1/2+y,z
1/2-x,1/2-y,z
1/2+x,1/2-y,-z
1/2-x,1/2+y,-z
1/2-x,1/2-y,-z
1/2+x,1/2+y,-z
1/2-x,1/2+y,z
1/2+x,1/2-y,z
loop_
_atom_site_type_symbol
_atom_site_label
_atom_site_fract_x
_atom_site_fract_y
_atom_site_fract_z
Si Si1 0.298897 0.329919 0.772519
Si Si2 0.700436 0.168737 0.437520
Si Si3 0.054835 0.333198 0.262176
Si Si4 0.849953 0.331791 0.674136
Si Si5 0.556381 0.168561 0.935341
Si Si6 0.602748 0.669097 0.836841
O O1 0.288757 0.500000 0.765072
O O2 0.250000 0.250000 0.794548
O O3 0.314218 0.265410 0.712148
O O4 0.341246 0.299119 0.818396
O O5 0.681879 0.215888 0.500000
O O6 0.750000 0.250000 0.420571
O O7 0.658700 0.207045 0.391490
O O8 0.713162 0.000000 0.436460
O O9 0.060175 0.500000 0.243277
O O10 0.093089 0.296005 0.312152
O O11 0.064929 0.237053 0.207568
O O12 0.000000 0.299935 0.284855
O O13 0.837688 0.500000 0.686599
O O14 0.500000 0.211061 0.921766
O O15 0.593738 0.261558 0.897790
O O16 0.564909 0.000000 0.922455
O O17 0.568668 0.203995 0.000000
O O18 0.591634 0.500000 0.839967
#
# Coordination Sequence:
#
# PCOD8269823 Si02
#       6
#    16  16  16  16  16  16
#     4  10  20  32  46  66  91 117 146 181 220 262
#     4   9  17  28  42  61  85 112 142 178 220 264
#     4   9  17  29  45  64  87 117 150 180 213 259
#     4   9  17  29  45  64  87 116 147 180 219 261
#     4   9  18  32  49  69  93 121 151 180 212 255
#     4  10  20  31  45  68  94 117 144 181 222 260
#
# _framework density 16.165479999999999
#
# number of rings (size 3 to 8) (size 9 to 14) (size 15 to 20)
#    0.000    2.667    0.000    2.500    0.000    7.000 
#    0.000    0.833    0.000    1.000    0.000    3.500 
#    0.000    0.000    0.000   12.500    0.000   13.000 
#
# Total GULP energy -595167.326638 kJ/mol
# GULP energy per Si atom -12399.319305 kJ/mol
# Density = 1.612869 g / cm^3
# Si number density = 16.165480 Si / 1000 Ang^3
#
#
#
# Elastic Constant Matrix: (Units=GPa)
#
#
# Indices 1 2 3 4 5 6 
#
# 1 106.6117 50.0803 64.2541 0.0000 0.0000 0.0000
# 2 50.0803 71.1788 51.9642 0.0000 0.0000 0.0000
# 3 64.2541 51.9642 118.5517 0.0000 0.0000 0.0000
# 4 0.0000 0.0000 0.0000 20.8035 0.0000 0.0000
# 5 0.0000 0.0000 0.0000 0.0000 23.2164 0.0000
# 6 0.0000 0.0000 0.0000 0.0000 0.0000 24.2392
#
#
#
# Elastic Compliance Matrix: (Units=1/GPa)
#
#
# Indices 1 2 3 4 5 6 
#
# 1 0.016165 -0.007319 -0.005553 0.000000 0.000000 0.000000
# 2 -0.007319 0.023975 -0.006542 0.000000 0.000000 0.000000
# 3 -0.005553 -0.006542 0.014312 0.000000 0.000000 0.000000
# 4 0.000000 0.000000 0.000000 0.048069 0.000000 0.000000
# 5 0.000000 0.000000 0.000000 0.000000 0.043073 0.000000
# 6 0.000000 0.000000 0.000000 0.000000 0.000000 0.041255
#
#
# Mechanical properties :
#
#
# Convention : Reuss Voigt Hill
#
# Bulk Modulus (GPa) = 64.00535 69.88217 66.94376
# Shear Modulus (GPa) = 21.65583 22.32140 21.98862
#
# Velocity S-wave (km/s) = 3.66407 3.71995 3.69212
# Velocity P-wave (km/s) = 7.58817 7.85963 7.72510
#
# Compressibility (1/GPa) = 0.01562369
#
# Stress axis : x y z
#
# Youngs Moduli (GPa) = 61.86289 41.71068 69.87066
#
# Poissons Ratio (x) = 0.30530 0.38799
# Poissons Ratio (y) = 0.45280 0.45707
# Poissons Ratio (z) = 0.34352 0.27286
#
# Static dielectric constant tensor:
#      x y z
#    x 3.072080 0.000000 0.000000 
#    y 0.000000 3.104090 0.000000 
#    z 0.000000 0.000000 3.067250 
# 
# 
# High freq. dielectric constant tensor:
#      x y z
#    x 1.610300 0.000000 0.000000 
#    y 0.000000 1.626140 0.000000 
#    z 0.000000 0.000000 1.611280 
# 
# From -- ./inp_files/68006.got.cif
#   From: 2010.03.12/outbox.cif.g09.slc.cpg/sg65_35_cif.got.tgz:68006.got - 2010.04.10 20:52:16.
