data_PCOD8269614
_publ_section_title
;
Structure prediction by ZEFSAII (Michael W. Deem and Ramdas Pophale) SiO2 
 PCOD8269614
Probable space group: C M M M
;
_chemical_formula_sum "Si O2"
_cell_formula_units_Z 72
_cell_length_a 17.683827
_cell_length_b 23.927200
_cell_length_c 8.856671
_cell_angle_alpha 90.000000
_cell_angle_beta 90.000000
_cell_angle_gamma 90.000000
_cell_volume 3747.474182
_symmetry_space_group_name_H-M "C M M M"
_symmetry_group_IT_number 65
_symmetry_cell_setting 'orthorhombic'
loop_
_space_group_symop_operation_xyz
x,y,z
-x,-y,z
x,-y,-z
-x,y,-z
-x,-y,-z
x,y,-z
-x,y,z
x,-y,z
1/2+x,1/2+y,z
1/2-x,1/2-y,z
1/2+x,1/2-y,-z
1/2-x,1/2+y,-z
1/2-x,1/2-y,-z
1/2+x,1/2+y,-z
1/2-x,1/2+y,z
1/2+x,1/2-y,z
loop_
_atom_site_type_symbol
_atom_site_label
_atom_site_fract_x
_atom_site_fract_y
_atom_site_fract_z
Si Si1 0.297871 0.064264 0.179274
Si Si2 0.000000 0.937505 0.180200
Si Si3 0.087040 0.646053 0.322553
Si Si4 0.646956 0.624367 0.820198
Si Si5 0.160551 0.751280 0.171666
O O1 0.371909 0.093941 0.244364
O O2 0.223376 0.095826 0.242907
O O3 0.295993 0.000000 0.233029
O O4 0.300969 0.068362 0.000000
O O5 0.925121 0.908289 0.244719
O O6 0.000000 0.000000 0.241874
O O7 0.000000 0.935580 0.000000
O O8 0.095473 0.639174 0.500000
O O9 0.123749 0.704682 0.275912
O O10 0.000000 0.645100 0.271156
O O11 0.636645 0.688048 0.766078
O O12 0.650283 0.622128 0.000000
O O13 0.250000 0.750000 0.179364
O O14 0.132819 0.741389 0.000000
#
# Coordination Sequence:
#
# PCOD8269614 Si02
#       5
#    16   8  16  16  16
#     4  10  20  37  61  85 111 146 190 239 288 340
#     4   9  16  26  44  76 117 151 176 211 268 333
#     4  11  25  41  56  80 116 154 191 235 289 344
#     4   9  17  30  50  82 116 145 178 223 278 330
#     4  10  19  35  59  84 111 142 183 234 284 333
#
# _framework density 19.212941000000001
#
# number of rings (size 3 to 8) (size 9 to 14) (size 15 to 20)
#    0.000    2.111    2.222    1.333    1.556    5.778 
#    0.000    2.222    0.000    0.000    0.000    0.000 
#    0.000    3.556    0.000    0.000    0.000    0.000 
#
# Total GULP energy -446420.195440 kJ/mol
# GULP energy per Si atom -12400.560984 kJ/mol
# Density = 1.916921 g / cm^3
# Si number density = 19.212941 Si / 1000 Ang^3
#
#
#
# Elastic Constant Matrix: (Units=GPa)
#
#
# Indices 1 2 3 4 5 6 
#
# 1 113.2372 62.0895 20.4765 0.0000 0.0000 0.0000
# 2 62.0895 152.6798 24.6819 0.0000 0.0000 0.0000
# 3 20.4765 24.6819 20.9706 0.0000 0.0000 0.0000
# 4 0.0000 0.0000 0.0000 9.5957 0.0000 0.0000
# 5 0.0000 0.0000 0.0000 0.0000 13.5714 0.0000
# 6 0.0000 0.0000 0.0000 0.0000 0.0000 39.4597
#
#
#
# Elastic Compliance Matrix: (Units=1/GPa)
#
#
# Indices 1 2 3 4 5 6 
#
# 1 0.012259 -0.003767 -0.007537 0.000000 0.000000 0.000000
# 2 -0.003767 0.009246 -0.007204 0.000000 0.000000 0.000000
# 3 -0.007537 -0.007204 0.063524 0.000000 0.000000 0.000000
# 4 0.000000 0.000000 0.000000 0.104213 0.000000 0.000000
# 5 0.000000 0.000000 0.000000 0.000000 0.073684 0.000000
# 6 0.000000 0.000000 0.000000 0.000000 0.000000 0.025342
#
#
# Mechanical properties :
#
#
# Convention : Reuss Voigt Hill
#
# Bulk Modulus (GPa) = 20.82744 55.70926 38.26835
# Shear Modulus (GPa) = 14.65029 24.50135 19.57582
#
# Velocity S-wave (km/s) = 2.76438 3.57494 3.19546
# Velocity P-wave (km/s) = 4.58834 6.78962 5.79447
#
# Compressibility (1/GPa) = 0.04801358
#
# Stress axis : x y z
#
# Youngs Moduli (GPa) = 81.56987 108.15221 15.74204
#
# Poissons Ratio (x) = 0.40742 0.11864
# Poissons Ratio (y) = 0.30728 0.11341
# Poissons Ratio (z) = 0.61477 0.77916
#
# Static dielectric constant tensor:
#      x y z
#    x 3.688460 0.000000 0.000000 
#    y 0.000000 4.020190 0.000000 
#    z 0.000000 0.000000 3.061610 
# 
# 
# High freq. dielectric constant tensor:
#      x y z
#    x 1.758190 0.000000 0.000000 
#    y 0.000000 1.766390 0.000000 
#    z 0.000000 0.000000 1.698280 
# 
# From -- ./inp_files/9242.got.cif
#   From: 2010.03.12/outbox.cif.g09.slc.cpg/sg65_5_cif.got.tgz:9242.got - 2010.04.10 20:52:16.
