data_PCOD8269488
_publ_section_title
;
Structure prediction by ZEFSAII (Michael W. Deem and Ramdas Pophale) SiO2 
 PCOD8269488
Probable space group: C M M M
;
_chemical_formula_sum "Si O2"
_cell_formula_units_Z 72
_cell_length_a 8.830291
_cell_length_b 18.191431
_cell_length_c 23.054360
_cell_angle_alpha 90.000000
_cell_angle_beta 90.000000
_cell_angle_gamma 90.000000
_cell_volume 3703.351630
_symmetry_space_group_name_H-M "C M M M"
_symmetry_group_IT_number 65
_symmetry_cell_setting 'orthorhombic'
loop_
_space_group_symop_operation_xyz
x,y,z
-x,-y,z
x,-y,-z
-x,y,-z
-x,-y,-z
x,y,-z
-x,y,z
x,-y,z
1/2+x,1/2+y,z
1/2-x,1/2-y,z
1/2+x,1/2-y,-z
1/2-x,1/2+y,-z
1/2-x,1/2-y,-z
1/2+x,1/2+y,-z
1/2-x,1/2+y,z
1/2+x,1/2-y,z
loop_
_atom_site_type_symbol
_atom_site_label
_atom_site_fract_x
_atom_site_fract_y
_atom_site_fract_z
Si Si1 0.325790 0.672774 0.500000
Si Si2 0.678880 0.669350 0.374260
Si Si3 0.178197 0.829032 0.166265
Si Si4 0.826866 0.586814 0.729832
Si Si5 0.674569 0.084159 0.067006
O O1 0.500000 0.691135 0.500000
O O2 0.250000 0.750000 0.500000
O O3 0.284986 0.633871 0.561454
O O4 0.500000 0.674983 0.362614
O O5 0.750000 0.750000 0.367293
O O6 0.753569 0.614388 0.329374
O O7 0.250000 0.750000 0.176030
O O8 0.235844 0.883321 0.215588
O O9 0.221706 0.861414 0.103740
O O10 0.000000 0.820993 0.170475
O O11 0.814936 0.500000 0.731099
O O12 0.000000 0.613639 0.733526
O O13 0.500000 0.095976 0.084593
O O14 0.721609 0.000000 0.079155
O O15 0.700093 0.103859 0.000000
#
# Coordination Sequence:
#
# PCOD8269488 Si02
#       5
#     8  16  16  16  16
#     4   8  16  30  51  80 111 145 181 223 273 324
#     4  10  19  34  57  84 114 146 185 229 275 329
#     4  12  25  40  60  85 114 148 188 234 281 330
#     4  11  24  41  59  80 110 147 186 230 282 337
#     4   9  19  38  63  89 119 154 188 225 274 330
#
# _framework density 19.441848
#
# number of rings (size 3 to 8) (size 9 to 14) (size 15 to 20)
#    0.000    1.778    0.000    5.333    0.000    6.667 
#    0.000    1.667    0.000    3.333    0.000    0.000 
#    0.000    0.000    0.000    0.000    0.000    0.000 
#
# Total GULP energy -446316.681499 kJ/mol
# GULP energy per Si atom -12397.685597 kJ/mol
# Density = 1.939760 g / cm^3
# Si number density = 19.441848 Si / 1000 Ang^3
#
#
#
# Elastic Constant Matrix: (Units=GPa)
#
#
# Indices 1 2 3 4 5 6 
#
# 1 134.9992 46.5376 59.9807 0.0000 0.0000 0.0000
# 2 46.5376 67.7218 41.7348 0.0000 0.0000 0.0000
# 3 59.9807 41.7348 126.7541 0.0000 0.0000 0.0000
# 4 0.0000 0.0000 0.0000 21.8132 0.0000 0.0000
# 5 0.0000 0.0000 0.0000 0.0000 38.7308 0.0000
# 6 0.0000 0.0000 0.0000 0.0000 0.0000 30.2068
#
#
#
# Elastic Compliance Matrix: (Units=1/GPa)
#
#
# Indices 1 2 3 4 5 6 
#
# 1 0.010716 -0.005318 -0.003320 0.000000 0.000000 0.000000
# 2 -0.005318 0.021164 -0.004452 0.000000 0.000000 0.000000
# 3 -0.003320 -0.004452 0.010926 0.000000 0.000000 0.000000
# 4 0.000000 0.000000 0.000000 0.045844 0.000000 0.000000
# 5 0.000000 0.000000 0.000000 0.000000 0.025819 0.000000
# 6 0.000000 0.000000 0.000000 0.000000 0.000000 0.033105
#
#
# Mechanical properties :
#
#
# Convention : Reuss Voigt Hill
#
# Bulk Modulus (GPa) = 60.14416 69.55347 64.84882
# Shear Modulus (GPa) = 27.88689 30.23163 29.05926
#
# Velocity S-wave (km/s) = 3.79142 3.94760 3.87030
# Velocity P-wave (km/s) = 7.08301 7.52535 7.30753
#
# Compressibility (1/GPa) = 0.01662672
#
# Stress axis : x y z
#
# Youngs Moduli (GPa) = 93.32196 47.24941 91.52385
#
# Poissons Ratio (x) = 0.25126 0.30384
# Poissons Ratio (y) = 0.49626 0.40748
# Poissons Ratio (z) = 0.30981 0.21036
#
# Static dielectric constant tensor:
#      x y z
#    x 3.695380 0.000000 0.000000 
#    y 0.000000 3.343420 0.000000 
#    z 0.000000 0.000000 4.262310 
# 
# 
# High freq. dielectric constant tensor:
#      x y z
#    x 1.766410 0.000000 0.000000 
#    y 0.000000 1.739270 0.000000 
#    z 0.000000 0.000000 1.781610 
# 
# From -- ./inp_files/72554.got.cif
#   From: 2010.03.12/outbox.cif.g09.slc.cpg/sg65_37_cif.got.tgz:72554.got - 2010.04.10 20:52:16.
