data_PCOD8269050
_publ_section_title
;
Structure prediction by ZEFSAII (Michael W. Deem and Ramdas Pophale) SiO2 
 PCOD8269050
Probable space group: C M M M
;
_chemical_formula_sum "Si O2"
_cell_formula_units_Z 88
_cell_length_a 18.336608
_cell_length_b 9.243346
_cell_length_c 28.332492
_cell_angle_alpha 90.000000
_cell_angle_beta 90.000000
_cell_angle_gamma 90.000000
_cell_volume 4802.119747
_symmetry_space_group_name_H-M "C M M M"
_symmetry_group_IT_number 65
_symmetry_cell_setting 'orthorhombic'
loop_
_space_group_symop_operation_xyz
x,y,z
-x,-y,z
x,-y,-z
-x,y,-z
-x,-y,-z
x,y,-z
-x,y,z
x,-y,z
1/2+x,1/2+y,z
1/2-x,1/2-y,z
1/2+x,1/2-y,-z
1/2-x,1/2+y,-z
1/2-x,1/2-y,-z
1/2+x,1/2+y,-z
1/2-x,1/2+y,z
1/2+x,1/2-y,z
loop_
_atom_site_type_symbol
_atom_site_label
_atom_site_fract_x
_atom_site_fract_y
_atom_site_fract_z
Si Si1 0.172654 0.169794 0.397463
Si Si2 0.584705 0.166267 0.320461
Si Si3 0.418921 0.828383 0.139410
Si Si4 0.825742 0.669460 0.772746
Si Si5 0.322654 0.663770 0.500000
Si Si6 0.676520 0.831070 0.053197
O O1 0.250000 0.250000 0.391380
O O2 0.114008 0.231665 0.361563
O O3 0.137060 0.196447 0.450105
O O4 0.184999 0.000000 0.387501
O O5 0.500000 0.198743 0.312615
O O6 0.625099 0.205202 0.272239
O O7 0.598207 0.000000 0.334769
O O8 0.500000 0.761641 0.143895
O O9 0.367972 0.769512 0.181418
O O10 0.386441 0.780280 0.088916
O O11 0.423664 0.000000 0.143208
O O12 0.809911 0.500000 0.777618
O O13 0.750000 0.750000 0.767032
O O14 0.296914 0.500000 0.500000
O O15 0.250000 0.750000 0.500000
O O16 0.750000 0.750000 0.067165
O O17 0.692690 0.000000 0.058607
O O18 0.651354 0.792250 0.000000
#
# Coordination Sequence:
#
# PCOD8269050 Si02
#       6
#    16  16  16  16   8  16
#     4  10  19  33  54  78 103 132 167 205 246 292
#     4  10  21  36  52  72 100 132 166 205 249 296
#     4   9  17  30  49  72  97 126 161 200 242 288
#     4  10  20  34  53  74  96 126 163 202 244 292
#     4   8  16  30  49  74 101 129 163 203 243 286
#     4   9  17  29  47  71  97 126 161 201 242 284
#
# _framework density 18.325240000000001
#
# number of rings (size 3 to 8) (size 9 to 14) (size 15 to 20)
#    0.000    2.545    0.000    2.182    0.000    5.818 
#    0.000    2.273    0.000    6.000    0.000    2.545 
#    0.000    0.000    0.000    0.000    0.000    0.000 
#
# Total GULP energy -545410.186869 kJ/mol
# GULP energy per Si atom -12395.686065 kJ/mol
# Density = 1.828353 g / cm^3
# Si number density = 18.325240 Si / 1000 Ang^3
#
#
#
# Elastic Constant Matrix: (Units=GPa)
#
#
# Indices 1 2 3 4 5 6 
#
# 1 139.0154 48.2269 82.3972 0.0000 0.0000 0.0000
# 2 48.2269 51.7731 52.8598 0.0000 0.0000 0.0000
# 3 82.3972 52.8598 149.7507 0.0000 0.0000 0.0000
# 4 0.0000 0.0000 0.0000 18.3784 0.0000 0.0000
# 5 0.0000 0.0000 0.0000 0.0000 11.3606 0.0000
# 6 0.0000 0.0000 0.0000 0.0000 0.0000 25.4064
#
#
#
# Elastic Compliance Matrix: (Units=1/GPa)
#
#
# Indices 1 2 3 4 5 6 
#
# 1 0.012105 -0.006997 -0.004190 0.000000 0.000000 0.000000
# 2 -0.006997 0.034243 -0.008237 0.000000 0.000000 0.000000
# 3 -0.004190 -0.008237 0.011891 0.000000 0.000000 0.000000
# 4 0.000000 0.000000 0.000000 0.054412 0.000000 0.000000
# 5 0.000000 0.000000 0.000000 0.000000 0.088024 0.000000
# 6 0.000000 0.000000 0.000000 0.000000 0.000000 0.039360
#
#
# Mechanical properties :
#
#
# Convention : Reuss Voigt Hill
#
# Bulk Modulus (GPa) = 51.57526 78.61189 65.09358
# Shear Modulus (GPa) = 17.52250 21.49942 19.51096
#
# Velocity S-wave (km/s) = 3.09559 3.42894 3.26652
# Velocity P-wave (km/s) = 6.40175 7.65951 7.05870
#
# Compressibility (1/GPa) = 0.01938914
#
# Stress axis : x y z
#
# Youngs Moduli (GPa) = 82.61299 29.20292 84.09648
#
# Poissons Ratio (x) = 0.20434 0.35240
# Poissons Ratio (y) = 0.57806 0.69273
# Poissons Ratio (z) = 0.34618 0.24055
#
# Static dielectric constant tensor:
#      x y z
#    x 3.294560 0.000000 0.000000 
#    y 0.000000 3.199560 0.000000 
#    z 0.000000 0.000000 3.957500 
# 
# 
# High freq. dielectric constant tensor:
#      x y z
#    x 1.697410 0.000000 0.000000 
#    y 0.000000 1.688920 0.000000 
#    z 0.000000 0.000000 1.733310 
# 
# From -- ./inp_files/77862.got.cif
#   From: 2010.03.12/outbox.cif.g09.slc.cpg/sg65_39_cif.got.tgz:77862.got - 2010.04.10 20:52:16.
