data_PCOD8269229
_publ_section_title
;
Structure prediction by ZEFSAII (Michael W. Deem and Ramdas Pophale) SiO2 
 PCOD8269229
Probable space group: C M M M
;
_chemical_formula_sum "Si O2"
_cell_formula_units_Z 56
_cell_length_a 22.078803
_cell_length_b 17.007749
_cell_length_c 7.783626
_cell_angle_alpha 90.000000
_cell_angle_beta 90.000000
_cell_angle_gamma 90.000000
_cell_volume 2922.835156
_symmetry_space_group_name_H-M "C M M M"
_symmetry_group_IT_number 65
_symmetry_cell_setting 'orthorhombic'
loop_
_space_group_symop_operation_xyz
x,y,z
-x,-y,z
x,-y,-z
-x,y,-z
-x,-y,-z
x,y,-z
-x,y,z
x,-y,z
1/2+x,1/2+y,z
1/2-x,1/2-y,z
1/2+x,1/2-y,-z
1/2-x,1/2+y,-z
1/2-x,1/2-y,-z
1/2+x,1/2+y,-z
1/2-x,1/2+y,z
1/2+x,1/2-y,z
loop_
_atom_site_type_symbol
_atom_site_label
_atom_site_fract_x
_atom_site_fract_y
_atom_site_fract_z
Si Si1 0.566489 0.500000 0.705767
Si Si2 0.149770 0.409108 0.500000
Si Si3 0.927714 0.734809 0.500000
Si Si4 0.762496 0.590455 0.191356
Si Si5 0.858293 0.857307 0.310572
O O1 0.500000 0.500000 0.786369
O O2 0.562614 0.500000 0.500000
O O3 0.599553 0.422561 0.777907
O O4 0.130153 0.500000 0.500000
O O5 0.088640 0.357268 0.500000
O O6 0.187202 0.386051 0.330138
O O7 0.897069 0.776239 0.330955
O O8 0.000000 0.746592 0.500000
O O9 0.741777 0.500000 0.223449
O O10 0.704477 0.648935 0.205588
O O11 0.790003 0.600351 0.000000
O O12 0.838745 0.887723 0.500000
#
# Coordination Sequence:
#
# PCOD8269229 Si02
#       5
#     8   8   8  16  16
#     4   9  14  22  43  75 103 146 181 194 240 308
#     4  10  21  38  58  78 105 141 183 232 287 326
#     4  10  21  35  55  81 106 142 189 231 271 322
#     4  10  19  33  56  85 115 143 177 220 268 325
#     4   9  17  28  52  77 110 142 171 214 257 315
#
# _framework density 19.159479000000001
#
# number of rings (size 3 to 8) (size 9 to 14) (size 15 to 20)
#    0.857    1.571    2.857    0.857    0.000    2.571 
#    0.000    2.857    0.000    6.857    0.000    4.000 
#    0.000    0.000    0.000    0.000    0.000    0.000 
#
# Total GULP energy -346893.479927 kJ/mol
# GULP energy per Si atom -12389.052855 kJ/mol
# Density = 1.911587 g / cm^3
# Si number density = 19.159479 Si / 1000 Ang^3
#
#
#
# Elastic Constant Matrix: (Units=GPa)
#
#
# Indices 1 2 3 4 5 6 
#
# 1 72.2281 46.0334 23.8162 0.0000 0.0000 0.0000
# 2 46.0334 96.0108 14.0172 0.0000 0.0000 0.0000
# 3 23.8162 14.0172 81.1529 0.0000 0.0000 0.0000
# 4 0.0000 0.0000 0.0000 7.7208 0.0000 0.0000
# 5 0.0000 0.0000 0.0000 0.0000 3.2250 0.0000
# 6 0.0000 0.0000 0.0000 0.0000 0.0000 34.8296
#
#
#
# Elastic Compliance Matrix: (Units=1/GPa)
#
#
# Indices 1 2 3 4 5 6 
#
# 1 0.021523 -0.009640 -0.004651 0.000000 0.000000 0.000000
# 2 -0.009640 0.015003 0.000238 0.000000 0.000000 0.000000
# 3 -0.004651 0.000238 0.013646 0.000000 0.000000 0.000000
# 4 0.000000 0.000000 0.000000 0.129520 0.000000 0.000000
# 5 0.000000 0.000000 0.000000 0.000000 0.310077 0.000000
# 6 0.000000 0.000000 0.000000 0.000000 0.000000 0.028711
#
#
# Mechanical properties :
#
#
# Convention : Reuss Voigt Hill
#
# Bulk Modulus (GPa) = 45.32150 46.34728 45.83439
# Shear Modulus (GPa) = 9.02621 20.19007 14.60814
#
# Velocity S-wave (km/s) = 2.17286 3.24973 2.76424
# Velocity P-wave (km/s) = 5.47735 6.19062 5.84487
#
# Compressibility (1/GPa) = 0.02206458
#
# Stress axis : x y z
#
# Youngs Moduli (GPa) = 46.46243 66.65374 73.27954
#
# Poissons Ratio (x) = 0.64256 0.34084
# Poissons Ratio (y) = 0.44791 -0.01742
# Poissons Ratio (z) = 0.21611 -0.01585
#
# Static dielectric constant tensor:
#      x y z
#    x 3.225180 0.000000 0.000000 
#    y 0.000000 3.264540 0.000000 
#    z 0.000000 0.000000 3.185350 
# 
# 
# High freq. dielectric constant tensor:
#      x y z
#    x 1.725020 0.000000 0.000000 
#    y 0.000000 1.725140 0.000000 
#    z 0.000000 0.000000 1.712680 
# 
# From -- ./inp_files/10798.got.cif
#   From: 2010.03.12/outbox.cif.g09.slc.cpg/sg65_6_cif.got.tgz:10798.got - 2010.04.10 20:52:16.
