data_PCOD8269862
_publ_section_title
;
Structure prediction by ZEFSAII (Michael W. Deem and Ramdas Pophale) SiO2 
 PCOD8269862
Probable space group: C M M M
;
_chemical_formula_sum "Si O2"
_cell_formula_units_Z 112
_cell_length_a 27.662824
_cell_length_b 14.955909
_cell_length_c 13.868043
_cell_angle_alpha 90.000000
_cell_angle_beta 90.000000
_cell_angle_gamma 90.000000
_cell_volume 5737.523895
_symmetry_space_group_name_H-M "C M M M"
_symmetry_group_IT_number 65
_symmetry_cell_setting 'orthorhombic'
loop_
_space_group_symop_operation_xyz
x,y,z
-x,-y,z
x,-y,-z
-x,y,-z
-x,-y,-z
x,y,-z
-x,y,z
x,-y,z
1/2+x,1/2+y,z
1/2-x,1/2-y,z
1/2+x,1/2-y,-z
1/2-x,1/2+y,-z
1/2-x,1/2-y,-z
1/2+x,1/2+y,-z
1/2-x,1/2+y,z
1/2+x,1/2-y,z
loop_
_atom_site_type_symbol
_atom_site_label
_atom_site_fract_x
_atom_site_fract_y
_atom_site_fract_z
Si Si1 0.865845 0.896177 0.391493
Si Si2 0.768180 0.849662 0.699377
Si Si3 0.175121 0.601114 0.395908
Si Si4 0.265672 0.851480 0.895623
Si Si5 0.055590 0.101078 0.762074
Si Si6 0.056287 0.268026 0.888711
Si Si7 0.134558 0.392922 0.196428
O O1 0.872621 0.860389 0.500000
O O2 0.822174 0.845418 0.339529
O O3 0.914814 0.876239 0.334273
O O4 0.852536 0.000000 0.390874
O O5 0.750000 0.750000 0.713948
O O6 0.732806 0.898328 0.624267
O O7 0.764266 0.896142 0.806236
O O8 0.164915 0.649589 0.500000
O O9 0.158277 0.500000 0.406633
O O10 0.145768 0.642331 0.305682
O O11 0.250000 0.750000 0.906610
O O12 0.322709 0.860105 0.873179
O O13 0.255727 0.898643 0.000000
O O14 0.069594 0.170671 0.845757
O O15 0.000000 0.110852 0.732205
O O16 0.066812 0.000000 0.798948
O O17 0.084933 0.347205 0.835990
O O18 0.000000 0.289792 0.874369
O O19 0.070960 0.265024 0.000000
O O20 0.129273 0.500000 0.191720
#
# Coordination Sequence:
#
# PCOD8269862 Si02
#       7
#    16  16  16  16  16  16  16
#     4  10  21  36  55  79 110 146 182 228 284 337
#     4  10  20  31  47  77 111 144 184 229 275 326
#     4   9  18  33  52  73 104 149 193 229 268 320
#     4   9  19  34  52  74 105 152 196 233 277 324
#     4   9  20  39  61  85 112 143 184 233 285 344
#     4  10  22  39  61  88 115 145 184 233 287 340
#     4  10  21  37  58  85 118 154 192 234 281 337
#
# _framework density 19.520616
#
# number of rings (size 3 to 8) (size 9 to 14) (size 15 to 20)
#    0.000    2.429    0.000    1.286    6.000    4.857 
#    0.000    3.571    0.000    2.143    0.000    2.000 
#    0.000    0.000    0.000    0.000    0.000    0.000 
#
# Total GULP energy -693992.408632 kJ/mol
# GULP energy per Si atom -12392.721583 kJ/mol
# Density = 1.947619 g / cm^3
# Si number density = 19.520616 Si / 1000 Ang^3
#
#
#
# Elastic Constant Matrix: (Units=GPa)
#
#
# Indices 1 2 3 4 5 6 
#
# 1 94.8437 45.6966 65.7107 0.0000 0.0000 0.0000
# 2 45.6966 73.1493 43.9136 0.0000 0.0000 0.0000
# 3 65.7107 43.9136 188.3591 0.0000 0.0000 0.0000
# 4 0.0000 0.0000 0.0000 22.1317 0.0000 0.0000
# 5 0.0000 0.0000 0.0000 0.0000 33.9020 0.0000
# 6 0.0000 0.0000 0.0000 0.0000 0.0000 32.2408
#
#
#
# Elastic Compliance Matrix: (Units=1/GPa)
#
#
# Indices 1 2 3 4 5 6 
#
# 1 0.017467 -0.008434 -0.004127 0.000000 0.000000 0.000000
# 2 -0.008434 0.019968 -0.001713 0.000000 0.000000 0.000000
# 3 -0.004127 -0.001713 0.007148 0.000000 0.000000 0.000000
# 4 0.000000 0.000000 0.000000 0.045184 0.000000 0.000000
# 5 0.000000 0.000000 0.000000 0.000000 0.029497 0.000000
# 6 0.000000 0.000000 0.000000 0.000000 0.000000 0.031017
#
#
# Mechanical properties :
#
#
# Convention : Reuss Voigt Hill
#
# Bulk Modulus (GPa) = 62.36543 74.11043 68.23793
# Shear Modulus (GPa) = 27.14848 31.05698 29.10273
#
# Velocity S-wave (km/s) = 3.73333 3.99304 3.86537
# Velocity P-wave (km/s) = 7.11348 7.70109 7.41311
#
# Compressibility (1/GPa) = 0.01603452
#
# Stress axis : x y z
#
# Youngs Moduli (GPa) = 57.25234 50.08101 139.89615
#
# Poissons Ratio (x) = 0.42237 0.57737
# Poissons Ratio (y) = 0.48285 0.23964
# Poissons Ratio (z) = 0.23629 0.08579
#
# Static dielectric constant tensor:
#      x y z
#    x 3.393560 0.000000 0.000000 
#    y 0.000000 3.439790 0.000000 
#    z 0.000000 0.000000 4.152430 
# 
# 
# High freq. dielectric constant tensor:
#      x y z
#    x 1.739500 0.000000 0.000000 
#    y 0.000000 1.751770 0.000000 
#    z 0.000000 0.000000 1.776740 
# 
# From -- ./inp_files/45785.got.cif
#   From: 2010.03.12/outbox.cif.g09.slc.cpg/sg65_23_cif.got.tgz:45785.got - 2010.04.10 20:52:16.
