data_PCOD8269256
_publ_section_title
;
Structure prediction by ZEFSAII (Michael W. Deem and Ramdas Pophale) SiO2 
 PCOD8269256
Probable space group: C M M M
;
_chemical_formula_sum "Si O2"
_cell_formula_units_Z 56
_cell_length_a 21.249924
_cell_length_b 14.339873
_cell_length_c 9.808721
_cell_angle_alpha 90.000000
_cell_angle_beta 90.000000
_cell_angle_gamma 90.000000
_cell_volume 2988.925346
_symmetry_space_group_name_H-M "C M M M"
_symmetry_group_IT_number 65
_symmetry_cell_setting 'orthorhombic'
loop_
_space_group_symop_operation_xyz
x,y,z
-x,-y,z
x,-y,-z
-x,y,-z
-x,-y,-z
x,y,-z
-x,y,z
x,-y,z
1/2+x,1/2+y,z
1/2-x,1/2-y,z
1/2+x,1/2-y,-z
1/2-x,1/2+y,-z
1/2-x,1/2-y,-z
1/2+x,1/2+y,-z
1/2-x,1/2+y,z
1/2+x,1/2-y,z
loop_
_atom_site_type_symbol
_atom_site_label
_atom_site_fract_x
_atom_site_fract_y
_atom_site_fract_z
Si Si1 0.926705 0.304898 0.000000
Si Si2 0.250000 0.250000 0.213033
Si Si3 0.071839 0.899775 0.500000
Si Si4 0.925442 0.606502 0.500000
Si Si5 0.385290 0.745037 0.710611
Si Si6 0.701386 0.106798 0.000000
O O1 0.911949 0.244079 0.134999
O O2 0.875481 0.388839 0.000000
O O3 0.000000 0.338958 0.000000
O O4 0.310716 0.273680 0.302462
O O5 0.269030 0.158190 0.129102
O O6 0.084758 0.842065 0.635878
O O7 0.000000 0.923790 0.500000
O O8 0.108181 0.000000 0.500000
O O9 0.900628 0.500000 0.500000
O O10 0.901350 0.657299 0.363384
O O11 0.000000 0.609666 0.500000
O O12 0.722634 0.000000 0.000000
#
# Coordination Sequence:
#
# PCOD8269256 Si02
#       6
#     8   8   8   8  16   8
#     4  10  19  33  58  86 108 136 176 223 277 329
#     4   9  20  35  52  78 108 142 184 220 262 320
#     4  10  21  37  55  76 105 143 183 222 268 316
#     4  10  21  37  57  82 113 147 177 214 276 338
#     4  10  20  37  56  78 110 144 178 223 269 316
#     4   9  19  35  52  75 114 150 172 213 274 326
#
# _framework density 18.735831000000001
#
# number of rings (size 3 to 8) (size 9 to 14) (size 15 to 20)
#    0.000    2.286    0.000    4.286    0.000    8.286 
#    0.000    2.143    0.000    2.571    0.000    0.000 
#    0.000    0.000    0.000    0.000    0.000    0.000 
#
# Total GULP energy -347002.892373 kJ/mol
# GULP energy per Si atom -12392.960442 kJ/mol
# Density = 1.869319 g / cm^3
# Si number density = 18.735831 Si / 1000 Ang^3
#
#
#
# Elastic Constant Matrix: (Units=GPa)
#
#
# Indices 1 2 3 4 5 6 
#
# 1 131.8462 42.3451 28.7729 0.0000 0.0000 0.0000
# 2 42.3451 163.1191 55.7334 0.0000 0.0000 0.0000
# 3 28.7729 55.7334 128.4661 0.0000 0.0000 0.0000
# 4 0.0000 0.0000 0.0000 15.9661 0.0000 0.0000
# 5 0.0000 0.0000 0.0000 0.0000 33.2419 0.0000
# 6 0.0000 0.0000 0.0000 0.0000 0.0000 21.1029
#
#
#
# Elastic Compliance Matrix: (Units=1/GPa)
#
#
# Indices 1 2 3 4 5 6 
#
# 1 0.008405 -0.001806 -0.001099 0.000000 0.000000 0.000000
# 2 -0.001806 0.007586 -0.002886 0.000000 0.000000 0.000000
# 3 -0.001099 -0.002886 0.009282 0.000000 0.000000 0.000000
# 4 0.000000 0.000000 0.000000 0.062633 0.000000 0.000000
# 5 0.000000 0.000000 0.000000 0.000000 0.030083 0.000000
# 6 0.000000 0.000000 0.000000 0.000000 0.000000 0.047387
#
#
# Mechanical properties :
#
#
# Convention : Reuss Voigt Hill
#
# Bulk Modulus (GPa) = 73.04761 75.23716 74.14238
# Shear Modulus (GPa) = 27.54510 33.83419 30.68964
#
# Velocity S-wave (km/s) = 3.83846 4.25415 4.05164
# Velocity P-wave (km/s) = 7.66276 8.02336 7.84513
#
# Compressibility (1/GPa) = 0.01368970
#
# Stress axis : x y z
#
# Youngs Moduli (GPa) = 118.98350 131.82863 107.73028
#
# Poissons Ratio (x) = 0.23813 0.11836
# Poissons Ratio (y) = 0.21493 0.31095
# Poissons Ratio (z) = 0.13073 0.38050
#
# Static dielectric constant tensor:
#      x y z
#    x 3.667890 0.000000 0.000000 
#    y 0.000000 3.326610 0.000000 
#    z 0.000000 0.000000 3.490370 
# 
# 
# High freq. dielectric constant tensor:
#      x y z
#    x 1.738870 0.000000 0.000000 
#    y 0.000000 1.710990 0.000000 
#    z 0.000000 0.000000 1.730790 
# 
# From -- ./inp_files/10716.got.cif
#   From: 2010.03.12/outbox.cif.g09.slc.cpg/sg65_6_cif.got.tgz:10716.got - 2010.04.10 20:52:16.
