data_PCOD8269359
_publ_section_title
;
Structure prediction by ZEFSAII (Michael W. Deem and Ramdas Pophale) SiO2 
 PCOD8269359
Probable space group: C M M M
;
_chemical_formula_sum "Si O2"
_cell_formula_units_Z 104
_cell_length_a 22.631675
_cell_length_b 14.228195
_cell_length_c 17.394090
_cell_angle_alpha 90.000000
_cell_angle_beta 90.000000
_cell_angle_gamma 90.000000
_cell_volume 5601.034134
_symmetry_space_group_name_H-M "C M M M"
_symmetry_group_IT_number 65
_symmetry_cell_setting 'orthorhombic'
loop_
_space_group_symop_operation_xyz
x,y,z
-x,-y,z
x,-y,-z
-x,y,-z
-x,-y,-z
x,y,-z
-x,y,z
x,-y,z
1/2+x,1/2+y,z
1/2-x,1/2-y,z
1/2+x,1/2-y,-z
1/2-x,1/2+y,-z
1/2-x,1/2-y,-z
1/2+x,1/2+y,-z
1/2-x,1/2+y,z
1/2+x,1/2-y,z
loop_
_atom_site_type_symbol
_atom_site_label
_atom_site_fract_x
_atom_site_fract_y
_atom_site_fract_z
Si Si1 0.569919 0.394330 0.000000
Si Si2 0.273574 0.389976 0.412342
Si Si3 0.142782 0.393354 0.632946
Si Si4 0.566792 0.896277 0.217319
Si Si5 0.068741 0.801156 0.843219
Si Si6 0.564024 0.734646 0.418177
Si Si7 0.120306 0.111329 0.304166
O O1 0.591776 0.338614 0.075095
O O2 0.596268 0.500000 0.000000
O O3 0.500000 0.398848 0.000000
O O4 0.279106 0.347776 0.500000
O O5 0.282674 0.500000 0.419192
O O6 0.211446 0.364777 0.372738
O O7 0.322173 0.351323 0.351613
O O8 0.134091 0.500000 0.602986
O O9 0.116766 0.381959 0.718407
O O10 0.109171 0.320731 0.579918
O O11 0.500000 0.889335 0.252378
O O12 0.575183 0.812471 0.155944
O O13 0.575128 0.000000 0.178922
O O14 0.113484 0.846689 0.781162
O O15 0.000000 0.830433 0.828147
O O16 0.571565 0.681975 0.500000
O O17 0.500000 0.781690 0.409906
O O18 0.567185 0.655958 0.352417
O O19 0.116449 0.000000 0.299315
#
# Coordination Sequence:
#
# PCOD8269359 Si02
#       7
#     8  16  16  16  16  16  16
#     4   9  18  32  53  83 114 143 174 214 264 314
#     4   9  19  35  53  74 101 137 184 232 274 316
#     4  10  19  34  55  76 102 137 175 224 277 319
#     4   9  17  31  53  79 108 141 175 217 269 323
#     4  10  19  34  55  81 111 139 173 216 264 325
#     4  11  23  35  48  72 103 135 178 224 266 322
#     4  11  22  36  53  72 100 141 182 222 265 315
#
# _framework density 18.567999
#
# number of rings (size 3 to 8) (size 9 to 14) (size 15 to 20)
#    0.000    2.077    1.538    2.308    0.000    5.231 
#    0.000    3.462    0.000    2.308    0.000    2.154 
#    0.000    4.923    0.000    0.000    0.000    0.000 
#
# Total GULP energy -644213.069943 kJ/mol
# GULP energy per Si atom -12388.712884 kJ/mol
# Density = 1.852574 g / cm^3
# Si number density = 18.567999 Si / 1000 Ang^3
#
#
#
# Elastic Constant Matrix: (Units=GPa)
#
#
# Indices 1 2 3 4 5 6 
#
# 1 89.3851 34.7120 50.5533 0.0000 0.0000 0.0000
# 2 34.7120 107.1234 64.5979 0.0000 0.0000 0.0000
# 3 50.5533 64.5979 143.7768 0.0000 0.0000 0.0000
# 4 0.0000 0.0000 0.0000 23.1193 0.0000 0.0000
# 5 0.0000 0.0000 0.0000 0.0000 37.0050 0.0000
# 6 0.0000 0.0000 0.0000 0.0000 0.0000 21.4820
#
#
#
# Elastic Compliance Matrix: (Units=1/GPa)
#
#
# Indices 1 2 3 4 5 6 
#
# 1 0.014333 -0.002202 -0.004050 0.000000 0.000000 0.000000
# 2 -0.002202 0.013142 -0.005131 0.000000 0.000000 0.000000
# 3 -0.004050 -0.005131 0.010684 0.000000 0.000000 0.000000
# 4 0.000000 0.000000 0.000000 0.043254 0.000000 0.000000
# 5 0.000000 0.000000 0.000000 0.000000 0.027023 0.000000
# 6 0.000000 0.000000 0.000000 0.000000 0.000000 0.046551
#
#
# Mechanical properties :
#
#
# Convention : Reuss Voigt Hill
#
# Bulk Modulus (GPa) = 64.95888 71.11242 68.03565
# Shear Modulus (GPa) = 27.33947 29.01606 28.17777
#
# Velocity S-wave (km/s) = 3.84135 3.95738 3.89979
# Velocity P-wave (km/s) = 7.39830 7.69822 7.54975
#
# Compressibility (1/GPa) = 0.01539435
#
# Stress axis : x y z
#
# Youngs Moduli (GPa) = 69.76664 76.08952 93.59366
#
# Poissons Ratio (x) = 0.16756 0.37909
# Poissons Ratio (y) = 0.15363 0.48018
# Poissons Ratio (z) = 0.28258 0.39038
#
# Static dielectric constant tensor:
#      x y z
#    x 3.457430 0.000000 0.000000 
#    y 0.000000 3.602440 0.000000 
#    z 0.000000 0.000000 3.294330 
# 
# 
# High freq. dielectric constant tensor:
#      x y z
#    x 1.704400 0.000000 0.000000 
#    y 0.000000 1.733850 0.000000 
#    z 0.000000 0.000000 1.693110 
# 
# From -- ./inp_files/55909.got.cif
#   From: 2010.03.12/outbox.cif.g09.slc.cpg/sg65_28_cif.got.tgz:55909.got - 2010.04.10 20:52:16.
