data_PCOD8269801
_publ_section_title
;
Structure prediction by ZEFSAII (Michael W. Deem and Ramdas Pophale) SiO2 
 PCOD8269801
Probable space group: C M M M
;
_chemical_formula_sum "Si O2"
_cell_formula_units_Z 72
_cell_length_a 8.826696
_cell_length_b 28.290359
_cell_length_c 18.278878
_cell_angle_alpha 90.000000
_cell_angle_beta 90.000000
_cell_angle_gamma 90.000000
_cell_volume 4564.425912
_symmetry_space_group_name_H-M "C M M M"
_symmetry_group_IT_number 65
_symmetry_cell_setting 'orthorhombic'
loop_
_space_group_symop_operation_xyz
x,y,z
-x,-y,z
x,-y,-z
-x,y,-z
-x,-y,-z
x,y,-z
-x,y,z
x,-y,z
1/2+x,1/2+y,z
1/2-x,1/2-y,z
1/2+x,1/2-y,-z
1/2-x,1/2+y,-z
1/2-x,1/2-y,-z
1/2+x,1/2+y,-z
1/2-x,1/2+y,z
1/2+x,1/2-y,z
loop_
_atom_site_type_symbol
_atom_site_label
_atom_site_fract_x
_atom_site_fract_y
_atom_site_fract_z
Si Si1 0.323749 0.643954 0.632086
Si Si2 0.822508 0.801221 0.777772
Si Si3 0.321536 0.801225 0.500000
Si Si4 0.824655 0.446598 0.414716
Si Si5 0.677560 0.198650 0.079232
O O1 0.500000 0.650078 0.613786
O O2 0.281960 0.664823 0.710818
O O3 0.226791 0.670940 0.571890
O O4 0.278809 0.588756 0.632294
O O5 0.750000 0.750000 0.763693
O O6 0.755299 0.826827 0.851079
O O7 0.000000 0.794346 0.787301
O O8 0.500000 0.795705 0.500000
O O9 0.250000 0.750000 0.500000
O O10 0.791389 0.438311 0.500000
O O11 0.781418 0.500000 0.392312
O O12 0.000000 0.436640 0.397802
O O13 0.500000 0.203014 0.093824
O O14 0.750000 0.250000 0.076351
O O15 0.708201 0.173422 0.000000
#
# Coordination Sequence:
#
# PCOD8269801 Si02
#       5
#    16  16   8  16  16
#     4  11  22  34  48  69  93 119 155 192 230 274
#     4  10  20  31  44  64  91 123 156 189 224 266
#     4  12  24  36  49  64  87 122 160 195 229 267
#     4   9  18  33  52  72  91 114 148 189 235 282
#     4   9  16  26  42  63  86 115 151 187 223 264
#
# _framework density 15.774164000000001
#
# number of rings (size 3 to 8) (size 9 to 14) (size 15 to 20)
#    0.000    2.000    1.111    5.667    0.000    7.111 
#    0.000    1.111    0.000    0.000    0.000    0.000 
#    0.000    0.889    0.000    9.778    0.000    7.111 
#
# Total GULP energy -446247.194391 kJ/mol
# GULP energy per Si atom -12395.755400 kJ/mol
# Density = 1.573826 g / cm^3
# Si number density = 15.774164 Si / 1000 Ang^3
#
#
#
# Elastic Constant Matrix: (Units=GPa)
#
#
# Indices 1 2 3 4 5 6 
#
# 1 99.2940 39.0141 65.8880 0.0000 0.0000 0.0000
# 2 39.0141 82.4941 50.9282 0.0000 0.0000 0.0000
# 3 65.8880 50.9282 134.2893 0.0000 0.0000 0.0000
# 4 0.0000 0.0000 0.0000 2.4834 0.0000 0.0000
# 5 0.0000 0.0000 0.0000 0.0000 27.3389 0.0000
# 6 0.0000 0.0000 0.0000 0.0000 0.0000 24.7375
#
#
#
# Elastic Compliance Matrix: (Units=1/GPa)
#
#
# Indices 1 2 3 4 5 6 
#
# 1 0.015661 -0.003477 -0.006365 0.000000 0.000000 0.000000
# 2 -0.003477 0.016600 -0.004589 0.000000 0.000000 0.000000
# 3 -0.006365 -0.004589 0.012310 0.000000 0.000000 0.000000
# 4 0.000000 0.000000 0.000000 0.402667 0.000000 0.000000
# 5 0.000000 0.000000 0.000000 0.000000 0.036578 0.000000
# 6 0.000000 0.000000 0.000000 0.000000 0.000000 0.040424
#
#
# Mechanical properties :
#
#
# Convention : Reuss Voigt Hill
#
# Bulk Modulus (GPa) = 63.66334 69.74866 66.70600
# Shear Modulus (GPa) = 8.95511 21.59509 15.27510
#
# Velocity S-wave (km/s) = 2.38525 3.70404 3.11523
# Velocity P-wave (km/s) = 6.93057 7.91241 7.43771
#
# Compressibility (1/GPa) = 0.01570763
#
# Stress axis : x y z
#
# Youngs Moduli (GPa) = 63.85253 60.24194 81.23323
#
# Poissons Ratio (x) = 0.20946 0.51708
# Poissons Ratio (y) = 0.22201 0.37281
# Poissons Ratio (z) = 0.40645 0.27647
#
# Static dielectric constant tensor:
#      x y z
#    x 3.129910 0.000000 0.000000 
#    y 0.000000 2.934930 0.000000 
#    z 0.000000 0.000000 3.768150 
# 
# 
# High freq. dielectric constant tensor:
#      x y z
#    x 1.622990 0.000000 0.000000 
#    y 0.000000 1.565920 0.000000 
#    z 0.000000 0.000000 1.606310 
# 
# From -- ./inp_files/49752.got.cif
#   From: 2010.03.12/outbox.cif.g09.slc.cpg/sg65_25_cif.got.tgz:49752.got - 2010.04.10 20:52:16.
