data_PCOD8269164
_publ_section_title
;
Structure prediction by ZEFSAII (Michael W. Deem and Ramdas Pophale) SiO2 
 PCOD8269164
Probable space group: C M M M
;
_chemical_formula_sum "Si O2"
_cell_formula_units_Z 72
_cell_length_a 9.271162
_cell_length_b 16.016497
_cell_length_c 24.927655
_cell_angle_alpha 90.000000
_cell_angle_beta 90.000000
_cell_angle_gamma 90.000000
_cell_volume 3701.545839
_symmetry_space_group_name_H-M "C M M M"
_symmetry_group_IT_number 65
_symmetry_cell_setting 'orthorhombic'
loop_
_space_group_symop_operation_xyz
x,y,z
-x,-y,z
x,-y,-z
-x,y,-z
-x,-y,-z
x,y,-z
-x,y,z
x,-y,z
1/2+x,1/2+y,z
1/2-x,1/2-y,z
1/2+x,1/2-y,-z
1/2-x,1/2+y,-z
1/2-x,1/2-y,-z
1/2+x,1/2+y,-z
1/2-x,1/2+y,z
1/2+x,1/2-y,z
loop_
_atom_site_type_symbol
_atom_site_label
_atom_site_fract_x
_atom_site_fract_y
_atom_site_fract_z
Si Si1 0.166991 0.335546 0.559709
Si Si2 0.828921 0.000000 0.060558
Si Si3 0.171324 0.833624 0.122120
Si Si4 0.842577 0.903754 0.652602
Si Si5 0.828974 0.092836 0.232022
O O1 0.191757 0.373382 0.500000
O O2 0.250000 0.250000 0.566175
O O3 0.228837 0.396437 0.604590
O O4 0.000000 0.319861 0.570592
O O5 0.774780 0.915090 0.089265
O O6 0.000000 0.000000 0.062198
O O7 0.769335 0.000000 0.000000
O O8 0.250000 0.750000 0.100557
O O9 0.221757 0.847402 0.183846
O O10 0.000000 0.821435 0.116298
O O11 0.784224 0.867211 0.709675
O O12 0.000000 0.864788 0.636956
O O13 0.865632 0.000000 0.664588
O O14 0.000000 0.085026 0.230088
O O15 0.761894 0.000000 0.223825
#
# Coordination Sequence:
#
# PCOD8269164 Si02
#       5
#    16   8  16  16  16
#     4  10  21  36  52  69  94 130 170 212 260 313
#     4   9  18  34  57  81 107 147 192 225 260 318
#     4  10  19  33  55  81 109 143 184 227 270 320
#     4   9  18  32  52  77 102 130 167 209 254 310
#     4   8  14  29  52  74  99 136 176 211 255 314
#
# _framework density 19.451333999999999
#
# number of rings (size 3 to 8) (size 9 to 14) (size 15 to 20)
#    0.000    2.778    1.111    2.000    0.000    3.556 
#    0.000    6.111    0.000    2.000    0.000    0.000 
#    0.000    0.000    0.000    0.000    0.000    0.000 
#
# Total GULP energy -446030.163188 kJ/mol
# GULP energy per Si atom -12389.726755 kJ/mol
# Density = 1.940706 g / cm^3
# Si number density = 19.451334 Si / 1000 Ang^3
#
#
#
# Elastic Constant Matrix: (Units=GPa)
#
#
# Indices 1 2 3 4 5 6 
#
# 1 60.2391 30.5792 45.4323 0.0000 0.0000 0.0000
# 2 30.5792 99.6658 55.1232 0.0000 0.0000 0.0000
# 3 45.4323 55.1232 152.4273 0.0000 0.0000 0.0000
# 4 0.0000 0.0000 0.0000 18.2592 0.0000 0.0000
# 5 0.0000 0.0000 0.0000 0.0000 12.4470 0.0000
# 6 0.0000 0.0000 0.0000 0.0000 0.0000 27.4195
#
#
#
# Elastic Compliance Matrix: (Units=1/GPa)
#
#
# Indices 1 2 3 4 5 6 
#
# 1 0.022631 -0.004016 -0.005293 0.000000 0.000000 0.000000
# 2 -0.004016 0.013255 -0.003596 0.000000 0.000000 0.000000
# 3 -0.005293 -0.003596 0.009439 0.000000 0.000000 0.000000
# 4 0.000000 0.000000 0.000000 0.054767 0.000000 0.000000
# 5 0.000000 0.000000 0.000000 0.000000 0.080341 0.000000
# 6 0.000000 0.000000 0.000000 0.000000 0.000000 0.036470
#
#
# Mechanical properties :
#
#
# Convention : Reuss Voigt Hill
#
# Bulk Modulus (GPa) = 51.24624 63.84461 57.54543
# Shear Modulus (GPa) = 20.06269 23.70497 21.88383
#
# Velocity S-wave (km/s) = 3.21507 3.49475 3.35782
# Velocity P-wave (km/s) = 6.33919 7.01273 6.68445
#
# Compressibility (1/GPa) = 0.01951363
#
# Stress axis : x y z
#
# Youngs Moduli (GPa) = 44.18667 75.44408 105.94660
#
# Poissons Ratio (x) = 0.30300 0.56078
# Poissons Ratio (y) = 0.17746 0.38102
# Poissons Ratio (z) = 0.23388 0.27132
#
# Static dielectric constant tensor:
#      x y z
#    x 3.481080 0.000000 0.000000 
#    y 0.000000 3.341110 0.000000 
#    z 0.000000 0.000000 4.009950 
# 
# 
# High freq. dielectric constant tensor:
#      x y z
#    x 1.713930 0.000000 0.000000 
#    y 0.000000 1.740890 0.000000 
#    z 0.000000 0.000000 1.772320 
# 
# From -- ./inp_files/72468.got.cif
#   From: 2010.03.12/outbox.cif.g09.slc.cpg/sg65_37_cif.got.tgz:72468.got - 2010.04.10 20:52:16.
