data_PCOD8269680
_publ_section_title
;
Structure prediction by ZEFSAII (Michael W. Deem and Ramdas Pophale) SiO2 
 PCOD8269680
Probable space group: C M M M
;
_chemical_formula_sum "Si O2"
_cell_formula_units_Z 72
_cell_length_a 23.708395
_cell_length_b 17.808430
_cell_length_c 8.572999
_cell_angle_alpha 90.000000
_cell_angle_beta 90.000000
_cell_angle_gamma 90.000000
_cell_volume 3619.599845
_symmetry_space_group_name_H-M "C M M M"
_symmetry_group_IT_number 65
_symmetry_cell_setting 'orthorhombic'
loop_
_space_group_symop_operation_xyz
x,y,z
-x,-y,z
x,-y,-z
-x,y,-z
-x,-y,-z
x,y,-z
-x,y,z
x,-y,z
1/2+x,1/2+y,z
1/2-x,1/2-y,z
1/2+x,1/2-y,-z
1/2-x,1/2+y,-z
1/2-x,1/2-y,-z
1/2+x,1/2+y,-z
1/2-x,1/2+y,z
1/2+x,1/2-y,z
loop_
_atom_site_type_symbol
_atom_site_label
_atom_site_fract_x
_atom_site_fract_y
_atom_site_fract_z
Si Si1 0.380107 0.854121 0.818366
Si Si2 0.738658 0.163535 0.682289
Si Si3 0.066648 0.500000 0.676274
Si Si4 0.148028 0.915883 0.314314
Si Si5 0.936860 0.791945 0.315304
O O1 0.314597 0.865272 0.778928
O O2 0.404915 0.783848 0.726330
O O3 0.413354 0.927507 0.768461
O O4 0.388520 0.839948 0.000000
O O5 0.726771 0.150826 0.500000
O O6 0.750000 0.250000 0.719373
O O7 0.791872 0.115697 0.742325
O O8 0.091047 0.500000 0.500000
O O9 0.000000 0.500000 0.671974
O O10 0.146811 0.915145 0.500000
O O11 0.097965 0.863142 0.248561
O O12 0.139359 0.000000 0.248942
O O13 0.939847 0.796825 0.500000
O O14 0.000000 0.793293 0.243901
#
# Coordination Sequence:
#
# PCOD8269680 Si02
#       5
#    16  16   8  16  16
#     4  12  25  39  59  89 124 157 194 246 306 365
#     4  10  19  36  61  85 116 158 204 248 292 352
#     4  11  25  45  67  89 117 157 204 249 296 357
#     4   9  18  33  56  89 121 152 196 251 301 343
#     4  10  20  37  61  86 115 155 203 249 296 357
#
# _framework density 19.891701000000001
#
# number of rings (size 3 to 8) (size 9 to 14) (size 15 to 20)
#    0.000    1.667    2.222    3.000    1.556    4.889 
#    0.000    2.222    0.000    2.000    0.000    1.556 
#    0.000    0.000    0.000    0.000    0.000    0.000 
#
# Total GULP energy -446505.484412 kJ/mol
# GULP energy per Si atom -12402.930123 kJ/mol
# Density = 1.984643 g / cm^3
# Si number density = 19.891701 Si / 1000 Ang^3
#
#
#
# Elastic Constant Matrix: (Units=GPa)
#
#
# Indices 1 2 3 4 5 6 
#
# 1 144.1567 60.9385 13.7107 0.0000 0.0000 0.0000
# 2 60.9385 153.4214 0.7741 0.0000 0.0000 0.0000
# 3 13.7107 0.7741 21.4032 0.0000 0.0000 0.0000
# 4 0.0000 0.0000 0.0000 5.1101 0.0000 0.0000
# 5 0.0000 0.0000 0.0000 0.0000 -6.1351 0.0000
# 6 0.0000 0.0000 0.0000 0.0000 0.0000 172.3304
#
#
#
# Elastic Compliance Matrix: (Units=1/GPa)
#
#
# Indices 1 2 3 4 5 6 
#
# 1 0.008964 -0.003532 -0.005615 0.000000 0.000000 0.000000
# 2 -0.003532 0.007911 0.001977 0.000000 0.000000 0.000000
# 3 -0.005615 0.001977 0.050247 0.000000 0.000000 0.000000
# 4 0.000000 0.000000 0.000000 0.195689 0.000000 0.000000
# 5 0.000000 0.000000 0.000000 0.000000 -0.162996 0.000000
# 6 0.000000 0.000000 0.000000 0.000000 0.000000 0.005803
#
#
# Mechanical properties :
#
#
# Convention : Reuss Voigt Hill
#
# Bulk Modulus (GPa) = 18.94587 52.20307 35.57447
# Shear Modulus (GPa) = 36.34986 50.49828 43.42407
#
# Velocity S-wave (km/s) = 4.27943 5.04398 4.67735
# Velocity P-wave (km/s) = 5.82780 7.76034 6.86244
#
# Compressibility (1/GPa) = 0.05278194
#
# Stress axis : x y z
#
# Youngs Moduli (GPa) = 111.55714 126.40653 19.90161
#
# Poissons Ratio (x) = 0.44649 0.11174
# Poissons Ratio (y) = 0.39404 -0.03934
# Poissons Ratio (z) = 0.62634 -0.24985
#
# Static dielectric constant tensor:
#      x y z
#    x 3.966530 0.000000 0.000000 
#    y 0.000000 3.835450 0.000000 
#    z 0.000000 0.000000 3.292580 
# 
# 
# High freq. dielectric constant tensor:
#      x y z
#    x 1.792470 0.000000 0.000000 
#    y 0.000000 1.786360 0.000000 
#    z 0.000000 0.000000 1.740130 
# 
# From -- ./inp_files/9219.got.cif
#   From: 2010.03.12/outbox.cif.g09.slc.cpg/sg65_5_cif.got.tgz:9219.got - 2010.04.10 20:52:16.
