data_PCOD8269543
_publ_section_title
;
Structure prediction by ZEFSAII (Michael W. Deem and Ramdas Pophale) SiO2 
 PCOD8269543
Probable space group: C M M M
;
_chemical_formula_sum "Si O2"
_cell_formula_units_Z 104
_cell_length_a 17.691247
_cell_length_b 28.116035
_cell_length_c 12.809493
_cell_angle_alpha 90.000000
_cell_angle_beta 90.000000
_cell_angle_gamma 90.000000
_cell_volume 6371.540706
_symmetry_space_group_name_H-M "C M M M"
_symmetry_group_IT_number 65
_symmetry_cell_setting 'orthorhombic'
loop_
_space_group_symop_operation_xyz
x,y,z
-x,-y,z
x,-y,-z
-x,y,-z
-x,-y,-z
x,y,-z
-x,y,z
x,-y,z
1/2+x,1/2+y,z
1/2-x,1/2-y,z
1/2+x,1/2-y,-z
1/2-x,1/2+y,-z
1/2-x,1/2-y,-z
1/2+x,1/2+y,-z
1/2-x,1/2+y,z
1/2+x,1/2-y,z
loop_
_atom_site_type_symbol
_atom_site_label
_atom_site_fract_x
_atom_site_fract_y
_atom_site_fract_z
Si Si1 0.301055 0.625640 0.200592
Si Si2 0.261284 0.169797 0.000000
Si Si3 0.089563 0.443944 0.500000
Si Si4 0.415558 0.711332 0.215901
Si Si5 0.192563 0.622491 0.386800
Si Si6 0.916213 0.055157 0.117346
Si Si7 0.131702 0.752394 0.000000
Si Si8 0.332152 0.769538 0.380205
O O1 0.246906 0.636751 0.102220
O O2 0.354231 0.670014 0.224613
O O3 0.251264 0.608902 0.297905
O O4 0.353594 0.580438 0.184979
O O5 0.199609 0.210663 0.000000
O O6 0.341405 0.197227 0.000000
O O7 0.110177 0.500000 0.500000
O O8 0.125822 0.417522 0.602492
O O9 0.000000 0.436310 0.500000
O O10 0.500000 0.690958 0.232792
O O11 0.415781 0.738197 0.104579
O O12 0.396992 0.747717 0.308273
O O13 0.234913 0.625574 0.500000
O O14 0.159381 0.674326 0.361334
O O15 0.000000 0.064669 0.163290
O O16 0.897279 0.000000 0.117120
O O17 0.912980 0.075787 0.000000
O O18 0.347114 0.755109 0.500000
O O19 0.250000 0.750000 0.343962
#
# Coordination Sequence:
#
# PCOD8269543 Si02
#       8
#    16   8   8  16  16  16   8  16
#     4  11  18  32  51  76 107 134 175 216 259 313
#     4   9  18  28  49  71  90 141 171 209 258 304
#     4   9  20  40  61  84 107 127 170 229 274 316
#     4  11  22  31  48  75 105 141 178 215 252 300
#     4   9  20  34  56  79 102 136 170 207 269 320
#     4   9  18  32  49  71 102 139 177 221 267 303
#     4   9  19  32  44  64 104 134 176 210 252 301
#     4  10  19  35  53  70 103 137 172 215 256 304
#
# _framework density 16.322583000000002
#
# number of rings (size 3 to 8) (size 9 to 14) (size 15 to 20)
#    0.462    1.769    2.308    2.077    2.154    1.538 
#    0.000    0.000    0.000    1.385    0.000    1.077 
#    0.000    1.231    0.000    0.000    0.000    0.000 
#
# Total GULP energy -644485.715961 kJ/mol
# GULP energy per Si atom -12393.956076 kJ/mol
# Density = 1.628543 g / cm^3
# Si number density = 16.322583 Si / 1000 Ang^3
#
#
#
# Elastic Constant Matrix: (Units=GPa)
#
#
# Indices 1 2 3 4 5 6 
#
# 1 87.7201 45.5257 49.2954 0.0000 0.0000 0.0000
# 2 45.5257 83.9114 32.7759 0.0000 0.0000 0.0000
# 3 49.2954 32.7759 94.2141 0.0000 0.0000 0.0000
# 4 0.0000 0.0000 0.0000 16.4000 0.0000 0.0000
# 5 0.0000 0.0000 0.0000 0.0000 17.9329 0.0000
# 6 0.0000 0.0000 0.0000 0.0000 0.0000 184.2531
#
#
#
# Elastic Compliance Matrix: (Units=1/GPa)
#
#
# Indices 1 2 3 4 5 6 
#
# 1 0.019676 -0.007700 -0.007616 0.000000 0.000000 0.000000
# 2 -0.007700 0.016805 -0.001817 0.000000 0.000000 0.000000
# 3 -0.007616 -0.001817 0.015231 0.000000 0.000000 0.000000
# 4 0.000000 0.000000 0.000000 0.060975 0.000000 0.000000
# 5 0.000000 0.000000 0.000000 0.000000 0.055764 0.000000
# 6 0.000000 0.000000 0.000000 0.000000 0.000000 0.005427
#
#
# Mechanical properties :
#
#
# Convention : Reuss Voigt Hill
#
# Bulk Modulus (GPa) = 57.32341 57.89328 57.60834
# Shear Modulus (GPa) = 23.36866 52.93377 38.15121
#
# Velocity S-wave (km/s) = 3.78785 5.70089 4.83984
# Velocity P-wave (km/s) = 7.37060 8.88137 8.16102
#
# Compressibility (1/GPa) = 0.01744488
#
# Stress axis : x y z
#
# Youngs Moduli (GPa) = 50.82228 59.50638 65.65388
#
# Poissons Ratio (x) = 0.45822 0.50004
# Poissons Ratio (y) = 0.39135 0.11931
# Poissons Ratio (z) = 0.38708 0.10813
#
# Static dielectric constant tensor:
#      x y z
#    x 2.912910 0.000000 0.000000 
#    y 0.000000 3.029860 0.000000 
#    z 0.000000 0.000000 3.123630 
# 
# 
# High freq. dielectric constant tensor:
#      x y z
#    x 1.610110 0.000000 0.000000 
#    y 0.000000 1.619910 0.000000 
#    z 0.000000 0.000000 1.623600 
# 
# From -- ./inp_files/27770.got.cif
#   From: 2010.03.12/outbox.cif.g09.slc.cpg/sg65_14_cif.got.tgz:27770.got - 2010.04.10 20:52:16.
