data_PCOD8269696
_publ_section_title
;
Structure prediction by ZEFSAII (Michael W. Deem and Ramdas Pophale) SiO2 
 PCOD8269696
Probable space group: C M M M
;
_chemical_formula_sum "Si O2"
_cell_formula_units_Z 88
_cell_length_a 13.542052
_cell_length_b 19.093974
_cell_length_c 17.795334
_cell_angle_alpha 90.000000
_cell_angle_beta 90.000000
_cell_angle_gamma 90.000000
_cell_volume 4601.367786
_symmetry_space_group_name_H-M "C M M M"
_symmetry_group_IT_number 65
_symmetry_cell_setting 'orthorhombic'
loop_
_space_group_symop_operation_xyz
x,y,z
-x,-y,z
x,-y,-z
-x,y,-z
-x,-y,-z
x,y,-z
-x,y,z
x,-y,z
1/2+x,1/2+y,z
1/2-x,1/2-y,z
1/2+x,1/2-y,-z
1/2-x,1/2+y,-z
1/2-x,1/2-y,-z
1/2+x,1/2+y,-z
1/2-x,1/2+y,z
1/2+x,1/2-y,z
loop_
_atom_site_type_symbol
_atom_site_label
_atom_site_fract_x
_atom_site_fract_y
_atom_site_fract_z
Si Si1 0.392062 0.421705 0.410634
Si Si2 0.286248 0.500000 0.911808
Si Si3 0.284062 0.171122 0.584266
Si Si4 0.887035 0.144461 0.911308
Si Si5 0.250000 0.250000 0.823058
Si Si6 0.612967 0.000000 0.200983
Si Si7 0.388026 0.851919 0.729120
O O1 0.391642 0.419328 0.500000
O O2 0.500000 0.396718 0.381382
O O3 0.370879 0.500000 0.381685
O O4 0.307623 0.371374 0.379358
O O5 0.347930 0.568112 0.886969
O O6 0.179842 0.500000 0.872927
O O7 0.265319 0.500000 0.000000
O O8 0.312724 0.145395 0.500000
O O9 0.250000 0.250000 0.580901
O O10 0.376029 0.158684 0.639322
O O11 0.822690 0.205283 0.874625
O O12 0.000000 0.151330 0.884005
O O13 0.879188 0.153970 0.000000
O O14 0.313998 0.199165 0.771558
O O15 0.635999 0.932148 0.251178
O O16 0.500000 0.000000 0.172723
O O17 0.500000 0.832732 0.751074
#
# Coordination Sequence:
#
# PCOD8269696 Si02
#       7
#    16   8  16  16   8   8  16
#     4   8  15  30  53  79 105 133 169 219 278 337
#     4  10  19  37  64  90 122 159 196 242 291 342
#     4  10  21  37  57  84 114 148 188 237 298 360
#     4  10  21  37  61  93 124 157 196 240 293 349
#     4  12  21  40  63  84 120 158 194 244 289 360
#     4  10  22  42  62  82 118 162 204 242 288 348
#     4  11  24  41  60  83 114 156 198 245 298 349
#
# _framework density 19.124749000000001
#
# number of rings (size 3 to 8) (size 9 to 14) (size 15 to 20)
#    0.000    2.000    2.727    1.636    1.273    2.364 
#    0.000    1.818    0.000    1.636    0.000    0.000 
#    0.000    0.000    0.000    0.000    0.000    0.000 
#
# Total GULP energy -545560.131839 kJ/mol
# GULP energy per Si atom -12399.093905 kJ/mol
# Density = 1.908122 g / cm^3
# Si number density = 19.124749 Si / 1000 Ang^3
#
#
#
# Elastic Constant Matrix: (Units=GPa)
#
#
# Indices 1 2 3 4 5 6 
#
# 1 123.7559 68.9283 50.7913 0.0000 0.0000 0.0000
# 2 68.9283 126.4026 40.7246 0.0000 0.0000 0.0000
# 3 50.7913 40.7246 64.8903 0.0000 0.0000 0.0000
# 4 0.0000 0.0000 0.0000 49.4706 0.0000 0.0000
# 5 0.0000 0.0000 0.0000 0.0000 13.8145 0.0000
# 6 0.0000 0.0000 0.0000 0.0000 0.0000 30.7100
#
#
#
# Elastic Compliance Matrix: (Units=1/GPa)
#
#
# Indices 1 2 3 4 5 6 
#
# 1 0.014207 -0.005220 -0.007844 0.000000 0.000000 0.000000
# 2 -0.005220 0.011834 -0.003341 0.000000 0.000000 0.000000
# 3 -0.007844 -0.003341 0.023648 0.000000 0.000000 0.000000
# 4 0.000000 0.000000 0.000000 0.020214 0.000000 0.000000
# 5 0.000000 0.000000 0.000000 0.000000 0.072388 0.000000
# 6 0.000000 0.000000 0.000000 0.000000 0.000000 0.032563
#
#
# Mechanical properties :
#
#
# Convention : Reuss Voigt Hill
#
# Bulk Modulus (GPa) = 59.24933 70.65970 64.95452
# Shear Modulus (GPa) = 23.44219 29.10598 26.27409
#
# Velocity S-wave (km/s) = 3.50487 3.90539 3.71054
# Velocity P-wave (km/s) = 6.88669 7.57384 7.23842
#
# Compressibility (1/GPa) = 0.01687783
#
# Stress axis : x y z
#
# Youngs Moduli (GPa) = 70.38652 84.50060 42.28775
#
# Poissons Ratio (x) = 0.44110 0.33172
# Poissons Ratio (y) = 0.36742 0.14129
# Poissons Ratio (z) = 0.55214 0.28234
#
# Static dielectric constant tensor:
#      x y z
#    x 3.725460 0.000000 0.000000 
#    y 0.000000 3.674010 0.000000 
#    z 0.000000 0.000000 3.370870 
# 
# 
# High freq. dielectric constant tensor:
#      x y z
#    x 1.749530 0.000000 0.000000 
#    y 0.000000 1.756080 0.000000 
#    z 0.000000 0.000000 1.726210 
# 
# From -- ./inp_files/51480.got.cif
#   From: 2010.03.12/outbox.cif.g09.slc.cpg/sg65_26_cif.got.tgz:51480.got - 2010.04.10 20:52:16.
