data_PCOD8269064
_publ_section_title
;
Structure prediction by ZEFSAII (Michael W. Deem and Ramdas Pophale) SiO2 
 PCOD8269064
Probable space group: C M M M
;
_chemical_formula_sum "Si O2"
_cell_formula_units_Z 104
_cell_length_a 17.947665
_cell_length_b 34.184808
_cell_length_c 9.084498
_cell_angle_alpha 90.000000
_cell_angle_beta 90.000000
_cell_angle_gamma 90.000000
_cell_volume 5573.680029
_symmetry_space_group_name_H-M "C M M M"
_symmetry_group_IT_number 65
_symmetry_cell_setting 'orthorhombic'
loop_
_space_group_symop_operation_xyz
x,y,z
-x,-y,z
x,-y,-z
-x,y,-z
-x,-y,-z
x,y,-z
-x,y,z
x,-y,z
1/2+x,1/2+y,z
1/2-x,1/2-y,z
1/2+x,1/2-y,-z
1/2-x,1/2+y,-z
1/2-x,1/2-y,-z
1/2+x,1/2+y,-z
1/2-x,1/2+y,z
1/2+x,1/2-y,z
loop_
_atom_site_type_symbol
_atom_site_label
_atom_site_fract_x
_atom_site_fract_y
_atom_site_fract_z
Si Si1 0.084971 0.103647 0.170524
Si Si2 0.178954 0.331765 0.325501
Si Si3 0.645761 0.911116 0.825182
Si Si4 0.000000 0.543678 0.174767
Si Si5 0.792033 0.956267 0.825294
Si Si6 0.583948 0.758201 0.674986
Si Si7 0.150831 0.176987 0.325679
O O1 0.136766 0.068442 0.229739
O O2 0.100783 0.142967 0.258679
O O3 0.000000 0.090672 0.195929
O O4 0.102082 0.112000 0.000000
O O5 0.172854 0.336455 0.500000
O O6 0.142779 0.368989 0.248831
O O7 0.133538 0.294193 0.268095
O O8 0.264091 0.327257 0.274004
O O9 0.573241 0.934100 0.769287
O O10 0.717508 0.935037 0.768540
O O11 0.647041 0.905926 0.000000
O O12 0.000000 0.500000 0.241141
O O13 0.000000 0.541568 0.000000
O O14 0.796385 0.000000 0.757986
O O15 0.790768 0.959022 0.000000
O O16 0.583965 0.757565 0.500000
O O17 0.500000 0.762533 0.736128
O O18 0.619720 0.718098 0.734785
O O19 0.143986 0.174653 0.500000
#
# Coordination Sequence:
#
# PCOD8269064 Si02
#       7
#    16  16  16   8  16  16  16
#     4  10  20  33  51  77 107 134 166 212 260 303
#     4  10  20  33  52  77 104 134 170 212 256 302
#     4  10  19  33  54  78 105 136 171 212 256 305
#     4   9  18  32  53  81 107 135 177 223 259 299
#     4   9  17  31  52  75 100 133 170 206 248 301
#     4   9  18  32  51  75 101 133 172 210 248 300
#     4  10  19  34  55  76 100 134 175 212 249 299
#
# _framework density 18.659125
#
# number of rings (size 3 to 8) (size 9 to 14) (size 15 to 20)
#    0.000    2.385    1.538    1.385    1.077    4.923 
#    0.000    2.308    0.000    6.462    0.000    1.077 
#    0.000    0.000    0.000    0.000    0.000    0.000 
#
# Total GULP energy -644882.143204 kJ/mol
# GULP energy per Si atom -12401.579677 kJ/mol
# Density = 1.861666 g / cm^3
# Si number density = 18.659125 Si / 1000 Ang^3
#
#
#
# Elastic Constant Matrix: (Units=GPa)
#
#
# Indices 1 2 3 4 5 6 
#
# 1 154.3288 76.8768 17.9269 0.0000 0.0000 0.0000
# 2 76.8768 173.1780 20.3384 0.0000 0.0000 0.0000
# 3 17.9269 20.3384 13.1824 0.0000 0.0000 0.0000
# 4 0.0000 0.0000 0.0000 30.6030 0.0000 0.0000
# 5 0.0000 0.0000 0.0000 0.0000 16.7810 0.0000
# 6 0.0000 0.0000 0.0000 0.0000 0.0000 37.5560
#
#
#
# Elastic Compliance Matrix: (Units=1/GPa)
#
#
# Indices 1 2 3 4 5 6 
#
# 1 0.008860 -0.003075 -0.007304 0.000000 0.000000 0.000000
# 2 -0.003075 0.008120 -0.008345 0.000000 0.000000 0.000000
# 3 -0.007304 -0.008345 0.098667 0.000000 0.000000 0.000000
# 4 0.000000 0.000000 0.000000 0.032677 0.000000 0.000000
# 5 0.000000 0.000000 0.000000 0.000000 0.059591 0.000000
# 6 0.000000 0.000000 0.000000 0.000000 0.000000 0.026627
#
#
# Mechanical properties :
#
#
# Convention : Reuss Voigt Hill
#
# Bulk Modulus (GPa) = 12.78813 63.44149 38.11481
# Shear Modulus (GPa) = 16.77532 32.02447 24.39989
#
# Velocity S-wave (km/s) = 3.00165 4.14731 3.62009
# Velocity P-wave (km/s) = 4.34530 7.55034 6.15992
#
# Compressibility (1/GPa) = 0.07819750
#
# Stress axis : x y z
#
# Youngs Moduli (GPa) = 112.86619 123.15756 10.13508
#
# Poissons Ratio (x) = 0.37875 0.07403
# Poissons Ratio (y) = 0.34710 0.08458
# Poissons Ratio (z) = 0.82439 1.02778
#
# Static dielectric constant tensor:
#      x y z
#    x 3.668810 0.000000 0.000000 
#    y 0.000000 3.625020 0.000000 
#    z 0.000000 0.000000 2.922150 
# 
# 
# High freq. dielectric constant tensor:
#      x y z
#    x 1.741610 0.000000 0.000000 
#    y 0.000000 1.738710 0.000000 
#    z 0.000000 0.000000 1.670980 
# 
# From -- ./inp_files/27488.got.cif
#   From: 2010.03.12/outbox.cif.g09.slc.cpg/sg65_14_cif.got.tgz:27488.got - 2010.04.10 20:52:16.
