data_PCOD8269780
_publ_section_title
;
Structure prediction by ZEFSAII (Michael W. Deem and Ramdas Pophale) SiO2 
 PCOD8269780
Probable space group: C M M M
;
_chemical_formula_sum "Si O2"
_cell_formula_units_Z 96
_cell_length_a 14.061230
_cell_length_b 28.185263
_cell_length_c 14.371186
_cell_angle_alpha 90.000000
_cell_angle_beta 90.000000
_cell_angle_gamma 90.000000
_cell_volume 5695.580756
_symmetry_space_group_name_H-M "C M M M"
_symmetry_group_IT_number 65
_symmetry_cell_setting 'orthorhombic'
loop_
_space_group_symop_operation_xyz
x,y,z
-x,-y,z
x,-y,-z
-x,y,-z
-x,-y,-z
x,y,-z
-x,y,z
x,-y,z
1/2+x,1/2+y,z
1/2-x,1/2-y,z
1/2+x,1/2-y,-z
1/2-x,1/2+y,-z
1/2-x,1/2-y,-z
1/2+x,1/2+y,-z
1/2-x,1/2+y,z
1/2+x,1/2-y,z
loop_
_atom_site_type_symbol
_atom_site_label
_atom_site_fract_x
_atom_site_fract_y
_atom_site_fract_z
Si Si1 0.112455 0.730860 0.099967
Si Si2 0.200142 0.861293 0.291621
Si Si3 0.387672 0.662450 0.894793
Si Si4 0.391642 0.446224 0.608649
Si Si5 0.145033 0.230528 0.396102
Si Si6 0.604671 0.181455 0.282035
O O1 0.152650 0.783861 0.112693
O O2 0.146707 0.696758 0.181658
O O3 0.000000 0.735342 0.102805
O O4 0.146088 0.710062 0.000000
O O5 0.172094 0.866304 0.182693
O O6 0.177600 0.911354 0.337242
O O7 0.139479 0.818472 0.338263
O O8 0.312737 0.854060 0.315349
O O9 0.500000 0.659175 0.872667
O O10 0.368583 0.643094 0.000000
O O11 0.379506 0.436895 0.500000
O O12 0.500000 0.436649 0.639100
O O13 0.362605 0.500000 0.633668
O O14 0.103681 0.221717 0.500000
O O15 0.250000 0.250000 0.402976
O O16 0.086827 0.271797 0.344636
O O17 0.500000 0.156503 0.276068
#
# Coordination Sequence:
#
# PCOD8269780 Si02
#       6
#    16  16  16  16  16  16
#     4   8  14  26  42  60  90 131 168 200 230 261
#     4  11  19  30  51  72  92 126 164 195 235 287
#     4   9  17  28  44  69  98 126 161 203 241 280
#     4   9  19  36  57  79  97 113 144 197 253 296
#     4   9  18  30  42  61  90 123 159 195 230 273
#     4  10  20  31  42  65 101 134 164 196 228 269
#
# _framework density 16.855173000000001
#
# number of rings (size 3 to 8) (size 9 to 14) (size 15 to 20)
#    0.000    2.667    1.667    2.500    0.000    2.333 
#    0.000    1.667    0.000    1.000    0.000    3.500 
#    0.000    0.000    0.000    5.667    0.000    0.167 
#
# Total GULP energy -594822.682561 kJ/mol
# GULP energy per Si atom -12392.139220 kJ/mol
# Density = 1.681681 g / cm^3
# Si number density = 16.855173 Si / 1000 Ang^3
#
#
#
# Elastic Constant Matrix: (Units=GPa)
#
#
# Indices 1 2 3 4 5 6 
#
# 1 75.5810 37.9436 29.6102 0.0000 0.0000 0.0000
# 2 37.9436 78.8591 40.6198 0.0000 0.0000 0.0000
# 3 29.6102 40.6198 100.9605 0.0000 0.0000 0.0000
# 4 0.0000 0.0000 0.0000 18.2175 0.0000 0.0000
# 5 0.0000 0.0000 0.0000 0.0000 17.2354 0.0000
# 6 0.0000 0.0000 0.0000 0.0000 0.0000 20.0265
#
#
#
# Elastic Compliance Matrix: (Units=1/GPa)
#
#
# Indices 1 2 3 4 5 6 
#
# 1 0.017839 -0.007428 -0.002243 0.000000 0.000000 0.000000
# 2 -0.007428 0.019088 -0.005502 0.000000 0.000000 0.000000
# 3 -0.002243 -0.005502 0.012776 0.000000 0.000000 0.000000
# 4 0.000000 0.000000 0.000000 0.054892 0.000000 0.000000
# 5 0.000000 0.000000 0.000000 0.000000 0.058020 0.000000
# 6 0.000000 0.000000 0.000000 0.000000 0.000000 0.049934
#
#
# Mechanical properties :
#
#
# Convention : Reuss Voigt Hill
#
# Bulk Modulus (GPa) = 51.65756 52.41642 52.03699
# Shear Modulus (GPa) = 20.05232 20.91099 20.48165
#
# Velocity S-wave (km/s) = 3.45292 3.52608 3.48969
# Velocity P-wave (km/s) = 6.82725 6.90965 6.86857
#
# Compressibility (1/GPa) = 0.01935825
#
# Stress axis : x y z
#
# Youngs Moduli (GPa) = 56.05828 52.38758 78.27004
#
# Poissons Ratio (x) = 0.38911 0.17559
# Poissons Ratio (y) = 0.41638 0.43061
# Poissons Ratio (z) = 0.12576 0.28821
#
# Static dielectric constant tensor:
#      x y z
#    x 3.010430 0.000000 0.000000 
#    y 0.000000 2.699500 0.000000 
#    z 0.000000 0.000000 3.916660 
# 
# 
# High freq. dielectric constant tensor:
#      x y z
#    x 1.650410 0.000000 0.000000 
#    y 0.000000 1.581990 0.000000 
#    z 0.000000 0.000000 1.664880 
# 
# From -- ./inp_files/41268.got.cif
#   From: 2010.03.12/outbox.cif.g09.slc.cpg/sg65_21_cif.got.tgz:41268.got - 2010.04.10 20:52:16.
