data_PCOD8269485
_publ_section_title
;
Structure prediction by ZEFSAII (Michael W. Deem and Ramdas Pophale) SiO2 
 PCOD8269485
Probable space group: C M M M
;
_chemical_formula_sum "Si O2"
_cell_formula_units_Z 64
_cell_length_a 16.239738
_cell_length_b 8.789225
_cell_length_c 22.259273
_cell_angle_alpha 90.000000
_cell_angle_beta 90.000000
_cell_angle_gamma 90.000000
_cell_volume 3177.170904
_symmetry_space_group_name_H-M "C M M M"
_symmetry_group_IT_number 65
_symmetry_cell_setting 'orthorhombic'
loop_
_space_group_symop_operation_xyz
x,y,z
-x,-y,z
x,-y,-z
-x,y,-z
-x,-y,-z
x,y,-z
-x,y,z
x,-y,z
1/2+x,1/2+y,z
1/2-x,1/2-y,z
1/2+x,1/2-y,-z
1/2-x,1/2+y,-z
1/2-x,1/2-y,-z
1/2+x,1/2+y,-z
1/2-x,1/2+y,z
1/2+x,1/2-y,z
loop_
_atom_site_type_symbol
_atom_site_label
_atom_site_fract_x
_atom_site_fract_y
_atom_site_fract_z
Si Si1 0.837609 0.180352 0.886287
Si Si2 0.091846 0.180602 0.761195
Si Si3 0.000000 0.180703 0.568318
Si Si4 0.336588 0.680174 0.636914
Si Si5 0.906773 0.334801 0.000000
O O1 0.750000 0.250000 0.898417
O O2 0.872389 0.245810 0.823414
O O3 0.892349 0.234471 0.941237
O O4 0.833991 0.000000 0.884783
O O5 0.149323 0.232246 0.705896
O O6 0.000000 0.246034 0.751534
O O7 0.087706 0.000000 0.763671
O O8 0.915697 0.241464 0.599297
O O9 0.000000 0.238303 0.500000
O O10 0.000000 0.000000 0.573208
O O11 0.329964 0.500000 0.630344
O O12 0.250000 0.750000 0.613687
O O13 0.858719 0.500000 0.000000
O O14 0.000000 0.379350 0.000000
#
# Coordination Sequence:
#
# PCOD8269485 Si02
#       5
#    16  16   8  16   8
#     4  11  22  36  56  80 108 140 181 227 276 333
#     4   9  17  32  55  81 107 142 186 231 276 329
#     4   9  18  34  57  83 113 154 197 230 270 337
#     4  10  19  34  57  83 114 149 191 237 283 334
#     4  11  24  41  58  77 105 139 178 225 280 335
#
# _framework density 20.143706999999999
#
# number of rings (size 3 to 8) (size 9 to 14) (size 15 to 20)
#    0.000    2.000    1.250    3.000    0.000    2.500 
#    0.000    1.875    0.000    3.750    0.000    0.000 
#    0.000    0.000    0.000    0.000    0.000    0.000 
#
# Total GULP energy -396671.663178 kJ/mol
# GULP energy per Si atom -12395.989474 kJ/mol
# Density = 2.009786 g / cm^3
# Si number density = 20.143707 Si / 1000 Ang^3
#
#
#
# Elastic Constant Matrix: (Units=GPa)
#
#
# Indices 1 2 3 4 5 6 
#
# 1 145.9884 25.9240 60.3854 0.0000 0.0000 0.0000
# 2 25.9240 47.4063 25.6142 0.0000 0.0000 0.0000
# 3 60.3854 25.6142 155.9774 0.0000 0.0000 0.0000
# 4 0.0000 0.0000 0.0000 12.6738 0.0000 0.0000
# 5 0.0000 0.0000 0.0000 0.0000 29.9175 0.0000
# 6 0.0000 0.0000 0.0000 0.0000 0.0000 20.0926
#
#
#
# Elastic Compliance Matrix: (Units=1/GPa)
#
#
# Indices 1 2 3 4 5 6 
#
# 1 0.008571 -0.003176 -0.002796 0.000000 0.000000 0.000000
# 2 -0.003176 0.024325 -0.002765 0.000000 0.000000 0.000000
# 3 -0.002796 -0.002765 0.007948 0.000000 0.000000 0.000000
# 4 0.000000 0.000000 0.000000 0.078903 0.000000 0.000000
# 5 0.000000 0.000000 0.000000 0.000000 0.033425 0.000000
# 6 0.000000 0.000000 0.000000 0.000000 0.000000 0.049769
#
#
# Mechanical properties :
#
#
# Convention : Reuss Voigt Hill
#
# Bulk Modulus (GPa) = 42.79248 63.69103 53.24175
# Shear Modulus (GPa) = 21.91007 28.36668 25.13837
#
# Velocity S-wave (km/s) = 3.30159 3.75669 3.53647
# Velocity P-wave (km/s) = 5.98529 7.10661 6.56992
#
# Compressibility (1/GPa) = 0.02336859
#
# Stress axis : x y z
#
# Youngs Moduli (GPa) = 116.67908 41.11012 125.81949
#
# Poissons Ratio (x) = 0.13056 0.35185
# Poissons Ratio (y) = 0.37055 0.34790
# Poissons Ratio (z) = 0.32629 0.11367
#
# Static dielectric constant tensor:
#      x y z
#    x 3.790870 0.000000 0.000000 
#    y 0.000000 3.266880 0.000000 
#    z 0.000000 0.000000 3.967460 
# 
# 
# High freq. dielectric constant tensor:
#      x y z
#    x 1.799180 0.000000 0.000000 
#    y 0.000000 1.745230 0.000000 
#    z 0.000000 0.000000 1.794880 
# 
# From -- ./inp_files/66796.got.cif
#   From: 2010.03.12/outbox.cif.g09.slc.cpg/sg65_34_cif.got.tgz:66796.got - 2010.04.10 20:52:16.
