data_PCOD8269510
_publ_section_title
;
Structure prediction by ZEFSAII (Michael W. Deem and Ramdas Pophale) SiO2 
 PCOD8269510
Probable space group: C M M M
;
_chemical_formula_sum "Si O2"
_cell_formula_units_Z 88
_cell_length_a 8.835637
_cell_length_b 23.442634
_cell_length_c 22.919641
_cell_angle_alpha 90.000000
_cell_angle_beta 90.000000
_cell_angle_gamma 90.000000
_cell_volume 4747.359092
_symmetry_space_group_name_H-M "C M M M"
_symmetry_group_IT_number 65
_symmetry_cell_setting 'orthorhombic'
loop_
_space_group_symop_operation_xyz
x,y,z
-x,-y,z
x,-y,-z
-x,y,-z
-x,-y,-z
x,y,-z
-x,y,z
x,-y,z
1/2+x,1/2+y,z
1/2-x,1/2-y,z
1/2+x,1/2-y,-z
1/2-x,1/2+y,-z
1/2-x,1/2-y,-z
1/2+x,1/2+y,-z
1/2-x,1/2+y,z
1/2+x,1/2-y,z
loop_
_atom_site_type_symbol
_atom_site_label
_atom_site_fract_x
_atom_site_fract_y
_atom_site_fract_z
Si Si1 0.678724 0.189001 0.830991
Si Si2 0.323184 0.435254 0.383422
Si Si3 0.170319 0.432256 0.500000
Si Si4 0.177942 0.111850 0.261603
Si Si5 0.324353 0.000000 0.211275
Si Si6 0.172263 0.874991 0.935849
Si Si7 0.831124 0.000000 0.903699
O O1 0.500000 0.193945 0.826000
O O2 0.750000 0.250000 0.843305
O O3 0.741008 0.165098 0.769354
O O4 0.719271 0.148547 0.885417
O O5 0.500000 0.438182 0.394658
O O6 0.263765 0.500000 0.369782
O O7 0.248224 0.408829 0.441363
O O8 0.284385 0.391970 0.330600
O O9 0.183788 0.500000 0.500000
O O10 0.000000 0.410168 0.500000
O O11 0.239283 0.054654 0.234264
O O12 0.000000 0.116717 0.250156
O O13 0.500000 0.000000 0.229125
O O14 0.305205 0.000000 0.142254
O O15 0.000000 0.857645 0.919997
O O16 0.187489 0.943237 0.941940
O O17 0.216037 0.850127 0.000000
O O18 0.000000 0.000000 0.874433
#
# Coordination Sequence:
#
# PCOD8269510 Si02
#       7
#    16  16   8  16   8  16   8
#     4  12  26  43  61  82 108 142 184 234 285 334
#     4   9  17  30  49  74 107 150 190 220 262 323
#     4   9  17  27  41  69 110 151 186 225 267 308
#     4  11  21  37  58  82 111 147 187 231 280 331
#     4  12  22  31  51  84 116 147 181 224 276 333
#     4  10  21  38  61  87 114 147 184 223 272 331
#     4  10  19  34  58  84 116 150 179 216 267 331
#
# _framework density 18.536622000000001
#
# number of rings (size 3 to 8) (size 9 to 14) (size 15 to 20)
#    0.000    1.545    2.727    3.545    0.000    4.364 
#    0.000    0.000    0.000    1.636    0.000    0.636 
#    0.000    0.000    0.000    0.000    0.000    0.000 
#
# Total GULP energy -545467.622323 kJ/mol
# GULP energy per Si atom -12396.991416 kJ/mol
# Density = 1.849443 g / cm^3
# Si number density = 18.536622 Si / 1000 Ang^3
#
#
#
# Elastic Constant Matrix: (Units=GPa)
#
#
# Indices 1 2 3 4 5 6 
#
# 1 103.1635 32.2301 60.1528 0.0000 0.0000 0.0000
# 2 32.2301 72.9375 30.4179 0.0000 0.0000 0.0000
# 3 60.1528 30.4179 137.2953 0.0000 0.0000 0.0000
# 4 0.0000 0.0000 0.0000 11.3580 0.0000 0.0000
# 5 0.0000 0.0000 0.0000 0.0000 16.9400 0.0000
# 6 0.0000 0.0000 0.0000 0.0000 0.0000 24.9526
#
#
#
# Elastic Compliance Matrix: (Units=1/GPa)
#
#
# Indices 1 2 3 4 5 6 
#
# 1 0.014003 -0.003999 -0.005249 0.000000 0.000000 0.000000
# 2 -0.003999 0.016248 -0.001848 0.000000 0.000000 0.000000
# 3 -0.005249 -0.001848 0.009993 0.000000 0.000000 0.000000
# 4 0.000000 0.000000 0.000000 0.088044 0.000000 0.000000
# 5 0.000000 0.000000 0.000000 0.000000 0.059032 0.000000
# 6 0.000000 0.000000 0.000000 0.000000 0.000000 0.040076
#
#
# Mechanical properties :
#
#
# Convention : Reuss Voigt Hill
#
# Bulk Modulus (GPa) = 55.39415 62.11089 58.75252
# Shear Modulus (GPa) = 19.56141 23.35649 21.45895
#
# Velocity S-wave (km/s) = 3.25204 3.55352 3.40612
# Velocity P-wave (km/s) = 6.63698 7.10046 6.87263
#
# Compressibility (1/GPa) = 0.01805245
#
# Stress axis : x y z
#
# Youngs Moduli (GPa) = 71.41105 61.54617 100.07169
#
# Poissons Ratio (x) = 0.24611 0.52531
# Poissons Ratio (y) = 0.28555 0.18491
# Poissons Ratio (z) = 0.37486 0.11372
#
# Static dielectric constant tensor:
#      x y z
#    x 3.419710 0.000000 0.000000 
#    y 0.000000 3.112760 0.000000 
#    z 0.000000 0.000000 3.615140 
# 
# 
# High freq. dielectric constant tensor:
#      x y z
#    x 1.720980 0.000000 0.000000 
#    y 0.000000 1.680080 0.000000 
#    z 0.000000 0.000000 1.727730 
# 
# From -- ./inp_files/67679.got.cif
#   From: 2010.03.12/outbox.cif.g09.slc.cpg/sg65_34_cif.got.tgz:67679.got - 2010.04.10 20:52:16.
