data_PCOD8269440
_publ_section_title
;
Structure prediction by ZEFSAII (Michael W. Deem and Ramdas Pophale) SiO2 
 PCOD8269440
Probable space group: C M M M
;
_chemical_formula_sum "Si O2"
_cell_formula_units_Z 64
_cell_length_a 8.657605
_cell_length_b 15.555831
_cell_length_c 23.991645
_cell_angle_alpha 90.000000
_cell_angle_beta 90.000000
_cell_angle_gamma 90.000000
_cell_volume 3231.104546
_symmetry_space_group_name_H-M "C M M M"
_symmetry_group_IT_number 65
_symmetry_cell_setting 'orthorhombic'
loop_
_space_group_symop_operation_xyz
x,y,z
-x,-y,z
x,-y,-z
-x,y,-z
-x,-y,-z
x,y,-z
-x,y,z
x,-y,z
1/2+x,1/2+y,z
1/2-x,1/2-y,z
1/2+x,1/2-y,-z
1/2-x,1/2+y,-z
1/2-x,1/2-y,-z
1/2+x,1/2+y,-z
1/2-x,1/2+y,z
1/2+x,1/2-y,z
loop_
_atom_site_type_symbol
_atom_site_label
_atom_site_fract_x
_atom_site_fract_y
_atom_site_fract_z
Si Si1 0.316628 0.000000 0.315551
Si Si2 0.316601 0.340317 0.381471
Si Si3 0.683660 0.096522 0.000000
Si Si4 0.316714 0.160584 0.881927
Si Si5 0.683057 0.403855 0.500000
Si Si6 0.816755 0.500000 0.188466
O O1 0.249591 0.084729 0.343547
O O2 0.500000 0.000000 0.320819
O O3 0.259737 0.000000 0.251871
O O4 0.500000 0.340624 0.377015
O O5 0.250000 0.250000 0.359842
O O6 0.258982 0.354434 0.445030
O O7 0.743920 0.145129 0.944945
O O8 0.500000 0.092314 0.000000
O O9 0.750409 0.000000 0.000000
O O10 0.500000 0.163566 0.879955
O O11 0.250000 0.250000 0.859228
O O12 0.252524 0.084758 0.842454
O O13 0.753339 0.500000 0.500000
O O14 0.500000 0.410152 0.500000
O O15 0.000000 0.500000 0.184849
#
# Coordination Sequence:
#
# PCOD8269440 Si02
#       6
#     8  16   8  16   8   8
#     4  11  23  40  59  83 113 151 198 241 282 332
#     4  11  22  39  62  88 118 151 187 232 285 340
#     4   9  15  28  55  82 105 140 181 217 266 334
#     4  10  19  34  56  82 109 141 180 224 274 328
#     4   9  17  34  60  87 116 148 182 227 284 341
#     4   9  20  38  58  77 106 147 190 229 268 326
#
# _framework density 19.807468
#
# number of rings (size 3 to 8) (size 9 to 14) (size 15 to 20)
#    0.000    2.000    2.500    1.875    0.000    1.000 
#    0.000    8.125    0.000    0.750    0.000    0.000 
#    0.000    0.000    0.000    0.000    0.000    0.000 
#
# Total GULP energy -396832.698757 kJ/mol
# GULP energy per Si atom -12401.021836 kJ/mol
# Density = 1.976239 g / cm^3
# Si number density = 19.807468 Si / 1000 Ang^3
#
#
#
# Elastic Constant Matrix: (Units=GPa)
#
#
# Indices 1 2 3 4 5 6 
#
# 1 46.9353 36.9379 37.5240 0.0000 0.0000 0.0000
# 2 36.9379 203.0525 88.6903 0.0000 0.0000 0.0000
# 3 37.5240 88.6903 165.1506 0.0000 0.0000 0.0000
# 4 0.0000 0.0000 0.0000 -46.5040 0.0000 0.0000
# 5 0.0000 0.0000 0.0000 0.0000 13.4699 0.0000
# 6 0.0000 0.0000 0.0000 0.0000 0.0000 32.4656
#
#
#
# Elastic Compliance Matrix: (Units=1/GPa)
#
#
# Indices 1 2 3 4 5 6 
#
# 1 0.027325 -0.002951 -0.004624 0.000000 0.000000 0.000000
# 2 -0.002951 0.006753 -0.002956 0.000000 0.000000 0.000000
# 3 -0.004624 -0.002956 0.008693 0.000000 0.000000 0.000000
# 4 0.000000 0.000000 0.000000 -0.021504 0.000000 0.000000
# 5 0.000000 0.000000 0.000000 0.000000 0.074240 0.000000
# 6 0.000000 0.000000 0.000000 0.000000 0.000000 0.030802
#
#
# Mechanical properties :
#
#
# Convention : Reuss Voigt Hill
#
# Bulk Modulus (GPa) = 46.06311 82.38253 64.22282
# Shear Modulus (GPa) = 32.34008 16.68537 24.51272
#
# Velocity S-wave (km/s) = 4.04508 2.90552 3.52170
# Velocity P-wave (km/s) = 6.71735 7.27585 7.00217
#
# Compressibility (1/GPa) = 0.02170935
#
# Stress axis : x y z
#
# Youngs Moduli (GPa) = 36.59638 148.08703 115.03503
#
# Poissons Ratio (x) = 0.43704 0.53188
# Poissons Ratio (y) = 0.10801 0.34003
# Poissons Ratio (z) = 0.16921 0.43773
#
# Static dielectric constant tensor:
#      x y z
#    x 3.172620 0.000000 0.000000 
#    y 0.000000 3.763160 0.000000 
#    z 0.000000 0.000000 3.827460 
# 
# 
# High freq. dielectric constant tensor:
#      x y z
#    x 1.735400 0.000000 0.000000 
#    y 0.000000 1.790220 0.000000 
#    z 0.000000 0.000000 1.774190 
# 
# From -- ./inp_files/66913.got.cif
#   From: 2010.03.12/outbox.cif.g09.slc.cpg/sg65_34_cif.got.tgz:66913.got - 2010.04.10 20:52:16.
