data_PCOD8269006
_publ_section_title
;
Structure prediction by ZEFSAII (Michael W. Deem and Ramdas Pophale) SiO2 
 PCOD8269006
Probable space group: C M M M
;
_chemical_formula_sum "Si O2"
_cell_formula_units_Z 64
_cell_length_a 15.728431
_cell_length_b 7.791609
_cell_length_c 24.406814
_cell_angle_alpha 90.000000
_cell_angle_beta 90.000000
_cell_angle_gamma 90.000000
_cell_volume 2991.049797
_symmetry_space_group_name_H-M "C M M M"
_symmetry_group_IT_number 65
_symmetry_cell_setting 'orthorhombic'
loop_
_space_group_symop_operation_xyz
x,y,z
-x,-y,z
x,-y,-z
-x,y,-z
-x,-y,-z
x,y,-z
-x,y,z
x,-y,z
1/2+x,1/2+y,z
1/2-x,1/2-y,z
1/2+x,1/2-y,-z
1/2-x,1/2+y,-z
1/2-x,1/2-y,-z
1/2+x,1/2+y,-z
1/2-x,1/2+y,z
1/2+x,1/2-y,z
loop_
_atom_site_type_symbol
_atom_site_label
_atom_site_fract_x
_atom_site_fract_y
_atom_site_fract_z
Si Si1 0.000000 0.795014 0.561708
Si Si2 0.398472 0.000000 0.938237
Si Si3 0.842077 0.201478 0.630976
Si Si4 0.094287 0.796600 0.744230
Si Si5 0.101604 0.807864 0.136041
O O1 0.915998 0.722188 0.592241
O O2 0.000000 0.723056 0.500000
O O3 0.000000 0.000000 0.561668
O O4 0.363800 0.171324 0.908166
O O5 0.500000 0.000000 0.937610
O O6 0.363226 0.000000 0.000000
O O7 0.750000 0.250000 0.606988
O O8 0.850442 0.275309 0.693242
O O9 0.853537 0.000000 0.632103
O O10 0.134028 0.747146 0.803559
O O11 0.000000 0.717469 0.738249
O O12 0.087621 0.000000 0.741487
O O13 0.000000 0.810551 0.137347
O O14 0.134882 0.000000 0.121127
#
# Coordination Sequence:
#
# PCOD8269006 Si02
#       5
#     8   8  16  16  16
#     4   9  18  34  57  79 103 147 195 220 256 329
#     4   9  16  24  34  56  94 132 168 215 266 319
#     4  10  19  33  53  78 108 138 178 228 277 326
#     4   8  13  26  48  67  88 129 173 212 260 322
#     4   8  14  24  39  59  84 123 174 215 262 325
#
# _framework density 21.397169999999999
#
# number of rings (size 3 to 8) (size 9 to 14) (size 15 to 20)
#    0.000    3.250    1.250    1.500    0.000    1.000 
#    2.250    3.125    0.000    0.750    0.000    0.000 
#    0.000    1.000    0.500    0.000    0.000    0.000 
#
# Total GULP energy -396507.103549 kJ/mol
# GULP energy per Si atom -12390.846986 kJ/mol
# Density = 2.134847 g / cm^3
# Si number density = 21.397170 Si / 1000 Ang^3
#
#
#
# Elastic Constant Matrix: (Units=GPa)
#
#
# Indices 1 2 3 4 5 6 
#
# 1 94.8630 13.2383 58.7254 0.0000 0.0000 0.0000
# 2 13.2383 65.4860 56.4922 0.0000 0.0000 0.0000
# 3 58.7254 56.4922 201.8682 0.0000 0.0000 0.0000
# 4 0.0000 0.0000 0.0000 12.0374 0.0000 0.0000
# 5 0.0000 0.0000 0.0000 0.0000 7.2923 0.0000
# 6 0.0000 0.0000 0.0000 0.0000 0.0000 13.9589
#
#
#
# Elastic Compliance Matrix: (Units=1/GPa)
#
#
# Indices 1 2 3 4 5 6 
#
# 1 0.012891 0.000829 -0.003982 0.000000 0.000000 0.000000
# 2 0.000829 0.020183 -0.005890 0.000000 0.000000 0.000000
# 3 -0.003982 -0.005890 0.007760 0.000000 0.000000 0.000000
# 4 0.000000 0.000000 0.000000 0.083074 0.000000 0.000000
# 5 0.000000 0.000000 0.000000 0.000000 0.137131 0.000000
# 6 0.000000 0.000000 0.000000 0.000000 0.000000 0.071639
#
#
# Mechanical properties :
#
#
# Convention : Reuss Voigt Hill
#
# Bulk Modulus (GPa) = 43.95610 68.79212 56.37411
# Shear Modulus (GPa) = 13.95294 22.24181 18.09737
#
# Velocity S-wave (km/s) = 2.55638 3.22759 2.91139
# Velocity P-wave (km/s) = 5.41304 6.79041 6.14047
#
# Compressibility (1/GPa) = 0.02274997
#
# Stress axis : x y z
#
# Youngs Moduli (GPa) = 77.57360 49.54550 128.86010
#
# Poissons Ratio (x) = -0.04109 0.51315
# Poissons Ratio (y) = -0.06433 0.75893
# Poissons Ratio (z) = 0.30891 0.29180
#
# Static dielectric constant tensor:
#      x y z
#    x 3.748260 0.000000 0.000000 
#    y 0.000000 3.538790 0.000000 
#    z 0.000000 0.000000 4.254380 
# 
# 
# High freq. dielectric constant tensor:
#      x y z
#    x 1.797630 0.000000 0.000000 
#    y 0.000000 1.808450 0.000000 
#    z 0.000000 0.000000 1.840340 
# 
# From -- ./inp_files/66959.got.cif
#   From: 2010.03.12/outbox.cif.g09.slc.cpg/sg65_34_cif.got.tgz:66959.got - 2010.04.10 20:52:16.
