data_PCOD8269414
_publ_section_title
;
Structure prediction by ZEFSAII (Michael W. Deem and Ramdas Pophale) SiO2 
 PCOD8269414
Probable space group: C M M M
;
_chemical_formula_sum "Si O2"
_cell_formula_units_Z 96
_cell_length_a 8.744055
_cell_length_b 18.772393
_cell_length_c 30.430975
_cell_angle_alpha 90.000000
_cell_angle_beta 90.000000
_cell_angle_gamma 90.000000
_cell_volume 4995.148289
_symmetry_space_group_name_H-M "C M M M"
_symmetry_group_IT_number 65
_symmetry_cell_setting 'orthorhombic'
loop_
_space_group_symop_operation_xyz
x,y,z
-x,-y,z
x,-y,-z
-x,y,-z
-x,-y,-z
x,y,-z
-x,y,z
x,-y,z
1/2+x,1/2+y,z
1/2-x,1/2-y,z
1/2+x,1/2-y,-z
1/2-x,1/2+y,-z
1/2-x,1/2-y,-z
1/2+x,1/2+y,-z
1/2-x,1/2+y,z
1/2+x,1/2-y,z
loop_
_atom_site_type_symbol
_atom_site_label
_atom_site_fract_x
_atom_site_fract_y
_atom_site_fract_z
Si Si1 0.673622 0.416385 0.549714
Si Si2 0.318273 0.420016 0.205603
Si Si3 0.677218 0.918807 0.050772
Si Si4 0.681574 0.673210 0.712887
Si Si5 0.178828 0.325339 0.621739
Si Si6 0.679866 0.672369 0.124329
O O1 0.711070 0.392379 0.500000
O O2 0.500000 0.394676 0.561794
O O3 0.695772 0.500000 0.554557
O O4 0.791933 0.379404 0.582231
O O5 0.500000 0.422806 0.203809
O O6 0.250337 0.500000 0.204098
O O7 0.263150 0.382326 0.250293
O O8 0.254726 0.375752 0.164109
O O9 0.500000 0.905632 0.061394
O O10 0.778731 0.864755 0.078550
O O11 0.722589 0.000000 0.062300
O O12 0.711677 0.903048 0.000000
O O13 0.500000 0.679402 0.710880
O O14 0.750000 0.750000 0.724581
O O15 0.744115 0.645223 0.666274
O O16 0.250000 0.250000 0.608420
O O17 0.000000 0.316291 0.629889
O O18 0.500000 0.680512 0.127828
O O19 0.750000 0.750000 0.127476
#
# Coordination Sequence:
#
# PCOD8269414 Si02
#       6
#    16  16  16  16  16  16
#     4   9  19  37  59  81 107 141 180 221 268 323
#     4   9  19  35  55  80 107 137 176 221 269 322
#     4   9  19  37  59  82 110 143 179 222 272 324
#     4  10  19  34  56  78 105 140 176 217 266 320
#     4  11  22  36  55  80 111 144 181 224 268 317
#     4  11  22  36  56  81 111 145 183 226 270 320
#
# _framework density 19.21865
#
# number of rings (size 3 to 8) (size 9 to 14) (size 15 to 20)
#    0.000    2.167    0.000    5.500    0.000    3.333 
#    0.000    5.833    0.000    5.500    0.000    0.000 
#    0.000    0.000    0.000    0.000    0.000    0.000 
#
# Total GULP energy -595308.601558 kJ/mol
# GULP energy per Si atom -12402.262532 kJ/mol
# Density = 1.917491 g / cm^3
# Si number density = 19.218650 Si / 1000 Ang^3
#
#
#
# Elastic Constant Matrix: (Units=GPa)
#
#
# Indices 1 2 3 4 5 6 
#
# 1 80.0779 40.3988 42.4356 0.0000 0.0000 0.0000
# 2 40.3988 127.2731 83.3827 0.0000 0.0000 0.0000
# 3 42.4356 83.3827 132.2768 0.0000 0.0000 0.0000
# 4 0.0000 0.0000 0.0000 42.0205 0.0000 0.0000
# 5 0.0000 0.0000 0.0000 0.0000 26.5824 0.0000
# 6 0.0000 0.0000 0.0000 0.0000 0.0000 20.2433
#
#
#
# Elastic Compliance Matrix: (Units=1/GPa)
#
#
# Indices 1 2 3 4 5 6 
#
# 1 0.015632 -0.002856 -0.003215 0.000000 0.000000 0.000000
# 2 -0.002856 0.013907 -0.007850 0.000000 0.000000 0.000000
# 3 -0.003215 -0.007850 0.013540 0.000000 0.000000 0.000000
# 4 0.000000 0.000000 0.000000 0.023798 0.000000 0.000000
# 5 0.000000 0.000000 0.000000 0.000000 0.037619 0.000000
# 6 0.000000 0.000000 0.000000 0.000000 0.000000 0.049399
#
#
# Mechanical properties :
#
#
# Convention : Reuss Voigt Hill
#
# Bulk Modulus (GPa) = 65.62903 74.67355 70.15129
# Shear Modulus (GPa) = 26.76454 29.32995 28.04724
#
# Velocity S-wave (km/s) = 3.73585 3.91080 3.82432
# Velocity P-wave (km/s) = 7.26853 7.70270 7.48876
#
# Compressibility (1/GPa) = 0.01523716
#
# Stress axis : x y z
#
# Youngs Moduli (GPa) = 63.97072 71.90869 73.85741
#
# Poissons Ratio (x) = 0.20536 0.23743
# Poissons Ratio (y) = 0.18269 0.57978
# Poissons Ratio (z) = 0.20565 0.56448
#
# Static dielectric constant tensor:
#      x y z
#    x 3.347230 0.000000 0.000000 
#    y 0.000000 3.515520 0.000000 
#    z 0.000000 0.000000 3.634300 
# 
# 
# High freq. dielectric constant tensor:
#      x y z
#    x 1.734990 0.000000 0.000000 
#    y 0.000000 1.748020 0.000000 
#    z 0.000000 0.000000 1.760030 
# 
# From -- ./inp_files/73168.got.cif
#   From: 2010.03.12/outbox.cif.g09.slc.cpg/sg65_37_cif.got.tgz:73168.got - 2010.04.10 20:52:16.
