data_PCOD8269234
_publ_section_title
;
Structure prediction by ZEFSAII (Michael W. Deem and Ramdas Pophale) SiO2 
 PCOD8269234
Probable space group: C M M M
;
_chemical_formula_sum "Si O2"
_cell_formula_units_Z 80
_cell_length_a 23.490128
_cell_length_b 10.003997
_cell_length_c 18.267076
_cell_angle_alpha 90.000000
_cell_angle_beta 90.000000
_cell_angle_gamma 90.000000
_cell_volume 4292.674631
_symmetry_space_group_name_H-M "C M M M"
_symmetry_group_IT_number 65
_symmetry_cell_setting 'orthorhombic'
loop_
_space_group_symop_operation_xyz
x,y,z
-x,-y,z
x,-y,-z
-x,y,-z
-x,-y,-z
x,y,-z
-x,y,z
x,-y,z
1/2+x,1/2+y,z
1/2-x,1/2-y,z
1/2+x,1/2-y,-z
1/2-x,1/2+y,-z
1/2-x,1/2-y,-z
1/2+x,1/2+y,-z
1/2-x,1/2+y,z
1/2+x,1/2-y,z
loop_
_atom_site_type_symbol
_atom_site_label
_atom_site_fract_x
_atom_site_fract_y
_atom_site_fract_z
Si Si1 0.806335 0.662194 0.717681
Si Si2 0.500000 0.742691 0.580984
Si Si3 0.122789 0.653525 0.579220
Si Si4 0.568200 0.500000 0.085998
Si Si5 0.500000 0.350747 0.266635
Si Si6 0.933916 0.500000 0.920074
Si Si7 0.099773 0.251724 0.824941
O O1 0.796339 0.500000 0.719650
O O2 0.750000 0.750000 0.717005
O O3 0.840704 0.712786 0.645860
O O4 0.839810 0.711349 0.789582
O O5 0.500000 0.674620 0.500000
O O6 0.444608 0.833825 0.592250
O O7 0.500000 0.633152 0.645335
O O8 0.139168 0.720241 0.500000
O O9 0.138337 0.500000 0.575241
O O10 0.500000 0.500000 0.100614
O O11 0.600364 0.375513 0.122226
O O12 0.580542 0.500000 0.000000
O O13 0.500000 0.500000 0.232868
O O14 0.555143 0.269790 0.240682
O O15 0.917699 0.628500 0.875567
O O16 0.000000 0.500000 0.933670
O O17 0.903590 0.500000 0.000000
#
# Coordination Sequence:
#
# PCOD8269234 Si02
#       7
#    16   8  16   8   8   8  16
#     4  11  25  41  62  87 115 160 212 262 304 346
#     4  10  19  33  56  87 126 163 193 234 301 368
#     4   9  18  34  57  88 122 155 196 245 300 360
#     4  11  22  38  63  97 133 162 190 227 298 380
#     4  12  22  35  57  89 124 166 200 242 296 358
#     4  11  22  36  61  97 131 152 182 237 304 368
#     4  12  21  39  60  91 124 161 196 245 298 359
#
# _framework density 18.636399000000001
#
# number of rings (size 3 to 8) (size 9 to 14) (size 15 to 20)
#    0.000    1.200    6.000    0.900    1.400    3.400 
#    1.800    0.000    0.000    3.600    0.000    0.000 
#    0.000    0.000    0.000    0.000    0.000    0.000 
#
# Total GULP energy -495659.981543 kJ/mol
# GULP energy per Si atom -12391.499539 kJ/mol
# Density = 1.859398 g / cm^3
# Si number density = 18.636399 Si / 1000 Ang^3
#
#
#
# Elastic Constant Matrix: (Units=GPa)
#
#
# Indices 1 2 3 4 5 6 
#
# 1 114.7960 46.5475 60.0490 0.0000 0.0000 0.0000
# 2 46.5475 118.9903 64.8349 0.0000 0.0000 0.0000
# 3 60.0490 64.8349 164.7850 0.0000 0.0000 0.0000
# 4 0.0000 0.0000 0.0000 30.8076 0.0000 0.0000
# 5 0.0000 0.0000 0.0000 0.0000 22.6090 0.0000
# 6 0.0000 0.0000 0.0000 0.0000 0.0000 31.1210
#
#
#
# Elastic Compliance Matrix: (Units=1/GPa)
#
#
# Indices 1 2 3 4 5 6 
#
# 1 0.011456 -0.002809 -0.003069 0.000000 0.000000 0.000000
# 2 -0.002809 0.011386 -0.003456 0.000000 0.000000 0.000000
# 3 -0.003069 -0.003456 0.008547 0.000000 0.000000 0.000000
# 4 0.000000 0.000000 0.000000 0.032460 0.000000 0.000000
# 5 0.000000 0.000000 0.000000 0.000000 0.044230 0.000000
# 6 0.000000 0.000000 0.000000 0.000000 0.000000 0.032133
#
#
# Mechanical properties :
#
#
# Convention : Reuss Voigt Hill
#
# Bulk Modulus (GPa) = 78.61921 82.38157 80.50039
# Shear Modulus (GPa) = 30.65231 32.05019 31.35125
#
# Velocity S-wave (km/s) = 4.05996 4.15150 4.10598
# Velocity P-wave (km/s) = 8.01593 8.20247 8.10974
#
# Compressibility (1/GPa) = 0.01271954
#
# Stress axis : x y z
#
# Youngs Moduli (GPa) = 87.29349 87.82639 117.00146
#
# Poissons Ratio (x) = 0.24669 0.35912
# Poissons Ratio (y) = 0.24520 0.40439
# Poissons Ratio (z) = 0.26794 0.30355
#
# Static dielectric constant tensor:
#      x y z
#    x 3.257290 0.000000 0.000000 
#    y 0.000000 3.210360 0.000000 
#    z 0.000000 0.000000 4.009910 
# 
# 
# High freq. dielectric constant tensor:
#      x y z
#    x 1.696200 0.000000 0.000000 
#    y 0.000000 1.713880 0.000000 
#    z 0.000000 0.000000 1.751060 
# 
# From -- ./inp_files/65124.got.cif
#   From: 2010.03.12/outbox.cif.g09.slc.cpg/sg65_33_cif.got.tgz:65124.got - 2010.04.10 20:52:16.
