data_PCOD8269284
_publ_section_title
;
Structure prediction by ZEFSAII (Michael W. Deem and Ramdas Pophale) SiO2 
 PCOD8269284
Probable space group: C M M M
;
_chemical_formula_sum "Si O2"
_cell_formula_units_Z 104
_cell_length_a 28.431183
_cell_length_b 8.227596
_cell_length_c 24.033189
_cell_angle_alpha 90.000000
_cell_angle_beta 90.000000
_cell_angle_gamma 90.000000
_cell_volume 5621.850481
_symmetry_space_group_name_H-M "C M M M"
_symmetry_group_IT_number 65
_symmetry_cell_setting 'orthorhombic'
loop_
_space_group_symop_operation_xyz
x,y,z
-x,-y,z
x,-y,-z
-x,y,-z
-x,-y,-z
x,y,-z
-x,y,z
x,-y,z
1/2+x,1/2+y,z
1/2-x,1/2-y,z
1/2+x,1/2-y,-z
1/2-x,1/2+y,-z
1/2-x,1/2-y,-z
1/2+x,1/2+y,-z
1/2-x,1/2+y,z
1/2+x,1/2-y,z
loop_
_atom_site_type_symbol
_atom_site_label
_atom_site_fract_x
_atom_site_fract_y
_atom_site_fract_z
Si Si1 0.700752 0.690490 0.163555
Si Si2 0.388636 0.817302 0.337513
Si Si3 0.701825 0.686634 0.713126
Si Si4 0.898351 0.190741 0.122909
Si Si5 0.553110 0.309761 0.436582
Si Si6 0.446922 0.685544 0.759994
Si Si7 0.945767 0.500000 0.065542
O O1 0.701634 0.500000 0.169265
O O2 0.750000 0.750000 0.136552
O O3 0.694358 0.768723 0.225565
O O4 0.657042 0.736511 0.123594
O O5 0.342279 0.711617 0.327179
O O6 0.410232 0.780789 0.397505
O O7 0.427599 0.792563 0.290133
O O8 0.371046 0.000000 0.336307
O O9 0.708405 0.500000 0.723553
O O10 0.750000 0.750000 0.685003
O O11 0.916219 0.210716 0.185464
O O12 0.923086 0.329108 0.085863
O O13 0.907225 0.000000 0.103052
O O14 0.566578 0.268669 0.500000
O O15 0.500000 0.249920 0.424003
O O16 0.556494 0.500000 0.425061
O O17 0.500000 0.739799 0.773423
O O18 0.444664 0.500000 0.739801
O O19 0.000000 0.500000 0.084500
O O20 0.940359 0.500000 0.000000
#
# Coordination Sequence:
#
# PCOD8269284 Si02
#       7
#    16  16  16  16  16  16   8
#     4   9  18  31  54  86 116 150 190 232 289 352
#     4  12  23  32  49  79 113 147 183 225 282 340
#     4  10  19  34  52  75 111 145 180 223 272 334
#     4  10  21  39  61  88 119 156 196 242 296 350
#     4   9  19  37  58  76  99 140 191 237 282 334
#     4  10  20  34  52  76 111 151 186 227 283 340
#     4  11  26  44  64  90 118 158 205 247 294 344
#
# _framework density 18.499247
#
# number of rings (size 3 to 8) (size 9 to 14) (size 15 to 20)
#    0.000    1.923    1.538    3.231    2.154    4.615 
#    0.000    1.538    0.000    0.923    0.000    0.000 
#    0.000    0.000    0.000    0.000    0.000    0.000 
#
# Total GULP energy -644560.563034 kJ/mol
# GULP energy per Si atom -12395.395443 kJ/mol
# Density = 1.845714 g / cm^3
# Si number density = 18.499247 Si / 1000 Ang^3
#
#
#
# Elastic Constant Matrix: (Units=GPa)
#
#
# Indices 1 2 3 4 5 6 
#
# 1 141.8343 43.1323 39.1809 0.0000 0.0000 0.0000
# 2 43.1323 70.4936 32.9960 0.0000 0.0000 0.0000
# 3 39.1809 32.9960 64.7291 0.0000 0.0000 0.0000
# 4 0.0000 0.0000 0.0000 25.8546 0.0000 0.0000
# 5 0.0000 0.0000 0.0000 0.0000 29.6340 0.0000
# 6 0.0000 0.0000 0.0000 0.0000 0.0000 32.3954
#
#
#
# Elastic Compliance Matrix: (Units=1/GPa)
#
#
# Indices 1 2 3 4 5 6 
#
# 1 0.009249 -0.003991 -0.003564 0.000000 0.000000 0.000000
# 2 -0.003991 0.020353 -0.007959 0.000000 0.000000 0.000000
# 3 -0.003564 -0.007959 0.021664 0.000000 0.000000 0.000000
# 4 0.000000 0.000000 0.000000 0.038678 0.000000 0.000000
# 5 0.000000 0.000000 0.000000 0.000000 0.033745 0.000000
# 6 0.000000 0.000000 0.000000 0.000000 0.000000 0.030869
#
#
# Mechanical properties :
#
#
# Convention : Reuss Voigt Hill
#
# Bulk Modulus (GPa) = 49.41431 56.40840 52.91135
# Shear Modulus (GPa) = 25.99690 28.35999 27.17845
#
# Velocity S-wave (km/s) = 3.75279 3.91965 3.83713
# Velocity P-wave (km/s) = 6.74889 7.14446 6.94949
#
# Compressibility (1/GPa) = 0.02023705
#
# Stress axis : x y z
#
# Youngs Moduli (GPa) = 108.12474 49.13273 46.16021
#
# Poissons Ratio (x) = 0.19607 0.16451
# Poissons Ratio (y) = 0.43149 0.36741
# Poissons Ratio (z) = 0.38535 0.39107
#
# Static dielectric constant tensor:
#      x y z
#    x 3.186740 0.000000 0.000000 
#    y 0.000000 3.494780 0.000000 
#    z 0.000000 0.000000 3.146430 
# 
# 
# High freq. dielectric constant tensor:
#      x y z
#    x 1.728510 0.000000 0.000000 
#    y 0.000000 1.719540 0.000000 
#    z 0.000000 0.000000 1.681590 
# 
# From -- ./inp_files/65875.got.cif
#   From: 2010.03.12/outbox.cif.g09.slc.cpg/sg65_33_cif.got.tgz:65875.got - 2010.04.10 20:52:16.
