data_PCOD8269207
_publ_section_title
;
Structure prediction by ZEFSAII (Michael W. Deem and Ramdas Pophale) SiO2 
 PCOD8269207
Probable space group: C M M M
;
_chemical_formula_sum "Si O2"
_cell_formula_units_Z 72
_cell_length_a 18.960443
_cell_length_b 22.350803
_cell_length_c 9.527973
_cell_angle_alpha 90.000000
_cell_angle_beta 90.000000
_cell_angle_gamma 90.000000
_cell_volume 4037.775129
_symmetry_space_group_name_H-M "C M M M"
_symmetry_group_IT_number 65
_symmetry_cell_setting 'orthorhombic'
loop_
_space_group_symop_operation_xyz
x,y,z
-x,-y,z
x,-y,-z
-x,y,-z
-x,-y,-z
x,y,-z
-x,y,z
x,-y,z
1/2+x,1/2+y,z
1/2-x,1/2-y,z
1/2+x,1/2-y,-z
1/2-x,1/2+y,-z
1/2-x,1/2-y,-z
1/2+x,1/2+y,-z
1/2-x,1/2+y,z
1/2+x,1/2-y,z
loop_
_atom_site_type_symbol
_atom_site_label
_atom_site_fract_x
_atom_site_fract_y
_atom_site_fract_z
Si Si1 0.421681 0.500000 0.833561
Si Si2 0.329543 0.259904 0.161258
Si Si3 0.919432 0.669178 0.662590
Si Si4 0.811820 0.568187 0.662248
Si Si5 0.678962 0.604220 0.161549
O O1 0.500000 0.500000 0.766785
O O2 0.380293 0.558800 0.781050
O O3 0.427681 0.500000 0.000000
O O4 0.250000 0.250000 0.216501
O O5 0.383864 0.222125 0.251215
O O6 0.350978 0.329101 0.178805
O O7 0.334816 0.238886 0.000000
O O8 0.913525 0.686664 0.500000
O O9 0.882420 0.605665 0.692594
O O10 0.000000 0.662562 0.711061
O O11 0.789726 0.571943 0.500000
O O12 0.826144 0.500000 0.708371
O O13 0.749856 0.597103 0.751506
O O14 0.697453 0.590187 0.000000
#
# Coordination Sequence:
#
# PCOD8269207 Si02
#       5
#     8  16  16  16  16
#     4   9  18  32  51  77 106 135 170 214 263 313
#     4  10  20  34  55  83 109 138 180 225 270 319
#     4  10  22  38  55  79 111 146 182 222 272 325
#     4  10  20  34  55  81 107 139 180 226 271 318
#     4  10  19  33  56  81 105 138 179 222 264 319
#
# _framework density 17.831600999999999
#
# number of rings (size 3 to 8) (size 9 to 14) (size 15 to 20)
#    0.000    2.111    3.333    0.000    0.000    3.111 
#    0.000    4.444    0.000    1.333    0.000    3.111 
#    0.000    0.000    0.000    0.000    0.000    0.000 
#
# Total GULP energy -446485.899673 kJ/mol
# GULP energy per Si atom -12402.386102 kJ/mol
# Density = 1.779102 g / cm^3
# Si number density = 17.831601 Si / 1000 Ang^3
#
#
#
# Elastic Constant Matrix: (Units=GPa)
#
#
# Indices 1 2 3 4 5 6 
#
# 1 132.7655 43.5314 46.1745 0.0000 0.0000 0.0000
# 2 43.5314 102.9891 35.6627 0.0000 0.0000 0.0000
# 3 46.1745 35.6627 49.7023 0.0000 0.0000 0.0000
# 4 0.0000 0.0000 0.0000 24.1275 0.0000 0.0000
# 5 0.0000 0.0000 0.0000 0.0000 24.3711 0.0000
# 6 0.0000 0.0000 0.0000 0.0000 0.0000 31.7285
#
#
#
# Elastic Compliance Matrix: (Units=1/GPa)
#
#
# Indices 1 2 3 4 5 6 
#
# 1 0.011303 -0.001519 -0.009411 0.000000 0.000000 0.000000
# 2 -0.001519 0.013124 -0.008006 0.000000 0.000000 0.000000
# 3 -0.009411 -0.008006 0.034607 0.000000 0.000000 0.000000
# 4 0.000000 0.000000 0.000000 0.041447 0.000000 0.000000
# 5 0.000000 0.000000 0.000000 0.000000 0.041032 0.000000
# 6 0.000000 0.000000 0.000000 0.000000 0.000000 0.031517
#
#
# Mechanical properties :
#
#
# Convention : Reuss Voigt Hill
#
# Bulk Modulus (GPa) = 47.25226 59.57712 53.41469
# Shear Modulus (GPa) = 22.94040 26.71797 24.82918
#
# Velocity S-wave (km/s) = 3.59068 3.87505 3.73557
# Velocity P-wave (km/s) = 6.61417 7.31470 6.97324
#
# Compressibility (1/GPa) = 0.02116301
#
# Stress axis : x y z
#
# Youngs Moduli (GPa) = 88.47110 76.19669 28.89570
#
# Poissons Ratio (x) = 0.11573 0.27194
# Poissons Ratio (y) = 0.13437 0.23133
# Poissons Ratio (z) = 0.83261 0.61001
#
# Static dielectric constant tensor:
#      x y z
#    x 3.342250 0.000000 0.000000 
#    y 0.000000 3.499210 0.000000 
#    z 0.000000 0.000000 3.176380 
# 
# 
# High freq. dielectric constant tensor:
#      x y z
#    x 1.684920 0.000000 0.000000 
#    y 0.000000 1.705450 0.000000 
#    z 0.000000 0.000000 1.673020 
# 
# From -- ./inp_files/9210.got.cif
#   From: 2010.03.12/outbox.cif.g09.slc.cpg/sg65_5_cif.got.tgz:9210.got - 2010.04.10 20:52:16.
