data_PCOD8269693
_publ_section_title
;
Structure prediction by ZEFSAII (Michael W. Deem and Ramdas Pophale) SiO2 
 PCOD8269693
Probable space group: C M M M
;
_chemical_formula_sum "Si O2"
_cell_formula_units_Z 80
_cell_length_a 14.011365
_cell_length_b 27.032454
_cell_length_c 11.801957
_cell_angle_alpha 90.000000
_cell_angle_beta 90.000000
_cell_angle_gamma 90.000000
_cell_volume 4470.127879
_symmetry_space_group_name_H-M "C M M M"
_symmetry_group_IT_number 65
_symmetry_cell_setting 'orthorhombic'
loop_
_space_group_symop_operation_xyz
x,y,z
-x,-y,z
x,-y,-z
-x,y,-z
-x,-y,-z
x,y,-z
-x,y,z
x,-y,z
1/2+x,1/2+y,z
1/2-x,1/2-y,z
1/2+x,1/2-y,-z
1/2-x,1/2+y,-z
1/2-x,1/2-y,-z
1/2+x,1/2+y,-z
1/2-x,1/2+y,z
1/2+x,1/2-y,z
loop_
_atom_site_type_symbol
_atom_site_label
_atom_site_fract_x
_atom_site_fract_y
_atom_site_fract_z
Si Si1 0.390390 0.229257 0.629132
Si Si2 0.722656 0.868851 0.367744
Si Si3 0.891566 0.864884 0.000000
Si Si4 0.609959 0.942308 0.222846
Si Si5 0.609437 0.328192 0.756114
Si Si6 0.725845 0.942247 0.000000
O O1 0.368374 0.245988 0.500000
O O2 0.500000 0.213972 0.642973
O O3 0.328991 0.182196 0.664347
O O4 0.362210 0.273822 0.712082
O O5 0.739000 0.875194 0.500000
O O6 0.658155 0.914194 0.327137
O O7 0.825309 0.869151 0.305880
O O8 0.872944 0.830474 0.890784
O O9 0.824398 0.912627 0.000000
O O10 0.000000 0.885080 0.000000
O O11 0.500000 0.926542 0.211148
O O12 0.663027 0.927273 0.107829
O O13 0.619815 0.000000 0.248548
O O14 0.500000 0.340302 0.724519
O O15 0.751802 0.000000 0.000000
#
# Coordination Sequence:
#
# PCOD8269693 Si02
#       6
#    16  16   8  16  16   8
#     4   9  18  33  53  78 108 144 185 223 260 312
#     4  11  21  34  55  81 110 145 186 226 264 316
#     4  10  20  36  57  82 109 140 179 224 272 322
#     4  10  21  37  58  83 110 141 177 222 276 329
#     4  10  20  35  54  77 109 144 180 223 271 321
#     4  10  19  37  61  82 105 138 182 227 272 323
#
# _framework density 17.89658
#
# number of rings (size 3 to 8) (size 9 to 14) (size 15 to 20)
#    0.000    2.000    2.000    2.100    0.000    5.800 
#    0.000    4.000    0.000    3.000    0.000    1.400 
#    0.000    0.000    0.000    0.000    0.000    0.000 
#
# Total GULP energy -496112.913122 kJ/mol
# GULP energy per Si atom -12402.822828 kJ/mol
# Density = 1.785585 g / cm^3
# Si number density = 17.896580 Si / 1000 Ang^3
#
#
#
# Elastic Constant Matrix: (Units=GPa)
#
#
# Indices 1 2 3 4 5 6 
#
# 1 105.0597 49.8603 56.9579 0.0000 0.0000 0.0000
# 2 49.8603 65.2443 52.7661 0.0000 0.0000 0.0000
# 3 56.9579 52.7661 120.7358 0.0000 0.0000 0.0000
# 4 0.0000 0.0000 0.0000 30.1534 0.0000 0.0000
# 5 0.0000 0.0000 0.0000 0.0000 26.7688 0.0000
# 6 0.0000 0.0000 0.0000 0.0000 0.0000 29.7651
#
#
#
# Elastic Compliance Matrix: (Units=1/GPa)
#
#
# Indices 1 2 3 4 5 6 
#
# 1 0.015770 -0.009334 -0.003360 0.000000 0.000000 0.000000
# 2 -0.009334 0.029231 -0.008371 0.000000 0.000000 0.000000
# 3 -0.003360 -0.008371 0.013526 0.000000 0.000000 0.000000
# 4 0.000000 0.000000 0.000000 0.033164 0.000000 0.000000
# 5 0.000000 0.000000 0.000000 0.000000 0.037357 0.000000
# 6 0.000000 0.000000 0.000000 0.000000 0.000000 0.033596
#
#
# Mechanical properties :
#
#
# Convention : Reuss Voigt Hill
#
# Bulk Modulus (GPa) = 60.99244 67.80093 64.39669
# Shear Modulus (GPa) = 23.78227 26.10116 24.94172
#
# Velocity S-wave (km/s) = 3.64933 3.82310 3.73722
# Velocity P-wave (km/s) = 7.20495 7.57992 7.39481
#
# Compressibility (1/GPa) = 0.01639547
#
# Stress axis : x y z
#
# Youngs Moduli (GPa) = 63.41169 34.21084 73.92926
#
# Poissons Ratio (x) = 0.31932 0.24842
# Poissons Ratio (y) = 0.59188 0.61890
# Poissons Ratio (z) = 0.21308 0.28640
#
# Static dielectric constant tensor:
#      x y z
#    x 3.540710 0.000000 0.000000 
#    y 0.000000 3.119730 0.000000 
#    z 0.000000 0.000000 3.357950 
# 
# 
# High freq. dielectric constant tensor:
#      x y z
#    x 1.711210 0.000000 0.000000 
#    y 0.000000 1.673380 0.000000 
#    z 0.000000 0.000000 1.696580 
# 
# From -- ./inp_files/25041.got.cif
#   From: 2010.03.12/outbox.cif.g09.slc.cpg/sg65_13_cif.got.tgz:25041.got - 2010.04.10 20:52:16.
