data_PCOD8269466
_publ_section_title
;
Structure prediction by ZEFSAII (Michael W. Deem and Ramdas Pophale) SiO2 
 PCOD8269466
Probable space group: C M M M
;
_chemical_formula_sum "Si O2"
_cell_formula_units_Z 80
_cell_length_a 18.360119
_cell_length_b 8.646825
_cell_length_c 25.768919
_cell_angle_alpha 90.000000
_cell_angle_beta 90.000000
_cell_angle_gamma 90.000000
_cell_volume 4090.989470
_symmetry_space_group_name_H-M "C M M M"
_symmetry_group_IT_number 65
_symmetry_cell_setting 'orthorhombic'
loop_
_space_group_symop_operation_xyz
x,y,z
-x,-y,z
x,-y,-z
-x,y,-z
-x,-y,-z
x,y,-z
-x,y,z
x,-y,z
1/2+x,1/2+y,z
1/2-x,1/2-y,z
1/2+x,1/2-y,-z
1/2-x,1/2+y,-z
1/2-x,1/2-y,-z
1/2+x,1/2+y,-z
1/2-x,1/2+y,z
1/2+x,1/2-y,z
loop_
_atom_site_type_symbol
_atom_site_label
_atom_site_fract_x
_atom_site_fract_y
_atom_site_fract_z
Si Si1 0.669701 0.182922 0.400380
Si Si2 0.082356 0.684320 0.500000
Si Si3 0.584739 0.180032 0.298190
Si Si4 0.171295 0.683700 0.902223
Si Si5 0.828550 0.818204 0.206452
Si Si6 0.419130 0.816062 0.000000
O O1 0.750000 0.250000 0.400694
O O2 0.624682 0.247051 0.449508
O O3 0.627845 0.236977 0.348860
O O4 0.674937 0.000000 0.402995
O O5 0.080030 0.500000 0.500000
O O6 0.000000 0.749912 0.500000
O O7 0.500000 0.213719 0.307280
O O8 0.612426 0.278893 0.249834
O O9 0.599173 0.000000 0.287010
O O10 0.174454 0.500000 0.899548
O O11 0.250000 0.750000 0.914674
O O12 0.142221 0.747546 0.847461
O O13 0.119723 0.744736 0.948084
O O14 0.750000 0.750000 0.221991
O O15 0.819910 0.000000 0.200230
O O16 0.500000 0.747367 0.000000
O O17 0.419526 0.000000 0.000000
#
# Coordination Sequence:
#
# PCOD8269466 Si02
#       6
#    16   8  16  16  16   8
#     4  10  20  34  55  81 108 141 180 222 267 318
#     4   9  17  32  55  81 108 139 178 222 266 317
#     4  10  21  37  56  79 108 143 182 223 271 325
#     4  10  19  34  57  81 107 140 178 220 265 316
#     4  11  22  37  57  81 109 141 181 225 271 322
#     4   9  19  34  53  79 108 139 176 216 262 317
#
# _framework density 19.555171999999999
#
# number of rings (size 3 to 8) (size 9 to 14) (size 15 to 20)
#    0.000    2.000    0.000    5.400    0.000    6.000 
#    0.000    3.500    0.000    6.600    0.000    0.000 
#    0.000    0.000    0.000    0.000    0.000    0.000 
#
# Total GULP energy -496112.515823 kJ/mol
# GULP energy per Si atom -12402.812896 kJ/mol
# Density = 1.951066 g / cm^3
# Si number density = 19.555172 Si / 1000 Ang^3
#
#
#
# Elastic Constant Matrix: (Units=GPa)
#
#
# Indices 1 2 3 4 5 6 
#
# 1 149.4529 32.5962 102.3358 0.0000 0.0000 0.0000
# 2 32.5962 67.9558 41.0425 0.0000 0.0000 0.0000
# 3 102.3358 41.0425 182.7021 0.0000 0.0000 0.0000
# 4 0.0000 0.0000 0.0000 10.5203 0.0000 0.0000
# 5 0.0000 0.0000 0.0000 0.0000 5.3358 0.0000
# 6 0.0000 0.0000 0.0000 0.0000 0.0000 29.7210
#
#
#
# Elastic Compliance Matrix: (Units=1/GPa)
#
#
# Indices 1 2 3 4 5 6 
#
# 1 0.011042 -0.001806 -0.005779 0.000000 0.000000 0.000000
# 2 -0.001806 0.017321 -0.002879 0.000000 0.000000 0.000000
# 3 -0.005779 -0.002879 0.009357 0.000000 0.000000 0.000000
# 4 0.000000 0.000000 0.000000 0.095054 0.000000 0.000000
# 5 0.000000 0.000000 0.000000 0.000000 0.187412 0.000000
# 6 0.000000 0.000000 0.000000 0.000000 0.000000 0.033646
#
#
# Mechanical properties :
#
#
# Convention : Reuss Voigt Hill
#
# Bulk Modulus (GPa) = 59.55618 83.56221 71.55919
# Shear Modulus (GPa) = 13.14546 24.05784 18.60165
#
# Velocity S-wave (km/s) = 2.59554 3.51130 3.08756
# Velocity P-wave (km/s) = 6.28522 7.69827 7.02735
#
# Compressibility (1/GPa) = 0.01679087
#
# Stress axis : x y z
#
# Youngs Moduli (GPa) = 90.56080 57.73410 106.86804
#
# Poissons Ratio (x) = 0.10428 0.61762
# Poissons Ratio (y) = 0.16357 0.30771
# Poissons Ratio (z) = 0.52338 0.16623
#
# Static dielectric constant tensor:
#      x y z
#    x 3.677420 0.000000 0.000000 
#    y 0.000000 3.338740 0.000000 
#    z 0.000000 0.000000 3.855180 
# 
# 
# High freq. dielectric constant tensor:
#      x y z
#    x 1.765530 0.000000 0.000000 
#    y 0.000000 1.740170 0.000000 
#    z 0.000000 0.000000 1.780700 
# 
# From -- ./inp_files/70782.got.cif
#   From: 2010.03.12/outbox.cif.g09.slc.cpg/sg65_36_cif.got.tgz:70782.got - 2010.04.10 20:52:16.
