data_PCOD8269558
_publ_section_title
;
Structure prediction by ZEFSAII (Michael W. Deem and Ramdas Pophale) SiO2 
 PCOD8269558
Probable space group: C M M M
;
_chemical_formula_sum "Si O2"
_cell_formula_units_Z 82
_cell_length_a 25.238861
_cell_length_b 18.129010
_cell_length_c 9.520145
_cell_angle_alpha 90.000000
_cell_angle_beta 90.000000
_cell_angle_gamma 90.000000
_cell_volume 4355.995310
_symmetry_space_group_name_H-M "C M M M"
_symmetry_group_IT_number 65
_symmetry_cell_setting 'orthorhombic'
loop_
_space_group_symop_operation_xyz
x,y,z
-x,-y,z
x,-y,-z
-x,y,-z
-x,-y,-z
x,y,-z
-x,y,z
x,-y,z
1/2+x,1/2+y,z
1/2-x,1/2-y,z
1/2+x,1/2-y,-z
1/2-x,1/2+y,-z
1/2-x,1/2-y,-z
1/2+x,1/2+y,-z
1/2-x,1/2+y,z
1/2+x,1/2-y,z
loop_
_atom_site_type_symbol
_atom_site_label
_atom_site_fract_x
_atom_site_fract_y
_atom_site_fract_z
Si Si1 0.099964 0.315699 0.339441
Si Si2 0.500000 0.203114 0.158146
Si Si3 0.698423 0.086035 0.337974
Si Si4 0.000000 0.000000 0.000000
Si Si5 0.000000 0.128672 0.225773
Si Si6 0.612617 0.353593 0.656611
Si Si7 0.203510 0.086918 0.843024
O O1 0.082267 0.330875 0.500000
O O2 0.145980 0.371060 0.291299
O O3 0.121665 0.233180 0.323843
O O4 0.050737 0.329423 0.237906
O O5 0.500000 0.291643 0.151211
O O6 0.500000 0.172309 0.000000
O O7 0.712312 0.101553 0.500000
O O8 0.747228 0.117720 0.246784
O O9 0.688522 0.000000 0.309815
O O10 0.000000 0.062902 0.117307
O O11 0.948229 0.123290 0.323304
O O12 0.629779 0.378161 0.500000
O O13 0.647926 0.394322 0.771568
O O14 0.207786 0.000000 0.852169
O O15 0.204674 0.121049 0.000000
#
# Coordination Sequence:
#
# PCOD8269558 Si02
#       7
#    16   8  16   2   8  16  16
#     4   9  19  35  57  80 106 139 174 217 265 312
#     4  10  19  35  55  80 108 140 177 210 256 317
#     4   9  18  36  59  81 104 135 175 218 264 315
#     4  12  24  36  54  80 108 144 176 228 276 306
#     4  10  23  36  55  76 107 142 177 219 269 307
#     4  10  21  37  55  77 106 140 181 221 261 313
#     4  10  22  36  53  75 107 143 177 217 269 315
#
# _framework density 18.824629999999999
#
# number of rings (size 3 to 8) (size 9 to 14) (size 15 to 20)
#    0.000    2.341    0.488    1.171    2.732    5.854 
#    0.000    4.878    0.000    2.927    0.000    0.000 
#    0.000    0.000    0.000    0.000    0.000    0.000 
#
# Total GULP energy -507926.867777 kJ/mol
# GULP energy per Si atom -12388.460190 kJ/mol
# Density = 1.878178 g / cm^3
# Si number density = 18.824630 Si / 1000 Ang^3
#
#
#
# Elastic Constant Matrix: (Units=GPa)
#
#
# Indices 1 2 3 4 5 6 
#
# 1 142.9427 38.6592 79.0602 0.0000 0.0000 0.0000
# 2 38.6592 42.9965 28.9873 0.0000 0.0000 0.0000
# 3 79.0602 28.9873 136.4094 0.0000 0.0000 0.0000
# 4 0.0000 0.0000 0.0000 26.5049 0.0000 0.0000
# 5 0.0000 0.0000 0.0000 0.0000 -53.8554 0.0000
# 6 0.0000 0.0000 0.0000 0.0000 0.0000 18.0693
#
#
#
# Elastic Compliance Matrix: (Units=1/GPa)
#
#
# Indices 1 2 3 4 5 6 
#
# 1 0.011884 -0.007052 -0.005389 0.000000 0.000000 0.000000
# 2 -0.007052 0.031331 -0.002571 0.000000 0.000000 0.000000
# 3 -0.005389 -0.002571 0.011001 0.000000 0.000000 0.000000
# 4 0.000000 0.000000 0.000000 0.037729 0.000000 0.000000
# 5 0.000000 0.000000 0.000000 0.000000 -0.018568 0.000000
# 6 0.000000 0.000000 0.000000 0.000000 0.000000 0.055343
#
#
# Mechanical properties :
#
#
# Convention : Reuss Voigt Hill
#
# Bulk Modulus (GPa) = 41.33560 68.41801 54.87680
# Shear Modulus (GPa) = 29.97493 9.85319 19.91406
#
# Velocity S-wave (km/s) = 3.99472 2.29032 3.25602
# Velocity P-wave (km/s) = 6.57898 6.58923 6.58411
#
# Compressibility (1/GPa) = 0.02419222
#
# Stress axis : x y z
#
# Youngs Moduli (GPa) = 84.15004 31.91691 90.90452
#
# Poissons Ratio (x) = 0.22507 0.48988
# Poissons Ratio (y) = 0.59340 0.23371
# Poissons Ratio (z) = 0.45348 0.08206
#
# Static dielectric constant tensor:
#      x y z
#    x 3.435000 0.000000 0.000000 
#    y 0.000000 3.323950 0.000000 
#    z 0.000000 0.000000 3.685140 
# 
# 
# High freq. dielectric constant tensor:
#      x y z
#    x 1.729400 0.000000 0.000000 
#    y 0.000000 1.713430 0.000000 
#    z 0.000000 0.000000 1.741690 
# 
# From -- ./inp_files/13927.got.cif
#   From: 2010.03.12/outbox.cif.g09.slc.cpg/sg65_7_cif.got.tgz:13927.got - 2010.04.10 20:52:16.
