data_PCOD8269948
_publ_section_title
;
Structure prediction by ZEFSAII (Michael W. Deem and Ramdas Pophale) SiO2 
 PCOD8269948
Probable space group: C M M M
;
_chemical_formula_sum "Si O2"
_cell_formula_units_Z 88
_cell_length_a 27.571620
_cell_length_b 9.221266
_cell_length_c 21.068642
_cell_angle_alpha 90.000000
_cell_angle_beta 90.000000
_cell_angle_gamma 90.000000
_cell_volume 5356.601985
_symmetry_space_group_name_H-M "C M M M"
_symmetry_group_IT_number 65
_symmetry_cell_setting 'orthorhombic'
loop_
_space_group_symop_operation_xyz
x,y,z
-x,-y,z
x,-y,-z
-x,y,-z
-x,-y,-z
x,y,-z
-x,y,z
x,-y,z
1/2+x,1/2+y,z
1/2-x,1/2-y,z
1/2+x,1/2-y,-z
1/2-x,1/2+y,-z
1/2-x,1/2-y,-z
1/2+x,1/2+y,-z
1/2-x,1/2+y,z
1/2+x,1/2-y,z
loop_
_atom_site_type_symbol
_atom_site_label
_atom_site_fract_x
_atom_site_fract_y
_atom_site_fract_z
Si Si1 0.553165 0.672064 0.248319
Si Si2 0.799244 0.668051 0.927094
Si Si3 0.299579 0.330648 0.306315
Si Si4 0.395683 0.327494 0.372369
Si Si5 0.353453 0.669266 0.823058
Si Si6 0.555554 0.326868 0.500000
O O1 0.500000 0.734668 0.231001
O O2 0.551880 0.500000 0.253261
O O3 0.569632 0.733584 0.316727
O O4 0.591797 0.716353 0.194705
O O5 0.791715 0.500000 0.910968
O O6 0.750000 0.750000 0.910346
O O7 0.841205 0.734779 0.883999
O O8 0.814285 0.691737 0.000000
O O9 0.289662 0.500000 0.312944
O O10 0.250000 0.250000 0.321895
O O11 0.340245 0.279708 0.357492
O O12 0.317789 0.294187 0.235360
O O13 0.397942 0.500000 0.372556
O O14 0.415474 0.265414 0.438932
O O15 0.350217 0.500000 0.840621
O O16 0.555531 0.500000 0.500000
O O17 0.500000 0.270211 0.500000
#
# Coordination Sequence:
#
# PCOD8269948 Si02
#       6
#    16  16  16  16  16   8
#     4   8  13  23  40  61  85 111 140 177 218 255
#     4  10  20  32  46  65  89 115 141 171 210 254
#     4   9  17  28  41  59  85 114 142 174 211 249
#     4   8  14  23  35  56  85 112 139 174 215 255
#     4   9  17  28  44  66  88 112 143 177 213 252
#     4   9  14  20  35  58  83 111 139 169 212 261
#
# _framework density 16.428325000000001
#
# number of rings (size 3 to 8) (size 9 to 14) (size 15 to 20)
#    0.000    3.182    0.000    3.818    0.000    5.455 
#    0.000    0.455    0.000    1.091    0.000    3.818 
#    0.000    2.909    0.000    0.000    0.000    0.364 
#
# Total GULP energy -545357.363470 kJ/mol
# GULP energy per Si atom -12394.485533 kJ/mol
# Density = 1.639093 g / cm^3
# Si number density = 16.428325 Si / 1000 Ang^3
#
#
#
# Elastic Constant Matrix: (Units=GPa)
#
#
# Indices 1 2 3 4 5 6 
#
# 1 159.6934 39.8550 77.0728 0.0000 0.0000 0.0000
# 2 39.8550 40.2113 40.3034 0.0000 0.0000 0.0000
# 3 77.0728 40.3034 112.3580 0.0000 0.0000 0.0000
# 4 0.0000 0.0000 0.0000 13.0678 0.0000 0.0000
# 5 0.0000 0.0000 0.0000 0.0000 25.0413 0.0000
# 6 0.0000 0.0000 0.0000 0.0000 0.0000 18.8226
#
#
#
# Elastic Compliance Matrix: (Units=1/GPa)
#
#
# Indices 1 2 3 4 5 6 
#
# 1 0.009897 -0.004692 -0.005106 0.000000 0.000000 0.000000
# 2 -0.004692 0.041053 -0.011507 0.000000 0.000000 0.000000
# 3 -0.005106 -0.011507 0.016531 0.000000 0.000000 0.000000
# 4 0.000000 0.000000 0.000000 0.076524 0.000000 0.000000
# 5 0.000000 0.000000 0.000000 0.000000 0.039934 0.000000
# 6 0.000000 0.000000 0.000000 0.000000 0.000000 0.053128
#
#
# Mechanical properties :
#
#
# Convention : Reuss Voigt Hill
#
# Bulk Modulus (GPa) = 40.20957 69.63613 54.92285
# Shear Modulus (GPa) = 17.36312 21.72177 19.54244
#
# Velocity S-wave (km/s) = 3.25453 3.64017 3.45274
# Velocity P-wave (km/s) = 6.21703 7.75549 7.02848
#
# Compressibility (1/GPa) = 0.02486970
#
# Stress axis : x y z
#
# Youngs Moduli (GPa) = 101.03734 24.35898 60.49415
#
# Poissons Ratio (x) = 0.11429 0.30889
# Poissons Ratio (y) = 0.47404 0.69613
# Poissons Ratio (z) = 0.51592 0.28031
#
# Static dielectric constant tensor:
#      x y z
#    x 3.360210 0.000000 0.000000 
#    y 0.000000 2.648570 0.000000 
#    z 0.000000 0.000000 3.140390 
# 
# 
# High freq. dielectric constant tensor:
#      x y z
#    x 1.635850 0.000000 0.000000 
#    y 0.000000 1.585700 0.000000 
#    z 0.000000 0.000000 1.624790 
# 
# From -- ./inp_files/66233.got.cif
#   From: 2010.03.12/outbox.cif.g09.slc.cpg/sg65_34_cif.got.tgz:66233.got - 2010.04.10 20:52:16.
