data_PCOD8269366
_publ_section_title
;
Structure prediction by ZEFSAII (Michael W. Deem and Ramdas Pophale) SiO2 
 PCOD8269366
Probable space group: C M M M
;
_chemical_formula_sum "Si O2"
_cell_formula_units_Z 96
_cell_length_a 9.054658
_cell_length_b 29.031465
_cell_length_c 20.596157
_cell_angle_alpha 90.000000
_cell_angle_beta 90.000000
_cell_angle_gamma 90.000000
_cell_volume 5414.111519
_symmetry_space_group_name_H-M "C M M M"
_symmetry_group_IT_number 65
_symmetry_cell_setting 'orthorhombic'
loop_
_space_group_symop_operation_xyz
x,y,z
-x,-y,z
x,-y,-z
-x,y,-z
-x,-y,-z
x,y,-z
-x,y,z
x,-y,z
1/2+x,1/2+y,z
1/2-x,1/2-y,z
1/2+x,1/2-y,-z
1/2-x,1/2+y,-z
1/2-x,1/2-y,-z
1/2+x,1/2+y,-z
1/2-x,1/2+y,z
1/2+x,1/2-y,z
loop_
_atom_site_type_symbol
_atom_site_label
_atom_site_fract_x
_atom_site_fract_y
_atom_site_fract_z
Si Si1 0.330991 0.387091 0.926311
Si Si2 0.827789 0.446053 0.820992
Si Si3 0.670356 0.795296 0.265812
Si Si4 0.175693 0.448202 0.428359
Si Si5 0.676036 0.106724 0.693462
Si Si6 0.672109 0.203690 0.113776
O O1 0.500000 0.378610 0.905149
O O2 0.260602 0.426418 0.881863
O O3 0.242933 0.339454 0.922016
O O4 0.321346 0.405075 0.000000
O O5 0.797722 0.500000 0.815199
O O6 0.768156 0.422409 0.755200
O O7 0.000000 0.434889 0.831564
O O8 0.500000 0.788296 0.280906
O O9 0.750000 0.750000 0.293200
O O10 0.732752 0.840667 0.301855
O O11 0.700242 0.802515 0.190004
O O12 0.227349 0.431305 0.500000
O O13 0.233225 0.500000 0.415797
O O14 0.241791 0.415019 0.372754
O O15 0.000000 0.447945 0.424769
O O16 0.500000 0.105592 0.692976
O O17 0.500000 0.206367 0.096687
O O18 0.750000 0.250000 0.088153
#
# Coordination Sequence:
#
# PCOD8269366 Si02
#       6
#    16  16  16  16  16  16
#     4  11  24  39  53  71  99 134 168 206 255 306
#     4  10  20  35  55  76  97 126 167 213 258 303
#     4   9  17  29  47  71  98 126 159 199 244 290
#     4   8  13  21  37  66 102 135 164 196 240 293
#     4   9  15  27  46  70  99 130 163 202 247 294
#     4  10  19  34  55  78 102 129 164 206 253 305
#
# _framework density 17.731441
#
# number of rings (size 3 to 8) (size 9 to 14) (size 15 to 20)
#    0.000    2.500    1.667    2.000    0.000    5.000 
#    0.000    1.667    0.000    0.500    0.000    0.000 
#    0.000    2.000    0.000    9.167    0.000    8.333 
#
# Total GULP energy -595140.063587 kJ/mol
# GULP energy per Si atom -12398.751325 kJ/mol
# Density = 1.769108 g / cm^3
# Si number density = 17.731441 Si / 1000 Ang^3
#
#
#
# Elastic Constant Matrix: (Units=GPa)
#
#
# Indices 1 2 3 4 5 6 
#
# 1 53.9789 40.0075 36.9052 0.0000 0.0000 0.0000
# 2 40.0075 135.3338 75.2050 0.0000 0.0000 0.0000
# 3 36.9052 75.2050 114.4890 0.0000 0.0000 0.0000
# 4 0.0000 0.0000 0.0000 30.8294 0.0000 0.0000
# 5 0.0000 0.0000 0.0000 0.0000 8.9200 0.0000
# 6 0.0000 0.0000 0.0000 0.0000 0.0000 27.8738
#
#
#
# Elastic Compliance Matrix: (Units=1/GPa)
#
#
# Indices 1 2 3 4 5 6 
#
# 1 0.025517 -0.004681 -0.005150 0.000000 0.000000 0.000000
# 2 -0.004681 0.012496 -0.006699 0.000000 0.000000 0.000000
# 3 -0.005150 -0.006699 0.014795 0.000000 0.000000 0.000000
# 4 0.000000 0.000000 0.000000 0.032437 0.000000 0.000000
# 5 0.000000 0.000000 0.000000 0.000000 0.112108 0.000000
# 6 0.000000 0.000000 0.000000 0.000000 0.000000 0.035876
#
#
# Mechanical properties :
#
#
# Convention : Reuss Voigt Hill
#
# Bulk Modulus (GPa) = 50.64263 67.55970 59.10116
# Shear Modulus (GPa) = 18.32368 23.63690 20.98029
#
# Velocity S-wave (km/s) = 3.21814 3.65506 3.44354
# Velocity P-wave (km/s) = 6.51395 7.48311 7.01529
#
# Compressibility (1/GPa) = 0.01974621
#
# Stress axis : x y z
#
# Youngs Moduli (GPa) = 39.19024 80.02726 67.58990
#
# Poissons Ratio (x) = 0.37463 0.34810
# Poissons Ratio (y) = 0.18346 0.45279
# Poissons Ratio (z) = 0.20184 0.53611
#
# Static dielectric constant tensor:
#      x y z
#    x 3.030910 0.000000 0.000000 
#    y 0.000000 3.455560 0.000000 
#    z 0.000000 0.000000 3.382500 
# 
# 
# High freq. dielectric constant tensor:
#      x y z
#    x 1.651900 0.000000 0.000000 
#    y 0.000000 1.693160 0.000000 
#    z 0.000000 0.000000 1.674320 
# 
# From -- ./inp_files/60169.got.cif
#   From: 2010.03.12/outbox.cif.g09.slc.cpg/sg65_31_cif.got.tgz:60169.got - 2010.04.10 20:52:16.
