data_PCOD8269617
_publ_section_title
;
Structure prediction by ZEFSAII (Michael W. Deem and Ramdas Pophale) SiO2 
 PCOD8269617
Probable space group: C M M M
;
_chemical_formula_sum "Si O2"
_cell_formula_units_Z 88
_cell_length_a 23.117486
_cell_length_b 22.109570
_cell_length_c 8.886926
_cell_angle_alpha 90.000000
_cell_angle_beta 90.000000
_cell_angle_gamma 90.000000
_cell_volume 4542.264954
_symmetry_space_group_name_H-M "C M M M"
_symmetry_group_IT_number 65
_symmetry_cell_setting 'orthorhombic'
loop_
_space_group_symop_operation_xyz
x,y,z
-x,-y,z
x,-y,-z
-x,y,-z
-x,-y,-z
x,y,-z
-x,y,z
x,-y,z
1/2+x,1/2+y,z
1/2-x,1/2-y,z
1/2+x,1/2-y,-z
1/2-x,1/2+y,-z
1/2-x,1/2-y,-z
1/2+x,1/2+y,-z
1/2-x,1/2+y,z
1/2+x,1/2-y,z
loop_
_atom_site_type_symbol
_atom_site_label
_atom_site_fract_x
_atom_site_fract_y
_atom_site_fract_z
Si Si1 0.854321 0.156439 0.675311
Si Si2 0.628431 0.122292 0.324899
Si Si3 0.436879 0.240605 0.675585
Si Si4 0.259749 0.818709 0.822430
Si Si5 0.065063 0.070907 0.168553
Si Si6 0.566665 0.000000 0.679177
O O1 0.839461 0.163088 0.500000
O O2 0.887558 0.215511 0.742940
O O3 0.796138 0.144703 0.768049
O O4 0.894740 0.099083 0.703665
O O5 0.644283 0.116957 0.500000
O O6 0.578322 0.171010 0.295419
O O7 0.685387 0.145405 0.240963
O O8 0.602668 0.058732 0.263516
O O9 0.440188 0.255173 0.500000
O O10 0.500000 0.252943 0.749041
O O11 0.250000 0.750000 0.760732
O O12 0.265361 0.818613 0.000000
O O13 0.000000 0.093867 0.196373
O O14 0.068496 0.000000 0.188374
O O15 0.085026 0.089592 0.000000
O O16 0.500000 0.000000 0.740860
O O17 0.563702 0.000000 0.500000
#
# Coordination Sequence:
#
# PCOD8269617 Si02
#       6
#    16  16  16  16  16   8
#     4  11  21  34  56  84 113 144 189 239 285 339
#     4  10  19  35  59  85 116 151 190 233 282 341
#     4   9  17  29  50  82 115 143 174 222 283 340
#     4  11  23  39  58  79 110 149 192 237 288 349
#     4   9  19  37  58  80 112 152 187 222 275 340
#     4   9  18  34  61  95 123 151 190 237 288 345
#
# _framework density 19.373594000000001
#
# number of rings (size 3 to 8) (size 9 to 14) (size 15 to 20)
#    0.000    2.091    1.818    2.727    0.000    4.364 
#    1.636    1.364    0.000    3.818    0.000    0.000 
#    0.000    0.000    0.000    0.000    0.000    0.000 
#
# Total GULP energy -545447.289142 kJ/mol
# GULP energy per Si atom -12396.529299 kJ/mol
# Density = 1.932950 g / cm^3
# Si number density = 19.373594 Si / 1000 Ang^3
#
#
#
# Elastic Constant Matrix: (Units=GPa)
#
#
# Indices 1 2 3 4 5 6 
#
# 1 143.8287 59.3786 36.5756 0.0000 0.0000 0.0000
# 2 59.3786 91.0913 29.4047 0.0000 0.0000 0.0000
# 3 36.5756 29.4047 41.5882 0.0000 0.0000 0.0000
# 4 0.0000 0.0000 0.0000 22.7829 0.0000 0.0000
# 5 0.0000 0.0000 0.0000 0.0000 21.1210 0.0000
# 6 0.0000 0.0000 0.0000 0.0000 0.0000 27.1079
#
#
#
# Elastic Compliance Matrix: (Units=1/GPa)
#
#
# Indices 1 2 3 4 5 6 
#
# 1 0.010451 -0.004983 -0.005668 0.000000 0.000000 0.000000
# 2 -0.004983 0.016600 -0.007355 0.000000 0.000000 0.000000
# 3 -0.005668 -0.007355 0.034231 0.000000 0.000000 0.000000
# 4 0.000000 0.000000 0.000000 0.043893 0.000000 0.000000
# 5 0.000000 0.000000 0.000000 0.000000 0.047346 0.000000
# 6 0.000000 0.000000 0.000000 0.000000 0.000000 0.036890
#
#
# Mechanical properties :
#
#
# Convention : Reuss Voigt Hill
#
# Bulk Modulus (GPa) = 39.57279 58.58068 49.07673
# Shear Modulus (GPa) = 21.38153 24.27899 22.83026
#
# Velocity S-wave (km/s) = 3.32572 3.54390 3.43654
# Velocity P-wave (km/s) = 5.93445 6.85920 6.41351
#
# Compressibility (1/GPa) = 0.02526989
#
# Stress axis : x y z
#
# Youngs Moduli (GPa) = 95.68087 60.23966 29.21356
#
# Poissons Ratio (x) = 0.30017 0.16560
# Poissons Ratio (y) = 0.47678 0.21486
# Poissons Ratio (z) = 0.54237 0.44305
#
# Static dielectric constant tensor:
#      x y z
#    x 3.656310 0.000000 0.000000 
#    y 0.000000 3.562150 0.000000 
#    z 0.000000 0.000000 3.259740 
# 
# 
# High freq. dielectric constant tensor:
#      x y z
#    x 1.765950 0.000000 0.000000 
#    y 0.000000 1.752170 0.000000 
#    z 0.000000 0.000000 1.720270 
# 
# From -- ./inp_files/11754.got.cif
#   From: 2010.03.12/outbox.cif.g09.slc.cpg/sg65_6_cif.got.tgz:11754.got - 2010.04.10 20:52:16.
