data_PCOD8269077
_publ_section_title
;
Structure prediction by ZEFSAII (Michael W. Deem and Ramdas Pophale) SiO2 
 PCOD8269077
Probable space group: C M M M
;
_chemical_formula_sum "Si O2"
_cell_formula_units_Z 88
_cell_length_a 19.089863
_cell_length_b 8.741767
_cell_length_c 28.682279
_cell_angle_alpha 90.000000
_cell_angle_beta 90.000000
_cell_angle_gamma 90.000000
_cell_volume 4786.473892
_symmetry_space_group_name_H-M "C M M M"
_symmetry_group_IT_number 65
_symmetry_cell_setting 'orthorhombic'
loop_
_space_group_symop_operation_xyz
x,y,z
-x,-y,z
x,-y,-z
-x,y,-z
-x,-y,-z
x,y,-z
-x,y,z
x,-y,z
1/2+x,1/2+y,z
1/2-x,1/2-y,z
1/2+x,1/2-y,-z
1/2-x,1/2+y,-z
1/2-x,1/2-y,-z
1/2+x,1/2+y,-z
1/2-x,1/2+y,z
1/2+x,1/2-y,z
loop_
_atom_site_type_symbol
_atom_site_label
_atom_site_fract_x
_atom_site_fract_y
_atom_site_fract_z
Si Si1 0.673129 0.179867 0.642673
Si Si2 0.581780 0.322721 0.722043
Si Si3 0.673629 0.320845 0.449543
Si Si4 0.581228 0.822830 0.181276
Si Si5 0.824224 0.823750 0.000000
Si Si6 0.172683 0.180847 0.898993
O O1 0.750000 0.250000 0.649774
O O2 0.623950 0.223612 0.685194
O O3 0.636099 0.241722 0.594779
O O4 0.680623 0.000000 0.639732
O O5 0.500000 0.289482 0.714504
O O6 0.600173 0.500000 0.715564
O O7 0.605452 0.270590 0.773324
O O8 0.635846 0.290805 0.500000
O O9 0.679204 0.500000 0.439622
O O10 0.750000 0.250000 0.452290
O O11 0.500000 0.794427 0.170900
O O12 0.622890 0.762120 0.137327
O O13 0.597955 0.000000 0.189906
O O14 0.750000 0.750000 0.000000
O O15 0.861215 0.781871 0.049391
O O16 0.807852 0.000000 0.000000
O O17 0.250000 0.250000 0.894416
O O18 0.175579 0.000000 0.889320
#
# Coordination Sequence:
#
# PCOD8269077 Si02
#       6
#    16  16  16  16   8  16
#     4  11  21  33  52  78 108 137 170 213 256 300
#     4  10  21  38  58  77 100 133 171 210 257 312
#     4   9  16  27  45  70 101 135 170 208 252 301
#     4  10  21  37  55  76 103 134 170 211 255 304
#     4   8  16  30  49  74 103 135 169 207 249 298
#     4  10  19  33  54  79 106 136 172 211 254 301
#
# _framework density 18.385141000000001
#
# number of rings (size 3 to 8) (size 9 to 14) (size 15 to 20)
#    0.000    2.182    0.000    4.909    0.000    4.727 
#    0.000    4.091    0.000    3.273    0.000    3.818 
#    0.000    0.000    0.000    0.000    0.000    0.000 
#
# Total GULP energy -545253.573950 kJ/mol
# GULP energy per Si atom -12392.126681 kJ/mol
# Density = 1.834330 g / cm^3
# Si number density = 18.385141 Si / 1000 Ang^3
#
#
#
# Elastic Constant Matrix: (Units=GPa)
#
#
# Indices 1 2 3 4 5 6 
#
# 1 41.7894 33.9483 52.9553 0.0000 0.0000 0.0000
# 2 33.9483 104.9876 53.6509 0.0000 0.0000 0.0000
# 3 52.9553 53.6509 160.1342 0.0000 0.0000 0.0000
# 4 0.0000 0.0000 0.0000 34.0817 0.0000 0.0000
# 5 0.0000 0.0000 0.0000 0.0000 -23.7907 0.0000
# 6 0.0000 0.0000 0.0000 0.0000 0.0000 25.1183
#
#
#
# Elastic Compliance Matrix: (Units=1/GPa)
#
#
# Indices 1 2 3 4 5 6 
#
# 1 0.047039 -0.008761 -0.012620 0.000000 0.000000 0.000000
# 2 -0.008761 0.013124 -0.001500 0.000000 0.000000 0.000000
# 3 -0.012620 -0.001500 0.010921 0.000000 0.000000 0.000000
# 4 0.000000 0.000000 0.000000 0.029341 0.000000 0.000000
# 5 0.000000 0.000000 0.000000 0.000000 -0.042033 0.000000
# 6 0.000000 0.000000 0.000000 0.000000 0.000000 0.039812
#
#
# Mechanical properties :
#
#
# Convention : Reuss Voigt Hill
#
# Bulk Modulus (GPa) = 39.49194 65.33556 52.41375
# Shear Modulus (GPa) = 32.80694 18.17228 25.48961
#
# Velocity S-wave (km/s) = 4.22883 3.14733 3.72751
# Velocity P-wave (km/s) = 6.73580 6.98727 6.86268
#
# Compressibility (1/GPa) = 0.02532162
#
# Stress axis : x y z
#
# Youngs Moduli (GPa) = 21.25898 76.19401 91.56940
#
# Poissons Ratio (x) = 0.66755 1.15562
# Poissons Ratio (y) = 0.18625 0.13735
# Poissons Ratio (z) = 0.26829 0.11428
#
# Static dielectric constant tensor:
#      x y z
#    x 2.977590 0.000000 0.000000 
#    y 0.000000 3.632070 0.000000 
#    z 0.000000 0.000000 4.362940 
# 
# 
# High freq. dielectric constant tensor:
#      x y z
#    x 1.664070 0.000000 0.000000 
#    y 0.000000 1.732810 0.000000 
#    z 0.000000 0.000000 1.741690 
# 
# From -- ./inp_files/77825.got.cif
#   From: 2010.03.12/outbox.cif.g09.slc.cpg/sg65_39_cif.got.tgz:77825.got - 2010.04.10 20:52:16.
