data_PCOD8269237
_publ_section_title
;
Structure prediction by ZEFSAII (Michael W. Deem and Ramdas Pophale) SiO2 
 PCOD8269237
Probable space group: C M M M
;
_chemical_formula_sum "Si O2"
_cell_formula_units_Z 120
_cell_length_a 14.261042
_cell_length_b 20.832233
_cell_length_c 21.961578
_cell_angle_alpha 90.000000
_cell_angle_beta 90.000000
_cell_angle_gamma 90.000000
_cell_volume 6524.550928
_symmetry_space_group_name_H-M "C M M M"
_symmetry_group_IT_number 65
_symmetry_cell_setting 'orthorhombic'
loop_
_space_group_symop_operation_xyz
x,y,z
-x,-y,z
x,-y,-z
-x,y,-z
-x,-y,-z
x,y,-z
-x,y,z
x,-y,z
1/2+x,1/2+y,z
1/2-x,1/2-y,z
1/2+x,1/2-y,-z
1/2-x,1/2+y,-z
1/2-x,1/2-y,-z
1/2+x,1/2+y,-z
1/2-x,1/2+y,z
1/2+x,1/2-y,z
loop_
_atom_site_type_symbol
_atom_site_label
_atom_site_fract_x
_atom_site_fract_y
_atom_site_fract_z
Si Si1 0.605390 0.354377 0.677996
Si Si2 0.224604 0.573375 0.284819
Si Si3 0.856535 0.769439 0.568578
Si Si4 0.392444 0.073619 0.929017
Si Si5 0.212099 0.349425 0.168909
Si Si6 0.102797 0.638355 0.618164
Si Si7 0.111931 0.571745 0.500000
Si Si8 0.390746 0.722092 0.797567
O O1 0.500000 0.379523 0.681102
O O2 0.667877 0.415543 0.695972
O O3 0.629895 0.332607 0.609324
O O4 0.622257 0.296462 0.726428
O O5 0.195252 0.500000 0.297002
O O6 0.209295 0.590267 0.214519
O O7 0.163181 0.623698 0.322890
O O8 0.896816 0.780108 0.500000
O O9 0.750000 0.750000 0.564465
O O10 0.910688 0.713443 0.604446
O O11 0.500000 0.086022 0.908986
O O12 0.323341 0.123184 0.895294
O O13 0.365001 0.000000 0.914489
O O14 0.380376 0.087847 0.000000
O O15 0.318971 0.322348 0.162820
O O16 0.140511 0.295395 0.193620
O O17 0.152946 0.606245 0.559556
O O18 0.000000 0.608335 0.629288
O O19 0.149476 0.500000 0.500000
O O20 0.000000 0.576998 0.500000
O O21 0.500000 0.712638 0.818000
#
# Coordination Sequence:
#
# PCOD8269237 Si02
#       8
#    16  16  16  16  16  16   8  16
#     4  10  21  37  56  74 100 137 174 217 270 320
#     4  11  23  37  53  77 106 133 173 220 260 313
#     4  11  21  34  55  79 100 126 168 220 270 318
#     4   9  18  33  54  82 116 152 189 226 264 310
#     4  10  19  33  57  80 107 144 178 216 268 319
#     4  11  21  34  51  73 101 130 159 203 261 315
#     4   9  18  32  47  64  93 133 165 186 233 313
#     4   9  19  34  53  81 111 140 174 219 272 325
#
# _framework density 18.39207
#
# number of rings (size 3 to 8) (size 9 to 14) (size 15 to 20)
#    0.000    1.933    2.000    2.800    1.867    4.000 
#    0.000    1.333    0.000    2.400    0.000    1.867 
#    0.000    0.000    0.000    0.000    0.000    0.000 
#
# Total GULP energy -743838.683027 kJ/mol
# GULP energy per Si atom -12397.311384 kJ/mol
# Density = 1.835021 g / cm^3
# Si number density = 18.392070 Si / 1000 Ang^3
#
#
#
# Elastic Constant Matrix: (Units=GPa)
#
#
# Indices 1 2 3 4 5 6 
#
# 1 107.0646 19.5243 38.9175 0.0000 0.0000 0.0000
# 2 19.5243 64.5641 34.7670 0.0000 0.0000 0.0000
# 3 38.9175 34.7670 83.1502 0.0000 0.0000 0.0000
# 4 0.0000 0.0000 0.0000 28.1043 0.0000 0.0000
# 5 0.0000 0.0000 0.0000 0.0000 -33.9226 0.0000
# 6 0.0000 0.0000 0.0000 0.0000 0.0000 20.3598
#
#
#
# Elastic Compliance Matrix: (Units=1/GPa)
#
#
# Indices 1 2 3 4 5 6 
#
# 1 0.011282 -0.000733 -0.004974 0.000000 0.000000 0.000000
# 2 -0.000733 0.020037 -0.008035 0.000000 0.000000 0.000000
# 3 -0.004974 -0.008035 0.017714 0.000000 0.000000 0.000000
# 4 0.000000 0.000000 0.000000 0.035582 0.000000 0.000000
# 5 0.000000 0.000000 0.000000 0.000000 -0.029479 0.000000
# 6 0.000000 0.000000 0.000000 0.000000 0.000000 0.049116
#
#
# Mechanical properties :
#
#
# Convention : Reuss Voigt Hill
#
# Bulk Modulus (GPa) = 46.40575 49.02184 47.71380
# Shear Modulus (GPa) = 35.99248 13.67964 24.83606
#
# Velocity S-wave (km/s) = 4.42855 2.73019 3.67872
# Velocity P-wave (km/s) = 7.17186 6.05394 6.63648
#
# Compressibility (1/GPa) = 0.02154905
#
# Stress axis : x y z
#
# Youngs Moduli (GPa) = 88.63828 49.90823 56.45336
#
# Poissons Ratio (x) = 0.03660 0.28078
# Poissons Ratio (y) = 0.06500 0.45358
# Poissons Ratio (z) = 0.44086 0.40099
#
# Static dielectric constant tensor:
#      x y z
#    x 3.467900 0.000000 0.000000 
#    y 0.000000 3.224900 0.000000 
#    z 0.000000 0.000000 3.248170 
# 
# 
# High freq. dielectric constant tensor:
#      x y z
#    x 1.713340 0.000000 0.000000 
#    y 0.000000 1.697180 0.000000 
#    z 0.000000 0.000000 1.697920 
# 
# From -- ./inp_files/63041.got.cif
#   From: 2010.03.12/outbox.cif.g09.slc.cpg/sg65_32_cif.got.tgz:63041.got - 2010.04.10 20:52:16.
