data_PCOD8269754
_publ_section_title
;
Structure prediction by ZEFSAII (Michael W. Deem and Ramdas Pophale) SiO2 
 PCOD8269754
Probable space group: C M M M
;
_chemical_formula_sum "Si O2"
_cell_formula_units_Z 72
_cell_length_a 9.090821
_cell_length_b 29.855343
_cell_length_c 17.890090
_cell_angle_alpha 90.000000
_cell_angle_beta 90.000000
_cell_angle_gamma 90.000000
_cell_volume 4855.541797
_symmetry_space_group_name_H-M "C M M M"
_symmetry_group_IT_number 65
_symmetry_cell_setting 'orthorhombic'
loop_
_space_group_symop_operation_xyz
x,y,z
-x,-y,z
x,-y,-z
-x,y,-z
-x,-y,-z
x,y,-z
-x,y,z
x,-y,z
1/2+x,1/2+y,z
1/2-x,1/2-y,z
1/2+x,1/2-y,-z
1/2-x,1/2+y,-z
1/2-x,1/2-y,-z
1/2+x,1/2+y,-z
1/2-x,1/2+y,z
1/2+x,1/2-y,z
loop_
_atom_site_type_symbol
_atom_site_label
_atom_site_fract_x
_atom_site_fract_y
_atom_site_fract_z
Si Si1 0.334886 0.553494 0.840032
Si Si2 0.666189 0.793464 0.588988
Si Si3 0.828624 0.117535 0.412669
Si Si4 0.169059 0.447153 0.694714
Si Si5 0.325259 0.450922 0.000000
O O1 0.500000 0.570215 0.821244
O O2 0.333794 0.500000 0.845841
O O3 0.226619 0.570357 0.775046
O O4 0.280771 0.573270 0.921323
O O5 0.666485 0.791878 0.500000
O O6 0.500000 0.793853 0.620030
O O7 0.750000 0.750000 0.621172
O O8 0.749762 0.837675 0.617249
O O9 0.799008 0.110338 0.500000
O O10 0.762119 0.074805 0.371270
O O11 0.000000 0.121919 0.394834
O O12 0.191909 0.500000 0.687312
O O13 0.000000 0.433173 0.686713
O O14 0.251281 0.500000 0.000000
O O15 0.500000 0.456065 0.000000
#
# Coordination Sequence:
#
# PCOD8269754 Si02
#       5
#    16  16  16  16   8
#     4   8  13  23  39  56  74  98 129 163 198 237
#     4   9  16  27  44  64  84 103 124 155 198 246
#     4  10  20  32  45  60  77 101 137 176 210 244
#     4  10  20  31  41  55  78 108 140 173 209 245
#     4   7  10  18  35  57  75  93 122 159 196 235
#
# _framework density 14.828417
#
# number of rings (size 3 to 8) (size 9 to 14) (size 15 to 20)
#    0.000    3.000    0.000    3.333    0.000    5.778 
#    0.000    2.778    0.000    3.333    0.000    0.000 
#    0.000    0.000    0.000    1.000    0.000   12.778 
#
# Total GULP energy -446129.828311 kJ/mol
# GULP energy per Si atom -12392.495231 kJ/mol
# Density = 1.479467 g / cm^3
# Si number density = 14.828417 Si / 1000 Ang^3
#
#
#
# Elastic Constant Matrix: (Units=GPa)
#
#
# Indices 1 2 3 4 5 6 
#
# 1 104.4585 36.9509 49.1140 0.0000 0.0000 0.0000
# 2 36.9509 44.0581 32.9376 0.0000 0.0000 0.0000
# 3 49.1140 32.9376 71.6430 0.0000 0.0000 0.0000
# 4 0.0000 0.0000 0.0000 0.9596 0.0000 0.0000
# 5 0.0000 0.0000 0.0000 0.0000 16.4124 0.0000
# 6 0.0000 0.0000 0.0000 0.0000 0.0000 24.0109
#
#
#
# Elastic Compliance Matrix: (Units=1/GPa)
#
#
# Indices 1 2 3 4 5 6 
#
# 1 0.015712 -0.007809 -0.007181 0.000000 0.000000 0.000000
# 2 -0.007809 0.038465 -0.012331 0.000000 0.000000 0.000000
# 3 -0.007181 -0.012331 0.024550 0.000000 0.000000 0.000000
# 4 0.000000 0.000000 0.000000 1.042123 0.000000 0.000000
# 5 0.000000 0.000000 0.000000 0.000000 0.060930 0.000000
# 6 0.000000 0.000000 0.000000 0.000000 0.000000 0.041648
#
#
# Mechanical properties :
#
#
# Convention : Reuss Voigt Hill
#
# Bulk Modulus (GPa) = 41.51884 50.90718 46.21301
# Shear Modulus (GPa) = 3.88773 15.02039 9.45406
#
# Velocity S-wave (km/s) = 1.62096 3.18613 2.52774
# Velocity P-wave (km/s) = 5.61815 6.92392 6.30493
#
# Compressibility (1/GPa) = 0.02408545
#
# Stress axis : x y z
#
# Youngs Moduli (GPa) = 63.64646 25.99770 40.73328
#
# Poissons Ratio (x) = 0.20301 0.29250
# Poissons Ratio (y) = 0.49700 0.50227
# Poissons Ratio (z) = 0.45704 0.32057
#
# Static dielectric constant tensor:
#      x y z
#    x 2.958520 0.000000 0.000000 
#    y 0.000000 2.582450 0.000000 
#    z 0.000000 0.000000 2.978130 
# 
# 
# High freq. dielectric constant tensor:
#      x y z
#    x 1.573610 0.000000 0.000000 
#    y 0.000000 1.522060 0.000000 
#    z 0.000000 0.000000 1.550490 
# 
# From -- ./inp_files/49739.got.cif
#   From: 2010.03.12/outbox.cif.g09.slc.cpg/sg65_25_cif.got.tgz:49739.got - 2010.04.10 20:52:16.
