data_PCOD8269261
_publ_section_title
;
Structure prediction by ZEFSAII (Michael W. Deem and Ramdas Pophale) SiO2 
 PCOD8269261
Probable space group: C M M M
;
_chemical_formula_sum "Si O2"
_cell_formula_units_Z 64
_cell_length_a 23.669616
_cell_length_b 9.063238
_cell_length_c 14.457094
_cell_angle_alpha 90.000000
_cell_angle_beta 90.000000
_cell_angle_gamma 90.000000
_cell_volume 3101.384427
_symmetry_space_group_name_H-M "C M M M"
_symmetry_group_IT_number 65
_symmetry_cell_setting 'orthorhombic'
loop_
_space_group_symop_operation_xyz
x,y,z
-x,-y,z
x,-y,-z
-x,y,-z
-x,-y,-z
x,y,-z
-x,y,z
x,-y,z
1/2+x,1/2+y,z
1/2-x,1/2-y,z
1/2+x,1/2-y,-z
1/2-x,1/2+y,-z
1/2-x,1/2-y,-z
1/2+x,1/2+y,-z
1/2-x,1/2+y,z
1/2+x,1/2-y,z
loop_
_atom_site_type_symbol
_atom_site_label
_atom_site_fract_x
_atom_site_fract_y
_atom_site_fract_z
Si Si1 0.000000 0.664258 0.308720
Si Si2 0.122522 0.841039 0.138690
Si Si3 0.691364 0.169568 0.000000
Si Si4 0.113004 0.170096 0.349165
Si Si5 0.688487 0.177929 0.500000
Si Si6 0.500000 0.754408 0.895521
O O1 0.052294 0.753495 0.349990
O O2 0.000000 0.641921 0.196089
O O3 0.000000 0.500000 0.350738
O O4 0.136519 0.824065 0.245831
O O5 0.056068 0.843138 0.114622
O O6 0.145569 0.000000 0.104336
O O7 0.154867 0.708812 0.089690
O O8 0.750000 0.250000 0.000000
O O9 0.704530 0.000000 0.000000
O O10 0.155649 0.265121 0.410136
O O11 0.108400 0.000000 0.383921
O O12 0.750000 0.250000 0.500000
O O13 0.692570 0.000000 0.500000
O O14 0.500000 0.829693 0.000000
#
# Coordination Sequence:
#
# PCOD8269261 Si02
#       6
#     8  16   8  16   8   8
#     4  10  21  37  59  93 134 170 209 255 310 375
#     4  10  21  39  63  91 124 163 205 251 305 365
#     4  12  26  41  58  81 115 160 210 258 307 364
#     4  10  22  42  66  94 127 164 206 256 312 374
#     4  12  26  45  70  97 124 160 206 260 316 376
#     4  10  19  33  58  95 128 169 204 251 303 367
#
# _framework density 20.635946000000001
#
# number of rings (size 3 to 8) (size 9 to 14) (size 15 to 20)
#    0.000    1.500    1.250    3.750    0.000   10.250 
#    0.000    2.500    0.000    0.000    0.000    0.000 
#    0.000    0.000    0.000    0.000    0.000    0.000 
#
# Total GULP energy -396571.210208 kJ/mol
# GULP energy per Si atom -12392.850319 kJ/mol
# Density = 2.058898 g / cm^3
# Si number density = 20.635946 Si / 1000 Ang^3
#
#
#
# Elastic Constant Matrix: (Units=GPa)
#
#
# Indices 1 2 3 4 5 6 
#
# 1 141.3349 76.0791 65.2168 0.0000 0.0000 0.0000
# 2 76.0791 193.5054 50.5440 0.0000 0.0000 0.0000
# 3 65.2168 50.5440 115.1538 0.0000 0.0000 0.0000
# 4 0.0000 0.0000 0.0000 25.0488 0.0000 0.0000
# 5 0.0000 0.0000 0.0000 0.0000 119.6820 0.0000
# 6 0.0000 0.0000 0.0000 0.0000 0.0000 29.8877
#
#
#
# Elastic Compliance Matrix: (Units=1/GPa)
#
#
# Indices 1 2 3 4 5 6 
#
# 1 0.010958 -0.003035 -0.004874 0.000000 0.000000 0.000000
# 2 -0.003035 0.006678 -0.001212 0.000000 0.000000 0.000000
# 3 -0.004874 -0.001212 0.011976 0.000000 0.000000 0.000000
# 4 0.000000 0.000000 0.000000 0.039922 0.000000 0.000000
# 5 0.000000 0.000000 0.000000 0.000000 0.008355 0.000000
# 6 0.000000 0.000000 0.000000 0.000000 0.000000 0.033459
#
#
# Mechanical properties :
#
#
# Convention : Reuss Voigt Hill
#
# Bulk Modulus (GPa) = 87.95123 92.63044 90.29084
# Shear Modulus (GPa) = 37.48664 52.13398 44.81031
#
# Velocity S-wave (km/s) = 4.26675 5.03175 4.66496
# Velocity P-wave (km/s) = 8.18452 8.87375 8.53609
#
# Compressibility (1/GPa) = 0.01136994
#
# Stress axis : x y z
#
# Youngs Moduli (GPa) = 91.25563 149.75077 83.49817
#
# Poissons Ratio (x) = 0.45454 0.40696
# Poissons Ratio (y) = 0.27699 0.10120
# Poissons Ratio (z) = 0.44477 0.18150
#
# Static dielectric constant tensor:
#      x y z
#    x 3.761310 0.000000 0.000000 
#    y 0.000000 3.791590 0.000000 
#    z 0.000000 0.000000 3.914420 
# 
# 
# High freq. dielectric constant tensor:
#      x y z
#    x 1.804660 0.000000 0.000000 
#    y 0.000000 1.810680 0.000000 
#    z 0.000000 0.000000 1.814040 
# 
# From -- ./inp_files/45139.got.cif
#   From: 2010.03.12/outbox.cif.g09.slc.cpg/sg65_23_cif.got.tgz:45139.got - 2010.04.10 20:52:16.
