data_PCOD8269034
_publ_section_title
;
Structure prediction by ZEFSAII (Michael W. Deem and Ramdas Pophale) SiO2 
 PCOD8269034
Probable space group: C M M M
;
_chemical_formula_sum "Si O2"
_cell_formula_units_Z 88
_cell_length_a 18.756572
_cell_length_b 8.910402
_cell_length_c 28.504392
_cell_angle_alpha 90.000000
_cell_angle_beta 90.000000
_cell_angle_gamma 90.000000
_cell_volume 4763.899034
_symmetry_space_group_name_H-M "C M M M"
_symmetry_group_IT_number 65
_symmetry_cell_setting 'orthorhombic'
loop_
_space_group_symop_operation_xyz
x,y,z
-x,-y,z
x,-y,-z
-x,y,-z
-x,-y,-z
x,y,-z
-x,y,z
x,-y,z
1/2+x,1/2+y,z
1/2-x,1/2-y,z
1/2+x,1/2-y,-z
1/2-x,1/2+y,-z
1/2-x,1/2-y,-z
1/2+x,1/2+y,-z
1/2-x,1/2+y,z
1/2+x,1/2-y,z
loop_
_atom_site_type_symbol
_atom_site_label
_atom_site_fract_x
_atom_site_fract_y
_atom_site_fract_z
Si Si1 0.420230 0.178898 0.000000
Si Si2 0.176301 0.675361 0.445534
Si Si3 0.824627 0.326902 0.186952
Si Si4 0.416384 0.674606 0.629963
Si Si5 0.172187 0.322605 0.288751
Si Si6 0.672911 0.823213 0.085740
O O1 0.380085 0.240299 0.953777
O O2 0.500000 0.244961 0.000000
O O3 0.422495 0.000000 0.000000
O O4 0.161935 0.707447 0.500000
O O5 0.180638 0.500000 0.434287
O O6 0.250000 0.750000 0.428840
O O7 0.111806 0.749586 0.417481
O O8 0.807123 0.500000 0.186956
O O9 0.750000 0.250000 0.186513
O O10 0.862106 0.286822 0.236738
O O11 0.862755 0.285050 0.137294
O O12 0.500000 0.702933 0.632341
O O13 0.396880 0.500000 0.629420
O O14 0.381786 0.751402 0.674883
O O15 0.178775 0.500000 0.297912
O O16 0.250000 0.250000 0.294505
O O17 0.750000 0.750000 0.079548
O O18 0.683138 0.000000 0.079340
#
# Coordination Sequence:
#
# PCOD8269034 Si02
#       6
#     8  16  16  16  16  16
#     4   9  17  28  43  65  94 127 160 196 240 291
#     4  10  21  38  61  86 110 137 171 211 253 299
#     4   8  15  27  45  71  97 122 156 200 247 292
#     4  11  24  39  54  75 106 142 176 211 253 300
#     4  10  19  33  54  77 102 132 168 210 255 303
#     4   9  16  28  47  70  94 121 158 200 243 291
#
# _framework density 18.472263000000002
#
# number of rings (size 3 to 8) (size 9 to 14) (size 15 to 20)
#    0.000    2.455    0.000    2.455    0.000    3.636 
#    0.000    2.727    0.000    4.364    0.000    0.000 
#    0.000    0.000    0.000    0.000    0.000    0.000 
#
# Total GULP energy -545184.623469 kJ/mol
# GULP energy per Si atom -12390.559624 kJ/mol
# Density = 1.843022 g / cm^3
# Si number density = 18.472263 Si / 1000 Ang^3
#
#
#
# Elastic Constant Matrix: (Units=GPa)
#
#
# Indices 1 2 3 4 5 6 
#
# 1 95.3721 47.2306 74.8719 0.0000 0.0000 0.0000
# 2 47.2306 78.9861 60.2141 0.0000 0.0000 0.0000
# 3 74.8719 60.2141 164.6725 0.0000 0.0000 0.0000
# 4 0.0000 0.0000 0.0000 22.6175 0.0000 0.0000
# 5 0.0000 0.0000 0.0000 0.0000 7.9526 0.0000
# 6 0.0000 0.0000 0.0000 0.0000 0.0000 24.4353
#
#
#
# Elastic Compliance Matrix: (Units=1/GPa)
#
#
# Indices 1 2 3 4 5 6 
#
# 1 0.018379 -0.006405 -0.006014 0.000000 0.000000 0.000000
# 2 -0.006405 0.019786 -0.004323 0.000000 0.000000 0.000000
# 3 -0.006014 -0.004323 0.010388 0.000000 0.000000 0.000000
# 4 0.000000 0.000000 0.000000 0.044214 0.000000 0.000000
# 5 0.000000 0.000000 0.000000 0.000000 0.125746 0.000000
# 6 0.000000 0.000000 0.000000 0.000000 0.000000 0.040924
#
#
# Mechanical properties :
#
#
# Convention : Reuss Voigt Hill
#
# Bulk Modulus (GPa) = 66.36359 78.18487 72.27423
# Shear Modulus (GPa) = 16.78179 21.44867 19.11523
#
# Velocity S-wave (km/s) = 3.01738 3.41123 3.22033
# Velocity P-wave (km/s) = 6.93855 7.61136 7.28273
#
# Compressibility (1/GPa) = 0.01506850
#
# Stress axis : x y z
#
# Youngs Moduli (GPa) = 54.41136 50.54164 96.26660
#
# Poissons Ratio (x) = 0.32371 0.57897
# Poissons Ratio (y) = 0.34849 0.41614
# Poissons Ratio (z) = 0.32724 0.21848
#
# Static dielectric constant tensor:
#      x y z
#    x 3.109980 0.000000 0.000000 
#    y 0.000000 3.342510 0.000000 
#    z 0.000000 0.000000 4.221330 
# 
# 
# High freq. dielectric constant tensor:
#      x y z
#    x 1.680330 0.000000 0.000000 
#    y 0.000000 1.715680 0.000000 
#    z 0.000000 0.000000 1.747430 
# 
# From -- ./inp_files/76590.got.cif
#   From: 2010.03.12/outbox.cif.g09.slc.cpg/sg65_39_cif.got.tgz:76590.got - 2010.04.10 20:52:16.
