data_PCOD8269726
_publ_section_title
;
Structure prediction by ZEFSAII (Michael W. Deem and Ramdas Pophale) SiO2 
 PCOD8269726
Probable space group: C M M M
;
_chemical_formula_sum "Si O2"
_cell_formula_units_Z 104
_cell_length_a 27.707366
_cell_length_b 8.222341
_cell_length_c 28.029223
_cell_angle_alpha 90.000000
_cell_angle_beta 90.000000
_cell_angle_gamma 90.000000
_cell_volume 6385.601088
_symmetry_space_group_name_H-M "C M M M"
_symmetry_group_IT_number 65
_symmetry_cell_setting 'orthorhombic'
loop_
_space_group_symop_operation_xyz
x,y,z
-x,-y,z
x,-y,-z
-x,y,-z
-x,-y,-z
x,y,-z
-x,y,z
x,-y,z
1/2+x,1/2+y,z
1/2-x,1/2-y,z
1/2+x,1/2-y,-z
1/2-x,1/2+y,-z
1/2-x,1/2-y,-z
1/2+x,1/2+y,-z
1/2-x,1/2+y,z
1/2+x,1/2-y,z
loop_
_atom_site_type_symbol
_atom_site_label
_atom_site_fract_x
_atom_site_fract_y
_atom_site_fract_z
Si Si1 0.442700 0.181790 0.390352
Si Si2 0.942540 0.000000 0.445645
Si Si3 0.103516 0.811507 0.807386
Si Si4 0.801615 0.809495 0.141702
Si Si5 0.354135 0.807539 0.052992
Si Si6 0.445653 0.811431 0.282184
Si Si7 0.447444 0.189813 0.104874
O O1 0.500000 0.177277 0.393905
O O2 0.422188 0.332566 0.421781
O O3 0.427145 0.216565 0.335984
O O4 0.423687 0.000000 0.406395
O O5 0.924813 0.000000 0.500000
O O6 0.000000 0.000000 0.441684
O O7 0.157309 0.748152 0.821162
O O8 0.091960 0.779666 0.752111
O O9 0.064222 0.719328 0.839543
O O10 0.099607 0.000000 0.819197
O O11 0.750000 0.750000 0.160559
O O12 0.811331 0.742420 0.088484
O O13 0.801046 0.000000 0.138609
O O14 0.405169 0.733300 0.072019
O O15 0.357587 0.000000 0.051671
O O16 0.343880 0.737995 0.000000
O O17 0.500000 0.740823 0.276091
O O18 0.445677 0.000000 0.269216
O O19 0.500000 0.267218 0.092717
O O20 0.450099 0.000000 0.095275
#
# Coordination Sequence:
#
# PCOD8269726 Si02
#       7
#    16   8  16  16  16  16  16
#     4   8  15  26  37  53  79 110 148 193 231 264
#     4   9  16  24  36  54  76 110 156 198 235 269
#     4  10  20  30  43  65  86 106 137 174 209 255
#     4  10  21  36  51  66  84 106 134 170 210 255
#     4   9  18  32  49  68  87 108 136 168 205 247
#     4   9  17  28  42  61  86 116 147 179 215 255
#     4   9  17  29  44  62  87 115 139 166 200 242
#
# _framework density 16.286642000000001
#
# number of rings (size 3 to 8) (size 9 to 14) (size 15 to 20)
#    0.000    2.846    0.000    2.308    1.077    5.538 
#    0.000    3.077    0.000    0.000    0.000    4.308 
#    0.000    0.000    0.000    0.000    0.000    0.769 
#
# Total GULP energy -644456.368107 kJ/mol
# GULP energy per Si atom -12393.391694 kJ/mol
# Density = 1.624957 g / cm^3
# Si number density = 16.286642 Si / 1000 Ang^3
#
#
#
# Elastic Constant Matrix: (Units=GPa)
#
#
# Indices 1 2 3 4 5 6 
#
# 1 74.0401 18.7998 28.7457 0.0000 0.0000 0.0000
# 2 18.7998 59.9802 39.6251 0.0000 0.0000 0.0000
# 3 28.7457 39.6251 98.4183 0.0000 0.0000 0.0000
# 4 0.0000 0.0000 0.0000 21.3520 0.0000 0.0000
# 5 0.0000 0.0000 0.0000 0.0000 10.2329 0.0000
# 6 0.0000 0.0000 0.0000 0.0000 0.0000 15.2630
#
#
#
# Elastic Compliance Matrix: (Units=1/GPa)
#
#
# Indices 1 2 3 4 5 6 
#
# 1 0.015514 -0.002546 -0.003506 0.000000 0.000000 0.000000
# 2 -0.002546 0.023132 -0.008570 0.000000 0.000000 0.000000
# 3 -0.003506 -0.008570 0.014635 0.000000 0.000000 0.000000
# 4 0.000000 0.000000 0.000000 0.046834 0.000000 0.000000
# 5 0.000000 0.000000 0.000000 0.000000 0.097724 0.000000
# 6 0.000000 0.000000 0.000000 0.000000 0.000000 0.065518
#
#
# Mechanical properties :
#
#
# Convention : Reuss Voigt Hill
#
# Bulk Modulus (GPa) = 41.60299 45.19775 43.40037
# Shear Modulus (GPa) = 16.63269 19.05410 17.84340
#
# Velocity S-wave (km/s) = 3.19916 3.42412 3.31355
# Velocity P-wave (km/s) = 6.26465 6.59124 6.43002
#
# Compressibility (1/GPa) = 0.02403673
#
# Stress axis : x y z
#
# Youngs Moduli (GPa) = 64.45806 43.23084 68.32937
#
# Poissons Ratio (x) = 0.11008 0.23957
# Poissons Ratio (y) = 0.16413 0.58555
# Poissons Ratio (z) = 0.22599 0.37047
#
# Static dielectric constant tensor:
#      x y z
#    x 2.883530 0.000000 0.000000 
#    y 0.000000 3.148390 0.000000 
#    z 0.000000 0.000000 3.070290 
# 
# 
# High freq. dielectric constant tensor:
#      x y z
#    x 1.582670 0.000000 0.000000 
#    y 0.000000 1.630900 0.000000 
#    z 0.000000 0.000000 1.610980 
# 
# From -- ./inp_files/76026.got.cif
#   From: 2010.03.12/outbox.cif.g09.slc.cpg/sg65_39_cif.got.tgz:76026.got - 2010.04.10 20:52:16.
