data_PCOD8269014
_publ_section_title
;
Structure prediction by ZEFSAII (Michael W. Deem and Ramdas Pophale) SiO2 
 PCOD8269014
Probable space group: C M M M
;
_chemical_formula_sum "Si O2"
_cell_formula_units_Z 80
_cell_length_a 16.511324
_cell_length_b 27.809820
_cell_length_c 9.204085
_cell_angle_alpha 90.000000
_cell_angle_beta 90.000000
_cell_angle_gamma 90.000000
_cell_volume 4226.303663
_symmetry_space_group_name_H-M "C M M M"
_symmetry_group_IT_number 65
_symmetry_cell_setting 'orthorhombic'
loop_
_space_group_symop_operation_xyz
x,y,z
-x,-y,z
x,-y,-z
-x,y,-z
-x,-y,-z
x,y,-z
-x,y,z
x,-y,z
1/2+x,1/2+y,z
1/2-x,1/2-y,z
1/2+x,1/2-y,-z
1/2-x,1/2+y,-z
1/2-x,1/2-y,-z
1/2+x,1/2+y,-z
1/2-x,1/2+y,z
1/2+x,1/2-y,z
loop_
_atom_site_type_symbol
_atom_site_label
_atom_site_fract_x
_atom_site_fract_y
_atom_site_fract_z
Si Si1 0.500000 0.446914 0.733070
Si Si2 0.367593 0.291655 0.167464
Si Si3 0.722150 0.140991 0.832789
Si Si4 0.177020 0.051908 0.833873
Si Si5 0.000000 0.155208 0.341404
Si Si6 0.405300 0.194407 0.668764
O O1 0.500000 0.500000 0.656060
O O2 0.419616 0.440737 0.829444
O O3 0.500000 0.401984 0.623395
O O4 0.276083 0.310676 0.176749
O O5 0.421954 0.330620 0.249535
O O6 0.376222 0.241008 0.245192
O O7 0.395439 0.286927 0.000000
O O8 0.771650 0.095643 0.764120
O O9 0.642356 0.148781 0.735281
O O10 0.696958 0.132023 0.000000
O O11 0.199870 0.000000 0.761323
O O12 0.202495 0.051005 0.000000
O O13 0.000000 0.181203 0.500000
O O14 0.383654 0.200467 0.500000
O O15 0.500000 0.185461 0.692543
#
# Coordination Sequence:
#
# PCOD8269014 Si02
#       6
#     8  16  16  16   8  16
#     4  10  19  33  53  79 114 156 192 227 268 320
#     4  11  22  37  58  83 112 147 187 230 274 327
#     4  10  21  36  57  85 112 143 185 229 277 329
#     4   9  17  31  54  84 115 146 184 229 275 325
#     4  12  23  34  52  80 118 158 191 227 273 322
#     4  11  24  40  57  80 110 145 185 229 280 337
#
# _framework density 18.929069999999999
#
# number of rings (size 3 to 8) (size 9 to 14) (size 15 to 20)
#    0.000    1.600    3.000    2.400    0.000    7.400 
#    0.000    0.000    0.000    1.200    0.000    4.200 
#    0.000    0.000    0.000    0.000    0.000    0.000 
#
# Total GULP energy -495709.131785 kJ/mol
# GULP energy per Si atom -12392.728295 kJ/mol
# Density = 1.888599 g / cm^3
# Si number density = 18.929070 Si / 1000 Ang^3
#
#
#
# Elastic Constant Matrix: (Units=GPa)
#
#
# Indices 1 2 3 4 5 6 
#
# 1 94.2348 63.2987 50.5492 0.0000 0.0000 0.0000
# 2 63.2987 127.4853 41.8433 0.0000 0.0000 0.0000
# 3 50.5492 41.8433 108.4888 0.0000 0.0000 0.0000
# 4 0.0000 0.0000 0.0000 8.1332 0.0000 0.0000
# 5 0.0000 0.0000 0.0000 0.0000 15.4526 0.0000
# 6 0.0000 0.0000 0.0000 0.0000 0.0000 25.8793
#
#
#
# Elastic Compliance Matrix: (Units=1/GPa)
#
#
# Indices 1 2 3 4 5 6 
#
# 1 0.018709 -0.007360 -0.005879 0.000000 0.000000 0.000000
# 2 -0.007360 0.011876 -0.001151 0.000000 0.000000 0.000000
# 3 -0.005879 -0.001151 0.012401 0.000000 0.000000 0.000000
# 4 0.000000 0.000000 0.000000 0.122953 0.000000 0.000000
# 5 0.000000 0.000000 0.000000 0.000000 0.064714 0.000000
# 6 0.000000 0.000000 0.000000 0.000000 0.000000 0.038641
#
#
# Mechanical properties :
#
#
# Convention : Reuss Voigt Hill
#
# Bulk Modulus (GPa) = 70.39135 71.28792 70.83963
# Shear Modulus (GPa) = 16.51208 21.52755 19.01981
#
# Velocity S-wave (km/s) = 2.95670 3.37601 3.17329
# Velocity P-wave (km/s) = 6.99455 7.27591 7.13662
#
# Compressibility (1/GPa) = 0.01420629
#
# Stress axis : x y z
#
# Youngs Moduli (GPa) = 53.45069 84.20197 80.64097
#
# Poissons Ratio (x) = 0.61971 0.47405
# Poissons Ratio (y) = 0.39339 0.09284
# Poissons Ratio (z) = 0.31421 0.09694
#
# Static dielectric constant tensor:
#      x y z
#    x 3.453950 0.000000 0.000000 
#    y 0.000000 3.792940 0.000000 
#    z 0.000000 0.000000 3.303620 
# 
# 
# High freq. dielectric constant tensor:
#      x y z
#    x 1.721030 0.000000 0.000000 
#    y 0.000000 1.737440 0.000000 
#    z 0.000000 0.000000 1.719910 
# 
# From -- ./inp_files/9748.got.cif
#   From: 2010.03.12/outbox.cif.g09.slc.cpg/sg65_5_cif.got.tgz:9748.got - 2010.04.10 20:52:16.
