data_PCOD8269690
_publ_section_title
;
Structure prediction by ZEFSAII (Michael W. Deem and Ramdas Pophale) SiO2 
 PCOD8269690
Probable space group: C M M M
;
_chemical_formula_sum "Si O2"
_cell_formula_units_Z 104
_cell_length_a 20.854446
_cell_length_b 29.872665
_cell_length_c 8.852158
_cell_angle_alpha 90.000000
_cell_angle_beta 90.000000
_cell_angle_gamma 90.000000
_cell_volume 5514.698616
_symmetry_space_group_name_H-M "C M M M"
_symmetry_group_IT_number 65
_symmetry_cell_setting 'orthorhombic'
loop_
_space_group_symop_operation_xyz
x,y,z
-x,-y,z
x,-y,-z
-x,y,-z
-x,-y,-z
x,y,-z
-x,y,z
x,-y,z
1/2+x,1/2+y,z
1/2-x,1/2-y,z
1/2+x,1/2-y,-z
1/2-x,1/2+y,-z
1/2-x,1/2-y,-z
1/2+x,1/2+y,-z
1/2-x,1/2+y,z
1/2+x,1/2-y,z
loop_
_atom_site_type_symbol
_atom_site_label
_atom_site_fract_x
_atom_site_fract_y
_atom_site_fract_z
Si Si1 0.219841 0.633283 0.678415
Si Si2 0.644426 0.627601 0.824548
Si Si3 0.428919 0.284933 0.821588
Si Si4 0.686193 0.223807 0.179528
Si Si5 0.362124 0.050143 0.319243
Si Si6 0.000000 0.447326 0.663730
Si Si7 0.425818 0.449039 0.671421
O O1 0.214458 0.636792 0.500000
O O2 0.292976 0.635625 0.726816
O O3 0.181921 0.674610 0.750609
O O4 0.189395 0.586495 0.737597
O O5 0.592670 0.664998 0.777917
O O6 0.615091 0.579416 0.788848
O O7 0.663051 0.631045 0.000000
O O8 0.500000 0.276067 0.752109
O O9 0.376609 0.249856 0.759116
O O10 0.432270 0.280181 0.000000
O O11 0.750000 0.250000 0.234347
O O12 0.686585 0.220043 0.000000
O O13 0.366532 0.049680 0.500000
O O14 0.432686 0.064704 0.252583
O O15 0.342674 0.000000 0.262577
O O16 0.000000 0.500000 0.638492
O O17 0.000000 0.423208 0.500000
O O18 0.413345 0.432685 0.500000
O O19 0.500000 0.444416 0.713333
O O20 0.403100 0.500000 0.688889
#
# Coordination Sequence:
#
# PCOD8269690 Si02
#       7
#    16  16  16  16  16   8  16
#     4  11  22  34  52  81 111 141 177 218 270 327
#     4  11  21  35  55  79 106 140 187 232 269 315
#     4   9  18  34  57  80 101 132 177 223 267 321
#     4  10  19  37  59  77 103 142 179 217 267 324
#     4   8  15  29  49  73 102 136 172 211 258 315
#     4   7  10  22  46  70  93 129 173 209 247 301
#     4   9  19  36  55  77 110 148 181 220 276 332
#
# _framework density 18.858691
#
# number of rings (size 3 to 8) (size 9 to 14) (size 15 to 20)
#    0.000    2.538    1.538    2.769    0.000    2.154 
#    1.385    2.308    0.000    3.231    0.000    0.000 
#    0.000    7.385    0.000    0.000    0.000    0.000 
#
# Total GULP energy -644523.082573 kJ/mol
# GULP energy per Si atom -12394.674665 kJ/mol
# Density = 1.881577 g / cm^3
# Si number density = 18.858691 Si / 1000 Ang^3
#
#
#
# Elastic Constant Matrix: (Units=GPa)
#
#
# Indices 1 2 3 4 5 6 
#
# 1 133.0848 61.8075 16.9010 0.0000 0.0000 0.0000
# 2 61.8075 123.3301 24.4335 0.0000 0.0000 0.0000
# 3 16.9010 24.4335 21.2500 0.0000 0.0000 0.0000
# 4 0.0000 0.0000 0.0000 29.3535 0.0000 0.0000
# 5 0.0000 0.0000 0.0000 0.0000 17.5411 0.0000
# 6 0.0000 0.0000 0.0000 0.0000 0.0000 35.2359
#
#
#
# Elastic Compliance Matrix: (Units=1/GPa)
#
#
# Indices 1 2 3 4 5 6 
#
# 1 0.009922 -0.004415 -0.002815 0.000000 0.000000 0.000000
# 2 -0.004415 0.012464 -0.010821 0.000000 0.000000 0.000000
# 3 -0.002815 -0.010821 0.061740 0.000000 0.000000 0.000000
# 4 0.000000 0.000000 0.000000 0.034067 0.000000 0.000000
# 5 0.000000 0.000000 0.000000 0.000000 0.057009 0.000000
# 6 0.000000 0.000000 0.000000 0.000000 0.000000 0.028380
#
#
# Mechanical properties :
#
#
# Convention : Reuss Voigt Hill
#
# Bulk Modulus (GPa) = 20.82251 53.77213 37.29732
# Shear Modulus (GPa) = 19.55476 28.06095 23.80786
#
# Velocity S-wave (km/s) = 3.22360 3.86159 3.55693
# Velocity P-wave (km/s) = 4.99207 6.96115 6.05716
#
# Compressibility (1/GPa) = 0.04802494
#
# Stress axis : x y z
#
# Youngs Moduli (GPa) = 100.78853 80.22803 16.19700
#
# Poissons Ratio (x) = 0.35417 0.04560
# Poissons Ratio (y) = 0.44494 0.17526
# Poissons Ratio (z) = 0.28374 0.86812
#
# Static dielectric constant tensor:
#      x y z
#    x 3.797490 0.000000 0.000000 
#    y 0.000000 3.571100 0.000000 
#    z 0.000000 0.000000 3.030130 
# 
# 
# High freq. dielectric constant tensor:
#      x y z
#    x 1.741340 0.000000 0.000000 
#    y 0.000000 1.732430 0.000000 
#    z 0.000000 0.000000 1.688810 
# 
# From -- ./inp_files/12802.got.cif
#   From: 2010.03.12/outbox.cif.g09.slc.cpg/sg65_7_cif.got.tgz:12802.got - 2010.04.10 20:52:16.
