data_PCOD8269710
_publ_section_title
;
Structure prediction by ZEFSAII (Michael W. Deem and Ramdas Pophale) SiO2 
 PCOD8269710
Probable space group: C M M M
;
_chemical_formula_sum "Si O2"
_cell_formula_units_Z 72
_cell_length_a 14.307443
_cell_length_b 20.364848
_cell_length_c 14.492217
_cell_angle_alpha 90.000000
_cell_angle_beta 90.000000
_cell_angle_gamma 90.000000
_cell_volume 4222.581354
_symmetry_space_group_name_H-M "C M M M"
_symmetry_group_IT_number 65
_symmetry_cell_setting 'orthorhombic'
loop_
_space_group_symop_operation_xyz
x,y,z
-x,-y,z
x,-y,-z
-x,y,-z
-x,-y,-z
x,y,-z
-x,y,z
x,-y,z
1/2+x,1/2+y,z
1/2-x,1/2-y,z
1/2+x,1/2-y,-z
1/2-x,1/2+y,-z
1/2-x,1/2-y,-z
1/2+x,1/2+y,-z
1/2-x,1/2+y,z
1/2+x,1/2-y,z
loop_
_atom_site_type_symbol
_atom_site_label
_atom_site_fract_x
_atom_site_fract_y
_atom_site_fract_z
Si Si1 0.896074 0.649965 0.329709
Si Si2 0.895225 0.797556 0.605197
Si Si3 0.771429 0.824606 0.222876
Si Si4 0.607037 0.574441 0.891080
Si Si5 0.111512 0.427871 0.500000
O O1 0.897523 0.720776 0.376048
O O2 0.831052 0.644722 0.239484
O O3 0.850504 0.603887 0.406840
O O4 0.000000 0.628358 0.298957
O O5 0.860575 0.810702 0.500000
O O6 0.825533 0.829084 0.679351
O O7 0.000000 0.826496 0.618172
O O8 0.750000 0.750000 0.187934
O O9 0.826526 0.868929 0.149873
O O10 0.500000 0.589205 0.861952
O O11 0.634246 0.500000 0.858726
O O12 0.617731 0.579056 0.000000
O O13 0.151773 0.500000 0.500000
O O14 0.000000 0.422338 0.500000
#
# Coordination Sequence:
#
# PCOD8269710 Si02
#       5
#    16  16  16  16   8
#     4   9  17  28  41  62  95 133 167 203 243 288
#     4   9  16  27  44  66  98 135 167 203 250 303
#     4  10  20  29  50  78 104 130 165 216 258 307
#     4   9  19  38  61  79  98 129 168 211 262 320
#     4   9  16  26  39  54  79 123 173 208 228 260
#
# _framework density 17.051182000000001
#
# number of rings (size 3 to 8) (size 9 to 14) (size 15 to 20)
#    0.000    2.778    1.111    1.333    1.556    3.556 
#    0.000    0.000    0.000    0.667    0.000    4.667 
#    0.000    0.000    0.000    0.000    0.000    0.000 
#
# Total GULP energy -446017.022366 kJ/mol
# GULP energy per Si atom -12389.361732 kJ/mol
# Density = 1.701237 g / cm^3
# Si number density = 17.051182 Si / 1000 Ang^3
#
#
#
# Elastic Constant Matrix: (Units=GPa)
#
#
# Indices 1 2 3 4 5 6 
#
# 1 88.2417 46.8068 38.4132 0.0000 0.0000 0.0000
# 2 46.8068 82.8959 38.4214 0.0000 0.0000 0.0000
# 3 38.4132 38.4214 56.8627 0.0000 0.0000 0.0000
# 4 0.0000 0.0000 0.0000 26.7998 0.0000 0.0000
# 5 0.0000 0.0000 0.0000 0.0000 26.7515 0.0000
# 6 0.0000 0.0000 0.0000 0.0000 0.0000 23.2953
#
#
#
# Elastic Compliance Matrix: (Units=1/GPa)
#
#
# Indices 1 2 3 4 5 6 
#
# 1 0.018296 -0.006701 -0.007832 0.000000 0.000000 0.000000
# 2 -0.006701 0.020018 -0.008999 0.000000 0.000000 0.000000
# 3 -0.007832 -0.008999 0.028958 0.000000 0.000000 0.000000
# 4 0.000000 0.000000 0.000000 0.037314 0.000000 0.000000
# 5 0.000000 0.000000 0.000000 0.000000 0.037381 0.000000
# 6 0.000000 0.000000 0.000000 0.000000 0.000000 0.042927
#
#
# Mechanical properties :
#
#
# Convention : Reuss Voigt Hill
#
# Bulk Modulus (GPa) = 49.48630 52.80924 51.14777
# Shear Modulus (GPa) = 20.94724 22.32658 21.63691
#
# Velocity S-wave (km/s) = 3.50879 3.62247 3.56608
# Velocity P-wave (km/s) = 6.74542 6.96668 6.85694
#
# Compressibility (1/GPa) = 0.02020761
#
# Stress axis : x y z
#
# Youngs Moduli (GPa) = 54.65547 49.95524 34.53277
#
# Poissons Ratio (x) = 0.33474 0.27047
# Poissons Ratio (y) = 0.36623 0.31077
# Poissons Ratio (z) = 0.42808 0.44956
#
# Static dielectric constant tensor:
#      x y z
#    x 3.545070 0.000000 0.000000 
#    y 0.000000 3.087570 0.000000 
#    z 0.000000 0.000000 3.756720 
# 
# 
# High freq. dielectric constant tensor:
#      x y z
#    x 1.661790 0.000000 0.000000 
#    y 0.000000 1.639050 0.000000 
#    z 0.000000 0.000000 1.630600 
# 
# From -- ./inp_files/39766.got.cif
#   From: 2010.03.12/outbox.cif.g09.slc.cpg/sg65_20_cif.got.tgz:39766.got - 2010.04.10 20:52:16.
