data_PCOD8269778
_publ_section_title
;
Structure prediction by ZEFSAII (Michael W. Deem and Ramdas Pophale) SiO2 
 PCOD8269778
Probable space group: C M M M
;
_chemical_formula_sum "Si O2"
_cell_formula_units_Z 104
_cell_length_a 7.974684
_cell_length_b 27.861215
_cell_length_c 28.610346
_cell_angle_alpha 90.000000
_cell_angle_beta 90.000000
_cell_angle_gamma 90.000000
_cell_volume 6356.772144
_symmetry_space_group_name_H-M "C M M M"
_symmetry_group_IT_number 65
_symmetry_cell_setting 'orthorhombic'
loop_
_space_group_symop_operation_xyz
x,y,z
-x,-y,z
x,-y,-z
-x,y,-z
-x,-y,-z
x,y,-z
-x,y,z
x,-y,z
1/2+x,1/2+y,z
1/2-x,1/2-y,z
1/2+x,1/2-y,-z
1/2-x,1/2+y,-z
1/2-x,1/2-y,-z
1/2+x,1/2+y,-z
1/2-x,1/2+y,z
1/2+x,1/2-y,z
loop_
_atom_site_type_symbol
_atom_site_label
_atom_site_fract_x
_atom_site_fract_y
_atom_site_fract_z
Si Si1 0.801852 0.446634 0.283415
Si Si2 0.302122 0.196443 0.139676
Si Si3 0.808269 0.609545 0.803104
Si Si4 0.198820 0.360524 0.948145
Si Si5 0.000000 0.942758 0.552888
Si Si6 0.687480 0.942816 0.387409
Si Si7 0.193712 0.945946 0.110490
O O1 0.723266 0.500000 0.277553
O O2 0.721625 0.411197 0.244156
O O3 0.763071 0.425874 0.335065
O O4 0.000000 0.450692 0.276256
O O5 0.500000 0.191753 0.139834
O O6 0.250000 0.250000 0.151838
O O7 0.226675 0.159952 0.178943
O O8 0.235175 0.179849 0.088513
O O9 0.798346 0.570727 0.844484
O O10 0.000000 0.619548 0.790930
O O11 0.267797 0.412688 0.934043
O O12 0.000000 0.362831 0.947572
O O13 0.265689 0.347482 0.000000
O O14 0.169469 0.922960 0.577630
O O15 0.000000 0.923577 0.500000
O O16 0.000000 0.000000 0.554534
O O17 0.500000 0.923859 0.401396
O O18 0.683129 0.000000 0.388165
O O19 0.000000 0.942667 0.124090
O O20 0.246847 0.000000 0.097339
#
# Coordination Sequence:
#
# PCOD8269778 Si02
#       7
#    16  16  16  16   8  16  16
#     4   8  13  23  41  61  80 104 135 174 213 244
#     4   9  18  31  47  65  84 105 129 165 205 246
#     4   9  17  30  47  64  81 107 143 173 199 244
#     4   9  19  35  51  65  79 100 136 171 198 238
#     4   9  16  24  34  50  74 108 150 190 223 253
#     4   8  14  24  36  52  75 104 141 184 224 257
#     4  10  20  31  42  62  91 113 130 158 200 246
#
# _framework density 16.360506000000001
#
# number of rings (size 3 to 8) (size 9 to 14) (size 15 to 20)
#    0.000    3.154    0.000    2.769    0.000    5.538 
#    1.385    3.077    0.000    0.000    0.000    0.000 
#    0.000    0.000    0.000    0.000    0.000    0.769 
#
# Total GULP energy -644326.539309 kJ/mol
# GULP energy per Si atom -12390.894987 kJ/mol
# Density = 1.632327 g / cm^3
# Si number density = 16.360506 Si / 1000 Ang^3
#
#
#
# Elastic Constant Matrix: (Units=GPa)
#
#
# Indices 1 2 3 4 5 6 
#
# 1 40.2121 14.6041 38.2543 0.0000 0.0000 0.0000
# 2 14.6041 84.2159 45.5394 0.0000 0.0000 0.0000
# 3 38.2543 45.5394 133.5881 0.0000 0.0000 0.0000
# 4 0.0000 0.0000 0.0000 11.8189 0.0000 0.0000
# 5 0.0000 0.0000 0.0000 0.0000 13.8588 0.0000
# 6 0.0000 0.0000 0.0000 0.0000 0.0000 15.4562
#
#
#
# Elastic Compliance Matrix: (Units=1/GPa)
#
#
# Indices 1 2 3 4 5 6 
#
# 1 0.034221 -0.000779 -0.009534 0.000000 0.000000 0.000000
# 2 -0.000779 0.014576 -0.004746 0.000000 0.000000 0.000000
# 3 -0.009534 -0.004746 0.011834 0.000000 0.000000 0.000000
# 4 0.000000 0.000000 0.000000 0.084610 0.000000 0.000000
# 5 0.000000 0.000000 0.000000 0.000000 0.072156 0.000000
# 6 0.000000 0.000000 0.000000 0.000000 0.000000 0.064699
#
#
# Mechanical properties :
#
#
# Convention : Reuss Voigt Hill
#
# Bulk Modulus (GPa) = 32.77304 50.53465 41.65384
# Shear Modulus (GPa) = 15.50950 18.86801 17.18875
#
# Velocity S-wave (km/s) = 3.08228 3.39966 3.24485
# Velocity P-wave (km/s) = 5.72211 6.80922 6.28920
#
# Compressibility (1/GPa) = 0.03051289
#
# Stress axis : x y z
#
# Youngs Moduli (GPa) = 29.22206 68.60819 84.50507
#
# Poissons Ratio (x) = 0.05344 0.80567
# Poissons Ratio (y) = 0.02276 0.40103
# Poissons Ratio (z) = 0.27860 0.32559
#
# Static dielectric constant tensor:
#      x y z
#    x 3.032020 0.000000 0.000000 
#    y 0.000000 4.270240 0.000000 
#    z 0.000000 0.000000 3.283000 
# 
# 
# High freq. dielectric constant tensor:
#      x y z
#    x 1.621550 0.000000 0.000000 
#    y 0.000000 1.581310 0.000000 
#    z 0.000000 0.000000 1.619780 
# 
# From -- ./inp_files/77015.got.cif
#   From: 2010.03.12/outbox.cif.g09.slc.cpg/sg65_39_cif.got.tgz:77015.got - 2010.04.10 20:52:16.
