data_PCOD8269323
_publ_section_title
;
Structure prediction by ZEFSAII (Michael W. Deem and Ramdas Pophale) SiO2 
 PCOD8269323
Probable space group: C M M M
;
_chemical_formula_sum "Si O2"
_cell_formula_units_Z 104
_cell_length_a 9.135078
_cell_length_b 28.959823
_cell_length_c 22.616041
_cell_angle_alpha 90.000000
_cell_angle_beta 90.000000
_cell_angle_gamma 90.000000
_cell_volume 5983.079119
_symmetry_space_group_name_H-M "C M M M"
_symmetry_group_IT_number 65
_symmetry_cell_setting 'orthorhombic'
loop_
_space_group_symop_operation_xyz
x,y,z
-x,-y,z
x,-y,-z
-x,y,-z
-x,-y,-z
x,y,-z
-x,y,z
x,-y,z
1/2+x,1/2+y,z
1/2-x,1/2-y,z
1/2+x,1/2-y,-z
1/2-x,1/2+y,-z
1/2-x,1/2-y,-z
1/2+x,1/2+y,-z
1/2-x,1/2+y,z
1/2+x,1/2-y,z
loop_
_atom_site_type_symbol
_atom_site_label
_atom_site_fract_x
_atom_site_fract_y
_atom_site_fract_z
Si Si1 0.672483 0.553558 0.000000
Si Si2 0.165660 0.054550 0.340934
Si Si3 0.169328 0.446864 0.224388
Si Si4 0.171148 0.604834 0.894642
Si Si5 0.335140 0.705811 0.570339
Si Si6 0.171001 0.385587 0.431166
Si Si7 0.670188 0.795063 0.067873
O O1 0.737431 0.576653 0.058056
O O2 0.715859 0.500000 0.000000
O O3 0.500000 0.561009 0.000000
O O4 0.235214 0.071194 0.279236
O O5 0.260753 0.072085 0.395757
O O6 0.000000 0.073318 0.345159
O O7 0.170342 0.000000 0.344628
O O8 0.205736 0.500000 0.208383
O O9 0.211482 0.414829 0.169392
O O10 0.000000 0.441454 0.241684
O O11 0.214278 0.658979 0.896009
O O12 0.000000 0.598412 0.909613
O O13 0.338375 0.708275 0.500000
O O14 0.500000 0.704940 0.595717
O O15 0.250000 0.750000 0.596286
O O16 0.248818 0.660771 0.591688
O O17 0.201873 0.394500 0.500000
O O18 0.000000 0.381129 0.417965
O O19 0.500000 0.784964 0.073069
O O20 0.750000 0.750000 0.094643
O O21 0.717889 0.803160 0.000000
#
# Coordination Sequence:
#
# PCOD8269323 Si02
#       7
#     8  16  16  16  16  16  16
#     4  11  23  33  44  71 108 137 162 201 252 301
#     4  10  21  36  53  73 100 134 170 210 256 308
#     4   9  18  33  54  76  96 125 167 211 253 302
#     4  10  19  34  54  75  99 132 172 210 250 298
#     4   9  16  27  45  70 101 134 166 200 242 296
#     4  10  20  33  51  76 104 133 168 212 259 305
#     4   9  17  30  48  72 101 132 168 208 249 297
#
# _framework density 17.382352999999998
#
# number of rings (size 3 to 8) (size 9 to 14) (size 15 to 20)
#    0.000    2.385    0.769    2.077    0.000    6.462 
#    0.000    3.077    0.000    0.923    0.000    4.308 
#    0.000    0.000    0.000    0.000    0.000    0.000 
#
# Total GULP energy -644881.451910 kJ/mol
# GULP energy per Si atom -12401.566383 kJ/mol
# Density = 1.734279 g / cm^3
# Si number density = 17.382353 Si / 1000 Ang^3
#
#
#
# Elastic Constant Matrix: (Units=GPa)
#
#
# Indices 1 2 3 4 5 6 
#
# 1 105.9492 54.4155 55.0819 0.0000 0.0000 0.0000
# 2 54.4155 100.4316 55.1886 0.0000 0.0000 0.0000
# 3 55.0819 55.1886 80.7464 0.0000 0.0000 0.0000
# 4 0.0000 0.0000 0.0000 1.9846 0.0000 0.0000
# 5 0.0000 0.0000 0.0000 0.0000 21.7465 0.0000
# 6 0.0000 0.0000 0.0000 0.0000 0.0000 33.5359
#
#
#
# Elastic Compliance Matrix: (Units=1/GPa)
#
#
# Indices 1 2 3 4 5 6 
#
# 1 0.015652 -0.004185 -0.007817 0.000000 0.000000 0.000000
# 2 -0.004185 0.017065 -0.008809 0.000000 0.000000 0.000000
# 3 -0.007817 -0.008809 0.023737 0.000000 0.000000 0.000000
# 4 0.000000 0.000000 0.000000 0.503878 0.000000 0.000000
# 5 0.000000 0.000000 0.000000 0.000000 0.045984 0.000000
# 6 0.000000 0.000000 0.000000 0.000000 0.000000 0.029819
#
#
# Mechanical properties :
#
#
# Convention : Reuss Voigt Hill
#
# Bulk Modulus (GPa) = 67.41615 68.49989 67.95802
# Shear Modulus (GPa) = 7.32386 19.61614 13.47000
#
# Velocity S-wave (km/s) = 2.05488 3.36297 2.78677
# Velocity P-wave (km/s) = 6.67072 7.38734 7.03815
#
# Compressibility (1/GPa) = 0.01483324
#
# Stress axis : x y z
#
# Youngs Moduli (GPa) = 63.89106 58.59912 42.12792
#
# Poissons Ratio (x) = 0.24524 0.32929
# Poissons Ratio (y) = 0.26739 0.37110
# Poissons Ratio (z) = 0.49941 0.51619
#
# Static dielectric constant tensor:
#      x y z
#    x 3.373330 0.000000 0.000000 
#    y 0.000000 3.323790 0.000000 
#    z 0.000000 0.000000 3.012970 
# 
# 
# High freq. dielectric constant tensor:
#      x y z
#    x 1.680720 0.000000 0.000000 
#    y 0.000000 1.675280 0.000000 
#    z 0.000000 0.000000 1.640640 
# 
# From -- ./inp_files/68199.got.cif
#   From: 2010.03.12/outbox.cif.g09.slc.cpg/sg65_35_cif.got.tgz:68199.got - 2010.04.10 20:52:16.
