data_PCOD8269428
_publ_section_title
;
Structure prediction by ZEFSAII (Michael W. Deem and Ramdas Pophale) SiO2 
 PCOD8269428
Probable space group: C M M M
;
_chemical_formula_sum "Si O2"
_cell_formula_units_Z 88
_cell_length_a 28.559667
_cell_length_b 18.390935
_cell_length_c 9.028837
_cell_angle_alpha 90.000000
_cell_angle_beta 90.000000
_cell_angle_gamma 90.000000
_cell_volume 4742.297131
_symmetry_space_group_name_H-M "C M M M"
_symmetry_group_IT_number 65
_symmetry_cell_setting 'orthorhombic'
loop_
_space_group_symop_operation_xyz
x,y,z
-x,-y,z
x,-y,-z
-x,y,-z
-x,-y,-z
x,y,-z
-x,y,z
x,-y,z
1/2+x,1/2+y,z
1/2-x,1/2-y,z
1/2+x,1/2-y,-z
1/2-x,1/2+y,-z
1/2-x,1/2-y,-z
1/2+x,1/2+y,-z
1/2-x,1/2+y,z
1/2+x,1/2-y,z
loop_
_atom_site_type_symbol
_atom_site_label
_atom_site_fract_x
_atom_site_fract_y
_atom_site_fract_z
Si Si1 0.392456 0.367661 0.325651
Si Si2 0.554873 0.918425 0.829883
Si Si3 0.445269 0.500000 0.173815
Si Si4 0.207415 0.920779 0.324607
Si Si5 0.613038 0.204683 0.324941
Si Si6 0.217053 0.313135 0.323866
O O1 0.399127 0.381753 0.500000
O O2 0.423683 0.426519 0.241218
O O3 0.338089 0.374685 0.277822
O O4 0.406524 0.284947 0.281248
O O5 0.500000 0.910134 0.804783
O O6 0.579345 0.857771 0.732146
O O7 0.570669 0.000000 0.782026
O O8 0.568132 0.905138 0.000000
O O9 0.500000 0.500000 0.210770
O O10 0.435371 0.500000 0.000000
O O11 0.207859 0.926482 0.500000
O O12 0.256576 0.886429 0.271886
O O13 0.203479 0.000000 0.250960
O O14 0.615417 0.198547 0.500000
O O15 0.664905 0.191298 0.256799
O O16 0.213854 0.306344 0.500000
O O17 0.250000 0.250000 0.260082
#
# Coordination Sequence:
#
# PCOD8269428 Si02
#       6
#    16  16   8  16  16  16
#     4  10  19  34  56  80 107 142 181 221 269 325
#     4   9  20  40  61  77 101 145 190 222 266 331
#     4  11  25  41  55  75 105 141 185 237 284 323
#     4   9  15  25  46  74 103 140 181 212 247 305
#     4  10  20  32  55  90 118 139 173 225 278 321
#     4   9  15  26  45  75 113 143 168 207 259 314
#
# _framework density 18.556408000000001
#
# number of rings (size 3 to 8) (size 9 to 14) (size 15 to 20)
#    0.000    2.455    2.727    0.818    0.000    3.636 
#    0.000    6.364    0.000    1.636    0.000    0.000 
#    0.000    0.000    0.000    0.000    0.000    0.000 
#
# Total GULP energy -545296.270685 kJ/mol
# GULP energy per Si atom -12393.097061 kJ/mol
# Density = 1.851417 g / cm^3
# Si number density = 18.556408 Si / 1000 Ang^3
#
#
#
# Elastic Constant Matrix: (Units=GPa)
#
#
# Indices 1 2 3 4 5 6 
#
# 1 87.9738 64.1502 32.8781 0.0000 0.0000 0.0000
# 2 64.1502 165.9664 40.6104 0.0000 0.0000 0.0000
# 3 32.8781 40.6104 34.0544 0.0000 0.0000 0.0000
# 4 0.0000 0.0000 0.0000 19.5659 0.0000 0.0000
# 5 0.0000 0.0000 0.0000 0.0000 -7.7069 0.0000
# 6 0.0000 0.0000 0.0000 0.0000 0.0000 35.7262
#
#
#
# Elastic Compliance Matrix: (Units=1/GPa)
#
#
# Indices 1 2 3 4 5 6 
#
# 1 0.019632 -0.004166 -0.013985 0.000000 0.000000 0.000000
# 2 -0.004166 0.009392 -0.007178 0.000000 0.000000 0.000000
# 3 -0.013985 -0.007178 0.051427 0.000000 0.000000 0.000000
# 4 0.000000 0.000000 0.000000 0.051109 0.000000 0.000000
# 5 0.000000 0.000000 0.000000 0.000000 -0.129753 0.000000
# 6 0.000000 0.000000 0.000000 0.000000 0.000000 0.027991
#
#
# Mechanical properties :
#
#
# Convention : Reuss Voigt Hill
#
# Bulk Modulus (GPa) = 33.56641 62.58577 48.07609
# Shear Modulus (GPa) = 55.31783 19.54075 37.42929
#
# Velocity S-wave (km/s) = 5.46583 3.24859 4.49604
# Velocity P-wave (km/s) = 7.61327 6.91893 7.27439
#
# Compressibility (1/GPa) = 0.02979169
#
# Stress axis : x y z
#
# Youngs Moduli (GPa) = 50.93840 106.47404 19.44506
#
# Poissons Ratio (x) = 0.44357 0.27195
# Poissons Ratio (y) = 0.21221 0.13958
# Poissons Ratio (z) = 0.71239 0.76427
#
# Static dielectric constant tensor:
#      x y z
#    x 3.510410 0.000000 0.000000 
#    y 0.000000 3.718940 0.000000 
#    z 0.000000 0.000000 2.938350 
# 
# 
# High freq. dielectric constant tensor:
#      x y z
#    x 1.721750 0.000000 0.000000 
#    y 0.000000 1.737920 0.000000 
#    z 0.000000 0.000000 1.667350 
# 
# From -- ./inp_files/18282.got.cif
#   From: 2010.03.12/outbox.cif.g09.slc.cpg/sg65_10_cif.got.tgz:18282.got - 2010.04.10 20:52:16.
