data_PCOD8269623
_publ_section_title
;
Structure prediction by ZEFSAII (Michael W. Deem and Ramdas Pophale) SiO2 
 PCOD8269623
Probable space group: C M M M
;
_chemical_formula_sum "Si O2"
_cell_formula_units_Z 96
_cell_length_a 21.754832
_cell_length_b 16.513329
_cell_length_c 13.688006
_cell_angle_alpha 90.000000
_cell_angle_beta 90.000000
_cell_angle_gamma 90.000000
_cell_volume 4917.343584
_symmetry_space_group_name_H-M "C M M M"
_symmetry_group_IT_number 65
_symmetry_cell_setting 'orthorhombic'
loop_
_space_group_symop_operation_xyz
x,y,z
-x,-y,z
x,-y,-z
-x,y,-z
-x,-y,-z
x,y,-z
-x,y,z
x,-y,z
1/2+x,1/2+y,z
1/2-x,1/2-y,z
1/2+x,1/2-y,-z
1/2-x,1/2+y,-z
1/2-x,1/2-y,-z
1/2+x,1/2+y,-z
1/2-x,1/2+y,z
1/2+x,1/2-y,z
loop_
_atom_site_type_symbol
_atom_site_label
_atom_site_fract_x
_atom_site_fract_y
_atom_site_fract_z
Si Si1 0.615030 0.674620 0.793258
Si Si2 0.852418 0.644379 0.796517
Si Si3 0.500000 0.409609 0.114827
Si Si4 0.230647 0.906434 0.887961
Si Si5 0.926948 0.500000 0.885730
Si Si6 0.775812 0.337973 0.389122
Si Si7 0.353505 0.591695 0.390184
O O1 0.614748 0.769892 0.811404
O O2 0.559848 0.638223 0.853805
O O3 0.678499 0.633352 0.823391
O O4 0.608450 0.653149 0.678521
O O5 0.794041 0.639747 0.867962
O O6 0.901764 0.577726 0.828147
O O7 0.830234 0.634561 0.683896
O O8 0.500000 0.500000 0.160325
O O9 0.500000 0.415872 0.000000
O O10 0.238572 0.000000 0.858400
O O11 0.211979 0.896572 0.000000
O O12 0.000000 0.500000 0.879044
O O13 0.905600 0.500000 0.000000
O O14 0.801985 0.335734 0.500000
O O15 0.750000 0.250000 0.357964
O O16 0.720136 0.400867 0.379427
O O17 0.373352 0.614086 0.500000
O O18 0.371651 0.500000 0.363666
#
# Coordination Sequence:
#
# PCOD8269623 Si02
#       7
#    16  16   8  16   8  16  16
#     4  12  24  39  63  92 124 164 211 266 313 387
#     4  12  23  40  65  94 124 162 215 270 327 383
#     4  11  26  46  63  86 122 168 210 252 319 391
#     4  11  22  37  58  88 125 162 201 263 328 379
#     4  11  28  50  69  89 125 174 223 282 342 401
#     4  10  19  35  59  95 138 170 204 257 322 386
#     4  10  20  35  59  93 132 169 205 250 311 380
#
# _framework density 19.522735999999998
#
# number of rings (size 3 to 8) (size 9 to 14) (size 15 to 20)
#    0.000    1.000    4.167    3.000    2.333    4.667 
#    0.000    0.417    0.000    2.500    0.000    0.000 
#    0.000    0.000    0.000    0.000    0.000    0.000 
#
# Total GULP energy -595349.270688 kJ/mol
# GULP energy per Si atom -12403.109806 kJ/mol
# Density = 1.947830 g / cm^3
# Si number density = 19.522736 Si / 1000 Ang^3
#
#
#
# Elastic Constant Matrix: (Units=GPa)
#
#
# Indices 1 2 3 4 5 6 
#
# 1 75.9077 44.2362 27.7955 0.0000 0.0000 0.0000
# 2 44.2362 148.1940 58.6565 0.0000 0.0000 0.0000
# 3 27.7955 58.6565 112.6579 0.0000 0.0000 0.0000
# 4 0.0000 0.0000 0.0000 28.7225 0.0000 0.0000
# 5 0.0000 0.0000 0.0000 0.0000 29.7111 0.0000
# 6 0.0000 0.0000 0.0000 0.0000 0.0000 30.8005
#
#
#
# Elastic Compliance Matrix: (Units=1/GPa)
#
#
# Indices 1 2 3 4 5 6 
#
# 1 0.016255 -0.004112 -0.001869 0.000000 0.000000 0.000000
# 2 -0.004112 0.009540 -0.003952 0.000000 0.000000 0.000000
# 3 -0.001869 -0.003952 0.011396 0.000000 0.000000 0.000000
# 4 0.000000 0.000000 0.000000 0.034816 0.000000 0.000000
# 5 0.000000 0.000000 0.000000 0.000000 0.033657 0.000000
# 6 0.000000 0.000000 0.000000 0.000000 0.000000 0.032467
#
#
# Mechanical properties :
#
#
# Convention : Reuss Voigt Hill
#
# Bulk Modulus (GPa) = 57.72960 66.45956 62.09458
# Shear Modulus (GPa) = 30.53014 31.58492 31.05753
#
# Velocity S-wave (km/s) = 3.95881 4.02662 3.99286
# Velocity P-wave (km/s) = 7.10851 7.46554 7.28921
#
# Compressibility (1/GPa) = 0.01732214
#
# Stress axis : x y z
#
# Youngs Moduli (GPa) = 61.52015 104.82396 87.75366
#
# Poissons Ratio (x) = 0.43105 0.16405
# Poissons Ratio (y) = 0.25298 0.34684
# Poissons Ratio (z) = 0.11501 0.41431
#
# Static dielectric constant tensor:
#      x y z
#    x 3.226800 0.000000 0.000000 
#    y 0.000000 3.747520 0.000000 
#    z 0.000000 0.000000 3.822860 
# 
# 
# High freq. dielectric constant tensor:
#      x y z
#    x 1.727850 0.000000 0.000000 
#    y 0.000000 1.770060 0.000000 
#    z 0.000000 0.000000 1.777570 
# 
# From -- ./inp_files/44174.got.cif
#   From: 2010.03.12/outbox.cif.g09.slc.cpg/sg65_23_cif.got.tgz:44174.got - 2010.04.10 20:52:16.
