data_PCOD8269334
_publ_section_title
;
Structure prediction by ZEFSAII (Michael W. Deem and Ramdas Pophale) SiO2 
 PCOD8269334
Probable space group: C M M M
;
_chemical_formula_sum "Si O2"
_cell_formula_units_Z 120
_cell_length_a 9.309934
_cell_length_b 27.219662
_cell_length_c 26.710198
_cell_angle_alpha 90.000000
_cell_angle_beta 90.000000
_cell_angle_gamma 90.000000
_cell_volume 6768.718263
_symmetry_space_group_name_H-M "C M M M"
_symmetry_group_IT_number 65
_symmetry_cell_setting 'orthorhombic'
loop_
_space_group_symop_operation_xyz
x,y,z
-x,-y,z
x,-y,-z
-x,y,-z
-x,-y,-z
x,y,-z
-x,y,z
x,-y,z
1/2+x,1/2+y,z
1/2-x,1/2-y,z
1/2+x,1/2-y,-z
1/2-x,1/2+y,-z
1/2-x,1/2-y,-z
1/2+x,1/2+y,-z
1/2-x,1/2+y,z
1/2+x,1/2-y,z
loop_
_atom_site_type_symbol
_atom_site_label
_atom_site_fract_x
_atom_site_fract_y
_atom_site_fract_z
Si Si1 0.668077 0.901139 0.592650
Si Si2 0.666365 0.863252 0.056622
Si Si3 0.166660 0.056726 0.888766
Si Si4 0.664847 0.796143 0.443158
Si Si5 0.168293 0.398261 0.798965
Si Si6 0.660461 0.557662 0.500000
Si Si7 0.665465 0.201026 0.148824
Si Si8 0.670240 0.055205 0.696604
O O1 0.500000 0.913141 0.584679
O O2 0.695434 0.842843 0.591629
O O3 0.755162 0.926771 0.549124
O O4 0.727950 0.920880 0.645423
O O5 0.500000 0.877175 0.065958
O O6 0.760927 0.911389 0.067310
O O7 0.711228 0.819289 0.094033
O O8 0.693827 0.845443 0.000000
O O9 0.243783 0.067164 0.836251
O O10 0.000000 0.071124 0.884132
O O11 0.186060 0.000000 0.903171
O O12 0.714796 0.808406 0.500000
O O13 0.500000 0.781158 0.442483
O O14 0.750000 0.750000 0.420777
O O15 0.199789 0.340909 0.809966
O O16 0.220860 0.411273 0.743077
O O17 0.000000 0.409815 0.806627
O O18 0.648684 0.500000 0.500000
O O19 0.500000 0.580852 0.500000
O O20 0.500000 0.215604 0.149375
O O21 0.750000 0.250000 0.162697
O O22 0.500000 0.053618 0.694722
O O23 0.732112 0.000000 0.702253
#
# Coordination Sequence:
#
# PCOD8269334 Si02
#       8
#    16  16  16  16  16   8  16  16
#     4  10  19  34  54  77 102 130 170 214 252 296
#     4   9  19  35  52  72 100 134 173 212 250 298
#     4  10  20  32  48  73 103 134 169 209 255 303
#     4   9  17  30  48  71  97 128 165 203 245 291
#     4   9  18  34  54  75  99 129 169 212 252 299
#     4  11  23  35  48  71 104 139 170 201 246 305
#     4   9  18  32  51  74 100 131 166 207 252 298
#     4   9  17  30  53  81 102 126 165 212 256 295
#
# _framework density 17.728615000000001
#
# number of rings (size 3 to 8) (size 9 to 14) (size 15 to 20)
#    0.000    2.600    0.667    2.200    0.000    6.133 
#    0.000    2.667    0.000    2.400    0.000    0.000 
#    0.000    0.000    0.000    0.000    0.000    0.000 
#
# Total GULP energy -743966.512335 kJ/mol
# GULP energy per Si atom -12399.441872 kJ/mol
# Density = 1.768826 g / cm^3
# Si number density = 17.728615 Si / 1000 Ang^3
#
#
#
# Elastic Constant Matrix: (Units=GPa)
#
#
# Indices 1 2 3 4 5 6 
#
# 1 57.7321 44.4262 31.4993 0.0000 0.0000 0.0000
# 2 44.4262 120.4468 58.0228 0.0000 0.0000 0.0000
# 3 31.4993 58.0228 132.4872 0.0000 0.0000 0.0000
# 4 0.0000 0.0000 0.0000 21.3299 0.0000 0.0000
# 5 0.0000 0.0000 0.0000 0.0000 5.6703 0.0000
# 6 0.0000 0.0000 0.0000 0.0000 0.0000 31.7313
#
#
#
# Elastic Compliance Matrix: (Units=1/GPa)
#
#
# Indices 1 2 3 4 5 6 
#
# 1 0.024771 -0.007984 -0.002393 0.000000 0.000000 0.000000
# 2 -0.007984 0.013096 -0.003837 0.000000 0.000000 0.000000
# 3 -0.002393 -0.003837 0.009797 0.000000 0.000000 0.000000
# 4 0.000000 0.000000 0.000000 0.046882 0.000000 0.000000
# 5 0.000000 0.000000 0.000000 0.000000 0.176358 0.000000
# 6 0.000000 0.000000 0.000000 0.000000 0.000000 0.031515
#
#
# Mechanical properties :
#
#
# Convention : Reuss Voigt Hill
#
# Bulk Modulus (GPa) = 51.98541 64.28476 58.13508
# Shear Modulus (GPa) = 14.82542 23.52749 19.17646
#
# Velocity S-wave (km/s) = 2.89492 3.64688 3.29244
# Velocity P-wave (km/s) = 6.36872 7.35338 6.87869
#
# Compressibility (1/GPa) = 0.01923617
#
# Stress axis : x y z
#
# Youngs Moduli (GPa) = 40.37024 76.36115 102.06971
#
# Poissons Ratio (x) = 0.60966 0.24423
# Poissons Ratio (y) = 0.32231 0.39165
# Poissons Ratio (z) = 0.09660 0.29300
#
# Static dielectric constant tensor:
#      x y z
#    x 3.208640 0.000000 0.000000 
#    y 0.000000 3.275230 0.000000 
#    z 0.000000 0.000000 3.384600 
# 
# 
# High freq. dielectric constant tensor:
#      x y z
#    x 1.670340 0.000000 0.000000 
#    y 0.000000 1.686940 0.000000 
#    z 0.000000 0.000000 1.678130 
# 
# From -- ./inp_files/74018.got.cif
#   From: 2010.03.12/outbox.cif.g09.slc.cpg/sg65_38_cif.got.tgz:74018.got - 2010.04.10 20:52:16.
