data_PCOD8269697
_publ_section_title
;
Structure prediction by ZEFSAII (Michael W. Deem and Ramdas Pophale) SiO2 
 PCOD8269697
Probable space group: C M M M
;
_chemical_formula_sum "Si O2"
_cell_formula_units_Z 56
_cell_length_a 11.568725
_cell_length_b 15.834129
_cell_length_c 16.432738
_cell_angle_alpha 90.000000
_cell_angle_beta 90.000000
_cell_angle_gamma 90.000000
_cell_volume 3010.160187
_symmetry_space_group_name_H-M "C M M M"
_symmetry_group_IT_number 65
_symmetry_cell_setting 'orthorhombic'
loop_
_space_group_symop_operation_xyz
x,y,z
-x,-y,z
x,-y,-z
-x,y,-z
-x,-y,-z
x,y,-z
-x,y,z
x,-y,z
1/2+x,1/2+y,z
1/2-x,1/2-y,z
1/2+x,1/2-y,-z
1/2-x,1/2+y,-z
1/2-x,1/2-y,-z
1/2+x,1/2+y,-z
1/2-x,1/2+y,z
1/2+x,1/2-y,z
loop_
_atom_site_type_symbol
_atom_site_label
_atom_site_fract_x
_atom_site_fract_y
_atom_site_fract_z
Si Si1 0.868697 0.596461 0.833728
Si Si2 0.366706 0.194324 0.000000
Si Si3 0.227067 0.346997 0.328681
Si Si4 0.636631 0.500000 0.593971
Si Si5 0.500000 0.092677 0.404644
O O1 0.830979 0.500000 0.842439
O O2 0.854254 0.637487 0.921069
O O3 0.785239 0.640457 0.768308
O O4 0.000000 0.604882 0.801981
O O5 0.250000 0.250000 0.000000
O O6 0.500000 0.235787 0.000000
O O7 0.250000 0.250000 0.347342
O O8 0.319914 0.414269 0.362586
O O9 0.110248 0.358127 0.376376
O O10 0.500000 0.500000 0.600128
O O11 0.678815 0.500000 0.500000
O O12 0.500000 0.084558 0.500000
O O13 0.500000 0.000000 0.363708
#
# Coordination Sequence:
#
# PCOD8269697 Si02
#       5
#    16   8  16   8   8
#     4  10  19  37  64  92 122 158 208 261 306 370
#     4  10  21  37  61  95 127 164 206 257 317 375
#     4  12  24  40  64  93 123 162 210 261 316 372
#     4  11  26  45  61  86 129 171 208 259 325 389
#     4  11  22  40  64  88 116 158 213 264 314 367
#
# _framework density 18.603660999999999
#
# number of rings (size 3 to 8) (size 9 to 14) (size 15 to 20)
#    0.000    1.143    4.286    2.143    2.000    4.000 
#    0.000    1.429    0.000    0.857    0.000    0.000 
#    0.000    0.000    0.000    0.000    0.000    0.000 
#
# Total GULP energy -347008.531355 kJ/mol
# GULP energy per Si atom -12393.161834 kJ/mol
# Density = 1.856132 g / cm^3
# Si number density = 18.603661 Si / 1000 Ang^3
#
#
#
# Elastic Constant Matrix: (Units=GPa)
#
#
# Indices 1 2 3 4 5 6 
#
# 1 107.8201 63.7176 43.5767 0.0000 0.0000 0.0000
# 2 63.7176 167.5347 52.5158 0.0000 0.0000 0.0000
# 3 43.5767 52.5158 124.6175 0.0000 0.0000 0.0000
# 4 0.0000 0.0000 0.0000 23.7065 0.0000 0.0000
# 5 0.0000 0.0000 0.0000 0.0000 34.6817 0.0000
# 6 0.0000 0.0000 0.0000 0.0000 0.0000 40.8867
#
#
#
# Elastic Compliance Matrix: (Units=1/GPa)
#
#
# Indices 1 2 3 4 5 6 
#
# 1 0.012749 -0.003977 -0.002782 0.000000 0.000000 0.000000
# 2 -0.003977 0.008118 -0.002030 0.000000 0.000000 0.000000
# 3 -0.002782 -0.002030 0.009853 0.000000 0.000000 0.000000
# 4 0.000000 0.000000 0.000000 0.042183 0.000000 0.000000
# 5 0.000000 0.000000 0.000000 0.000000 0.028834 0.000000
# 6 0.000000 0.000000 0.000000 0.000000 0.000000 0.024458
#
#
# Mechanical properties :
#
#
# Convention : Reuss Voigt Hill
#
# Bulk Modulus (GPa) = 76.09582 79.95471 78.02527
# Shear Modulus (GPa) = 33.74873 35.86578 34.80726
#
# Velocity S-wave (km/s) = 4.26384 4.39554 4.33019
# Velocity P-wave (km/s) = 8.07669 8.29652 8.18734
#
# Compressibility (1/GPa) = 0.01314133
#
# Stress axis : x y z
#
# Youngs Moduli (GPa) = 78.43556 123.18600 101.49046
#
# Poissons Ratio (x) = 0.48988 0.28238
# Poissons Ratio (y) = 0.31192 0.20606
# Poissons Ratio (z) = 0.21824 0.25011
#
# Static dielectric constant tensor:
#      x y z
#    x 3.507860 0.000000 0.000000 
#    y 0.000000 3.297110 0.000000 
#    z 0.000000 0.000000 4.118610 
# 
# 
# High freq. dielectric constant tensor:
#      x y z
#    x 1.718760 0.000000 0.000000 
#    y 0.000000 1.722350 0.000000 
#    z 0.000000 0.000000 1.746150 
# 
# From -- ./inp_files/37453.got.cif
#   From: 2010.03.12/outbox.cif.g09.slc.cpg/sg65_19_cif.got.tgz:37453.got - 2010.04.10 20:52:16.
