data_PCOD8269403
_publ_section_title
;
Structure prediction by ZEFSAII (Michael W. Deem and Ramdas Pophale) SiO2 
 PCOD8269403
Probable space group: C M M M
;
_chemical_formula_sum "Si O2"
_cell_formula_units_Z 68
_cell_length_a 9.409408
_cell_length_b 23.843685
_cell_length_c 17.320394
_cell_angle_alpha 90.000000
_cell_angle_beta 90.000000
_cell_angle_gamma 90.000000
_cell_volume 3885.916310
_symmetry_space_group_name_H-M "C M M M"
_symmetry_group_IT_number 65
_symmetry_cell_setting 'orthorhombic'
loop_
_space_group_symop_operation_xyz
x,y,z
-x,-y,z
x,-y,-z
-x,y,-z
-x,-y,-z
x,y,-z
-x,y,z
x,-y,z
1/2+x,1/2+y,z
1/2-x,1/2-y,z
1/2+x,1/2-y,-z
1/2-x,1/2+y,-z
1/2-x,1/2-y,-z
1/2+x,1/2+y,-z
1/2-x,1/2+y,z
1/2+x,1/2-y,z
loop_
_atom_site_type_symbol
_atom_site_label
_atom_site_fract_x
_atom_site_fract_y
_atom_site_fract_z
Si Si1 0.168294 0.936573 0.916962
Si Si2 0.336672 0.376399 0.500000
Si Si3 0.164226 0.806769 0.356962
Si Si4 0.659619 0.000000 0.672331
Si Si5 0.834700 0.096505 0.247059
Si Si6 0.732102 0.000000 0.500000
O O1 0.220735 0.902407 0.841856
O O2 0.000000 0.935517 0.919782
O O3 0.222870 0.000000 0.906471
O O4 0.226041 0.912686 0.000000
O O5 0.500000 0.361885 0.500000
O O6 0.271034 0.346546 0.575615
O O7 0.324180 0.443360 0.500000
O O8 0.250000 0.750000 0.351990
O O9 0.184136 0.840396 0.277187
O O10 0.000000 0.791866 0.371430
O O11 0.743223 0.945423 0.700938
O O12 0.642650 0.000000 0.579103
O O13 0.500000 0.000000 0.706400
O O14 0.000000 0.077386 0.252802
#
# Coordination Sequence:
#
# PCOD8269403 Si02
#       6
#    16   8  16   8  16   4
#     4   8  13  23  46  80 108 129 160 206 254 301
#     4  10  20  34  56  80 100 129 170 214 259 304
#     4  10  21  36  53  75  98 134 179 218 257 297
#     4  12  24  35  49  76 110 139 170 208 260 310
#     4  10  19  34  56  77 102 137 176 213 253 306
#     4  12  22  38  52  74 109 138 167 202 257 320
#
# _framework density 17.499089000000001
#
# number of rings (size 3 to 8) (size 9 to 14) (size 15 to 20)
#    0.000    2.118    3.529    1.765    0.000    1.882 
#    0.000    0.000    0.000    2.118    0.000    0.000 
#    0.000    0.000    0.000    0.000    0.000    0.000 
#
# Total GULP energy -421255.972298 kJ/mol
# GULP energy per Si atom -12389.881538 kJ/mol
# Density = 1.745926 g / cm^3
# Si number density = 17.499089 Si / 1000 Ang^3
#
#
#
# Elastic Constant Matrix: (Units=GPa)
#
#
# Indices 1 2 3 4 5 6 
#
# 1 55.0606 40.1493 30.6626 0.0000 0.0000 0.0000
# 2 40.1493 122.2708 65.3988 0.0000 0.0000 0.0000
# 3 30.6626 65.3988 167.4935 0.0000 0.0000 0.0000
# 4 0.0000 0.0000 0.0000 16.6021 0.0000 0.0000
# 5 0.0000 0.0000 0.0000 0.0000 6.3336 0.0000
# 6 0.0000 0.0000 0.0000 0.0000 0.0000 8.4388
#
#
#
# Elastic Compliance Matrix: (Units=1/GPa)
#
#
# Indices 1 2 3 4 5 6 
#
# 1 0.024248 -0.007063 -0.001681 0.000000 0.000000 0.000000
# 2 -0.007063 0.012395 -0.003547 0.000000 0.000000 0.000000
# 3 -0.001681 -0.003547 0.007663 0.000000 0.000000 0.000000
# 4 0.000000 0.000000 0.000000 0.060234 0.000000 0.000000
# 5 0.000000 0.000000 0.000000 0.000000 0.157888 0.000000
# 6 0.000000 0.000000 0.000000 0.000000 0.000000 0.118500
#
#
# Mechanical properties :
#
#
# Convention : Reuss Voigt Hill
#
# Bulk Modulus (GPa) = 50.69898 68.58294 59.64096
# Shear Modulus (GPa) = 12.13345 20.18251 16.15798
#
# Velocity S-wave (km/s) = 2.63606 3.39978 3.04198
# Velocity P-wave (km/s) = 6.18873 7.39518 6.81869
#
# Compressibility (1/GPa) = 0.01972426
#
# Stress axis : x y z
#
# Youngs Moduli (GPa) = 41.23995 80.67917 130.49792
#
# Poissons Ratio (x) = 0.56984 0.21940
# Poissons Ratio (y) = 0.29128 0.46282
# Poissons Ratio (z) = 0.06934 0.28614
#
# Static dielectric constant tensor:
#      x y z
#    x 2.864670 0.000000 0.000000 
#    y 0.000000 2.997770 0.000000 
#    z 0.000000 0.000000 4.075290 
# 
# 
# High freq. dielectric constant tensor:
#      x y z
#    x 1.635260 0.000000 0.000000 
#    y 0.000000 1.652550 0.000000 
#    z 0.000000 0.000000 1.694740 
# 
# From -- ./inp_files/49815.got.cif
#   From: 2010.03.12/outbox.cif.g09.slc.cpg/sg65_25_cif.got.tgz:49815.got - 2010.04.10 20:52:16.
