data_PCOD8269275
_publ_section_title
;
Structure prediction by ZEFSAII (Michael W. Deem and Ramdas Pophale) SiO2 
 PCOD8269275
Probable space group: C M M M
;
_chemical_formula_sum "Si O2"
_cell_formula_units_Z 88
_cell_length_a 19.590141
_cell_length_b 30.275236
_cell_length_c 9.112368
_cell_angle_alpha 90.000000
_cell_angle_beta 90.000000
_cell_angle_gamma 90.000000
_cell_volume 5404.510306
_symmetry_space_group_name_H-M "C M M M"
_symmetry_group_IT_number 65
_symmetry_cell_setting 'orthorhombic'
loop_
_space_group_symop_operation_xyz
x,y,z
-x,-y,z
x,-y,-z
-x,y,-z
-x,-y,-z
x,y,-z
-x,y,z
x,-y,z
1/2+x,1/2+y,z
1/2-x,1/2-y,z
1/2+x,1/2-y,-z
1/2-x,1/2+y,-z
1/2-x,1/2-y,-z
1/2+x,1/2+y,-z
1/2-x,1/2+y,z
1/2+x,1/2-y,z
loop_
_atom_site_type_symbol
_atom_site_label
_atom_site_fract_x
_atom_site_fract_y
_atom_site_fract_z
Si Si1 0.075352 0.819204 0.662804
Si Si2 0.500000 0.552172 0.335501
Si Si3 0.422915 0.768626 0.828466
Si Si4 0.362527 0.448875 0.171091
Si Si5 0.203239 0.123669 0.332704
Si Si6 0.208471 0.293650 0.326041
O O1 0.085420 0.797688 0.500000
O O2 0.087698 0.782059 0.783924
O O3 0.126833 0.858635 0.684219
O O4 0.000000 0.839941 0.679276
O O5 0.500000 0.500000 0.348297
O O6 0.500000 0.573063 0.500000
O O7 0.567805 0.566709 0.248997
O O8 0.500000 0.784214 0.786802
O O9 0.366802 0.797324 0.743171
O O10 0.409801 0.773422 0.000000
O O11 0.345997 0.500000 0.202222
O O12 0.297845 0.420729 0.234470
O O13 0.370787 0.439314 0.000000
O O14 0.221283 0.111212 0.500000
O O15 0.253913 0.161639 0.273721
O O16 0.202490 0.292147 0.500000
O O17 0.250000 0.250000 0.271623
#
# Coordination Sequence:
#
# PCOD8269275 Si02
#       6
#    16   8  16  16  16  16
#     4   9  17  30  46  64  90 125 162 200 239 279
#     4   9  17  31  51  69  87 119 163 207 247 285
#     4  10  20  32  47  69  96 127 163 200 237 281
#     4  10  21  35  48  66  94 124 157 200 248 292
#     4  10  20  32  49  71  92 122 163 203 240 285
#     4  10  19  34  51  70  97 127 161 199 238 284
#
# _framework density 16.282696000000001
#
# number of rings (size 3 to 8) (size 9 to 14) (size 15 to 20)
#    0.000    2.273    1.818    1.364    1.273    5.091 
#    0.000    0.000    0.000    0.000    0.000    0.000 
#    0.000    0.727    0.000    8.000    0.000    5.818 
#
# Total GULP energy -545412.257488 kJ/mol
# GULP energy per Si atom -12395.733125 kJ/mol
# Density = 1.624564 g / cm^3
# Si number density = 16.282696 Si / 1000 Ang^3
#
#
#
# Elastic Constant Matrix: (Units=GPa)
#
#
# Indices 1 2 3 4 5 6 
#
# 1 78.1680 38.5988 36.3064 0.0000 0.0000 0.0000
# 2 38.5988 72.4432 37.7548 0.0000 0.0000 0.0000
# 3 36.3064 37.7548 64.3893 0.0000 0.0000 0.0000
# 4 0.0000 0.0000 0.0000 22.3392 0.0000 0.0000
# 5 0.0000 0.0000 0.0000 0.0000 25.3015 0.0000
# 6 0.0000 0.0000 0.0000 0.0000 0.0000 27.9317
#
#
#
# Elastic Compliance Matrix: (Units=1/GPa)
#
#
# Indices 1 2 3 4 5 6 
#
# 1 0.019328 -0.006651 -0.006998 0.000000 0.000000 0.000000
# 2 -0.006651 0.022167 -0.009248 0.000000 0.000000 0.000000
# 3 -0.006998 -0.009248 0.024899 0.000000 0.000000 0.000000
# 4 0.000000 0.000000 0.000000 0.044764 0.000000 0.000000
# 5 0.000000 0.000000 0.000000 0.000000 0.039523 0.000000
# 6 0.000000 0.000000 0.000000 0.000000 0.000000 0.035802
#
#
# Mechanical properties :
#
#
# Convention : Reuss Voigt Hill
#
# Bulk Modulus (GPa) = 48.54322 48.92449 48.73386
# Shear Modulus (GPa) = 20.90799 21.93717 21.42258
#
# Velocity S-wave (km/s) = 3.58727 3.67450 3.63115
# Velocity P-wave (km/s) = 6.85824 6.93648 6.89747
#
# Compressibility (1/GPa) = 0.02060020
#
# Stress axis : x y z
#
# Youngs Moduli (GPa) = 51.73967 45.11196 40.16228
#
# Poissons Ratio (x) = 0.30003 0.28107
# Poissons Ratio (y) = 0.34411 0.37141
# Poissons Ratio (z) = 0.36209 0.41718
#
# Static dielectric constant tensor:
#      x y z
#    x 3.081150 0.000000 0.000000 
#    y 0.000000 2.918370 0.000000 
#    z 0.000000 0.000000 3.140690 
# 
# 
# High freq. dielectric constant tensor:
#      x y z
#    x 1.604680 0.000000 0.000000 
#    y 0.000000 1.603390 0.000000 
#    z 0.000000 0.000000 1.629100 
# 
# From -- ./inp_files/12669.got.cif
#   From: 2010.03.12/outbox.cif.g09.slc.cpg/sg65_7_cif.got.tgz:12669.got - 2010.04.10 20:52:16.
