data_PCOD8269436
_publ_section_title
;
Structure prediction by ZEFSAII (Michael W. Deem and Ramdas Pophale) SiO2 
 PCOD8269436
Probable space group: C M M M
;
_chemical_formula_sum "Si O2"
_cell_formula_units_Z 72
_cell_length_a 17.743504
_cell_length_b 17.850402
_cell_length_c 11.827653
_cell_angle_alpha 90.000000
_cell_angle_beta 90.000000
_cell_angle_gamma 90.000000
_cell_volume 3746.156914
_symmetry_space_group_name_H-M "C M M M"
_symmetry_group_IT_number 65
_symmetry_cell_setting 'orthorhombic'
loop_
_space_group_symop_operation_xyz
x,y,z
-x,-y,z
x,-y,-z
-x,y,-z
-x,-y,-z
x,y,-z
-x,y,z
x,-y,z
1/2+x,1/2+y,z
1/2-x,1/2-y,z
1/2+x,1/2-y,-z
1/2-x,1/2+y,-z
1/2-x,1/2-y,-z
1/2+x,1/2+y,-z
1/2-x,1/2+y,z
1/2+x,1/2-y,z
loop_
_atom_site_type_symbol
_atom_site_label
_atom_site_fract_x
_atom_site_fract_y
_atom_site_fract_z
Si Si1 0.089610 0.000000 0.627071
Si Si2 0.666448 0.844961 0.000000
Si Si3 0.411254 0.784507 0.625587
Si Si4 0.910487 0.856711 0.235411
Si Si5 0.656189 0.674089 0.000000
Si Si6 0.412996 0.914115 0.210961
O O1 0.119071 0.073252 0.691939
O O2 0.122538 0.000000 0.500000
O O3 0.000000 0.000000 0.622745
O O4 0.632374 0.761436 0.000000
O O5 0.755573 0.839593 0.000000
O O6 0.639447 0.890565 0.891809
O O7 0.375252 0.780967 0.500000
O O8 0.500000 0.773053 0.615611
O O9 0.378403 0.718149 0.704121
O O10 0.391404 0.864563 0.680194
O O11 0.000000 0.855164 0.227326
O O12 0.878117 0.864917 0.110083
O O13 0.500000 0.901123 0.175778
O O14 0.397761 0.000000 0.243580
#
# Coordination Sequence:
#
# PCOD8269436 Si02
#       6
#     8   8  16  16   8  16
#     4   9  18  33  55  83 111 138 175 226 274 319
#     4  11  22  38  54  77 110 143 180 226 270 329
#     4   9  17  30  53  84 112 140 176 222 276 328
#     4  10  19  34  56  81 110 142 183 227 269 325
#     4  11  23  36  56  80 106 148 183 222 278 322
#     4  10  20  35  58  85 111 143 182 227 276 328
#
# _framework density 19.219695999999999
#
# number of rings (size 3 to 8) (size 9 to 14) (size 15 to 20)
#    0.000    2.111    2.222    1.667    0.000    5.333 
#    4.000    3.889    0.000    4.000    0.000    0.000 
#    0.000    0.000    0.000    0.000    0.000    0.000 
#
# Total GULP energy -446457.136657 kJ/mol
# GULP energy per Si atom -12401.587129 kJ/mol
# Density = 1.917595 g / cm^3
# Si number density = 19.219696 Si / 1000 Ang^3
#
#
#
# Elastic Constant Matrix: (Units=GPa)
#
#
# Indices 1 2 3 4 5 6 
#
# 1 28.2367 28.5814 28.0853 0.0000 0.0000 0.0000
# 2 28.5814 158.9471 81.4359 0.0000 0.0000 0.0000
# 3 28.0853 81.4359 185.3939 0.0000 0.0000 0.0000
# 4 0.0000 0.0000 0.0000 47.1968 0.0000 0.0000
# 5 0.0000 0.0000 0.0000 0.0000 -8.4681 0.0000
# 6 0.0000 0.0000 0.0000 0.0000 0.0000 17.5093
#
#
#
# Elastic Compliance Matrix: (Units=1/GPa)
#
#
# Indices 1 2 3 4 5 6 
#
# 1 0.045788 -0.006039 -0.004284 0.000000 0.000000 0.000000
# 2 -0.006039 0.008915 -0.003001 0.000000 0.000000 0.000000
# 3 -0.004284 -0.003001 0.007361 0.000000 0.000000 0.000000
# 4 0.000000 0.000000 0.000000 0.021188 0.000000 0.000000
# 5 0.000000 0.000000 0.000000 0.000000 -0.118090 0.000000
# 6 0.000000 0.000000 0.000000 0.000000 0.000000 0.057113
#
#
# Mechanical properties :
#
#
# Convention : Reuss Voigt Hill
#
# Bulk Modulus (GPa) = 28.23519 72.08699 50.16109
# Shear Modulus (GPa) = 82.33481 26.87927 54.60704
#
# Velocity S-wave (km/s) = 6.55223 3.74375 5.33608
# Velocity P-wave (km/s) = 8.48322 7.50172 8.00752
#
# Compressibility (1/GPa) = 0.03541679
#
# Stress axis : x y z
#
# Youngs Moduli (GPa) = 21.83971 112.17198 135.84795
#
# Poissons Ratio (x) = 0.67737 0.58196
# Poissons Ratio (y) = 0.13188 0.40770
# Poissons Ratio (z) = 0.09356 0.33664
#
# Static dielectric constant tensor:
#      x y z
#    x 3.034350 0.000000 0.000000 
#    y 0.000000 3.716580 0.000000 
#    z 0.000000 0.000000 3.702260 
# 
# 
# High freq. dielectric constant tensor:
#      x y z
#    x 1.698530 0.000000 0.000000 
#    y 0.000000 1.759190 0.000000 
#    z 0.000000 0.000000 1.759820 
# 
# From -- ./inp_files/26374.got.cif
#   From: 2010.03.12/outbox.cif.g09.slc.cpg/sg65_14_cif.got.tgz:26374.got - 2010.04.10 20:52:16.
