data_PCOD8269182
_publ_section_title
;
Structure prediction by ZEFSAII (Michael W. Deem and Ramdas Pophale) SiO2 
 PCOD8269182
Probable space group: C M M M
;
_chemical_formula_sum "Si O2"
_cell_formula_units_Z 104
_cell_length_a 8.829022
_cell_length_b 26.757074
_cell_length_c 22.965285
_cell_angle_alpha 90.000000
_cell_angle_beta 90.000000
_cell_angle_gamma 90.000000
_cell_volume 5425.291255
_symmetry_space_group_name_H-M "C M M M"
_symmetry_group_IT_number 65
_symmetry_cell_setting 'orthorhombic'
loop_
_space_group_symop_operation_xyz
x,y,z
-x,-y,z
x,-y,-z
-x,y,-z
-x,-y,-z
x,y,-z
-x,y,z
x,-y,z
1/2+x,1/2+y,z
1/2-x,1/2-y,z
1/2+x,1/2-y,-z
1/2-x,1/2+y,-z
1/2-x,1/2-y,-z
1/2+x,1/2+y,-z
1/2-x,1/2+y,z
1/2+x,1/2-y,z
loop_
_atom_site_type_symbol
_atom_site_label
_atom_site_fract_x
_atom_site_fract_y
_atom_site_fract_z
Si Si1 0.179949 0.000000 0.565690
Si Si2 0.822716 0.645610 0.066552
Si Si3 0.178399 0.199267 0.169798
Si Si4 0.681104 0.600844 0.628012
Si Si5 0.176976 0.697782 0.568198
Si Si6 0.324636 0.443474 0.127505
Si Si7 0.322347 0.394243 0.242372
O O1 0.240212 0.949434 0.596318
O O2 0.241909 0.000000 0.500000
O O3 0.000000 0.000000 0.567419
O O4 0.736715 0.686385 0.105248
O O5 0.774943 0.589767 0.084607
O O6 0.000000 0.651870 0.076418
O O7 0.776382 0.654911 0.000000
O O8 0.250000 0.250000 0.192628
O O9 0.234015 0.158213 0.216035
O O10 0.000000 0.203889 0.167127
O O11 0.500000 0.604384 0.625143
O O12 0.747261 0.650672 0.599483
O O13 0.747128 0.596583 0.693887
O O14 0.208000 0.691188 0.500000
O O15 0.250000 0.750000 0.590283
O O16 0.000000 0.699192 0.582989
O O17 0.500000 0.427064 0.121024
O O18 0.297971 0.500000 0.108456
O O19 0.275966 0.436697 0.195365
O O20 0.500000 0.393500 0.251165
#
# Coordination Sequence:
#
# PCOD8269182 Si02
#       7
#     8  16  16  16  16  16  16
#     4   9  18  30  49  81 115 147 182 221 266 316
#     4  10  21  36  53  76 106 138 176 220 265 314
#     4  10  20  36  56  78 105 138 176 216 266 323
#     4  10  19  33  55  82 112 145 183 226 269 321
#     4  10  21  37  56  78 105 139 179 225 276 327
#     4   9  18  33  54  77 104 138 176 217 264 316
#     4   8  17  32  51  78 106 136 174 216 261 308
#
# _framework density 19.169478000000002
#
# number of rings (size 3 to 8) (size 9 to 14) (size 15 to 20)
#    0.000    2.538    0.000    2.769    1.077    4.308 
#    0.000    7.308    0.000    1.385    0.000    0.000 
#    0.000    0.000    0.000    0.000    0.000    0.000 
#
# Total GULP energy -644670.054682 kJ/mol
# GULP energy per Si atom -12397.501052 kJ/mol
# Density = 1.912585 g / cm^3
# Si number density = 19.169478 Si / 1000 Ang^3
#
#
#
# Elastic Constant Matrix: (Units=GPa)
#
#
# Indices 1 2 3 4 5 6 
#
# 1 36.0784 20.7996 25.0567 0.0000 0.0000 0.0000
# 2 20.7996 106.5771 35.2906 0.0000 0.0000 0.0000
# 3 25.0567 35.2906 107.9849 0.0000 0.0000 0.0000
# 4 0.0000 0.0000 0.0000 3.3933 0.0000 0.0000
# 5 0.0000 0.0000 0.0000 0.0000 18.5875 0.0000
# 6 0.0000 0.0000 0.0000 0.0000 0.0000 31.3620
#
#
#
# Elastic Compliance Matrix: (Units=1/GPa)
#
#
# Indices 1 2 3 4 5 6 
#
# 1 0.034976 -0.004641 -0.006599 0.000000 0.000000 0.000000
# 2 -0.004641 0.011137 -0.002563 0.000000 0.000000 0.000000
# 3 -0.006599 -0.002563 0.011629 0.000000 0.000000 0.000000
# 4 0.000000 0.000000 0.000000 0.294697 0.000000 0.000000
# 5 0.000000 0.000000 0.000000 0.000000 0.053800 0.000000
# 6 0.000000 0.000000 0.000000 0.000000 0.000000 0.031886
#
#
# Mechanical properties :
#
#
# Convention : Reuss Voigt Hill
#
# Bulk Modulus (GPa) = 33.18181 45.88158 39.53170
# Shear Modulus (GPa) = 10.50913 21.96813 16.23863
#
# Velocity S-wave (km/s) = 2.34395 3.38893 2.91367
# Velocity P-wave (km/s) = 4.96717 6.26895 5.65564
#
# Compressibility (1/GPa) = 0.03013699
#
# Stress axis : x y z
#
# Youngs Moduli (GPa) = 28.59098 89.78903 85.98892
#
# Poissons Ratio (x) = 0.41669 0.56746
# Poissons Ratio (y) = 0.13268 0.22038
# Poissons Ratio (z) = 0.18868 0.23012
#
# Static dielectric constant tensor:
#      x y z
#    x 3.258440 0.000000 0.000000 
#    y 0.000000 3.456840 0.000000 
#    z 0.000000 0.000000 3.701320 
# 
# 
# High freq. dielectric constant tensor:
#      x y z
#    x 1.720860 0.000000 0.000000 
#    y 0.000000 1.754260 0.000000 
#    z 0.000000 0.000000 1.748200 
# 
# From -- ./inp_files/60406.got.cif
#   From: 2010.03.12/outbox.cif.g09.slc.cpg/sg65_31_cif.got.tgz:60406.got - 2010.04.10 20:52:16.
