data_PCOD8269170
_publ_section_title
;
Structure prediction by ZEFSAII (Michael W. Deem and Ramdas Pophale) SiO2 
 PCOD8269170
Probable space group: C M M M
;
_chemical_formula_sum "Si O2"
_cell_formula_units_Z 88
_cell_length_a 8.840824
_cell_length_b 18.454373
_cell_length_c 28.357547
_cell_angle_alpha 90.000000
_cell_angle_beta 90.000000
_cell_angle_gamma 90.000000
_cell_volume 4626.586644
_symmetry_space_group_name_H-M "C M M M"
_symmetry_group_IT_number 65
_symmetry_cell_setting 'orthorhombic'
loop_
_space_group_symop_operation_xyz
x,y,z
-x,-y,z
x,-y,-z
-x,y,-z
-x,-y,-z
x,y,-z
-x,y,z
x,-y,z
1/2+x,1/2+y,z
1/2-x,1/2-y,z
1/2+x,1/2-y,-z
1/2-x,1/2+y,-z
1/2-x,1/2-y,-z
1/2+x,1/2+y,-z
1/2-x,1/2+y,z
1/2+x,1/2-y,z
loop_
_atom_site_type_symbol
_atom_site_label
_atom_site_fract_x
_atom_site_fract_y
_atom_site_fract_z
Si Si1 0.678552 0.673753 0.447800
Si Si2 0.179781 0.829230 0.000000
Si Si3 0.679656 0.418238 0.090355
Si Si4 0.172000 0.915506 0.640344
Si Si5 0.176401 0.584154 0.263731
Si Si6 0.679108 0.671237 0.819538
O O1 0.730504 0.647043 0.500000
O O2 0.500000 0.681643 0.446329
O O3 0.750000 0.750000 0.435298
O O4 0.735823 0.618821 0.407814
O O5 0.250000 0.750000 0.000000
O O6 0.238529 0.873372 0.954598
O O7 0.000000 0.821558 0.000000
O O8 0.500000 0.421990 0.089614
O O9 0.746233 0.500000 0.089222
O O10 0.737676 0.377861 0.137163
O O11 0.276819 0.891377 0.683818
O O12 0.000000 0.890920 0.651009
O O13 0.181501 0.000000 0.632047
O O14 0.218062 0.500000 0.255340
O O15 0.270754 0.633025 0.228275
O O16 0.000000 0.598792 0.256442
O O17 0.500000 0.679226 0.819964
O O18 0.750000 0.750000 0.824339
#
# Coordination Sequence:
#
# PCOD8269170 Si02
#       6
#    16   8  16  16  16  16
#     4   9  18  32  50  73 101 133 168 207 253 305
#     4  10  19  33  55  81 111 142 174 216 262 310
#     4   9  18  33  55  81 106 138 180 220 259 309
#     4   9  18  33  53  76 102 134 172 213 257 306
#     4  10  21  37  56  78 105 137 174 217 265 316
#     4  11  22  36  55  79 108 140 177 220 265 315
#
# _framework density 19.020502
#
# number of rings (size 3 to 8) (size 9 to 14) (size 15 to 20)
#    0.000    2.364    0.000    2.455    0.000    4.727 
#    0.000    4.545    0.000    3.273    0.000    5.091 
#    0.000    0.000    0.000    0.000    0.000    0.000 
#
# Total GULP energy -545618.418886 kJ/mol
# GULP energy per Si atom -12400.418611 kJ/mol
# Density = 1.897721 g / cm^3
# Si number density = 19.020502 Si / 1000 Ang^3
#
#
#
# Elastic Constant Matrix: (Units=GPa)
#
#
# Indices 1 2 3 4 5 6 
#
# 1 42.8669 35.5613 33.3008 0.0000 0.0000 0.0000
# 2 35.5613 129.3711 88.5341 0.0000 0.0000 0.0000
# 3 33.3008 88.5341 157.5602 0.0000 0.0000 0.0000
# 4 0.0000 0.0000 0.0000 27.3100 0.0000 0.0000
# 5 0.0000 0.0000 0.0000 0.0000 17.6699 0.0000
# 6 0.0000 0.0000 0.0000 0.0000 0.0000 29.1689
#
#
#
# Elastic Compliance Matrix: (Units=1/GPa)
#
#
# Indices 1 2 3 4 5 6 
#
# 1 0.030995 -0.006559 -0.002865 0.000000 0.000000 0.000000
# 2 -0.006559 0.013947 -0.006451 0.000000 0.000000 0.000000
# 3 -0.002865 -0.006451 0.010577 0.000000 0.000000 0.000000
# 4 0.000000 0.000000 0.000000 0.036617 0.000000 0.000000
# 5 0.000000 0.000000 0.000000 0.000000 0.056593 0.000000
# 6 0.000000 0.000000 0.000000 0.000000 0.000000 0.034283
#
#
# Mechanical properties :
#
#
# Convention : Reuss Voigt Hill
#
# Bulk Modulus (GPa) = 42.07128 71.62117 56.84623
# Shear Modulus (GPa) = 22.45316 26.32322 24.38819
#
# Velocity S-wave (km/s) = 3.43953 3.72417 3.58467
# Velocity P-wave (km/s) = 6.15960 7.49860 6.86184
#
# Compressibility (1/GPa) = 0.02376919
#
# Stress axis : x y z
#
# Youngs Moduli (GPa) = 32.26310 71.69937 94.54407
#
# Poissons Ratio (x) = 0.47028 0.27090
# Poissons Ratio (y) = 0.21161 0.60988
# Poissons Ratio (z) = 0.09245 0.46251
#
# Static dielectric constant tensor:
#      x y z
#    x 3.285330 0.000000 0.000000 
#    y 0.000000 3.529300 0.000000 
#    z 0.000000 0.000000 3.801050 
# 
# 
# High freq. dielectric constant tensor:
#      x y z
#    x 1.717670 0.000000 0.000000 
#    y 0.000000 1.741220 0.000000 
#    z 0.000000 0.000000 1.757160 
# 
# From -- ./inp_files/76544.got.cif
#   From: 2010.03.12/outbox.cif.g09.slc.cpg/sg65_39_cif.got.tgz:76544.got - 2010.04.10 20:52:16.
