data_PCOD8269826
_publ_section_title
;
Structure prediction by ZEFSAII (Michael W. Deem and Ramdas Pophale) SiO2 
 PCOD8269826
Probable space group: C M M M
;
_chemical_formula_sum "Si O2"
_cell_formula_units_Z 128
_cell_length_a 22.128552
_cell_length_b 18.180745
_cell_length_c 17.059876
_cell_angle_alpha 90.000000
_cell_angle_beta 90.000000
_cell_angle_gamma 90.000000
_cell_volume 6863.419466
_symmetry_space_group_name_H-M "C M M M"
_symmetry_group_IT_number 65
_symmetry_cell_setting 'orthorhombic'
loop_
_space_group_symop_operation_xyz
x,y,z
-x,-y,z
x,-y,-z
-x,y,-z
-x,-y,-z
x,y,-z
-x,y,z
x,-y,z
1/2+x,1/2+y,z
1/2-x,1/2-y,z
1/2+x,1/2-y,-z
1/2-x,1/2+y,-z
1/2-x,1/2-y,-z
1/2+x,1/2+y,-z
1/2-x,1/2+y,z
1/2+x,1/2-y,z
loop_
_atom_site_type_symbol
_atom_site_label
_atom_site_fract_x
_atom_site_fract_y
_atom_site_fract_z
Si Si1 0.569637 0.767893 0.915629
Si Si2 0.068974 0.780761 0.592166
Si Si3 0.761545 0.915697 0.910463
Si Si4 0.431483 0.417206 0.696449
Si Si5 0.851998 0.171493 0.809431
Si Si6 0.432605 0.079953 0.148024
Si Si7 0.180204 0.418441 0.763447
Si Si8 0.187839 0.726793 0.675158
O O1 0.500000 0.747957 0.907378
O O2 0.601332 0.729612 0.843463
O O3 0.580604 0.855609 0.913508
O O4 0.594141 0.740479 0.000000
O O5 0.077732 0.779842 0.500000
O O6 0.077086 0.864153 0.621813
O O7 0.123956 0.732371 0.628665
O O8 0.000000 0.752829 0.613997
O O9 0.814859 0.863207 0.880536
O O10 0.706017 0.903462 0.851112
O O11 0.783730 0.000000 0.908266
O O12 0.743835 0.893530 0.000000
O O13 0.500000 0.413037 0.728087
O O14 0.415026 0.500000 0.669891
O O15 0.387116 0.394019 0.766218
O O16 0.811373 0.217959 0.749367
O O17 0.500000 0.087044 0.181287
O O18 0.391662 0.086234 0.225676
O O19 0.422063 0.000000 0.106795
O O20 0.200624 0.500000 0.733720
O O21 0.198920 0.357843 0.700238
O O22 0.250000 0.750000 0.628168
#
# Coordination Sequence:
#
# PCOD8269826 Si02
#       8
#    16  16  16  16  16  16  16  16
#     4  10  20  31  45  68  99 137 181 234 291 336
#     4   9  20  38  61  89 119 149 178 214 265 326
#     4  10  21  35  51  71  99 140 185 232 283 329
#     4   9  18  32  54  83 111 142 178 218 266 320
#     4  11  19  33  51  72 104 140 184 228 273 327
#     4   9  18  32  49  68  91 123 169 223 280 336
#     4  10  20  36  53  75 106 141 182 230 277 329
#     4  11  21  36  56  86 112 144 185 223 273 326
#
# _framework density 18.649595999999999
#
# number of rings (size 3 to 8) (size 9 to 14) (size 15 to 20)
#    0.000    2.125    2.500    1.125    0.000    2.250 
#    0.000    4.375    0.000    0.375    0.000    6.125 
#    0.000    0.000    0.000    0.000    0.000    0.000 
#
# Total GULP energy -792995.137970 kJ/mol
# GULP energy per Si atom -12390.549031 kJ/mol
# Density = 1.860715 g / cm^3
# Si number density = 18.649596 Si / 1000 Ang^3
#
#
#
# Elastic Constant Matrix: (Units=GPa)
#
#
# Indices 1 2 3 4 5 6 
#
# 1 98.8475 45.4242 38.7874 0.0000 0.0000 0.0000
# 2 45.4242 97.1083 37.3587 0.0000 0.0000 0.0000
# 3 38.7874 37.3587 70.1505 0.0000 0.0000 0.0000
# 4 0.0000 0.0000 0.0000 15.3309 0.0000 0.0000
# 5 0.0000 0.0000 0.0000 0.0000 25.7317 0.0000
# 6 0.0000 0.0000 0.0000 0.0000 0.0000 26.3916
#
#
#
# Elastic Compliance Matrix: (Units=1/GPa)
#
#
# Indices 1 2 3 4 5 6 
#
# 1 0.014398 -0.004618 -0.005501 0.000000 0.000000 0.000000
# 2 -0.004618 0.014433 -0.005133 0.000000 0.000000 0.000000
# 3 -0.005501 -0.005133 0.020030 0.000000 0.000000 0.000000
# 4 0.000000 0.000000 0.000000 0.065228 0.000000 0.000000
# 5 0.000000 0.000000 0.000000 0.000000 0.038863 0.000000
# 6 0.000000 0.000000 0.000000 0.000000 0.000000 0.037891
#
#
# Mechanical properties :
#
#
# Convention : Reuss Voigt Hill
#
# Bulk Modulus (GPa) = 54.47755 56.58298 55.53027
# Shear Modulus (GPa) = 21.98147 23.12656 22.55402
#
# Velocity S-wave (km/s) = 3.43688 3.52526 3.48135
# Velocity P-wave (km/s) = 6.71000 6.85390 6.78233
#
# Compressibility (1/GPa) = 0.01835618
#
# Stress axis : x y z
#
# Youngs Moduli (GPa) = 69.45634 69.28732 49.92489
#
# Poissons Ratio (x) = 0.31999 0.27464
# Poissons Ratio (y) = 0.32077 0.25624
# Poissons Ratio (z) = 0.38209 0.35562
#
# Static dielectric constant tensor:
#      x y z
#    x 3.625980 0.000000 0.000000 
#    y 0.000000 3.495090 0.000000 
#    z 0.000000 0.000000 3.067350 
# 
# 
# High freq. dielectric constant tensor:
#      x y z
#    x 1.738330 0.000000 0.000000 
#    y 0.000000 1.726110 0.000000 
#    z 0.000000 0.000000 1.681080 
# 
# From -- ./inp_files/56990.got.cif
#   From: 2010.03.12/outbox.cif.g09.slc.cpg/sg65_29_cif.got.tgz:56990.got - 2010.04.10 20:52:16.
