data_PCOD8269688
_publ_section_title
;
Structure prediction by ZEFSAII (Michael W. Deem and Ramdas Pophale) SiO2 
 PCOD8269688
Probable space group: C M M M
;
_chemical_formula_sum "Si O2"
_cell_formula_units_Z 88
_cell_length_a 16.176712
_cell_length_b 15.868209
_cell_length_c 18.967553
_cell_angle_alpha 90.000000
_cell_angle_beta 90.000000
_cell_angle_gamma 90.000000
_cell_volume 4868.884495
_symmetry_space_group_name_H-M "C M M M"
_symmetry_group_IT_number 65
_symmetry_cell_setting 'orthorhombic'
loop_
_space_group_symop_operation_xyz
x,y,z
-x,-y,z
x,-y,-z
-x,y,-z
-x,-y,-z
x,y,-z
-x,y,z
x,-y,z
1/2+x,1/2+y,z
1/2-x,1/2-y,z
1/2+x,1/2-y,-z
1/2-x,1/2+y,-z
1/2-x,1/2-y,-z
1/2+x,1/2+y,-z
1/2-x,1/2+y,z
1/2+x,1/2-y,z
loop_
_atom_site_type_symbol
_atom_site_label
_atom_site_fract_x
_atom_site_fract_y
_atom_site_fract_z
Si Si1 0.758066 0.000000 0.257877
Si Si2 0.402892 0.095395 0.578554
Si Si3 0.093292 0.000000 0.148695
Si Si4 0.156614 0.667923 0.143592
Si Si5 0.592346 0.000000 0.834348
Si Si6 0.836290 0.840496 0.917843
Si Si7 0.301425 0.168065 0.301863
O O1 0.838802 0.000000 0.209359
O O2 0.667312 0.000000 0.221132
O O3 0.759872 0.086495 0.302189
O O4 0.368993 0.115833 0.500000
O O5 0.500000 0.106707 0.579140
O O6 0.366630 0.159503 0.635358
O O7 0.378570 0.000000 0.599713
O O8 0.103233 0.917204 0.100144
O O9 0.000000 0.000000 0.179610
O O10 0.102723 0.586152 0.119959
O O11 0.122454 0.751160 0.104446
O O12 0.251777 0.648970 0.125202
O O13 0.150546 0.680329 0.227833
O O14 0.500000 0.000000 0.800164
O O15 0.815764 0.839404 0.000000
O O16 0.250000 0.250000 0.319816
#
# Coordination Sequence:
#
# PCOD8269688 Si02
#       7
#     8  16   8  16   8  16  16
#     4  10  20  39  54  83 120 147 186 241 285 335
#     4   9  19  35  55  86 123 153 183 227 282 335
#     4  12  23  39  59  81 108 148 196 245 290 334
#     4  10  19  37  56  83 115 144 185 232 288 346
#     4  10  20  33  58  83 109 141 176 224 288 352
#     4  11  21  38  61  80 107 151 193 242 298 339
#     4  11  18  32  59  81 114 148 190 225 276 333
#
# _framework density 18.073955000000002
#
# number of rings (size 3 to 8) (size 9 to 14) (size 15 to 20)
#    0.000    1.636    6.364    1.909    0.000    4.727 
#    0.000    4.091    0.000    3.818    0.000    0.000 
#    0.000    2.182    0.000    0.000    0.000    0.000 
#
# Total GULP energy -545346.255609 kJ/mol
# GULP energy per Si atom -12394.233082 kJ/mol
# Density = 1.803282 g / cm^3
# Si number density = 18.073955 Si / 1000 Ang^3
#
#
#
# Elastic Constant Matrix: (Units=GPa)
#
#
# Indices 1 2 3 4 5 6 
#
# 1 81.1732 47.4650 33.0530 0.0000 0.0000 0.0000
# 2 47.4650 152.9384 32.5008 0.0000 0.0000 0.0000
# 3 33.0530 32.5008 90.7846 0.0000 0.0000 0.0000
# 4 0.0000 0.0000 0.0000 23.0949 0.0000 0.0000
# 5 0.0000 0.0000 0.0000 0.0000 11.8637 0.0000
# 6 0.0000 0.0000 0.0000 0.0000 0.0000 8.7911
#
#
#
# Elastic Compliance Matrix: (Units=1/GPa)
#
#
# Indices 1 2 3 4 5 6 
#
# 1 0.016624 -0.004192 -0.004552 0.000000 0.000000 0.000000
# 2 -0.004192 0.008134 -0.001386 0.000000 0.000000 0.000000
# 3 -0.004552 -0.001386 0.013168 0.000000 0.000000 0.000000
# 4 0.000000 0.000000 0.000000 0.043300 0.000000 0.000000
# 5 0.000000 0.000000 0.000000 0.000000 0.084291 0.000000
# 6 0.000000 0.000000 0.000000 0.000000 0.000000 0.113751
#
#
# Mechanical properties :
#
#
# Convention : Reuss Voigt Hill
#
# Bulk Modulus (GPa) = 56.60139 61.21486 58.90813
# Shear Modulus (GPa) = 16.37108 22.87509 19.62309
#
# Velocity S-wave (km/s) = 3.01289 3.56144 3.29859
# Velocity P-wave (km/s) = 6.59453 7.13123 6.86813
#
# Compressibility (1/GPa) = 0.01766741
#
# Stress axis : x y z
#
# Youngs Moduli (GPa) = 60.15397 122.93946 75.93940
#
# Poissons Ratio (x) = 0.51537 0.34566
# Poissons Ratio (y) = 0.25217 0.10523
# Poissons Ratio (z) = 0.27381 0.17036
#
# Static dielectric constant tensor:
#      x y z
#    x 3.020550 0.000000 0.000000 
#    y 0.000000 3.968210 0.000000 
#    z 0.000000 0.000000 3.192880 
# 
# 
# High freq. dielectric constant tensor:
#      x y z
#    x 1.669810 0.000000 0.000000 
#    y 0.000000 1.720080 0.000000 
#    z 0.000000 0.000000 1.679020 
# 
# From -- ./inp_files/63758.got.cif
#   From: 2010.03.12/outbox.cif.g09.slc.cpg/sg65_32_cif.got.tgz:63758.got - 2010.04.10 20:52:16.
