data_PCOD8269653
_publ_section_title
;
Structure prediction by ZEFSAII (Michael W. Deem and Ramdas Pophale) SiO2 
 PCOD8269653
Probable space group: C M M M
;
_chemical_formula_sum "Si O2"
_cell_formula_units_Z 64
_cell_length_a 9.532175
_cell_length_b 31.788653
_cell_length_c 11.693733
_cell_angle_alpha 90.000000
_cell_angle_beta 90.000000
_cell_angle_gamma 90.000000
_cell_volume 3543.376545
_symmetry_space_group_name_H-M "C M M M"
_symmetry_group_IT_number 65
_symmetry_cell_setting 'orthorhombic'
loop_
_space_group_symop_operation_xyz
x,y,z
-x,-y,z
x,-y,-z
-x,y,-z
-x,-y,-z
x,y,-z
-x,y,z
x,-y,z
1/2+x,1/2+y,z
1/2-x,1/2-y,z
1/2+x,1/2-y,-z
1/2-x,1/2+y,-z
1/2-x,1/2-y,-z
1/2+x,1/2+y,-z
1/2-x,1/2+y,z
1/2+x,1/2-y,z
loop_
_atom_site_type_symbol
_atom_site_label
_atom_site_fract_x
_atom_site_fract_y
_atom_site_fract_z
Si Si1 0.000000 0.320424 0.269109
Si Si2 0.000000 0.222660 0.268581
Si Si3 0.500000 0.602795 0.873029
Si Si4 0.000000 0.170247 0.500000
Si Si5 0.302210 0.594130 0.500000
Si Si6 0.500000 0.549401 0.335325
Si Si7 0.500000 0.873532 0.500000
Si Si8 0.279398 0.325958 0.866509
O O1 0.000000 0.271419 0.298261
O O2 0.132056 0.333450 0.193369
O O3 0.000000 0.344759 0.388220
O O4 0.000000 0.198315 0.387694
O O5 0.137749 0.212101 0.194269
O O6 0.500000 0.561097 0.797192
O O7 0.636113 0.630988 0.849139
O O8 0.500000 0.584970 0.000000
O O9 0.139651 0.141840 0.500000
O O10 0.359836 0.569336 0.389818
O O11 0.134456 0.595686 0.500000
O O12 0.500000 0.500000 0.353785
O O13 0.261336 0.314590 0.000000
#
# Coordination Sequence:
#
# PCOD8269653 Si02
#       8
#     8   8   8   4   8   8   4  16
#     4  12  23  33  49  76 104 135 179 227 264 298
#     4  11  21  34  51  72 103 137 178 226 269 300
#     4   9  18  35  56  77 103 133 165 202 249 308
#     4  10  19  36  55  72 100 142 178 212 263 310
#     4  10  20  35  56  75 101 136 170 204 245 306
#     4  10  19  36  59  83 105 127 161 202 251 305
#     4  12  23  36  53  76 106 138 176 212 255 308
#     4  10  21  36  53  73 101 140 180 215 257 306
#
# _framework density 18.061868
#
# number of rings (size 3 to 8) (size 9 to 14) (size 15 to 20)
#    0.000    1.750    0.000    9.375    0.000    3.250 
#    0.000    5.000    0.000    0.000    0.000    0.000 
#    0.000   10.000    0.000    0.000    0.000    0.000 
#
# Total GULP energy -396855.647817 kJ/mol
# GULP energy per Si atom -12401.738994 kJ/mol
# Density = 1.802076 g / cm^3
# Si number density = 18.061868 Si / 1000 Ang^3
#
#
#
# Elastic Constant Matrix: (Units=GPa)
#
#
# Indices 1 2 3 4 5 6 
#
# 1 161.3391 44.2941 67.9734 0.0000 0.0000 0.0000
# 2 44.2941 97.5062 71.3268 0.0000 0.0000 0.0000
# 3 67.9734 71.3268 151.9411 0.0000 0.0000 0.0000
# 4 0.0000 0.0000 0.0000 13.0537 0.0000 0.0000
# 5 0.0000 0.0000 0.0000 0.0000 17.2293 0.0000
# 6 0.0000 0.0000 0.0000 0.0000 0.0000 18.1019
#
#
#
# Elastic Compliance Matrix: (Units=1/GPa)
#
#
# Indices 1 2 3 4 5 6 
#
# 1 0.007780 -0.001505 -0.002774 0.000000 0.000000 0.000000
# 2 -0.001505 0.015911 -0.006796 0.000000 0.000000 0.000000
# 3 -0.002774 -0.006796 0.011013 0.000000 0.000000 0.000000
# 4 0.000000 0.000000 0.000000 0.076607 0.000000 0.000000
# 5 0.000000 0.000000 0.000000 0.000000 0.058041 0.000000
# 6 0.000000 0.000000 0.000000 0.000000 0.000000 0.055243
#
#
# Mechanical properties :
#
#
# Convention : Reuss Voigt Hill
#
# Bulk Modulus (GPa) = 79.65733 86.44166 83.04949
# Shear Modulus (GPa) = 19.92606 24.82311 22.37459
#
# Velocity S-wave (km/s) = 3.32507 3.71123 3.52344
# Velocity P-wave (km/s) = 7.67722 8.14413 7.91412
#
# Compressibility (1/GPa) = 0.01255377
#
# Stress axis : x y z
#
# Youngs Moduli (GPa) = 128.53424 62.85129 90.80451
#
# Poissons Ratio (x) = 0.09459 0.25189
# Poissons Ratio (y) = 0.19344 0.61708
# Poissons Ratio (z) = 0.35656 0.42712
#
# Static dielectric constant tensor:
#      x y z
#    x 3.378960 0.000000 0.000000 
#    y 0.000000 3.047840 0.000000 
#    z 0.000000 0.000000 3.555370 
# 
# 
# High freq. dielectric constant tensor:
#      x y z
#    x 1.699950 0.000000 0.000000 
#    y 0.000000 1.675190 0.000000 
#    z 0.000000 0.000000 1.719460 
# 
# From -- ./inp_files/21148.got.cif
#   From: 2010.03.12/outbox.cif.g09.slc.cpg/sg65_11_cif.got.tgz:21148.got - 2010.04.10 20:52:16.
