data_PCOD8269903
_publ_section_title
;
Structure prediction by ZEFSAII (Michael W. Deem and Ramdas Pophale) SiO2 
 PCOD8269903
Probable space group: C M M M
;
_chemical_formula_sum "Si O2"
_cell_formula_units_Z 88
_cell_length_a 8.967064
_cell_length_b 28.323774
_cell_length_c 23.575381
_cell_angle_alpha 90.000000
_cell_angle_beta 90.000000
_cell_angle_gamma 90.000000
_cell_volume 5987.701062
_symmetry_space_group_name_H-M "C M M M"
_symmetry_group_IT_number 65
_symmetry_cell_setting 'orthorhombic'
loop_
_space_group_symop_operation_xyz
x,y,z
-x,-y,z
x,-y,-z
-x,y,-z
-x,-y,-z
x,y,-z
-x,y,z
x,-y,z
1/2+x,1/2+y,z
1/2-x,1/2-y,z
1/2+x,1/2-y,-z
1/2-x,1/2+y,-z
1/2-x,1/2-y,-z
1/2+x,1/2+y,-z
1/2-x,1/2+y,z
1/2+x,1/2-y,z
loop_
_atom_site_type_symbol
_atom_site_label
_atom_site_fract_x
_atom_site_fract_y
_atom_site_fract_z
Si Si1 0.825755 0.301004 0.061593
Si Si2 0.173497 0.800617 0.293139
Si Si3 0.827550 0.199700 0.167443
Si Si4 0.327792 0.553494 0.565507
Si Si5 0.675601 0.199457 0.500000
Si Si6 0.824352 0.358411 0.610094
O O1 0.750000 0.250000 0.059623
O O2 0.751054 0.329197 0.115129
O O3 0.000000 0.295462 0.073213
O O4 0.798092 0.326006 0.000000
O O5 0.250000 0.750000 0.300793
O O6 0.195130 0.822744 0.229832
O O7 0.245207 0.838223 0.334748
O O8 0.000000 0.793645 0.307253
O O9 0.750000 0.250000 0.170553
O O10 0.000000 0.205380 0.152660
O O11 0.281967 0.558674 0.500000
O O12 0.500000 0.567323 0.573969
O O13 0.299232 0.500000 0.585965
O O14 0.224956 0.587436 0.603005
O O15 0.500000 0.206451 0.500000
O O16 0.750000 0.250000 0.500000
O O17 0.728746 0.171100 0.555343
O O18 0.000000 0.355891 0.618665
#
# Coordination Sequence:
#
# PCOD8269903 Si02
#       6
#    16  16  16  16   8  16
#     4   9  15  21  31  48  69  93 124 163 204 242
#     4  10  20  32  44  60  81 109 144 178 211 249
#     4   9  16  25  37  51  70  97 131 169 205 241
#     4   9  18  33  52  71  88 107 131 161 203 252
#     4  10  22  34  43  60  83 107 136 169 205 244
#     4  11  21  33  47  65  86 109 138 170 209 252
#
# _framework density 14.696792
#
# number of rings (size 3 to 8) (size 9 to 14) (size 15 to 20)
#    0.000    2.364    0.909    4.364    0.000    6.545 
#    0.000    0.909    0.000    0.000    0.000    0.000 
#    0.000    0.000    0.000    0.000    0.000    0.909 
#
# Total GULP energy -545242.872413 kJ/mol
# GULP energy per Si atom -12391.883464 kJ/mol
# Density = 1.466334 g / cm^3
# Si number density = 14.696792 Si / 1000 Ang^3
#
#
#
# Elastic Constant Matrix: (Units=GPa)
#
#
# Indices 1 2 3 4 5 6 
#
# 1 93.8100 30.1581 61.5044 0.0000 0.0000 0.0000
# 2 30.1581 56.8106 36.6949 0.0000 0.0000 0.0000
# 3 61.5044 36.6949 127.4902 0.0000 0.0000 0.0000
# 4 0.0000 0.0000 0.0000 3.4517 0.0000 0.0000
# 5 0.0000 0.0000 0.0000 0.0000 24.7299 0.0000
# 6 0.0000 0.0000 0.0000 0.0000 0.0000 19.6784
#
#
#
# Elastic Compliance Matrix: (Units=1/GPa)
#
#
# Indices 1 2 3 4 5 6 
#
# 1 0.016452 -0.004431 -0.006661 0.000000 0.000000 0.000000
# 2 -0.004431 0.022815 -0.004429 0.000000 0.000000 0.000000
# 3 -0.006661 -0.004429 0.012332 0.000000 0.000000 0.000000
# 4 0.000000 0.000000 0.000000 0.289713 0.000000 0.000000
# 5 0.000000 0.000000 0.000000 0.000000 0.040437 0.000000
# 6 0.000000 0.000000 0.000000 0.000000 0.000000 0.050817
#
#
# Mechanical properties :
#
#
# Convention : Reuss Voigt Hill
#
# Bulk Modulus (GPa) = 48.64676 59.42504 54.03590
# Shear Modulus (GPa) = 10.62787 19.55557 15.09172
#
# Velocity S-wave (km/s) = 2.69205 3.65170 3.20796
# Velocity P-wave (km/s) = 6.54484 7.63555 7.11114
#
# Compressibility (1/GPa) = 0.02055635
#
# Stress axis : x y z
#
# Youngs Moduli (GPa) = 60.78422 43.83002 81.08817
#
# Poissons Ratio (x) = 0.19420 0.54016
# Poissons Ratio (y) = 0.26932 0.35917
# Poissons Ratio (z) = 0.40491 0.19414
#
# Static dielectric constant tensor:
#      x y z
#    x 2.991000 0.000000 0.000000 
#    y 0.000000 2.416340 0.000000 
#    z 0.000000 0.000000 3.785140 
# 
# 
# High freq. dielectric constant tensor:
#      x y z
#    x 1.580290 0.000000 0.000000 
#    y 0.000000 1.496410 0.000000 
#    z 0.000000 0.000000 1.573760 
# 
# From -- ./inp_files/68418.got.cif
#   From: 2010.03.12/outbox.cif.g09.slc.cpg/sg65_35_cif.got.tgz:68418.got - 2010.04.10 20:52:16.
