data_PCOD8269549
_publ_section_title
;
Structure prediction by ZEFSAII (Michael W. Deem and Ramdas Pophale) SiO2 
 PCOD8269549
Probable space group: C M M M
;
_chemical_formula_sum "Si O2"
_cell_formula_units_Z 112
_cell_length_a 14.272458
_cell_length_b 30.086793
_cell_length_c 14.322229
_cell_angle_alpha 90.000000
_cell_angle_beta 90.000000
_cell_angle_gamma 90.000000
_cell_volume 6150.144009
_symmetry_space_group_name_H-M "C M M M"
_symmetry_group_IT_number 65
_symmetry_cell_setting 'orthorhombic'
loop_
_space_group_symop_operation_xyz
x,y,z
-x,-y,z
x,-y,-z
-x,y,-z
-x,-y,-z
x,y,-z
-x,y,z
x,-y,z
1/2+x,1/2+y,z
1/2-x,1/2-y,z
1/2+x,1/2-y,-z
1/2-x,1/2+y,-z
1/2-x,1/2-y,-z
1/2+x,1/2+y,-z
1/2-x,1/2+y,z
1/2+x,1/2-y,z
loop_
_atom_site_type_symbol
_atom_site_label
_atom_site_fract_x
_atom_site_fract_y
_atom_site_fract_z
Si Si1 0.110853 0.227520 0.104264
Si Si2 0.391987 0.657649 0.741891
Si Si3 0.642988 0.263784 0.606062
Si Si4 0.103348 0.302028 0.239240
Si Si5 0.787115 0.391609 0.747084
Si Si6 0.894316 0.550107 0.608528
Si Si7 0.606497 0.051192 0.108012
O O1 0.135787 0.184060 0.163899
O O2 0.149094 0.271651 0.156971
O O3 0.000000 0.232574 0.099875
O O4 0.154057 0.224031 0.000000
O O5 0.500000 0.641907 0.743509
O O6 0.373397 0.687612 0.650408
O O7 0.325561 0.613875 0.741812
O O8 0.604223 0.264217 0.500000
O O9 0.750000 0.250000 0.607768
O O10 0.588840 0.227358 0.667480
O O11 0.171914 0.342369 0.256679
O O12 0.000000 0.319674 0.210889
O O13 0.819973 0.418146 0.656543
O O14 0.820306 0.417612 0.838916
O O15 0.872832 0.551526 0.500000
O O16 0.882508 0.500000 0.646779
O O17 0.000000 0.566636 0.629471
O O18 0.500000 0.059777 0.143282
O O19 0.633488 0.000000 0.125235
O O20 0.614178 0.063459 0.000000
#
# Coordination Sequence:
#
# PCOD8269549 Si02
#       7
#    16  16  16  16  16  16  16
#     4   8  16  33  52  67  94 138 178 213 255 298
#     4  10  22  37  52  73 104 141 186 227 258 301
#     4  10  19  35  54  69  96 140 182 219 263 310
#     4  10  20  31  47  76 105 129 165 215 266 315
#     4  12  21  32  53  79 107 136 172 214 264 306
#     4   9  19  36  57  81 107 134 163 197 250 324
#     4   9  19  36  57  82 111 140 168 201 254 327
#
# _framework density 18.210955999999999
#
# number of rings (size 3 to 8) (size 9 to 14) (size 15 to 20)
#    0.000    2.286    1.429    3.857    0.000    4.571 
#    0.000    2.143    0.000    1.714    0.000    2.000 
#    0.000    0.000    0.000    0.000    0.000    0.000 
#
# Total GULP energy -694264.411019 kJ/mol
# GULP energy per Si atom -12397.578768 kJ/mol
# Density = 1.816951 g / cm^3
# Si number density = 18.210956 Si / 1000 Ang^3
#
#
#
# Elastic Constant Matrix: (Units=GPa)
#
#
# Indices 1 2 3 4 5 6 
#
# 1 102.8335 50.5883 26.6621 0.0000 0.0000 0.0000
# 2 50.5883 86.3279 40.4036 0.0000 0.0000 0.0000
# 3 26.6621 40.4036 122.8414 0.0000 0.0000 0.0000
# 4 0.0000 0.0000 0.0000 22.3792 0.0000 0.0000
# 5 0.0000 0.0000 0.0000 0.0000 -2.0193 0.0000
# 6 0.0000 0.0000 0.0000 0.0000 0.0000 15.1122
#
#
#
# Elastic Compliance Matrix: (Units=1/GPa)
#
#
# Indices 1 2 3 4 5 6 
#
# 1 0.013679 -0.007832 -0.000393 0.000000 0.000000 0.000000
# 2 -0.007832 0.018176 -0.004278 0.000000 0.000000 0.000000
# 3 -0.000393 -0.004278 0.009633 0.000000 0.000000 0.000000
# 4 0.000000 0.000000 0.000000 0.044684 0.000000 0.000000
# 5 0.000000 0.000000 0.000000 0.000000 -0.495220 0.000000
# 6 0.000000 0.000000 0.000000 0.000000 0.000000 0.066172
#
#
# Mechanical properties :
#
#
# Convention : Reuss Voigt Hill
#
# Bulk Modulus (GPa) = 60.67469 60.81232 60.74351
# Shear Modulus (GPa) = -16.00640 20.05100 2.02230
#
# Velocity S-wave (km/s) = -2.96791 3.32179 1.05494
# Velocity P-wave (km/s) = 4.65245 6.94105 5.90862
#
# Compressibility (1/GPa) = 0.01648134
#
# Stress axis : x y z
#
# Youngs Moduli (GPa) = 73.10288 55.01832 103.80968
#
# Poissons Ratio (x) = 0.43092 0.04079
# Poissons Ratio (y) = 0.57256 0.44412
# Poissons Ratio (z) = 0.02873 0.23538
#
# Static dielectric constant tensor:
#      x y z
#    x 3.330470 0.000000 0.000000 
#    y 0.000000 3.176600 0.000000 
#    z 0.000000 0.000000 3.611540 
# 
# 
# High freq. dielectric constant tensor:
#      x y z
#    x 1.694720 0.000000 0.000000 
#    y 0.000000 1.680280 0.000000 
#    z 0.000000 0.000000 1.715700 
# 
# From -- ./inp_files/41054.got.cif
#   From: 2010.03.12/outbox.cif.g09.slc.cpg/sg65_21_cif.got.tgz:41054.got - 2010.04.10 20:52:16.
