data_PCOD8269186
_publ_section_title
;
Structure prediction by ZEFSAII (Michael W. Deem and Ramdas Pophale) SiO2 
 PCOD8269186
Probable space group: C M M M
;
_chemical_formula_sum "Si O2"
_cell_formula_units_Z 112
_cell_length_a 23.242215
_cell_length_b 18.824608
_cell_length_c 13.563556
_cell_angle_alpha 90.000000
_cell_angle_beta 90.000000
_cell_angle_gamma 90.000000
_cell_volume 5934.402793
_symmetry_space_group_name_H-M "C M M M"
_symmetry_group_IT_number 65
_symmetry_cell_setting 'orthorhombic'
loop_
_space_group_symop_operation_xyz
x,y,z
-x,-y,z
x,-y,-z
-x,y,-z
-x,-y,-z
x,y,-z
-x,y,z
x,-y,z
1/2+x,1/2+y,z
1/2-x,1/2-y,z
1/2+x,1/2-y,-z
1/2-x,1/2+y,-z
1/2-x,1/2-y,-z
1/2+x,1/2+y,-z
1/2-x,1/2+y,z
1/2+x,1/2-y,z
loop_
_atom_site_type_symbol
_atom_site_label
_atom_site_fract_x
_atom_site_fract_y
_atom_site_fract_z
Si Si1 0.332570 0.656414 0.612049
Si Si2 0.843264 0.581772 0.889535
Si Si3 0.226910 0.416479 0.298739
Si Si4 0.432381 0.669443 0.108528
Si Si5 0.362254 0.185081 0.611371
Si Si6 0.432376 0.183326 0.799831
Si Si7 0.566825 0.417982 0.291211
O O1 0.315379 0.638153 0.500000
O O2 0.290045 0.615974 0.686371
O O3 0.329295 0.740661 0.630167
O O4 0.397105 0.628353 0.631500
O O5 0.860545 0.500000 0.880499
O O6 0.791674 0.599985 0.813973
O O7 0.901165 0.623574 0.863698
O O8 0.822335 0.600930 0.000000
O O9 0.227349 0.500000 0.322199
O O10 0.182701 0.378579 0.372853
O O11 0.500000 0.675748 0.095995
O O12 0.409803 0.741407 0.159023
O O13 0.416512 0.603497 0.179068
O O14 0.404212 0.658439 0.000000
O O15 0.386211 0.181608 0.500000
O O16 0.416100 0.177248 0.684693
O O17 0.500000 0.172664 0.811799
O O18 0.500000 0.401375 0.312236
O O19 0.581615 0.500000 0.305577
#
# Coordination Sequence:
#
# PCOD8269186 Si02
#       7
#    16  16  16  16  16  16  16
#     4  11  22  37  58  81 108 146 188 229 275 329
#     4   9  19  36  57  82 113 147 183 228 280 329
#     4  10  21  37  58  82 110 143 184 234 281 328
#     4   9  17  31  51  73 100 138 179 217 260 314
#     4  10  21  36  56  80 110 147 186 229 275 326
#     4  10  19  33  55  82 113 147 184 225 270 324
#     4  10  21  36  53  78 111 142 177 225 278 332
#
# _framework density 18.873003000000001
#
# number of rings (size 3 to 8) (size 9 to 14) (size 15 to 20)
#    0.000    2.143    1.429    1.714    0.000    5.143 
#    0.000    5.000    0.000    3.429    0.000    4.000 
#    0.000    0.000    0.000    0.000    0.000    0.000 
#
# Total GULP energy -694430.981524 kJ/mol
# GULP energy per Si atom -12400.553242 kJ/mol
# Density = 1.883005 g / cm^3
# Si number density = 18.873003 Si / 1000 Ang^3
#
#
#
# Elastic Constant Matrix: (Units=GPa)
#
#
# Indices 1 2 3 4 5 6 
#
# 1 70.6378 31.0008 33.9618 0.0000 0.0000 0.0000
# 2 31.0008 87.0242 38.7709 0.0000 0.0000 0.0000
# 3 33.9618 38.7709 107.6304 0.0000 0.0000 0.0000
# 4 0.0000 0.0000 0.0000 26.7874 0.0000 0.0000
# 5 0.0000 0.0000 0.0000 0.0000 20.6945 0.0000
# 6 0.0000 0.0000 0.0000 0.0000 0.0000 26.7704
#
#
#
# Elastic Compliance Matrix: (Units=1/GPa)
#
#
# Indices 1 2 3 4 5 6 
#
# 1 0.018149 -0.004662 -0.004047 0.000000 0.000000 0.000000
# 2 -0.004662 0.014885 -0.003891 0.000000 0.000000 0.000000
# 3 -0.004047 -0.003891 0.011970 0.000000 0.000000 0.000000
# 4 0.000000 0.000000 0.000000 0.037331 0.000000 0.000000
# 5 0.000000 0.000000 0.000000 0.000000 0.048322 0.000000
# 6 0.000000 0.000000 0.000000 0.000000 0.000000 0.037355
#
#
# Mechanical properties :
#
#
# Convention : Reuss Voigt Hill
#
# Bulk Modulus (GPa) = 50.49687 52.52881 51.51284
# Shear Modulus (GPa) = 25.02341 25.62106 25.32224
#
# Velocity S-wave (km/s) = 3.64522 3.68849 3.66692
# Velocity P-wave (km/s) = 6.67316 6.78477 6.72920
#
# Compressibility (1/GPa) = 0.01980321
#
# Stress axis : x y z
#
# Youngs Moduli (GPa) = 55.10061 67.18038 83.54391
#
# Poissons Ratio (x) = 0.31319 0.33813
# Poissons Ratio (y) = 0.25688 0.32507
# Poissons Ratio (z) = 0.22301 0.26140
#
# Static dielectric constant tensor:
#      x y z
#    x 3.189290 0.000000 0.000000 
#    y 0.000000 3.545690 0.000000 
#    z 0.000000 0.000000 3.677190 
# 
# 
# High freq. dielectric constant tensor:
#      x y z
#    x 1.709880 0.000000 0.000000 
#    y 0.000000 1.740520 0.000000 
#    z 0.000000 0.000000 1.741220 
# 
# From -- ./inp_files/31071.got.cif
#   From: 2010.03.12/outbox.cif.g09.slc.cpg/sg65_16_cif.got.tgz:31071.got - 2010.04.10 20:52:16.
