data_PCOD8269911
_publ_section_title
;
Structure prediction by ZEFSAII (Michael W. Deem and Ramdas Pophale) SiO2 
 PCOD8269911
Probable space group: C M M M
;
_chemical_formula_sum "Si O2"
_cell_formula_units_Z 80
_cell_length_a 8.814060
_cell_length_b 28.448438
_cell_length_c 20.668063
_cell_angle_alpha 90.000000
_cell_angle_beta 90.000000
_cell_angle_gamma 90.000000
_cell_volume 5182.439074
_symmetry_space_group_name_H-M "C M M M"
_symmetry_group_IT_number 65
_symmetry_cell_setting 'orthorhombic'
loop_
_space_group_symop_operation_xyz
x,y,z
-x,-y,z
x,-y,-z
-x,y,-z
-x,-y,-z
x,y,-z
-x,y,z
x,-y,z
1/2+x,1/2+y,z
1/2-x,1/2-y,z
1/2+x,1/2-y,-z
1/2-x,1/2+y,-z
1/2-x,1/2-y,-z
1/2+x,1/2+y,-z
1/2-x,1/2+y,z
1/2+x,1/2-y,z
loop_
_atom_site_type_symbol
_atom_site_label
_atom_site_fract_x
_atom_site_fract_y
_atom_site_fract_z
Si Si1 0.180363 0.552529 0.000000
Si Si2 0.179491 0.390257 0.123479
Si Si3 0.321273 0.701103 0.925727
Si Si4 0.823329 0.054889 0.239429
Si Si5 0.171252 0.943874 0.500000
Si Si6 0.170139 0.444245 0.628789
O O1 0.240953 0.578964 0.063471
O O2 0.248387 0.500000 0.000000
O O3 0.000000 0.550783 0.000000
O O4 0.255023 0.339189 0.120208
O O5 0.226332 0.415624 0.188969
O O6 0.000000 0.384473 0.120913
O O7 0.500000 0.703872 0.917267
O O8 0.250000 0.750000 0.902349
O O9 0.274327 0.690753 0.000000
O O10 0.771690 0.071452 0.310474
O O11 0.000000 0.065851 0.230827
O O12 0.787611 0.000000 0.228737
O O13 0.255518 0.923829 0.436567
O O14 0.000000 0.924821 0.500000
O O15 0.172602 0.000000 0.500000
O O16 0.165460 0.500000 0.624265
O O17 0.000000 0.424055 0.636180
#
# Coordination Sequence:
#
# PCOD8269911 Si02
#       6
#     8  16  16  16   8  16
#     4   9  18  30  44  63  86 113 148 187 222 259
#     4  11  20  32  49  67  89 116 149 186 228 273
#     4  10  20  34  52  71  91 111 139 179 227 277
#     4  10  20  32  44  61  88 121 155 190 228 269
#     4   9  15  23  37  57  81 109 142 183 226 263
#     4   9  16  26  40  58  80 110 149 188 223 262
#
# _framework density 15.436745999999999
#
# number of rings (size 3 to 8) (size 9 to 14) (size 15 to 20)
#    0.000    2.200    1.000    3.300    0.000    6.400 
#    0.000    0.000    0.000    2.400    0.000    0.000 
#    0.000    0.000    0.000    0.900    0.000   12.700 
#
# Total GULP energy -496081.923407 kJ/mol
# GULP energy per Si atom -12402.048085 kJ/mol
# Density = 1.540161 g / cm^3
# Si number density = 15.436746 Si / 1000 Ang^3
#
#
#
# Elastic Constant Matrix: (Units=GPa)
#
#
# Indices 1 2 3 4 5 6 
#
# 1 75.1072 28.8335 25.7954 0.0000 0.0000 0.0000
# 2 28.8335 71.0361 36.3715 0.0000 0.0000 0.0000
# 3 25.7954 36.3715 100.1347 0.0000 0.0000 0.0000
# 4 0.0000 0.0000 0.0000 2.5785 0.0000 0.0000
# 5 0.0000 0.0000 0.0000 0.0000 28.9287 0.0000
# 6 0.0000 0.0000 0.0000 0.0000 0.0000 20.3723
#
#
#
# Elastic Compliance Matrix: (Units=1/GPa)
#
#
# Indices 1 2 3 4 5 6 
#
# 1 0.016152 -0.005437 -0.002186 0.000000 0.000000 0.000000
# 2 -0.005437 0.019124 -0.005546 0.000000 0.000000 0.000000
# 3 -0.002186 -0.005546 0.012564 0.000000 0.000000 0.000000
# 4 0.000000 0.000000 0.000000 0.387818 0.000000 0.000000
# 5 0.000000 0.000000 0.000000 0.000000 0.034568 0.000000
# 6 0.000000 0.000000 0.000000 0.000000 0.000000 0.049086
#
#
# Mechanical properties :
#
#
# Convention : Reuss Voigt Hill
#
# Bulk Modulus (GPa) = 46.50581 47.58656 47.04619
# Shear Modulus (GPa) = 9.04459 20.72774 14.88617
#
# Velocity S-wave (km/s) = 2.42319 3.66834 3.10874
# Velocity P-wave (km/s) = 6.16614 6.98827 6.59004
#
# Compressibility (1/GPa) = 0.02150269
#
# Stress axis : x y z
#
# Youngs Moduli (GPa) = 61.91057 52.29142 79.59229
#
# Poissons Ratio (x) = 0.28430 0.17400
# Poissons Ratio (y) = 0.33660 0.44139
# Poissons Ratio (z) = 0.13535 0.28999
#
# Static dielectric constant tensor:
#      x y z
#    x 3.017530 0.000000 0.000000 
#    y 0.000000 2.652300 0.000000 
#    z 0.000000 0.000000 2.997940 
# 
# 
# High freq. dielectric constant tensor:
#      x y z
#    x 1.605770 0.000000 0.000000 
#    y 0.000000 1.543230 0.000000 
#    z 0.000000 0.000000 1.588310 
# 
# From -- ./inp_files/59644.got.cif
#   From: 2010.03.12/outbox.cif.g09.slc.cpg/sg65_30_cif.got.tgz:59644.got - 2010.04.10 20:52:16.
