data_PCOD8269933
_publ_section_title
;
Structure prediction by ZEFSAII (Michael W. Deem and Ramdas Pophale) SiO2 
 PCOD8269933
Probable space group: C M M M
;
_chemical_formula_sum "Si O2"
_cell_formula_units_Z 120
_cell_length_a 28.761651
_cell_length_b 8.867994
_cell_length_c 28.388387
_cell_angle_alpha 90.000000
_cell_angle_beta 90.000000
_cell_angle_gamma 90.000000
_cell_volume 7240.689427
_symmetry_space_group_name_H-M "C M M M"
_symmetry_group_IT_number 65
_symmetry_cell_setting 'orthorhombic'
loop_
_space_group_symop_operation_xyz
x,y,z
-x,-y,z
x,-y,-z
-x,y,-z
-x,-y,-z
x,y,-z
-x,y,z
x,-y,z
1/2+x,1/2+y,z
1/2-x,1/2-y,z
1/2+x,1/2-y,-z
1/2-x,1/2+y,-z
1/2-x,1/2-y,-z
1/2+x,1/2+y,-z
1/2-x,1/2+y,z
1/2+x,1/2-y,z
loop_
_atom_site_type_symbol
_atom_site_label
_atom_site_fract_x
_atom_site_fract_y
_atom_site_fract_z
Si Si1 0.448181 0.679003 0.137945
Si Si2 0.055500 0.329618 0.500000
Si Si3 0.202018 0.677888 0.198888
Si Si4 0.945327 0.325328 0.311039
Si Si5 0.886088 0.174027 0.947064
Si Si6 0.055196 0.169493 0.406480
Si Si7 0.890413 0.178609 0.772476
Si Si8 0.297264 0.176517 0.909376
O O1 0.500000 0.748471 0.140829
O O2 0.451133 0.500000 0.139547
O O3 0.424885 0.734457 0.089236
O O4 0.418109 0.739263 0.181767
O O5 0.074411 0.500000 0.500000
O O6 0.075153 0.245037 0.453909
O O7 0.000000 0.328959 0.500000
O O8 0.204439 0.500000 0.205921
O O9 0.250000 0.750000 0.217300
O O10 0.160079 0.745122 0.229464
O O11 0.193595 0.724405 0.144628
O O12 0.932108 0.500000 0.305332
O O13 0.928732 0.269426 0.362238
O O14 0.918916 0.225088 0.273197
O O15 0.000000 0.298463 0.304125
O O16 0.839029 0.266986 0.941577
O O17 0.874669 0.000000 0.936378
O O18 0.905309 0.196249 0.000000
O O19 0.000000 0.165132 0.409192
O O20 0.075088 0.000000 0.401764
O O21 0.884392 0.000000 0.773897
O O22 0.250000 0.250000 0.928344
O O23 0.292115 0.000000 0.914785
#
# Coordination Sequence:
#
# PCOD8269933 Si02
#       8
#    16   8  16  16  16  16  16  16
#     4   9  18  32  50  72  95 120 154 194 232 273
#     4   9  15  23  37  57  83 119 162 207 254 297
#     4  10  20  34  53  76  98 121 151 186 230 282
#     4  10  20  32  45  65  96 131 167 208 250 290
#     4  10  20  34  52  73  97 123 153 190 232 278
#     4   9  16  26  40  59  85 120 165 211 251 292
#     4  11  20  32  52  73  97 126 157 195 238 286
#     4  10  20  34  54  75  98 122 148 182 225 278
#
# _framework density 16.573007
#
# number of rings (size 3 to 8) (size 9 to 14) (size 15 to 20)
#    0.000    2.200    1.333    2.600    0.000    5.600 
#    0.000    1.333    0.000    1.200    0.000    0.933 
#    0.000    0.000    0.000    0.600    0.000    8.467 
#
# Total GULP energy -744130.451086 kJ/mol
# GULP energy per Si atom -12402.174185 kJ/mol
# Density = 1.653529 g / cm^3
# Si number density = 16.573007 Si / 1000 Ang^3
#
#
#
# Elastic Constant Matrix: (Units=GPa)
#
#
# Indices 1 2 3 4 5 6 
#
# 1 87.6263 29.5926 40.2270 0.0000 0.0000 0.0000
# 2 29.5926 70.0767 28.3314 0.0000 0.0000 0.0000
# 3 40.2270 28.3314 103.5077 0.0000 0.0000 0.0000
# 4 0.0000 0.0000 0.0000 25.4758 0.0000 0.0000
# 5 0.0000 0.0000 0.0000 0.0000 7.0347 0.0000
# 6 0.0000 0.0000 0.0000 0.0000 0.0000 21.5569
#
#
#
# Elastic Compliance Matrix: (Units=1/GPa)
#
#
# Indices 1 2 3 4 5 6 
#
# 1 0.015048 -0.004487 -0.004620 0.000000 0.000000 0.000000
# 2 -0.004487 0.017384 -0.003014 0.000000 0.000000 0.000000
# 3 -0.004620 -0.003014 0.012282 0.000000 0.000000 0.000000
# 4 0.000000 0.000000 0.000000 0.039253 0.000000 0.000000
# 5 0.000000 0.000000 0.000000 0.000000 0.142153 0.000000
# 6 0.000000 0.000000 0.000000 0.000000 0.000000 0.046389
#
#
# Mechanical properties :
#
#
# Convention : Reuss Voigt Hill
#
# Bulk Modulus (GPa) = 48.85008 50.83477 49.84243
# Shear Modulus (GPa) = 16.47038 21.68411 19.07725
#
# Velocity S-wave (km/s) = 3.15589 3.62110 3.39647
# Velocity P-wave (km/s) = 6.54364 6.94428 6.74693
#
# Compressibility (1/GPa) = 0.02047079
#
# Stress axis : x y z
#
# Youngs Moduli (GPa) = 66.45210 57.52580 81.42131
#
# Poissons Ratio (x) = 0.25811 0.37619
# Poissons Ratio (y) = 0.29816 0.24543
# Poissons Ratio (z) = 0.30703 0.17340
#
# Static dielectric constant tensor:
#      x y z
#    x 2.953610 0.000000 0.000000 
#    y 0.000000 3.088590 0.000000 
#    z 0.000000 0.000000 3.120360 
# 
# 
# High freq. dielectric constant tensor:
#      x y z
#    x 1.605230 0.000000 0.000000 
#    y 0.000000 1.641630 0.000000 
#    z 0.000000 0.000000 1.630220 
# 
# From -- ./inp_files/73900.got.cif
#   From: 2010.03.12/outbox.cif.g09.slc.cpg/sg65_37_cif.got.tgz:73900.got - 2010.04.10 20:52:16.
