data_PCOD8269106
_publ_section_title
;
Structure prediction by ZEFSAII (Michael W. Deem and Ramdas Pophale) SiO2 
 PCOD8269106
Probable space group: C M M M
;
_chemical_formula_sum "Si O2"
_cell_formula_units_Z 80
_cell_length_a 17.331062
_cell_length_b 25.100148
_cell_length_c 9.844665
_cell_angle_alpha 90.000000
_cell_angle_beta 90.000000
_cell_angle_gamma 90.000000
_cell_volume 4282.549589
_symmetry_space_group_name_H-M "C M M M"
_symmetry_group_IT_number 65
_symmetry_cell_setting 'orthorhombic'
loop_
_space_group_symop_operation_xyz
x,y,z
-x,-y,z
x,-y,-z
-x,y,-z
-x,-y,-z
x,y,-z
-x,y,z
x,-y,z
1/2+x,1/2+y,z
1/2-x,1/2-y,z
1/2+x,1/2-y,-z
1/2-x,1/2+y,-z
1/2-x,1/2-y,-z
1/2+x,1/2+y,-z
1/2-x,1/2+y,z
1/2+x,1/2-y,z
loop_
_atom_site_type_symbol
_atom_site_label
_atom_site_fract_x
_atom_site_fract_y
_atom_site_fract_z
Si Si1 0.342547 0.104021 0.158139
Si Si2 0.825710 0.216704 0.344205
Si Si3 0.701094 0.593105 0.341997
Si Si4 0.500000 0.062036 0.149873
Si Si5 0.413150 0.214075 0.152338
Si Si6 0.086570 0.000000 0.340042
O O1 0.274210 0.079866 0.248153
O O2 0.421121 0.079740 0.222244
O O3 0.350331 0.167546 0.174766
O O4 0.329963 0.087769 0.000000
O O5 0.845846 0.227936 0.500000
O O6 0.750000 0.250000 0.302162
O O7 0.820991 0.154088 0.315240
O O8 0.896319 0.237792 0.254404
O O9 0.722626 0.583787 0.500000
O O10 0.632306 0.553556 0.295658
O O11 0.500000 0.000000 0.135149
O O12 0.500000 0.089685 0.000000
O O13 0.500000 0.192387 0.178504
O O14 0.405707 0.236610 0.000000
O O15 0.077846 0.000000 0.500000
O O16 0.000000 0.000000 0.275110
#
# Coordination Sequence:
#
# PCOD8269106 Si02
#       6
#    16  16  16   8  16   8
#     4  10  19  33  54  80 111 147 184 219 263 318
#     4  10  20  34  52  79 112 142 176 221 273 326
#     4  10  21  37  58  82 109 139 180 231 277 328
#     4   9  18  32  51  77 111 149 187 220 251 308
#     4  10  20  34  52  77 110 146 182 220 265 321
#     4   9  20  40  63  82 103 140 186 231 279 329
#
# _framework density 18.680461000000001
#
# number of rings (size 3 to 8) (size 9 to 14) (size 15 to 20)
#    0.000    2.200    3.000    0.000    1.400    2.400 
#    0.000    2.500    0.000    1.800    0.000    0.000 
#    0.000    0.000    0.000    0.000    0.000    0.000 
#
# Total GULP energy -495847.893744 kJ/mol
# GULP energy per Si atom -12396.197344 kJ/mol
# Density = 1.863794 g / cm^3
# Si number density = 18.680461 Si / 1000 Ang^3
#
#
#
# Elastic Constant Matrix: (Units=GPa)
#
#
# Indices 1 2 3 4 5 6 
#
# 1 143.5755 59.6326 58.6230 0.0000 0.0000 0.0000
# 2 59.6326 105.2909 32.6498 0.0000 0.0000 0.0000
# 3 58.6230 32.6498 58.0933 0.0000 0.0000 0.0000
# 4 0.0000 0.0000 0.0000 16.4818 0.0000 0.0000
# 5 0.0000 0.0000 0.0000 0.0000 30.9976 0.0000
# 6 0.0000 0.0000 0.0000 0.0000 0.0000 32.3799
#
#
#
# Elastic Compliance Matrix: (Units=1/GPa)
#
#
# Indices 1 2 3 4 5 6 
#
# 1 0.013119 -0.004027 -0.010975 0.000000 0.000000 0.000000
# 2 -0.004027 0.012738 -0.003096 0.000000 0.000000 0.000000
# 3 -0.010975 -0.003096 0.030029 0.000000 0.000000 0.000000
# 4 0.000000 0.000000 0.000000 0.060673 0.000000 0.000000
# 5 0.000000 0.000000 0.000000 0.000000 0.032261 0.000000
# 6 0.000000 0.000000 0.000000 0.000000 0.000000 0.030883
#
#
# Mechanical properties :
#
#
# Convention : Reuss Voigt Hill
#
# Bulk Modulus (GPa) = 50.78625 67.64116 59.21370
# Shear Modulus (GPa) = 22.47586 26.37548 24.42567
#
# Velocity S-wave (km/s) = 3.47244 3.76164 3.61993
# Velocity P-wave (km/s) = 6.58202 7.42663 7.01704
#
# Compressibility (1/GPa) = 0.01969037
#
# Stress axis : x y z
#
# Youngs Moduli (GPa) = 76.22746 78.50559 33.30129
#
# Poissons Ratio (x) = 0.31611 0.36549
# Poissons Ratio (y) = 0.30693 0.10309
# Poissons Ratio (z) = 0.83661 0.24303
#
# Static dielectric constant tensor:
#      x y z
#    x 3.467020 0.000000 0.000000 
#    y 0.000000 3.404510 0.000000 
#    z 0.000000 0.000000 3.220320 
# 
# 
# High freq. dielectric constant tensor:
#      x y z
#    x 1.722800 0.000000 0.000000 
#    y 0.000000 1.727220 0.000000 
#    z 0.000000 0.000000 1.698190 
# 
# From -- ./inp_files/9752.got.cif
#   From: 2010.03.12/outbox.cif.g09.slc.cpg/sg65_5_cif.got.tgz:9752.got - 2010.04.10 20:52:16.
