data_PCOD8269724
_publ_section_title
;
Structure prediction by ZEFSAII (Michael W. Deem and Ramdas Pophale) SiO2 
 PCOD8269724
Probable space group: C M M M
;
_chemical_formula_sum "Si O2"
_cell_formula_units_Z 104
_cell_length_a 26.884835
_cell_length_b 8.834751
_cell_length_c 26.872700
_cell_angle_alpha 90.000000
_cell_angle_beta 90.000000
_cell_angle_gamma 90.000000
_cell_volume 6382.825818
_symmetry_space_group_name_H-M "C M M M"
_symmetry_group_IT_number 65
_symmetry_cell_setting 'orthorhombic'
loop_
_space_group_symop_operation_xyz
x,y,z
-x,-y,z
x,-y,-z
-x,y,-z
-x,-y,-z
x,y,-z
-x,y,z
x,-y,z
1/2+x,1/2+y,z
1/2-x,1/2-y,z
1/2+x,1/2-y,-z
1/2-x,1/2+y,-z
1/2-x,1/2-y,-z
1/2+x,1/2+y,-z
1/2-x,1/2+y,z
1/2+x,1/2-y,z
loop_
_atom_site_type_symbol
_atom_site_label
_atom_site_fract_x
_atom_site_fract_y
_atom_site_fract_z
Si Si1 0.695434 0.820810 0.000000
Si Si2 0.940939 0.169428 0.552651
Si Si3 0.799805 0.323332 0.190468
Si Si4 0.152084 0.177799 0.096870
Si Si5 0.555610 0.673927 0.845217
Si Si6 0.399075 0.174121 0.247132
Si Si7 0.443770 0.319703 0.659398
O O1 0.750000 0.750000 0.000000
O O2 0.664027 0.768419 0.952692
O O3 0.701002 0.000000 0.000000
O O4 0.924563 0.251794 0.500000
O O5 0.924268 0.244944 0.605318
O O6 0.000000 0.162029 0.555005
O O7 0.919322 0.000000 0.550509
O O8 0.793148 0.500000 0.178407
O O9 0.750000 0.250000 0.213175
O O10 0.811286 0.234477 0.139787
O O11 0.842534 0.295872 0.230901
O O12 0.095021 0.216328 0.111800
O O13 0.160419 0.000000 0.088079
O O14 0.500000 0.704827 0.865768
O O15 0.562853 0.500000 0.829507
O O16 0.563654 0.770922 0.795719
O O17 0.407014 0.261931 0.298310
O O18 0.410267 0.000000 0.256704
O O19 0.500000 0.263267 0.670599
O O20 0.442636 0.500000 0.657802
#
# Coordination Sequence:
#
# PCOD8269724 Si02
#       7
#     8  16  16  16  16  16  16
#     4  12  24  38  55  74  97 121 148 183 223 266
#     4   7  10  18  33  53  77 107 145 186 221 250
#     4  10  20  34  50  68  90 116 146 179 220 267
#     4  10  20  35  54  75  97 120 148 181 218 259
#     4   9  18  33  52  71  92 121 155 186 214 250
#     4  10  20  30  42  64  92 119 147 181 220 264
#     4   9  16  25  39  60  86 117 152 186 217 253
#
# _framework density 16.293724000000001
#
# number of rings (size 3 to 8) (size 9 to 14) (size 15 to 20)
#    0.000    2.615    0.000    4.385    0.000    4.923 
#    0.000    0.385    0.000    2.769    0.000    2.154 
#    0.000    0.615    0.000    1.385    0.000    2.154 
#
# Total GULP energy -644413.143715 kJ/mol
# GULP energy per Si atom -12392.560456 kJ/mol
# Density = 1.625664 g / cm^3
# Si number density = 16.293724 Si / 1000 Ang^3
#
#
#
# Elastic Constant Matrix: (Units=GPa)
#
#
# Indices 1 2 3 4 5 6 
#
# 1 88.4371 33.2163 48.7287 0.0000 0.0000 0.0000
# 2 33.2163 64.9058 45.5420 0.0000 0.0000 0.0000
# 3 48.7287 45.5420 140.6559 0.0000 0.0000 0.0000
# 4 0.0000 0.0000 0.0000 10.4380 0.0000 0.0000
# 5 0.0000 0.0000 0.0000 0.0000 13.9768 0.0000
# 6 0.0000 0.0000 0.0000 0.0000 0.0000 21.6202
#
#
#
# Elastic Compliance Matrix: (Units=1/GPa)
#
#
# Indices 1 2 3 4 5 6 
#
# 1 0.015269 -0.005308 -0.003571 0.000000 0.000000 0.000000
# 2 -0.005308 0.021782 -0.005213 0.000000 0.000000 0.000000
# 3 -0.003571 -0.005213 0.010035 0.000000 0.000000 0.000000
# 4 0.000000 0.000000 0.000000 0.095804 0.000000 0.000000
# 5 0.000000 0.000000 0.000000 0.000000 0.071547 0.000000
# 6 0.000000 0.000000 0.000000 0.000000 0.000000 0.046253
#
#
# Mechanical properties :
#
#
# Convention : Reuss Voigt Hill
#
# Bulk Modulus (GPa) = 52.91139 60.99700 56.95419
# Shear Modulus (GPa) = 16.93907 20.30776 18.62342
#
# Velocity S-wave (km/s) = 3.22779 3.53420 3.38447
# Velocity P-wave (km/s) = 6.81436 7.36011 7.09249
#
# Compressibility (1/GPa) = 0.01889952
#
# Stress axis : x y z
#
# Youngs Moduli (GPa) = 65.49269 45.91011 99.65404
#
# Poissons Ratio (x) = 0.24371 0.35586
# Poissons Ratio (y) = 0.34766 0.51955
# Poissons Ratio (z) = 0.23387 0.23935
#
# Static dielectric constant tensor:
#      x y z
#    x 2.962260 0.000000 0.000000 
#    y 0.000000 3.012060 0.000000 
#    z 0.000000 0.000000 3.339110 
# 
# 
# High freq. dielectric constant tensor:
#      x y z
#    x 1.599950 0.000000 0.000000 
#    y 0.000000 1.618900 0.000000 
#    z 0.000000 0.000000 1.628890 
# 
# From -- ./inp_files/71800.got.cif
#   From: 2010.03.12/outbox.cif.g09.slc.cpg/sg65_36_cif.got.tgz:71800.got - 2010.04.10 20:52:16.
