data_PCOD8269464
_publ_section_title
;
Structure prediction by ZEFSAII (Michael W. Deem and Ramdas Pophale) SiO2 
 PCOD8269464
Probable space group: C M M M
;
_chemical_formula_sum "Si O2"
_cell_formula_units_Z 80
_cell_length_a 8.641707
_cell_length_b 18.880245
_cell_length_c 25.895109
_cell_angle_alpha 90.000000
_cell_angle_beta 90.000000
_cell_angle_gamma 90.000000
_cell_volume 4224.982422
_symmetry_space_group_name_H-M "C M M M"
_symmetry_group_IT_number 65
_symmetry_cell_setting 'orthorhombic'
loop_
_space_group_symop_operation_xyz
x,y,z
-x,-y,z
x,-y,-z
-x,y,-z
-x,-y,-z
x,y,-z
-x,y,z
x,-y,z
1/2+x,1/2+y,z
1/2-x,1/2-y,z
1/2+x,1/2-y,-z
1/2-x,1/2+y,-z
1/2-x,1/2-y,-z
1/2+x,1/2+y,-z
1/2-x,1/2+y,z
1/2+x,1/2-y,z
loop_
_atom_site_type_symbol
_atom_site_label
_atom_site_fract_x
_atom_site_fract_y
_atom_site_fract_z
Si Si1 0.818150 0.826838 0.500000
Si Si2 0.682904 0.672155 0.388706
Si Si3 0.316159 0.674119 0.093947
Si Si4 0.316138 0.420994 0.000000
Si Si5 0.182336 0.674258 0.203720
Si Si6 0.818326 0.917777 0.707794
O O1 0.750000 0.750000 0.500000
O O2 0.765876 0.861325 0.445026
O O3 0.000000 0.820814 0.500000
O O4 0.500000 0.679511 0.386004
O O5 0.750000 0.750000 0.379078
O O6 0.742023 0.618946 0.344740
O O7 0.500000 0.678501 0.096700
O O8 0.250000 0.750000 0.077956
O O9 0.257262 0.618614 0.051282
O O10 0.251886 0.649584 0.149150
O O11 0.246463 0.500000 0.000000
O O12 0.500000 0.423053 0.000000
O O13 0.250000 0.750000 0.221259
O O14 0.225046 0.614695 0.244785
O O15 0.000000 0.682038 0.198508
O O16 0.000000 0.905050 0.716489
O O17 0.777488 0.000000 0.703789
#
# Coordination Sequence:
#
# PCOD8269464 Si02
#       6
#     8  16  16   8  16  16
#     4   8  14  26  45  71  99 125 161 208 255 300
#     4   9  17  30  50  74  99 130 168 211 256 304
#     4  10  19  34  57  81 106 136 171 212 256 303
#     4   9  19  34  53  79 108 139 174 208 248 301
#     4  11  22  37  57  80 105 134 174 219 263 310
#     4  10  21  36  52  73 104 140 175 212 259 312
#
# _framework density 18.934989999999999
#
# number of rings (size 3 to 8) (size 9 to 14) (size 15 to 20)
#    0.000    2.300    0.000    4.500    0.000    3.600 
#    0.000    4.000    0.000    7.200    0.000    0.000 
#    0.000    9.600    0.000    0.000    0.000    0.000 
#
# Total GULP energy -495804.384451 kJ/mol
# GULP energy per Si atom -12395.109611 kJ/mol
# Density = 1.889189 g / cm^3
# Si number density = 18.934990 Si / 1000 Ang^3
#
#
#
# Elastic Constant Matrix: (Units=GPa)
#
#
# Indices 1 2 3 4 5 6 
#
# 1 65.0553 32.8748 42.7275 0.0000 0.0000 0.0000
# 2 32.8748 119.9934 99.2340 0.0000 0.0000 0.0000
# 3 42.7275 99.2340 179.0334 0.0000 0.0000 0.0000
# 4 0.0000 0.0000 0.0000 6.8755 0.0000 0.0000
# 5 0.0000 0.0000 0.0000 0.0000 11.0631 0.0000
# 6 0.0000 0.0000 0.0000 0.0000 0.0000 23.7045
#
#
#
# Elastic Compliance Matrix: (Units=1/GPa)
#
#
# Indices 1 2 3 4 5 6 
#
# 1 0.018671 -0.002641 -0.002992 0.000000 0.000000 0.000000
# 2 -0.002641 0.015760 -0.008105 0.000000 0.000000 0.000000
# 3 -0.002992 -0.008105 0.010792 0.000000 0.000000 0.000000
# 4 0.000000 0.000000 0.000000 0.145445 0.000000 0.000000
# 5 0.000000 0.000000 0.000000 0.000000 0.090390 0.000000
# 6 0.000000 0.000000 0.000000 0.000000 0.000000 0.042186
#
#
# Mechanical properties :
#
#
# Convention : Reuss Voigt Hill
#
# Bulk Modulus (GPa) = 56.34730 79.30611 67.82670
# Shear Modulus (GPa) = 14.01981 20.94499 17.48240
#
# Velocity S-wave (km/s) = 2.72401 3.32950 3.04186
# Velocity P-wave (km/s) = 6.30211 7.53359 6.94520
#
# Compressibility (1/GPa) = 0.01774708
#
# Stress axis : x y z
#
# Youngs Moduli (GPa) = 53.55804 63.45006 92.65852
#
# Poissons Ratio (x) = 0.16756 0.27726
# Poissons Ratio (y) = 0.14144 0.75103
# Poissons Ratio (z) = 0.16026 0.51429
#
# Static dielectric constant tensor:
#      x y z
#    x 4.912930 0.000000 0.000000 
#    y 0.000000 3.366710 0.000000 
#    z 0.000000 0.000000 4.053840 
# 
# 
# High freq. dielectric constant tensor:
#      x y z
#    x 1.725310 0.000000 0.000000 
#    y 0.000000 1.713890 0.000000 
#    z 0.000000 0.000000 1.760840 
# 
# From -- ./inp_files/72948.got.cif
#   From: 2010.03.12/outbox.cif.g09.slc.cpg/sg65_37_cif.got.tgz:72948.got - 2010.04.10 20:52:16.
