data_PCOD8269399
_publ_section_title
;
Structure prediction by ZEFSAII (Michael W. Deem and Ramdas Pophale) SiO2 
 PCOD8269399
Probable space group: C M M M
;
_chemical_formula_sum "Si O2"
_cell_formula_units_Z 96
_cell_length_a 14.412979
_cell_length_b 32.324433
_cell_length_c 11.471271
_cell_angle_alpha 90.000000
_cell_angle_beta 90.000000
_cell_angle_gamma 90.000000
_cell_volume 5344.366208
_symmetry_space_group_name_H-M "C M M M"
_symmetry_group_IT_number 65
_symmetry_cell_setting 'orthorhombic'
loop_
_space_group_symop_operation_xyz
x,y,z
-x,-y,z
x,-y,-z
-x,y,-z
-x,-y,-z
x,y,-z
-x,y,z
x,-y,z
1/2+x,1/2+y,z
1/2-x,1/2-y,z
1/2+x,1/2-y,-z
1/2-x,1/2+y,-z
1/2-x,1/2-y,-z
1/2+x,1/2+y,-z
1/2-x,1/2+y,z
1/2+x,1/2-y,z
loop_
_atom_site_type_symbol
_atom_site_label
_atom_site_fract_x
_atom_site_fract_y
_atom_site_fract_z
Si Si1 0.397115 0.850677 0.000000
Si Si2 0.610123 0.412699 0.225342
Si Si3 0.101444 0.321685 0.256346
Si Si4 0.210709 0.845886 0.636992
Si Si5 0.390808 0.500000 0.866594
Si Si6 0.150145 0.765429 0.768106
Si Si7 0.702958 0.623076 0.000000
Si Si8 0.902546 0.800066 0.000000
O O1 0.385373 0.823233 0.116143
O O2 0.314075 0.885436 0.000000
O O3 0.500000 0.872017 0.000000
O O4 0.500000 0.407495 0.237878
O O5 0.659846 0.389327 0.332599
O O6 0.639508 0.460783 0.211987
O O7 0.648104 0.392216 0.110119
O O8 0.183329 0.347872 0.316785
O O9 0.103866 0.273623 0.298699
O O10 0.000000 0.339959 0.291779
O O11 0.211767 0.840484 0.500000
O O12 0.154231 0.806917 0.689695
O O13 0.500000 0.500000 0.884434
O O14 0.347733 0.500000 0.000000
O O15 0.250000 0.750000 0.806615
O O16 0.092890 0.772513 0.884813
O O17 0.690453 0.672618 0.000000
O O18 0.000000 0.825898 0.000000
#
# Coordination Sequence:
#
# PCOD8269399 Si02
#       8
#     8  16  16  16   8  16   8   8
#     4  10  19  34  55  83 112 139 172 221 284 334
#     4  11  21  36  57  85 116 141 172 214 266 324
#     4  10  20  35  55  79 107 141 184 233 282 325
#     4  11  24  39  53  72 105 149 196 233 263 307
#     4   9  18  32  57  91 117 136 162 205 264 336
#     4  10  20  33  50  73 104 142 182 229 279 324
#     4  12  18  31  55  86 110 141 171 215 265 334
#     4  12  20  28  48  79 108 134 174 224 280 337
#
# _framework density 17.962841000000001
#
# number of rings (size 3 to 8) (size 9 to 14) (size 15 to 20)
#    0.000    1.417    4.167    3.000    0.000    5.000 
#    0.000    0.417    0.000    1.500    0.000    2.917 
#    0.000    1.333    0.000    0.000    0.000    0.000 
#
# Total GULP energy -594669.419813 kJ/mol
# GULP energy per Si atom -12388.946246 kJ/mol
# Density = 1.792196 g / cm^3
# Si number density = 17.962841 Si / 1000 Ang^3
#
#
#
# Elastic Constant Matrix: (Units=GPa)
#
#
# Indices 1 2 3 4 5 6 
#
# 1 115.5540 42.3183 38.1006 0.0000 0.0000 0.0000
# 2 42.3183 98.6128 32.5115 0.0000 0.0000 0.0000
# 3 38.1006 32.5115 104.6428 0.0000 0.0000 0.0000
# 4 0.0000 0.0000 0.0000 4.2939 0.0000 0.0000
# 5 0.0000 0.0000 0.0000 0.0000 5.5741 0.0000
# 6 0.0000 0.0000 0.0000 0.0000 0.0000 18.7844
#
#
#
# Elastic Compliance Matrix: (Units=1/GPa)
#
#
# Indices 1 2 3 4 5 6 
#
# 1 0.010967 -0.003777 -0.002820 0.000000 0.000000 0.000000
# 2 -0.003777 0.012598 -0.002539 0.000000 0.000000 0.000000
# 3 -0.002820 -0.002539 0.011372 0.000000 0.000000 0.000000
# 4 0.000000 0.000000 0.000000 0.232886 0.000000 0.000000
# 5 0.000000 0.000000 0.000000 0.000000 0.179402 0.000000
# 6 0.000000 0.000000 0.000000 0.000000 0.000000 0.053236
#
#
# Mechanical properties :
#
#
# Convention : Reuss Voigt Hill
#
# Bulk Modulus (GPa) = 60.00156 60.51893 60.26024
# Shear Modulus (GPa) = 9.53676 19.45576 14.49626
#
# Velocity S-wave (km/s) = 2.30666 3.29464 2.84388
# Velocity P-wave (km/s) = 6.36945 6.94530 6.66360
#
# Compressibility (1/GPa) = 0.01666623
#
# Stress axis : x y z
#
# Youngs Moduli (GPa) = 91.18479 79.37462 87.93648
#
# Poissons Ratio (x) = 0.29977 0.24795
# Poissons Ratio (y) = 0.34437 0.22328
# Poissons Ratio (z) = 0.25711 0.20154
#
# Static dielectric constant tensor:
#      x y z
#    x 3.658730 0.000000 0.000000 
#    y 0.000000 3.442860 0.000000 
#    z 0.000000 0.000000 3.126980 
# 
# 
# High freq. dielectric constant tensor:
#      x y z
#    x 1.703400 0.000000 0.000000 
#    y 0.000000 1.663610 0.000000 
#    z 0.000000 0.000000 1.676270 
# 
# From -- ./inp_files/25517.got.cif
#   From: 2010.03.12/outbox.cif.g09.slc.cpg/sg65_13_cif.got.tgz:25517.got - 2010.04.10 20:52:16.
