data_PCOD8269121
_publ_section_title
;
Structure prediction by ZEFSAII (Michael W. Deem and Ramdas Pophale) SiO2 
 PCOD8269121
Probable space group: C M M M
;
_chemical_formula_sum "Si O2"
_cell_formula_units_Z 80
_cell_length_a 13.804335
_cell_length_b 13.796103
_cell_length_c 22.021818
_cell_angle_alpha 90.000000
_cell_angle_beta 90.000000
_cell_angle_gamma 90.000000
_cell_volume 4193.967757
_symmetry_space_group_name_H-M "C M M M"
_symmetry_group_IT_number 65
_symmetry_cell_setting 'orthorhombic'
loop_
_space_group_symop_operation_xyz
x,y,z
-x,-y,z
x,-y,-z
-x,y,-z
-x,-y,-z
x,y,-z
-x,y,z
x,-y,z
1/2+x,1/2+y,z
1/2-x,1/2-y,z
1/2+x,1/2-y,-z
1/2-x,1/2+y,-z
1/2-x,1/2-y,-z
1/2+x,1/2+y,-z
1/2-x,1/2+y,z
1/2+x,1/2-y,z
loop_
_atom_site_type_symbol
_atom_site_label
_atom_site_fract_x
_atom_site_fract_y
_atom_site_fract_z
Si Si1 0.784588 0.613422 0.685605
Si Si2 0.110164 0.215943 0.738483
Si Si3 0.391869 0.114689 0.566751
Si Si4 0.288459 0.889984 0.070676
Si Si5 0.109708 0.210754 0.879152
O O1 0.801173 0.500000 0.697265
O O2 0.852470 0.673543 0.731722
O O3 0.673038 0.642539 0.697060
O O4 0.814270 0.646638 0.617467
O O5 0.121168 0.186437 0.808390
O O6 0.000000 0.207301 0.716380
O O7 0.360452 0.154194 0.500000
O O8 0.500000 0.153683 0.583126
O O9 0.395897 0.000000 0.564654
O O10 0.176816 0.862184 0.083044
O O11 0.359769 0.821973 0.109105
O O12 0.307081 0.000000 0.091110
O O13 0.310527 0.875310 0.000000
O O14 0.000000 0.195143 0.900967
#
# Coordination Sequence:
#
# PCOD8269121 Si02
#       5
#    16  16  16  16  16
#     4  10  19  33  55  76  99 136 174 210 256 306
#     4  10  22  36  50  76 108 134 170 216 255 300
#     4   8  14  26  47  76 105 132 168 213 257 303
#     4  10  21  36  55  80 106 131 166 213 258 302
#     4  10  21  37  55  74 103 141 172 205 254 307
#
# _framework density 19.075016000000002
#
# number of rings (size 3 to 8) (size 9 to 14) (size 15 to 20)
#    0.000    2.400    0.000    4.800    0.000    7.200 
#    0.000    8.000    0.000    1.800    0.000    2.800 
#    0.000    0.000    0.000    0.000    0.000    0.000 
#
# Total GULP energy -495874.803230 kJ/mol
# GULP energy per Si atom -12396.870081 kJ/mol
# Density = 1.903160 g / cm^3
# Si number density = 19.075016 Si / 1000 Ang^3
#
#
#
# Elastic Constant Matrix: (Units=GPa)
#
#
# Indices 1 2 3 4 5 6 
#
# 1 104.0117 -0.7552 33.6140 0.0000 0.0000 0.0000
# 2 -0.7552 53.8355 15.7080 0.0000 0.0000 0.0000
# 3 33.6140 15.7080 62.3974 0.0000 0.0000 0.0000
# 4 0.0000 0.0000 0.0000 24.1499 0.0000 0.0000
# 5 0.0000 0.0000 0.0000 0.0000 21.5029 0.0000
# 6 0.0000 0.0000 0.0000 0.0000 0.0000 15.0645
#
#
#
# Elastic Compliance Matrix: (Units=1/GPa)
#
#
# Indices 1 2 3 4 5 6 
#
# 1 0.011876 0.002195 -0.006950 0.000000 0.000000 0.000000
# 2 0.002195 0.020453 -0.006331 0.000000 0.000000 0.000000
# 3 -0.006950 -0.006331 0.021364 0.000000 0.000000 0.000000
# 4 0.000000 0.000000 0.000000 0.041408 0.000000 0.000000
# 5 0.000000 0.000000 0.000000 0.000000 0.046505 0.000000
# 6 0.000000 0.000000 0.000000 0.000000 0.000000 0.066381
#
#
# Mechanical properties :
#
#
# Convention : Reuss Voigt Hill
#
# Bulk Modulus (GPa) = 31.72583 35.26422 33.49502
# Shear Modulus (GPa) = 20.77543 23.58867 22.18205
#
# Velocity S-wave (km/s) = 3.30380 3.52038 3.41381
# Velocity P-wave (km/s) = 5.58764 5.92042 5.75643
#
# Compressibility (1/GPa) = 0.03152006
#
# Stress axis : x y z
#
# Youngs Moduli (GPa) = 84.20041 48.89214 46.80701
#
# Poissons Ratio (x) = -0.10730 0.32533
# Poissons Ratio (y) = -0.18478 0.29634
# Poissons Ratio (z) = 0.58522 0.30954
#
# Static dielectric constant tensor:
#      x y z
#    x 3.567520 0.000000 0.000000 
#    y 0.000000 3.297760 0.000000 
#    z 0.000000 0.000000 3.702280 
# 
# 
# High freq. dielectric constant tensor:
#      x y z
#    x 1.739310 0.000000 0.000000 
#    y 0.000000 1.720180 0.000000 
#    z 0.000000 0.000000 1.747330 
# 
# From -- ./inp_files/62397.got.cif
#   From: 2010.03.12/outbox.cif.g09.slc.cpg/sg65_32_cif.got.tgz:62397.got - 2010.04.10 20:52:16.
