data_PCOD8269018
_publ_section_title
;
Structure prediction by ZEFSAII (Michael W. Deem and Ramdas Pophale) SiO2 
 PCOD8269018
Probable space group: C M M M
;
_chemical_formula_sum "Si O2"
_cell_formula_units_Z 104
_cell_length_a 23.471575
_cell_length_b 8.903747
_cell_length_c 28.134353
_cell_angle_alpha 90.000000
_cell_angle_beta 90.000000
_cell_angle_gamma 90.000000
_cell_volume 5879.656791
_symmetry_space_group_name_H-M "C M M M"
_symmetry_group_IT_number 65
_symmetry_cell_setting 'orthorhombic'
loop_
_space_group_symop_operation_xyz
x,y,z
-x,-y,z
x,-y,-z
-x,y,-z
-x,-y,-z
x,y,-z
-x,y,z
x,-y,z
1/2+x,1/2+y,z
1/2-x,1/2-y,z
1/2+x,1/2-y,-z
1/2-x,1/2+y,-z
1/2-x,1/2-y,-z
1/2+x,1/2+y,-z
1/2-x,1/2+y,z
1/2+x,1/2-y,z
loop_
_atom_site_type_symbol
_atom_site_label
_atom_site_fract_x
_atom_site_fract_y
_atom_site_fract_z
Si Si1 0.189278 0.824254 0.225524
Si Si2 0.000000 0.677368 0.827685
Si Si3 0.500000 0.178886 0.718414
Si Si4 0.308393 0.323948 0.053526
Si Si5 0.812588 0.322346 0.603388
Si Si6 0.191099 0.671081 0.500000
Si Si7 0.612933 0.676869 0.861627
Si Si8 0.385394 0.678152 0.684726
O O1 0.250000 0.750000 0.228078
O O2 0.156155 0.768099 0.179013
O O3 0.153700 0.774308 0.271191
O O4 0.198919 0.000000 0.223903
O O5 0.054142 0.737080 0.856109
O O6 0.000000 0.500000 0.828929
O O7 0.000000 0.735378 0.773205
O O8 0.554015 0.244074 0.691065
O O9 0.500000 0.000000 0.715422
O O10 0.298171 0.500000 0.056092
O O11 0.250000 0.250000 0.071531
O O12 0.360267 0.277037 0.087664
O O13 0.323538 0.271009 0.000000
O O14 0.808375 0.500000 0.614633
O O15 0.750000 0.250000 0.609281
O O16 0.839480 0.291425 0.550308
O O17 0.856750 0.241466 0.637552
O O18 0.208078 0.500000 0.500000
O O19 0.250000 0.750000 0.500000
O O20 0.601178 0.500000 0.857597
O O21 0.393268 0.500000 0.681122
#
# Coordination Sequence:
#
# PCOD8269018 Si02
#       8
#    16   8   8  16  16   8  16  16
#     4  10  21  33  49  74 104 137 170 207 257 313
#     4  11  23  37  56  80 102 133 180 226 265 309
#     4  11  23  39  57  77 101 137 180 226 268 315
#     4   9  18  33  55  82 109 139 176 216 262 315
#     4  10  19  33  53  80 112 145 181 221 267 316
#     4   8  16  30  50  75 106 143 180 218 262 314
#     4  10  20  36  55  75 104 142 177 215 262 314
#     4  11  22  36  54  77 106 141 178 218 265 321
#
# _framework density 17.688108
#
# number of rings (size 3 to 8) (size 9 to 14) (size 15 to 20)
#    0.000    2.000    1.538    2.308    0.000    4.923 
#    0.000    0.385    0.000    2.769    0.000    3.231 
#    0.000    0.000    0.000    0.000    0.000    0.000 
#
# Total GULP energy -644707.993209 kJ/mol
# GULP energy per Si atom -12398.230639 kJ/mol
# Density = 1.764785 g / cm^3
# Si number density = 17.688108 Si / 1000 Ang^3
#
#
#
# Elastic Constant Matrix: (Units=GPa)
#
#
# Indices 1 2 3 4 5 6 
#
# 1 145.8599 48.9165 74.8175 0.0000 0.0000 0.0000
# 2 48.9165 54.5768 45.9264 0.0000 0.0000 0.0000
# 3 74.8175 45.9264 136.3204 0.0000 0.0000 0.0000
# 4 0.0000 0.0000 0.0000 23.8426 0.0000 0.0000
# 5 0.0000 0.0000 0.0000 0.0000 27.2438 0.0000
# 6 0.0000 0.0000 0.0000 0.0000 0.0000 31.8392
#
#
#
# Elastic Compliance Matrix: (Units=1/GPa)
#
#
# Indices 1 2 3 4 5 6 
#
# 1 0.011059 -0.006706 -0.003811 0.000000 0.000000 0.000000
# 2 -0.006706 0.029639 -0.006305 0.000000 0.000000 0.000000
# 3 -0.003811 -0.006305 0.011551 0.000000 0.000000 0.000000
# 4 0.000000 0.000000 0.000000 0.041942 0.000000 0.000000
# 5 0.000000 0.000000 0.000000 0.000000 0.036706 0.000000
# 6 0.000000 0.000000 0.000000 0.000000 0.000000 0.031408
#
#
# Mechanical properties :
#
#
# Convention : Reuss Voigt Hill
#
# Bulk Modulus (GPa) = 53.74413 75.11977 64.43195
# Shear Modulus (GPa) = 24.73419 27.72491 26.22955
#
# Velocity S-wave (km/s) = 3.74351 3.96338 3.85501
# Velocity P-wave (km/s) = 7.00967 7.96905 7.50470
#
# Compressibility (1/GPa) = 0.01860668
#
# Stress axis : x y z
#
# Youngs Moduli (GPa) = 90.42078 33.73962 86.57110
#
# Poissons Ratio (x) = 0.22625 0.32989
# Poissons Ratio (y) = 0.60634 0.54583
# Poissons Ratio (z) = 0.34456 0.21273
#
# Static dielectric constant tensor:
#      x y z
#    x 3.116400 0.000000 0.000000 
#    y 0.000000 3.292590 0.000000 
#    z 0.000000 0.000000 3.651340 
# 
# 
# High freq. dielectric constant tensor:
#      x y z
#    x 1.671200 0.000000 0.000000 
#    y 0.000000 1.688890 0.000000 
#    z 0.000000 0.000000 1.694970 
# 
# From -- ./inp_files/75815.got.cif
#   From: 2010.03.12/outbox.cif.g09.slc.cpg/sg65_38_cif.got.tgz:75815.got - 2010.04.10 20:52:16.
