data_PCOD8269575
_publ_section_title
;
Structure prediction by ZEFSAII (Michael W. Deem and Ramdas Pophale) SiO2 
 PCOD8269575
Probable space group: C M M M
;
_chemical_formula_sum "Si O2"
_cell_formula_units_Z 120
_cell_length_a 27.815695
_cell_length_b 9.005260
_cell_length_c 26.321092
_cell_angle_alpha 90.000000
_cell_angle_beta 90.000000
_cell_angle_gamma 90.000000
_cell_volume 6593.106258
_symmetry_space_group_name_H-M "C M M M"
_symmetry_group_IT_number 65
_symmetry_cell_setting 'orthorhombic'
loop_
_space_group_symop_operation_xyz
x,y,z
-x,-y,z
x,-y,-z
-x,y,-z
-x,-y,-z
x,y,-z
-x,y,z
x,-y,z
1/2+x,1/2+y,z
1/2-x,1/2-y,z
1/2+x,1/2-y,-z
1/2-x,1/2+y,-z
1/2-x,1/2-y,-z
1/2+x,1/2+y,-z
1/2-x,1/2+y,z
1/2+x,1/2-y,z
loop_
_atom_site_type_symbol
_atom_site_label
_atom_site_fract_x
_atom_site_fract_y
_atom_site_fract_z
Si Si1 0.946005 0.673074 0.760150
Si Si2 0.603001 0.325693 0.851765
Si Si3 0.200731 0.825479 0.200768
Si Si4 0.699181 0.324125 0.500000
Si Si5 0.054910 0.672634 0.941781
Si Si6 0.350214 0.173519 0.594224
Si Si7 0.948658 0.324778 0.556353
Si Si8 0.651223 0.827136 0.708595
O O1 0.944288 0.500000 0.772765
O O2 0.934618 0.756765 0.812300
O O3 0.905177 0.713813 0.718289
O O4 0.000000 0.717575 0.741148
O O5 0.595874 0.500000 0.850212
O O6 0.657960 0.282314 0.837991
O O7 0.591630 0.266002 0.907703
O O8 0.250000 0.750000 0.181888
O O9 0.186554 0.768408 0.256658
O O10 0.209064 0.000000 0.203686
O O11 0.703110 0.500000 0.500000
O O12 0.750000 0.250000 0.500000
O O13 0.674516 0.273297 0.448008
O O14 0.061863 0.500000 0.929731
O O15 0.000000 0.719916 0.930458
O O16 0.067876 0.707270 0.000000
O O17 0.406449 0.218947 0.594544
O O18 0.332797 0.210021 0.650985
O O19 0.342520 0.000000 0.580602
O O20 0.937110 0.261789 0.500000
O O21 0.952477 0.500000 0.552805
O O22 0.000000 0.260437 0.575849
O O23 0.659457 0.000000 0.720576
#
# Coordination Sequence:
#
# PCOD8269575 Si02
#       8
#    16  16  16   8  16  16  16  16
#     4   9  17  30  48  73 107 143 176 208 244 292
#     4  10  20  32  49  76 105 136 176 220 264 306
#     4  10  21  37  56  76 100 130 168 216 264 314
#     4  12  26  42  59  76  95 123 160 201 249 304
#     4   9  18  32  50  75 109 148 185 217 252 297
#     4  10  19  35  57  79 105 132 163 203 245 294
#     4   8  13  23  45  76 103 128 159 194 231 272
#     4   9  19  33  52  78 105 134 165 203 251 299
#
# _framework density 18.20083
#
# number of rings (size 3 to 8) (size 9 to 14) (size 15 to 20)
#    0.000    2.533    0.667    2.600    0.000    5.600 
#    0.000    3.333    0.000    1.200    0.000    1.867 
#    0.000    0.000    0.000    0.000    0.000    0.000 
#
# Total GULP energy -743689.737198 kJ/mol
# GULP energy per Si atom -12394.828953 kJ/mol
# Density = 1.815940 g / cm^3
# Si number density = 18.200830 Si / 1000 Ang^3
#
#
#
# Elastic Constant Matrix: (Units=GPa)
#
#
# Indices 1 2 3 4 5 6 
#
# 1 105.5267 42.4452 44.6188 0.0000 0.0000 0.0000
# 2 42.4452 65.0576 41.1572 0.0000 0.0000 0.0000
# 3 44.6188 41.1572 97.3778 0.0000 0.0000 0.0000
# 4 0.0000 0.0000 0.0000 19.6543 0.0000 0.0000
# 5 0.0000 0.0000 0.0000 0.0000 14.5135 0.0000
# 6 0.0000 0.0000 0.0000 0.0000 0.0000 24.4567
#
#
#
# Elastic Compliance Matrix: (Units=1/GPa)
#
#
# Indices 1 2 3 4 5 6 
#
# 1 0.013622 -0.006741 -0.003392 0.000000 0.000000 0.000000
# 2 -0.006741 0.024317 -0.007189 0.000000 0.000000 0.000000
# 3 -0.003392 -0.007189 0.014862 0.000000 0.000000 0.000000
# 4 0.000000 0.000000 0.000000 0.050879 0.000000 0.000000
# 5 0.000000 0.000000 0.000000 0.000000 0.068901 0.000000
# 6 0.000000 0.000000 0.000000 0.000000 0.000000 0.040889
#
#
# Mechanical properties :
#
#
# Convention : Reuss Voigt Hill
#
# Bulk Modulus (GPa) = 55.07781 58.26716 56.67249
# Shear Modulus (GPa) = 19.67204 21.04097 20.35651
#
# Velocity S-wave (km/s) = 3.29117 3.40375 3.34793
# Velocity P-wave (km/s) = 6.69098 6.89423 6.79336
#
# Compressibility (1/GPa) = 0.01815613
#
# Stress axis : x y z
#
# Youngs Moduli (GPa) = 73.40974 41.12351 67.28520
#
# Poissons Ratio (x) = 0.27722 0.22826
# Poissons Ratio (y) = 0.49487 0.48370
# Poissons Ratio (z) = 0.24904 0.29563
#
# Static dielectric constant tensor:
#      x y z
#    x 3.457460 0.000000 0.000000 
#    y 0.000000 3.182350 0.000000 
#    z 0.000000 0.000000 3.246440 
# 
# 
# High freq. dielectric constant tensor:
#      x y z
#    x 1.708150 0.000000 0.000000 
#    y 0.000000 1.686550 0.000000 
#    z 0.000000 0.000000 1.692780 
# 
# From -- ./inp_files/76097.got.cif
#   From: 2010.03.12/outbox.cif.g09.slc.cpg/sg65_39_cif.got.tgz:76097.got - 2010.04.10 20:52:16.
