data_PCOD8269130
_publ_section_title
;
Structure prediction by ZEFSAII (Michael W. Deem and Ramdas Pophale) SiO2 
 PCOD8269130
Probable space group: C M M M
;
_chemical_formula_sum "Si O2"
_cell_formula_units_Z 88
_cell_length_a 36.085254
_cell_length_b 9.614098
_cell_length_c 14.185502
_cell_angle_alpha 90.000000
_cell_angle_beta 90.000000
_cell_angle_gamma 90.000000
_cell_volume 4921.336040
_symmetry_space_group_name_H-M "C M M M"
_symmetry_group_IT_number 65
_symmetry_cell_setting 'orthorhombic'
loop_
_space_group_symop_operation_xyz
x,y,z
-x,-y,z
x,-y,-z
-x,y,-z
-x,-y,-z
x,y,-z
-x,y,z
x,-y,z
1/2+x,1/2+y,z
1/2-x,1/2-y,z
1/2+x,1/2-y,-z
1/2-x,1/2+y,-z
1/2-x,1/2-y,-z
1/2+x,1/2+y,-z
1/2-x,1/2+y,z
1/2+x,1/2-y,z
loop_
_atom_site_type_symbol
_atom_site_label
_atom_site_fract_x
_atom_site_fract_y
_atom_site_fract_z
Si Si1 0.176988 0.340551 0.604942
Si Si2 0.000000 0.165258 0.106827
Si Si3 0.074816 0.837975 0.798318
Si Si4 0.605923 0.340834 0.395518
Si Si5 0.715434 0.839654 0.208366
Si Si6 0.860565 0.339949 0.110696
O O1 0.192063 0.305994 0.500000
O O2 0.164074 0.500000 0.613029
O O3 0.141342 0.250316 0.630061
O O4 0.209073 0.309687 0.680377
O O5 0.036201 0.221095 0.161297
O O6 0.000000 0.000000 0.107004
O O7 0.000000 0.223119 0.000000
O O8 0.074896 0.815166 0.684726
O O9 0.108100 0.755737 0.845371
O O10 0.079674 0.000000 0.824069
O O11 0.590096 0.302865 0.500000
O O12 0.619264 0.500000 0.393327
O O13 0.750000 0.750000 0.172386
O O14 0.679137 0.793693 0.151036
O O15 0.724913 0.000000 0.189264
O O16 0.868677 0.500000 0.137705
O O17 0.860059 0.316684 0.000000
#
# Coordination Sequence:
#
# PCOD8269130 Si02
#       6
#    16   8  16  16  16  16
#     4   9  17  31  51  73  98 131 169 206 250 305
#     4   9  18  32  50  76 108 137 169 213 258 297
#     4  10  19  33  55  79 104 136 173 209 250 304
#     4   9  17  29  48  76 105 131 165 209 252 296
#     4  10  21  35  50  72 102 133 168 210 256 304
#     4  10  21  37  55  75 101 133 170 215 263 305
#
# _framework density 17.881322999999998
#
# number of rings (size 3 to 8) (size 9 to 14) (size 15 to 20)
#    0.000    2.455    1.818    0.545    0.000    3.273 
#    0.000    0.909    0.000    4.364    0.000    0.000 
#    0.000    4.364    0.000    0.000    0.000    0.000 
#
# Total GULP energy -545502.919101 kJ/mol
# GULP energy per Si atom -12397.793616 kJ/mol
# Density = 1.784062 g / cm^3
# Si number density = 17.881323 Si / 1000 Ang^3
#
#
#
# Elastic Constant Matrix: (Units=GPa)
#
#
# Indices 1 2 3 4 5 6 
#
# 1 139.9961 55.9147 68.6540 0.0000 0.0000 0.0000
# 2 55.9147 52.3472 37.4981 0.0000 0.0000 0.0000
# 3 68.6540 37.4981 96.5864 0.0000 0.0000 0.0000
# 4 0.0000 0.0000 0.0000 21.1183 0.0000 0.0000
# 5 0.0000 0.0000 0.0000 0.0000 22.4578 0.0000
# 6 0.0000 0.0000 0.0000 0.0000 0.0000 22.7847
#
#
#
# Elastic Compliance Matrix: (Units=1/GPa)
#
#
# Indices 1 2 3 4 5 6 
#
# 1 0.014590 -0.011297 -0.005985 0.000000 0.000000 0.000000
# 2 -0.011297 0.035211 -0.005640 0.000000 0.000000 0.000000
# 3 -0.005985 -0.005640 0.016797 0.000000 0.000000 0.000000
# 4 0.000000 0.000000 0.000000 0.047352 0.000000 0.000000
# 5 0.000000 0.000000 0.000000 0.000000 0.044528 0.000000
# 6 0.000000 0.000000 0.000000 0.000000 0.000000 0.043889
#
#
# Mechanical properties :
#
#
# Convention : Reuss Voigt Hill
#
# Bulk Modulus (GPa) = 48.18358 68.11814 58.15086
# Shear Modulus (GPa) = 19.59796 21.72968 20.66382
#
# Velocity S-wave (km/s) = 3.31418 3.48978 3.40311
# Velocity P-wave (km/s) = 6.45367 7.37668 6.93056
#
# Compressibility (1/GPa) = 0.02075396
#
# Stress axis : x y z
#
# Youngs Moduli (GPa) = 68.53926 28.40059 59.53495
#
# Poissons Ratio (x) = 0.32086 0.35630
# Poissons Ratio (y) = 0.77432 0.33576
# Poissons Ratio (z) = 0.41019 0.16017
#
# Static dielectric constant tensor:
#      x y z
#    x 3.142240 0.000000 0.000000 
#    y 0.000000 3.233780 0.000000 
#    z 0.000000 0.000000 3.701890 
# 
# 
# High freq. dielectric constant tensor:
#      x y z
#    x 1.668310 0.000000 0.000000 
#    y 0.000000 1.680200 0.000000 
#    z 0.000000 0.000000 1.711790 
# 
# From -- ./inp_files/46758.got.cif
#   From: 2010.03.12/outbox.cif.g09.slc.cpg/sg65_24_cif.got.tgz:46758.got - 2010.04.10 20:52:16.
