data_PCOD8269986
_publ_section_title
;
Structure prediction by ZEFSAII (Michael W. Deem and Ramdas Pophale) SiO2 
 PCOD8269986
Probable space group: C M M M
;
_chemical_formula_sum "Si O2"
_cell_formula_units_Z 72
_cell_length_a 30.476080
_cell_length_b 14.393880
_cell_length_c 9.402837
_cell_angle_alpha 90.000000
_cell_angle_beta 90.000000
_cell_angle_gamma 90.000000
_cell_volume 4124.733465
_symmetry_space_group_name_H-M "C M M M"
_symmetry_group_IT_number 65
_symmetry_cell_setting 'orthorhombic'
loop_
_space_group_symop_operation_xyz
x,y,z
-x,-y,z
x,-y,-z
-x,y,-z
-x,-y,-z
x,y,-z
-x,y,z
x,-y,z
1/2+x,1/2+y,z
1/2-x,1/2-y,z
1/2+x,1/2-y,-z
1/2-x,1/2+y,-z
1/2-x,1/2-y,-z
1/2+x,1/2+y,-z
1/2-x,1/2+y,z
1/2+x,1/2-y,z
loop_
_atom_site_type_symbol
_atom_site_label
_atom_site_fract_x
_atom_site_fract_y
_atom_site_fract_z
Si Si1 0.633132 0.196061 0.667543
Si Si2 0.551774 0.500000 0.345611
Si Si3 0.205959 0.198188 0.164393
Si Si4 0.741225 0.500000 0.837471
Si Si5 0.669465 0.000000 0.667189
Si Si6 0.451327 0.300593 0.669600
O O1 0.639453 0.208314 0.500000
O O2 0.666096 0.266293 0.742263
O O3 0.641933 0.090263 0.715185
O O4 0.583676 0.222477 0.715873
O O5 0.500000 0.500000 0.367109
O O6 0.575188 0.500000 0.500000
O O7 0.563741 0.402276 0.266814
O O8 0.250000 0.250000 0.213714
O O9 0.211193 0.088949 0.193874
O O10 0.196025 0.220007 0.000000
O O11 0.783581 0.500000 0.739638
O O12 0.758033 0.500000 0.000000
O O13 0.677891 0.000000 0.500000
O O14 0.452974 0.310323 0.500000
O O15 0.500000 0.272402 0.726067
#
# Coordination Sequence:
#
# PCOD8269986 Si02
#       6
#    16   8  16   8   8  16
#     4  10  20  32  49  73 100 129 164 204 247 288
#     4   7  10  19  38  62  88 119 152 187 230 280
#     4  10  20  34  52  72  95 125 162 200 239 290
#     4  10  20  35  53  72  95 127 165 199 238 292
#     4  10  20  32  46  69 100 130 161 202 249 290
#     4   8  14  26  44  67  96 128 160 195 237 288
#
# _framework density 17.455673000000001
#
# number of rings (size 3 to 8) (size 9 to 14) (size 15 to 20)
#    0.000    2.778    2.222    1.333    0.000    2.222 
#    0.000    1.667    0.000    4.000    0.000    0.000 
#    0.000    8.000    0.000    0.000    0.000    0.000 
#
# Total GULP energy -446125.945566 kJ/mol
# GULP energy per Si atom -12392.387377 kJ/mol
# Density = 1.741594 g / cm^3
# Si number density = 17.455673 Si / 1000 Ang^3
#
#
#
# Elastic Constant Matrix: (Units=GPa)
#
#
# Indices 1 2 3 4 5 6 
#
# 1 118.1349 69.2659 26.7171 0.0000 0.0000 0.0000
# 2 69.2659 143.3839 26.1756 0.0000 0.0000 0.0000
# 3 26.7171 26.1756 18.8865 0.0000 0.0000 0.0000
# 4 0.0000 0.0000 0.0000 15.8787 0.0000 0.0000
# 5 0.0000 0.0000 0.0000 0.0000 0.1273 0.0000
# 6 0.0000 0.0000 0.0000 0.0000 0.0000 11.4555
#
#
#
# Elastic Compliance Matrix: (Units=1/GPa)
#
#
# Indices 1 2 3 4 5 6 
#
# 1 0.014157 -0.004261 -0.014121 0.000000 0.000000 0.000000
# 2 -0.004261 0.010619 -0.008690 0.000000 0.000000 0.000000
# 3 -0.014121 -0.008690 0.084967 0.000000 0.000000 0.000000
# 4 0.000000 0.000000 0.000000 0.062977 0.000000 0.000000
# 5 0.000000 0.000000 0.000000 0.000000 7.855507 0.000000
# 6 0.000000 0.000000 0.000000 0.000000 0.000000 0.087294
#
#
# Mechanical properties :
#
#
# Convention : Reuss Voigt Hill
#
# Bulk Modulus (GPa) = 17.98580 58.30251 38.14415
# Shear Modulus (GPa) = 0.61064 16.04208 8.32636
#
# Velocity S-wave (km/s) = 0.59210 3.03482 2.18640
# Velocity P-wave (km/s) = 3.28535 6.76410 5.31726
#
# Compressibility (1/GPa) = 0.05559942
#
# Stress axis : x y z
#
# Youngs Moduli (GPa) = 70.63741 94.17043 11.76932
#
# Poissons Ratio (x) = 0.40126 0.16619
# Poissons Ratio (y) = 0.30099 0.10227
# Poissons Ratio (z) = 0.99746 0.81831
#
# Static dielectric constant tensor:
#      x y z
#    x 3.216460 0.000000 0.000000 
#    y 0.000000 3.682280 0.000000 
#    z 0.000000 0.000000 2.870360 
# 
# 
# High freq. dielectric constant tensor:
#      x y z
#    x 1.662590 0.000000 0.000000 
#    y 0.000000 1.689750 0.000000 
#    z 0.000000 0.000000 1.630230 
# 
# From -- ./inp_files/18064.got.cif
#   From: 2010.03.12/outbox.cif.g09.slc.cpg/sg65_10_cif.got.tgz:18064.got - 2010.04.10 20:52:16.
