data_PCOD8269056
_publ_section_title
;
Structure prediction by ZEFSAII (Michael W. Deem and Ramdas Pophale) SiO2 
 PCOD8269056
Probable space group: C M M M
;
_chemical_formula_sum "Si O2"
_cell_formula_units_Z 104
_cell_length_a 8.765691
_cell_length_b 28.558598
_cell_length_c 23.241256
_cell_angle_alpha 90.000000
_cell_angle_beta 90.000000
_cell_angle_gamma 90.000000
_cell_volume 5818.119470
_symmetry_space_group_name_H-M "C M M M"
_symmetry_group_IT_number 65
_symmetry_cell_setting 'orthorhombic'
loop_
_space_group_symop_operation_xyz
x,y,z
-x,-y,z
x,-y,-z
-x,y,-z
-x,-y,-z
x,y,-z
-x,y,z
x,-y,z
1/2+x,1/2+y,z
1/2-x,1/2-y,z
1/2+x,1/2-y,-z
1/2-x,1/2+y,-z
1/2-x,1/2-y,-z
1/2+x,1/2+y,-z
1/2-x,1/2+y,z
1/2+x,1/2-y,z
loop_
_atom_site_type_symbol
_atom_site_label
_atom_site_fract_x
_atom_site_fract_y
_atom_site_fract_z
Si Si1 0.826874 0.555591 0.500000
Si Si2 0.175547 0.103907 0.065222
Si Si3 0.819923 0.890359 0.273431
Si Si4 0.180575 0.701802 0.237066
Si Si5 0.677791 0.296903 0.113217
Si Si6 0.822856 0.445457 0.169472
Si Si7 0.179963 0.946996 0.384352
O O1 0.807771 0.500000 0.500000
O O2 0.748288 0.575744 0.557563
O O3 0.000000 0.572245 0.500000
O O4 0.205912 0.159454 0.071362
O O5 0.282536 0.073573 0.106332
O O6 0.000000 0.092765 0.080291
O O7 0.214557 0.089632 0.000000
O O8 0.736727 0.840508 0.276911
O O9 0.776566 0.918798 0.216522
O O10 0.762991 0.918223 0.329373
O O11 0.000000 0.882560 0.273135
O O12 0.250000 0.750000 0.261591
O O13 0.239262 0.691972 0.172945
O O14 0.000000 0.704889 0.237414
O O15 0.500000 0.288239 0.125520
O O16 0.750000 0.250000 0.085035
O O17 0.782537 0.500000 0.172312
O O18 0.000000 0.435954 0.181760
O O19 0.000000 0.945733 0.389956
O O20 0.239326 0.000000 0.376024
#
# Coordination Sequence:
#
# PCOD8269056 Si02
#       7
#     8  16  16  16  16  16  16
#     4   9  17  29  47  73 108 147 184 223 263 301
#     4  10  22  39  57  76 100 134 176 217 261 320
#     4  11  21  35  56  82 109 140 178 220 265 315
#     4  11  21  34  54  79 108 139 172 212 262 317
#     4  10  19  33  54  78 104 133 166 208 258 317
#     4  11  24  39  55  77 104 135 173 220 270 318
#     4   9  18  32  51  76 108 147 186 220 258 307
#
# _framework density 17.875191000000001
#
# number of rings (size 3 to 8) (size 9 to 14) (size 15 to 20)
#    0.000    1.769    1.538    4.385    0.000    5.538 
#    0.000    3.077    0.000    0.000    0.000    0.538 
#    0.000    0.000    0.000    0.000    0.000    0.000 
#
# Total GULP energy -644935.805008 kJ/mol
# GULP energy per Si atom -12402.611635 kJ/mol
# Density = 1.783451 g / cm^3
# Si number density = 17.875191 Si / 1000 Ang^3
#
#
#
# Elastic Constant Matrix: (Units=GPa)
#
#
# Indices 1 2 3 4 5 6 
#
# 1 86.0708 40.1858 32.0666 0.0000 0.0000 0.0000
# 2 40.1858 96.3538 44.7353 0.0000 0.0000 0.0000
# 3 32.0666 44.7353 105.6094 0.0000 0.0000 0.0000
# 4 0.0000 0.0000 0.0000 15.0905 0.0000 0.0000
# 5 0.0000 0.0000 0.0000 0.0000 18.2382 0.0000
# 6 0.0000 0.0000 0.0000 0.0000 0.0000 30.1680
#
#
#
# Elastic Compliance Matrix: (Units=1/GPa)
#
#
# Indices 1 2 3 4 5 6 
#
# 1 0.014883 -0.005115 -0.002352 0.000000 0.000000 0.000000
# 2 -0.005115 0.014677 -0.004664 0.000000 0.000000 0.000000
# 3 -0.002352 -0.004664 0.012159 0.000000 0.000000 0.000000
# 4 0.000000 0.000000 0.000000 0.066267 0.000000 0.000000
# 5 0.000000 0.000000 0.000000 0.000000 0.054830 0.000000
# 6 0.000000 0.000000 0.000000 0.000000 0.000000 0.033148
#
#
# Mechanical properties :
#
#
# Convention : Reuss Voigt Hill
#
# Bulk Modulus (GPa) = 57.28651 58.00106 57.64379
# Shear Modulus (GPa) = 22.11956 24.10244 23.11100
#
# Velocity S-wave (km/s) = 3.52155 3.67600 3.59961
# Velocity P-wave (km/s) = 6.97515 7.10884 7.04231
#
# Compressibility (1/GPa) = 0.01745612
#
# Stress axis : x y z
#
# Youngs Moduli (GPa) = 67.19140 68.13325 82.24551
#
# Poissons Ratio (x) = 0.34850 0.19346
# Poissons Ratio (y) = 0.34368 0.38359
# Poissons Ratio (z) = 0.15805 0.31777
#
# Static dielectric constant tensor:
#      x y z
#    x 3.337760 0.000000 0.000000 
#    y 0.000000 3.604560 0.000000 
#    z 0.000000 0.000000 3.249820 
# 
# 
# High freq. dielectric constant tensor:
#      x y z
#    x 1.701710 0.000000 0.000000 
#    y 0.000000 1.685100 0.000000 
#    z 0.000000 0.000000 1.675570 
# 
# From -- ./inp_files/60879.got.cif
#   From: 2010.03.12/outbox.cif.g09.slc.cpg/sg65_31_cif.got.tgz:60879.got - 2010.04.10 20:52:16.
