data_PCOD8269507
_publ_section_title
;
Structure prediction by ZEFSAII (Michael W. Deem and Ramdas Pophale) SiO2 
 PCOD8269507
Probable space group: C M M M
;
_chemical_formula_sum "Si O2"
_cell_formula_units_Z 96
_cell_length_a 8.851377
_cell_length_b 23.538504
_cell_length_c 25.566764
_cell_angle_alpha 90.000000
_cell_angle_beta 90.000000
_cell_angle_gamma 90.000000
_cell_volume 5326.788567
_symmetry_space_group_name_H-M "C M M M"
_symmetry_group_IT_number 65
_symmetry_cell_setting 'orthorhombic'
loop_
_space_group_symop_operation_xyz
x,y,z
-x,-y,z
x,-y,-z
-x,y,-z
-x,-y,-z
x,y,-z
-x,y,z
x,-y,z
1/2+x,1/2+y,z
1/2-x,1/2-y,z
1/2+x,1/2-y,-z
1/2-x,1/2+y,-z
1/2-x,1/2-y,-z
1/2+x,1/2+y,-z
1/2-x,1/2+y,z
1/2+x,1/2-y,z
loop_
_atom_site_type_symbol
_atom_site_label
_atom_site_fract_x
_atom_site_fract_y
_atom_site_fract_z
Si Si1 0.327357 0.122390 0.749855
Si Si2 0.671610 0.000000 0.786103
Si Si3 0.177661 0.811796 0.341115
Si Si4 0.176958 0.688466 0.556693
Si Si5 0.176289 0.309505 0.146892
Si Si6 0.322435 0.500000 0.895246
Si Si7 0.677999 0.617827 0.060050
O O1 0.500000 0.137442 0.734958
O O2 0.215374 0.148635 0.707657
O O3 0.287109 0.146345 0.806966
O O4 0.299603 0.054906 0.750204
O O5 0.784466 0.000000 0.834391
O O6 0.500000 0.000000 0.807967
O O7 0.250000 0.750000 0.332465
O O8 0.243352 0.842311 0.393961
O O9 0.000000 0.804884 0.346234
O O10 0.204610 0.657872 0.500000
O O11 0.250000 0.750000 0.553835
O O12 0.000000 0.693926 0.568131
O O13 0.250000 0.250000 0.162322
O O14 0.244129 0.332732 0.093092
O O15 0.000000 0.300192 0.139062
O O16 0.500000 0.500000 0.902880
O O17 0.256197 0.556328 0.922901
O O18 0.500000 0.620738 0.070022
O O19 0.719584 0.628595 0.000000
#
# Coordination Sequence:
#
# PCOD8269507 Si02
#       7
#    16   8  16  16  16   8  16
#     4  10  21  37  56  78 105 135 171 214 261 314
#     4  10  20  37  59  81 105 133 166 211 264 312
#     4  11  21  32  50  76 109 145 181 219 260 308
#     4   9  16  27  45  70 103 142 181 219 260 306
#     4  11  23  38  57  78 104 137 174 214 259 312
#     4  10  19  34  58  84 108 133 165 209 258 311
#     4  10  21  37  57  81 108 137 170 209 256 310
#
# _framework density 18.022117000000001
#
# number of rings (size 3 to 8) (size 9 to 14) (size 15 to 20)
#    0.000    1.833    1.667    4.250    0.000    6.000 
#    0.000    0.000    0.000    1.500    0.000    0.583 
#    0.000    4.667    0.000    0.000    0.000    0.000 
#
# Total GULP energy -595164.642696 kJ/mol
# GULP energy per Si atom -12399.263389 kJ/mol
# Density = 1.798110 g / cm^3
# Si number density = 18.022117 Si / 1000 Ang^3
#
#
#
# Elastic Constant Matrix: (Units=GPa)
#
#
# Indices 1 2 3 4 5 6 
#
# 1 90.4695 33.0955 52.7519 0.0000 0.0000 0.0000
# 2 33.0955 89.2296 35.3616 0.0000 0.0000 0.0000
# 3 52.7519 35.3616 119.3263 0.0000 0.0000 0.0000
# 4 0.0000 0.0000 0.0000 9.0973 0.0000 0.0000
# 5 0.0000 0.0000 0.0000 0.0000 32.3831 0.0000
# 6 0.0000 0.0000 0.0000 0.0000 0.0000 20.1363
#
#
#
# Elastic Compliance Matrix: (Units=1/GPa)
#
#
# Indices 1 2 3 4 5 6 
#
# 1 0.015804 -0.003504 -0.005948 0.000000 0.000000 0.000000
# 2 -0.003504 0.013475 -0.002444 0.000000 0.000000 0.000000
# 3 -0.005948 -0.002444 0.011734 0.000000 0.000000 0.000000
# 4 0.000000 0.000000 0.000000 0.109923 0.000000 0.000000
# 5 0.000000 0.000000 0.000000 0.000000 0.030880 0.000000
# 6 0.000000 0.000000 0.000000 0.000000 0.000000 0.049662
#
#
# Mechanical properties :
#
#
# Convention : Reuss Voigt Hill
#
# Bulk Modulus (GPa) = 58.07133 60.16037 59.11585
# Shear Modulus (GPa) = 19.15630 24.17778 21.66704
#
# Velocity S-wave (km/s) = 3.26380 3.66671 3.47111
# Velocity P-wave (km/s) = 6.81875 7.16800 6.99556
#
# Compressibility (1/GPa) = 0.01722020
#
# Stress axis : x y z
#
# Youngs Moduli (GPa) = 63.27659 74.20909 85.22123
#
# Poissons Ratio (x) = 0.26006 0.50689
# Poissons Ratio (y) = 0.22175 0.20829
# Poissons Ratio (z) = 0.37637 0.18138
#
# Static dielectric constant tensor:
#      x y z
#    x 3.347300 0.000000 0.000000 
#    y 0.000000 3.183570 0.000000 
#    z 0.000000 0.000000 3.717990 
# 
# 
# High freq. dielectric constant tensor:
#      x y z
#    x 1.701990 0.000000 0.000000 
#    y 0.000000 1.669570 0.000000 
#    z 0.000000 0.000000 1.706470 
# 
# From -- ./inp_files/73478.got.cif
#   From: 2010.03.12/outbox.cif.g09.slc.cpg/sg65_37_cif.got.tgz:73478.got - 2010.04.10 20:52:16.
