data_PCOD8269716
_publ_section_title
;
Structure prediction by ZEFSAII (Michael W. Deem and Ramdas Pophale) SiO2 
 PCOD8269716
Probable space group: C M M M
;
_chemical_formula_sum "Si O2"
_cell_formula_units_Z 104
_cell_length_a 9.553737
_cell_length_b 29.641444
_cell_length_c 22.851609
_cell_angle_alpha 90.000000
_cell_angle_beta 90.000000
_cell_angle_gamma 90.000000
_cell_volume 6471.268549
_symmetry_space_group_name_H-M "C M M M"
_symmetry_group_IT_number 65
_symmetry_cell_setting 'orthorhombic'
loop_
_space_group_symop_operation_xyz
x,y,z
-x,-y,z
x,-y,-z
-x,y,-z
-x,-y,-z
x,y,-z
-x,y,z
x,-y,z
1/2+x,1/2+y,z
1/2-x,1/2-y,z
1/2+x,1/2-y,-z
1/2-x,1/2+y,-z
1/2-x,1/2-y,-z
1/2+x,1/2+y,-z
1/2-x,1/2+y,z
1/2+x,1/2-y,z
loop_
_atom_site_type_symbol
_atom_site_label
_atom_site_fract_x
_atom_site_fract_y
_atom_site_fract_z
Si Si1 0.661115 0.053591 0.827981
Si Si2 0.832885 0.050564 0.500000
Si Si3 0.833838 0.891009 0.263703
Si Si4 0.166414 0.887958 0.395926
Si Si5 0.345031 0.289320 0.400087
Si Si6 0.156725 0.946432 0.064877
Si Si7 0.153900 0.210551 0.261254
O O1 0.500000 0.069378 0.827058
O O2 0.745421 0.074382 0.774263
O O3 0.731567 0.071682 0.888028
O O4 0.673179 0.000000 0.822845
O O5 0.775857 0.075391 0.441853
O O6 0.000000 0.050498 0.500000
O O7 0.772878 0.000000 0.500000
O O8 0.785903 0.900648 0.330493
O O9 0.792842 0.839796 0.245447
O O10 0.000000 0.899179 0.255761
O O11 0.221129 0.838315 0.415118
O O12 0.000000 0.885252 0.396620
O O13 0.500000 0.284319 0.427176
O O14 0.250000 0.250000 0.427765
O O15 0.353317 0.284612 0.330610
O O16 0.000000 0.929548 0.081329
O O17 0.158319 0.000000 0.064592
O O18 0.198091 0.928633 0.000000
O O19 0.250000 0.250000 0.233814
O O20 0.000000 0.217658 0.234377
#
# Coordination Sequence:
#
# PCOD8269716 Si02
#       7
#    16   8  16  16  16  16  16
#     4  10  20  30  40  60  90 120 149 181 217 254
#     4   9  16  26  41  60  79 101 137 183 224 259
#     4   9  17  29  44  62  85 113 144 177 216 262
#     4   8  15  27  41  59  83 107 133 173 220 258
#     4   8  13  23  39  59  83 106 127 155 198 252
#     4   8  14  26  44  63  83 112 149 182 212 250
#     4   8  14  24  39  59  81 106 136 169 207 254
#
# _framework density 16.071037
#
# number of rings (size 3 to 8) (size 9 to 14) (size 15 to 20)
#    0.000    3.462    0.000    2.769    0.000    2.462 
#    0.000    5.769    0.000    0.000    0.000    1.615 
#    0.000    4.308    0.000    2.000    0.000    2.462 
#
# Total GULP energy -644359.884245 kJ/mol
# GULP energy per Si atom -12391.536235 kJ/mol
# Density = 1.603446 g / cm^3
# Si number density = 16.071037 Si / 1000 Ang^3
#
#
#
# Elastic Constant Matrix: (Units=GPa)
#
#
# Indices 1 2 3 4 5 6 
#
# 1 70.3862 40.3274 43.5195 0.0000 0.0000 0.0000
# 2 40.3274 82.9218 46.4504 0.0000 0.0000 0.0000
# 3 43.5195 46.4504 89.7424 0.0000 0.0000 0.0000
# 4 0.0000 0.0000 0.0000 1.3567 0.0000 0.0000
# 5 0.0000 0.0000 0.0000 0.0000 5.1519 0.0000
# 6 0.0000 0.0000 0.0000 0.0000 0.0000 24.5408
#
#
#
# Elastic Compliance Matrix: (Units=1/GPa)
#
#
# Indices 1 2 3 4 5 6 
#
# 1 0.022779 -0.006887 -0.007482 0.000000 0.000000 0.000000
# 2 -0.006887 0.019066 -0.006529 0.000000 0.000000 0.000000
# 3 -0.007482 -0.006529 0.018150 0.000000 0.000000 0.000000
# 4 0.000000 0.000000 0.000000 0.737096 0.000000 0.000000
# 5 0.000000 0.000000 0.000000 0.000000 0.194102 0.000000
# 6 0.000000 0.000000 0.000000 0.000000 0.000000 0.040748
#
#
# Mechanical properties :
#
#
# Convention : Reuss Voigt Hill
#
# Bulk Modulus (GPa) = 54.94339 55.96056 55.45198
# Shear Modulus (GPa) = 4.63047 13.72675 9.17861
#
# Velocity S-wave (km/s) = 1.69927 2.92572 2.39242
# Velocity P-wave (km/s) = 6.17350 6.80511 6.49698
#
# Compressibility (1/GPa) = 0.01820055
#
# Stress axis : x y z
#
# Youngs Moduli (GPa) = 43.89961 52.44869 55.09508
#
# Poissons Ratio (x) = 0.36122 0.41221
# Poissons Ratio (y) = 0.30235 0.35970
# Poissons Ratio (z) = 0.32844 0.34243
#
# Static dielectric constant tensor:
#      x y z
#    x 3.056850 0.000000 0.000000 
#    y 0.000000 3.062550 0.000000 
#    z 0.000000 0.000000 2.985240 
# 
# 
# High freq. dielectric constant tensor:
#      x y z
#    x 1.594250 0.000000 0.000000 
#    y 0.000000 1.601260 0.000000 
#    z 0.000000 0.000000 1.594290 
# 
# From -- ./inp_files/68548.got.cif
#   From: 2010.03.12/outbox.cif.g09.slc.cpg/sg65_35_cif.got.tgz:68548.got - 2010.04.10 20:52:16.
