data_PCOD8269694
_publ_section_title
;
Structure prediction by ZEFSAII (Michael W. Deem and Ramdas Pophale) SiO2 
 PCOD8269694
Probable space group: C M M M
;
_chemical_formula_sum "Si O2"
_cell_formula_units_Z 104
_cell_length_a 18.752276
_cell_length_b 32.854948
_cell_length_c 9.022882
_cell_angle_alpha 90.000000
_cell_angle_beta 90.000000
_cell_angle_gamma 90.000000
_cell_volume 5559.043192
_symmetry_space_group_name_H-M "C M M M"
_symmetry_group_IT_number 65
_symmetry_cell_setting 'orthorhombic'
loop_
_space_group_symop_operation_xyz
x,y,z
-x,-y,z
x,-y,-z
-x,y,-z
-x,-y,-z
x,y,-z
-x,y,z
x,-y,z
1/2+x,1/2+y,z
1/2-x,1/2-y,z
1/2+x,1/2-y,-z
1/2-x,1/2+y,-z
1/2-x,1/2-y,-z
1/2+x,1/2+y,-z
1/2-x,1/2+y,z
1/2+x,1/2-y,z
loop_
_atom_site_type_symbol
_atom_site_label
_atom_site_fract_x
_atom_site_fract_y
_atom_site_fract_z
Si Si1 0.190124 0.852850 0.824041
Si Si2 0.669047 0.263168 0.166619
Si Si3 0.917298 0.694844 0.329686
Si Si4 0.418655 0.579876 0.825632
Si Si5 0.582184 0.046654 0.672905
Si Si6 0.345694 0.120849 0.176331
Si Si7 0.415186 0.500000 0.334251
O O1 0.168100 0.808482 0.763801
O O2 0.128813 0.883021 0.767868
O O3 0.266697 0.867908 0.764415
O O4 0.194075 0.850705 0.000000
O O5 0.750000 0.250000 0.159591
O O6 0.624760 0.233922 0.271861
O O7 0.636448 0.261888 0.000000
O O8 0.896628 0.687069 0.500000
O O9 0.899850 0.654484 0.237333
O O10 0.000000 0.704617 0.310792
O O11 0.500000 0.588521 0.777981
O O12 0.386899 0.539700 0.749593
O O13 0.412185 0.573483 0.000000
O O14 0.593767 0.055472 0.500000
O O15 0.500000 0.054816 0.715906
O O16 0.632969 0.076223 0.766292
O O17 0.602607 0.000000 0.710550
O O18 0.349251 0.120924 0.000000
O O19 0.500000 0.500000 0.331839
O O20 0.384556 0.500000 0.500000
#
# Coordination Sequence:
#
# PCOD8269694 Si02
#       7
#    16  16  16  16  16  16   8
#     4   9  19  35  55  81 111 141 176 224 278 325
#     4  10  19  37  61  82 109 144 183 228 276 329
#     4  11  24  39  56  83 116 148 187 231 273 325
#     4   9  17  32  55  79 103 138 182 219 260 321
#     4   9  19  37  58  79 109 148 185 226 277 330
#     4  11  21  36  57  82 113 146 184 231 279 328
#     4   9  17  31  51  75 105 137 170 217 270 311
#
# _framework density 18.708255000000001
#
# number of rings (size 3 to 8) (size 9 to 14) (size 15 to 20)
#    0.000    2.231    1.538    2.077    0.000    5.538 
#    1.385    4.615    0.000    1.846    0.000    0.000 
#    0.000    0.000    0.000    0.000    0.000    0.000 
#
# Total GULP energy -644844.058001 kJ/mol
# GULP energy per Si atom -12400.847269 kJ/mol
# Density = 1.866567 g / cm^3
# Si number density = 18.708255 Si / 1000 Ang^3
#
#
#
# Elastic Constant Matrix: (Units=GPa)
#
#
# Indices 1 2 3 4 5 6 
#
# 1 75.3201 54.2935 36.8299 0.0000 0.0000 0.0000
# 2 54.2935 164.4370 49.0399 0.0000 0.0000 0.0000
# 3 36.8299 49.0399 66.9998 0.0000 0.0000 0.0000
# 4 0.0000 0.0000 0.0000 36.0458 0.0000 0.0000
# 5 0.0000 0.0000 0.0000 0.0000 15.1846 0.0000
# 6 0.0000 0.0000 0.0000 0.0000 0.0000 36.6450
#
#
#
# Elastic Compliance Matrix: (Units=1/GPa)
#
#
# Indices 1 2 3 4 5 6 
#
# 1 0.020300 -0.004317 -0.007999 0.000000 0.000000 0.000000
# 2 -0.004317 0.008698 -0.003993 0.000000 0.000000 0.000000
# 3 -0.007999 -0.003993 0.022245 0.000000 0.000000 0.000000
# 4 0.000000 0.000000 0.000000 0.027742 0.000000 0.000000
# 5 0.000000 0.000000 0.000000 0.000000 0.065856 0.000000
# 6 0.000000 0.000000 0.000000 0.000000 0.000000 0.027289
#
#
# Mechanical properties :
#
#
# Convention : Reuss Voigt Hill
#
# Bulk Modulus (GPa) = 53.69305 65.23150 59.46228
# Shear Modulus (GPa) = 23.70156 28.68134 26.19145
#
# Velocity S-wave (km/s) = 3.56322 3.91971 3.74571
# Velocity P-wave (km/s) = 6.75953 7.44506 7.11056
#
# Compressibility (1/GPa) = 0.01862439
#
# Stress axis : x y z
#
# Youngs Moduli (GPa) = 49.26127 114.97447 44.95349
#
# Poissons Ratio (x) = 0.49635 0.35959
# Poissons Ratio (y) = 0.21266 0.17950
# Poissons Ratio (z) = 0.39405 0.45910
#
# Static dielectric constant tensor:
#      x y z
#    x 3.493030 0.000000 0.000000 
#    y 0.000000 3.533610 0.000000 
#    z 0.000000 0.000000 3.305240 
# 
# 
# High freq. dielectric constant tensor:
#      x y z
#    x 1.716400 0.000000 0.000000 
#    y 0.000000 1.742140 0.000000 
#    z 0.000000 0.000000 1.709940 
# 
# From -- ./inp_files/12832.got.cif
#   From: 2010.03.12/outbox.cif.g09.slc.cpg/sg65_7_cif.got.tgz:12832.got - 2010.04.10 20:52:16.
