data_PCOD8269934
_publ_section_title
;
Structure prediction by ZEFSAII (Michael W. Deem and Ramdas Pophale) SiO2 
 PCOD8269934
Probable space group: C M M M
;
_chemical_formula_sum "Si O2"
_cell_formula_units_Z 80
_cell_length_a 18.583912
_cell_length_b 23.913334
_cell_length_c 8.927351
_cell_angle_alpha 90.000000
_cell_angle_beta 90.000000
_cell_angle_gamma 90.000000
_cell_volume 3967.344197
_symmetry_space_group_name_H-M "C M M M"
_symmetry_group_IT_number 65
_symmetry_cell_setting 'orthorhombic'
loop_
_space_group_symop_operation_xyz
x,y,z
-x,-y,z
x,-y,-z
-x,y,-z
-x,-y,-z
x,y,-z
-x,y,z
x,-y,z
1/2+x,1/2+y,z
1/2-x,1/2-y,z
1/2+x,1/2-y,-z
1/2-x,1/2+y,-z
1/2-x,1/2-y,-z
1/2+x,1/2+y,-z
1/2-x,1/2+y,z
1/2+x,1/2-y,z
loop_
_atom_site_type_symbol
_atom_site_label
_atom_site_fract_x
_atom_site_fract_y
_atom_site_fract_z
Si Si1 0.920314 0.062914 0.822370
Si Si2 0.500000 0.866605 0.830982
Si Si3 0.857426 0.767539 0.673771
Si Si4 0.212856 0.136145 0.822055
Si Si5 0.000000 0.233463 0.831001
Si Si6 0.644325 0.135867 0.326199
O O1 0.855408 0.101027 0.760192
O O2 0.000000 0.085261 0.773262
O O3 0.909658 0.000000 0.760676
O O4 0.915630 0.062275 0.000000
O O5 0.500000 0.800051 0.830616
O O6 0.571216 0.888615 0.746044
O O7 0.500000 0.890003 0.000000
O O8 0.854354 0.782768 0.500000
O O9 0.793649 0.800713 0.757367
O O10 0.851157 0.701990 0.700455
O O11 0.931174 0.790316 0.745307
O O12 0.286347 0.109212 0.756365
O O13 0.217929 0.137613 0.000000
O O14 0.000000 0.209582 0.000000
O O15 0.644766 0.119802 0.500000
#
# Coordination Sequence:
#
# PCOD8269934 Si02
#       6
#    16   8  16  16   8  16
#     4   8  16  33  54  75 101 132 168 214 266 314
#     4   9  17  31  51  71  94 125 168 213 245 282
#     4  10  20  32  45  65  98 139 173 206 250 303
#     4  11  21  30  49  77 100 127 170 218 259 300
#     4   9  17  29  45  65  90 125 168 211 247 286
#     4  10  20  34  49  68 101 142 175 203 248 308
#
# _framework density 20.164624
#
# number of rings (size 3 to 8) (size 9 to 14) (size 15 to 20)
#    0.000    2.400    0.000    3.600    1.400    7.200 
#    0.000    0.000    0.000    2.400    0.000    6.300 
#    0.000    5.600    0.000    0.000    0.000    0.000 
#
# Total GULP energy -495888.278010 kJ/mol
# GULP energy per Si atom -12397.206950 kJ/mol
# Density = 2.011873 g / cm^3
# Si number density = 20.164624 Si / 1000 Ang^3
#
#
#
# Elastic Constant Matrix: (Units=GPa)
#
#
# Indices 1 2 3 4 5 6 
#
# 1 178.2668 20.4835 66.3123 0.0000 0.0000 0.0000
# 2 20.4835 23.2144 16.3362 0.0000 0.0000 0.0000
# 3 66.3123 16.3362 107.0780 0.0000 0.0000 0.0000
# 4 0.0000 0.0000 0.0000 7.3037 0.0000 0.0000
# 5 0.0000 0.0000 0.0000 0.0000 38.1665 0.0000
# 6 0.0000 0.0000 0.0000 0.0000 0.0000 15.1264
#
#
#
# Elastic Compliance Matrix: (Units=1/GPa)
#
#
# Indices 1 2 3 4 5 6 
#
# 1 0.007575 -0.003790 -0.004113 0.000000 0.000000 0.000000
# 2 -0.003790 0.050154 -0.005305 0.000000 0.000000 0.000000
# 3 -0.004113 -0.005305 0.012695 0.000000 0.000000 0.000000
# 4 0.000000 0.000000 0.000000 0.136916 0.000000 0.000000
# 5 0.000000 0.000000 0.000000 0.000000 0.026201 0.000000
# 6 0.000000 0.000000 0.000000 0.000000 0.000000 0.066110
#
#
# Mechanical properties :
#
#
# Convention : Reuss Voigt Hill
#
# Bulk Modulus (GPa) = 22.72243 57.20257 39.96250
# Shear Modulus (GPa) = 14.67416 25.81448 20.24432
#
# Velocity S-wave (km/s) = 2.70055 3.58185 3.17196
# Velocity P-wave (km/s) = 4.58442 6.74801 5.76856
#
# Compressibility (1/GPa) = 0.04400938
#
# Stress axis : x y z
#
# Youngs Moduli (GPa) = 132.01415 19.93877 78.76867
#
# Poissons Ratio (x) = 0.07556 0.32397
# Poissons Ratio (y) = 0.50027 0.41785
# Poissons Ratio (z) = 0.54297 0.10577
#
# Static dielectric constant tensor:
#      x y z
#    x 5.045660 0.000000 0.000000 
#    y 0.000000 3.216220 0.000000 
#    z 0.000000 0.000000 3.492930 
# 
# 
# High freq. dielectric constant tensor:
#      x y z
#    x 1.811840 0.000000 0.000000 
#    y 0.000000 1.728210 0.000000 
#    z 0.000000 0.000000 1.774290 
# 
# From -- ./inp_files/9702.got.cif
#   From: 2010.03.12/outbox.cif.g09.slc.cpg/sg65_5_cif.got.tgz:9702.got - 2010.04.10 20:52:16.
