data_PCOD8269984
_publ_section_title
;
Structure prediction by ZEFSAII (Michael W. Deem and Ramdas Pophale) SiO2 
 PCOD8269984
Probable space group: C M M M
;
_chemical_formula_sum "Si O2"
_cell_formula_units_Z 80
_cell_length_a 9.102024
_cell_length_b 19.245464
_cell_length_c 25.596584
_cell_angle_alpha 90.000000
_cell_angle_beta 90.000000
_cell_angle_gamma 90.000000
_cell_volume 4483.822096
_symmetry_space_group_name_H-M "C M M M"
_symmetry_group_IT_number 65
_symmetry_cell_setting 'orthorhombic'
loop_
_space_group_symop_operation_xyz
x,y,z
-x,-y,z
x,-y,-z
-x,y,-z
-x,-y,-z
x,y,-z
-x,y,z
x,-y,z
1/2+x,1/2+y,z
1/2-x,1/2-y,z
1/2+x,1/2-y,-z
1/2-x,1/2+y,-z
1/2-x,1/2-y,-z
1/2+x,1/2+y,-z
1/2-x,1/2+y,z
1/2+x,1/2-y,z
loop_
_atom_site_type_symbol
_atom_site_label
_atom_site_fract_x
_atom_site_fract_y
_atom_site_fract_z
Si Si1 0.335053 0.916998 0.111821
Si Si2 0.174478 0.423869 0.000000
Si Si3 0.828396 0.320090 0.411621
Si Si4 0.827251 0.321166 0.708084
Si Si5 0.174406 0.577209 0.500000
Si Si6 0.168523 0.917863 0.213192
O O1 0.500000 0.891043 0.125009
O O2 0.226328 0.890752 0.157052
O O3 0.334183 0.000000 0.107858
O O4 0.281089 0.886352 0.054986
O O5 0.248424 0.500000 0.000000
O O6 0.000000 0.431922 0.000000
O O7 0.750000 0.250000 0.429889
O O8 0.789647 0.338536 0.351972
O O9 0.771539 0.382758 0.448058
O O10 0.000000 0.307481 0.419320
O O11 0.750000 0.250000 0.725768
O O12 0.764281 0.384483 0.741227
O O13 0.000000 0.313804 0.717639
O O14 0.243894 0.500000 0.500000
O O15 0.000000 0.571951 0.500000
O O16 0.000000 0.895204 0.218935
O O17 0.188875 0.000000 0.217985
#
# Coordination Sequence:
#
# PCOD8269984 Si02
#       6
#    16   8  16  16   8  16
#     4   8  13  23  40  62  89 122 159 197 238 285
#     4   7  10  18  35  59  86 117 154 195 236 279
#     4   9  18  32  52  74  95 124 159 196 236 280
#     4  10  20  34  52  73  96 125 164 205 244 289
#     4   9  17  30  49  75 104 129 156 192 232 275
#     4  10  20  32  46  68  99 131 162 200 246 291
#
# _framework density 17.841922
#
# number of rings (size 3 to 8) (size 9 to 14) (size 15 to 20)
#    0.000    3.000    0.000    2.700    0.000    2.800 
#    0.000    2.500    0.000    4.200    0.000    0.700 
#    0.000    0.000    0.000    0.000    0.000    0.000 
#
# Total GULP energy -495745.026305 kJ/mol
# GULP energy per Si atom -12393.625658 kJ/mol
# Density = 1.780131 g / cm^3
# Si number density = 17.841922 Si / 1000 Ang^3
#
#
#
# Elastic Constant Matrix: (Units=GPa)
#
#
# Indices 1 2 3 4 5 6 
#
# 1 70.1014 33.4777 47.0578 0.0000 0.0000 0.0000
# 2 33.4777 71.3987 59.0026 0.0000 0.0000 0.0000
# 3 47.0578 59.0026 131.7392 0.0000 0.0000 0.0000
# 4 0.0000 0.0000 0.0000 7.1204 0.0000 0.0000
# 5 0.0000 0.0000 0.0000 0.0000 19.7486 0.0000
# 6 0.0000 0.0000 0.0000 0.0000 0.0000 23.3706
#
#
#
# Elastic Compliance Matrix: (Units=1/GPa)
#
#
# Indices 1 2 3 4 5 6 
#
# 1 0.020051 -0.005529 -0.004686 0.000000 0.000000 0.000000
# 2 -0.005529 0.023760 -0.008667 0.000000 0.000000 0.000000
# 3 -0.004686 -0.008667 0.013146 0.000000 0.000000 0.000000
# 4 0.000000 0.000000 0.000000 0.140442 0.000000 0.000000
# 5 0.000000 0.000000 0.000000 0.000000 0.050636 0.000000
# 6 0.000000 0.000000 0.000000 0.000000 0.000000 0.042789
#
#
# Mechanical properties :
#
#
# Convention : Reuss Voigt Hill
#
# Bulk Modulus (GPa) = 52.09944 61.36838 56.73391
# Shear Modulus (GPa) = 14.92596 18.96133 16.94365
#
# Velocity S-wave (km/s) = 2.89548 3.26351 3.08499
# Velocity P-wave (km/s) = 6.35943 6.97645 6.67508
#
# Compressibility (1/GPa) = 0.01919406
#
# Stress axis : x y z
#
# Youngs Moduli (GPa) = 49.87221 42.08690 76.06808
#
# Poissons Ratio (x) = 0.23271 0.35645
# Poissons Ratio (y) = 0.27576 0.65925
# Poissons Ratio (z) = 0.23370 0.36475
#
# Static dielectric constant tensor:
#      x y z
#    x 3.179570 0.000000 0.000000 
#    y 0.000000 3.022940 0.000000 
#    z 0.000000 0.000000 3.716150 
# 
# 
# High freq. dielectric constant tensor:
#      x y z
#    x 1.673340 0.000000 0.000000 
#    y 0.000000 1.647020 0.000000 
#    z 0.000000 0.000000 1.710830 
# 
# From -- ./inp_files/72930.got.cif
#   From: 2010.03.12/outbox.cif.g09.slc.cpg/sg65_37_cif.got.tgz:72930.got - 2010.04.10 20:52:16.
