data_PCOD8269681
_publ_section_title
;
Structure prediction by ZEFSAII (Michael W. Deem and Ramdas Pophale) SiO2 
 PCOD8269681
Probable space group: C M M M
;
_chemical_formula_sum "Si O2"
_cell_formula_units_Z 96
_cell_length_a 19.409823
_cell_length_b 14.836327
_cell_length_c 16.947510
_cell_angle_alpha 90.000000
_cell_angle_beta 90.000000
_cell_angle_gamma 90.000000
_cell_volume 4880.382607
_symmetry_space_group_name_H-M "C M M M"
_symmetry_group_IT_number 65
_symmetry_cell_setting 'orthorhombic'
loop_
_space_group_symop_operation_xyz
x,y,z
-x,-y,z
x,-y,-z
-x,y,-z
-x,-y,-z
x,y,-z
-x,y,z
x,-y,z
1/2+x,1/2+y,z
1/2-x,1/2-y,z
1/2+x,1/2-y,-z
1/2-x,1/2+y,-z
1/2-x,1/2-y,-z
1/2+x,1/2+y,-z
1/2-x,1/2+y,z
1/2+x,1/2-y,z
loop_
_atom_site_type_symbol
_atom_site_label
_atom_site_fract_x
_atom_site_fract_y
_atom_site_fract_z
Si Si1 0.286015 0.000000 0.411095
Si Si2 0.316727 0.400912 0.092888
Si Si3 0.122865 0.000000 0.409625
Si Si4 0.078496 0.189160 0.655128
Si Si5 0.581251 0.738720 0.166138
Si Si6 0.337784 0.894564 0.908179
Si Si7 0.810533 0.690926 0.408987
O O1 0.204221 0.000000 0.408878
O O2 0.313644 0.091332 0.368516
O O3 0.314528 0.000000 0.500000
O O4 0.333073 0.500000 0.129096
O O5 0.376873 0.332886 0.114929
O O6 0.240083 0.369589 0.119870
O O7 0.314024 0.409437 0.000000
O O8 0.095537 0.085900 0.362414
O O9 0.095338 0.000000 0.500000
O O10 0.097869 0.215305 0.743836
O O11 0.118369 0.256398 0.597249
O O12 0.000000 0.208187 0.636607
O O13 0.500000 0.731267 0.147472
O O14 0.608242 0.838366 0.144623
O O15 0.352507 0.000000 0.894268
O O16 0.348514 0.869319 0.000000
O O17 0.790331 0.675616 0.500000
O O18 0.750000 0.750000 0.368283
#
# Coordination Sequence:
#
# PCOD8269681 Si02
#       7
#     8  16   8  16  16  16  16
#     4   9  18  35  61  91 113 136 181 243 298 340
#     4   9  19  37  61  86 112 148 192 237 285 342
#     4  11  21  40  67  89 113 148 197 252 297 345
#     4  11  25  40  55  84 121 157 192 236 294 351
#     4  11  24  38  53  81 123 159 187 233 293 346
#     4   9  19  39  65  89 112 147 200 252 288 330
#     4  10  19  36  61  86 114 146 187 239 290 349
#
# _framework density 19.670590000000001
#
# number of rings (size 3 to 8) (size 9 to 14) (size 15 to 20)
#    0.000    2.000    1.667    2.750    1.167    6.333 
#    1.500    2.083    0.000    1.500    0.000    0.000 
#    0.000    0.000    0.000    0.000    0.000    0.000 
#
# Total GULP energy -595055.512727 kJ/mol
# GULP energy per Si atom -12396.989848 kJ/mol
# Density = 1.962582 g / cm^3
# Si number density = 19.670590 Si / 1000 Ang^3
#
#
#
# Elastic Constant Matrix: (Units=GPa)
#
#
# Indices 1 2 3 4 5 6 
#
# 1 101.7245 64.1681 34.4486 0.0000 0.0000 0.0000
# 2 64.1681 168.4250 44.1095 0.0000 0.0000 0.0000
# 3 34.4486 44.1095 46.6245 0.0000 0.0000 0.0000
# 4 0.0000 0.0000 0.0000 29.3325 0.0000 0.0000
# 5 0.0000 0.0000 0.0000 0.0000 22.9564 0.0000
# 6 0.0000 0.0000 0.0000 0.0000 0.0000 56.6909
#
#
#
# Elastic Compliance Matrix: (Units=1/GPa)
#
#
# Indices 1 2 3 4 5 6 
#
# 1 0.014620 -0.003644 -0.007354 0.000000 0.000000 0.000000
# 2 -0.003644 0.008801 -0.005634 0.000000 0.000000 0.000000
# 3 -0.007354 -0.005634 0.032212 0.000000 0.000000 0.000000
# 4 0.000000 0.000000 0.000000 0.034092 0.000000 0.000000
# 5 0.000000 0.000000 0.000000 0.000000 0.043561 0.000000
# 6 0.000000 0.000000 0.000000 0.000000 0.000000 0.017640
#
#
# Mechanical properties :
#
#
# Convention : Reuss Voigt Hill
#
# Bulk Modulus (GPa) = 44.70683 66.91402 55.81043
# Shear Modulus (GPa) = 26.08979 33.39916 29.74448
#
# Velocity S-wave (km/s) = 3.64584 4.12506 3.89283
# Velocity P-wave (km/s) = 6.36396 7.53520 6.97421
#
# Compressibility (1/GPa) = 0.02236795
#
# Stress axis : x y z
#
# Youngs Moduli (GPa) = 68.40162 113.62124 31.04427
#
# Poissons Ratio (x) = 0.41401 0.22831
# Poissons Ratio (y) = 0.24924 0.17491
# Poissons Ratio (z) = 0.50305 0.64016
#
# Static dielectric constant tensor:
#      x y z
#    x 3.536710 0.000000 0.000000 
#    y 0.000000 4.072170 0.000000 
#    z 0.000000 0.000000 3.450390 
# 
# 
# High freq. dielectric constant tensor:
#      x y z
#    x 1.760530 0.000000 0.000000 
#    y 0.000000 1.787120 0.000000 
#    z 0.000000 0.000000 1.742630 
# 
# From -- ./inp_files/44161.got.cif
#   From: 2010.03.12/outbox.cif.g09.slc.cpg/sg65_23_cif.got.tgz:44161.got - 2010.04.10 20:52:16.
