data_PCOD8269253
_publ_section_title
;
Structure prediction by ZEFSAII (Michael W. Deem and Ramdas Pophale) SiO2 
 PCOD8269253
Probable space group: C M M M
;
_chemical_formula_sum "Si O2"
_cell_formula_units_Z 88
_cell_length_a 8.964612
_cell_length_b 24.084351
_cell_length_c 22.410060
_cell_angle_alpha 90.000000
_cell_angle_beta 90.000000
_cell_angle_gamma 90.000000
_cell_volume 4838.485732
_symmetry_space_group_name_H-M "C M M M"
_symmetry_group_IT_number 65
_symmetry_cell_setting 'orthorhombic'
loop_
_space_group_symop_operation_xyz
x,y,z
-x,-y,z
x,-y,-z
-x,y,-z
-x,-y,-z
x,y,-z
-x,y,z
x,-y,z
1/2+x,1/2+y,z
1/2-x,1/2-y,z
1/2+x,1/2-y,-z
1/2-x,1/2+y,-z
1/2-x,1/2-y,-z
1/2+x,1/2+y,-z
1/2-x,1/2+y,z
1/2+x,1/2-y,z
loop_
_atom_site_type_symbol
_atom_site_label
_atom_site_fract_x
_atom_site_fract_y
_atom_site_fract_z
Si Si1 0.661089 0.121021 0.910914
Si Si2 0.821878 0.189208 0.680757
Si Si3 0.328901 0.308335 0.000000
Si Si4 0.825312 0.690495 0.435199
Si Si5 0.328845 0.888754 0.774897
Si Si6 0.741943 0.500000 0.932902
Si Si7 0.335214 0.500000 0.800869
O O1 0.500000 0.143037 0.932833
O O2 0.790850 0.155148 0.942340
O O3 0.678651 0.134166 0.841652
O O4 0.661240 0.055715 0.927058
O O5 0.750000 0.250000 0.687648
O O6 0.759940 0.160068 0.619497
O O7 0.769557 0.152054 0.735426
O O8 0.000000 0.193367 0.679729
O O9 0.250000 0.250000 0.000000
O O10 0.500000 0.294998 0.000000
O O11 0.805013 0.660122 0.500000
O O12 0.750000 0.750000 0.440317
O O13 0.000000 0.696666 0.419767
O O14 0.500000 0.891920 0.752163
O O15 0.255732 0.948901 0.774576
O O16 0.639256 0.500000 0.873348
O O17 0.664487 0.500000 0.000000
O O18 0.500000 0.500000 0.772798
#
# Coordination Sequence:
#
# PCOD8269253 Si02
#       7
#    16  16   8  16  16   8   8
#     4  10  21  38  59  81 104 133 169 211 259 313
#     4  11  21  33  52  78 109 145 182 222 265 315
#     4  12  26  41  56  73  99 134 172 212 257 312
#     4   9  16  27  45  71 105 142 178 218 262 309
#     4  10  21  38  57  78 105 139 177 218 264 316
#     4  10  19  33  57  89 110 134 157 204 262 322
#     4  10  21  36  54  80 111 138 172 216 264 319
#
# _framework density 18.187508999999999
#
# number of rings (size 3 to 8) (size 9 to 14) (size 15 to 20)
#    0.000    1.818    0.909    5.182    0.000    8.182 
#    0.000    0.000    0.000    0.000    0.000    0.636 
#    0.000    5.091    0.000    0.000    0.000    0.000 
#
# Total GULP energy -545125.255384 kJ/mol
# GULP energy per Si atom -12389.210350 kJ/mol
# Density = 1.814611 g / cm^3
# Si number density = 18.187509 Si / 1000 Ang^3
#
#
#
# Elastic Constant Matrix: (Units=GPa)
#
#
# Indices 1 2 3 4 5 6 
#
# 1 167.0754 50.3032 55.1165 0.0000 0.0000 0.0000
# 2 50.3032 82.9826 50.2488 0.0000 0.0000 0.0000
# 3 55.1165 50.2488 120.3598 0.0000 0.0000 0.0000
# 4 0.0000 0.0000 0.0000 23.4180 0.0000 0.0000
# 5 0.0000 0.0000 0.0000 0.0000 25.6991 0.0000
# 6 0.0000 0.0000 0.0000 0.0000 0.0000 19.1939
#
#
#
# Elastic Compliance Matrix: (Units=1/GPa)
#
#
# Indices 1 2 3 4 5 6 
#
# 1 0.007703 -0.003391 -0.002112 0.000000 0.000000 0.000000
# 2 -0.003391 0.017620 -0.005804 0.000000 0.000000 0.000000
# 3 -0.002112 -0.005804 0.011698 0.000000 0.000000 0.000000
# 4 0.000000 0.000000 0.000000 0.042702 0.000000 0.000000
# 5 0.000000 0.000000 0.000000 0.000000 0.038912 0.000000
# 6 0.000000 0.000000 0.000000 0.000000 0.000000 0.052100
#
#
# Mechanical properties :
#
#
# Convention : Reuss Voigt Hill
#
# Bulk Modulus (GPa) = 69.39857 75.75053 72.57455
# Shear Modulus (GPa) = 25.23328 27.97881 26.60605
#
# Velocity S-wave (km/s) = 3.72882 3.92644 3.82890
# Velocity P-wave (km/s) = 7.53518 7.89279 7.71605
#
# Compressibility (1/GPa) = 0.01440952
#
# Stress axis : x y z
#
# Youngs Moduli (GPa) = 129.82227 56.75248 85.48139
#
# Poissons Ratio (x) = 0.19242 0.18052
# Poissons Ratio (y) = 0.44017 0.49610
# Poissons Ratio (z) = 0.27416 0.32937
#
# Static dielectric constant tensor:
#      x y z
#    x 3.467710 0.000000 0.000000 
#    y 0.000000 3.207580 0.000000 
#    z 0.000000 0.000000 3.961890 
# 
# 
# High freq. dielectric constant tensor:
#      x y z
#    x 1.718710 0.000000 0.000000 
#    y 0.000000 1.668880 0.000000 
#    z 0.000000 0.000000 1.711500 
# 
# From -- ./inp_files/59938.got.cif
#   From: 2010.03.12/outbox.cif.g09.slc.cpg/sg65_30_cif.got.tgz:59938.got - 2010.04.10 20:52:16.
