data_PCOD8269416
_publ_section_title
;
Structure prediction by ZEFSAII (Michael W. Deem and Ramdas Pophale) SiO2 
 PCOD8269416
Probable space group: C M M M
;
_chemical_formula_sum "Si O2"
_cell_formula_units_Z 104
_cell_length_a 28.786924
_cell_length_b 9.110863
_cell_length_c 23.154286
_cell_angle_alpha 90.000000
_cell_angle_beta 90.000000
_cell_angle_gamma 90.000000
_cell_volume 6072.760741
_symmetry_space_group_name_H-M "C M M M"
_symmetry_group_IT_number 65
_symmetry_cell_setting 'orthorhombic'
loop_
_space_group_symop_operation_xyz
x,y,z
-x,-y,z
x,-y,-z
-x,y,-z
-x,-y,-z
x,y,-z
-x,y,z
x,-y,z
1/2+x,1/2+y,z
1/2-x,1/2-y,z
1/2+x,1/2-y,-z
1/2-x,1/2+y,-z
1/2-x,1/2-y,-z
1/2+x,1/2+y,-z
1/2-x,1/2+y,z
1/2+x,1/2-y,z
loop_
_atom_site_type_symbol
_atom_site_label
_atom_site_fract_x
_atom_site_fract_y
_atom_site_fract_z
Si Si1 0.445981 0.828224 0.886523
Si Si2 0.703412 0.828595 0.603146
Si Si3 0.445401 0.170077 0.341319
Si Si4 0.112838 0.168118 0.565682
Si Si5 0.055245 0.834396 0.000000
Si Si6 0.704479 0.169255 0.738208
Si Si7 0.105116 0.325556 0.226782
O O1 0.500000 0.794174 0.876330
O O2 0.418444 0.764527 0.831350
O O3 0.437298 0.000000 0.895442
O O4 0.426111 0.746966 0.942961
O O5 0.750000 0.750000 0.580839
O O6 0.660372 0.758012 0.570401
O O7 0.696436 0.800134 0.670885
O O8 0.706446 0.000000 0.588298
O O9 0.500000 0.191544 0.335631
O O10 0.427273 0.262376 0.395267
O O11 0.422177 0.232927 0.282903
O O12 0.431838 0.000000 0.350940
O O13 0.095151 0.177356 0.500000
O O14 0.121637 0.000000 0.584415
O O15 0.000000 0.828323 0.000000
O O16 0.074054 0.000000 0.000000
O O17 0.750000 0.250000 0.762259
O O18 0.658672 0.227352 0.771266
O O19 0.712676 0.000000 0.750743
O O20 0.101891 0.500000 0.227295
#
# Coordination Sequence:
#
# PCOD8269416 Si02
#       7
#    16  16  16  16   8  16  16
#     4   9  16  27  47  73  99 131 170 204 236 282
#     4  10  19  34  56  79 102 128 160 201 251 307
#     4  10  20  36  57  77  98 127 165 209 257 305
#     4  11  24  39  53  71  98 132 169 208 252 303
#     4   9  17  29  43  63 100 141 170 201 240 279
#     4   9  17  30  49  73 101 128 156 193 242 296
#     4   9  16  30  51  77 103 127 159 204 250 292
#
# _framework density 17.125654000000001
#
# number of rings (size 3 to 8) (size 9 to 14) (size 15 to 20)
#    0.000    2.385    1.538    1.615    0.000    5.538 
#    0.000    3.077    0.000    1.846    0.000    0.538 
#    0.000    0.000    0.000    0.000    0.000    0.000 
#
# Total GULP energy -644851.770607 kJ/mol
# GULP energy per Si atom -12400.995589 kJ/mol
# Density = 1.708667 g / cm^3
# Si number density = 17.125654 Si / 1000 Ang^3
#
#
#
# Elastic Constant Matrix: (Units=GPa)
#
#
# Indices 1 2 3 4 5 6 
#
# 1 97.4461 40.2170 59.8068 0.0000 0.0000 0.0000
# 2 40.2170 72.7211 48.4161 0.0000 0.0000 0.0000
# 3 59.8068 48.4161 118.0605 0.0000 0.0000 0.0000
# 4 0.0000 0.0000 0.0000 15.4692 0.0000 0.0000
# 5 0.0000 0.0000 0.0000 0.0000 23.2066 0.0000
# 6 0.0000 0.0000 0.0000 0.0000 0.0000 27.0612
#
#
#
# Elastic Compliance Matrix: (Units=1/GPa)
#
#
# Indices 1 2 3 4 5 6 
#
# 1 0.016002 -0.004749 -0.006159 0.000000 0.000000 0.000000
# 2 -0.004749 0.020325 -0.005929 0.000000 0.000000 0.000000
# 3 -0.006159 -0.005929 0.014022 0.000000 0.000000 0.000000
# 4 0.000000 0.000000 0.000000 0.064645 0.000000 0.000000
# 5 0.000000 0.000000 0.000000 0.000000 0.043091 0.000000
# 6 0.000000 0.000000 0.000000 0.000000 0.000000 0.036953
#
#
# Mechanical properties :
#
#
# Convention : Reuss Voigt Hill
#
# Bulk Modulus (GPa) = 59.97242 65.01194 62.49218
# Shear Modulus (GPa) = 21.34283 22.46659 21.90471
#
# Velocity S-wave (km/s) = 3.53405 3.62590 3.58027
# Velocity P-wave (km/s) = 7.19359 7.45478 7.32535
#
# Compressibility (1/GPa) = 0.01667433
#
# Stress axis : x y z
#
# Youngs Moduli (GPa) = 62.49244 49.19953 71.31830
#
# Poissons Ratio (x) = 0.23367 0.43922
# Poissons Ratio (y) = 0.29680 0.42288
# Poissons Ratio (z) = 0.38486 0.29173
#
# Static dielectric constant tensor:
#      x y z
#    x 3.202230 0.000000 0.000000 
#    y 0.000000 3.161470 0.000000 
#    z 0.000000 0.000000 3.220700 
# 
# 
# High freq. dielectric constant tensor:
#      x y z
#    x 1.652970 0.000000 0.000000 
#    y 0.000000 1.649330 0.000000 
#    z 0.000000 0.000000 1.649050 
# 
# From -- ./inp_files/66416.got.cif
#   From: 2010.03.12/outbox.cif.g09.slc.cpg/sg65_34_cif.got.tgz:66416.got - 2010.04.10 20:52:16.
