data_PCOD8269796
_publ_section_title
;
Structure prediction by ZEFSAII (Michael W. Deem and Ramdas Pophale) SiO2 
 PCOD8269796
Probable space group: C M M M
;
_chemical_formula_sum "Si O2"
_cell_formula_units_Z 72
_cell_length_a 9.884202
_cell_length_b 24.064091
_cell_length_c 19.112511
_cell_angle_alpha 90.000000
_cell_angle_beta 90.000000
_cell_angle_gamma 90.000000
_cell_volume 4545.993621
_symmetry_space_group_name_H-M "C M M M"
_symmetry_group_IT_number 65
_symmetry_cell_setting 'orthorhombic'
loop_
_space_group_symop_operation_xyz
x,y,z
-x,-y,z
x,-y,-z
-x,y,-z
-x,-y,-z
x,y,-z
-x,y,z
x,-y,z
1/2+x,1/2+y,z
1/2-x,1/2-y,z
1/2+x,1/2-y,-z
1/2-x,1/2+y,-z
1/2-x,1/2-y,-z
1/2+x,1/2+y,-z
1/2-x,1/2+y,z
1/2+x,1/2-y,z
loop_
_atom_site_type_symbol
_atom_site_label
_atom_site_fract_x
_atom_site_fract_y
_atom_site_fract_z
Si Si1 0.500000 0.819518 0.080381
Si Si2 0.754232 0.183821 0.164914
Si Si3 0.654687 0.000000 0.416858
Si Si4 0.153390 0.098443 0.581186
Si Si5 0.500000 0.313229 0.077392
Si Si6 0.341112 0.696548 0.313535
O O1 0.376354 0.841724 0.127198
O O2 0.500000 0.753301 0.076342
O O3 0.500000 0.842749 0.000000
O O4 0.750000 0.250000 0.165835
O O5 0.872767 0.161563 0.116493
O O6 0.780600 0.165213 0.244884
O O7 0.737690 0.946164 0.390548
O O8 0.500000 0.000000 0.387559
O O9 0.652527 0.000000 0.500000
O O10 0.178639 0.111430 0.500000
O O11 0.175501 0.155667 0.621639
O O12 0.000000 0.075947 0.592917
O O13 0.500000 0.337474 0.000000
O O14 0.500000 0.712919 0.301318
O O15 0.250000 0.750000 0.330992
#
# Coordination Sequence:
#
# PCOD8269796 Si02
#       6
#     8  16   8  16   8  16
#     4   9  16  24  36  54  75 104 147 188 221 260
#     4   9  16  25  36  53  78 111 147 184 219 262
#     4   9  17  31  51  75  95 109 138 187 238 279
#     4   9  18  33  51  69  90 120 154 187 227 272
#     4   9  14  22  36  52  73 104 143 184 221 254
#     4  10  20  31  44  63  90 126 161 189 221 265
#
# _framework density 15.838122
#
# number of rings (size 3 to 8) (size 9 to 14) (size 15 to 20)
#    0.000    2.778    1.111    1.000    4.667    5.333 
#    0.000    0.000    0.000    0.000    0.000    0.000 
#    0.000    0.000    0.000    6.000    0.000    2.778 
#
# Total GULP energy -446071.642934 kJ/mol
# GULP energy per Si atom -12390.878970 kJ/mol
# Density = 1.580207 g / cm^3
# Si number density = 15.838122 Si / 1000 Ang^3
#
#
#
# Elastic Constant Matrix: (Units=GPa)
#
#
# Indices 1 2 3 4 5 6 
#
# 1 145.8539 41.8125 55.4833 0.0000 0.0000 0.0000
# 2 41.8125 45.4979 33.9490 0.0000 0.0000 0.0000
# 3 55.4833 33.9490 91.8664 0.0000 0.0000 0.0000
# 4 0.0000 0.0000 0.0000 1.1720 0.0000 0.0000
# 5 0.0000 0.0000 0.0000 0.0000 27.9450 0.0000
# 6 0.0000 0.0000 0.0000 0.0000 0.0000 19.5231
#
#
#
# Elastic Compliance Matrix: (Units=1/GPa)
#
#
# Indices 1 2 3 4 5 6 
#
# 1 0.010146 -0.006561 -0.003703 0.000000 0.000000 0.000000
# 2 -0.006561 0.034590 -0.008820 0.000000 0.000000 0.000000
# 3 -0.003703 -0.008820 0.016381 0.000000 0.000000 0.000000
# 4 0.000000 0.000000 0.000000 0.853274 0.000000 0.000000
# 5 0.000000 0.000000 0.000000 0.000000 0.035785 0.000000
# 6 0.000000 0.000000 0.000000 0.000000 0.000000 0.051221
#
#
# Mechanical properties :
#
#
# Convention : Reuss Voigt Hill
#
# Bulk Modulus (GPa) = 43.57528 60.63419 52.10473
# Shear Modulus (GPa) = 4.77457 19.85958 12.31708
#
# Velocity S-wave (km/s) = 1.73815 3.54490 2.79173
# Velocity P-wave (km/s) = 5.62146 7.42441 6.58494
#
# Compressibility (1/GPa) = 0.02294879
#
# Stress axis : x y z
#
# Youngs Moduli (GPa) = 98.56495 28.91040 61.04527
#
# Poissons Ratio (x) = 0.18967 0.22605
# Poissons Ratio (y) = 0.64666 0.53843
# Poissons Ratio (z) = 0.36498 0.25499
#
# Static dielectric constant tensor:
#      x y z
#    x 3.349530 0.000000 0.000000 
#    y 0.000000 2.435390 0.000000 
#    z 0.000000 0.000000 3.121820 
# 
# 
# High freq. dielectric constant tensor:
#      x y z
#    x 1.629480 0.000000 0.000000 
#    y 0.000000 1.533880 0.000000 
#    z 0.000000 0.000000 1.611640 
# 
# From -- ./inp_files/57200.got.cif
#   From: 2010.03.12/outbox.cif.g09.slc.cpg/sg65_29_cif.got.tgz:57200.got - 2010.04.10 20:52:16.
