data_PCOD8269628
_publ_section_title
;
Structure prediction by ZEFSAII (Michael W. Deem and Ramdas Pophale) SiO2 
 PCOD8269628
Probable space group: C M M M
;
_chemical_formula_sum "Si O2"
_cell_formula_units_Z 88
_cell_length_a 17.820218
_cell_length_b 13.636567
_cell_length_c 19.192740
_cell_angle_alpha 90.000000
_cell_angle_beta 90.000000
_cell_angle_gamma 90.000000
_cell_volume 4663.962429
_symmetry_space_group_name_H-M "C M M M"
_symmetry_group_IT_number 65
_symmetry_cell_setting 'orthorhombic'
loop_
_space_group_symop_operation_xyz
x,y,z
-x,-y,z
x,-y,-z
-x,y,-z
-x,-y,-z
x,y,-z
-x,y,z
x,-y,z
1/2+x,1/2+y,z
1/2-x,1/2-y,z
1/2+x,1/2-y,-z
1/2-x,1/2+y,-z
1/2-x,1/2-y,-z
1/2+x,1/2+y,-z
1/2-x,1/2+y,z
1/2+x,1/2-y,z
loop_
_atom_site_type_symbol
_atom_site_label
_atom_site_fract_x
_atom_site_fract_y
_atom_site_fract_z
Si Si1 0.867621 0.116020 0.818257
Si Si2 0.698175 0.891606 0.323702
Si Si3 0.800611 0.390959 0.161930
Si Si4 0.500000 0.384607 0.578381
Si Si5 0.416591 0.240813 0.920799
Si Si6 0.862688 0.812463 0.332095
O O1 0.784280 0.148814 0.842097
O O2 0.920168 0.154685 0.880480
O O3 0.890514 0.172454 0.747305
O O4 0.876094 0.000000 0.806905
O O5 0.677938 0.890884 0.242606
O O6 0.786046 0.874313 0.339240
O O7 0.649958 0.801589 0.354161
O O8 0.677031 0.000000 0.354435
O O9 0.804051 0.500000 0.130689
O O10 0.857992 0.328608 0.117267
O O11 0.500000 0.500000 0.578383
O O12 0.500000 0.342782 0.500000
O O13 0.575107 0.349798 0.615634
O O14 0.500000 0.194221 0.918725
O O15 0.390574 0.258237 0.000000
#
# Coordination Sequence:
#
# PCOD8269628 Si02
#       6
#    16  16  16   8  16  16
#     4  10  20  35  57  81 103 138 189 236 281 335
#     4   9  17  33  59  89 115 144 190 241 283 326
#     4   9  18  35  56  78 105 138 184 237 283 330
#     4  11  24  40  59  89 126 158 188 225 277 339
#     4  11  24  37  49  73 111 148 183 231 289 343
#     4  10  19  35  60  87 117 149 187 235 282 334
#
# _framework density 18.868077
#
# number of rings (size 3 to 8) (size 9 to 14) (size 15 to 20)
#    0.000    2.091    1.818    3.273    1.273    2.909 
#    0.000    5.909    0.000    2.182    0.000    0.000 
#    0.000    0.000    0.000    0.000    0.000    0.000 
#
# Total GULP energy -545299.702474 kJ/mol
# GULP energy per Si atom -12393.175056 kJ/mol
# Density = 1.882513 g / cm^3
# Si number density = 18.868077 Si / 1000 Ang^3
#
#
#
# Elastic Constant Matrix: (Units=GPa)
#
#
# Indices 1 2 3 4 5 6 
#
# 1 80.8669 36.8249 70.8494 0.0000 0.0000 0.0000
# 2 36.8249 107.2054 50.6790 0.0000 0.0000 0.0000
# 3 70.8494 50.6790 105.2651 0.0000 0.0000 0.0000
# 4 0.0000 0.0000 0.0000 19.8667 0.0000 0.0000
# 5 0.0000 0.0000 0.0000 0.0000 34.4198 0.0000
# 6 0.0000 0.0000 0.0000 0.0000 0.0000 21.3590
#
#
#
# Elastic Compliance Matrix: (Units=1/GPa)
#
#
# Indices 1 2 3 4 5 6 
#
# 1 0.030219 -0.000991 -0.019862 0.000000 0.000000 0.000000
# 2 -0.000991 0.012109 -0.005163 0.000000 0.000000 0.000000
# 3 -0.019862 -0.005163 0.025354 0.000000 0.000000 0.000000
# 4 0.000000 0.000000 0.000000 0.050336 0.000000 0.000000
# 5 0.000000 0.000000 0.000000 0.000000 0.029053 0.000000
# 6 0.000000 0.000000 0.000000 0.000000 0.000000 0.046819
#
#
# Mechanical properties :
#
#
# Convention : Reuss Voigt Hill
#
# Bulk Modulus (GPa) = 63.89741 67.78268 65.84004
# Shear Modulus (GPa) = 19.90952 24.12803 22.01877
#
# Velocity S-wave (km/s) = 3.25190 3.57988 3.41982
# Velocity P-wave (km/s) = 6.93100 7.28628 7.11086
#
# Compressibility (1/GPa) = 0.01565009
#
# Stress axis : x y z
#
# Youngs Moduli (GPa) = 33.09215 82.58424 39.44214
#
# Poissons Ratio (x) = 0.08182 0.78339
# Poissons Ratio (y) = 0.03279 0.20363
# Poissons Ratio (z) = 0.65727 0.42637
#
# Static dielectric constant tensor:
#      x y z
#    x 3.358990 0.000000 0.000000 
#    y 0.000000 3.770430 0.000000 
#    z 0.000000 0.000000 3.271850 
# 
# 
# High freq. dielectric constant tensor:
#      x y z
#    x 1.724550 0.000000 0.000000 
#    y 0.000000 1.745450 0.000000 
#    z 0.000000 0.000000 1.701700 
# 
# From -- ./inp_files/54310.got.cif
#   From: 2010.03.12/outbox.cif.g09.slc.cpg/sg65_28_cif.got.tgz:54310.got - 2010.04.10 20:52:16.
