data_PCOD8269374
_publ_section_title
;
Structure prediction by ZEFSAII (Michael W. Deem and Ramdas Pophale) SiO2 
 PCOD8269374
Probable space group: C M M M
;
_chemical_formula_sum "Si O2"
_cell_formula_units_Z 92
_cell_length_a 25.833094
_cell_length_b 11.033695
_cell_length_c 18.667518
_cell_angle_alpha 90.000000
_cell_angle_beta 90.000000
_cell_angle_gamma 90.000000
_cell_volume 5320.886288
_symmetry_space_group_name_H-M "C M M M"
_symmetry_group_IT_number 65
_symmetry_cell_setting 'orthorhombic'
loop_
_space_group_symop_operation_xyz
x,y,z
-x,-y,z
x,-y,-z
-x,y,-z
-x,-y,-z
x,y,-z
-x,y,z
x,-y,z
1/2+x,1/2+y,z
1/2-x,1/2-y,z
1/2+x,1/2-y,-z
1/2-x,1/2+y,-z
1/2-x,1/2-y,-z
1/2+x,1/2+y,-z
1/2-x,1/2+y,z
1/2+x,1/2-y,z
loop_
_atom_site_type_symbol
_atom_site_label
_atom_site_fract_x
_atom_site_fract_y
_atom_site_fract_z
Si Si1 0.559855 0.000000 0.642413
Si Si2 0.397462 0.639631 0.850737
Si Si3 0.846920 0.136859 0.641114
Si Si4 0.128451 0.500000 0.500000
Si Si5 0.189101 0.737173 0.500000
Si Si6 0.058101 0.143529 0.000000
Si Si7 0.059404 0.247384 0.287572
Si Si8 0.788536 0.859821 0.214666
O O1 0.573463 0.885054 0.691721
O O2 0.500000 0.000000 0.619180
O O3 0.592774 0.000000 0.570016
O O4 0.415266 0.500000 0.838916
O O5 0.428352 0.725351 0.795824
O O6 0.335913 0.649503 0.840713
O O7 0.411337 0.688191 0.929702
O O8 0.834543 0.209988 0.571315
O O9 0.906047 0.158400 0.664429
O O10 0.808292 0.170411 0.705625
O O11 0.839938 0.000000 0.618976
O O12 0.170925 0.602066 0.500000
O O13 0.250000 0.750000 0.500000
O O14 0.000000 0.197437 0.000000
O O15 0.055850 0.000000 0.000000
O O16 0.000000 0.217328 0.304260
O O17 0.750000 0.750000 0.193288
O O18 0.765911 0.000000 0.211246
#
# Coordination Sequence:
#
# PCOD8269374 Si02
#       8
#     8  16  16   4   8   8  16  16
#     4  10  21  38  58  79 106 139 183 227 262 316
#     4   9  18  32  52  80 114 138 171 219 265 314
#     4  10  21  37  53  74 106 133 169 220 271 320
#     4  12  23  42  60  76 104 144 185 218 274 318
#     4  12  25  39  54  76 101 135 176 219 268 319
#     4   9  16  28  51  83 111 141 173 206 258 323
#     4  10  19  34  55  79 105 137 174 216 263 315
#     4   9  18  35  53  77 106 141 180 224 270 312
#
# _framework density 17.290351999999999
#
# number of rings (size 3 to 8) (size 9 to 14) (size 15 to 20)
#    0.000    2.174    1.739    3.000    1.217    2.087 
#    7.826    0.870    0.000    1.565    0.000    2.435 
#    0.000    0.000    0.000    0.000    0.000    0.000 
#
# Total GULP energy -570194.467314 kJ/mol
# GULP energy per Si atom -12395.531898 kJ/mol
# Density = 1.725100 g / cm^3
# Si number density = 17.290352 Si / 1000 Ang^3
#
#
#
# Elastic Constant Matrix: (Units=GPa)
#
#
# Indices 1 2 3 4 5 6 
#
# 1 86.5925 42.9046 53.6886 0.0000 0.0000 0.0000
# 2 42.9046 82.1789 49.7400 0.0000 0.0000 0.0000
# 3 53.6886 49.7400 145.6819 0.0000 0.0000 0.0000
# 4 0.0000 0.0000 0.0000 22.9683 0.0000 0.0000
# 5 0.0000 0.0000 0.0000 0.0000 17.4919 0.0000
# 6 0.0000 0.0000 0.0000 0.0000 0.0000 30.1259
#
#
#
# Elastic Compliance Matrix: (Units=1/GPa)
#
#
# Indices 1 2 3 4 5 6 
#
# 1 0.017378 -0.006550 -0.004168 0.000000 0.000000 0.000000
# 2 -0.006550 0.017807 -0.003666 0.000000 0.000000 0.000000
# 3 -0.004168 -0.003666 0.009652 0.000000 0.000000 0.000000
# 4 0.000000 0.000000 0.000000 0.043538 0.000000 0.000000
# 5 0.000000 0.000000 0.000000 0.000000 0.057169 0.000000
# 6 0.000000 0.000000 0.000000 0.000000 0.000000 0.033194
#
#
# Mechanical properties :
#
#
# Convention : Reuss Voigt Hill
#
# Bulk Modulus (GPa) = 62.23136 67.45774 64.84455
# Shear Modulus (GPa) = 23.48928 25.32524 24.40726
#
# Velocity S-wave (km/s) = 3.68981 3.83130 3.76122
# Velocity P-wave (km/s) = 7.36363 7.65971 7.51313
#
# Compressibility (1/GPa) = 0.01606907
#
# Stress axis : x y z
#
# Youngs Moduli (GPa) = 57.54416 56.15719 103.60584
#
# Poissons Ratio (x) = 0.36783 0.43183
# Poissons Ratio (y) = 0.37692 0.37981
# Poissons Ratio (z) = 0.23984 0.20587
#
# Static dielectric constant tensor:
#      x y z
#    x 3.196790 0.000000 0.000000 
#    y 0.000000 3.243160 0.000000 
#    z 0.000000 0.000000 3.273010 
# 
# 
# High freq. dielectric constant tensor:
#      x y z
#    x 1.668700 0.000000 0.000000 
#    y 0.000000 1.660980 0.000000 
#    z 0.000000 0.000000 1.665980 
# 
# From -- ./inp_files/57519.got.cif
#   From: 2010.03.12/outbox.cif.g09.slc.cpg/sg65_29_cif.got.tgz:57519.got - 2010.04.10 20:52:16.
