data_PCOD8269980
_publ_section_title
;
Structure prediction by ZEFSAII (Michael W. Deem and Ramdas Pophale) SiO2 
 PCOD8269980
Probable space group: C M M M
;
_chemical_formula_sum "Si O2"
_cell_formula_units_Z 88
_cell_length_a 20.016126
_cell_length_b 9.022411
_cell_length_c 28.009240
_cell_angle_alpha 90.000000
_cell_angle_beta 90.000000
_cell_angle_gamma 90.000000
_cell_volume 5058.292717
_symmetry_space_group_name_H-M "C M M M"
_symmetry_group_IT_number 65
_symmetry_cell_setting 'orthorhombic'
loop_
_space_group_symop_operation_xyz
x,y,z
-x,-y,z
x,-y,-z
-x,y,-z
-x,-y,-z
x,y,-z
-x,y,z
x,-y,z
1/2+x,1/2+y,z
1/2-x,1/2-y,z
1/2+x,1/2-y,-z
1/2-x,1/2+y,-z
1/2-x,1/2-y,-z
1/2+x,1/2+y,-z
1/2-x,1/2+y,z
1/2+x,1/2-y,z
loop_
_atom_site_type_symbol
_atom_site_label
_atom_site_fract_x
_atom_site_fract_y
_atom_site_fract_z
Si Si1 0.817546 0.173932 0.873678
Si Si2 0.073205 0.823915 0.500000
Si Si3 0.925790 0.823908 0.053095
Si Si4 0.681158 0.674332 0.236017
Si Si5 0.078233 0.672387 0.696075
Si Si6 0.079609 0.834037 0.397955
O O1 0.750000 0.250000 0.890994
O O2 0.876139 0.240266 0.906887
O O3 0.833539 0.213701 0.818988
O O4 0.809114 0.000000 0.880889
O O5 0.109463 0.779177 0.449748
O O6 0.000000 0.749242 0.500000
O O7 0.065694 0.000000 0.500000
O O8 0.000000 0.761931 0.063697
O O9 0.927044 0.000000 0.055982
O O10 0.902719 0.773946 0.000000
O O11 0.687648 0.500000 0.244676
O O12 0.750000 0.750000 0.253179
O O13 0.618467 0.736766 0.264684
O O14 0.093849 0.500000 0.701818
O O15 0.102818 0.723155 0.643594
O O16 0.000000 0.707753 0.703234
O O17 0.000000 0.835733 0.402628
O O18 0.105198 0.000000 0.385585
#
# Coordination Sequence:
#
# PCOD8269980 Si02
#       6
#    16   8  16  16  16  16
#     4   9  18  31  48  70  93 118 151 191 232 275
#     4   7  10  18  35  59  86 117 152 189 228 271
#     4   8  14  26  45  69  96 124 154 188 224 264
#     4  10  20  34  51  69  92 123 159 199 241 286
#     4  10  20  32  46  68  98 127 157 196 239 282
#     4   8  13  23  40  62  89 121 156 192 231 275
#
# _framework density 17.397174
#
# number of rings (size 3 to 8) (size 9 to 14) (size 15 to 20)
#    0.000    3.182    0.000    2.727    0.000    2.909 
#    0.000    2.273    0.000    3.273    0.000    1.909 
#    0.000    0.000    0.000    0.000    0.000    0.000 
#
# Total GULP energy -545249.140371 kJ/mol
# GULP energy per Si atom -12392.025918 kJ/mol
# Density = 1.735758 g / cm^3
# Si number density = 17.397174 Si / 1000 Ang^3
#
#
#
# Elastic Constant Matrix: (Units=GPa)
#
#
# Indices 1 2 3 4 5 6 
#
# 1 80.9195 34.4468 71.6676 0.0000 0.0000 0.0000
# 2 34.4468 53.9598 39.9566 0.0000 0.0000 0.0000
# 3 71.6676 39.9566 126.3840 0.0000 0.0000 0.0000
# 4 0.0000 0.0000 0.0000 16.0131 0.0000 0.0000
# 5 0.0000 0.0000 0.0000 0.0000 6.6460 0.0000
# 6 0.0000 0.0000 0.0000 0.0000 0.0000 23.2894
#
#
#
# Elastic Compliance Matrix: (Units=1/GPa)
#
#
# Indices 1 2 3 4 5 6 
#
# 1 0.027088 -0.007727 -0.012918 0.000000 0.000000 0.000000
# 2 -0.007727 0.026401 -0.003965 0.000000 0.000000 0.000000
# 3 -0.012918 -0.003965 0.016491 0.000000 0.000000 0.000000
# 4 0.000000 0.000000 0.000000 0.062449 0.000000 0.000000
# 5 0.000000 0.000000 0.000000 0.000000 0.150467 0.000000
# 6 0.000000 0.000000 0.000000 0.000000 0.000000 0.042938
#
#
# Mechanical properties :
#
#
# Convention : Reuss Voigt Hill
#
# Bulk Modulus (GPa) = 48.16792 61.48949 54.82870
# Shear Modulus (GPa) = 13.08991 16.86920 14.97956
#
# Velocity S-wave (km/s) = 2.74600 3.11730 2.93752
# Velocity P-wave (km/s) = 6.14828 6.95543 6.56427
#
# Compressibility (1/GPa) = 0.02076071
#
# Stress axis : x y z
#
# Youngs Moduli (GPa) = 36.91668 37.87710 60.63874
#
# Poissons Ratio (x) = 0.29268 0.78331
# Poissons Ratio (y) = 0.28526 0.24044
# Poissons Ratio (z) = 0.47688 0.15019
#
# Static dielectric constant tensor:
#      x y z
#    x 3.074920 0.000000 0.000000 
#    y 0.000000 3.005260 0.000000 
#    z 0.000000 0.000000 3.640020 
# 
# 
# High freq. dielectric constant tensor:
#      x y z
#    x 1.636820 0.000000 0.000000 
#    y 0.000000 1.647260 0.000000 
#    z 0.000000 0.000000 1.687820 
# 
# From -- ./inp_files/76666.got.cif
#   From: 2010.03.12/outbox.cif.g09.slc.cpg/sg65_39_cif.got.tgz:76666.got - 2010.04.10 20:52:16.
