data_PCOD8269887
_publ_section_title
;
Structure prediction by ZEFSAII (Michael W. Deem and Ramdas Pophale) SiO2 
 PCOD8269887
Probable space group: C M M M
;
_chemical_formula_sum "Si O2"
_cell_formula_units_Z 88
_cell_length_a 35.849080
_cell_length_b 8.976434
_cell_length_c 20.348653
_cell_angle_alpha 90.000000
_cell_angle_beta 90.000000
_cell_angle_gamma 90.000000
_cell_volume 6548.133466
_symmetry_space_group_name_H-M "C M M M"
_symmetry_group_IT_number 65
_symmetry_cell_setting 'orthorhombic'
loop_
_space_group_symop_operation_xyz
x,y,z
-x,-y,z
x,-y,-z
-x,y,-z
-x,-y,-z
x,y,-z
-x,y,z
x,-y,z
1/2+x,1/2+y,z
1/2-x,1/2-y,z
1/2+x,1/2-y,-z
1/2-x,1/2+y,-z
1/2-x,1/2-y,-z
1/2+x,1/2+y,-z
1/2-x,1/2+y,z
1/2+x,1/2-y,z
loop_
_atom_site_type_symbol
_atom_site_label
_atom_site_fract_x
_atom_site_fract_y
_atom_site_fract_z
Si Si1 0.210188 0.327328 0.194046
Si Si2 0.000000 0.831740 0.421597
Si Si3 0.209743 0.825953 0.071374
Si Si4 0.073464 0.667988 0.578222
Si Si5 0.852134 0.170787 0.577804
Si Si6 0.789960 0.326370 0.660728
O O1 0.214663 0.500000 0.177551
O O2 0.250000 0.250000 0.197511
O O3 0.187449 0.249154 0.133262
O O4 0.192124 0.303594 0.266142
O O5 0.036569 0.748526 0.394103
O O6 0.000000 0.830744 0.500000
O O7 0.000000 0.000000 0.394819
O O8 0.250000 0.750000 0.068928
O O9 0.214175 0.000000 0.085074
O O10 0.189964 0.798892 0.000000
O O11 0.072449 0.667954 0.500000
O O12 0.074701 0.500000 0.605638
O O13 0.109694 0.755514 0.603754
O O14 0.848853 0.185803 0.500000
O O15 0.817315 0.255537 0.608137
O O16 0.851895 0.000000 0.600515
O O17 0.784816 0.500000 0.645095
O O18 0.750000 0.250000 0.653814
#
# Coordination Sequence:
#
# PCOD8269887 Si02
#       6
#    16   8  16  16  16  16
#     4   9  16  25  37  51  66  85 110 140 174 212
#     4   9  15  23  37  57  79  99 117 137 164 205
#     4   9  15  21  31  48  68  88 108 131 163 203
#     4   9  16  26  40  57  76  96 116 140 173 213
#     4  10  20  32  44  57  72  91 117 151 191 230
#     4  10  20  32  44  56  69  89 119 154 192 230
#
# _framework density 13.438943999999999
#
# number of rings (size 3 to 8) (size 9 to 14) (size 15 to 20)
#    0.000    2.636    0.000    4.091    0.000    8.000 
#    0.000    0.000    0.000    0.000    0.000    0.000 
#    0.000    0.000    0.000    0.000    0.000    0.000 
#
# Total GULP energy -545169.370668 kJ/mol
# GULP energy per Si atom -12390.212970 kJ/mol
# Density = 1.340836 g / cm^3
# Si number density = 13.438944 Si / 1000 Ang^3
#
#
#
# Elastic Constant Matrix: (Units=GPa)
#
#
# Indices 1 2 3 4 5 6 
#
# 1 72.3099 44.6349 24.5851 0.0000 0.0000 0.0000
# 2 44.6349 124.2363 32.8719 0.0000 0.0000 0.0000
# 3 24.5851 32.8719 34.2885 0.0000 0.0000 0.0000
# 4 0.0000 0.0000 0.0000 19.6487 0.0000 0.0000
# 5 0.0000 0.0000 0.0000 0.0000 -0.0022 0.0000
# 6 0.0000 0.0000 0.0000 0.0000 0.0000 21.1278
#
#
#
# Elastic Compliance Matrix: (Units=1/GPa)
#
#
# Indices 1 2 3 4 5 6 
#
# 1 0.020042 -0.004553 -0.010005 0.000000 0.000000 0.000000
# 2 -0.004553 0.011819 -0.008066 0.000000 0.000000 0.000000
# 3 -0.010005 -0.008066 0.044071 0.000000 0.000000 0.000000
# 4 0.000000 0.000000 0.000000 0.050894 0.000000 0.000000
# 5 0.000000 0.000000 0.000000 0.000000********** 0.000000
# 6 0.000000 0.000000 0.000000 0.000000 0.000000 0.047331
#
#
# Mechanical properties :
#
#
# Convention : Reuss Voigt Hill
#
# Bulk Modulus (GPa) = 32.59130 48.33539 40.46335
# Shear Modulus (GPa) = -0.01086 16.73772 8.36343
#
# Velocity S-wave (km/s) = -0.08999 3.53294 2.49736
# Velocity P-wave (km/s) = 4.92882 7.25858 6.20404
#
# Compressibility (1/GPa) = 0.03068304
#
# Stress axis : x y z
#
# Youngs Moduli (GPa) = 49.89636 84.60731 22.69065
#
# Poissons Ratio (x) = 0.38523 0.22702
# Poissons Ratio (y) = 0.22719 0.18303
# Poissons Ratio (z) = 0.49921 0.68247
#
# Static dielectric constant tensor:
#      x y z
#    x 2.394290 0.000000 0.000000 
#    y 0.000000 2.947970 0.000000 
#    z 0.000000 0.000000 3.202370 
# 
# 
# High freq. dielectric constant tensor:
#      x y z
#    x 1.461310 0.000000 0.000000 
#    y 0.000000 1.538700 0.000000 
#    z 0.000000 0.000000 1.489040 
# 
# From -- ./inp_files/66202.got.cif
#   From: 2010.03.12/outbox.cif.g09.slc.cpg/sg65_34_cif.got.tgz:66202.got - 2010.04.10 20:52:16.
