data_PCOD8269579
_publ_section_title
;
Structure prediction by ZEFSAII (Michael W. Deem and Ramdas Pophale) SiO2 
 PCOD8269579
Probable space group: C M M M
;
_chemical_formula_sum "Si O2"
_cell_formula_units_Z 104
_cell_length_a 25.683722
_cell_length_b 17.486017
_cell_length_c 12.034619
_cell_angle_alpha 90.000000
_cell_angle_beta 90.000000
_cell_angle_gamma 90.000000
_cell_volume 5404.819595
_symmetry_space_group_name_H-M "C M M M"
_symmetry_group_IT_number 65
_symmetry_cell_setting 'orthorhombic'
loop_
_space_group_symop_operation_xyz
x,y,z
-x,-y,z
x,-y,-z
-x,y,-z
-x,-y,-z
x,y,-z
-x,y,z
x,-y,z
1/2+x,1/2+y,z
1/2-x,1/2-y,z
1/2+x,1/2-y,-z
1/2-x,1/2+y,-z
1/2-x,1/2-y,-z
1/2+x,1/2+y,-z
1/2-x,1/2+y,z
1/2+x,1/2-y,z
loop_
_atom_site_type_symbol
_atom_site_label
_atom_site_fract_x
_atom_site_fract_y
_atom_site_fract_z
Si Si1 0.798638 0.304603 0.626432
Si Si2 0.214852 0.912552 0.000000
Si Si3 0.000000 0.586005 0.629570
Si Si4 0.919780 0.714777 0.629000
Si Si5 0.851443 0.913353 0.621245
Si Si6 0.408020 0.589161 0.000000
Si Si7 0.442747 0.361138 0.762071
Si Si8 0.742274 0.409106 0.234963
O O1 0.791371 0.330990 0.500000
O O2 0.750000 0.250000 0.660587
O O3 0.857428 0.276066 0.645814
O O4 0.794235 0.379314 0.705377
O O5 0.153445 0.905723 0.000000
O O6 0.238370 0.874034 0.889162
O O7 0.232265 0.000000 0.000000
O O8 0.052973 0.633555 0.661248
O O9 0.000000 0.500000 0.685341
O O10 0.000000 0.572418 0.500000
O O11 0.933918 0.733409 0.500000
O O12 0.943172 0.774882 0.715799
O O13 0.855067 0.871414 0.500000
O O14 0.905339 0.912102 0.686574
O O15 0.806378 0.874670 0.694350
O O16 0.835779 0.000000 0.600123
O O17 0.428217 0.633989 0.891937
O O18 0.426107 0.500000 0.000000
O O19 0.500000 0.396059 0.748064
O O20 0.740711 0.500000 0.231304
#
# Coordination Sequence:
#
# PCOD8269579 Si02
#       8
#    16   8   8  16  16   8  16  16
#     4  10  21  35  53  82 120 153 184 233 294 359
#     4   9  18  35  58  78 106 149 194 239 278 324
#     4   9  18  36  62  89 117 150 194 249 304 362
#     4  10  21  38  59  87 121 154 193 241 303 370
#     4  10  20  32  49  76 110 149 191 232 280 346
#     4  11  23  40  58  82 113 157 210 250 283 327
#     4  12  23  36  56  78 110 155 194 243 292 338
#     4  10  19  35  57  80 109 147 191 234 283 343
#
# _framework density 19.242087000000001
#
# number of rings (size 3 to 8) (size 9 to 14) (size 15 to 20)
#    0.000    1.769    2.308    2.538    0.000    5.231 
#    0.000    3.462    0.000    0.000    0.000    1.077 
#    0.000    0.000    0.000    0.000    0.000    0.000 
#
# Total GULP energy -644265.650843 kJ/mol
# GULP energy per Si atom -12389.724055 kJ/mol
# Density = 1.919829 g / cm^3
# Si number density = 19.242087 Si / 1000 Ang^3
#
#
#
# Elastic Constant Matrix: (Units=GPa)
#
#
# Indices 1 2 3 4 5 6 
#
# 1 81.4144 18.5914 37.4883 0.0000 0.0000 0.0000
# 2 18.5914 64.9960 28.9256 0.0000 0.0000 0.0000
# 3 37.4883 28.9256 143.7488 0.0000 0.0000 0.0000
# 4 0.0000 0.0000 0.0000 21.0066 0.0000 0.0000
# 5 0.0000 0.0000 0.0000 0.0000 27.0861 0.0000
# 6 0.0000 0.0000 0.0000 0.0000 0.0000 29.2196
#
#
#
# Elastic Compliance Matrix: (Units=1/GPa)
#
#
# Indices 1 2 3 4 5 6 
#
# 1 0.014373 -0.002683 -0.003208 0.000000 0.000000 0.000000
# 2 -0.002683 0.017400 -0.002801 0.000000 0.000000 0.000000
# 3 -0.003208 -0.002801 0.008357 0.000000 0.000000 0.000000
# 4 0.000000 0.000000 0.000000 0.047604 0.000000 0.000000
# 5 0.000000 0.000000 0.000000 0.000000 0.036919 0.000000
# 6 0.000000 0.000000 0.000000 0.000000 0.000000 0.034224
#
#
# Mechanical properties :
#
#
# Convention : Reuss Voigt Hill
#
# Bulk Modulus (GPa) = 43.96878 51.12996 47.54937
# Shear Modulus (GPa) = 27.19692 29.13939 28.16815
#
# Velocity S-wave (km/s) = 3.76361 3.89570 3.83022
# Velocity P-wave (km/s) = 6.46423 6.84579 6.65775
#
# Compressibility (1/GPa) = 0.02274341
#
# Stress axis : x y z
#
# Youngs Moduli (GPa) = 69.57528 57.47171 119.66010
#
# Poissons Ratio (x) = 0.15422 0.38391
# Poissons Ratio (y) = 0.18670 0.33522
# Poissons Ratio (z) = 0.22322 0.16100
#
# Static dielectric constant tensor:
#      x y z
#    x 3.678800 0.000000 0.000000 
#    y 0.000000 3.426590 0.000000 
#    z 0.000000 0.000000 3.779050 
# 
# 
# High freq. dielectric constant tensor:
#      x y z
#    x 1.746010 0.000000 0.000000 
#    y 0.000000 1.730660 0.000000 
#    z 0.000000 0.000000 1.744670 
# 
# From -- ./inp_files/34166.got.cif
#   From: 2010.03.12/outbox.cif.g09.slc.cpg/sg65_18_cif.got.tgz:34166.got - 2010.04.10 20:52:16.
