data_PCOD8269632
_publ_section_title
;
Structure prediction by ZEFSAII (Michael W. Deem and Ramdas Pophale) SiO2 
 PCOD8269632
Probable space group: C M M M
;
_chemical_formula_sum "Si O2"
_cell_formula_units_Z 88
_cell_length_a 8.673340
_cell_length_b 28.552247
_cell_length_c 18.007578
_cell_angle_alpha 90.000000
_cell_angle_beta 90.000000
_cell_angle_gamma 90.000000
_cell_volume 4459.456869
_symmetry_space_group_name_H-M "C M M M"
_symmetry_group_IT_number 65
_symmetry_cell_setting 'orthorhombic'
loop_
_space_group_symop_operation_xyz
x,y,z
-x,-y,z
x,-y,-z
-x,y,-z
-x,-y,-z
x,y,-z
-x,y,z
x,-y,z
1/2+x,1/2+y,z
1/2-x,1/2-y,z
1/2+x,1/2-y,-z
1/2-x,1/2+y,-z
1/2-x,1/2-y,-z
1/2+x,1/2+y,-z
1/2-x,1/2+y,z
1/2+x,1/2-y,z
loop_
_atom_site_type_symbol
_atom_site_label
_atom_site_fract_x
_atom_site_fract_y
_atom_site_fract_z
Si Si1 0.818529 0.798115 0.352483
Si Si2 0.182534 0.108893 0.142903
Si Si3 0.323243 0.112764 0.416179
Si Si4 0.182269 0.701348 0.190963
Si Si5 0.816702 0.052481 0.000000
Si Si6 0.820315 0.945890 0.710036
O O1 0.750000 0.750000 0.385743
O O2 0.778485 0.840636 0.406629
O O3 0.746741 0.809113 0.272605
O O4 0.000000 0.792885 0.343600
O O5 0.264249 0.159289 0.137875
O O6 0.242571 0.079124 0.073079
O O7 0.234321 0.082188 0.217433
O O8 0.000000 0.115979 0.140437
O O9 0.300235 0.094399 0.500000
O O10 0.500000 0.125756 0.400000
O O11 0.271616 0.071522 0.361620
O O12 0.250000 0.750000 0.159488
O O13 0.000000 0.704938 0.193842
O O14 0.000000 0.050160 0.000000
O O15 0.748172 0.000000 0.000000
O O16 0.000000 0.937432 0.695154
O O17 0.782353 0.000000 0.723596
#
# Coordination Sequence:
#
# PCOD8269632 Si02
#       6
#    16  16  16  16   8  16
#     4  11  21  36  59  86 116 151 191 238 291 349
#     4  10  19  35  60  90 122 156 195 239 287 344
#     4  11  24  40  57  81 115 154 197 244 293 346
#     4  11  21  35  58  87 119 154 195 239 288 346
#     4   9  18  34  60  93 126 159 196 239 288 343
#     4  10  21  37  59  85 113 150 197 244 292 349
#
# _framework density 19.733345
#
# number of rings (size 3 to 8) (size 9 to 14) (size 15 to 20)
#    0.000    1.545    1.818    5.455    0.000    4.727 
#    0.000    2.727    0.000    2.182    0.000    0.000 
#    0.000    0.000    0.000    0.000    0.000    0.000 
#
# Total GULP energy -545791.752613 kJ/mol
# GULP energy per Si atom -12404.358014 kJ/mol
# Density = 1.968843 g / cm^3
# Si number density = 19.733345 Si / 1000 Ang^3
#
#
#
# Elastic Constant Matrix: (Units=GPa)
#
#
# Indices 1 2 3 4 5 6 
#
# 1 106.0109 52.0557 42.7478 0.0000 0.0000 0.0000
# 2 52.0557 149.4231 69.2785 0.0000 0.0000 0.0000
# 3 42.7478 69.2785 116.2061 0.0000 0.0000 0.0000
# 4 0.0000 0.0000 0.0000 29.4834 0.0000 0.0000
# 5 0.0000 0.0000 0.0000 0.0000 18.3400 0.0000
# 6 0.0000 0.0000 0.0000 0.0000 0.0000 33.3745
#
#
#
# Elastic Compliance Matrix: (Units=1/GPa)
#
#
# Indices 1 2 3 4 5 6 
#
# 1 0.011939 -0.002934 -0.002643 0.000000 0.000000 0.000000
# 2 -0.002934 0.009970 -0.004864 0.000000 0.000000 0.000000
# 3 -0.002643 -0.004864 0.012478 0.000000 0.000000 0.000000
# 4 0.000000 0.000000 0.000000 0.033917 0.000000 0.000000
# 5 0.000000 0.000000 0.000000 0.000000 0.054526 0.000000
# 6 0.000000 0.000000 0.000000 0.000000 0.000000 0.029963
#
#
# Mechanical properties :
#
#
# Convention : Reuss Voigt Hill
#
# Bulk Modulus (GPa) = 74.05071 77.75599 75.90335
# Shear Modulus (GPa) = 28.06194 30.07677 29.06935
#
# Velocity S-wave (km/s) = 3.77511 3.90828 3.84227
# Velocity P-wave (km/s) = 7.52390 7.73661 7.63100
#
# Compressibility (1/GPa) = 0.01350426
#
# Stress axis : x y z
#
# Youngs Moduli (GPa) = 83.75583 100.30168 80.14355
#
# Poissons Ratio (x) = 0.29430 0.21181
# Poissons Ratio (y) = 0.24575 0.38985
# Poissons Ratio (z) = 0.22135 0.48791
#
# Static dielectric constant tensor:
#      x y z
#    x 3.517980 0.000000 0.000000 
#    y 0.000000 3.770540 0.000000 
#    z 0.000000 0.000000 3.513850 
# 
# 
# High freq. dielectric constant tensor:
#      x y z
#    x 1.762380 0.000000 0.000000 
#    y 0.000000 1.783170 0.000000 
#    z 0.000000 0.000000 1.753690 
# 
# From -- ./inp_files/50343.got.cif
#   From: 2010.03.12/outbox.cif.g09.slc.cpg/sg65_26_cif.got.tgz:50343.got - 2010.04.10 20:52:16.
