data_PCOD8269641
_publ_section_title
;
Structure prediction by ZEFSAII (Michael W. Deem and Ramdas Pophale) SiO2 
 PCOD8269641
Probable space group: C M M M
;
_chemical_formula_sum "Si O2"
_cell_formula_units_Z 88
_cell_length_a 17.463388
_cell_length_b 10.929250
_cell_length_c 21.459907
_cell_angle_alpha 90.000000
_cell_angle_beta 90.000000
_cell_angle_gamma 90.000000
_cell_volume 4095.875046
_symmetry_space_group_name_H-M "C M M M"
_symmetry_group_IT_number 65
_symmetry_cell_setting 'orthorhombic'
loop_
_space_group_symop_operation_xyz
x,y,z
-x,-y,z
x,-y,-z
-x,y,-z
-x,-y,-z
x,y,-z
-x,y,z
x,-y,z
1/2+x,1/2+y,z
1/2-x,1/2-y,z
1/2+x,1/2-y,-z
1/2-x,1/2+y,-z
1/2-x,1/2-y,-z
1/2+x,1/2+y,-z
1/2-x,1/2+y,z
1/2+x,1/2-y,z
loop_
_atom_site_type_symbol
_atom_site_label
_atom_site_fract_x
_atom_site_fract_y
_atom_site_fract_z
Si Si1 0.916913 0.139904 0.169902
Si Si2 0.160221 0.273466 0.071183
Si Si3 0.910021 0.500000 0.711195
Si Si4 0.590540 0.231049 0.367997
Si Si5 0.091514 0.500000 0.855742
Si Si6 0.409156 0.863110 0.500000
Si Si7 0.189541 0.857844 0.718216
O O1 0.883475 0.157297 0.100231
O O2 0.856574 0.186151 0.220550
O O3 0.000000 0.208335 0.177435
O O4 0.932300 0.000000 0.181614
O O5 0.250000 0.250000 0.076404
O O6 0.132080 0.385006 0.113054
O O7 0.135240 0.293945 0.000000
O O8 0.879478 0.619084 0.675075
O O9 0.885034 0.500000 0.783336
O O10 0.000000 0.500000 0.705065
O O11 0.500000 0.249887 0.364288
O O12 0.618339 0.209031 0.438723
O O13 0.631959 0.352211 0.341111
O O14 0.000000 0.500000 0.866746
O O15 0.500000 0.874521 0.500000
O O16 0.374233 0.000000 0.500000
O O17 0.250000 0.750000 0.708551
O O18 0.220922 0.000000 0.723369
#
# Coordination Sequence:
#
# PCOD8269641 Si02
#       7
#    16  16   8  16   8   8  16
#     4  10  22  42  67  94 124 161 208 262 325 393
#     4  11  25  42  62  90 129 172 215 264 326 391
#     4   9  18  32  60  96 126 160 211 268 321 382
#     4  10  19  35  62  96 131 171 218 266 322 388
#     4  11  23  40  64  94 128 169 223 282 330 386
#     4   9  16  30  56  95 138 173 213 269 324 383
#     4  11  25  43  65  93 130 170 214 272 333 394
#
# _framework density 21.485029999999998
#
# number of rings (size 3 to 8) (size 9 to 14) (size 15 to 20)
#    0.000    1.727    0.909    3.000    2.545    4.727 
#    1.636    1.818    0.000    1.636    0.000    0.000 
#    0.000    0.000    0.000    0.000    0.000    0.000 
#
# Total GULP energy -545324.175915 kJ/mol
# GULP energy per Si atom -12393.731271 kJ/mol
# Density = 2.143613 g / cm^3
# Si number density = 21.485030 Si / 1000 Ang^3
#
#
#
# Elastic Constant Matrix: (Units=GPa)
#
#
# Indices 1 2 3 4 5 6 
#
# 1 72.8399 39.5162 45.4041 0.0000 0.0000 0.0000
# 2 39.5162 78.4187 48.7744 0.0000 0.0000 0.0000
# 3 45.4041 48.7744 178.2689 0.0000 0.0000 0.0000
# 4 0.0000 0.0000 0.0000 21.4828 0.0000 0.0000
# 5 0.0000 0.0000 0.0000 0.0000 35.8554 0.0000
# 6 0.0000 0.0000 0.0000 0.0000 0.0000 32.5954
#
#
#
# Elastic Compliance Matrix: (Units=1/GPa)
#
#
# Indices 1 2 3 4 5 6 
#
# 1 0.020002 -0.008328 -0.002816 0.000000 0.000000 0.000000
# 2 -0.008328 0.018834 -0.003032 0.000000 0.000000 0.000000
# 3 -0.002816 -0.003032 0.007156 0.000000 0.000000 0.000000
# 4 0.000000 0.000000 0.000000 0.046549 0.000000 0.000000
# 5 0.000000 0.000000 0.000000 0.000000 0.027890 0.000000
# 6 0.000000 0.000000 0.000000 0.000000 0.000000 0.030679
#
#
# Mechanical properties :
#
#
# Convention : Reuss Voigt Hill
#
# Bulk Modulus (GPa) = 56.68588 66.32411 61.50500
# Shear Modulus (GPa) = 26.97713 31.04225 29.00969
#
# Velocity S-wave (km/s) = 3.54732 3.80522 3.67853
# Velocity P-wave (km/s) = 6.57413 7.08824 6.83602
#
# Compressibility (1/GPa) = 0.01764108
#
# Stress axis : x y z
#
# Youngs Moduli (GPa) = 49.99528 53.09425 139.73783
#
# Poissons Ratio (x) = 0.44216 0.39348
# Poissons Ratio (y) = 0.41635 0.42369
# Poissons Ratio (z) = 0.14078 0.16098
#
# Static dielectric constant tensor:
#      x y z
#    x 4.383920 0.000000 0.000000 
#    y 0.000000 5.448520 0.000000 
#    z 0.000000 0.000000 4.103720 
# 
# 
# High freq. dielectric constant tensor:
#      x y z
#    x 1.840570 0.000000 0.000000 
#    y 0.000000 1.837800 0.000000 
#    z 0.000000 0.000000 1.847850 
# 
# From -- ./inp_files/63663.got.cif
#   From: 2010.03.12/outbox.cif.g09.slc.cpg/sg65_32_cif.got.tgz:63663.got - 2010.04.10 20:52:16.
