data_PCOD8269188
_publ_section_title
;
Structure prediction by ZEFSAII (Michael W. Deem and Ramdas Pophale) SiO2 
 PCOD8269188
Probable space group: C M M M
;
_chemical_formula_sum "Si O2"
_cell_formula_units_Z 120
_cell_length_a 28.435653
_cell_length_b 13.691431
_cell_length_c 14.794104
_cell_angle_alpha 90.000000
_cell_angle_beta 90.000000
_cell_angle_gamma 90.000000
_cell_volume 5759.711300
_symmetry_space_group_name_H-M "C M M M"
_symmetry_group_IT_number 65
_symmetry_cell_setting 'orthorhombic'
loop_
_space_group_symop_operation_xyz
x,y,z
-x,-y,z
x,-y,-z
-x,y,-z
-x,-y,-z
x,y,-z
-x,y,z
x,-y,z
1/2+x,1/2+y,z
1/2-x,1/2-y,z
1/2+x,1/2-y,-z
1/2-x,1/2+y,-z
1/2-x,1/2-y,-z
1/2+x,1/2+y,-z
1/2-x,1/2+y,z
1/2+x,1/2-y,z
loop_
_atom_site_type_symbol
_atom_site_label
_atom_site_fract_x
_atom_site_fract_y
_atom_site_fract_z
Si Si1 0.000000 0.891991 0.607080
Si Si2 0.403219 0.300101 0.398965
Si Si3 0.052834 0.190108 0.899222
Si Si4 0.446733 0.108312 0.363780
Si Si5 0.420441 0.890694 0.159815
Si Si6 0.821578 0.614116 0.899738
Si Si7 0.718960 0.384056 0.896773
Si Si8 0.365330 0.384349 0.225889
O O1 0.047023 0.838565 0.640007
O O2 0.000000 0.895386 0.500000
O O3 0.000000 0.000000 0.648947
O O4 0.390538 0.339734 0.500000
O O5 0.408982 0.182916 0.405803
O O6 0.364680 0.334490 0.325762
O O7 0.054795 0.308579 0.900208
O O8 0.087321 0.141908 0.827170
O O9 0.000000 0.157478 0.873779
O O10 0.065546 0.153132 0.000000
O O11 0.500000 0.135408 0.393715
O O12 0.444258 0.111674 0.256415
O O13 0.433899 0.000000 0.399003
O O14 0.364648 0.862201 0.167827
O O15 0.425702 0.000000 0.116768
O O16 0.812062 0.500000 0.904651
O O17 0.770875 0.659447 0.870139
O O18 0.835467 0.652433 0.000000
O O19 0.717554 0.500000 0.886460
O O20 0.679012 0.340506 0.830175
O O21 0.707071 0.354255 0.000000
O O22 0.361923 0.500000 0.239149
#
# Coordination Sequence:
#
# PCOD8269188 Si02
#       8
#     8  16  16  16  16  16  16  16
#     4   9  18  32  51  77 106 136 172 219 275 331
#     4  11  22  37  57  82 110 139 179 232 286 341
#     4  11  24  38  52  75 110 152 196 233 265 317
#     4  10  20  35  56  81 111 148 187 228 278 337
#     4  10  19  33  55  82 113 149 185 225 275 331
#     4   8  14  27  51  82 112 141 178 227 278 327
#     4   8  15  31  55  82 111 144 184 229 276 327
#     4  11  23  38  58  79 107 148 187 231 283 331
#
# _framework density 20.834377
#
# number of rings (size 3 to 8) (size 9 to 14) (size 15 to 20)
#    0.000    2.200    2.000    2.400    0.933    3.733 
#    0.000    2.667    0.000    2.400    0.000    1.867 
#    0.000    5.333    0.000    0.000    0.000    0.000 
#
# Total GULP energy -743597.780149 kJ/mol
# GULP energy per Si atom -12393.296336 kJ/mol
# Density = 2.078696 g / cm^3
# Si number density = 20.834377 Si / 1000 Ang^3
#
#
#
# Elastic Constant Matrix: (Units=GPa)
#
#
# Indices 1 2 3 4 5 6 
#
# 1 91.3556 10.3142 47.3895 0.0000 0.0000 0.0000
# 2 10.3142 54.7537 8.6096 0.0000 0.0000 0.0000
# 3 47.3895 8.6096 100.8156 0.0000 0.0000 0.0000
# 4 0.0000 0.0000 0.0000 14.3378 0.0000 0.0000
# 5 0.0000 0.0000 0.0000 0.0000 11.2225 0.0000
# 6 0.0000 0.0000 0.0000 0.0000 0.0000 11.4753
#
#
#
# Elastic Compliance Matrix: (Units=1/GPa)
#
#
# Indices 1 2 3 4 5 6 
#
# 1 0.014630 -0.001697 -0.006732 0.000000 0.000000 0.000000
# 2 -0.001697 0.018709 -0.000800 0.000000 0.000000 0.000000
# 3 -0.006732 -0.000800 0.013152 0.000000 0.000000 0.000000
# 4 0.000000 0.000000 0.000000 0.069746 0.000000 0.000000
# 5 0.000000 0.000000 0.000000 0.000000 0.089107 0.000000
# 6 0.000000 0.000000 0.000000 0.000000 0.000000 0.087144
#
#
# Mechanical properties :
#
#
# Convention : Reuss Voigt Hill
#
# Bulk Modulus (GPa) = 35.67293 42.17237 38.92265
# Shear Modulus (GPa) = 15.61082 19.44787 17.52934
#
# Velocity S-wave (km/s) = 2.74027 3.05856 2.90378
# Velocity P-wave (km/s) = 5.21262 5.72352 5.47404
#
# Compressibility (1/GPa) = 0.02803246
#
# Stress axis : x y z
#
# Youngs Moduli (GPa) = 68.35257 53.44985 76.03478
#
# Poissons Ratio (x) = 0.09072 0.51187
# Poissons Ratio (y) = 0.11602 0.06082
# Poissons Ratio (z) = 0.46015 0.04275
#
# Static dielectric constant tensor:
#      x y z
#    x 3.899710 0.000000 0.000000 
#    y 0.000000 3.942980 0.000000 
#    z 0.000000 0.000000 3.537880 
# 
# 
# High freq. dielectric constant tensor:
#      x y z
#    x 1.794070 0.000000 0.000000 
#    y 0.000000 1.827100 0.000000 
#    z 0.000000 0.000000 1.789800 
# 
# From -- ./inp_files/48110.got.cif
#   From: 2010.03.12/outbox.cif.g09.slc.cpg/sg65_25_cif.got.tgz:48110.got - 2010.04.10 20:52:16.
