data_PCOD8269382
_publ_section_title
;
Structure prediction by ZEFSAII (Michael W. Deem and Ramdas Pophale) SiO2 
 PCOD8269382
Probable space group: C M M M
;
_chemical_formula_sum "Si O2"
_cell_formula_units_Z 88
_cell_length_a 18.496499
_cell_length_b 8.876522
_cell_length_c 29.426302
_cell_angle_alpha 90.000000
_cell_angle_beta 90.000000
_cell_angle_gamma 90.000000
_cell_volume 4831.345044
_symmetry_space_group_name_H-M "C M M M"
_symmetry_group_IT_number 65
_symmetry_cell_setting 'orthorhombic'
loop_
_space_group_symop_operation_xyz
x,y,z
-x,-y,z
x,-y,-z
-x,y,-z
-x,-y,-z
x,y,-z
-x,y,z
x,-y,z
1/2+x,1/2+y,z
1/2-x,1/2-y,z
1/2+x,1/2-y,-z
1/2-x,1/2+y,-z
1/2-x,1/2-y,-z
1/2+x,1/2+y,-z
1/2-x,1/2+y,z
1/2+x,1/2-y,z
loop_
_atom_site_type_symbol
_atom_site_label
_atom_site_fract_x
_atom_site_fract_y
_atom_site_fract_z
Si Si1 0.817372 0.835611 0.386604
Si Si2 0.171729 0.822036 0.128525
Si Si3 0.582895 0.826849 0.947273
Si Si4 0.414883 0.825462 0.209607
Si Si5 0.674033 0.679365 0.714202
Si Si6 0.584573 0.500000 0.447620
O O1 0.750000 0.750000 0.409252
O O2 0.842088 0.768308 0.338027
O O3 0.785943 0.000000 0.375052
O O4 0.882995 0.849861 0.423079
O O5 0.250000 0.750000 0.132731
O O6 0.136097 0.780542 0.080405
O O7 0.121426 0.760598 0.168187
O O8 0.179062 0.000000 0.132830
O O9 0.500000 0.783044 0.936921
O O10 0.596380 0.000000 0.933089
O O11 0.600566 0.803023 0.000000
O O12 0.500000 0.804410 0.205267
O O13 0.389899 0.751386 0.256707
O O14 0.392444 0.000000 0.208430
O O15 0.674454 0.500000 0.721067
O O16 0.750000 0.750000 0.730558
O O17 0.500000 0.500000 0.440741
O O18 0.607294 0.500000 0.500000
#
# Coordination Sequence:
#
# PCOD8269382 Si02
#       6
#    16  16  16  16  16   8
#     4   8  17  32  52  80 107 144 186 230 278 331
#     4  12  25  40  59  82 111 146 185 230 277 326
#     4   9  19  38  63  88 115 147 180 220 274 331
#     4  11  24  40  57  80 110 145 183 225 276 333
#     4  10  19  34  55  80 109 143 179 227 271 327
#     4   9  18  32  52  80 113 149 189 235 287 339
#
# _framework density 18.214389000000001
#
# number of rings (size 3 to 8) (size 9 to 14) (size 15 to 20)
#    0.545    1.545    0.000    4.364    0.000    6.545 
#    0.000    0.909    0.000    0.545    0.000    1.273 
#    0.000    0.000    0.000    0.000    0.000    0.000 
#
# Total GULP energy -545445.612563 kJ/mol
# GULP energy per Si atom -12396.491195 kJ/mol
# Density = 1.817293 g / cm^3
# Si number density = 18.214389 Si / 1000 Ang^3
#
#
#
# Elastic Constant Matrix: (Units=GPa)
#
#
# Indices 1 2 3 4 5 6 
#
# 1 103.6888 57.6869 64.4083 0.0000 0.0000 0.0000
# 2 57.6869 112.0462 47.1334 0.0000 0.0000 0.0000
# 3 64.4083 47.1334 110.0251 0.0000 0.0000 0.0000
# 4 0.0000 0.0000 0.0000 27.4227 0.0000 0.0000
# 5 0.0000 0.0000 0.0000 0.0000 42.7649 0.0000
# 6 0.0000 0.0000 0.0000 0.0000 0.0000 32.6109
#
#
#
# Elastic Compliance Matrix: (Units=1/GPa)
#
#
# Indices 1 2 3 4 5 6 
#
# 1 0.017818 -0.005838 -0.007930 0.000000 0.000000 0.000000
# 2 -0.005838 0.012799 -0.002066 0.000000 0.000000 0.000000
# 3 -0.007930 -0.002066 0.014616 0.000000 0.000000 0.000000
# 4 0.000000 0.000000 0.000000 0.036466 0.000000 0.000000
# 5 0.000000 0.000000 0.000000 0.000000 0.023384 0.000000
# 6 0.000000 0.000000 0.000000 0.000000 0.000000 0.030665
#
#
# Mechanical properties :
#
#
# Convention : Reuss Voigt Hill
#
# Bulk Modulus (GPa) = 73.70985 73.80191 73.75588
# Shear Modulus (GPa) = 29.08068 30.99514 30.03791
#
# Velocity S-wave (km/s) = 4.00005 4.12962 4.06535
# Velocity P-wave (km/s) = 7.86700 7.95895 7.91311
#
# Compressibility (1/GPa) = 0.01356671
#
# Stress axis : x y z
#
# Youngs Moduli (GPa) = 56.12406 78.12856 68.41955
#
# Poissons Ratio (x) = 0.45610 0.54254
# Poissons Ratio (y) = 0.32764 0.14133
# Poissons Ratio (z) = 0.44504 0.16139
#
# Static dielectric constant tensor:
#      x y z
#    x 3.271680 0.000000 0.000000 
#    y 0.000000 3.349430 0.000000 
#    z 0.000000 0.000000 3.412100 
# 
# 
# High freq. dielectric constant tensor:
#      x y z
#    x 1.703510 0.000000 0.000000 
#    y 0.000000 1.700020 0.000000 
#    z 0.000000 0.000000 1.712130 
# 
# From -- ./inp_files/77964.got.cif
#   From: 2010.03.12/outbox.cif.g09.slc.cpg/sg65_39_cif.got.tgz:77964.got - 2010.04.10 20:52:16.
