data_PCOD8269647
_publ_section_title
;
Structure prediction by ZEFSAII (Michael W. Deem and Ramdas Pophale) SiO2 
 PCOD8269647
Probable space group: C M M M
;
_chemical_formula_sum "Si O2"
_cell_formula_units_Z 84
_cell_length_a 15.355298
_cell_length_b 19.233177
_cell_length_c 13.426832
_cell_angle_alpha 90.000000
_cell_angle_beta 90.000000
_cell_angle_gamma 90.000000
_cell_volume 3965.361928
_symmetry_space_group_name_H-M "C M M M"
_symmetry_group_IT_number 65
_symmetry_cell_setting 'orthorhombic'
loop_
_space_group_symop_operation_xyz
x,y,z
-x,-y,z
x,-y,-z
-x,y,-z
-x,-y,-z
x,y,-z
-x,y,z
x,-y,z
1/2+x,1/2+y,z
1/2-x,1/2-y,z
1/2+x,1/2-y,-z
1/2-x,1/2+y,-z
1/2-x,1/2-y,-z
1/2+x,1/2+y,-z
1/2-x,1/2+y,z
1/2+x,1/2-y,z
loop_
_atom_site_type_symbol
_atom_site_label
_atom_site_fract_x
_atom_site_fract_y
_atom_site_fract_z
Si Si1 0.642195 0.500000 0.608956
Si Si2 0.902022 0.419763 0.304786
Si Si3 0.260178 0.642771 0.390103
Si Si4 0.193024 0.579344 0.890190
Si Si5 0.000000 0.149871 0.118492
Si Si6 0.500000 0.500000 0.223858
Si Si7 0.684885 0.690061 0.810914
O O1 0.594235 0.500000 0.500000
O O2 0.702648 0.566165 0.617162
O O3 0.581026 0.500000 0.703182
O O4 0.884793 0.500000 0.334480
O O5 0.842129 0.366346 0.365973
O O6 0.885733 0.408436 0.186638
O O7 0.000000 0.398110 0.329081
O O8 0.272629 0.675645 0.500000
O O9 0.309152 0.691591 0.310075
O O10 0.222692 0.500000 0.892552
O O11 0.279826 0.617958 0.854335
O O12 0.162655 0.604165 0.000000
O O13 0.084129 0.194586 0.155659
O O14 0.000000 0.070608 0.158892
O O15 0.000000 0.146533 0.000000
O O16 0.750000 0.750000 0.853220
#
# Coordination Sequence:
#
# PCOD8269647 Si02
#       7
#     8  16  16  16   8   4  16
#     4  10  19  35  64 100 134 168 207 263 341 405
#     4   9  17  29  49  81 121 160 202 253 305 364
#     4  10  20  37  62  89 124 167 211 264 332 398
#     4   9  19  36  61  89 120 162 209 264 326 383
#     4  12  27  43  69 102 132 177 224 273 338 397
#     4  12  22  40  68 108 144 156 208 286 334 394
#     4  11  25  46  66  90 131 173 216 268 329 397
#
# _framework density 21.183437999999999
#
# number of rings (size 3 to 8) (size 9 to 14) (size 15 to 20)
#    0.000    1.905    2.857    0.857    2.667    2.667 
#    6.857    3.333    0.000    0.000    0.000    0.000 
#    0.000    0.000    0.000    0.000    0.000    0.000 
#
# Total GULP energy -520569.796651 kJ/mol
# GULP energy per Si atom -12394.518968 kJ/mol
# Density = 2.113522 g / cm^3
# Si number density = 21.183438 Si / 1000 Ang^3
#
#
#
# Elastic Constant Matrix: (Units=GPa)
#
#
# Indices 1 2 3 4 5 6 
#
# 1 142.9603 36.3403 52.3283 0.0000 0.0000 0.0000
# 2 36.3403 54.2703 28.5423 0.0000 0.0000 0.0000
# 3 52.3283 28.5423 145.7271 0.0000 0.0000 0.0000
# 4 0.0000 0.0000 0.0000 25.9237 0.0000 0.0000
# 5 0.0000 0.0000 0.0000 0.0000 27.7145 0.0000
# 6 0.0000 0.0000 0.0000 0.0000 0.0000 69.4678
#
#
#
# Elastic Compliance Matrix: (Units=1/GPa)
#
#
# Indices 1 2 3 4 5 6 
#
# 1 0.009076 -0.004864 -0.002306 0.000000 0.000000 0.000000
# 2 -0.004864 0.023149 -0.002787 0.000000 0.000000 0.000000
# 3 -0.002306 -0.002787 0.008236 0.000000 0.000000 0.000000
# 4 0.000000 0.000000 0.000000 0.038575 0.000000 0.000000
# 5 0.000000 0.000000 0.000000 0.000000 0.036082 0.000000
# 6 0.000000 0.000000 0.000000 0.000000 0.000000 0.014395
#
#
# Mechanical properties :
#
#
# Convention : Reuss Voigt Hill
#
# Bulk Modulus (GPa) = 48.67239 64.15328 56.41283
# Shear Modulus (GPa) = 31.99438 39.67099 35.83268
#
# Velocity S-wave (km/s) = 3.89054 4.33221 4.11730
# Velocity P-wave (km/s) = 6.57329 7.44140 7.02078
#
# Compressibility (1/GPa) = 0.02054553
#
# Stress axis : x y z
#
# Youngs Moduli (GPa) = 110.18581 43.19758 121.41532
#
# Poissons Ratio (x) = 0.21012 0.28000
# Poissons Ratio (y) = 0.53597 0.33843
# Poissons Ratio (z) = 0.25411 0.12041
#
# Static dielectric constant tensor:
#      x y z
#    x 3.697410 0.000000 0.000000 
#    y 0.000000 3.666350 0.000000 
#    z 0.000000 0.000000 4.294350 
# 
# 
# High freq. dielectric constant tensor:
#      x y z
#    x 1.817720 0.000000 0.000000 
#    y 0.000000 1.812760 0.000000 
#    z 0.000000 0.000000 1.841500 
# 
# From -- ./inp_files/40277.got.cif
#   From: 2010.03.12/outbox.cif.g09.slc.cpg/sg65_21_cif.got.tgz:40277.got - 2010.04.10 20:52:16.
