data_PCOD8269867
_publ_section_title
;
Structure prediction by ZEFSAII (Michael W. Deem and Ramdas Pophale) SiO2 
 PCOD8269867
Probable space group: C M M M
;
_chemical_formula_sum "Si O2"
_cell_formula_units_Z 104
_cell_length_a 24.945223
_cell_length_b 17.238148
_cell_length_c 14.119969
_cell_angle_alpha 90.000000
_cell_angle_beta 90.000000
_cell_angle_gamma 90.000000
_cell_volume 6071.720047
_symmetry_space_group_name_H-M "C M M M"
_symmetry_group_IT_number 65
_symmetry_cell_setting 'orthorhombic'
loop_
_space_group_symop_operation_xyz
x,y,z
-x,-y,z
x,-y,-z
-x,y,-z
-x,-y,-z
x,y,-z
-x,y,z
x,-y,z
1/2+x,1/2+y,z
1/2-x,1/2-y,z
1/2+x,1/2-y,-z
1/2-x,1/2+y,-z
1/2-x,1/2-y,-z
1/2+x,1/2+y,-z
1/2-x,1/2+y,z
1/2+x,1/2-y,z
loop_
_atom_site_type_symbol
_atom_site_label
_atom_site_fract_x
_atom_site_fract_y
_atom_site_fract_z
Si Si1 0.562110 0.908028 0.794653
Si Si2 0.837456 0.823832 0.387876
Si Si3 0.438100 0.910135 0.000000
Si Si4 0.764089 0.091732 0.751281
Si Si5 0.157000 0.684122 0.740510
Si Si6 0.440965 0.586718 0.387649
Si Si7 0.693975 0.706674 0.894196
O O1 0.500000 0.885206 0.778012
O O2 0.600546 0.860650 0.724094
O O3 0.568883 0.000000 0.780664
O O4 0.584021 0.879866 0.899226
O O5 0.831356 0.825623 0.500000
O O6 0.791369 0.878562 0.345323
O O7 0.830897 0.735725 0.352133
O O8 0.895343 0.854822 0.351574
O O9 0.500000 0.891365 0.000000
O O10 0.427140 0.000000 0.000000
O O11 0.702951 0.120235 0.752884
O O12 0.796664 0.124560 0.841902
O O13 0.765098 0.000000 0.756311
O O14 0.153826 0.740970 0.831772
O O15 0.440263 0.584399 0.500000
O O16 0.500000 0.614380 0.352198
O O17 0.429075 0.500000 0.348817
O O18 0.750000 0.750000 0.900306
O O19 0.670365 0.693292 0.000000
#
# Coordination Sequence:
#
# PCOD8269867 Si02
#       7
#    16  16   8  16  16  16  16
#     4   9  17  30  48  71 101 133 165 203 243 282
#     4  10  20  34  50  69  96 128 160 200 252 300
#     4   7  12  24  42  66  93 120 153 193 233 272
#     4  10  20  33  49  70  94 122 163 207 246 292
#     4  10  20  31  48  71  96 129 164 203 244 291
#     4   8  14  26  46  71  94 115 145 189 239 289
#     4   8  16  31  47  66  95 125 152 187 234 287
#
# _framework density 17.128589999999999
#
# number of rings (size 3 to 8) (size 9 to 14) (size 15 to 20)
#    0.000    3.000    0.000    3.692    1.077    3.077 
#    0.000    0.000    0.000    1.385    0.000    1.077 
#    0.000    0.000    0.000   16.308    0.000    0.615 
#
# Total GULP energy -644279.760320 kJ/mol
# GULP energy per Si atom -12389.995391 kJ/mol
# Density = 1.708960 g / cm^3
# Si number density = 17.128590 Si / 1000 Ang^3
#
#
#
# Elastic Constant Matrix: (Units=GPa)
#
#
# Indices 1 2 3 4 5 6 
#
# 1 83.4829 46.8245 25.1891 0.0000 0.0000 0.0000
# 2 46.8245 112.1325 39.2740 0.0000 0.0000 0.0000
# 3 25.1891 39.2740 84.9037 0.0000 0.0000 0.0000
# 4 0.0000 0.0000 0.0000 11.2885 0.0000 0.0000
# 5 0.0000 0.0000 0.0000 0.0000 15.7554 0.0000
# 6 0.0000 0.0000 0.0000 0.0000 0.0000 26.9795
#
#
#
# Elastic Compliance Matrix: (Units=1/GPa)
#
#
# Indices 1 2 3 4 5 6 
#
# 1 0.015912 -0.005956 -0.001966 0.000000 0.000000 0.000000
# 2 -0.005956 0.012872 -0.004187 0.000000 0.000000 0.000000
# 3 -0.001966 -0.004187 0.014298 0.000000 0.000000 0.000000
# 4 0.000000 0.000000 0.000000 0.088586 0.000000 0.000000
# 5 0.000000 0.000000 0.000000 0.000000 0.063470 0.000000
# 6 0.000000 0.000000 0.000000 0.000000 0.000000 0.037065
#
#
# Mechanical properties :
#
#
# Convention : Reuss Voigt Hill
#
# Bulk Modulus (GPa) = 53.01028 55.89938 54.45483
# Shear Modulus (GPa) = 19.03244 22.08677 20.55961
#
# Velocity S-wave (km/s) = 3.33701 3.59481 3.46831
# Velocity P-wave (km/s) = 6.77223 7.06656 6.92096
#
# Compressibility (1/GPa) = 0.01886427
#
# Stress axis : x y z
#
# Youngs Moduli (GPa) = 62.84410 77.68964 69.93986
#
# Poissons Ratio (x) = 0.46274 0.13748
# Poissons Ratio (y) = 0.37432 0.29284
# Poissons Ratio (z) = 0.12353 0.32529
#
# Static dielectric constant tensor:
#      x y z
#    x 3.240860 0.000000 0.000000 
#    y 0.000000 3.084310 0.000000 
#    z 0.000000 0.000000 3.255070 
# 
# 
# High freq. dielectric constant tensor:
#      x y z
#    x 1.655060 0.000000 0.000000 
#    y 0.000000 1.650690 0.000000 
#    z 0.000000 0.000000 1.637640 
# 
# From -- ./inp_files/45917.got.cif
#   From: 2010.03.12/outbox.cif.g09.slc.cpg/sg65_23_cif.got.tgz:45917.got - 2010.04.10 20:52:16.
