data_PCOD8269753
_publ_section_title
;
Structure prediction by ZEFSAII (Michael W. Deem and Ramdas Pophale) SiO2 
 PCOD8269753
Probable space group: C M M M
;
_chemical_formula_sum "Si O2"
_cell_formula_units_Z 72
_cell_length_a 9.208570
_cell_length_b 30.000288
_cell_length_c 17.719996
_cell_angle_alpha 90.000000
_cell_angle_beta 90.000000
_cell_angle_gamma 90.000000
_cell_volume 4895.321702
_symmetry_space_group_name_H-M "C M M M"
_symmetry_group_IT_number 65
_symmetry_cell_setting 'orthorhombic'
loop_
_space_group_symop_operation_xyz
x,y,z
-x,-y,z
x,-y,-z
-x,y,-z
-x,-y,-z
x,y,-z
-x,y,z
x,-y,z
1/2+x,1/2+y,z
1/2-x,1/2-y,z
1/2+x,1/2-y,-z
1/2-x,1/2+y,-z
1/2-x,1/2-y,-z
1/2+x,1/2+y,-z
1/2-x,1/2+y,z
1/2+x,1/2-y,z
loop_
_atom_site_type_symbol
_atom_site_label
_atom_site_fract_x
_atom_site_fract_y
_atom_site_fract_z
Si Si1 0.669782 0.110278 0.087819
Si Si2 0.164824 0.053170 0.500000
Si Si3 0.340096 0.790768 0.089544
Si Si4 0.164524 0.446956 0.354189
Si Si5 0.331811 0.552419 0.206230
O O1 0.500000 0.104240 0.107312
O O2 0.722738 0.160356 0.109701
O O3 0.766719 0.075453 0.132676
O O4 0.696886 0.100997 0.000000
O O5 0.248860 0.071538 0.426614
O O6 0.000000 0.071430 0.500000
O O7 0.163386 0.000000 0.500000
O O8 0.500000 0.786489 0.124117
O O9 0.250000 0.750000 0.125560
O O10 0.346744 0.786046 0.000000
O O11 0.163335 0.500000 0.356220
O O12 0.246219 0.429881 0.279526
O O13 0.000000 0.428369 0.354986
O O14 0.500000 0.564928 0.215743
O O15 0.310183 0.500000 0.195728
#
# Coordination Sequence:
#
# PCOD8269753 Si02
#       5
#    16   8  16  16  16
#     4   9  18  31  44  58  77 103 136 170 203 242
#     4   9  15  23  37  57  79  99 122 157 198 237
#     4   8  14  25  41  60  79  97 120 154 197 244
#     4   9  16  26  40  56  74  99 131 163 197 239
#     4  10  20  31  41  55  77 105 138 175 210 239
#
# _framework density 14.70792
#
# number of rings (size 3 to 8) (size 9 to 14) (size 15 to 20)
#    0.000    3.000    0.000    3.000    0.000    7.111 
#    0.000    4.444    0.000    0.000    0.000    0.000 
#    0.000    0.000    0.000    1.000    0.000   13.667 
#
# Total GULP energy -446235.084231 kJ/mol
# GULP energy per Si atom -12395.419006 kJ/mol
# Density = 1.467444 g / cm^3
# Si number density = 14.707920 Si / 1000 Ang^3
#
#
#
# Elastic Constant Matrix: (Units=GPa)
#
#
# Indices 1 2 3 4 5 6 
#
# 1 118.6934 38.8908 59.4283 0.0000 0.0000 0.0000
# 2 38.8908 39.2655 33.6465 0.0000 0.0000 0.0000
# 3 59.4283 33.6465 79.9310 0.0000 0.0000 0.0000
# 4 0.0000 0.0000 0.0000 0.3674 0.0000 0.0000
# 5 0.0000 0.0000 0.0000 0.0000 27.4844 0.0000
# 6 0.0000 0.0000 0.0000 0.0000 0.0000 21.7182
#
#
#
# Elastic Compliance Matrix: (Units=1/GPa)
#
#
# Indices 1 2 3 4 5 6 
#
# 1 0.014961 -0.008270 -0.007643 0.000000 0.000000 0.000000
# 2 -0.008270 0.044408 -0.012545 0.000000 0.000000 0.000000
# 3 -0.007643 -0.012545 0.023474 0.000000 0.000000 0.000000
# 4 0.000000 0.000000 0.000000 2.721732 0.000000 0.000000
# 5 0.000000 0.000000 0.000000 0.000000 0.036384 0.000000
# 6 0.000000 0.000000 0.000000 0.000000 0.000000 0.046044
#
#
# Mechanical properties :
#
#
# Convention : Reuss Voigt Hill
#
# Bulk Modulus (GPa) = 38.56712 55.75791 47.16251
# Shear Modulus (GPa) = 1.69345 16.97563 9.33454
#
# Velocity S-wave (km/s) = 1.07419 3.40101 2.52198
# Velocity P-wave (km/s) = 5.27422 7.30855 6.37308
#
# Compressibility (1/GPa) = 0.02592882
#
# Stress axis : x y z
#
# Youngs Moduli (GPa) = 66.83969 22.51847 42.60087
#
# Poissons Ratio (x) = 0.18622 0.32558
# Poissons Ratio (y) = 0.55273 0.53443
# Poissons Ratio (z) = 0.51082 0.28249
#
# Static dielectric constant tensor:
#      x y z
#    x 3.088160 0.000000 0.000000 
#    y 0.000000 2.604940 0.000000 
#    z 0.000000 0.000000 2.730420 
# 
# 
# High freq. dielectric constant tensor:
#      x y z
#    x 1.576230 0.000000 0.000000 
#    y 0.000000 1.517160 0.000000 
#    z 0.000000 0.000000 1.542240 
# 
# From -- ./inp_files/37007.got.cif
#   From: 2010.03.12/outbox.cif.g09.slc.cpg/sg65_19_cif.got.tgz:37007.got - 2010.04.10 20:52:16.
