data_PCOD8269956
_publ_section_title
;
Structure prediction by ZEFSAII (Michael W. Deem and Ramdas Pophale) SiO2 
 PCOD8269956
Probable space group: C M M M
;
_chemical_formula_sum "Si O2"
_cell_formula_units_Z 96
_cell_length_a 18.965011
_cell_length_b 9.614411
_cell_length_c 30.958778
_cell_angle_alpha 90.000000
_cell_angle_beta 90.000000
_cell_angle_gamma 90.000000
_cell_volume 5644.943409
_symmetry_space_group_name_H-M "C M M M"
_symmetry_group_IT_number 65
_symmetry_cell_setting 'orthorhombic'
loop_
_space_group_symop_operation_xyz
x,y,z
-x,-y,z
x,-y,-z
-x,y,-z
-x,-y,-z
x,y,-z
-x,y,z
x,-y,z
1/2+x,1/2+y,z
1/2-x,1/2-y,z
1/2+x,1/2-y,-z
1/2-x,1/2+y,-z
1/2-x,1/2-y,-z
1/2+x,1/2+y,-z
1/2-x,1/2+y,z
1/2+x,1/2-y,z
loop_
_atom_site_type_symbol
_atom_site_label
_atom_site_fract_x
_atom_site_fract_y
_atom_site_fract_z
Si Si1 0.321524 0.164129 0.206964
Si Si2 0.422121 0.835004 0.621079
Si Si3 0.079092 0.664816 0.283002
Si Si4 0.081061 0.339151 0.125889
Si Si5 0.083742 0.843855 0.047555
Si Si6 0.319168 0.839497 0.548203
O O1 0.250000 0.250000 0.202699
O O2 0.363778 0.220540 0.248889
O O3 0.371140 0.198534 0.166567
O O4 0.304457 0.000000 0.210014
O O5 0.500000 0.773678 0.613315
O O6 0.395750 0.790061 0.668891
O O7 0.372628 0.775967 0.583377
O O8 0.424743 0.000000 0.618000
O O9 0.075206 0.500000 0.279106
O O10 0.000000 0.723476 0.273623
O O11 0.085907 0.500000 0.113977
O O12 0.112672 0.257144 0.084757
O O13 0.000000 0.297273 0.136332
O O14 0.000000 0.838414 0.047427
O O15 0.109975 0.000000 0.057524
O O16 0.111358 0.796944 0.000000
O O17 0.351660 0.824548 0.500000
O O18 0.250000 0.750000 0.552577
O O19 0.300890 0.000000 0.558050
#
# Coordination Sequence:
#
# PCOD8269956 Si02
#       6
#    16  16  16  16  16  16
#     4  10  20  32  46  66  91 117 146 181 220 261
#     4   8  14  25  43  67  89 110 143 186 226 261
#     4   8  14  27  47  67  87 113 146 183 221 263
#     4   9  17  29  46  67  89 115 148 183 217 254
#     4   8  14  25  42  66  94 119 143 175 217 262
#     4   9  17  28  42  62  89 119 149 182 220 262
#
# _framework density 17.006371000000001
#
# number of rings (size 3 to 8) (size 9 to 14) (size 15 to 20)
#    0.000    3.333    0.000    2.000    0.000    4.000 
#    0.000    3.333    0.000    2.500    0.000    4.667 
#    0.000    0.000    0.000    0.000    0.000    0.000 
#
# Total GULP energy -594837.541124 kJ/mol
# GULP energy per Si atom -12392.448773 kJ/mol
# Density = 1.696766 g / cm^3
# Si number density = 17.006371 Si / 1000 Ang^3
#
#
#
# Elastic Constant Matrix: (Units=GPa)
#
#
# Indices 1 2 3 4 5 6 
#
# 1 85.6420 35.9173 78.8109 0.0000 0.0000 0.0000
# 2 35.9173 38.4888 51.7833 0.0000 0.0000 0.0000
# 3 78.8109 51.7833 169.1747 0.0000 0.0000 0.0000
# 4 0.0000 0.0000 0.0000 16.0254 0.0000 0.0000
# 5 0.0000 0.0000 0.0000 0.0000 9.2735 0.0000
# 6 0.0000 0.0000 0.0000 0.0000 0.0000 19.4974
#
#
#
# Elastic Compliance Matrix: (Units=1/GPa)
#
#
# Indices 1 2 3 4 5 6 
#
# 1 0.023374 -0.012177 -0.007161 0.000000 0.000000 0.000000
# 2 -0.012177 0.050517 -0.009790 0.000000 0.000000 0.000000
# 3 -0.007161 -0.009790 0.012244 0.000000 0.000000 0.000000
# 4 0.000000 0.000000 0.000000 0.062401 0.000000 0.000000
# 5 0.000000 0.000000 0.000000 0.000000 0.107834 0.000000
# 6 0.000000 0.000000 0.000000 0.000000 0.000000 0.051289
#
#
# Mechanical properties :
#
#
# Convention : Reuss Voigt Hill
#
# Bulk Modulus (GPa) = 35.87150 69.59206 52.73178
# Shear Modulus (GPa) = 13.32595 17.41219 15.36907
#
# Velocity S-wave (km/s) = 2.80230 3.20326 3.00946
# Velocity P-wave (km/s) = 5.62221 7.39535 6.56888
#
# Compressibility (1/GPa) = 0.02787728
#
# Stress axis : x y z
#
# Youngs Moduli (GPa) = 42.78335 19.79542 81.67280
#
# Poissons Ratio (x) = 0.24105 0.58490
# Poissons Ratio (y) = 0.52097 0.79959
# Poissons Ratio (z) = 0.30639 0.19380
#
# Static dielectric constant tensor:
#      x y z
#    x 3.089660 0.000000 0.000000 
#    y 0.000000 2.877430 0.000000 
#    z 0.000000 0.000000 3.650870 
# 
# 
# High freq. dielectric constant tensor:
#      x y z
#    x 1.632320 0.000000 0.000000 
#    y 0.000000 1.615900 0.000000 
#    z 0.000000 0.000000 1.674640 
# 
# From -- ./inp_files/73177.got.cif
#   From: 2010.03.12/outbox.cif.g09.slc.cpg/sg65_37_cif.got.tgz:73177.got - 2010.04.10 20:52:16.
