data_PCOD8269764
_publ_section_title
;
Structure prediction by ZEFSAII (Michael W. Deem and Ramdas Pophale) SiO2 
 PCOD8269764
Probable space group: C M M M
;
_chemical_formula_sum "Si O2"
_cell_formula_units_Z 96
_cell_length_a 28.446202
_cell_length_b 26.019087
_cell_length_c 9.385757
_cell_angle_alpha 90.000000
_cell_angle_beta 90.000000
_cell_angle_gamma 90.000000
_cell_volume 6946.813650
_symmetry_space_group_name_H-M "C M M M"
_symmetry_group_IT_number 65
_symmetry_cell_setting 'orthorhombic'
loop_
_space_group_symop_operation_xyz
x,y,z
-x,-y,z
x,-y,-z
-x,y,-z
-x,-y,-z
x,y,-z
-x,y,z
x,-y,z
1/2+x,1/2+y,z
1/2-x,1/2-y,z
1/2+x,1/2-y,-z
1/2-x,1/2+y,-z
1/2-x,1/2-y,-z
1/2+x,1/2+y,-z
1/2-x,1/2+y,z
1/2+x,1/2-y,z
loop_
_atom_site_type_symbol
_atom_site_label
_atom_site_fract_x
_atom_site_fract_y
_atom_site_fract_z
Si Si1 0.647285 0.746626 0.338126
Si Si2 0.366775 0.058023 0.663754
Si Si3 0.447734 0.208657 0.662824
Si Si4 0.700654 0.851645 0.335969
Si Si5 0.553575 0.894065 0.164980
Si Si6 0.222242 0.803161 0.838863
O O1 0.658179 0.730205 0.500000
O O2 0.591230 0.747433 0.306373
O O3 0.666039 0.803985 0.308836
O O4 0.671801 0.704861 0.236402
O O5 0.380116 0.069569 0.500000
O O6 0.325795 0.096699 0.713869
O O7 0.413274 0.064783 0.758409
O O8 0.348226 0.000000 0.683498
O O9 0.441809 0.188949 0.500000
O O10 0.500000 0.231910 0.687177
O O11 0.438626 0.161539 0.767044
O O12 0.716214 0.854729 0.500000
O O13 0.747836 0.846553 0.242380
O O14 0.500000 0.912629 0.185135
O O15 0.567373 0.890300 0.000000
O O16 0.250000 0.750000 0.830993
O O17 0.213703 0.821291 0.000000
#
# Coordination Sequence:
#
# PCOD8269764 Si02
#       6
#    16  16  16  16  16  16
#     4   9  15  25  41  59  77  99 124 155 191 226
#     4  10  20  33  47  60  73  95 129 165 202 242
#     4   9  16  27  43  60  78 102 132 161 192 232
#     4   9  16  28  42  57  75  96 121 156 196 233
#     4  10  20  31  42  56  75  99 127 163 206 243
#     4   9  17  26  38  58  78  98 121 150 187 229
#
# _framework density 13.819286
#
# number of rings (size 3 to 8) (size 9 to 14) (size 15 to 20)
#    0.000    2.667    1.667    1.000    0.000    5.000 
#    0.000    1.667    0.000    0.000    0.000    0.000 
#    0.000    0.000    0.000    0.000    0.000    0.833 
#
# Total GULP energy -595118.464524 kJ/mol
# GULP energy per Si atom -12398.301344 kJ/mol
# Density = 1.378783 g / cm^3
# Si number density = 13.819286 Si / 1000 Ang^3
#
#
#
# Elastic Constant Matrix: (Units=GPa)
#
#
# Indices 1 2 3 4 5 6 
#
# 1 94.3455 44.1583 51.4645 0.0000 0.0000 0.0000
# 2 44.1583 43.8351 34.7630 0.0000 0.0000 0.0000
# 3 51.4645 34.7630 81.6962 0.0000 0.0000 0.0000
# 4 0.0000 0.0000 0.0000 8.0386 0.0000 0.0000
# 5 0.0000 0.0000 0.0000 0.0000 18.3997 0.0000
# 6 0.0000 0.0000 0.0000 0.0000 0.0000 19.7524
#
#
#
# Elastic Compliance Matrix: (Units=1/GPa)
#
#
# Indices 1 2 3 4 5 6 
#
# 1 0.022289 -0.017083 -0.006772 0.000000 0.000000 0.000000
# 2 -0.017083 0.047525 -0.009461 0.000000 0.000000 0.000000
# 3 -0.006772 -0.009461 0.020532 0.000000 0.000000 0.000000
# 4 0.000000 0.000000 0.000000 0.124400 0.000000 0.000000
# 5 0.000000 0.000000 0.000000 0.000000 0.054349 0.000000
# 6 0.000000 0.000000 0.000000 0.000000 0.000000 0.050627
#
#
# Mechanical properties :
#
#
# Convention : Reuss Voigt Hill
#
# Bulk Modulus (GPa) = 42.16904 53.40538 47.78721
# Shear Modulus (GPa) = 12.68204 15.20420 13.94312
#
# Velocity S-wave (km/s) = 3.03265 3.32055 3.17986
# Velocity P-wave (km/s) = 6.54550 7.30964 6.93810
#
# Compressibility (1/GPa) = 0.02371408
#
# Stress axis : x y z
#
# Youngs Moduli (GPa) = 44.86519 21.04167 48.70384
#
# Poissons Ratio (x) = 0.35945 0.32982
# Poissons Ratio (y) = 0.76643 0.46079
# Poissons Ratio (z) = 0.30382 0.19908
#
# Static dielectric constant tensor:
#      x y z
#    x 2.843490 0.000000 0.000000 
#    y 0.000000 2.363210 0.000000 
#    z 0.000000 0.000000 2.840740 
# 
# 
# High freq. dielectric constant tensor:
#      x y z
#    x 1.521470 0.000000 0.000000 
#    y 0.000000 1.469800 0.000000 
#    z 0.000000 0.000000 1.535790 
# 
# From -- ./inp_files/16667.got.cif
#   From: 2010.03.12/outbox.cif.g09.slc.cpg/sg65_9_cif.got.tgz:16667.got - 2010.04.10 20:52:16.
