data_PCOD8269770
_publ_section_title
;
Structure prediction by ZEFSAII (Michael W. Deem and Ramdas Pophale) SiO2 
 PCOD8269770
Probable space group: C M M M
;
_chemical_formula_sum "Si O2"
_cell_formula_units_Z 104
_cell_length_a 30.231172
_cell_length_b 9.179136
_cell_length_c 27.983071
_cell_angle_alpha 90.000000
_cell_angle_beta 90.000000
_cell_angle_gamma 90.000000
_cell_volume 7765.191368
_symmetry_space_group_name_H-M "C M M M"
_symmetry_group_IT_number 65
_symmetry_cell_setting 'orthorhombic'
loop_
_space_group_symop_operation_xyz
x,y,z
-x,-y,z
x,-y,-z
-x,y,-z
-x,-y,-z
x,y,-z
-x,y,z
x,-y,z
1/2+x,1/2+y,z
1/2-x,1/2-y,z
1/2+x,1/2-y,-z
1/2-x,1/2+y,-z
1/2-x,1/2-y,-z
1/2+x,1/2+y,-z
1/2-x,1/2+y,z
1/2+x,1/2-y,z
loop_
_atom_site_type_symbol
_atom_site_label
_atom_site_fract_x
_atom_site_fract_y
_atom_site_fract_z
Si Si1 0.207419 0.164780 0.556894
Si Si2 0.620420 0.169128 0.555956
Si Si3 0.052723 0.164599 0.907491
Si Si4 0.447440 0.338485 0.274368
Si Si5 0.052780 0.336536 0.184572
Si Si6 0.948514 0.830381 0.618818
Si Si7 0.447269 0.164858 0.000000
O O1 0.208946 0.164599 0.500000
O O2 0.250000 0.250000 0.577344
O O3 0.163531 0.246180 0.575038
O O4 0.207578 0.000000 0.576774
O O5 0.613448 0.195516 0.500000
O O6 0.577443 0.230350 0.581987
O O7 0.626702 0.000000 0.567872
O O8 0.070759 0.242040 0.859729
O O9 0.000000 0.164131 0.907693
O O10 0.070994 0.000000 0.909195
O O11 0.070822 0.252172 0.953283
O O12 0.500000 0.344095 0.271957
O O13 0.428737 0.500000 0.263837
O O14 0.428599 0.229688 0.234160
O O15 0.433324 0.287624 0.327395
O O16 0.071065 0.500000 0.179507
O O17 0.000000 0.335893 0.184685
O O18 0.000000 0.796701 0.611400
O O19 0.938592 0.000000 0.609006
O O20 0.500000 0.164052 0.000000
O O21 0.429040 0.000000 0.000000
#
# Coordination Sequence:
#
# PCOD8269770 Si02
#       7
#    16  16  16  16  16  16   8
#     4   9  16  27  44  63  81  99 118 141 170 204
#     4  10  20  31  42  58  79 100 122 147 175 210
#     4   9  15  21  28  37  50  69  91 114 144 185
#     4   8  14  25  38  49  61  78 102 133 168 204
#     4   9  15  21  30  44  58  71  91 121 156 192
#     4   9  18  31  44  56  71  94 123 152 182 216
#     4   9  15  21  27  35  49  67  87 113 145 183
#
# _framework density 13.393102000000001
#
# number of rings (size 3 to 8) (size 9 to 14) (size 15 to 20)
#    0.000    3.000    0.000    3.000    0.000    8.615 
#    0.000    3.077    0.000    0.000    0.000    0.000 
#    0.000    0.000    0.000    0.000    0.000    0.000 
#
# Total GULP energy -644625.535135 kJ/mol
# GULP energy per Si atom -12396.644906 kJ/mol
# Density = 1.336262 g / cm^3
# Si number density = 13.393102 Si / 1000 Ang^3
#
#
#
# Elastic Constant Matrix: (Units=GPa)
#
#
# Indices 1 2 3 4 5 6 
#
# 1 35.3117 32.7214 26.7815 0.0000 0.0000 0.0000
# 2 32.7214 124.6279 56.5414 0.0000 0.0000 0.0000
# 3 26.7815 56.5414 72.0831 0.0000 0.0000 0.0000
# 4 0.0000 0.0000 0.0000 24.1858 0.0000 0.0000
# 5 0.0000 0.0000 0.0000 0.0000 0.1322 0.0000
# 6 0.0000 0.0000 0.0000 0.0000 0.0000 15.4784
#
#
#
# Elastic Compliance Matrix: (Units=1/GPa)
#
#
# Indices 1 2 3 4 5 6 
#
# 1 0.042280 -0.006170 -0.010869 0.000000 0.000000 0.000000
# 2 -0.006170 0.013357 -0.008185 0.000000 0.000000 0.000000
# 3 -0.010869 -0.008185 0.024331 0.000000 0.000000 0.000000
# 4 0.000000 0.000000 0.000000 0.041347 0.000000 0.000000
# 5 0.000000 0.000000 0.000000 0.000000 7.566939 0.000000
# 6 0.000000 0.000000 0.000000 0.000000 0.000000 0.064606
#
#
# Mechanical properties :
#
#
# Convention : Reuss Voigt Hill
#
# Bulk Modulus (GPa) = 33.87429 51.56791 42.72110
# Shear Modulus (GPa) = 0.63995 15.69115 8.16555
#
# Velocity S-wave (km/s) = 0.69199 3.42655 2.47186
# Velocity P-wave (km/s) = 5.09762 7.36491 6.33355
#
# Compressibility (1/GPa) = 0.02952092
#
# Stress axis : x y z
#
# Youngs Moduli (GPa) = 23.65202 74.86653 41.09912
#
# Poissons Ratio (x) = 0.46189 0.44671
# Poissons Ratio (y) = 0.14592 0.33640
# Poissons Ratio (z) = 0.25708 0.61278
#
# Static dielectric constant tensor:
#      x y z
#    x 2.176330 0.000000 0.000000 
#    y 0.000000 2.893210 0.000000 
#    z 0.000000 0.000000 2.712690 
# 
# 
# High freq. dielectric constant tensor:
#      x y z
#    x 1.434030 0.000000 0.000000 
#    y 0.000000 1.528720 0.000000 
#    z 0.000000 0.000000 1.502460 
# 
# From -- ./inp_files/76232.got.cif
#   From: 2010.03.12/outbox.cif.g09.slc.cpg/sg65_39_cif.got.tgz:76232.got - 2010.04.10 20:52:16.
