data_PCOD8269738
_publ_section_title
;
Structure prediction by ZEFSAII (Michael W. Deem and Ramdas Pophale) SiO2 
 PCOD8269738
Probable space group: C M M M
;
_chemical_formula_sum "Si O2"
_cell_formula_units_Z 80
_cell_length_a 19.739121
_cell_length_b 18.392892
_cell_length_c 13.769031
_cell_angle_alpha 90.000000
_cell_angle_beta 90.000000
_cell_angle_gamma 90.000000
_cell_volume 4998.977796
_symmetry_space_group_name_H-M "C M M M"
_symmetry_group_IT_number 65
_symmetry_cell_setting 'orthorhombic'
loop_
_space_group_symop_operation_xyz
x,y,z
-x,-y,z
x,-y,-z
-x,y,-z
-x,-y,-z
x,y,-z
-x,y,z
x,-y,z
1/2+x,1/2+y,z
1/2-x,1/2-y,z
1/2+x,1/2-y,-z
1/2-x,1/2+y,-z
1/2-x,1/2-y,-z
1/2+x,1/2+y,-z
1/2-x,1/2+y,z
1/2+x,1/2-y,z
loop_
_atom_site_type_symbol
_atom_site_label
_atom_site_fract_x
_atom_site_fract_y
_atom_site_fract_z
Si Si1 0.773604 0.416573 0.612014
Si Si2 0.573168 0.000000 0.886085
Si Si3 0.080051 0.657850 0.887117
Si Si4 0.820439 0.284710 0.736522
Si Si5 0.000000 0.919059 0.616264
Si Si6 0.633708 0.345638 0.611365
O O1 0.794398 0.400857 0.500000
O O2 0.790536 0.500000 0.639882
O O3 0.813047 0.362921 0.684545
O O4 0.693569 0.403825 0.625406
O O5 0.608771 0.076544 0.859865
O O6 0.500000 0.000000 0.833987
O O7 0.560423 0.000000 0.000000
O O8 0.126455 0.712017 0.825090
O O9 0.000000 0.665305 0.861720
O O10 0.091655 0.675805 0.000000
O O11 0.750000 0.250000 0.775432
O O12 0.850518 0.231492 0.657058
O O13 0.066088 0.878976 0.658331
O O14 0.000000 0.921089 0.500000
O O15 0.000000 0.000000 0.658610
O O16 0.620676 0.328404 0.500000
#
# Coordination Sequence:
#
# PCOD8269738 Si02
#       6
#    16   8  16  16   8  16
#     4   9  17  30  47  65  90 126 162 190 221 271
#     4   7  12  26  46  66  83 105 142 186 228 269
#     4   9  18  32  50  69  90 117 151 190 235 283
#     4  10  20  30  45  70  96 124 153 190 231 278
#     4   9  16  26  44  68  90 118 157 196 228 258
#     4   9  17  29  44  65  95 125 153 189 231 273
#
# _framework density 16.003271999999999
#
# number of rings (size 3 to 8) (size 9 to 14) (size 15 to 20)
#    0.000    3.000    0.000    2.400    2.800    5.200 
#    0.000    0.000    0.000    0.000    0.000    1.400 
#    0.000    0.800    0.000    0.000    0.000    0.000 
#
# Total GULP energy -495611.233422 kJ/mol
# GULP energy per Si atom -12390.280836 kJ/mol
# Density = 1.596685 g / cm^3
# Si number density = 16.003272 Si / 1000 Ang^3
#
#
#
# Elastic Constant Matrix: (Units=GPa)
#
#
# Indices 1 2 3 4 5 6 
#
# 1 85.3041 41.1575 38.0573 0.0000 0.0000 0.0000
# 2 41.1575 93.8975 32.9879 0.0000 0.0000 0.0000
# 3 38.0573 32.9879 52.7784 0.0000 0.0000 0.0000
# 4 0.0000 0.0000 0.0000 11.4661 0.0000 0.0000
# 5 0.0000 0.0000 0.0000 0.0000 24.3771 0.0000
# 6 0.0000 0.0000 0.0000 0.0000 0.0000 18.5125
#
#
#
# Elastic Compliance Matrix: (Units=1/GPa)
#
#
# Indices 1 2 3 4 5 6 
#
# 1 0.018607 -0.004411 -0.010660 0.000000 0.000000 0.000000
# 2 -0.004411 0.014692 -0.006002 0.000000 0.000000 0.000000
# 3 -0.010660 -0.006002 0.030386 0.000000 0.000000 0.000000
# 4 0.000000 0.000000 0.000000 0.087213 0.000000 0.000000
# 5 0.000000 0.000000 0.000000 0.000000 0.041022 0.000000
# 6 0.000000 0.000000 0.000000 0.000000 0.000000 0.054018
#
#
# Mechanical properties :
#
#
# Convention : Reuss Voigt Hill
#
# Bulk Modulus (GPa) = 46.42988 50.70948 48.56968
# Shear Modulus (GPa) = 16.93408 18.85631 17.89519
#
# Velocity S-wave (km/s) = 3.25647 3.43633 3.34761
# Velocity P-wave (km/s) = 6.57383 6.89204 6.73481
#
# Compressibility (1/GPa) = 0.02153785
#
# Stress axis : x y z
#
# Youngs Moduli (GPa) = 53.74423 68.06438 32.91042
#
# Poissons Ratio (x) = 0.30021 0.35083
# Poissons Ratio (y) = 0.23705 0.19754
# Poissons Ratio (z) = 0.57291 0.40855
#
# Static dielectric constant tensor:
#      x y z
#    x 3.026580 0.000000 0.000000 
#    y 0.000000 3.147920 0.000000 
#    z 0.000000 0.000000 2.698380 
# 
# 
# High freq. dielectric constant tensor:
#      x y z
#    x 1.606070 0.000000 0.000000 
#    y 0.000000 1.621500 0.000000 
#    z 0.000000 0.000000 1.580280 
# 
# From -- ./inp_files/44245.got.cif
#   From: 2010.03.12/outbox.cif.g09.slc.cpg/sg65_23_cif.got.tgz:44245.got - 2010.04.10 20:52:16.
