data_PCOD8269643
_publ_section_title
;
Structure prediction by ZEFSAII (Michael W. Deem and Ramdas Pophale) SiO2 
 PCOD8269643
Probable space group: C M M M
;
_chemical_formula_sum "Si O2"
_cell_formula_units_Z 48
_cell_length_a 38.139145
_cell_length_b 9.028239
_cell_length_c 7.560743
_cell_angle_alpha 90.000000
_cell_angle_beta 90.000000
_cell_angle_gamma 90.000000
_cell_volume 2603.385468
_symmetry_space_group_name_H-M "C M M M"
_symmetry_group_IT_number 65
_symmetry_cell_setting 'orthorhombic'
loop_
_space_group_symop_operation_xyz
x,y,z
-x,-y,z
x,-y,-z
-x,y,-z
-x,-y,-z
x,y,-z
-x,y,z
x,-y,z
1/2+x,1/2+y,z
1/2-x,1/2-y,z
1/2+x,1/2-y,-z
1/2-x,1/2+y,-z
1/2-x,1/2-y,-z
1/2+x,1/2+y,-z
1/2-x,1/2+y,z
1/2+x,1/2-y,z
loop_
_atom_site_type_symbol
_atom_site_label
_atom_site_fract_x
_atom_site_fract_y
_atom_site_fract_z
Si Si1 0.338717 0.675797 0.197375
Si Si2 0.459298 0.173450 0.000000
Si Si3 0.584365 0.327154 0.703064
Si Si4 0.712508 0.323782 0.500000
O O1 0.339494 0.500000 0.204631
O O2 0.376586 0.734549 0.259633
O O3 0.308501 0.733863 0.327837
O O4 0.330470 0.734003 0.000000
O O5 0.442965 0.240908 0.823168
O O6 0.500000 0.213200 0.000000
O O7 0.452254 0.000000 0.000000
O O8 0.574376 0.297966 0.500000
O O9 0.582334 0.500000 0.750944
O O10 0.716571 0.500000 0.500000
O O11 0.750000 0.250000 0.500000
#
# Coordination Sequence:
#
# PCOD8269643 Si02
#       4
#    16   8  16   8
#     4   9  16  30  56  82 104 138 181 225 275 329
#     4  11  25  41  55  79 120 161 186 217 280 351
#     4  10  19  35  63  91 109 137 191 246 284 325
#     4  10  20  34  52  78 111 144 179 221 276 333
#
# _framework density 18.437532000000001
#
# number of rings (size 3 to 8) (size 9 to 14) (size 15 to 20)
#    0.000    2.167    3.333    0.500    0.000    3.333 
#    0.000    5.000    0.000    0.000    0.000    0.000 
#    0.000    0.000    0.000    0.000    0.000    0.000 
#
# Total GULP energy -297608.304149 kJ/mol
# GULP energy per Si atom -12400.346006 kJ/mol
# Density = 1.839557 g / cm^3
# Si number density = 18.437532 Si / 1000 Ang^3
#
#
#
# Elastic Constant Matrix: (Units=GPa)
#
#
# Indices 1 2 3 4 5 6 
#
# 1 168.9417 58.3088 100.8419 0.0000 0.0000 0.0000
# 2 58.3088 42.6349 46.2103 0.0000 0.0000 0.0000
# 3 100.8419 46.2103 170.7293 0.0000 0.0000 0.0000
# 4 0.0000 0.0000 0.0000 15.4765 0.0000 0.0000
# 5 0.0000 0.0000 0.0000 0.0000 36.9553 0.0000
# 6 0.0000 0.0000 0.0000 0.0000 0.0000 30.8531
#
#
#
# Elastic Compliance Matrix: (Units=1/GPa)
#
#
# Indices 1 2 3 4 5 6 
#
# 1 0.012911 -0.013291 -0.004029 0.000000 0.000000 0.000000
# 2 -0.013291 0.046875 -0.004837 0.000000 0.000000 0.000000
# 3 -0.004029 -0.004837 0.009546 0.000000 0.000000 0.000000
# 4 0.000000 0.000000 0.000000 0.064614 0.000000 0.000000
# 5 0.000000 0.000000 0.000000 0.000000 0.027060 0.000000
# 6 0.000000 0.000000 0.000000 0.000000 0.000000 0.032412
#
#
# Mechanical properties :
#
#
# Convention : Reuss Voigt Hill
#
# Bulk Modulus (GPa) = 39.97011 88.11419 64.04215
# Shear Modulus (GPa) = 20.31935 28.45332 24.38633
#
# Velocity S-wave (km/s) = 3.32334 3.93266 3.64077
# Velocity P-wave (km/s) = 6.03753 8.27741 7.24456
#
# Compressibility (1/GPa) = 0.02501869
#
# Stress axis : x y z
#
# Youngs Moduli (GPa) = 77.45140 21.33325 104.75748
#
# Poissons Ratio (x) = 0.28355 0.42202
# Poissons Ratio (y) = 1.02944 0.50669
# Poissons Ratio (z) = 0.31202 0.10318
#
# Static dielectric constant tensor:
#      x y z
#    x 3.405930 0.000000 0.000000 
#    y 0.000000 2.985280 0.000000 
#    z 0.000000 0.000000 3.740450 
# 
# 
# High freq. dielectric constant tensor:
#      x y z
#    x 1.717210 0.000000 0.000000 
#    y 0.000000 1.671550 0.000000 
#    z 0.000000 0.000000 1.736330 
# 
# From -- ./inp_files/17540.got.cif
#   From: 2010.03.12/outbox.cif.g09.slc.cpg/sg65_9_cif.got.tgz:17540.got - 2010.04.10 20:52:16.
