data_PCOD8269619
_publ_section_title
;
Structure prediction by ZEFSAII (Michael W. Deem and Ramdas Pophale) SiO2 
 PCOD8269619
Probable space group: C M M M
;
_chemical_formula_sum "Si O2"
_cell_formula_units_Z 112
_cell_length_a 25.985120
_cell_length_b 14.451068
_cell_length_c 14.678335
_cell_angle_alpha 90.000000
_cell_angle_beta 90.000000
_cell_angle_gamma 90.000000
_cell_volume 5511.901737
_symmetry_space_group_name_H-M "C M M M"
_symmetry_group_IT_number 65
_symmetry_cell_setting 'orthorhombic'
loop_
_space_group_symop_operation_xyz
x,y,z
-x,-y,z
x,-y,-z
-x,y,-z
-x,-y,-z
x,y,-z
-x,y,z
x,-y,z
1/2+x,1/2+y,z
1/2-x,1/2-y,z
1/2+x,1/2-y,-z
1/2-x,1/2+y,-z
1/2-x,1/2-y,-z
1/2+x,1/2+y,-z
1/2-x,1/2+y,z
1/2+x,1/2-y,z
loop_
_atom_site_type_symbol
_atom_site_label
_atom_site_fract_x
_atom_site_fract_y
_atom_site_fract_z
Si Si1 0.941304 0.271606 0.399052
Si Si2 0.776223 0.398709 0.206912
Si Si3 0.363000 0.203073 0.897607
Si Si4 0.129220 0.898387 0.640185
Si Si5 0.560701 0.893978 0.230374
Si Si6 0.254713 0.642191 0.599726
Si Si7 0.659559 0.396724 0.157338
O O1 0.936621 0.316296 0.500000
O O2 0.908124 0.178796 0.398964
O O3 0.921863 0.346412 0.325256
O O4 0.000000 0.243859 0.377297
O O5 0.793179 0.500000 0.172151
O O6 0.815008 0.324314 0.165864
O O7 0.777368 0.402235 0.317437
O O8 0.719525 0.374607 0.172162
O O9 0.414511 0.160958 0.854011
O O10 0.364652 0.315281 0.904114
O O11 0.357254 0.164046 0.000000
O O12 0.186150 0.886912 0.601343
O O13 0.129139 0.891924 0.748645
O O14 0.109100 0.000000 0.610336
O O15 0.500000 0.889689 0.216461
O O16 0.580263 0.000000 0.232154
O O17 0.232296 0.612795 0.500000
O O18 0.250000 0.750000 0.614159
O O19 0.652769 0.500000 0.113726
#
# Coordination Sequence:
#
# PCOD8269619 Si02
#       7
#    16  16  16  16  16  16  16
#     4  10  21  37  61  93 124 156 197 241 288 348
#     4  10  21  36  55  84 123 158 195 243 292 347
#     4  12  24  40  64  89 116 150 195 252 307 354
#     4  10  19  35  59  86 124 166 201 241 290 346
#     4  10  23  44  66  88 117 152 193 243 298 356
#     4  10  20  33  53  80 115 165 211 246 285 339
#     4   9  19  37  60  86 120 161 197 233 288 356
#
# _framework density 20.319666000000002
#
# number of rings (size 3 to 8) (size 9 to 14) (size 15 to 20)
#    0.000    1.857    1.429    4.286    0.000    5.429 
#    0.000    4.286    0.000    2.143    0.000    1.000 
#    0.000    0.000    0.000    0.000    0.000    0.000 
#
# Total GULP energy -694179.605110 kJ/mol
# GULP energy per Si atom -12396.064377 kJ/mol
# Density = 2.027342 g / cm^3
# Si number density = 20.319666 Si / 1000 Ang^3
#
#
#
# Elastic Constant Matrix: (Units=GPa)
#
#
# Indices 1 2 3 4 5 6 
#
# 1 52.1671 35.1904 38.5590 0.0000 0.0000 0.0000
# 2 35.1904 138.1528 42.8668 0.0000 0.0000 0.0000
# 3 38.5590 42.8668 118.3340 0.0000 0.0000 0.0000
# 4 0.0000 0.0000 0.0000 8.5051 0.0000 0.0000
# 5 0.0000 0.0000 0.0000 0.0000 14.0110 0.0000
# 6 0.0000 0.0000 0.0000 0.0000 0.0000 23.5127
#
#
#
# Elastic Compliance Matrix: (Units=1/GPa)
#
#
# Indices 1 2 3 4 5 6 
#
# 1 0.027832 -0.004817 -0.007324 0.000000 0.000000 0.000000
# 2 -0.004817 0.008989 -0.001687 0.000000 0.000000 0.000000
# 3 -0.007324 -0.001687 0.011448 0.000000 0.000000 0.000000
# 4 0.000000 0.000000 0.000000 0.117576 0.000000 0.000000
# 5 0.000000 0.000000 0.000000 0.000000 0.071373 0.000000
# 6 0.000000 0.000000 0.000000 0.000000 0.000000 0.042530
#
#
# Mechanical properties :
#
#
# Convention : Reuss Voigt Hill
#
# Bulk Modulus (GPa) = 48.51129 60.20959 54.36044
# Shear Modulus (GPa) = 15.90967 22.00827 18.95897
#
# Velocity S-wave (km/s) = 2.80119 3.29462 3.05788
# Velocity P-wave (km/s) = 5.86414 6.64592 6.26723
#
# Compressibility (1/GPa) = 0.02061376
#
# Stress axis : x y z
#
# Youngs Moduli (GPa) = 35.92978 111.25154 87.35001
#
# Poissons Ratio (x) = 0.53588 0.63976
# Poissons Ratio (y) = 0.17307 0.14732
# Poissons Ratio (z) = 0.26315 0.18764
#
# Static dielectric constant tensor:
#      x y z
#    x 3.422330 0.000000 0.000000 
#    y 0.000000 3.901240 0.000000 
#    z 0.000000 0.000000 3.665290 
# 
# 
# High freq. dielectric constant tensor:
#      x y z
#    x 1.766850 0.000000 0.000000 
#    y 0.000000 1.807640 0.000000 
#    z 0.000000 0.000000 1.791120 
# 
# From -- ./inp_files/40813.got.cif
#   From: 2010.03.12/outbox.cif.g09.slc.cpg/sg65_21_cif.got.tgz:40813.got - 2010.04.10 20:52:16.
