data_PCOD8269513
_publ_section_title
;
Structure prediction by ZEFSAII (Michael W. Deem and Ramdas Pophale) SiO2 
 PCOD8269513
Probable space group: C M M M
;
_chemical_formula_sum "Si O2"
_cell_formula_units_Z 96
_cell_length_a 15.399646
_cell_length_b 21.654908
_cell_length_c 14.933040
_cell_angle_alpha 90.000000
_cell_angle_beta 90.000000
_cell_angle_gamma 90.000000
_cell_volume 4979.839079
_symmetry_space_group_name_H-M "C M M M"
_symmetry_group_IT_number 65
_symmetry_cell_setting 'orthorhombic'
loop_
_space_group_symop_operation_xyz
x,y,z
-x,-y,z
x,-y,-z
-x,y,-z
-x,-y,-z
x,y,-z
-x,y,z
x,-y,z
1/2+x,1/2+y,z
1/2-x,1/2-y,z
1/2+x,1/2-y,-z
1/2-x,1/2+y,-z
1/2-x,1/2-y,-z
1/2+x,1/2+y,-z
1/2-x,1/2+y,z
1/2+x,1/2-y,z
loop_
_atom_site_type_symbol
_atom_site_label
_atom_site_fract_x
_atom_site_fract_y
_atom_site_fract_z
Si Si1 0.406602 0.862235 0.231362
Si Si2 0.902314 0.880432 0.103502
Si Si3 0.774505 0.928777 0.753057
Si Si4 0.126161 0.709714 0.401355
Si Si5 0.681404 0.659784 0.598821
Si Si6 0.151815 0.743890 0.104084
O O1 0.500000 0.895861 0.211706
O O2 0.325309 0.908561 0.231348
O O3 0.422045 0.829876 0.327018
O O4 0.394505 0.810619 0.156139
O O5 0.830707 0.918577 0.157843
O O6 0.896891 0.807677 0.123764
O O7 0.000000 0.902562 0.127533
O O8 0.881243 0.893292 0.000000
O O9 0.823839 0.893391 0.673019
O O10 0.772950 0.000000 0.726892
O O11 0.085440 0.697544 0.500000
O O12 0.224719 0.689208 0.402047
O O13 0.117351 0.783000 0.378197
O O14 0.659442 0.632265 0.500000
O O15 0.250000 0.750000 0.140095
O O16 0.150522 0.726115 0.000000
#
# Coordination Sequence:
#
# PCOD8269513 Si02
#       6
#    16  16  16  16  16  16
#     4  11  22  34  54  82 113 150 187 222 266 326
#     4  10  21  38  61  87 110 134 173 228 286 339
#     4  11  23  37  54  76 109 153 195 232 268 310
#     4   8  15  29  52  80 109 138 172 223 281 331
#     4   8  15  30  53  79 105 137 178 224 276 328
#     4  10  19  34  58  85 113 139 165 212 281 345
#
# _framework density 19.277730999999999
#
# number of rings (size 3 to 8) (size 9 to 14) (size 15 to 20)
#    0.000    2.333    1.667    2.500    2.333    2.667 
#    0.000    0.833    0.000    1.500    0.000    8.167 
#    0.000    0.000    0.000    0.000    0.000    0.000 
#
# Total GULP energy -594871.973026 kJ/mol
# GULP energy per Si atom -12393.166105 kJ/mol
# Density = 1.923385 g / cm^3
# Si number density = 19.277731 Si / 1000 Ang^3
#
#
#
# Elastic Constant Matrix: (Units=GPa)
#
#
# Indices 1 2 3 4 5 6 
#
# 1 98.5305 25.4578 36.9415 0.0000 0.0000 0.0000
# 2 25.4578 91.8821 43.3686 0.0000 0.0000 0.0000
# 3 36.9415 43.3686 89.2487 0.0000 0.0000 0.0000
# 4 0.0000 0.0000 0.0000 13.4071 0.0000 0.0000
# 5 0.0000 0.0000 0.0000 0.0000 -10.1452 0.0000
# 6 0.0000 0.0000 0.0000 0.0000 0.0000 9.3000
#
#
#
# Elastic Compliance Matrix: (Units=1/GPa)
#
#
# Indices 1 2 3 4 5 6 
#
# 1 0.012129 -0.001286 -0.004396 0.000000 0.000000 0.000000
# 2 -0.001286 0.014259 -0.006397 0.000000 0.000000 0.000000
# 3 -0.004396 -0.006397 0.016132 0.000000 0.000000 0.000000
# 4 0.000000 0.000000 0.000000 0.074587 0.000000 0.000000
# 5 0.000000 0.000000 0.000000 0.000000 -0.098568 0.000000
# 6 0.000000 0.000000 0.000000 0.000000 0.000000 0.107527
#
#
# Mechanical properties :
#
#
# Convention : Reuss Voigt Hill
#
# Bulk Modulus (GPa) = 54.45324 54.57745 54.51535
# Shear Modulus (GPa) = 31.98052 14.10525 23.04289
#
# Velocity S-wave (km/s) = 4.07742 2.70790 3.46108
# Velocity P-wave (km/s) = 7.10459 6.17654 6.65676
#
# Compressibility (1/GPa) = 0.01836438
#
# Stress axis : x y z
#
# Youngs Moduli (GPa) = 82.44393 70.13100 61.98702
#
# Poissons Ratio (x) = 0.09018 0.27248
# Poissons Ratio (y) = 0.10602 0.39651
# Poissons Ratio (z) = 0.36240 0.44860
#
# Static dielectric constant tensor:
#      x y z
#    x 3.593690 0.000000 0.000000 
#    y 0.000000 3.238000 0.000000 
#    z 0.000000 0.000000 3.860680 
# 
# 
# High freq. dielectric constant tensor:
#      x y z
#    x 1.749170 0.000000 0.000000 
#    y 0.000000 1.710760 0.000000 
#    z 0.000000 0.000000 1.760800 
# 
# From -- ./inp_files/40308.got.cif
#   From: 2010.03.12/outbox.cif.g09.slc.cpg/sg65_21_cif.got.tgz:40308.got - 2010.04.10 20:52:16.
