data_PCOD8269520
_publ_section_title
;
Structure prediction by ZEFSAII (Michael W. Deem and Ramdas Pophale) SiO2 
 PCOD8269520
Probable space group: C M M M
;
_chemical_formula_sum "Si O2"
_cell_formula_units_Z 88
_cell_length_a 8.778504
_cell_length_b 28.642884
_cell_length_c 18.103419
_cell_angle_alpha 90.000000
_cell_angle_beta 90.000000
_cell_angle_gamma 90.000000
_cell_volume 4551.953938
_symmetry_space_group_name_H-M "C M M M"
_symmetry_group_IT_number 65
_symmetry_cell_setting 'orthorhombic'
loop_
_space_group_symop_operation_xyz
x,y,z
-x,-y,z
x,-y,-z
-x,y,-z
-x,-y,-z
x,y,-z
-x,y,z
x,-y,z
1/2+x,1/2+y,z
1/2-x,1/2-y,z
1/2+x,1/2-y,-z
1/2-x,1/2+y,-z
1/2-x,1/2-y,-z
1/2+x,1/2+y,-z
1/2-x,1/2+y,z
1/2+x,1/2-y,z
loop_
_atom_site_type_symbol
_atom_site_label
_atom_site_fract_x
_atom_site_fract_y
_atom_site_fract_z
Si Si1 0.820280 0.297908 0.851980
Si Si2 0.679471 0.947199 0.500000
Si Si3 0.319227 0.448031 0.215539
Si Si4 0.178195 0.797359 0.693419
Si Si5 0.177427 0.103381 0.637729
Si Si6 0.823828 0.114957 0.916957
O O1 0.750000 0.250000 0.882832
O O2 0.753984 0.309376 0.771410
O O3 0.774191 0.338330 0.908407
O O4 0.000000 0.293160 0.846804
O O5 0.500000 0.949247 0.500000
O O6 0.731970 0.919460 0.571565
O O7 0.746657 0.000000 0.500000
O O8 0.500000 0.450425 0.215709
O O9 0.249199 0.500000 0.219182
O O10 0.261648 0.418789 0.285962
O O11 0.262015 0.423806 0.140164
O O12 0.250000 0.750000 0.658977
O O13 0.207415 0.840842 0.638648
O O14 0.000000 0.789464 0.706841
O O15 0.000000 0.092465 0.626534
O O16 0.000000 0.126773 0.900288
O O17 0.802501 0.095627 0.000000
#
# Coordination Sequence:
#
# PCOD8269520 Si02
#       6
#    16   8  16  16  16  16
#     4  11  21  34  55  80 111 148 188 233 283 340
#     4  11  25  41  58  87 124 153 186 237 290 337
#     4   9  17  32  56  84 111 143 187 235 281 332
#     4  10  19  34  58  88 118 148 188 231 277 334
#     4  10  20  37  62  86 115 152 192 233 275 336
#     4  10  20  35  54  79 114 149 187 238 287 334
#
# _framework density 19.332356999999998
#
# number of rings (size 3 to 8) (size 9 to 14) (size 15 to 20)
#    0.000    1.909    1.818    4.091    0.000    4.000 
#    0.000    2.273    0.000    0.545    0.000    1.273 
#    0.000    0.000    0.000    0.000    0.000    0.000 
#
# Total GULP energy -545641.057067 kJ/mol
# GULP energy per Si atom -12400.933115 kJ/mol
# Density = 1.928836 g / cm^3
# Si number density = 19.332357 Si / 1000 Ang^3
#
#
#
# Elastic Constant Matrix: (Units=GPa)
#
#
# Indices 1 2 3 4 5 6 
#
# 1 86.9754 44.5618 36.8511 0.0000 0.0000 0.0000
# 2 44.5618 150.0445 70.4226 0.0000 0.0000 0.0000
# 3 36.8511 70.4226 124.4367 0.0000 0.0000 0.0000
# 4 0.0000 0.0000 0.0000 24.8084 0.0000 0.0000
# 5 0.0000 0.0000 0.0000 0.0000 20.9350 0.0000
# 6 0.0000 0.0000 0.0000 0.0000 0.0000 25.9219
#
#
#
# Elastic Compliance Matrix: (Units=1/GPa)
#
#
# Indices 1 2 3 4 5 6 
#
# 1 0.014092 -0.003032 -0.002457 0.000000 0.000000 0.000000
# 2 -0.003032 0.009727 -0.004607 0.000000 0.000000 0.000000
# 3 -0.002457 -0.004607 0.011371 0.000000 0.000000 0.000000
# 4 0.000000 0.000000 0.000000 0.040309 0.000000 0.000000
# 5 0.000000 0.000000 0.000000 0.000000 0.047767 0.000000
# 6 0.000000 0.000000 0.000000 0.000000 0.000000 0.038577
#
#
# Mechanical properties :
#
#
# Convention : Reuss Voigt Hill
#
# Bulk Modulus (GPa) = 66.67614 73.90307 70.28960
# Shear Modulus (GPa) = 26.73274 28.30778 27.52026
#
# Velocity S-wave (km/s) = 3.72263 3.83073 3.77707
# Velocity P-wave (km/s) = 7.28297 7.60767 7.44709
#
# Compressibility (1/GPa) = 0.01499787
#
# Stress axis : x y z
#
# Youngs Moduli (GPa) = 70.96186 102.80137 87.94018
#
# Poissons Ratio (x) = 0.31167 0.21611
# Poissons Ratio (y) = 0.21514 0.40516
# Poissons Ratio (z) = 0.17439 0.47363
#
# Static dielectric constant tensor:
#      x y z
#    x 3.319160 0.000000 0.000000 
#    y 0.000000 3.819350 0.000000 
#    z 0.000000 0.000000 3.381600 
# 
# 
# High freq. dielectric constant tensor:
#      x y z
#    x 1.732410 0.000000 0.000000 
#    y 0.000000 1.765850 0.000000 
#    z 0.000000 0.000000 1.738890 
# 
# From -- ./inp_files/50337.got.cif
#   From: 2010.03.12/outbox.cif.g09.slc.cpg/sg65_26_cif.got.tgz:50337.got - 2010.04.10 20:52:16.
