data_PCOD8269970
_publ_section_title
;
Structure prediction by ZEFSAII (Michael W. Deem and Ramdas Pophale) SiO2 
 PCOD8269970
Probable space group: C M M M
;
_chemical_formula_sum "Si O2"
_cell_formula_units_Z 72
_cell_length_a 28.053753
_cell_length_b 8.824996
_cell_length_c 18.059076
_cell_angle_alpha 90.000000
_cell_angle_beta 90.000000
_cell_angle_gamma 90.000000
_cell_volume 4470.962341
_symmetry_space_group_name_H-M "C M M M"
_symmetry_group_IT_number 65
_symmetry_cell_setting 'orthorhombic'
loop_
_space_group_symop_operation_xyz
x,y,z
-x,-y,z
x,-y,-z
-x,y,-z
-x,-y,-z
x,y,-z
-x,y,z
x,-y,z
1/2+x,1/2+y,z
1/2-x,1/2-y,z
1/2+x,1/2-y,-z
1/2-x,1/2+y,-z
1/2-x,1/2-y,-z
1/2+x,1/2+y,-z
1/2-x,1/2+y,z
1/2+x,1/2-y,z
loop_
_atom_site_type_symbol
_atom_site_label
_atom_site_fract_x
_atom_site_fract_y
_atom_site_fract_z
Si Si1 0.443445 0.329899 0.081123
Si Si2 0.443810 0.826055 0.772192
Si Si3 0.799811 0.676787 0.414092
Si Si4 0.943588 0.328234 0.500000
Si Si5 0.106579 0.821522 0.362745
O O1 0.500000 0.330295 0.079959
O O2 0.424849 0.500000 0.097339
O O3 0.425523 0.217376 0.145451
O O4 0.424722 0.275328 0.000000
O O5 0.500000 0.797164 0.763897
O O6 0.416755 0.718805 0.715257
O O7 0.430850 0.000000 0.756328
O O8 0.811303 0.709621 0.500000
O O9 0.797463 0.500000 0.396995
O O10 0.750000 0.750000 0.390554
O O11 0.840605 0.752776 0.365015
O O12 0.923589 0.500000 0.500000
O O13 0.925973 0.245349 0.427116
O O14 0.000000 0.327298 0.500000
O O15 0.109647 0.000000 0.372578
#
# Coordination Sequence:
#
# PCOD8269970 Si02
#       5
#    16  16  16   8  16
#     4   8  14  26  44  65  90 121 157 196 237 281
#     4  10  20  32  46  66  95 130 165 201 240 281
#     4  10  20  35  55  74  95 119 150 194 243 290
#     4  11  23  37  50  65  90 125 163 201 239 279
#     4  12  23  34  50  70  94 124 161 199 239 285
#
# _framework density 16.103915000000001
#
# number of rings (size 3 to 8) (size 9 to 14) (size 15 to 20)
#    0.000    1.889    1.111    5.000    0.000    6.222 
#    0.000    2.222    0.000    0.000    0.000    0.000 
#    0.000    0.889    0.000    3.333    0.000    5.111 
#
# Total GULP energy -446427.755088 kJ/mol
# GULP energy per Si atom -12400.770975 kJ/mol
# Density = 1.606726 g / cm^3
# Si number density = 16.103915 Si / 1000 Ang^3
#
#
#
# Elastic Constant Matrix: (Units=GPa)
#
#
# Indices 1 2 3 4 5 6 
#
# 1 63.9685 42.9186 35.1400 0.0000 0.0000 0.0000
# 2 42.9186 110.9903 41.3907 0.0000 0.0000 0.0000
# 3 35.1400 41.3907 100.8415 0.0000 0.0000 0.0000
# 4 0.0000 0.0000 0.0000 28.5804 0.0000 0.0000
# 5 0.0000 0.0000 0.0000 0.0000 2.3764 0.0000
# 6 0.0000 0.0000 0.0000 0.0000 0.0000 25.2546
#
#
#
# Elastic Compliance Matrix: (Units=1/GPa)
#
#
# Indices 1 2 3 4 5 6 
#
# 1 0.023210 -0.007036 -0.005200 0.000000 0.000000 0.000000
# 2 -0.007036 0.012771 -0.002790 0.000000 0.000000 0.000000
# 3 -0.005200 -0.002790 0.012874 0.000000 0.000000 0.000000
# 4 0.000000 0.000000 0.000000 0.034989 0.000000 0.000000
# 5 0.000000 0.000000 0.000000 0.000000 0.420804 0.000000
# 6 0.000000 0.000000 0.000000 0.000000 0.000000 0.039597
#
#
# Mechanical properties :
#
#
# Convention : Reuss Voigt Hill
#
# Bulk Modulus (GPa) = 53.18379 57.18876 55.18627
# Shear Modulus (GPa) = 8.61233 21.66568 15.13901
#
# Velocity S-wave (km/s) = 2.31508 3.67190 3.06940
# Velocity P-wave (km/s) = 6.34375 7.31892 6.84871
#
# Compressibility (1/GPa) = 0.01880272
#
# Stress axis : x y z
#
# Youngs Moduli (GPa) = 43.08532 78.30281 77.67706
#
# Poissons Ratio (x) = 0.55092 0.40392
# Poissons Ratio (y) = 0.30314 0.21673
# Poissons Ratio (z) = 0.22404 0.21848
#
# Static dielectric constant tensor:
#      x y z
#    x 2.834050 0.000000 0.000000 
#    y 0.000000 3.204540 0.000000 
#    z 0.000000 0.000000 3.338260 
# 
# 
# High freq. dielectric constant tensor:
#      x y z
#    x 1.584090 0.000000 0.000000 
#    y 0.000000 1.635060 0.000000 
#    z 0.000000 0.000000 1.613490 
# 
# From -- ./inp_files/49758.got.cif
#   From: 2010.03.12/outbox.cif.g09.slc.cpg/sg65_25_cif.got.tgz:49758.got - 2010.04.10 20:52:16.
