data_PCOD8269909
_publ_section_title
;
Structure prediction by ZEFSAII (Michael W. Deem and Ramdas Pophale) SiO2 
 PCOD8269909
Probable space group: C M M M
;
_chemical_formula_sum "Si O2"
_cell_formula_units_Z 88
_cell_length_a 11.233292
_cell_length_b 27.566270
_cell_length_c 17.967082
_cell_angle_alpha 90.000000
_cell_angle_beta 90.000000
_cell_angle_gamma 90.000000
_cell_volume 5563.685898
_symmetry_space_group_name_H-M "C M M M"
_symmetry_group_IT_number 65
_symmetry_cell_setting 'orthorhombic'
loop_
_space_group_symop_operation_xyz
x,y,z
-x,-y,z
x,-y,-z
-x,y,-z
-x,-y,-z
x,y,-z
-x,y,z
x,-y,z
1/2+x,1/2+y,z
1/2-x,1/2-y,z
1/2+x,1/2-y,-z
1/2-x,1/2+y,-z
1/2-x,1/2-y,-z
1/2+x,1/2+y,-z
1/2-x,1/2+y,z
1/2+x,1/2-y,z
loop_
_atom_site_type_symbol
_atom_site_label
_atom_site_fract_x
_atom_site_fract_y
_atom_site_fract_z
Si Si1 0.780951 0.113251 0.583416
Si Si2 0.248470 0.942534 0.850726
Si Si3 0.639021 0.054302 0.301992
Si Si4 0.000000 0.056818 0.373355
Si Si5 0.136289 0.781141 0.411889
Si Si6 0.365423 0.942029 0.000000
Si Si7 0.000000 0.942255 0.795388
O O1 0.728002 0.118457 0.500000
O O2 0.678804 0.093604 0.637488
O O3 0.834541 0.163983 0.612044
O O4 0.885571 0.074302 0.582215
O O5 0.325912 0.926490 0.779654
O O6 0.301468 0.920325 0.926644
O O7 0.114881 0.922672 0.839389
O O8 0.249852 0.000000 0.857809
O O9 0.500000 0.050069 0.307388
O O10 0.694879 0.000000 0.315637
O O11 0.000000 0.077641 0.288949
O O12 0.000000 0.000000 0.372382
O O13 0.132699 0.775444 0.500000
O O14 0.250000 0.750000 0.380280
O O15 0.000000 0.767464 0.382587
O O16 0.500000 0.923183 0.000000
O O17 0.361421 0.000000 0.000000
O O18 0.000000 0.000000 0.792944
#
# Coordination Sequence:
#
# PCOD8269909 Si02
#       7
#    16  16  16   8  16   8   8
#     4  11  21  32  47  67  88 116 158 197 234 279
#     4   9  16  27  41  58  80 109 148 188 227 269
#     4  10  20  32  44  60  89 126 158 191 232 278
#     4  11  19  30  46  66  92 121 157 196 233 272
#     4   9  18  33  51  69  89 113 146 193 245 293
#     4   9  16  25  39  57  77 106 146 187 222 263
#     4   9  16  26  42  60  81 113 149 185 228 269
#
# _framework density 15.816853
#
# number of rings (size 3 to 8) (size 9 to 14) (size 15 to 20)
#    0.000    2.273    2.727    1.364    0.000    5.455 
#    0.000    4.545    0.000    0.000    0.000    0.000 
#    0.000    0.000    0.000    0.818    0.000    6.636 
#
# Total GULP energy -545235.302451 kJ/mol
# GULP energy per Si atom -12391.711419 kJ/mol
# Density = 1.578085 g / cm^3
# Si number density = 15.816853 Si / 1000 Ang^3
#
#
#
# Elastic Constant Matrix: (Units=GPa)
#
#
# Indices 1 2 3 4 5 6 
#
# 1 101.1349 35.2952 36.1067 0.0000 0.0000 0.0000
# 2 35.2952 46.8133 24.3422 0.0000 0.0000 0.0000
# 3 36.1067 24.3422 87.9926 0.0000 0.0000 0.0000
# 4 0.0000 0.0000 0.0000 1.7834 0.0000 0.0000
# 5 0.0000 0.0000 0.0000 0.0000 23.3095 0.0000
# 6 0.0000 0.0000 0.0000 0.0000 0.0000 17.7904
#
#
#
# Elastic Compliance Matrix: (Units=1/GPa)
#
#
# Indices 1 2 3 4 5 6 
#
# 1 0.014217 -0.008977 -0.003350 0.000000 0.000000 0.000000
# 2 -0.008977 0.030619 -0.004787 0.000000 0.000000 0.000000
# 3 -0.003350 -0.004787 0.014064 0.000000 0.000000 0.000000
# 4 0.000000 0.000000 0.000000 0.560733 0.000000 0.000000
# 5 0.000000 0.000000 0.000000 0.000000 0.042901 0.000000
# 6 0.000000 0.000000 0.000000 0.000000 0.000000 0.056210
#
#
# Mechanical properties :
#
#
# Convention : Reuss Voigt Hill
#
# Bulk Modulus (GPa) = 40.53316 47.49213 44.01265
# Shear Modulus (GPa) = 6.56863 17.92311 12.24587
#
# Velocity S-wave (km/s) = 2.04008 3.36990 2.78552
# Velocity P-wave (km/s) = 5.58851 6.72556 6.18323
#
# Compressibility (1/GPa) = 0.02467116
#
# Stress axis : x y z
#
# Youngs Moduli (GPa) = 70.33996 32.65999 71.10556
#
# Poissons Ratio (x) = 0.29318 0.23823
# Poissons Ratio (y) = 0.63141 0.34037
# Poissons Ratio (z) = 0.23566 0.15634
#
# Static dielectric constant tensor:
#      x y z
#    x 3.280320 0.000000 0.000000 
#    y 0.000000 2.679270 0.000000 
#    z 0.000000 0.000000 3.046420 
# 
# 
# High freq. dielectric constant tensor:
#      x y z
#    x 1.625380 0.000000 0.000000 
#    y 0.000000 1.548140 0.000000 
#    z 0.000000 0.000000 1.589140 
# 
# From -- ./inp_files/52101.got.cif
#   From: 2010.03.12/outbox.cif.g09.slc.cpg/sg65_27_cif.got.tgz:52101.got - 2010.04.10 20:52:16.
