data_PCOD8269263
_publ_section_title
;
Structure prediction by ZEFSAII (Michael W. Deem and Ramdas Pophale) SiO2 
 PCOD8269263
Probable space group: C M M M
;
_chemical_formula_sum "Si O2"
_cell_formula_units_Z 64
_cell_length_a 17.456369
_cell_length_b 10.249906
_cell_length_c 18.008627
_cell_angle_alpha 90.000000
_cell_angle_beta 90.000000
_cell_angle_gamma 90.000000
_cell_volume 3222.214140
_symmetry_space_group_name_H-M "C M M M"
_symmetry_group_IT_number 65
_symmetry_cell_setting 'orthorhombic'
loop_
_space_group_symop_operation_xyz
x,y,z
-x,-y,z
x,-y,-z
-x,y,-z
-x,-y,-z
x,y,-z
-x,y,z
x,-y,z
1/2+x,1/2+y,z
1/2-x,1/2-y,z
1/2+x,1/2-y,-z
1/2-x,1/2+y,-z
1/2-x,1/2-y,-z
1/2+x,1/2+y,-z
1/2-x,1/2+y,z
1/2+x,1/2-y,z
loop_
_atom_site_type_symbol
_atom_site_label
_atom_site_fract_x
_atom_site_fract_y
_atom_site_fract_z
Si Si1 0.908455 0.218616 0.415683
Si Si2 0.582343 0.000000 0.413148
Si Si3 0.815518 0.854379 0.716328
Si Si4 0.678002 0.345394 0.000000
Si Si5 0.085072 0.846443 0.146043
O O1 0.885726 0.179710 0.500000
O O2 0.875486 0.364120 0.394273
O O3 0.867331 0.125096 0.357377
O O4 0.000000 0.211641 0.406995
O O5 0.500000 0.000000 0.372085
O O6 0.566079 0.000000 0.500000
O O7 0.750000 0.750000 0.701508
O O8 0.866724 0.796974 0.783364
O O9 0.783325 0.000000 0.735391
O O10 0.750000 0.250000 0.000000
O O11 0.628147 0.306711 0.071173
O O12 0.700938 0.500000 0.000000
O O13 0.000000 0.782753 0.146836
O O14 0.076216 0.000000 0.150918
#
# Coordination Sequence:
#
# PCOD8269263 Si02
#       5
#    16   8  16   8  16
#     4   9  18  34  57  81 105 138 183 230 275 326
#     4   7  12  26  50  78 102 127 164 216 271 317
#     4  11  24  38  54  78 111 147 181 227 281 329
#     4  10  19  33  59  89 117 150 180 216 268 324
#     4   9  18  35  59  85 110 141 187 232 267 313
#
# _framework density 19.862119
#
# number of rings (size 3 to 8) (size 9 to 14) (size 15 to 20)
#    0.000    2.625    0.000    3.375    1.750    4.000 
#    0.000    1.250    0.000    3.000    0.000    0.000 
#    0.000    0.000    0.000    0.000    0.000    0.000 
#
# Total GULP energy -396469.415528 kJ/mol
# GULP energy per Si atom -12389.669235 kJ/mol
# Density = 1.981691 g / cm^3
# Si number density = 19.862119 Si / 1000 Ang^3
#
#
#
# Elastic Constant Matrix: (Units=GPa)
#
#
# Indices 1 2 3 4 5 6 
#
# 1 102.2940 34.9991 63.6336 0.0000 0.0000 0.0000
# 2 34.9991 67.0055 20.7276 0.0000 0.0000 0.0000
# 3 63.6336 20.7276 148.9881 0.0000 0.0000 0.0000
# 4 0.0000 0.0000 0.0000 16.9757 0.0000 0.0000
# 5 0.0000 0.0000 0.0000 0.0000 4.8481 0.0000
# 6 0.0000 0.0000 0.0000 0.0000 0.0000 32.8867
#
#
#
# Elastic Compliance Matrix: (Units=1/GPa)
#
#
# Indices 1 2 3 4 5 6 
#
# 1 0.015515 -0.006326 -0.005746 0.000000 0.000000 0.000000
# 2 -0.006326 0.018175 0.000173 0.000000 0.000000 0.000000
# 3 -0.005746 0.000173 0.009142 0.000000 0.000000 0.000000
# 4 0.000000 0.000000 0.000000 0.058908 0.000000 0.000000
# 5 0.000000 0.000000 0.000000 0.000000 0.206268 0.000000
# 6 0.000000 0.000000 0.000000 0.000000 0.000000 0.030407
#
#
# Mechanical properties :
#
#
# Convention : Reuss Voigt Hill
#
# Bulk Modulus (GPa) = 52.53897 61.88981 57.21439
# Shear Modulus (GPa) = 13.56639 24.20390 18.88515
#
# Velocity S-wave (km/s) = 2.61632 3.49463 3.08687
# Velocity P-wave (km/s) = 5.96960 6.89279 6.44774
#
# Compressibility (1/GPa) = 0.01903349
#
# Stress axis : x y z
#
# Youngs Moduli (GPa) = 64.45441 55.02087 109.38398
#
# Poissons Ratio (x) = 0.34808 0.62856
# Poissons Ratio (y) = 0.40776 -0.01897
# Poissons Ratio (z) = 0.37038 -0.00954
#
# Static dielectric constant tensor:
#      x y z
#    x 3.503460 0.000000 0.000000 
#    y 0.000000 3.750840 0.000000 
#    z 0.000000 0.000000 3.866330 
# 
# 
# High freq. dielectric constant tensor:
#      x y z
#    x 1.760320 0.000000 0.000000 
#    y 0.000000 1.754090 0.000000 
#    z 0.000000 0.000000 1.775780 
# 
# From -- ./inp_files/41897.got.cif
#   From: 2010.03.12/outbox.cif.g09.slc.cpg/sg65_21_cif.got.tgz:41897.got - 2010.04.10 20:52:16.
