data_PCOD8269438
_publ_section_title
;
Structure prediction by ZEFSAII (Michael W. Deem and Ramdas Pophale) SiO2 
 PCOD8269438
Probable space group: C M M M
;
_chemical_formula_sum "Si O2"
_cell_formula_units_Z 88
_cell_length_a 23.943971
_cell_length_b 8.476149
_cell_length_c 22.921355
_cell_angle_alpha 90.000000
_cell_angle_beta 90.000000
_cell_angle_gamma 90.000000
_cell_volume 4651.950102
_symmetry_space_group_name_H-M "C M M M"
_symmetry_group_IT_number 65
_symmetry_cell_setting 'orthorhombic'
loop_
_space_group_symop_operation_xyz
x,y,z
-x,-y,z
x,-y,-z
-x,y,-z
-x,-y,-z
x,y,-z
-x,y,z
x,-y,z
1/2+x,1/2+y,z
1/2-x,1/2-y,z
1/2+x,1/2-y,-z
1/2-x,1/2+y,-z
1/2-x,1/2-y,-z
1/2+x,1/2+y,-z
1/2-x,1/2+y,z
1/2+x,1/2-y,z
loop_
_atom_site_type_symbol
_atom_site_label
_atom_site_fract_x
_atom_site_fract_y
_atom_site_fract_z
Si Si1 0.000000 0.817063 0.311518
Si Si2 0.189347 0.813506 0.435728
Si Si3 0.500000 0.316808 0.177370
Si Si4 0.621176 0.688905 0.673835
Si Si5 0.187715 0.686437 0.214656
Si Si6 0.934585 0.313042 0.000000
Si Si7 0.609904 0.687972 0.118345
O O1 0.000000 0.780134 0.244179
O O2 0.057960 0.745090 0.335238
O O3 0.000000 0.000000 0.326459
O O4 0.168579 0.756526 0.500000
O O5 0.250000 0.750000 0.422306
O O6 0.150753 0.746949 0.384393
O O7 0.190749 0.000000 0.433483
O O8 0.500000 0.500000 0.162232
O O9 0.444499 0.241693 0.150613
O O10 0.621825 0.500000 0.679528
O O11 0.649307 0.754346 0.732194
O O12 0.189493 0.500000 0.215581
O O13 0.250000 0.750000 0.223271
O O14 0.163818 0.744457 0.152219
O O15 0.897067 0.249424 0.947017
O O16 0.935431 0.500000 0.000000
O O17 0.000000 0.251006 0.000000
O O18 0.614017 0.500000 0.119426
#
# Coordination Sequence:
#
# PCOD8269438 Si02
#       7
#     8  16   8  16  16   8  16
#     4   9  16  30  52  81 111 145 179 219 276 335
#     4   9  18  32  51  76 106 142 187 236 282 328
#     4   9  16  29  55  83 111 143 182 223 272 328
#     4  10  19  34  56  81 111 147 186 228 277 338
#     4  12  25  40  58  83 113 146 185 234 286 337
#     4  11  23  37  56  89 126 155 189 234 278 324
#     4  11  21  38  61  86 114 151 193 232 278 334
#
# _framework density 18.916798
#
# number of rings (size 3 to 8) (size 9 to 14) (size 15 to 20)
#    0.000    1.727    2.727    3.000    0.000    2.545 
#    0.000    2.273    0.000    2.727    0.000    0.000 
#    0.000    4.364    0.000    0.000    0.000    0.000 
#
# Total GULP energy -545301.990413 kJ/mol
# GULP energy per Si atom -12393.227055 kJ/mol
# Density = 1.887374 g / cm^3
# Si number density = 18.916798 Si / 1000 Ang^3
#
#
#
# Elastic Constant Matrix: (Units=GPa)
#
#
# Indices 1 2 3 4 5 6 
#
# 1 142.4607 30.9861 76.7309 0.0000 0.0000 0.0000
# 2 30.9861 63.9587 28.8896 0.0000 0.0000 0.0000
# 3 76.7309 28.8896 162.5615 0.0000 0.0000 0.0000
# 4 0.0000 0.0000 0.0000 20.7732 0.0000 0.0000
# 5 0.0000 0.0000 0.0000 0.0000 45.2360 0.0000
# 6 0.0000 0.0000 0.0000 0.0000 0.0000 19.6014
#
#
#
# Elastic Compliance Matrix: (Units=1/GPa)
#
#
# Indices 1 2 3 4 5 6 
#
# 1 0.009889 -0.002917 -0.004149 0.000000 0.000000 0.000000
# 2 -0.002917 0.017860 -0.001797 0.000000 0.000000 0.000000
# 3 -0.004149 -0.001797 0.008429 0.000000 0.000000 0.000000
# 4 0.000000 0.000000 0.000000 0.048139 0.000000 0.000000
# 5 0.000000 0.000000 0.000000 0.000000 0.022106 0.000000
# 6 0.000000 0.000000 0.000000 0.000000 0.000000 0.051017
#
#
# Mechanical properties :
#
#
# Convention : Reuss Voigt Hill
#
# Bulk Modulus (GPa) = 54.19551 71.35491 62.77521
# Shear Modulus (GPa) = 27.57602 32.61375 30.09489
#
# Velocity S-wave (km/s) = 3.82220 4.15669 3.99295
# Velocity P-wave (km/s) = 6.94194 7.79998 7.38343
#
# Compressibility (1/GPa) = 0.01845171
#
# Stress axis : x y z
#
# Youngs Moduli (GPa) = 101.12564 55.99130 118.63218
#
# Poissons Ratio (x) = 0.16330 0.49223
# Poissons Ratio (y) = 0.29494 0.21322
# Poissons Ratio (z) = 0.41960 0.10063
#
# Static dielectric constant tensor:
#      x y z
#    x 2.982920 0.000000 0.000000 
#    y 0.000000 3.300890 0.000000 
#    z 0.000000 0.000000 3.749100 
# 
# 
# High freq. dielectric constant tensor:
#      x y z
#    x 1.737470 0.000000 0.000000 
#    y 0.000000 1.717500 0.000000 
#    z 0.000000 0.000000 1.741220 
# 
# From -- ./inp_files/65256.got.cif
#   From: 2010.03.12/outbox.cif.g09.slc.cpg/sg65_33_cif.got.tgz:65256.got - 2010.04.10 20:52:16.
