data_PCOD8269852
_publ_section_title
;
Structure prediction by ZEFSAII (Michael W. Deem and Ramdas Pophale) SiO2 
 PCOD8269852
Probable space group: C M M M
;
_chemical_formula_sum "Si O2"
_cell_formula_units_Z 104
_cell_length_a 8.964649
_cell_length_b 30.021219
_cell_length_c 23.183776
_cell_angle_alpha 90.000000
_cell_angle_beta 90.000000
_cell_angle_gamma 90.000000
_cell_volume 6239.442468
_symmetry_space_group_name_H-M "C M M M"
_symmetry_group_IT_number 65
_symmetry_cell_setting 'orthorhombic'
loop_
_space_group_symop_operation_xyz
x,y,z
-x,-y,z
x,-y,-z
-x,y,-z
-x,-y,-z
x,y,-z
-x,y,z
x,-y,z
1/2+x,1/2+y,z
1/2-x,1/2-y,z
1/2+x,1/2-y,-z
1/2-x,1/2+y,-z
1/2-x,1/2-y,-z
1/2+x,1/2+y,-z
1/2-x,1/2+y,z
1/2+x,1/2-y,z
loop_
_atom_site_type_symbol
_atom_site_label
_atom_site_fract_x
_atom_site_fract_y
_atom_site_fract_z
Si Si1 0.328383 0.831707 0.064111
Si Si2 0.827615 0.294085 0.815234
Si Si3 0.823933 0.084696 0.889866
Si Si4 0.833658 0.552634 0.436853
Si Si5 0.325257 0.551799 0.322776
Si Si6 0.822883 0.390040 0.225727
Si Si7 0.336303 0.000000 0.066063
O O1 0.500000 0.847512 0.071138
O O2 0.289668 0.797991 0.116163
O O3 0.222115 0.874003 0.070251
O O4 0.302650 0.810483 0.000000
O O5 0.750000 0.250000 0.790301
O O6 0.774546 0.337867 0.779692
O O7 0.000000 0.286733 0.805239
O O8 0.746537 0.084490 0.827909
O O9 0.000000 0.083932 0.881641
O O10 0.766884 0.041390 0.920765
O O11 0.783124 0.571190 0.500000
O O12 0.839042 0.500000 0.440188
O O13 0.717147 0.566952 0.387627
O O14 0.000000 0.570572 0.421894
O O15 0.500000 0.557955 0.313545
O O16 0.278834 0.500000 0.310997
O O17 0.238572 0.586222 0.282414
O O18 0.000000 0.394402 0.224015
O O19 0.500000 0.000000 0.097963
O O20 0.374363 0.000000 0.000000
#
# Coordination Sequence:
#
# PCOD8269852 Si02
#       7
#    16  16  16  16  16  16   8
#     4   9  18  34  52  69  93 122 150 181 226 292
#     4   9  19  34  52  73  94 120 154 194 242 294
#     4  11  22  34  49  69  92 116 150 199 244 280
#     4   8  14  26  44  66  95 134 176 208 236 277
#     4  10  20  31  46  72 104 134 168 209 248 280
#     4  10  21  37  53  69  94 129 165 196 237 294
#     4  11  23  37  51  65  85 119 158 191 232 289
#
# _framework density 16.668156
#
# number of rings (size 3 to 8) (size 9 to 14) (size 15 to 20)
#    0.000    2.385    0.000    4.385    1.077    7.385 
#    0.000    1.538    0.000    0.000    0.000    0.000 
#    0.000    0.615    0.000    2.000    0.000    2.462 
#
# Total GULP energy -644432.291301 kJ/mol
# GULP energy per Si atom -12392.928679 kJ/mol
# Density = 1.663022 g / cm^3
# Si number density = 16.668156 Si / 1000 Ang^3
#
#
#
# Elastic Constant Matrix: (Units=GPa)
#
#
# Indices 1 2 3 4 5 6 
#
# 1 81.5353 40.8689 40.4351 0.0000 0.0000 0.0000
# 2 40.8689 78.5809 38.4595 0.0000 0.0000 0.0000
# 3 40.4351 38.4595 92.1784 0.0000 0.0000 0.0000
# 4 0.0000 0.0000 0.0000 13.3103 0.0000 0.0000
# 5 0.0000 0.0000 0.0000 0.0000 15.8136 0.0000
# 6 0.0000 0.0000 0.0000 0.0000 0.0000 28.0236
#
#
#
# Elastic Compliance Matrix: (Units=1/GPa)
#
#
# Indices 1 2 3 4 5 6 
#
# 1 0.018319 -0.007030 -0.005103 0.000000 0.000000 0.000000
# 2 -0.007030 0.018689 -0.004714 0.000000 0.000000 0.000000
# 3 -0.005103 -0.004714 0.015054 0.000000 0.000000 0.000000
# 4 0.000000 0.000000 0.000000 0.075130 0.000000 0.000000
# 5 0.000000 0.000000 0.000000 0.000000 0.063237 0.000000
# 6 0.000000 0.000000 0.000000 0.000000 0.000000 0.035684
#
#
# Mechanical properties :
#
#
# Convention : Reuss Voigt Hill
#
# Bulk Modulus (GPa) = 54.44093 54.64684 54.54388
# Shear Modulus (GPa) = 18.80207 20.26490 19.53348
#
# Velocity S-wave (km/s) = 3.36225 3.49059 3.42702
# Velocity P-wave (km/s) = 6.91415 7.00728 6.96087
#
# Compressibility (1/GPa) = 0.01836853
#
# Stress axis : x y z
#
# Youngs Moduli (GPa) = 54.58853 53.50728 66.42929
#
# Poissons Ratio (x) = 0.37616 0.33896
# Poissons Ratio (y) = 0.38376 0.31314
# Poissons Ratio (z) = 0.27855 0.25222
#
# Static dielectric constant tensor:
#      x y z
#    x 3.167460 0.000000 0.000000 
#    y 0.000000 2.948470 0.000000 
#    z 0.000000 0.000000 3.287160 
# 
# 
# High freq. dielectric constant tensor:
#      x y z
#    x 1.650920 0.000000 0.000000 
#    y 0.000000 1.611840 0.000000 
#    z 0.000000 0.000000 1.630060 
# 
# From -- ./inp_files/68175.got.cif
#   From: 2010.03.12/outbox.cif.g09.slc.cpg/sg65_35_cif.got.tgz:68175.got - 2010.04.10 20:52:16.
