data_PCOD8269143
_publ_section_title
;
Structure prediction by ZEFSAII (Michael W. Deem and Ramdas Pophale) SiO2 
 PCOD8269143
Probable space group: C M M M
;
_chemical_formula_sum "Si O2"
_cell_formula_units_Z 96
_cell_length_a 19.169678
_cell_length_b 19.143863
_cell_length_c 14.899447
_cell_angle_alpha 90.000000
_cell_angle_beta 90.000000
_cell_angle_gamma 90.000000
_cell_volume 5467.824231
_symmetry_space_group_name_H-M "C M M M"
_symmetry_group_IT_number 65
_symmetry_cell_setting 'orthorhombic'
loop_
_space_group_symop_operation_xyz
x,y,z
-x,-y,z
x,-y,-z
-x,y,-z
-x,-y,-z
x,y,-z
-x,y,z
x,-y,z
1/2+x,1/2+y,z
1/2-x,1/2-y,z
1/2+x,1/2-y,-z
1/2-x,1/2+y,-z
1/2-x,1/2-y,-z
1/2+x,1/2+y,-z
1/2-x,1/2+y,z
1/2+x,1/2-y,z
loop_
_atom_site_type_symbol
_atom_site_label
_atom_site_fract_x
_atom_site_fract_y
_atom_site_fract_z
Si Si1 0.204245 0.080991 0.749115
Si Si2 0.683699 0.921046 0.897290
Si Si3 0.921017 0.822072 0.764232
Si Si4 0.423218 0.775656 0.398322
Si Si5 0.722799 0.173172 0.603182
Si Si6 0.919676 0.700892 0.897006
O O1 0.249547 0.095727 0.837242
O O2 0.127704 0.110626 0.769749
O O3 0.239801 0.116050 0.663296
O O4 0.196559 0.000000 0.727180
O O5 0.621677 0.868933 0.870925
O O6 0.656660 0.000000 0.880816
O O7 0.707008 0.910238 0.000000
O O8 0.916105 0.791775 0.664104
O O9 0.893820 0.764122 0.834771
O O10 0.000000 0.844886 0.787848
O O11 0.415408 0.747748 0.500000
O O12 0.500000 0.811000 0.383407
O O13 0.361006 0.830534 0.378785
O O14 0.740413 0.156195 0.500000
O O15 0.750000 0.250000 0.629714
O O16 0.000000 0.683921 0.877096
O O17 0.907202 0.722664 0.000000
#
# Coordination Sequence:
#
# PCOD8269143 Si02
#       6
#    16  16  16  16  16  16
#     4  11  23  36  52  75 104 138 174 217 264 309
#     4   9  19  34  51  75 107 140 172 209 258 312
#     4  10  20  34  52  73 100 134 172 217 260 305
#     4   9  17  30  51  78 104 131 167 208 251 302
#     4  10  19  33  55  80 104 135 173 212 257 310
#     4   9  18  32  52  79 106 133 171 215 256 304
#
# _framework density 17.557258000000001
#
# number of rings (size 3 to 8) (size 9 to 14) (size 15 to 20)
#    0.000    2.333    1.667    1.000    0.000    1.667 
#    0.000    3.333    0.000    1.500    0.000   10.500 
#    0.000    0.000    0.000    0.000    0.000    0.000 
#
# Total GULP energy -595160.582884 kJ/mol
# GULP energy per Si atom -12399.178810 kJ/mol
# Density = 1.751730 g / cm^3
# Si number density = 17.557258 Si / 1000 Ang^3
#
#
#
# Elastic Constant Matrix: (Units=GPa)
#
#
# Indices 1 2 3 4 5 6 
#
# 1 120.1365 73.8311 49.1854 0.0000 0.0000 0.0000
# 2 73.8311 114.4377 60.9496 0.0000 0.0000 0.0000
# 3 49.1854 60.9496 87.4175 0.0000 0.0000 0.0000
# 4 0.0000 0.0000 0.0000 23.6514 0.0000 0.0000
# 5 0.0000 0.0000 0.0000 0.0000 25.2070 0.0000
# 6 0.0000 0.0000 0.0000 0.0000 0.0000 30.2643
#
#
#
# Elastic Compliance Matrix: (Units=1/GPa)
#
#
# Indices 1 2 3 4 5 6 
#
# 1 0.014138 -0.007770 -0.002537 0.000000 0.000000 0.000000
# 2 -0.007770 0.018170 -0.008297 0.000000 0.000000 0.000000
# 3 -0.002537 -0.008297 0.018652 0.000000 0.000000 0.000000
# 4 0.000000 0.000000 0.000000 0.042281 0.000000 0.000000
# 5 0.000000 0.000000 0.000000 0.000000 0.039672 0.000000
# 6 0.000000 0.000000 0.000000 0.000000 0.000000 0.033042
#
#
# Mechanical properties :
#
#
# Convention : Reuss Voigt Hill
#
# Bulk Modulus (GPa) = 72.71919 76.65822 74.68871
# Shear Modulus (GPa) = 24.06783 25.02623 24.54703
#
# Velocity S-wave (km/s) = 3.70647 3.77955 3.74319
# Velocity P-wave (km/s) = 7.73469 7.92485 7.83035
#
# Compressibility (1/GPa) = 0.01375153
#
# Stress axis : x y z
#
# Youngs Moduli (GPa) = 70.73318 55.03538 53.61402
#
# Poissons Ratio (x) = 0.42761 0.13603
# Poissons Ratio (y) = 0.54958 0.44484
# Poissons Ratio (z) = 0.17947 0.45663
#
# Static dielectric constant tensor:
#      x y z
#    x 3.494370 0.000000 0.000000 
#    y 0.000000 3.032470 0.000000 
#    z 0.000000 0.000000 3.417830 
# 
# 
# High freq. dielectric constant tensor:
#      x y z
#    x 1.689160 0.000000 0.000000 
#    y 0.000000 1.644520 0.000000 
#    z 0.000000 0.000000 1.693040 
# 
# From -- ./inp_files/40351.got.cif
#   From: 2010.03.12/outbox.cif.g09.slc.cpg/sg65_21_cif.got.tgz:40351.got - 2010.04.10 20:52:16.
