data_PCOD8269912
_publ_section_title
;
Structure prediction by ZEFSAII (Michael W. Deem and Ramdas Pophale) SiO2 
 PCOD8269912
Probable space group: C M M M
;
_chemical_formula_sum "Si O2"
_cell_formula_units_Z 72
_cell_length_a 36.325788
_cell_length_b 8.845669
_cell_length_c 14.350170
_cell_angle_alpha 90.000000
_cell_angle_beta 90.000000
_cell_angle_gamma 90.000000
_cell_volume 4611.081245
_symmetry_space_group_name_H-M "C M M M"
_symmetry_group_IT_number 65
_symmetry_cell_setting 'orthorhombic'
loop_
_space_group_symop_operation_xyz
x,y,z
-x,-y,z
x,-y,-z
-x,y,-z
-x,-y,-z
x,y,-z
-x,y,z
x,-y,z
1/2+x,1/2+y,z
1/2-x,1/2-y,z
1/2+x,1/2-y,-z
1/2-x,1/2+y,-z
1/2-x,1/2-y,-z
1/2+x,1/2+y,-z
1/2-x,1/2+y,z
1/2+x,1/2-y,z
loop_
_atom_site_type_symbol
_atom_site_label
_atom_site_fract_x
_atom_site_fract_y
_atom_site_fract_z
Si Si1 0.569721 0.320640 0.705222
Si Si2 0.286404 0.329985 0.389255
Si Si3 0.638625 0.176930 0.608380
Si Si4 0.500000 0.826888 0.610238
Si Si5 0.041331 0.820720 0.101312
O O1 0.568202 0.500000 0.696241
O O2 0.608108 0.261782 0.667406
O O3 0.536347 0.254206 0.646448
O O4 0.566677 0.265770 0.813128
O O5 0.284088 0.332903 0.500000
O O6 0.288909 0.500000 0.349592
O O7 0.250000 0.250000 0.348018
O O8 0.321888 0.235877 0.356677
O O9 0.632520 0.215032 0.500000
O O10 0.636075 0.000000 0.627409
O O11 0.500000 0.815736 0.500000
O O12 0.500000 0.000000 0.643866
O O13 0.000000 0.758103 0.117216
O O14 0.039885 0.000000 0.100978
O O15 0.056316 0.763404 0.000000
#
# Coordination Sequence:
#
# PCOD8269912 Si02
#       5
#    16  16  16   8  16
#     4  11  20  31  48  68  86 111 150 191 226 263
#     4   9  16  27  44  65  88 116 151 188 223 261
#     4  10  20  32  44  61  90 126 156 184 222 264
#     4  11  23  35  44  57  84 122 155 183 220 265
#     4   8  14  27  47  68  87 107 137 181 232 279
#
# _framework density 15.614558000000001
#
# number of rings (size 3 to 8) (size 9 to 14) (size 15 to 20)
#    0.000    2.333    1.111    3.667    0.000    7.556 
#    0.000    0.000    0.000    3.333    0.000    0.000 
#    0.000    0.889    0.000    2.444    0.000    3.556 
#
# Total GULP energy -446270.205515 kJ/mol
# GULP energy per Si atom -12396.394598 kJ/mol
# Density = 1.557902 g / cm^3
# Si number density = 15.614558 Si / 1000 Ang^3
#
#
#
# Elastic Constant Matrix: (Units=GPa)
#
#
# Indices 1 2 3 4 5 6 
#
# 1 121.9371 44.1791 55.0225 0.0000 0.0000 0.0000
# 2 44.1791 80.0632 41.8868 0.0000 0.0000 0.0000
# 3 55.0225 41.8868 81.6862 0.0000 0.0000 0.0000
# 4 0.0000 0.0000 0.0000 6.8881 0.0000 0.0000
# 5 0.0000 0.0000 0.0000 0.0000 2.0043 0.0000
# 6 0.0000 0.0000 0.0000 0.0000 0.0000 29.1594
#
#
#
# Elastic Compliance Matrix: (Units=1/GPa)
#
#
# Indices 1 2 3 4 5 6 
#
# 1 0.012419 -0.003384 -0.006630 0.000000 0.000000 0.000000
# 2 -0.003384 0.017992 -0.006946 0.000000 0.000000 0.000000
# 3 -0.006630 -0.006946 0.020269 0.000000 0.000000 0.000000
# 4 0.000000 0.000000 0.000000 0.145178 0.000000 0.000000
# 5 0.000000 0.000000 0.000000 0.000000 0.498921 0.000000
# 6 0.000000 0.000000 0.000000 0.000000 0.000000 0.034294
#
#
# Mechanical properties :
#
#
# Convention : Reuss Voigt Hill
#
# Bulk Modulus (GPa) = 59.66706 62.87370 61.27038
# Shear Modulus (GPa) = 6.50551 17.11691 11.81121
#
# Velocity S-wave (km/s) = 2.04337 3.31451 2.75330
# Velocity P-wave (km/s) = 6.62288 7.41629 7.03079
#
# Compressibility (1/GPa) = 0.01675967
#
# Stress axis : x y z
#
# Youngs Moduli (GPa) = 80.52432 55.58167 49.33547
#
# Poissons Ratio (x) = 0.18810 0.32708
# Poissons Ratio (y) = 0.27251 0.34269
# Poissons Ratio (z) = 0.53385 0.38608
#
# Static dielectric constant tensor:
#      x y z
#    x 3.064790 0.000000 0.000000 
#    y 0.000000 3.028360 0.000000 
#    z 0.000000 0.000000 3.060730 
# 
# 
# High freq. dielectric constant tensor:
#      x y z
#    x 1.594090 0.000000 0.000000 
#    y 0.000000 1.601420 0.000000 
#    z 0.000000 0.000000 1.567350 
# 
# From -- ./inp_files/36938.got.cif
#   From: 2010.03.12/outbox.cif.g09.slc.cpg/sg65_19_cif.got.tgz:36938.got - 2010.04.10 20:52:16.
