data_PCOD8269747
_publ_section_title
;
Structure prediction by ZEFSAII (Michael W. Deem and Ramdas Pophale) SiO2 
 PCOD8269747
Probable space group: C M M M
;
_chemical_formula_sum "Si O2"
_cell_formula_units_Z 72
_cell_length_a 10.050738
_cell_length_b 17.989225
_cell_length_c 20.698952
_cell_angle_alpha 90.000000
_cell_angle_beta 90.000000
_cell_angle_gamma 90.000000
_cell_volume 3742.473753
_symmetry_space_group_name_H-M "C M M M"
_symmetry_group_IT_number 65
_symmetry_cell_setting 'orthorhombic'
loop_
_space_group_symop_operation_xyz
x,y,z
-x,-y,z
x,-y,-z
-x,y,-z
-x,-y,-z
x,y,-z
-x,y,z
x,-y,z
1/2+x,1/2+y,z
1/2-x,1/2-y,z
1/2+x,1/2-y,-z
1/2-x,1/2+y,-z
1/2-x,1/2-y,-z
1/2+x,1/2+y,-z
1/2-x,1/2+y,z
1/2+x,1/2-y,z
loop_
_atom_site_type_symbol
_atom_site_label
_atom_site_fract_x
_atom_site_fract_y
_atom_site_fract_z
Si Si1 0.241266 0.339003 0.372655
Si Si2 0.150968 0.587272 0.888105
Si Si3 0.653338 0.411593 0.000000
Si Si4 0.500000 0.588132 0.424392
Si Si5 0.651880 0.181079 0.237503
Si Si6 0.859011 0.687204 0.500000
O O1 0.250000 0.250000 0.370478
O O2 0.380097 0.378480 0.383650
O O3 0.177970 0.363779 0.304518
O O4 0.152499 0.362595 0.435077
O O5 0.166869 0.500000 0.878727
O O6 0.180799 0.624256 0.819755
O O7 0.000000 0.605885 0.912237
O O8 0.262565 0.617097 0.938166
O O9 0.649539 0.500000 0.000000
O O10 0.500000 0.380750 0.000000
O O11 0.500000 0.500000 0.419353
O O12 0.500000 0.612773 0.500000
O O13 0.500000 0.210142 0.236296
O O14 0.750000 0.250000 0.229417
O O15 0.750000 0.750000 0.500000
O O16 0.000000 0.728633 0.500000
#
# Coordination Sequence:
#
# PCOD8269747 Si02
#       6
#    16  16   8   8  16   8
#     4  10  22  34  61  84 116 149 208 242 293 350
#     4   9  18  35  58  82 110 149 191 231 283 348
#     4   9  17  31  54  85 114 141 185 241 284 333
#     4  11  24  42  60  90 125 158 194 256 320 368
#     4  10  22  37  57  85 120 153 192 242 294 344
#     4  10  20  30  54  85 113 141 195 253 293 337
#
# _framework density 19.238612
#
# number of rings (size 3 to 8) (size 9 to 14) (size 15 to 20)
#    0.000    2.222    1.111    1.000   12.444    3.111 
#    0.000    0.556    0.000    2.667    0.000    0.000 
#    0.000    0.000    0.000    0.000    0.000    0.000 
#
# Total GULP energy -446043.848355 kJ/mol
# GULP energy per Si atom -12390.106899 kJ/mol
# Density = 1.919482 g / cm^3
# Si number density = 19.238612 Si / 1000 Ang^3
#
#
#
# Elastic Constant Matrix: (Units=GPa)
#
#
# Indices 1 2 3 4 5 6 
#
# 1 173.2059 38.6769 88.1387 0.0000 0.0000 0.0000
# 2 38.6769 46.3214 34.9365 0.0000 0.0000 0.0000
# 3 88.1387 34.9365 188.3049 0.0000 0.0000 0.0000
# 4 0.0000 0.0000 0.0000 30.6697 0.0000 0.0000
# 5 0.0000 0.0000 0.0000 0.0000 34.8290 0.0000
# 6 0.0000 0.0000 0.0000 0.0000 0.0000 21.0497
#
#
#
# Elastic Compliance Matrix: (Units=1/GPa)
#
#
# Indices 1 2 3 4 5 6 
#
# 1 0.008372 -0.004691 -0.003048 0.000000 0.000000 0.000000
# 2 -0.004691 0.027730 -0.002949 0.000000 0.000000 0.000000
# 3 -0.003048 -0.002949 0.007284 0.000000 0.000000 0.000000
# 4 0.000000 0.000000 0.000000 0.032606 0.000000 0.000000
# 5 0.000000 0.000000 0.000000 0.000000 0.028712 0.000000
# 6 0.000000 0.000000 0.000000 0.000000 0.000000 0.047507
#
#
# Mechanical properties :
#
#
# Convention : Reuss Voigt Hill
#
# Bulk Modulus (GPa) = 45.43581 81.25960 63.34771
# Shear Modulus (GPa) = 27.63596 33.71501 30.67549
#
# Velocity S-wave (km/s) = 3.79421 4.19079 3.99742
# Velocity P-wave (km/s) = 6.54698 8.10842 7.36917
#
# Compressibility (1/GPa) = 0.02200907
#
# Stress axis : x y z
#
# Youngs Moduli (GPa) = 119.44175 36.06258 137.27855
#
# Poissons Ratio (x) = 0.16919 0.41847
# Poissons Ratio (y) = 0.56036 0.40481
# Poissons Ratio (z) = 0.36410 0.10634
#
# Static dielectric constant tensor:
#      x y z
#    x 3.714240 0.000000 0.000000 
#    y 0.000000 3.079430 0.000000 
#    z 0.000000 0.000000 4.520260 
# 
# 
# High freq. dielectric constant tensor:
#      x y z
#    x 1.761070 0.000000 0.000000 
#    y 0.000000 1.699690 0.000000 
#    z 0.000000 0.000000 1.768290 
# 
# From -- ./inp_files/59439.got.cif
#   From: 2010.03.12/outbox.cif.g09.slc.cpg/sg65_30_cif.got.tgz:59439.got - 2010.04.10 20:52:16.
