data_PCOD8269949
_publ_section_title
;
Structure prediction by ZEFSAII (Michael W. Deem and Ramdas Pophale) SiO2 
 PCOD8269949
Probable space group: C M M M
;
_chemical_formula_sum "Si O2"
_cell_formula_units_Z 96
_cell_length_a 9.329652
_cell_length_b 27.598546
_cell_length_c 23.289862
_cell_angle_alpha 90.000000
_cell_angle_beta 90.000000
_cell_angle_gamma 90.000000
_cell_volume 5996.786155
_symmetry_space_group_name_H-M "C M M M"
_symmetry_group_IT_number 65
_symmetry_cell_setting 'orthorhombic'
loop_
_space_group_symop_operation_xyz
x,y,z
-x,-y,z
x,-y,-z
-x,y,-z
-x,-y,-z
x,y,-z
-x,y,z
x,-y,z
1/2+x,1/2+y,z
1/2-x,1/2-y,z
1/2+x,1/2-y,-z
1/2-x,1/2+y,-z
1/2-x,1/2-y,-z
1/2+x,1/2+y,-z
1/2-x,1/2+y,z
1/2+x,1/2-y,z
loop_
_atom_site_type_symbol
_atom_site_label
_atom_site_fract_x
_atom_site_fract_y
_atom_site_fract_z
Si Si1 0.165938 0.798685 0.066529
Si Si2 0.666920 0.444997 0.565933
Si Si3 0.834376 0.701608 0.271975
Si Si4 0.332022 0.145158 0.157164
Si Si5 0.331691 0.893701 0.662592
Si Si6 0.170130 0.553520 0.225096
O O1 0.250000 0.750000 0.082363
O O2 0.236299 0.842129 0.102221
O O3 0.000000 0.791746 0.083340
O O4 0.183541 0.811998 0.000000
O O5 0.701048 0.432827 0.500000
O O6 0.500000 0.438835 0.578828
O O7 0.715273 0.500000 0.579967
O O8 0.752971 0.406690 0.603909
O O9 0.750000 0.750000 0.286446
O O10 0.795609 0.681768 0.208869
O O11 0.796033 0.661499 0.319865
O O12 0.000000 0.714764 0.274554
O O13 0.500000 0.147349 0.141302
O O14 0.284082 0.090931 0.175359
O O15 0.500000 0.900768 0.653485
O O16 0.273148 0.928897 0.712987
O O17 0.231605 0.500000 0.211253
O O18 0.000000 0.553370 0.228388
#
# Coordination Sequence:
#
# PCOD8269949 Si02
#       6
#    16  16  16  16  16  16
#     4  10  20  32  46  65  89 116 146 181 221 263
#     4   9  18  31  45  64  92 121 146 176 217 263
#     4   9  18  30  44  66  93 118 145 179 219 261
#     4   9  17  29  46  68  92 117 146 180 217 258
#     4   9  17  29  46  68  91 115 147 184 218 256
#     4   8  14  26  45  68  93 119 145 177 218 259
#
# _framework density 16.008575
#
# number of rings (size 3 to 8) (size 9 to 14) (size 15 to 20)
#    0.000    3.000    0.000    4.000    0.000    5.000 
#    0.000    3.333    0.000    2.500    0.000    3.500 
#    0.000    0.000    0.000    0.000    0.000    0.000 
#
# Total GULP energy -595089.450198 kJ/mol
# GULP energy per Si atom -12397.696879 kJ/mol
# Density = 1.597214 g / cm^3
# Si number density = 16.008575 Si / 1000 Ang^3
#
#
#
# Elastic Constant Matrix: (Units=GPa)
#
#
# Indices 1 2 3 4 5 6 
#
# 1 63.9603 52.2708 50.1428 0.0000 0.0000 0.0000
# 2 52.2708 129.5689 61.6208 0.0000 0.0000 0.0000
# 3 50.1428 61.6208 89.0630 0.0000 0.0000 0.0000
# 4 0.0000 0.0000 0.0000 27.2597 0.0000 0.0000
# 5 0.0000 0.0000 0.0000 0.0000 29.2083 0.0000
# 6 0.0000 0.0000 0.0000 0.0000 0.0000 25.4661
#
#
#
# Elastic Compliance Matrix: (Units=1/GPa)
#
#
# Indices 1 2 3 4 5 6 
#
# 1 0.031080 -0.006284 -0.013150 0.000000 0.000000 0.000000
# 2 -0.006284 0.012774 -0.005300 0.000000 0.000000 0.000000
# 3 -0.013150 -0.005300 0.022298 0.000000 0.000000 0.000000
# 4 0.000000 0.000000 0.000000 0.036684 0.000000 0.000000
# 5 0.000000 0.000000 0.000000 0.000000 0.034237 0.000000
# 6 0.000000 0.000000 0.000000 0.000000 0.000000 0.039268
#
#
# Mechanical properties :
#
#
# Convention : Reuss Voigt Hill
#
# Bulk Modulus (GPa) = 59.93936 67.85122 63.89529
# Shear Modulus (GPa) = 21.61045 24.29065 22.95055
#
# Velocity S-wave (km/s) = 3.67812 3.89955 3.79045
# Velocity P-wave (km/s) = 7.45396 7.92159 7.69133
#
# Compressibility (1/GPa) = 0.01668353
#
# Stress axis : x y z
#
# Youngs Moduli (GPa) = 32.17539 78.28683 44.84655
#
# Poissons Ratio (x) = 0.49197 0.58973
# Poissons Ratio (y) = 0.20220 0.23767
# Poissons Ratio (z) = 0.42311 0.41489
#
# Static dielectric constant tensor:
#      x y z
#    x 2.829030 0.000000 0.000000 
#    y 0.000000 3.144460 0.000000 
#    z 0.000000 0.000000 2.908250 
# 
# 
# High freq. dielectric constant tensor:
#      x y z
#    x 1.600970 0.000000 0.000000 
#    y 0.000000 1.609920 0.000000 
#    z 0.000000 0.000000 1.604370 
# 
# From -- ./inp_files/65758.got.cif
#   From: 2010.03.12/outbox.cif.g09.slc.cpg/sg65_33_cif.got.tgz:65758.got - 2010.04.10 20:52:16.
