data_PCOD8269627
_publ_section_title
;
Structure prediction by ZEFSAII (Michael W. Deem and Ramdas Pophale) SiO2 
 PCOD8269627
Probable space group: C M M M
;
_chemical_formula_sum "Si O2"
_cell_formula_units_Z 88
_cell_length_a 15.935129
_cell_length_b 25.987058
_cell_length_c 10.724710
_cell_angle_alpha 90.000000
_cell_angle_beta 90.000000
_cell_angle_gamma 90.000000
_cell_volume 4441.178788
_symmetry_space_group_name_H-M "C M M M"
_symmetry_group_IT_number 65
_symmetry_cell_setting 'orthorhombic'
loop_
_space_group_symop_operation_xyz
x,y,z
-x,-y,z
x,-y,-z
-x,y,-z
-x,-y,-z
x,y,-z
-x,y,z
x,-y,z
1/2+x,1/2+y,z
1/2-x,1/2-y,z
1/2+x,1/2-y,-z
1/2-x,1/2+y,-z
1/2-x,1/2-y,-z
1/2+x,1/2+y,-z
1/2-x,1/2+y,z
1/2+x,1/2-y,z
loop_
_atom_site_type_symbol
_atom_site_label
_atom_site_fract_x
_atom_site_fract_y
_atom_site_fract_z
Si Si1 0.000000 0.125086 0.851603
Si Si2 0.168779 0.280266 0.755473
Si Si3 0.344666 0.441066 0.143742
Si Si4 0.593591 0.900743 0.500000
Si Si5 0.095227 0.721521 0.500000
Si Si6 0.000000 0.238767 0.858236
Si Si7 0.678318 0.099552 0.243390
Si Si8 0.902184 0.556869 0.000000
O O1 0.918145 0.095097 0.804121
O O2 0.000000 0.182574 0.791771
O O3 0.000000 0.123654 0.000000
O O4 0.250000 0.250000 0.809116
O O5 0.146995 0.258689 0.618452
O O6 0.083655 0.271712 0.833229
O O7 0.193322 0.339609 0.755352
O O8 0.373458 0.500000 0.156732
O O9 0.265454 0.430091 0.230555
O O10 0.321146 0.428111 0.000000
O O11 0.500000 0.923945 0.500000
O O12 0.589214 0.839585 0.500000
O O13 0.638704 0.919992 0.626329
O O14 0.000000 0.743964 0.500000
O O15 0.000000 0.223753 0.000000
O O16 0.620542 0.087296 0.125100
O O17 0.858596 0.500000 0.000000
O O18 0.000000 0.549590 0.000000
#
# Coordination Sequence:
#
# PCOD8269627 Si02
#       8
#     8  16  16   8   8   8  16   8
#     4   9  19  36  56  83 120 156 191 246 297 345
#     4  11  23  37  58  87 119 158 198 238 293 356
#     4  10  19  35  60  87 114 150 199 248 298 349
#     4   9  20  37  58  86 114 156 202 236 288 354
#     4   9  17  37  61  81 109 153 199 247 288 336
#     4  11  24  36  53  82 127 159 195 236 288 351
#     4  11  22  37  62  85 121 155 196 243 296 349
#     4  11  24  40  61  87 115 149 196 250 301 347
#
# _framework density 19.814558999999999
#
# number of rings (size 3 to 8) (size 9 to 14) (size 15 to 20)
#    0.000    1.727    1.818    2.727    3.818    1.455 
#    0.000    1.818    0.000    3.818    0.000    1.273 
#    0.000    0.000    0.000    0.000    0.000    0.000 
#
# Total GULP energy -545549.777155 kJ/mol
# GULP energy per Si atom -12398.858572 kJ/mol
# Density = 1.976946 g / cm^3
# Si number density = 19.814559 Si / 1000 Ang^3
#
#
#
# Elastic Constant Matrix: (Units=GPa)
#
#
# Indices 1 2 3 4 5 6 
#
# 1 108.7469 6.0092 29.4509 0.0000 0.0000 0.0000
# 2 6.0092 57.4596 11.3485 0.0000 0.0000 0.0000
# 3 29.4509 11.3485 103.6288 0.0000 0.0000 0.0000
# 4 0.0000 0.0000 0.0000 18.1049 0.0000 0.0000
# 5 0.0000 0.0000 0.0000 0.0000 19.0934 0.0000
# 6 0.0000 0.0000 0.0000 0.0000 0.0000 29.1838
#
#
#
# Elastic Compliance Matrix: (Units=1/GPa)
#
#
# Indices 1 2 3 4 5 6 
#
# 1 0.009976 -0.000494 -0.002781 0.000000 0.000000 0.000000
# 2 -0.000494 0.017813 -0.001810 0.000000 0.000000 0.000000
# 3 -0.002781 -0.001810 0.010638 0.000000 0.000000 0.000000
# 4 0.000000 0.000000 0.000000 0.055234 0.000000 0.000000
# 5 0.000000 0.000000 0.000000 0.000000 0.052374 0.000000
# 6 0.000000 0.000000 0.000000 0.000000 0.000000 0.034266
#
#
# Mechanical properties :
#
#
# Convention : Reuss Voigt Hill
#
# Bulk Modulus (GPa) = 35.39008 40.38362 37.88685
# Shear Modulus (GPa) = 25.01372 28.14487 26.57930
#
# Velocity S-wave (km/s) = 3.55687 3.77293 3.66649
# Velocity P-wave (km/s) = 5.89643 6.27734 6.08986
#
# Compressibility (1/GPa) = 0.02825651
#
# Stress axis : x y z
#
# Youngs Moduli (GPa) = 100.23922 56.13957 93.99873
#
# Poissons Ratio (x) = 0.02774 0.26142
# Poissons Ratio (y) = 0.04952 0.17016
# Poissons Ratio (z) = 0.27877 0.10163
#
# Static dielectric constant tensor:
#      x y z
#    x 3.681130 0.000000 0.000000 
#    y 0.000000 3.545100 0.000000 
#    z 0.000000 0.000000 3.560370 
# 
# 
# High freq. dielectric constant tensor:
#      x y z
#    x 1.784660 0.000000 0.000000 
#    y 0.000000 1.766910 0.000000 
#    z 0.000000 0.000000 1.752500 
# 
# From -- ./inp_files/25246.got.cif
#   From: 2010.03.12/outbox.cif.g09.slc.cpg/sg65_13_cif.got.tgz:25246.got - 2010.04.10 20:52:16.
