data_PCOD8269328
_publ_section_title
;
Structure prediction by ZEFSAII (Michael W. Deem and Ramdas Pophale) SiO2 
 PCOD8269328
Probable space group: C M M M
;
_chemical_formula_sum "Si O2"
_cell_formula_units_Z 88
_cell_length_a 9.628480
_cell_length_b 28.381405
_cell_length_c 17.827091
_cell_angle_alpha 90.000000
_cell_angle_beta 90.000000
_cell_angle_gamma 90.000000
_cell_volume 4871.605421
_symmetry_space_group_name_H-M "C M M M"
_symmetry_group_IT_number 65
_symmetry_cell_setting 'orthorhombic'
loop_
_space_group_symop_operation_xyz
x,y,z
-x,-y,z
x,-y,-z
-x,y,-z
-x,-y,-z
x,y,-z
-x,y,z
x,-y,z
1/2+x,1/2+y,z
1/2-x,1/2-y,z
1/2+x,1/2-y,-z
1/2-x,1/2+y,-z
1/2-x,1/2-y,-z
1/2+x,1/2+y,-z
1/2-x,1/2+y,z
1/2+x,1/2-y,z
loop_
_atom_site_type_symbol
_atom_site_label
_atom_site_fract_x
_atom_site_fract_y
_atom_site_fract_z
Si Si1 0.653653 0.290660 0.911213
Si Si2 0.336818 0.445842 0.229014
Si Si3 0.664407 0.605748 0.082324
Si Si4 0.159433 0.706492 0.586232
Si Si5 0.335037 0.947083 0.500000
Si Si6 0.162845 0.394147 0.352669
O O1 0.500000 0.285218 0.875780
O O2 0.750000 0.250000 0.875339
O O3 0.718400 0.342266 0.893117
O O4 0.644129 0.284356 0.000000
O O5 0.500000 0.436895 0.242051
O O6 0.297204 0.500000 0.243550
O O7 0.292897 0.432950 0.143815
O O8 0.249751 0.412341 0.282731
O O9 0.500000 0.609798 0.075564
O O10 0.724613 0.591296 0.000000
O O11 0.196067 0.694083 0.500000
O O12 0.250000 0.750000 0.616152
O O13 0.191627 0.661227 0.637232
O O14 0.000000 0.721486 0.593283
O O15 0.500000 0.945992 0.500000
O O16 0.280389 0.921002 0.573935
O O17 0.276113 0.000000 0.500000
O O18 0.000000 0.404354 0.339636
#
# Coordination Sequence:
#
# PCOD8269328 Si02
#       6
#    16  16  16  16   8  16
#     4   8  13  23  42  67  92 118 150 190 237 288
#     4  10  21  35  51  74 103 132 166 215 269 311
#     4   8  15  30  51  72  95 128 169 209 252 306
#     4   9  17  31  52  78 105 133 170 211 248 293
#     4   9  16  28  50  75  95 125 171 211 238 279
#     4  10  19  34  54  76 102 134 172 209 246 299
#
# _framework density 18.063859999999998
#
# number of rings (size 3 to 8) (size 9 to 14) (size 15 to 20)
#    0.000    3.000    0.909    1.636    0.000    2.182 
#    0.000    4.091    0.000    7.636    0.000    1.273 
#    0.000    0.000    0.000    0.000    0.000    0.000 
#
# Total GULP energy -545411.354727 kJ/mol
# GULP energy per Si atom -12395.712607 kJ/mol
# Density = 1.802275 g / cm^3
# Si number density = 18.063860 Si / 1000 Ang^3
#
#
#
# Elastic Constant Matrix: (Units=GPa)
#
#
# Indices 1 2 3 4 5 6 
#
# 1 53.0972 52.2333 37.3078 0.0000 0.0000 0.0000
# 2 52.2333 123.5359 55.7176 0.0000 0.0000 0.0000
# 3 37.3078 55.7176 95.2835 0.0000 0.0000 0.0000
# 4 0.0000 0.0000 0.0000 28.3531 0.0000 0.0000
# 5 0.0000 0.0000 0.0000 0.0000 19.5768 0.0000
# 6 0.0000 0.0000 0.0000 0.0000 0.0000 27.3532
#
#
#
# Elastic Compliance Matrix: (Units=1/GPa)
#
#
# Indices 1 2 3 4 5 6 
#
# 1 0.035314 -0.011810 -0.006921 0.000000 0.000000 0.000000
# 2 -0.011810 0.014944 -0.004114 0.000000 0.000000 0.000000
# 3 -0.006921 -0.004114 0.015611 0.000000 0.000000 0.000000
# 4 0.000000 0.000000 0.000000 0.035269 0.000000 0.000000
# 5 0.000000 0.000000 0.000000 0.000000 0.051081 0.000000
# 6 0.000000 0.000000 0.000000 0.000000 0.000000 0.036559
#
#
# Mechanical properties :
#
#
# Convention : Reuss Voigt Hill
#
# Bulk Modulus (GPa) = 49.55899 62.49265 56.02582
# Shear Modulus (GPa) = 20.73010 23.50049 22.11530
#
# Velocity S-wave (km/s) = 3.39130 3.61081 3.50277
# Velocity P-wave (km/s) = 6.54443 7.21487 6.88781
#
# Compressibility (1/GPa) = 0.02017797
#
# Stress axis : x y z
#
# Youngs Moduli (GPa) = 28.31727 66.91655 64.05769
#
# Poissons Ratio (x) = 0.79028 0.44335
# Poissons Ratio (y) = 0.33442 0.26357
# Poissons Ratio (z) = 0.19599 0.27533
#
# Static dielectric constant tensor:
#      x y z
#    x 3.127530 0.000000 0.000000 
#    y 0.000000 3.515450 0.000000 
#    z 0.000000 0.000000 3.263040 
# 
# 
# High freq. dielectric constant tensor:
#      x y z
#    x 1.663600 0.000000 0.000000 
#    y 0.000000 1.709940 0.000000 
#    z 0.000000 0.000000 1.679700 
# 
# From -- ./inp_files/38651.got.cif
#   From: 2010.03.12/outbox.cif.g09.slc.cpg/sg65_20_cif.got.tgz:38651.got - 2010.04.10 20:52:16.
