data_PCOD8269204
_publ_section_title
;
Structure prediction by ZEFSAII (Michael W. Deem and Ramdas Pophale) SiO2 
 PCOD8269204
Probable space group: C M M M
;
_chemical_formula_sum "Si O2"
_cell_formula_units_Z 88
_cell_length_a 8.918582
_cell_length_b 26.705380
_cell_length_c 18.776450
_cell_angle_alpha 90.000000
_cell_angle_beta 90.000000
_cell_angle_gamma 90.000000
_cell_volume 4472.064481
_symmetry_space_group_name_H-M "C M M M"
_symmetry_group_IT_number 65
_symmetry_cell_setting 'orthorhombic'
loop_
_space_group_symop_operation_xyz
x,y,z
-x,-y,z
x,-y,-z
-x,y,-z
-x,-y,-z
x,y,-z
-x,y,z
x,-y,z
1/2+x,1/2+y,z
1/2-x,1/2-y,z
1/2+x,1/2-y,-z
1/2-x,1/2+y,-z
1/2-x,1/2-y,-z
1/2+x,1/2+y,-z
1/2-x,1/2+y,z
1/2+x,1/2-y,z
loop_
_atom_site_type_symbol
_atom_site_label
_atom_site_fract_x
_atom_site_fract_y
_atom_site_fract_z
Si Si1 0.678355 0.096702 0.847556
Si Si2 0.675613 0.700373 0.667451
Si Si3 0.322571 0.698288 0.167672
Si Si4 0.832043 0.556256 0.698555
Si Si5 0.822915 0.106547 0.579498
Si Si6 0.171157 0.000000 0.084224
O O1 0.500000 0.097575 0.859641
O O2 0.750783 0.149842 0.872113
O O3 0.720810 0.090549 0.764192
O O4 0.746425 0.050497 0.890928
O O5 0.500000 0.705118 0.658188
O O6 0.750000 0.750000 0.636189
O O7 0.719976 0.692808 0.749472
O O8 0.739958 0.655637 0.619281
O O9 0.500000 0.699478 0.153986
O O10 0.250000 0.750000 0.137918
O O11 0.822184 0.500000 0.727508
O O12 0.728605 0.560579 0.628674
O O13 0.000000 0.570399 0.675456
O O14 0.754699 0.102488 0.500000
O O15 0.000000 0.106777 0.575152
O O16 0.000000 0.000000 0.113016
O O17 0.174087 0.000000 0.000000
#
# Coordination Sequence:
#
# PCOD8269204 Si02
#       6
#    16  16  16  16  16   8
#     4  11  21  37  62  91 122 158 198 243 292 345
#     4   9  18  31  48  72 102 138 181 233 288 341
#     4  10  19  33  55  86 120 156 199 249 300 350
#     4  10  21  37  55  78 106 139 185 236 288 346
#     4  10  21  36  51  71 102 141 187 238 292 350
#     4  11  25  43  65  97 132 163 194 231 281 344
#
# _framework density 19.677713000000001
#
# number of rings (size 3 to 8) (size 9 to 14) (size 15 to 20)
#    0.000    1.909    2.727    1.364    0.000    4.364 
#    0.000    1.818    0.000    0.545    0.000    0.000 
#    0.000    0.000    0.000    0.000    0.000    0.000 
#
# Total GULP energy -545508.696888 kJ/mol
# GULP energy per Si atom -12397.924929 kJ/mol
# Density = 1.963293 g / cm^3
# Si number density = 19.677713 Si / 1000 Ang^3
#
#
#
# Elastic Constant Matrix: (Units=GPa)
#
#
# Indices 1 2 3 4 5 6 
#
# 1 70.7934 54.0831 27.4839 0.0000 0.0000 0.0000
# 2 54.0831 142.1158 31.7972 0.0000 0.0000 0.0000
# 3 27.4839 31.7972 47.7449 0.0000 0.0000 0.0000
# 4 0.0000 0.0000 0.0000 16.7251 0.0000 0.0000
# 5 0.0000 0.0000 0.0000 0.0000 21.5110 0.0000
# 6 0.0000 0.0000 0.0000 0.0000 0.0000 39.7018
#
#
#
# Elastic Compliance Matrix: (Units=1/GPa)
#
#
# Indices 1 2 3 4 5 6 
#
# 1 0.022529 -0.006665 -0.008530 0.000000 0.000000 0.000000
# 2 -0.006665 0.010240 -0.002983 0.000000 0.000000 0.000000
# 3 -0.008530 -0.002983 0.027842 0.000000 0.000000 0.000000
# 4 0.000000 0.000000 0.000000 0.059790 0.000000 0.000000
# 5 0.000000 0.000000 0.000000 0.000000 0.046488 0.000000
# 6 0.000000 0.000000 0.000000 0.000000 0.000000 0.025188
#
#
# Mechanical properties :
#
#
# Convention : Reuss Voigt Hill
#
# Bulk Modulus (GPa) = 41.22909 54.15363 47.69136
# Shear Modulus (GPa) = 21.14003 25.40688 23.27346
#
# Velocity S-wave (km/s) = 3.28123 3.59716 3.44282
# Velocity P-wave (km/s) = 5.94583 6.69573 6.33189
#
# Compressibility (1/GPa) = 0.02425472
#
# Stress axis : x y z
#
# Youngs Moduli (GPa) = 44.38742 97.65210 35.91758
#
# Poissons Ratio (x) = 0.65086 0.30637
# Poissons Ratio (y) = 0.29585 0.10715
# Poissons Ratio (z) = 0.37861 0.29132
#
# Static dielectric constant tensor:
#      x y z
#    x 3.563970 0.000000 0.000000 
#    y 0.000000 3.774870 0.000000 
#    z 0.000000 0.000000 3.343070 
# 
# 
# High freq. dielectric constant tensor:
#      x y z
#    x 1.765200 0.000000 0.000000 
#    y 0.000000 1.781580 0.000000 
#    z 0.000000 0.000000 1.733810 
# 
# From -- ./inp_files/59824.got.cif
#   From: 2010.03.12/outbox.cif.g09.slc.cpg/sg65_30_cif.got.tgz:59824.got - 2010.04.10 20:52:16.
