data_PCOD8269740
_publ_section_title
;
Structure prediction by ZEFSAII (Michael W. Deem and Ramdas Pophale) SiO2 
 PCOD8269740
Probable space group: C M M M
;
_chemical_formula_sum "Si O2"
_cell_formula_units_Z 112
_cell_length_a 29.751872
_cell_length_b 17.186588
_cell_length_c 12.677924
_cell_angle_alpha 90.000000
_cell_angle_beta 90.000000
_cell_angle_gamma 90.000000
_cell_volume 6482.643021
_symmetry_space_group_name_H-M "C M M M"
_symmetry_group_IT_number 65
_symmetry_cell_setting 'orthorhombic'
loop_
_space_group_symop_operation_xyz
x,y,z
-x,-y,z
x,-y,-z
-x,y,-z
-x,-y,-z
x,y,-z
-x,y,z
x,-y,z
1/2+x,1/2+y,z
1/2-x,1/2-y,z
1/2+x,1/2-y,-z
1/2-x,1/2+y,-z
1/2-x,1/2-y,-z
1/2+x,1/2+y,-z
1/2-x,1/2+y,z
1/2+x,1/2-y,z
loop_
_atom_site_type_symbol
_atom_site_label
_atom_site_fract_x
_atom_site_fract_y
_atom_site_fract_z
Si Si1 0.705768 0.593026 0.207145
Si Si2 0.864790 0.673606 0.267188
Si Si3 0.448237 0.090688 0.376472
Si Si4 0.301094 0.909513 0.117541
Si Si5 0.127793 0.817494 0.119377
Si Si6 0.048633 0.085743 0.875256
Si Si7 0.201282 0.218036 0.379451
O O1 0.702322 0.500000 0.224366
O O2 0.753975 0.620856 0.164295
O O3 0.670174 0.624199 0.121877
O O4 0.693203 0.638733 0.314552
O O5 0.912559 0.642700 0.311123
O O6 0.839159 0.604866 0.205672
O O7 0.868218 0.736811 0.176781
O O8 0.835008 0.713105 0.359044
O O9 0.440575 0.106568 0.500000
O O10 0.500000 0.112339 0.345666
O O11 0.439499 0.000000 0.351294
O O12 0.297267 0.000000 0.100795
O O13 0.310007 0.872184 0.000000
O O14 0.086120 0.860273 0.176379
O O15 0.116768 0.796544 0.000000
O O16 0.000000 0.121743 0.848460
O O17 0.052681 0.000000 0.825619
O O18 0.055917 0.079755 0.000000
O O19 0.197723 0.193058 0.500000
O O20 0.250000 0.250000 0.349834
#
# Coordination Sequence:
#
# PCOD8269740 Si02
#       7
#    16  16  16  16  16  16  16
#     4  10  20  34  51  72  98 135 181 221 258 304
#     4  11  20  33  52  76 102 137 168 205 256 318
#     4   9  19  37  60  83 104 128 167 222 274 316
#     4  10  20  33  49  70  99 134 172 213 252 298
#     4  10  20  30  46  72 102 136 173 210 251 301
#     4   8  14  26  43  62  87 120 158 201 244 283
#     4  10  20  35  51  72 104 135 165 211 266 318
#
# _framework density 17.276903000000001
#
# number of rings (size 3 to 8) (size 9 to 14) (size 15 to 20)
#    0.000    2.286    1.429    3.000    0.000    2.286 
#    0.000    2.143    0.000    1.286    0.000    5.000 
#    0.000    0.000    0.000   26.571    0.000    0.714 
#
# Total GULP energy -693907.495353 kJ/mol
# GULP energy per Si atom -12391.205274 kJ/mol
# Density = 1.723758 g / cm^3
# Si number density = 17.276903 Si / 1000 Ang^3
#
#
#
# Elastic Constant Matrix: (Units=GPa)
#
#
# Indices 1 2 3 4 5 6 
#
# 1 120.0885 28.7472 26.3735 0.0000 0.0000 0.0000
# 2 28.7472 49.2515 23.1063 0.0000 0.0000 0.0000
# 3 26.3735 23.1063 61.1790 0.0000 0.0000 0.0000
# 4 0.0000 0.0000 0.0000 4.4775 0.0000 0.0000
# 5 0.0000 0.0000 0.0000 0.0000 23.6137 0.0000
# 6 0.0000 0.0000 0.0000 0.0000 0.0000 28.0331
#
#
#
# Elastic Compliance Matrix: (Units=1/GPa)
#
#
# Indices 1 2 3 4 5 6 
#
# 1 0.009999 -0.004635 -0.002560 0.000000 0.000000 0.000000
# 2 -0.004635 0.026825 -0.008133 0.000000 0.000000 0.000000
# 3 -0.002560 -0.008133 0.020521 0.000000 0.000000 0.000000
# 4 0.000000 0.000000 0.000000 0.223339 0.000000 0.000000
# 5 0.000000 0.000000 0.000000 0.000000 0.042348 0.000000
# 6 0.000000 0.000000 0.000000 0.000000 0.000000 0.035672
#
#
# Mechanical properties :
#
#
# Convention : Reuss Voigt Hill
#
# Bulk Modulus (GPa) = 37.46950 42.99697 40.23324
# Shear Modulus (GPa) = 12.55470 21.37766 16.96618
#
# Velocity S-wave (km/s) = 2.69862 3.52142 3.13711
# Velocity P-wave (km/s) = 5.60756 6.44010 6.03820
#
# Compressibility (1/GPa) = 0.02668837
#
# Stress axis : x y z
#
# Youngs Moduli (GPa) = 100.01024 37.27840 48.73123
#
# Poissons Ratio (x) = 0.17280 0.12474
# Poissons Ratio (y) = 0.46358 0.39634
# Poissons Ratio (z) = 0.25600 0.30319
#
# Static dielectric constant tensor:
#      x y z
#    x 3.466700 0.000000 0.000000 
#    y 0.000000 3.185030 0.000000 
#    z 0.000000 0.000000 3.053840 
# 
# 
# High freq. dielectric constant tensor:
#      x y z
#    x 1.674360 0.000000 0.000000 
#    y 0.000000 1.664560 0.000000 
#    z 0.000000 0.000000 1.647840 
# 
# From -- ./inp_files/33978.got.cif
#   From: 2010.03.12/outbox.cif.g09.slc.cpg/sg65_17_cif.got.tgz:33978.got - 2010.04.10 20:52:16.
