data_PCOD8269985
_publ_section_title
;
Structure prediction by ZEFSAII (Michael W. Deem and Ramdas Pophale) SiO2 
 PCOD8269985
Probable space group: C M M M
;
_chemical_formula_sum "Si O2"
_cell_formula_units_Z 120
_cell_length_a 28.558212
_cell_length_b 8.724996
_cell_length_c 28.336307
_cell_angle_alpha 90.000000
_cell_angle_beta 90.000000
_cell_angle_gamma 90.000000
_cell_volume 7060.565704
_symmetry_space_group_name_H-M "C M M M"
_symmetry_group_IT_number 65
_symmetry_cell_setting 'orthorhombic'
loop_
_space_group_symop_operation_xyz
x,y,z
-x,-y,z
x,-y,-z
-x,y,-z
-x,-y,-z
x,y,-z
-x,y,z
x,-y,z
1/2+x,1/2+y,z
1/2-x,1/2-y,z
1/2+x,1/2-y,-z
1/2-x,1/2+y,-z
1/2-x,1/2-y,-z
1/2+x,1/2+y,-z
1/2-x,1/2+y,z
1/2+x,1/2-y,z
loop_
_atom_site_type_symbol
_atom_site_label
_atom_site_fract_x
_atom_site_fract_y
_atom_site_fract_z
Si Si1 0.446027 0.679066 0.133341
Si Si2 0.055888 0.672778 0.500000
Si Si3 0.201680 0.681230 0.195229
Si Si4 0.944903 0.323807 0.309427
Si Si5 0.887356 0.324299 0.946681
Si Si6 0.055650 0.171949 0.405341
Si Si7 0.889774 0.179571 0.774228
Si Si8 0.298106 0.319043 0.907184
O O1 0.500000 0.719858 0.141789
O O2 0.438355 0.500000 0.124069
O O3 0.428331 0.769461 0.087743
O O4 0.417914 0.733657 0.179418
O O5 0.074709 0.500000 0.500000
O O6 0.075920 0.756510 0.546446
O O7 0.000000 0.675870 0.500000
O O8 0.206081 0.500000 0.191928
O O9 0.250000 0.750000 0.215666
O O10 0.159190 0.729725 0.229157
O O11 0.191002 0.750052 0.143948
O O12 0.931311 0.500000 0.301311
O O13 0.927422 0.273427 0.361198
O O14 0.919969 0.217661 0.271423
O O15 0.000000 0.296513 0.304261
O O16 0.874910 0.500000 0.935445
O O17 0.840562 0.223752 0.941306
O O18 0.905804 0.304072 0.000000
O O19 0.000000 0.171063 0.407840
O O20 0.075180 0.000000 0.399713
O O21 0.879512 0.000000 0.775861
O O22 0.293162 0.500000 0.902779
O O23 0.250000 0.250000 0.927993
#
# Coordination Sequence:
#
# PCOD8269985 Si02
#       8
#    16   8  16  16  16  16  16  16
#     4  10  22  39  58  78 100 129 166 205 244 290
#     4   9  15  23  37  57  83 119 164 213 260 305
#     4  11  21  35  56  81 106 131 160 195 237 288
#     4  10  20  32  46  68  99 135 174 215 257 299
#     4  11  24  40  57  78 103 131 163 200 243 291
#     4   9  16  26  40  59  86 123 168 215 259 302
#     4  11  21  35  55  78 102 132 166 203 246 294
#     4  11  21  36  58  82 106 132 158 191 236 288
#
# _framework density 16.995805000000001
#
# number of rings (size 3 to 8) (size 9 to 14) (size 15 to 20)
#    0.000    1.667    1.333    5.400    0.000    6.133 
#    0.000    1.333    0.000    0.000    0.000    0.000 
#    0.000    0.000    0.000    0.600    0.000    8.467 
#
# Total GULP energy -744209.653617 kJ/mol
# GULP energy per Si atom -12403.494227 kJ/mol
# Density = 1.695712 g / cm^3
# Si number density = 16.995805 Si / 1000 Ang^3
#
#
#
# Elastic Constant Matrix: (Units=GPa)
#
#
# Indices 1 2 3 4 5 6 
#
# 1 75.1608 38.2291 36.6142 0.0000 0.0000 0.0000
# 2 38.2291 112.4474 36.2590 0.0000 0.0000 0.0000
# 3 36.6142 36.2590 99.0290 0.0000 0.0000 0.0000
# 4 0.0000 0.0000 0.0000 30.3430 0.0000 0.0000
# 5 0.0000 0.0000 0.0000 0.0000 7.1524 0.0000
# 6 0.0000 0.0000 0.0000 0.0000 0.0000 26.0238
#
#
#
# Elastic Compliance Matrix: (Units=1/GPa)
#
#
# Indices 1 2 3 4 5 6 
#
# 1 0.018047 -0.004517 -0.005019 0.000000 0.000000 0.000000
# 2 -0.004517 0.011214 -0.002436 0.000000 0.000000 0.000000
# 3 -0.005019 -0.002436 0.012845 0.000000 0.000000 0.000000
# 4 0.000000 0.000000 0.000000 0.032957 0.000000 0.000000
# 5 0.000000 0.000000 0.000000 0.000000 0.139813 0.000000
# 6 0.000000 0.000000 0.000000 0.000000 0.000000 0.038426
#
#
# Mechanical properties :
#
#
# Convention : Reuss Voigt Hill
#
# Bulk Modulus (GPa) = 55.05588 56.53798 55.79693
# Shear Modulus (GPa) = 17.64908 24.40617 21.02762
#
# Velocity S-wave (km/s) = 3.22598 3.79359 3.52124
# Velocity P-wave (km/s) = 6.80735 7.24751 7.03088
#
# Compressibility (1/GPa) = 0.01816336
#
# Stress axis : x y z
#
# Youngs Moduli (GPa) = 55.41004 89.17216 77.84837
#
# Poissons Ratio (x) = 0.40282 0.39069
# Poissons Ratio (y) = 0.25030 0.18963
# Poissons Ratio (z) = 0.27808 0.21721
#
# Static dielectric constant tensor:
#      x y z
#    x 3.021740 0.000000 0.000000 
#    y 0.000000 3.337210 0.000000 
#    z 0.000000 0.000000 3.139090 
# 
# 
# High freq. dielectric constant tensor:
#      x y z
#    x 1.623450 0.000000 0.000000 
#    y 0.000000 1.674790 0.000000 
#    z 0.000000 0.000000 1.643600 
# 
# From -- ./inp_files/76153.got.cif
#   From: 2010.03.12/outbox.cif.g09.slc.cpg/sg65_39_cif.got.tgz:76153.got - 2010.04.10 20:52:16.
