data_PCOD8269626
_publ_section_title
;
Structure prediction by ZEFSAII (Michael W. Deem and Ramdas Pophale) SiO2 
 PCOD8269626
Probable space group: C M M M
;
_chemical_formula_sum "Si O2"
_cell_formula_units_Z 112
_cell_length_a 17.553640
_cell_length_b 23.174045
_cell_length_c 13.645107
_cell_angle_alpha 90.000000
_cell_angle_beta 90.000000
_cell_angle_gamma 90.000000
_cell_volume 5550.677293
_symmetry_space_group_name_H-M "C M M M"
_symmetry_group_IT_number 65
_symmetry_cell_setting 'orthorhombic'
loop_
_space_group_symop_operation_xyz
x,y,z
-x,-y,z
x,-y,-z
-x,y,-z
-x,-y,-z
x,y,-z
-x,y,z
x,-y,z
1/2+x,1/2+y,z
1/2-x,1/2-y,z
1/2+x,1/2-y,-z
1/2-x,1/2+y,-z
1/2-x,1/2-y,-z
1/2+x,1/2+y,-z
1/2-x,1/2+y,z
1/2+x,1/2-y,z
loop_
_atom_site_type_symbol
_atom_site_label
_atom_site_fract_x
_atom_site_fract_y
_atom_site_fract_z
Si Si1 0.589426 0.163981 0.745897
Si Si2 0.201109 0.064443 0.893392
Si Si3 0.652985 0.617500 0.393026
Si Si4 0.832658 0.749564 0.391888
Si Si5 0.703062 0.068014 0.706605
Si Si6 0.659478 0.247414 0.112623
Si Si7 0.087723 0.141355 0.195717
O O1 0.500000 0.154832 0.761441
O O2 0.604527 0.212620 0.664423
O O3 0.624260 0.103405 0.706599
O O4 0.628383 0.185884 0.847410
O O5 0.263639 0.080598 0.813783
O O6 0.126513 0.104080 0.889128
O O7 0.171694 0.000000 0.876771
O O8 0.239370 0.072840 0.000000
O O9 0.627166 0.591282 0.500000
O O10 0.641898 0.685276 0.402175
O O11 0.738732 0.594482 0.373528
O O12 0.600561 0.605096 0.297901
O O13 0.823439 0.721487 0.500000
O O14 0.750000 0.750000 0.337570
O O15 0.688701 0.000000 0.686255
O O16 0.750000 0.250000 0.116742
O O17 0.626366 0.295415 0.188397
O O18 0.631643 0.256160 0.000000
O O19 0.000000 0.148634 0.173173
#
# Coordination Sequence:
#
# PCOD8269626 Si02
#       7
#    16  16  16  16  16  16  16
#     4  12  24  37  57  88 124 157 193 241 300 363
#     4   9  19  37  60  83 108 148 203 251 289 339
#     4  10  20  36  62  87 113 153 200 243 288 343
#     4  10  19  35  60  85 111 147 193 242 287 339
#     4  10  22  40  61  85 116 155 205 254 290 341
#     4  11  23  39  59  82 114 158 202 246 298 356
#     4  11  22  35  54  86 125 154 185 237 303 367
#
# _framework density 20.177717000000001
#
# number of rings (size 3 to 8) (size 9 to 14) (size 15 to 20)
#    0.000    1.571    2.857    3.000    0.000    5.143 
#    0.000    2.143    0.000    0.000    0.000    9.000 
#    0.000    0.000    0.000    0.000    0.000    0.000 
#
# Total GULP energy -693883.551328 kJ/mol
# GULP energy per Si atom -12390.777702 kJ/mol
# Density = 2.013179 g / cm^3
# Si number density = 20.177717 Si / 1000 Ang^3
#
#
#
# Elastic Constant Matrix: (Units=GPa)
#
#
# Indices 1 2 3 4 5 6 
#
# 1 99.4349 37.4351 7.4370 0.0000 0.0000 0.0000
# 2 37.4351 101.7208 22.5669 0.0000 0.0000 0.0000
# 3 7.4370 22.5669 101.4003 0.0000 0.0000 0.0000
# 4 0.0000 0.0000 0.0000 -84.2266 0.0000 0.0000
# 5 0.0000 0.0000 0.0000 0.0000 12.9161 0.0000
# 6 0.0000 0.0000 0.0000 0.0000 0.0000 18.1348
#
#
#
# Elastic Compliance Matrix: (Units=1/GPa)
#
#
# Indices 1 2 3 4 5 6 
#
# 1 0.011675 -0.004320 0.000105 0.000000 0.000000 0.000000
# 2 -0.004320 0.011940 -0.002340 0.000000 0.000000 0.000000
# 3 0.000105 -0.002340 0.010375 0.000000 0.000000 0.000000
# 4 0.000000 0.000000 0.000000 -0.011873 0.000000 0.000000
# 5 0.000000 0.000000 0.000000 0.000000 0.077423 0.000000
# 6 0.000000 0.000000 0.000000 0.000000 0.000000 0.055143
#
#
# Mechanical properties :
#
#
# Convention : Reuss Voigt Hill
#
# Bulk Modulus (GPa) = 47.89351 48.60378 48.24865
# Shear Modulus (GPa) = 28.61172 5.03934 16.82553
#
# Velocity S-wave (km/s) = 3.76970 1.58206 2.89081
# Velocity P-wave (km/s) = 6.53719 5.24188 5.92504
#
# Compressibility (1/GPa) = 0.02087965
#
# Stress axis : x y z
#
# Youngs Moduli (GPa) = 85.65034 83.75268 96.38499
#
# Poissons Ratio (x) = 0.36182 -0.01013
# Poissons Ratio (y) = 0.37002 0.22558
# Poissons Ratio (z) = -0.00901 0.19602
#
# Static dielectric constant tensor:
#      x y z
#    x 3.283790 0.000000 0.000000 
#    y 0.000000 3.675140 0.000000 
#    z 0.000000 0.000000 4.384230 
# 
# 
# High freq. dielectric constant tensor:
#      x y z
#    x 1.753910 0.000000 0.000000 
#    y 0.000000 1.778670 0.000000 
#    z 0.000000 0.000000 1.804470 
# 
# From -- ./inp_files/40775.got.cif
#   From: 2010.03.12/outbox.cif.g09.slc.cpg/sg65_21_cif.got.tgz:40775.got - 2010.04.10 20:52:16.
