data_PCOD8269301
_publ_section_title
;
Structure prediction by ZEFSAII (Michael W. Deem and Ramdas Pophale) SiO2 
 PCOD8269301
Probable space group: C M M M
;
_chemical_formula_sum "Si O2"
_cell_formula_units_Z 104
_cell_length_a 25.708645
_cell_length_b 8.894447
_cell_length_c 25.919420
_cell_angle_alpha 90.000000
_cell_angle_beta 90.000000
_cell_angle_gamma 90.000000
_cell_volume 5926.842931
_symmetry_space_group_name_H-M "C M M M"
_symmetry_group_IT_number 65
_symmetry_cell_setting 'orthorhombic'
loop_
_space_group_symop_operation_xyz
x,y,z
-x,-y,z
x,-y,-z
-x,y,-z
-x,-y,-z
x,y,-z
-x,y,z
x,-y,z
1/2+x,1/2+y,z
1/2-x,1/2-y,z
1/2+x,1/2-y,-z
1/2-x,1/2+y,-z
1/2-x,1/2-y,-z
1/2+x,1/2+y,-z
1/2-x,1/2+y,z
1/2+x,1/2-y,z
loop_
_atom_site_type_symbol
_atom_site_label
_atom_site_fract_x
_atom_site_fract_y
_atom_site_fract_z
Si Si1 0.196916 0.176140 0.668126
Si Si2 0.441675 0.322380 0.500000
Si Si3 0.601840 0.177639 0.845201
Si Si4 0.803998 0.822298 0.214120
Si Si5 0.000000 0.321620 0.669532
Si Si6 0.594576 0.322038 0.389863
Si Si7 0.940015 0.174121 0.058630
Si Si8 0.000000 0.321905 0.213679
O O1 0.250000 0.250000 0.648088
O O2 0.184109 0.224925 0.726745
O O3 0.150446 0.230871 0.631130
O O4 0.204805 0.000000 0.664354
O O5 0.446829 0.500000 0.500000
O O6 0.500000 0.252570 0.500000
O O7 0.410330 0.269651 0.550645
O O8 0.651721 0.258157 0.822225
O O9 0.595836 0.223470 0.904930
O O10 0.551349 0.239094 0.814732
O O11 0.608693 0.000000 0.840085
O O12 0.750000 0.750000 0.195917
O O13 0.800639 0.000000 0.207720
O O14 0.948946 0.259749 0.642832
O O15 0.000000 0.262199 0.728046
O O16 0.000000 0.500000 0.666611
O O17 0.586736 0.500000 0.383686
O O18 0.000000 0.221160 0.065694
O O19 0.932376 0.000000 0.072985
O O20 0.922322 0.204305 0.000000
O O21 0.000000 0.500000 0.211791
#
# Coordination Sequence:
#
# PCOD8269301 Si02
#       8
#    16   8  16  16   8  16  16   8
#     4   9  19  34  54  76 101 132 170 213 256 307
#     4   9  16  30  53  74  96 132 172 210 251 302
#     4  11  20  33  52  76 107 140 173 214 257 307
#     4  10  20  35  53  76 102 135 175 214 259 309
#     4  11  21  32  48  72 103 136 167 206 257 306
#     4  10  19  34  53  74  98 131 173 211 251 306
#     4   9  18  33  52  75 105 141 179 218 259 302
#     4   9  20  33  45  71 109 141 165 198 257 316
#
# _framework density 17.547284999999999
#
# number of rings (size 3 to 8) (size 9 to 14) (size 15 to 20)
#    0.000    2.231    1.538    2.538    0.000    1.538 
#    0.000    4.231    0.000    0.462    0.000    0.000 
#    0.000    0.000    0.000    0.000    0.000    0.000 
#
# Total GULP energy -644882.671630 kJ/mol
# GULP energy per Si atom -12401.589839 kJ/mol
# Density = 1.750735 g / cm^3
# Si number density = 17.547285 Si / 1000 Ang^3
#
#
#
# Elastic Constant Matrix: (Units=GPa)
#
#
# Indices 1 2 3 4 5 6 
#
# 1 147.5243 43.4887 78.8309 0.0000 0.0000 0.0000
# 2 43.4887 50.4789 36.5017 0.0000 0.0000 0.0000
# 3 78.8309 36.5017 129.0790 0.0000 0.0000 0.0000
# 4 0.0000 0.0000 0.0000 22.5750 0.0000 0.0000
# 5 0.0000 0.0000 0.0000 0.0000 3.4294 0.0000
# 6 0.0000 0.0000 0.0000 0.0000 0.0000 29.7354
#
#
#
# Elastic Compliance Matrix: (Units=1/GPa)
#
#
# Indices 1 2 3 4 5 6 
#
# 1 0.011339 -0.005985 -0.005232 0.000000 0.000000 0.000000
# 2 -0.005985 0.028062 -0.004280 0.000000 0.000000 0.000000
# 3 -0.005232 -0.004280 0.012153 0.000000 0.000000 0.000000
# 4 0.000000 0.000000 0.000000 0.044297 0.000000 0.000000
# 5 0.000000 0.000000 0.000000 0.000000 0.291593 0.000000
# 6 0.000000 0.000000 0.000000 0.000000 0.000000 0.033630
#
#
# Mechanical properties :
#
#
# Convention : Reuss Voigt Hill
#
# Bulk Modulus (GPa) = 48.64241 71.63611 60.13926
# Shear Modulus (GPa) = 10.89510 22.36534 16.63022
#
# Velocity S-wave (km/s) = 2.49449 3.57399 3.08187
# Velocity P-wave (km/s) = 6.00646 7.61213 6.85646
#
# Compressibility (1/GPa) = 0.02055819
#
# Stress axis : x y z
#
# Youngs Moduli (GPa) = 88.19238 35.63587 82.28383
#
# Poissons Ratio (x) = 0.21329 0.43054
# Poissons Ratio (y) = 0.52784 0.35219
# Poissons Ratio (z) = 0.46145 0.15253
#
# Static dielectric constant tensor:
#      x y z
#    x 3.039250 0.000000 0.000000 
#    y 0.000000 3.108320 0.000000 
#    z 0.000000 0.000000 3.413300 
# 
# 
# High freq. dielectric constant tensor:
#      x y z
#    x 1.672840 0.000000 0.000000 
#    y 0.000000 1.667720 0.000000 
#    z 0.000000 0.000000 1.680120 
# 
# From -- ./inp_files/68313.got.cif
#   From: 2010.03.12/outbox.cif.g09.slc.cpg/sg65_35_cif.got.tgz:68313.got - 2010.04.10 20:52:16.
