data_PCOD8269252
_publ_section_title
;
Structure prediction by ZEFSAII (Michael W. Deem and Ramdas Pophale) SiO2 
 PCOD8269252
Probable space group: C M M M
;
_chemical_formula_sum "Si O2"
_cell_formula_units_Z 88
_cell_length_a 9.262619
_cell_length_b 23.531015
_cell_length_c 20.684123
_cell_angle_alpha 90.000000
_cell_angle_beta 90.000000
_cell_angle_gamma 90.000000
_cell_volume 4508.287179
_symmetry_space_group_name_H-M "C M M M"
_symmetry_group_IT_number 65
_symmetry_cell_setting 'orthorhombic'
loop_
_space_group_symop_operation_xyz
x,y,z
-x,-y,z
x,-y,-z
-x,y,-z
-x,-y,-z
x,y,-z
-x,y,z
x,-y,z
1/2+x,1/2+y,z
1/2-x,1/2-y,z
1/2+x,1/2-y,-z
1/2-x,1/2+y,-z
1/2-x,1/2-y,-z
1/2+x,1/2+y,-z
1/2-x,1/2+y,z
1/2+x,1/2-y,z
loop_
_atom_site_type_symbol
_atom_site_label
_atom_site_fract_x
_atom_site_fract_y
_atom_site_fract_z
Si Si1 0.169130 0.000000 0.242135
Si Si2 0.332264 0.378619 0.807588
Si Si3 0.835041 0.500000 0.625515
Si Si4 0.827593 0.623075 0.927998
Si Si5 0.165510 0.378330 0.425933
Si Si6 0.829916 0.809031 0.679717
Si Si7 0.652672 0.000000 0.073667
O O1 0.216860 0.944492 0.201641
O O2 0.238524 0.000000 0.311679
O O3 0.000000 0.000000 0.255050
O O4 0.500000 0.374101 0.823597
O O5 0.248624 0.346154 0.867147
O O6 0.292212 0.346439 0.742133
O O7 0.799799 0.444899 0.582681
O O8 0.000000 0.500000 0.648630
O O9 0.763367 0.559202 0.915812
O O10 0.000000 0.625711 0.921938
O O11 0.781961 0.645606 0.000000
O O12 0.193491 0.361770 0.500000
O O13 0.272602 0.340852 0.383414
O O14 0.000000 0.365264 0.406167
O O15 0.750000 0.750000 0.688225
O O16 0.000000 0.799031 0.671983
O O17 0.500000 0.000000 0.113297
O O18 0.605724 0.000000 0.000000
#
# Coordination Sequence:
#
# PCOD8269252 Si02
#       7
#     8  16   8  16  16  16   8
#     4  10  19  34  53  79 116 150 185 230 279 337
#     4  10  21  35  54  80 112 148 183 227 282 339
#     4  10  19  33  57  88 121 154 188 226 271 325
#     4   9  17  29  48  75 107 143 183 227 273 327
#     4  10  21  38  61  90 122 153 187 229 277 331
#     4  11  24  42  62  83 110 147 193 241 288 337
#     4   7  11  22  39  63  99 138 173 210 253 305
#
# _framework density 19.519608000000002
#
# number of rings (size 3 to 8) (size 9 to 14) (size 15 to 20)
#    0.000    2.273    1.818    2.455    0.000    4.364 
#    0.000    0.000    0.000    5.455    0.000    0.000 
#    0.000    0.000    0.000    0.000    0.000    0.000 
#
# Total GULP energy -545152.107822 kJ/mol
# GULP energy per Si atom -12389.820632 kJ/mol
# Density = 1.947518 g / cm^3
# Si number density = 19.519608 Si / 1000 Ang^3
#
#
#
# Elastic Constant Matrix: (Units=GPa)
#
#
# Indices 1 2 3 4 5 6 
#
# 1 73.3973 40.5398 69.3924 0.0000 0.0000 0.0000
# 2 40.5398 83.7113 39.4782 0.0000 0.0000 0.0000
# 3 69.3924 39.4782 157.7359 0.0000 0.0000 0.0000
# 4 0.0000 0.0000 0.0000 0.9016 0.0000 0.0000
# 5 0.0000 0.0000 0.0000 0.0000 35.8684 0.0000
# 6 0.0000 0.0000 0.0000 0.0000 0.0000 609.5901
#
#
#
# Elastic Compliance Matrix: (Units=1/GPa)
#
#
# Indices 1 2 3 4 5 6 
#
# 1 0.028092 -0.008817 -0.010152 0.000000 0.000000 0.000000
# 2 -0.008817 0.016312 -0.000204 0.000000 0.000000 0.000000
# 3 -0.010152 -0.000204 0.010857 0.000000 0.000000 0.000000
# 4 0.000000 0.000000 0.000000 1.109170 0.000000 0.000000
# 5 0.000000 0.000000 0.000000 0.000000 0.027880 0.000000
# 6 0.000000 0.000000 0.000000 0.000000 0.000000 0.001640
#
#
# Mechanical properties :
#
#
# Convention : Reuss Voigt Hill
#
# Bulk Modulus (GPa) = 59.11630 68.18505 63.65067
# Shear Modulus (GPa) = 4.03899 140.30095 72.16997
#
# Velocity S-wave (km/s) = 1.44003 8.48722 6.08714
# Velocity P-wave (km/s) = 5.75467 11.44777 9.06001
#
# Compressibility (1/GPa) = 0.01691581
#
# Stress axis : x y z
#
# Youngs Moduli (GPa) = 35.59689 61.30545 92.10823
#
# Poissons Ratio (x) = 0.54053 0.93507
# Poissons Ratio (y) = 0.31386 0.01876
# Poissons Ratio (z) = 0.36138 0.01249
#
# Static dielectric constant tensor:
#      x y z
#    x 3.407830 0.000000 0.000000 
#    y 0.000000 3.295880 0.000000 
#    z 0.000000 0.000000 3.719680 
# 
# 
# High freq. dielectric constant tensor:
#      x y z
#    x 1.747550 0.000000 0.000000 
#    y 0.000000 1.733910 0.000000 
#    z 0.000000 0.000000 1.776760 
# 
# From -- ./inp_files/59880.got.cif
#   From: 2010.03.12/outbox.cif.g09.slc.cpg/sg65_30_cif.got.tgz:59880.got - 2010.04.10 20:52:16.
