data_PCOD8269946
_publ_section_title
;
Structure prediction by ZEFSAII (Michael W. Deem and Ramdas Pophale) SiO2 
 PCOD8269946
Probable space group: C M M M
;
_chemical_formula_sum "Si O2"
_cell_formula_units_Z 104
_cell_length_a 26.801049
_cell_length_b 9.308168
_cell_length_c 26.611839
_cell_angle_alpha 90.000000
_cell_angle_beta 90.000000
_cell_angle_gamma 90.000000
_cell_volume 6638.819993
_symmetry_space_group_name_H-M "C M M M"
_symmetry_group_IT_number 65
_symmetry_cell_setting 'orthorhombic'
loop_
_space_group_symop_operation_xyz
x,y,z
-x,-y,z
x,-y,-z
-x,y,-z
-x,-y,-z
x,y,-z
-x,y,z
x,-y,z
1/2+x,1/2+y,z
1/2-x,1/2-y,z
1/2+x,1/2-y,-z
1/2-x,1/2+y,-z
1/2-x,1/2-y,-z
1/2+x,1/2+y,-z
1/2-x,1/2+y,z
1/2+x,1/2-y,z
loop_
_atom_site_type_symbol
_atom_site_label
_atom_site_fract_x
_atom_site_fract_y
_atom_site_fract_z
Si Si1 0.600614 0.832091 0.295491
Si Si2 0.363048 0.833500 0.557010
Si Si3 0.798659 0.663937 0.649314
Si Si4 0.057370 0.165375 0.613368
Si Si5 0.559633 0.839641 0.000000
Si Si6 0.057912 0.168196 0.205227
Si Si7 0.059197 0.841207 0.092707
O O1 0.658342 0.808323 0.309751
O O2 0.565458 0.750057 0.334816
O O3 0.592014 0.765159 0.240861
O O4 0.586583 0.000000 0.295816
O O5 0.345530 0.807226 0.500000
O O6 0.318309 0.787688 0.594206
O O7 0.411360 0.737310 0.568433
O O8 0.377267 0.000000 0.566939
O O9 0.782266 0.500000 0.647971
O O10 0.750000 0.750000 0.665295
O O11 0.000000 0.175850 0.597565
O O12 0.073842 0.000000 0.620659
O O13 0.580955 0.763712 0.050100
O O14 0.500000 0.837118 0.000000
O O15 0.580677 0.000000 0.000000
O O16 0.073902 0.211019 0.148542
O O17 0.000000 0.204248 0.214865
O O18 0.067742 0.000000 0.215077
O O19 0.000000 0.847992 0.089032
O O20 0.081055 0.000000 0.082715
#
# Coordination Sequence:
#
# PCOD8269946 Si02
#       7
#    16  16  16  16   8  16  16
#     4  10  20  32  46  65  88 112 140 175 214 257
#     4   9  19  35  51  68  91 114 137 168 206 250
#     4   9  19  34  50  68  87 108 136 169 208 255
#     4  10  20  32  46  65  89 116 146 177 205 239
#     4   9  15  21  31  49  73 103 144 189 222 249
#     4   9  17  28  42  62  87 115 149 184 215 251
#     4   8  14  24  36  50  73 108 146 181 216 251
#
# _framework density 15.665433999999999
#
# number of rings (size 3 to 8) (size 9 to 14) (size 15 to 20)
#    0.000    2.846    0.000    3.462    0.000    8.923 
#    0.000    3.077    0.000    0.000    0.000    0.000 
#    0.000    0.000    0.000    0.692    0.000    9.154 
#
# Total GULP energy -644699.087331 kJ/mol
# GULP energy per Si atom -12398.059372 kJ/mol
# Density = 1.562978 g / cm^3
# Si number density = 15.665434 Si / 1000 Ang^3
#
#
#
# Elastic Constant Matrix: (Units=GPa)
#
#
# Indices 1 2 3 4 5 6 
#
# 1 57.0676 37.5789 27.2191 0.0000 0.0000 0.0000
# 2 37.5789 93.0638 56.2748 0.0000 0.0000 0.0000
# 3 27.2191 56.2748 117.4674 0.0000 0.0000 0.0000
# 4 0.0000 0.0000 0.0000 28.7433 0.0000 0.0000
# 5 0.0000 0.0000 0.0000 0.0000 10.4152 0.0000
# 6 0.0000 0.0000 0.0000 0.0000 0.0000 23.3603
#
#
#
# Elastic Compliance Matrix: (Units=1/GPa)
#
#
# Indices 1 2 3 4 5 6 
#
# 1 0.024009 -0.008913 -0.001294 0.000000 0.000000 0.000000
# 2 -0.008913 0.018436 -0.006767 0.000000 0.000000 0.000000
# 3 -0.001294 -0.006767 0.012055 0.000000 0.000000 0.000000
# 4 0.000000 0.000000 0.000000 0.034791 0.000000 0.000000
# 5 0.000000 0.000000 0.000000 0.000000 0.096013 0.000000
# 6 0.000000 0.000000 0.000000 0.000000 0.000000 0.042808
#
#
# Mechanical properties :
#
#
# Convention : Reuss Voigt Hill
#
# Bulk Modulus (GPa) = 48.65352 56.63827 52.64590
# Shear Modulus (GPa) = 18.59367 22.27216 20.43292
#
# Velocity S-wave (km/s) = 3.44891 3.77469 3.61547
# Velocity P-wave (km/s) = 6.85458 7.43176 7.14900
#
# Compressibility (1/GPa) = 0.02055350
#
# Stress axis : x y z
#
# Youngs Moduli (GPa) = 41.65115 54.24141 82.95614
#
# Poissons Ratio (x) = 0.48343 0.10731
# Poissons Ratio (y) = 0.37122 0.56136
# Poissons Ratio (z) = 0.05388 0.36705
#
# Static dielectric constant tensor:
#      x y z
#    x 2.567910 0.000000 0.000000 
#    y 0.000000 3.128050 0.000000 
#    z 0.000000 0.000000 3.090090 
# 
# 
# High freq. dielectric constant tensor:
#      x y z
#    x 1.550790 0.000000 0.000000 
#    y 0.000000 1.611020 0.000000 
#    z 0.000000 0.000000 1.602350 
# 
# From -- ./inp_files/75973.got.cif
#   From: 2010.03.12/outbox.cif.g09.slc.cpg/sg65_38_cif.got.tgz:75973.got - 2010.04.10 20:52:16.
