data_PCOD8269651
_publ_section_title
;
Structure prediction by ZEFSAII (Michael W. Deem and Ramdas Pophale) SiO2 
 PCOD8269651
Probable space group: C M M M
;
_chemical_formula_sum "Si O2"
_cell_formula_units_Z 104
_cell_length_a 20.410313
_cell_length_b 12.865475
_cell_length_c 22.069873
_cell_angle_alpha 90.000000
_cell_angle_beta 90.000000
_cell_angle_gamma 90.000000
_cell_volume 5795.292013
_symmetry_space_group_name_H-M "C M M M"
_symmetry_group_IT_number 65
_symmetry_cell_setting 'orthorhombic'
loop_
_space_group_symop_operation_xyz
x,y,z
-x,-y,z
x,-y,-z
-x,y,-z
-x,-y,-z
x,y,-z
-x,y,z
x,-y,z
1/2+x,1/2+y,z
1/2-x,1/2-y,z
1/2+x,1/2-y,-z
1/2-x,1/2+y,-z
1/2-x,1/2-y,-z
1/2+x,1/2+y,-z
1/2-x,1/2+y,z
1/2+x,1/2-y,z
loop_
_atom_site_type_symbol
_atom_site_label
_atom_site_fract_x
_atom_site_fract_y
_atom_site_fract_z
Si Si1 0.323686 0.221151 0.344285
Si Si2 0.072832 0.377359 0.567958
Si Si3 0.572190 0.712343 0.824352
Si Si4 0.250000 0.750000 0.125912
Si Si5 0.826918 0.622198 0.213535
Si Si6 0.426099 0.381060 0.698487
Si Si7 0.859597 0.118799 0.068593
O O1 0.250000 0.250000 0.367278
O O2 0.364475 0.154982 0.392586
O O3 0.315598 0.155743 0.282719
O O4 0.368502 0.322887 0.336798
O O5 0.082729 0.333253 0.500000
O O6 0.072677 0.500000 0.566829
O O7 0.000000 0.340465 0.592058
O O8 0.500000 0.756754 0.823556
O O9 0.613566 0.816690 0.817172
O O10 0.586138 0.632665 0.769882
O O11 0.582194 0.647049 0.885686
O O12 0.233881 0.653755 0.171064
O O13 0.196181 0.796395 0.081477
O O14 0.840036 0.500000 0.210677
O O15 0.500000 0.341550 0.681579
O O16 0.418793 0.500000 0.680414
O O17 0.835595 0.000000 0.078274
O O18 0.884456 0.134268 0.000000
#
# Coordination Sequence:
#
# PCOD8269651 Si02
#       7
#    16  16  16   8  16  16  16
#     4  11  21  33  50  84 114 139 169 217 276 320
#     4   9  19  37  59  79 103 142 188 228 264 307
#     4   9  19  34  50  72 100 130 168 215 265 312
#     4  10  19  36  50  72 101 138 168 212 252 314
#     4  10  20  34  52  76 104 136 170 206 258 316
#     4   9  18  33  52  72 100 141 179 211 256 320
#     4  10  20  32  50  74  98 131 173 216 262 311
#
# _framework density 17.945601
#
# number of rings (size 3 to 8) (size 9 to 14) (size 15 to 20)
#    0.000    2.308    0.769    2.538    0.000    3.692 
#    0.000    0.769    0.000    4.615    0.000    6.462 
#    0.000    0.000    0.000    0.000    0.000    0.000 
#
# Total GULP energy -644284.737878 kJ/mol
# GULP energy per Si atom -12390.091113 kJ/mol
# Density = 1.790476 g / cm^3
# Si number density = 17.945601 Si / 1000 Ang^3
#
#
#
# Elastic Constant Matrix: (Units=GPa)
#
#
# Indices 1 2 3 4 5 6 
#
# 1 97.4611 22.6166 27.4343 0.0000 0.0000 0.0000
# 2 22.6166 82.3327 19.8626 0.0000 0.0000 0.0000
# 3 27.4343 19.8626 71.0221 0.0000 0.0000 0.0000
# 4 0.0000 0.0000 0.0000 22.9649 0.0000 0.0000
# 5 0.0000 0.0000 0.0000 0.0000 20.2462 0.0000
# 6 0.0000 0.0000 0.0000 0.0000 0.0000 21.6039
#
#
#
# Elastic Compliance Matrix: (Units=1/GPa)
#
#
# Indices 1 2 3 4 5 6 
#
# 1 0.011911 -0.002318 -0.003953 0.000000 0.000000 0.000000
# 2 -0.002318 0.013476 -0.002873 0.000000 0.000000 0.000000
# 3 -0.003953 -0.002873 0.016411 0.000000 0.000000 0.000000
# 4 0.000000 0.000000 0.000000 0.043545 0.000000 0.000000
# 5 0.000000 0.000000 0.000000 0.000000 0.049392 0.000000
# 6 0.000000 0.000000 0.000000 0.000000 0.000000 0.046288
#
#
# Mechanical properties :
#
#
# Convention : Reuss Voigt Hill
#
# Bulk Modulus (GPa) = 42.53694 43.40479 42.97086
# Shear Modulus (GPa) = 24.13746 25.02316 24.58031
#
# Velocity S-wave (km/s) = 3.67145 3.73820 3.70498
# Velocity P-wave (km/s) = 6.45968 6.54764 6.50381
#
# Compressibility (1/GPa) = 0.02350898
#
# Stress axis : x y z
#
# Youngs Moduli (GPa) = 83.95506 74.20680 60.93658
#
# Poissons Ratio (x) = 0.17204 0.24086
# Poissons Ratio (y) = 0.19464 0.17508
# Poissons Ratio (z) = 0.33184 0.21321
#
# Static dielectric constant tensor:
#      x y z
#    x 3.429290 0.000000 0.000000 
#    y 0.000000 3.174000 0.000000 
#    z 0.000000 0.000000 3.354980 
# 
# 
# High freq. dielectric constant tensor:
#      x y z
#    x 1.698950 0.000000 0.000000 
#    y 0.000000 1.687510 0.000000 
#    z 0.000000 0.000000 1.685760 
# 
# From -- ./inp_files/65427.got.cif
#   From: 2010.03.12/outbox.cif.g09.slc.cpg/sg65_33_cif.got.tgz:65427.got - 2010.04.10 20:52:16.
