data_PCOD8269140
_publ_section_title
;
Structure prediction by ZEFSAII (Michael W. Deem and Ramdas Pophale) SiO2 
 PCOD8269140
Probable space group: C M M M
;
_chemical_formula_sum "Si O2"
_cell_formula_units_Z 120
_cell_length_a 13.763695
_cell_length_b 14.108070
_cell_length_c 31.928387
_cell_angle_alpha 90.000000
_cell_angle_beta 90.000000
_cell_angle_gamma 90.000000
_cell_volume 6199.827768
_symmetry_space_group_name_H-M "C M M M"
_symmetry_group_IT_number 65
_symmetry_cell_setting 'orthorhombic'
loop_
_space_group_symop_operation_xyz
x,y,z
-x,-y,z
x,-y,-z
-x,y,-z
-x,-y,-z
x,y,-z
-x,y,z
x,-y,z
1/2+x,1/2+y,z
1/2-x,1/2-y,z
1/2+x,1/2-y,-z
1/2-x,1/2+y,-z
1/2-x,1/2-y,-z
1/2+x,1/2+y,-z
1/2-x,1/2+y,z
1/2+x,1/2-y,z
loop_
_atom_site_type_symbol
_atom_site_label
_atom_site_fract_x
_atom_site_fract_y
_atom_site_fract_z
Si Si1 0.282105 0.388008 0.627901
Si Si2 0.891770 0.112018 0.546055
Si Si3 0.610372 0.221169 0.759713
Si Si4 0.106044 0.108476 0.124412
Si Si5 0.610329 0.219721 0.663307
Si Si6 0.281529 0.612391 0.204831
Si Si7 0.267990 0.640725 0.953263
Si Si8 0.107019 0.500000 0.049252
O O1 0.294569 0.500000 0.636676
O O2 0.313026 0.357928 0.580786
O O3 0.350786 0.327628 0.658979
O O4 0.171353 0.354872 0.635280
O O5 0.860328 0.150606 0.500000
O O6 0.000000 0.150791 0.557527
O O7 0.897129 0.000000 0.544546
O O8 0.500000 0.216846 0.775486
O O9 0.619301 0.189600 0.711610
O O10 0.649664 0.329227 0.763331
O O11 0.671194 0.147532 0.788325
O O12 0.184330 0.145462 0.158272
O O13 0.143245 0.119111 0.077161
O O14 0.000000 0.159312 0.128439
O O15 0.089920 0.000000 0.135027
O O16 0.500000 0.214100 0.647632
O O17 0.289948 0.500000 0.213103
O O18 0.250000 0.750000 0.954442
O O19 0.169036 0.591584 0.936632
O O20 0.294171 0.603036 0.000000
O O21 0.000000 0.500000 0.070940
O O22 0.091179 0.500000 0.000000
#
# Coordination Sequence:
#
# PCOD8269140 Si02
#       8
#    16  16  16  16  16  16  16   8
#     4  10  19  33  55  79 106 146 187 224 275 331
#     4   8  14  26  47  76 107 140 183 232 275 318
#     4  10  22  39  59  82 109 146 184 223 276 333
#     4  10  21  37  58  83 112 144 179 224 277 326
#     4  10  22  37  52  80 116 140 175 230 280 331
#     4  10  21  38  59  82 112 143 181 227 273 325
#     4  10  21  36  57  85 114 147 188 227 266 320
#     4   9  18  36  57  77 111 151 182 222 273 315
#
# _framework density 19.355377000000001
#
# number of rings (size 3 to 8) (size 9 to 14) (size 15 to 20)
#    0.000    2.333    0.667    2.800    1.867    5.067 
#    0.000    6.667    0.000    1.200    0.000    1.867 
#    0.000    0.000    0.000    0.000    0.000    0.000 
#
# Total GULP energy -743559.042950 kJ/mol
# GULP energy per Si atom -12392.650716 kJ/mol
# Density = 1.931132 g / cm^3
# Si number density = 19.355377 Si / 1000 Ang^3
#
#
#
# Elastic Constant Matrix: (Units=GPa)
#
#
# Indices 1 2 3 4 5 6 
#
# 1 169.5558 43.2696 62.5450 0.0000 0.0000 0.0000
# 2 43.2696 90.5517 26.0404 0.0000 0.0000 0.0000
# 3 62.5450 26.0404 89.3851 0.0000 0.0000 0.0000
# 4 0.0000 0.0000 0.0000 25.4581 0.0000 0.0000
# 5 0.0000 0.0000 0.0000 0.0000 17.6892 0.0000
# 6 0.0000 0.0000 0.0000 0.0000 0.0000 18.4646
#
#
#
# Elastic Compliance Matrix: (Units=1/GPa)
#
#
# Indices 1 2 3 4 5 6 
#
# 1 0.008458 -0.002554 -0.005174 0.000000 0.000000 0.000000
# 2 -0.002554 0.012824 -0.001949 0.000000 0.000000 0.000000
# 3 -0.005174 -0.001949 0.015376 0.000000 0.000000 0.000000
# 4 0.000000 0.000000 0.000000 0.039280 0.000000 0.000000
# 5 0.000000 0.000000 0.000000 0.000000 0.056532 0.000000
# 6 0.000000 0.000000 0.000000 0.000000 0.000000 0.054158
#
#
# Mechanical properties :
#
#
# Convention : Reuss Voigt Hill
#
# Bulk Modulus (GPa) = 57.79049 68.13362 62.96205
# Shear Modulus (GPa) = 23.61269 26.83156 25.22213
#
# Velocity S-wave (km/s) = 3.49658 3.72729 3.61377
# Velocity P-wave (km/s) = 6.79881 7.33494 7.07196
#
# Compressibility (1/GPa) = 0.01730389
#
# Stress axis : x y z
#
# Youngs Moduli (GPa) = 118.22888 77.97756 65.03604
#
# Poissons Ratio (x) = 0.19913 0.33653
# Poissons Ratio (y) = 0.30192 0.12677
# Poissons Ratio (z) = 0.61177 0.15199
#
# Static dielectric constant tensor:
#      x y z
#    x 3.709110 0.000000 0.000000 
#    y 0.000000 3.353950 0.000000 
#    z 0.000000 0.000000 3.770670 
# 
# 
# High freq. dielectric constant tensor:
#      x y z
#    x 1.754680 0.000000 0.000000 
#    y 0.000000 1.734820 0.000000 
#    z 0.000000 0.000000 1.749670 
# 
# From -- ./inp_files/77754.got.cif
#   From: 2010.03.12/outbox.cif.g09.slc.cpg/sg65_39_cif.got.tgz:77754.got - 2010.04.10 20:52:16.
