data_PCOD8269493
_publ_section_title
;
Structure prediction by ZEFSAII (Michael W. Deem and Ramdas Pophale) SiO2 
 PCOD8269493
Probable space group: C M M M
;
_chemical_formula_sum "Si O2"
_cell_formula_units_Z 96
_cell_length_a 25.476338
_cell_length_b 8.807050
_cell_length_c 23.157847
_cell_angle_alpha 90.000000
_cell_angle_beta 90.000000
_cell_angle_gamma 90.000000
_cell_volume 5195.958149
_symmetry_space_group_name_H-M "C M M M"
_symmetry_group_IT_number 65
_symmetry_cell_setting 'orthorhombic'
loop_
_space_group_symop_operation_xyz
x,y,z
-x,-y,z
x,-y,-z
-x,y,-z
-x,-y,-z
x,y,-z
-x,y,z
x,-y,z
1/2+x,1/2+y,z
1/2-x,1/2-y,z
1/2+x,1/2-y,-z
1/2-x,1/2+y,-z
1/2-x,1/2-y,-z
1/2+x,1/2+y,-z
1/2-x,1/2+y,z
1/2+x,1/2-y,z
loop_
_atom_site_type_symbol
_atom_site_label
_atom_site_fract_x
_atom_site_fract_y
_atom_site_fract_z
Si Si1 0.500000 0.319236 0.935021
Si Si2 0.601268 0.677297 0.131415
Si Si3 0.194448 0.821511 0.433713
Si Si4 0.438920 0.324824 0.742804
Si Si5 0.500000 0.671264 0.431922
Si Si6 0.195010 0.321436 0.934604
Si Si7 0.597337 0.178857 0.371692
O O1 0.500000 0.500000 0.932087
O O2 0.551500 0.256661 0.903279
O O3 0.500000 0.257284 0.000000
O O4 0.608774 0.500000 0.118583
O O5 0.592451 0.708798 0.198757
O O6 0.652231 0.765311 0.110651
O O7 0.179813 0.783383 0.500000
O O8 0.250000 0.750000 0.416975
O O9 0.151854 0.750367 0.391472
O O10 0.197098 0.000000 0.423236
O O11 0.500000 0.283443 0.751233
O O12 0.433078 0.500000 0.724468
O O13 0.413105 0.219148 0.694677
O O14 0.500000 0.500000 0.406633
O O15 0.500000 0.667564 0.500000
O O16 0.448711 0.757022 0.411157
O O17 0.200395 0.500000 0.930078
O O18 0.250000 0.250000 0.915900
O O19 0.179986 0.271097 0.000000
O O20 0.599974 0.000000 0.379503
#
# Coordination Sequence:
#
# PCOD8269493 Si02
#       7
#     8  16  16  16   8  16  16
#     4   9  16  27  49  82 114 141 174 219 272 331
#     4  10  19  34  57  85 112 146 190 233 279 334
#     4  10  21  39  63  89 118 153 190 232 286 343
#     4  10  20  37  59  81 112 154 196 236 283 340
#     4  11  23  38  57  82 114 151 190 237 292 345
#     4  10  21  37  57  82 113 150 189 233 287 342
#     4  12  24  37  57  86 117 151 194 239 287 343
#
# _framework density 18.475901
#
# number of rings (size 3 to 8) (size 9 to 14) (size 15 to 20)
#    0.000    1.667    1.667    3.750    0.000    6.000 
#    0.000    1.250    0.000    5.500    0.000    0.000 
#    0.000    0.000    0.000    0.000    0.000    0.000 
#
# Total GULP energy -595404.669475 kJ/mol
# GULP energy per Si atom -12404.263947 kJ/mol
# Density = 1.843385 g / cm^3
# Si number density = 18.475901 Si / 1000 Ang^3
#
#
#
# Elastic Constant Matrix: (Units=GPa)
#
#
# Indices 1 2 3 4 5 6 
#
# 1 148.0109 61.2701 61.1191 0.0000 0.0000 0.0000
# 2 61.2701 91.8722 39.9446 0.0000 0.0000 0.0000
# 3 61.1191 39.9446 90.5356 0.0000 0.0000 0.0000
# 4 0.0000 0.0000 0.0000 22.0953 0.0000 0.0000
# 5 0.0000 0.0000 0.0000 0.0000 28.5409 0.0000
# 6 0.0000 0.0000 0.0000 0.0000 0.0000 24.0559
#
#
#
# Elastic Compliance Matrix: (Units=1/GPa)
#
#
# Indices 1 2 3 4 5 6 
#
# 1 0.011001 -0.005083 -0.005184 0.000000 0.000000 0.000000
# 2 -0.005083 0.015817 -0.003547 0.000000 0.000000 0.000000
# 3 -0.005184 -0.003547 0.016110 0.000000 0.000000 0.000000
# 4 0.000000 0.000000 0.000000 0.045259 0.000000 0.000000
# 5 0.000000 0.000000 0.000000 0.000000 0.035037 0.000000
# 6 0.000000 0.000000 0.000000 0.000000 0.000000 0.041570
#
#
# Mechanical properties :
#
#
# Convention : Reuss Voigt Hill
#
# Bulk Modulus (GPa) = 65.35989 72.78736 69.07362
# Shear Modulus (GPa) = 25.31376 26.14408 25.72892
#
# Velocity S-wave (km/s) = 3.70550 3.76578 3.73576
# Velocity P-wave (km/s) = 7.33213 7.64130 7.48831
#
# Compressibility (1/GPa) = 0.01529990
#
# Stress axis : x y z
#
# Youngs Moduli (GPa) = 90.90127 63.22489 62.07299
#
# Poissons Ratio (x) = 0.32135 0.32179
# Poissons Ratio (y) = 0.46202 0.22018
# Poissons Ratio (z) = 0.47124 0.22427
#
# Static dielectric constant tensor:
#      x y z
#    x 3.439190 0.000000 0.000000 
#    y 0.000000 3.363920 0.000000 
#    z 0.000000 0.000000 3.426890 
# 
# 
# High freq. dielectric constant tensor:
#      x y z
#    x 1.722500 0.000000 0.000000 
#    y 0.000000 1.713410 0.000000 
#    z 0.000000 0.000000 1.718480 
# 
# From -- ./inp_files/71455.got.cif
#   From: 2010.03.12/outbox.cif.g09.slc.cpg/sg65_36_cif.got.tgz:71455.got - 2010.04.10 20:52:16.
