data_PCOD8269264
_publ_section_title
;
Structure prediction by ZEFSAII (Michael W. Deem and Ramdas Pophale) SiO2 
 PCOD8269264
Probable space group: C M M M
;
_chemical_formula_sum "Si O2"
_cell_formula_units_Z 92
_cell_length_a 24.032492
_cell_length_b 10.590956
_cell_length_c 18.282232
_cell_angle_alpha 90.000000
_cell_angle_beta 90.000000
_cell_angle_gamma 90.000000
_cell_volume 4653.322859
_symmetry_space_group_name_H-M "C M M M"
_symmetry_group_IT_number 65
_symmetry_cell_setting 'orthorhombic'
loop_
_space_group_symop_operation_xyz
x,y,z
-x,-y,z
x,-y,-z
-x,y,-z
-x,-y,-z
x,y,-z
-x,y,z
x,-y,z
1/2+x,1/2+y,z
1/2-x,1/2-y,z
1/2+x,1/2-y,-z
1/2-x,1/2+y,-z
1/2-x,1/2-y,-z
1/2+x,1/2+y,-z
1/2-x,1/2+y,z
1/2+x,1/2-y,z
loop_
_atom_site_type_symbol
_atom_site_label
_atom_site_fract_x
_atom_site_fract_y
_atom_site_fract_z
Si Si1 0.000000 0.262522 0.308885
Si Si2 0.201661 0.651341 0.798239
Si Si3 0.815163 0.748645 0.639944
Si Si4 0.111430 0.351525 0.080893
Si Si5 0.000000 0.353082 0.852198
Si Si6 0.914869 0.642139 0.421208
Si Si7 0.375836 0.500000 0.412657
Si Si8 0.500000 0.500000 0.648118
O O1 0.054976 0.287854 0.355796
O O2 0.000000 0.339704 0.234945
O O3 0.000000 0.114222 0.294368
O O4 0.218166 0.500000 0.795336
O O5 0.250000 0.750000 0.816326
O O6 0.175580 0.696312 0.721852
O O7 0.159705 0.680962 0.863195
O O8 0.750000 0.750000 0.619133
O O9 0.848111 0.649708 0.588992
O O10 0.845213 0.882478 0.626489
O O11 0.103652 0.500000 0.075644
O O12 0.054397 0.290015 0.111607
O O13 0.124658 0.296168 0.000000
O O14 0.000000 0.500000 0.869460
O O15 0.930400 0.703904 0.500000
O O16 0.935501 0.500000 0.421319
O O17 0.364506 0.500000 0.500000
O O18 0.442955 0.500000 0.400482
#
# Coordination Sequence:
#
# PCOD8269264 Si02
#       8
#     8  16  16  16   8  16   8   4
#     4  12  23  40  59  86 117 155 208 262 311 382
#     4  10  22  39  64  94 126 169 212 261 316 374
#     4  11  25  41  63  89 123 161 211 263 316 383
#     4   9  18  34  58  93 130 160 197 249 309 378
#     4  10  19  33  59  91 119 157 195 248 311 373
#     4  11  23  38  58  83 114 154 197 257 321 375
#     4  12  27  46  68  92 126 173 220 275 330 385
#     4  12  27  44  64  90 119 164 212 264 321 384
#
# _framework density 19.770818999999999
#
# number of rings (size 3 to 8) (size 9 to 14) (size 15 to 20)
#    0.000    1.391    1.739    3.522    6.087    5.565 
#    0.000    0.000    0.000    0.000    0.000    0.609 
#    0.000    0.000    0.000    0.000    0.000    0.000 
#
# Total GULP energy -569855.383369 kJ/mol
# GULP energy per Si atom -12388.160508 kJ/mol
# Density = 1.972582 g / cm^3
# Si number density = 19.770819 Si / 1000 Ang^3
#
#
#
# Elastic Constant Matrix: (Units=GPa)
#
#
# Indices 1 2 3 4 5 6 
#
# 1 127.5951 52.6169 57.9942 0.0000 0.0000 0.0000
# 2 52.6169 89.2520 36.4664 0.0000 0.0000 0.0000
# 3 57.9942 36.4664 118.1493 0.0000 0.0000 0.0000
# 4 0.0000 0.0000 0.0000 14.4172 0.0000 0.0000
# 5 0.0000 0.0000 0.0000 0.0000 27.3679 0.0000
# 6 0.0000 0.0000 0.0000 0.0000 0.0000 26.9690
#
#
#
# Elastic Compliance Matrix: (Units=1/GPa)
#
#
# Indices 1 2 3 4 5 6 
#
# 1 0.011951 -0.005319 -0.004224 0.000000 0.000000 0.000000
# 2 -0.005319 0.015189 -0.002077 0.000000 0.000000 0.000000
# 3 -0.004224 -0.002077 0.011178 0.000000 0.000000 0.000000
# 4 0.000000 0.000000 0.000000 0.069361 0.000000 0.000000
# 5 0.000000 0.000000 0.000000 0.000000 0.036539 0.000000
# 6 0.000000 0.000000 0.000000 0.000000 0.000000 0.037080
#
#
# Mechanical properties :
#
#
# Convention : Reuss Voigt Hill
#
# Bulk Modulus (GPa) = 66.32722 69.90570 68.11646
# Shear Modulus (GPa) = 23.85890 26.27876 25.06883
#
# Velocity S-wave (km/s) = 3.47763 3.64973 3.56472
# Velocity P-wave (km/s) = 7.05309 7.29353 7.17432
#
# Compressibility (1/GPa) = 0.01507677
#
# Stress axis : x y z
#
# Youngs Moduli (GPa) = 83.67547 65.83801 89.45806
#
# Poissons Ratio (x) = 0.35022 0.37790
# Poissons Ratio (y) = 0.44511 0.18579
# Poissons Ratio (z) = 0.35347 0.13674
#
# Static dielectric constant tensor:
#      x y z
#    x 3.845010 0.000000 0.000000 
#    y 0.000000 3.608610 0.000000 
#    z 0.000000 0.000000 3.849890 
# 
# 
# High freq. dielectric constant tensor:
#      x y z
#    x 1.784660 0.000000 0.000000 
#    y 0.000000 1.753920 0.000000 
#    z 0.000000 0.000000 1.772100 
# 
# From -- ./inp_files/56729.got.cif
#   From: 2010.03.12/outbox.cif.g09.slc.cpg/sg65_29_cif.got.tgz:56729.got - 2010.04.10 20:52:16.
