data_PCOD8269459
_publ_section_title
;
Structure prediction by ZEFSAII (Michael W. Deem and Ramdas Pophale) SiO2 
 PCOD8269459
Probable space group: C M M M
;
_chemical_formula_sum "Si O2"
_cell_formula_units_Z 100
_cell_length_a 28.882546
_cell_length_b 21.886667
_cell_length_c 7.724870
_cell_angle_alpha 90.000000
_cell_angle_beta 90.000000
_cell_angle_gamma 90.000000
_cell_volume 4883.219920
_symmetry_space_group_name_H-M "C M M M"
_symmetry_group_IT_number 65
_symmetry_cell_setting 'orthorhombic'
loop_
_space_group_symop_operation_xyz
x,y,z
-x,-y,z
x,-y,-z
-x,y,-z
-x,-y,-z
x,y,-z
-x,y,z
x,-y,z
1/2+x,1/2+y,z
1/2-x,1/2-y,z
1/2+x,1/2-y,-z
1/2-x,1/2+y,-z
1/2-x,1/2-y,-z
1/2+x,1/2+y,-z
1/2-x,1/2+y,z
1/2+x,1/2-y,z
loop_
_atom_site_type_symbol
_atom_site_label
_atom_site_fract_x
_atom_site_fract_y
_atom_site_fract_z
Si Si1 0.075365 0.500000 0.500000
Si Si2 0.552184 0.568652 0.294265
Si Si3 0.394069 0.193123 0.801899
Si Si4 0.696991 0.124088 0.801166
Si Si5 0.778403 0.805844 0.694857
Si Si6 0.449507 0.132973 0.500000
Si Si7 0.351538 0.000000 0.796060
Si Si8 0.619805 0.326296 0.705684
O O1 0.044312 0.439803 0.500000
O O2 0.103652 0.500000 0.678438
O O3 0.553118 0.570892 0.500000
O O4 0.500000 0.585256 0.230289
O O5 0.565197 0.500000 0.230942
O O6 0.589766 0.616980 0.218219
O O7 0.340364 0.177611 0.762496
O O8 0.424341 0.152502 0.675078
O O9 0.404548 0.263990 0.766650
O O10 0.406430 0.175601 0.000000
O O11 0.744074 0.136193 0.696053
O O12 0.677781 0.059012 0.742797
O O13 0.710922 0.122972 0.000000
O O14 0.789983 0.785354 0.500000
O O15 0.750000 0.750000 0.788795
O O16 0.827485 0.825013 0.781988
O O17 0.500000 0.163430 0.500000
O O18 0.365218 0.000000 0.000000
O O19 0.620134 0.330814 0.500000
#
# Coordination Sequence:
#
# PCOD8269459 Si02
#       8
#     4  16  16  16  16   8   8  16
#     4  12  23  40  72  86 116 162 206 246 303 372
#     4   8  15  30  54  81 111 150 197 247 302 360
#     4  11  23  40  64  90 121 159 199 249 308 366
#     4  10  21  37  58  82 115 156 201 246 293 356
#     4  10  20  31  51  80 120 158 193 240 293 355
#     4  12  27  44  64  92 124 155 199 256 311 371
#     4  10  22  39  61  91 118 156 207 255 299 359
#     4  10  19  34  56  88 124 159 202 253 302 362
#
# _framework density 20.478292
#
# number of rings (size 3 to 8) (size 9 to 14) (size 15 to 20)
#    0.000    1.920    4.000    0.600    2.240    1.920 
#    1.440    0.000    0.000    1.920    0.000    1.120 
#    0.000    0.000    0.000    0.000    0.000    0.000 
#
# Total GULP energy -619753.092985 kJ/mol
# GULP energy per Si atom -12395.061860 kJ/mol
# Density = 2.043168 g / cm^3
# Si number density = 20.478292 Si / 1000 Ang^3
#
#
#
# Elastic Constant Matrix: (Units=GPa)
#
#
# Indices 1 2 3 4 5 6 
#
# 1 134.1896 63.0150 28.5847 0.0000 0.0000 0.0000
# 2 63.0150 144.5270 14.2446 0.0000 0.0000 0.0000
# 3 28.5847 14.2446 53.4410 0.0000 0.0000 0.0000
# 4 0.0000 0.0000 0.0000 14.7864 0.0000 0.0000
# 5 0.0000 0.0000 0.0000 0.0000 4.7716 0.0000
# 6 0.0000 0.0000 0.0000 0.0000 0.0000 95.7366
#
#
#
# Elastic Compliance Matrix: (Units=1/GPa)
#
#
# Indices 1 2 3 4 5 6 
#
# 1 0.010299 -0.004054 -0.004428 0.000000 0.000000 0.000000
# 2 -0.004054 0.008702 -0.000151 0.000000 0.000000 0.000000
# 3 -0.004428 -0.000151 0.021121 0.000000 0.000000 0.000000
# 4 0.000000 0.000000 0.000000 0.067630 0.000000 0.000000
# 5 0.000000 0.000000 0.000000 0.000000 0.209574 0.000000
# 6 0.000000 0.000000 0.000000 0.000000 0.000000 0.010445
#
#
# Mechanical properties :
#
#
# Convention : Reuss Voigt Hill
#
# Bulk Modulus (GPa) = 43.75352 60.42737 52.09044
# Shear Modulus (GPa) = 14.17813 38.14646 26.16229
#
# Velocity S-wave (km/s) = 2.63411 4.32067 3.57818
# Velocity P-wave (km/s) = 5.53747 7.37990 6.52405
#
# Compressibility (1/GPa) = 0.02285530
#
# Stress axis : x y z
#
# Youngs Moduli (GPa) = 97.09455 114.92110 47.34607
#
# Poissons Ratio (x) = 0.46590 0.20966
# Poissons Ratio (y) = 0.39363 0.00715
# Poissons Ratio (z) = 0.42996 0.01735
#
# Static dielectric constant tensor:
#      x y z
#    x 3.797280 0.000000 0.000000 
#    y 0.000000 4.032630 0.000000 
#    z 0.000000 0.000000 3.408720 
# 
# 
# High freq. dielectric constant tensor:
#      x y z
#    x 1.791080 0.000000 0.000000 
#    y 0.000000 1.802830 0.000000 
#    z 0.000000 0.000000 1.782440 
# 
# From -- ./inp_files/16537.got.cif
#   From: 2010.03.12/outbox.cif.g09.slc.cpg/sg65_9_cif.got.tgz:16537.got - 2010.04.10 20:52:16.
