data_PCOD8269310
_publ_section_title
;
Structure prediction by ZEFSAII (Michael W. Deem and Ramdas Pophale) SiO2 
 PCOD8269310
Probable space group: C M M M
;
_chemical_formula_sum "Si O2"
_cell_formula_units_Z 64
_cell_length_a 18.759226
_cell_length_b 16.447541
_cell_length_c 10.917261
_cell_angle_alpha 90.000000
_cell_angle_beta 90.000000
_cell_angle_gamma 90.000000
_cell_volume 3368.445976
_symmetry_space_group_name_H-M "C M M M"
_symmetry_group_IT_number 65
_symmetry_cell_setting 'orthorhombic'
loop_
_space_group_symop_operation_xyz
x,y,z
-x,-y,z
x,-y,-z
-x,y,-z
-x,-y,-z
x,y,-z
-x,y,z
x,-y,z
1/2+x,1/2+y,z
1/2-x,1/2-y,z
1/2+x,1/2-y,-z
1/2-x,1/2+y,-z
1/2-x,1/2-y,-z
1/2+x,1/2+y,-z
1/2-x,1/2+y,z
1/2+x,1/2-y,z
loop_
_atom_site_type_symbol
_atom_site_label
_atom_site_fract_x
_atom_site_fract_y
_atom_site_fract_z
Si Si1 0.653018 0.334767 0.855024
Si Si2 0.705812 0.088393 0.859232
Si Si3 0.422194 0.500000 0.856155
Si Si4 0.916221 0.592121 0.500000
Si Si5 0.584392 0.178590 0.250247
O O1 0.736431 0.343765 0.815618
O O2 0.619511 0.420195 0.815887
O O3 0.613046 0.269336 0.770704
O O4 0.643399 0.313629 0.000000
O O5 0.625421 0.120470 0.844512
O O6 0.714263 0.000000 0.793753
O O7 0.722624 0.074363 0.000000
O O8 0.500000 0.500000 0.793335
O O9 0.431117 0.500000 0.000000
O O10 0.882927 0.500000 0.500000
O O11 0.892696 0.645266 0.616676
O O12 0.000000 0.581662 0.500000
O O13 0.500000 0.174012 0.226412
#
# Coordination Sequence:
#
# PCOD8269310 Si02
#       5
#    16  16   8   8  16
#     4  10  19  34  53  80 117 148 178 216 266 325
#     4  10  20  35  54  78 114 154 180 209 267 333
#     4   9  16  28  50  77 108 148 185 213 247 307
#     4   9  20  40  59  75 103 143 184 228 280 330
#     4  11  22  35  56  82 105 136 183 236 279 318
#
# _framework density 18.999860000000002
#
# number of rings (size 3 to 8) (size 9 to 14) (size 15 to 20)
#    0.000    2.000    1.250    3.000    0.000    6.500 
#    0.000    3.750    0.000    0.750    0.000    3.500 
#    0.000    0.000    0.000    0.000    0.000    0.000 
#
# Total GULP energy -396508.202850 kJ/mol
# GULP energy per Si atom -12390.881339 kJ/mol
# Density = 1.895662 g / cm^3
# Si number density = 18.999860 Si / 1000 Ang^3
#
#
#
# Elastic Constant Matrix: (Units=GPa)
#
#
# Indices 1 2 3 4 5 6 
#
# 1 132.8178 55.8828 30.5965 0.0000 0.0000 0.0000
# 2 55.8828 156.7464 49.1192 0.0000 0.0000 0.0000
# 3 30.5965 49.1192 47.7529 0.0000 0.0000 0.0000
# 4 0.0000 0.0000 0.0000 8.4173 0.0000 0.0000
# 5 0.0000 0.0000 0.0000 0.0000 15.8285 0.0000
# 6 0.0000 0.0000 0.0000 0.0000 0.0000 19.9431
#
#
#
# Elastic Compliance Matrix: (Units=1/GPa)
#
#
# Indices 1 2 3 4 5 6 
#
# 1 0.009293 -0.002136 -0.003758 0.000000 0.000000 0.000000
# 2 -0.002136 0.009905 -0.008820 0.000000 0.000000 0.000000
# 3 -0.003758 -0.008820 0.032421 0.000000 0.000000 0.000000
# 4 0.000000 0.000000 0.000000 0.118803 0.000000 0.000000
# 5 0.000000 0.000000 0.000000 0.000000 0.063177 0.000000
# 6 0.000000 0.000000 0.000000 0.000000 0.000000 0.050143
#
#
# Mechanical properties :
#
#
# Convention : Reuss Voigt Hill
#
# Bulk Modulus (GPa) = 45.05978 67.61268 56.33623
# Shear Modulus (GPa) = 15.59734 22.28568 18.94151
#
# Velocity S-wave (km/s) = 2.86828 3.42854 3.16084
# Velocity P-wave (km/s) = 5.89378 7.16493 6.56022
#
# Compressibility (1/GPa) = 0.02219274
#
# Stress axis : x y z
#
# Youngs Moduli (GPa) = 107.60397 100.95829 30.84398
#
# Poissons Ratio (x) = 0.21562 0.11590
# Poissons Ratio (y) = 0.22981 0.27205
# Poissons Ratio (z) = 0.40434 0.89046
#
# Static dielectric constant tensor:
#      x y z
#    x 3.649420 0.000000 0.000000 
#    y 0.000000 3.764580 0.000000 
#    z 0.000000 0.000000 3.156810 
# 
# 
# High freq. dielectric constant tensor:
#      x y z
#    x 1.746890 0.000000 0.000000 
#    y 0.000000 1.761080 0.000000 
#    z 0.000000 0.000000 1.680820 
# 
# From -- ./inp_files/26118.got.cif
#   From: 2010.03.12/outbox.cif.g09.slc.cpg/sg65_14_cif.got.tgz:26118.got - 2010.04.10 20:52:16.
