data_PCOD8269495
_publ_section_title
;
Structure prediction by ZEFSAII (Michael W. Deem and Ramdas Pophale) SiO2 
 PCOD8269495
Probable space group: C M M M
;
_chemical_formula_sum "Si O2"
_cell_formula_units_Z 88
_cell_length_a 19.366046
_cell_length_b 10.644508
_cell_length_c 21.539883
_cell_angle_alpha 90.000000
_cell_angle_beta 90.000000
_cell_angle_gamma 90.000000
_cell_volume 4440.275242
_symmetry_space_group_name_H-M "C M M M"
_symmetry_group_IT_number 65
_symmetry_cell_setting 'orthorhombic'
loop_
_space_group_symop_operation_xyz
x,y,z
-x,-y,z
x,-y,-z
-x,y,-z
-x,-y,-z
x,y,-z
-x,y,z
x,-y,z
1/2+x,1/2+y,z
1/2-x,1/2-y,z
1/2+x,1/2-y,-z
1/2-x,1/2+y,-z
1/2-x,1/2-y,-z
1/2+x,1/2+y,-z
1/2-x,1/2+y,z
1/2+x,1/2-y,z
loop_
_atom_site_type_symbol
_atom_site_label
_atom_site_fract_x
_atom_site_fract_y
_atom_site_fract_z
Si Si1 0.667993 0.248155 0.641173
Si Si2 0.581039 0.133986 0.000000
Si Si3 0.202627 0.135740 0.928218
Si Si4 0.578894 0.855623 0.254682
Si Si5 0.670186 0.000000 0.431234
Si Si6 0.166397 0.000000 0.429928
Si Si7 0.578163 0.727320 0.875522
O O1 0.750000 0.250000 0.653024
O O2 0.628130 0.237240 0.706294
O O3 0.642511 0.374494 0.606368
O O4 0.644540 0.126455 0.602003
O O5 0.602982 0.197617 0.063698
O O6 0.500000 0.118854 0.000000
O O7 0.618595 0.000000 0.000000
O O8 0.250000 0.250000 0.904373
O O9 0.136735 0.120776 0.880346
O O10 0.240535 0.000000 0.923262
O O11 0.179957 0.159760 0.000000
O O12 0.500000 0.839916 0.277554
O O13 0.585247 0.816978 0.183367
O O14 0.603103 0.000000 0.261760
O O15 0.638242 0.000000 0.500000
O O16 0.752002 0.000000 0.434718
O O17 0.135227 0.000000 0.500000
O O18 0.500000 0.673126 0.880519
#
# Coordination Sequence:
#
# PCOD8269495 Si02
#       7
#    16   8  16  16   8   8  16
#     4  10  19  34  57  86 118 154 194 236 287 345
#     4   9  16  28  50  81 110 135 179 241 298 351
#     4  10  22  40  59  85 119 153 187 233 299 364
#     4  10  21  38  58  82 117 158 199 243 293 347
#     4   9  16  30  57  89 117 146 189 240 284 334
#     4   9  18  32  55  89 121 148 187 244 296 334
#     4  10  20  36  58  85 111 147 196 251 303 349
#
# _framework density 19.818591999999999
#
# number of rings (size 3 to 8) (size 9 to 14) (size 15 to 20)
#    0.000    2.273    1.818    1.091    0.000    6.909 
#    1.636    1.364    0.000    3.273    0.000    0.000 
#    0.000    0.000    0.000    0.000    0.000    0.000 
#
# Total GULP energy -545168.409942 kJ/mol
# GULP energy per Si atom -12390.191135 kJ/mol
# Density = 1.977348 g / cm^3
# Si number density = 19.818592 Si / 1000 Ang^3
#
#
#
# Elastic Constant Matrix: (Units=GPa)
#
#
# Indices 1 2 3 4 5 6 
#
# 1 75.4639 43.1871 36.3973 0.0000 0.0000 0.0000
# 2 43.1871 142.6670 53.0412 0.0000 0.0000 0.0000
# 3 36.3973 53.0412 116.2276 0.0000 0.0000 0.0000
# 4 0.0000 0.0000 0.0000 25.9267 0.0000 0.0000
# 5 0.0000 0.0000 0.0000 0.0000 20.6515 0.0000
# 6 0.0000 0.0000 0.0000 0.0000 0.0000 19.8806
#
#
#
# Elastic Compliance Matrix: (Units=1/GPa)
#
#
# Indices 1 2 3 4 5 6 
#
# 1 0.017211 -0.003861 -0.003628 0.000000 0.000000 0.000000
# 2 -0.003861 0.009308 -0.003039 0.000000 0.000000 0.000000
# 3 -0.003628 -0.003039 0.011126 0.000000 0.000000 0.000000
# 4 0.000000 0.000000 0.000000 0.038570 0.000000 0.000000
# 5 0.000000 0.000000 0.000000 0.000000 0.048423 0.000000
# 6 0.000000 0.000000 0.000000 0.000000 0.000000 0.050300
#
#
# Mechanical properties :
#
#
# Convention : Reuss Voigt Hill
#
# Bulk Modulus (GPa) = 60.27577 66.62328 63.44953
# Shear Modulus (GPa) = 24.81109 26.74063 25.77586
#
# Velocity S-wave (km/s) = 3.54207 3.67723 3.61028
# Velocity P-wave (km/s) = 6.87082 7.19158 7.03303
#
# Compressibility (1/GPa) = 0.01659042
#
# Stress axis : x y z
#
# Youngs Moduli (GPa) = 58.10334 107.43619 89.87604
#
# Poissons Ratio (x) = 0.41484 0.32603
# Poissons Ratio (y) = 0.22435 0.27309
# Poissons Ratio (z) = 0.21077 0.32645
#
# Static dielectric constant tensor:
#      x y z
#    x 3.402380 0.000000 0.000000 
#    y 0.000000 3.807960 0.000000 
#    z 0.000000 0.000000 3.619910 
# 
# 
# High freq. dielectric constant tensor:
#      x y z
#    x 1.752230 0.000000 0.000000 
#    y 0.000000 1.776710 0.000000 
#    z 0.000000 0.000000 1.762730 
# 
# From -- ./inp_files/63643.got.cif
#   From: 2010.03.12/outbox.cif.g09.slc.cpg/sg65_32_cif.got.tgz:63643.got - 2010.04.10 20:52:16.
