data_PCOD8269692
_publ_section_title
;
Structure prediction by ZEFSAII (Michael W. Deem and Ramdas Pophale) SiO2 
 PCOD8269692
Probable space group: C M M M
;
_chemical_formula_sum "Si O2"
_cell_formula_units_Z 88
_cell_length_a 19.004189
_cell_length_b 27.116904
_cell_length_c 8.698411
_cell_angle_alpha 90.000000
_cell_angle_beta 90.000000
_cell_angle_gamma 90.000000
_cell_volume 4482.593621
_symmetry_space_group_name_H-M "C M M M"
_symmetry_group_IT_number 65
_symmetry_cell_setting 'orthorhombic'
loop_
_space_group_symop_operation_xyz
x,y,z
-x,-y,z
x,-y,-z
-x,y,-z
-x,-y,-z
x,y,-z
-x,y,z
x,-y,z
1/2+x,1/2+y,z
1/2-x,1/2-y,z
1/2+x,1/2-y,-z
1/2-x,1/2+y,-z
1/2-x,1/2-y,-z
1/2+x,1/2+y,-z
1/2-x,1/2+y,z
1/2+x,1/2-y,z
loop_
_atom_site_type_symbol
_atom_site_label
_atom_site_fract_x
_atom_site_fract_y
_atom_site_fract_z
Si Si1 0.301571 0.618771 0.822777
Si Si2 0.920918 0.692090 0.683003
Si Si3 0.822777 0.778364 0.326255
Si Si4 0.080403 0.500000 0.818219
Si Si5 0.419484 0.442642 0.675421
Si Si6 0.156256 0.405680 0.318608
O O1 0.318440 0.675116 0.783816
O O2 0.371061 0.587331 0.791339
O O3 0.238355 0.596787 0.721901
O O4 0.280526 0.614596 0.000000
O O5 0.919588 0.690992 0.500000
O O6 0.882189 0.741549 0.740403
O O7 0.881144 0.643697 0.745316
O O8 0.000000 0.692217 0.748209
O O9 0.840970 0.795661 0.500000
O O10 0.750000 0.750000 0.326577
O O11 0.119971 0.547944 0.758772
O O12 0.000000 0.500000 0.757669
O O13 0.082682 0.500000 0.000000
O O14 0.402726 0.427531 0.500000
O O15 0.500000 0.429938 0.715078
O O16 0.404597 0.500000 0.700154
O O17 0.147808 0.410881 0.500000
#
# Coordination Sequence:
#
# PCOD8269692 Si02
#       6
#    16  16  16   8  16  16
#     4  12  25  38  58  90 128 162 198 246 306 367
#     4   9  18  34  60  90 115 146 198 258 304 346
#     4  10  19  37  60  84 115 153 200 249 299 353
#     4  11  25  43  61  89 130 165 196 247 315 371
#     4   9  20  41  67  91 116 152 201 252 300 354
#     4  11  22  40  64  89 118 159 212 257 296 352
#
# _framework density 19.631492000000001
#
# number of rings (size 3 to 8) (size 9 to 14) (size 15 to 20)
#    0.000    1.727    1.818    3.545    1.273    3.273 
#    0.000    2.727    0.000    2.182    0.000    0.000 
#    0.000    0.000    0.000    0.000    0.000    0.000 
#
# Total GULP energy -545756.522149 kJ/mol
# GULP energy per Si atom -12403.557322 kJ/mol
# Density = 1.958681 g / cm^3
# Si number density = 19.631492 Si / 1000 Ang^3
#
#
#
# Elastic Constant Matrix: (Units=GPa)
#
#
# Indices 1 2 3 4 5 6 
#
# 1 123.4483 65.3863 23.2675 0.0000 0.0000 0.0000
# 2 65.3863 120.4298 32.2790 0.0000 0.0000 0.0000
# 3 23.2675 32.2790 51.7881 0.0000 0.0000 0.0000
# 4 0.0000 0.0000 0.0000 24.6004 0.0000 0.0000
# 5 0.0000 0.0000 0.0000 0.0000 20.0907 0.0000
# 6 0.0000 0.0000 0.0000 0.0000 0.0000 35.5536
#
#
#
# Elastic Compliance Matrix: (Units=1/GPa)
#
#
# Indices 1 2 3 4 5 6 
#
# 1 0.011470 -0.005818 -0.001527 0.000000 0.000000 0.000000
# 2 -0.005818 0.012920 -0.005439 0.000000 0.000000 0.000000
# 3 -0.001527 -0.005439 0.023386 0.000000 0.000000 0.000000
# 4 0.000000 0.000000 0.000000 0.040650 0.000000 0.000000
# 5 0.000000 0.000000 0.000000 0.000000 0.049774 0.000000
# 6 0.000000 0.000000 0.000000 0.000000 0.000000 0.028127
#
#
# Mechanical properties :
#
#
# Convention : Reuss Voigt Hill
#
# Bulk Modulus (GPa) = 45.02961 59.72576 52.37768
# Shear Modulus (GPa) = 25.08810 27.69784 26.39297
#
# Velocity S-wave (km/s) = 3.57872 3.76025 3.67061
# Velocity P-wave (km/s) = 6.32958 7.02440 6.68602
#
# Compressibility (1/GPa) = 0.02220761
#
# Stress axis : x y z
#
# Youngs Moduli (GPa) = 87.18307 77.39652 42.76143
#
# Poissons Ratio (x) = 0.45032 0.06529
# Poissons Ratio (y) = 0.50726 0.23258
# Poissons Ratio (z) = 0.13311 0.42097
#
# Static dielectric constant tensor:
#      x y z
#    x 3.759210 0.000000 0.000000 
#    y 0.000000 3.522170 0.000000 
#    z 0.000000 0.000000 3.324760 
# 
# 
# High freq. dielectric constant tensor:
#      x y z
#    x 1.777310 0.000000 0.000000 
#    y 0.000000 1.775400 0.000000 
#    z 0.000000 0.000000 1.740820 
# 
# From -- ./inp_files/11844.got.cif
#   From: 2010.03.12/outbox.cif.g09.slc.cpg/sg65_6_cif.got.tgz:11844.got - 2010.04.10 20:52:16.
