data_PCOD8269616
_publ_section_title
;
Structure prediction by ZEFSAII (Michael W. Deem and Ramdas Pophale) SiO2 
 PCOD8269616
Probable space group: C M M M
;
_chemical_formula_sum "Si O2"
_cell_formula_units_Z 52
_cell_length_a 14.900096
_cell_length_b 23.579214
_cell_length_c 7.241325
_cell_angle_alpha 90.000000
_cell_angle_beta 90.000000
_cell_angle_gamma 90.000000
_cell_volume 2544.113194
_symmetry_space_group_name_H-M "C M M M"
_symmetry_group_IT_number 65
_symmetry_cell_setting 'orthorhombic'
loop_
_space_group_symop_operation_xyz
x,y,z
-x,-y,z
x,-y,-z
-x,y,-z
-x,-y,-z
x,y,-z
-x,y,z
x,-y,z
1/2+x,1/2+y,z
1/2-x,1/2-y,z
1/2+x,1/2-y,-z
1/2-x,1/2+y,-z
1/2-x,1/2-y,-z
1/2+x,1/2+y,-z
1/2-x,1/2+y,z
1/2+x,1/2-y,z
loop_
_atom_site_type_symbol
_atom_site_label
_atom_site_fract_x
_atom_site_fract_y
_atom_site_fract_z
Si Si1 0.597353 0.617177 0.282133
Si Si2 0.733693 0.815086 0.282240
Si Si3 0.104740 0.627082 0.000000
Si Si4 0.677038 0.500000 0.284494
Si Si5 0.330677 0.000000 0.000000
O O1 0.594324 0.623558 0.500000
O O2 0.500000 0.634468 0.199290
O O3 0.675921 0.656250 0.203695
O O4 0.617928 0.553169 0.223542
O O5 0.718229 0.824635 0.500000
O O6 0.750000 0.750000 0.232435
O O7 0.649508 0.843908 0.180229
O O8 0.112032 0.558331 0.000000
O O9 0.000000 0.642893 0.000000
O O10 0.700174 0.500000 0.500000
O O11 0.772071 0.500000 0.184466
#
# Coordination Sequence:
#
# PCOD8269616 Si02
#       5
#    16  16   8   8   4
#     4   9  17  32  58  89 119 152 191 242 306 372
#     4  10  22  42  66  91 123 163 206 253 310 371
#     4  12  26  43  63  90 125 166 216 266 308 356
#     4  10  19  35  59  84 119 159 197 249 313 372
#     4  12  23  40  63  86 118 168 215 258 311 362
#
# _framework density 20.439340000000001
#
# number of rings (size 3 to 8) (size 9 to 14) (size 15 to 20)
#    0.000    1.846    3.077    1.154    0.000    3.692 
#    0.000    6.923    0.000    2.769    0.000    0.000 
#    0.000    0.000    0.000    0.000    0.000    0.000 
#
# Total GULP energy -322267.297902 kJ/mol
# GULP energy per Si atom -12394.896073 kJ/mol
# Density = 2.039282 g / cm^3
# Si number density = 20.439340 Si / 1000 Ang^3
#
#
#
# Elastic Constant Matrix: (Units=GPa)
#
#
# Indices 1 2 3 4 5 6 
#
# 1 199.4504 85.5856 40.7828 0.0000 0.0000 0.0000
# 2 85.5856 153.2375 39.1285 0.0000 0.0000 0.0000
# 3 40.7828 39.1285 83.4244 0.0000 0.0000 0.0000
# 4 0.0000 0.0000 0.0000 -41.9103 0.0000 0.0000
# 5 0.0000 0.0000 0.0000 0.0000 22.1907 0.0000
# 6 0.0000 0.0000 0.0000 0.0000 0.0000 20.9938
#
#
#
# Elastic Compliance Matrix: (Units=1/GPa)
#
#
# Indices 1 2 3 4 5 6 
#
# 1 0.006813 -0.003357 -0.001756 0.000000 0.000000 0.000000
# 2 -0.003357 0.009068 -0.002612 0.000000 0.000000 0.000000
# 3 -0.001756 -0.002612 0.014071 0.000000 0.000000 0.000000
# 4 0.000000 0.000000 0.000000 -0.023860 0.000000 0.000000
# 5 0.000000 0.000000 0.000000 0.000000 0.045064 0.000000
# 6 0.000000 0.000000 0.000000 0.000000 0.000000 0.047633
#
#
# Mechanical properties :
#
#
# Convention : Reuss Voigt Hill
#
# Bulk Modulus (GPa) = 68.95936 85.23403 77.09670
# Shear Modulus (GPa) = 41.99137 18.29587 30.14362
#
# Velocity S-wave (km/s) = 4.53751 2.99512 3.84446
# Velocity P-wave (km/s) = 7.82712 7.33161 7.58341
#
# Compressibility (1/GPa) = 0.01450129
#
# Stress axis : x y z
#
# Youngs Moduli (GPa) = 146.77014 110.28204 71.07039
#
# Poissons Ratio (x) = 0.37021 0.12482
# Poissons Ratio (y) = 0.49270 0.18563
# Poissons Ratio (z) = 0.25777 0.28805
#
# Static dielectric constant tensor:
#      x y z
#    x 3.877470 0.000000 0.000000 
#    y 0.000000 3.880220 0.000000 
#    z 0.000000 0.000000 3.673850 
# 
# 
# High freq. dielectric constant tensor:
#      x y z
#    x 1.792230 0.000000 0.000000 
#    y 0.000000 1.807970 0.000000 
#    z 0.000000 0.000000 1.799940 
# 
# From -- ./inp_files/6123.got.cif
#   From: 2010.03.12/outbox.cif.g09.slc.cpg/sg65_4_cif.got.tgz:6123.got - 2010.04.10 20:52:16.
