data_PCOD8269419
_publ_section_title
;
Structure prediction by ZEFSAII (Michael W. Deem and Ramdas Pophale) SiO2 
 PCOD8269419
Probable space group: C M M M
;
_chemical_formula_sum "Si O2"
_cell_formula_units_Z 104
_cell_length_a 9.249469
_cell_length_b 27.874273
_cell_length_c 21.650513
_cell_angle_alpha 90.000000
_cell_angle_beta 90.000000
_cell_angle_gamma 90.000000
_cell_volume 5581.983413
_symmetry_space_group_name_H-M "C M M M"
_symmetry_group_IT_number 65
_symmetry_cell_setting 'orthorhombic'
loop_
_space_group_symop_operation_xyz
x,y,z
-x,-y,z
x,-y,-z
-x,y,-z
-x,-y,-z
x,y,-z
-x,y,z
x,-y,z
1/2+x,1/2+y,z
1/2-x,1/2-y,z
1/2+x,1/2-y,-z
1/2-x,1/2+y,-z
1/2-x,1/2-y,-z
1/2+x,1/2+y,-z
1/2-x,1/2+y,z
1/2+x,1/2-y,z
loop_
_atom_site_type_symbol
_atom_site_label
_atom_site_fract_x
_atom_site_fract_y
_atom_site_fract_z
Si Si1 0.666755 0.615048 0.885359
Si Si2 0.328776 0.552757 0.000000
Si Si3 0.332988 0.298968 0.319429
Si Si4 0.832641 0.702473 0.928594
Si Si5 0.165312 0.895100 0.253973
Si Si6 0.330720 0.055514 0.358688
Si Si7 0.331477 0.365423 0.430061
O O1 0.500000 0.629518 0.897834
O O2 0.724113 0.578893 0.937794
O O3 0.767186 0.661297 0.886432
O O4 0.685313 0.591938 0.817923
O O5 0.258862 0.500000 0.000000
O O6 0.500000 0.549236 0.000000
O O7 0.500000 0.285208 0.317931
O O8 0.250000 0.250000 0.305133
O O9 0.295428 0.339315 0.267863
O O10 0.288367 0.320780 0.386254
O O11 0.750000 0.750000 0.909313
O O12 0.000000 0.709418 0.913585
O O13 0.805120 0.689589 0.000000
O O14 0.266843 0.930901 0.291795
O O15 0.000000 0.903824 0.275019
O O16 0.500000 0.066551 0.357982
O O17 0.256758 0.087031 0.412004
O O18 0.298894 0.000000 0.372807
O O19 0.293108 0.350906 0.500000
O O20 0.500000 0.377648 0.421823
#
# Coordination Sequence:
#
# PCOD8269419 Si02
#       7
#    16   8  16  16  16  16  16
#     4  10  19  34  56  79 105 137 175 222 273 322
#     4   9  18  32  52  79 106 131 166 217 272 325
#     4   9  18  33  51  74 105 138 176 216 256 302
#     4  10  20  33  51  75 104 137 173 210 257 316
#     4   9  20  36  54  77 104 139 181 222 263 316
#     4  10  21  36  54  78 108 140 176 222 271 315
#     4   9  19  36  56  79 108 141 178 219 261 313
#
# _framework density 18.63137
#
# number of rings (size 3 to 8) (size 9 to 14) (size 15 to 20)
#    0.000    2.538    0.769    1.846    0.000    7.077 
#    0.000    4.615    0.000    0.923    0.000    0.000 
#    0.000    0.000    0.000    0.000    0.000    0.000 
#
# Total GULP energy -644803.539562 kJ/mol
# GULP energy per Si atom -12400.068069 kJ/mol
# Density = 1.858896 g / cm^3
# Si number density = 18.631370 Si / 1000 Ang^3
#
#
#
# Elastic Constant Matrix: (Units=GPa)
#
#
# Indices 1 2 3 4 5 6 
#
# 1 63.6136 33.5009 15.1977 0.0000 0.0000 0.0000
# 2 33.5009 79.7715 22.9072 0.0000 0.0000 0.0000
# 3 15.1977 22.9072 104.7226 0.0000 0.0000 0.0000
# 4 0.0000 0.0000 0.0000 11.8587 0.0000 0.0000
# 5 0.0000 0.0000 0.0000 0.0000 18.9464 0.0000
# 6 0.0000 0.0000 0.0000 0.0000 0.0000 31.3485
#
#
#
# Elastic Compliance Matrix: (Units=1/GPa)
#
#
# Indices 1 2 3 4 5 6 
#
# 1 0.020314 -0.008200 -0.001154 0.000000 0.000000 0.000000
# 2 -0.008200 0.016686 -0.002460 0.000000 0.000000 0.000000
# 3 -0.001154 -0.002460 0.010255 0.000000 0.000000 0.000000
# 4 0.000000 0.000000 0.000000 0.084326 0.000000 0.000000
# 5 0.000000 0.000000 0.000000 0.000000 0.052781 0.000000
# 6 0.000000 0.000000 0.000000 0.000000 0.000000 0.031899
#
#
# Mechanical properties :
#
#
# Convention : Reuss Voigt Hill
#
# Bulk Modulus (GPa) = 42.32545 43.47993 42.90269
# Shear Modulus (GPa) = 20.18052 24.19751 22.18901
#
# Velocity S-wave (km/s) = 3.29469 3.60773 3.45476
# Velocity P-wave (km/s) = 6.10245 6.38294 6.24427
#
# Compressibility (1/GPa) = 0.02362644
#
# Stress axis : x y z
#
# Youngs Moduli (GPa) = 49.22754 59.93172 97.51669
#
# Poissons Ratio (x) = 0.49141 0.11258
# Poissons Ratio (y) = 0.40364 0.23988
# Poissons Ratio (z) = 0.05683 0.14743
#
# Static dielectric constant tensor:
#      x y z
#    x 3.300940 0.000000 0.000000 
#    y 0.000000 3.347360 0.000000 
#    z 0.000000 0.000000 3.481950 
# 
# 
# High freq. dielectric constant tensor:
#      x y z
#    x 1.712780 0.000000 0.000000 
#    y 0.000000 1.715610 0.000000 
#    z 0.000000 0.000000 1.724100 
# 
# From -- ./inp_files/68159.got.cif
#   From: 2010.03.12/outbox.cif.g09.slc.cpg/sg65_35_cif.got.tgz:68159.got - 2010.04.10 20:52:16.
