data_PCOD8269406
_publ_section_title
;
Structure prediction by ZEFSAII (Michael W. Deem and Ramdas Pophale) SiO2 
 PCOD8269406
Probable space group: C M M M
;
_chemical_formula_sum "Si O2"
_cell_formula_units_Z 72
_cell_length_a 8.611223
_cell_length_b 19.201683
_cell_length_c 23.516870
_cell_angle_alpha 90.000000
_cell_angle_beta 90.000000
_cell_angle_gamma 90.000000
_cell_volume 3888.513850
_symmetry_space_group_name_H-M "C M M M"
_symmetry_group_IT_number 65
_symmetry_cell_setting 'orthorhombic'
loop_
_space_group_symop_operation_xyz
x,y,z
-x,-y,z
x,-y,-z
-x,y,-z
-x,-y,-z
x,y,-z
-x,y,z
x,-y,z
1/2+x,1/2+y,z
1/2-x,1/2-y,z
1/2+x,1/2-y,-z
1/2-x,1/2+y,-z
1/2-x,1/2-y,-z
1/2+x,1/2+y,-z
1/2-x,1/2+y,z
1/2+x,1/2-y,z
loop_
_atom_site_type_symbol
_atom_site_label
_atom_site_fract_x
_atom_site_fract_y
_atom_site_fract_z
Si Si1 0.318163 0.323998 0.278025
Si Si2 0.815948 0.325271 0.601632
Si Si3 0.175290 0.582648 0.060041
Si Si4 0.815374 0.578246 0.500000
Si Si5 0.182348 0.418426 0.183078
O O1 0.500000 0.316134 0.287401
O O2 0.250000 0.250000 0.258949
O O3 0.242456 0.349809 0.336774
O O4 0.282857 0.379772 0.229819
O O5 0.750000 0.250000 0.584977
O O6 0.755640 0.381389 0.555899
O O7 0.000000 0.320446 0.602156
O O8 0.174449 0.500000 0.061629
O O9 0.246749 0.607303 0.120553
O O10 0.000000 0.610329 0.058054
O O11 0.258114 0.607489 0.000000
O O12 0.746413 0.500000 0.500000
O O13 0.000000 0.575612 0.500000
O O14 0.211121 0.500000 0.191350
O O15 0.000000 0.400918 0.189372
#
# Coordination Sequence:
#
# PCOD8269406 Si02
#       5
#    16  16  16   8  16
#     4  11  22  36  53  73 100 133 172 213 252 296
#     4  10  19  34  56  77  99 129 166 204 243 292
#     4   7  10  19  39  68  98 126 159 199 241 290
#     4   9  19  34  53  79 106 131 160 196 240 289
#     4   9  17  30  50  76 104 133 165 203 251 303
#
# _framework density 18.516071
#
# number of rings (size 3 to 8) (size 9 to 14) (size 15 to 20)
#    0.000    2.778    0.000    6.333    0.000    1.333 
#    0.000    3.889    0.000    6.000    0.000    3.111 
#    0.000    0.000    0.000    0.000    0.000    0.000 
#
# Total GULP energy -445979.400408 kJ/mol
# GULP energy per Si atom -12388.316678 kJ/mol
# Density = 1.847393 g / cm^3
# Si number density = 18.516071 Si / 1000 Ang^3
#
#
#
# Elastic Constant Matrix: (Units=GPa)
#
#
# Indices 1 2 3 4 5 6 
#
# 1 64.4138 23.6160 33.5764 0.0000 0.0000 0.0000
# 2 23.6160 74.4912 75.1616 0.0000 0.0000 0.0000
# 3 33.5764 75.1616 171.4824 0.0000 0.0000 0.0000
# 4 0.0000 0.0000 0.0000 6.6758 0.0000 0.0000
# 5 0.0000 0.0000 0.0000 0.0000 16.5406 0.0000
# 6 0.0000 0.0000 0.0000 0.0000 0.0000 22.9320
#
#
#
# Elastic Compliance Matrix: (Units=1/GPa)
#
#
# Indices 1 2 3 4 5 6 
#
# 1 0.017878 -0.003829 -0.001822 0.000000 0.000000 0.000000
# 2 -0.003829 0.024889 -0.010159 0.000000 0.000000 0.000000
# 3 -0.001822 -0.010159 0.010641 0.000000 0.000000 0.000000
# 4 0.000000 0.000000 0.000000 0.149794 0.000000 0.000000
# 5 0.000000 0.000000 0.000000 0.000000 0.060457 0.000000
# 6 0.000000 0.000000 0.000000 0.000000 0.000000 0.043607
#
#
# Mechanical properties :
#
#
# Convention : Reuss Voigt Hill
#
# Bulk Modulus (GPa) = 45.89891 63.89950 54.89921
# Shear Modulus (GPa) = 14.44456 21.09857 17.77157
#
# Velocity S-wave (km/s) = 2.79607 3.37927 3.10141
# Velocity P-wave (km/s) = 5.93856 7.05770 6.52218
#
# Compressibility (1/GPa) = 0.02178701
#
# Stress axis : x y z
#
# Youngs Moduli (GPa) = 55.93329 40.17818 93.97514
#
# Poissons Ratio (x) = 0.15386 0.17123
# Poissons Ratio (y) = 0.21420 0.95471
# Poissons Ratio (z) = 0.10192 0.40818
#
# Static dielectric constant tensor:
#      x y z
#    x 3.089210 0.000000 0.000000 
#    y 0.000000 3.175640 0.000000 
#    z 0.000000 0.000000 4.007540 
# 
# 
# High freq. dielectric constant tensor:
#      x y z
#    x 1.686240 0.000000 0.000000 
#    y 0.000000 1.684830 0.000000 
#    z 0.000000 0.000000 1.747350 
# 
# From -- ./inp_files/67244.got.cif
#   From: 2010.03.12/outbox.cif.g09.slc.cpg/sg65_34_cif.got.tgz:67244.got - 2010.04.10 20:52:16.
