data_PCOD8269529
_publ_section_title
;
Structure prediction by ZEFSAII (Michael W. Deem and Ramdas Pophale) SiO2 
 PCOD8269529
Probable space group: C M M M
;
_chemical_formula_sum "Si O2"
_cell_formula_units_Z 88
_cell_length_a 24.392314
_cell_length_b 8.581466
_cell_length_c 21.589294
_cell_angle_alpha 90.000000
_cell_angle_beta 90.000000
_cell_angle_gamma 90.000000
_cell_volume 4519.110167
_symmetry_space_group_name_H-M "C M M M"
_symmetry_group_IT_number 65
_symmetry_cell_setting 'orthorhombic'
loop_
_space_group_symop_operation_xyz
x,y,z
-x,-y,z
x,-y,-z
-x,y,-z
-x,-y,-z
x,y,-z
-x,y,z
x,-y,z
1/2+x,1/2+y,z
1/2-x,1/2-y,z
1/2+x,1/2-y,-z
1/2-x,1/2+y,-z
1/2-x,1/2-y,-z
1/2+x,1/2+y,-z
1/2-x,1/2+y,z
1/2+x,1/2-y,z
loop_
_atom_site_type_symbol
_atom_site_label
_atom_site_fract_x
_atom_site_fract_y
_atom_site_fract_z
Si Si1 0.188868 0.814022 0.500000
Si Si2 0.905375 0.181963 0.854712
Si Si3 0.062714 0.682584 0.275405
Si Si4 0.114762 0.184336 0.614058
Si Si5 0.000000 0.185415 0.567748
Si Si6 0.309911 0.182254 0.070254
Si Si7 0.500000 0.825395 0.927491
O O1 0.250000 0.750000 0.500000
O O2 0.158594 0.752252 0.436938
O O3 0.189152 0.000000 0.500000
O O4 0.922170 0.276615 0.794227
O O5 0.845710 0.227632 0.879173
O O6 0.946957 0.228770 0.908422
O O7 0.908189 0.000000 0.839629
O O8 0.062924 0.500000 0.284778
O O9 0.114758 0.752277 0.315680
O O10 0.000000 0.746642 0.290076
O O11 0.054781 0.250375 0.597855
O O12 0.119396 0.000000 0.613519
O O13 0.000000 0.254382 0.500000
O O14 0.000000 0.000000 0.567967
O O15 0.250000 0.250000 0.078183
O O16 0.310557 0.000000 0.085622
O O17 0.331053 0.211951 0.000000
O O18 0.500000 0.000000 0.898036
O O19 0.500000 0.841277 0.000000
#
# Coordination Sequence:
#
# PCOD8269529 Si02
#       7
#     8  16  16  16   8  16   8
#     4  10  22  39  61  88 120 159 196 240 292 349
#     4  12  24  38  59  86 119 159 204 250 300 359
#     4  11  23  38  57  84 121 159 194 239 302 365
#     4  10  19  34  59  87 114 149 196 239 287 349
#     4   9  14  25  51  84 111 134 172 227 278 327
#     4  10  21  39  63  89 118 153 195 246 301 354
#     4  11  23  38  57  84 121 163 203 248 307 369
#
# _framework density 19.472859
#
# number of rings (size 3 to 8) (size 9 to 14) (size 15 to 20)
#    0.000    1.455    2.727    3.545    0.000    5.455 
#    0.000    0.909    0.000    3.818    0.000    0.000 
#    0.000    0.000    0.000    0.000    0.000    0.000 
#
# Total GULP energy -545229.538789 kJ/mol
# GULP energy per Si atom -12391.580427 kJ/mol
# Density = 1.942854 g / cm^3
# Si number density = 19.472859 Si / 1000 Ang^3
#
#
#
# Elastic Constant Matrix: (Units=GPa)
#
#
# Indices 1 2 3 4 5 6 
#
# 1 105.5316 25.6108 50.8297 0.0000 0.0000 0.0000
# 2 25.6108 45.6360 17.9951 0.0000 0.0000 0.0000
# 3 50.8297 17.9951 96.1711 0.0000 0.0000 0.0000
# 4 0.0000 0.0000 0.0000 24.8273 0.0000 0.0000
# 5 0.0000 0.0000 0.0000 0.0000 32.8855 0.0000
# 6 0.0000 0.0000 0.0000 0.0000 0.0000 20.4356
#
#
#
# Elastic Compliance Matrix: (Units=1/GPa)
#
#
# Indices 1 2 3 4 5 6 
#
# 1 0.013787 -0.005251 -0.006304 0.000000 0.000000 0.000000
# 2 -0.005251 0.025658 -0.002026 0.000000 0.000000 0.000000
# 3 -0.006304 -0.002026 0.014109 0.000000 0.000000 0.000000
# 4 0.000000 0.000000 0.000000 0.040278 0.000000 0.000000
# 5 0.000000 0.000000 0.000000 0.000000 0.030409 0.000000
# 6 0.000000 0.000000 0.000000 0.000000 0.000000 0.048934
#
#
# Mechanical properties :
#
#
# Convention : Reuss Voigt Hill
#
# Bulk Modulus (GPa) = 37.89017 48.46777 43.17897
# Shear Modulus (GPa) = 23.90811 25.82323 24.86567
#
# Velocity S-wave (km/s) = 3.50775 3.64554 3.57731
# Velocity P-wave (km/s) = 5.99216 6.53176 6.26777
#
# Compressibility (1/GPa) = 0.02639207
#
# Stress axis : x y z
#
# Youngs Moduli (GPa) = 72.53420 38.97394 70.87622
#
# Poissons Ratio (x) = 0.20466 0.44681
# Poissons Ratio (y) = 0.38089 0.14357
# Poissons Ratio (z) = 0.45726 0.07895
#
# Static dielectric constant tensor:
#      x y z
#    x 3.508360 0.000000 0.000000 
#    y 0.000000 3.429220 0.000000 
#    z 0.000000 0.000000 3.819640 
# 
# 
# High freq. dielectric constant tensor:
#      x y z
#    x 1.746220 0.000000 0.000000 
#    y 0.000000 1.751560 0.000000 
#    z 0.000000 0.000000 1.769910 
# 
# From -- ./inp_files/65219.got.cif
#   From: 2010.03.12/outbox.cif.g09.slc.cpg/sg65_33_cif.got.tgz:65219.got - 2010.04.10 20:52:16.
