data_PCOD8269404
_publ_section_title
;
Structure prediction by ZEFSAII (Michael W. Deem and Ramdas Pophale) SiO2 
 PCOD8269404
Probable space group: C M M M
;
_chemical_formula_sum "Si O2"
_cell_formula_units_Z 80
_cell_length_a 31.095717
_cell_length_b 17.707218
_cell_length_c 7.754170
_cell_angle_alpha 90.000000
_cell_angle_beta 90.000000
_cell_angle_gamma 90.000000
_cell_volume 4269.590538
_symmetry_space_group_name_H-M "C M M M"
_symmetry_group_IT_number 65
_symmetry_cell_setting 'orthorhombic'
loop_
_space_group_symop_operation_xyz
x,y,z
-x,-y,z
x,-y,-z
-x,y,-z
-x,-y,-z
x,y,-z
-x,y,z
x,-y,z
1/2+x,1/2+y,z
1/2-x,1/2-y,z
1/2+x,1/2-y,-z
1/2-x,1/2+y,-z
1/2-x,1/2-y,-z
1/2+x,1/2+y,-z
1/2-x,1/2+y,z
1/2+x,1/2-y,z
loop_
_atom_site_type_symbol
_atom_site_label
_atom_site_fract_x
_atom_site_fract_y
_atom_site_fract_z
Si Si1 0.392739 0.290073 0.196981
Si Si2 0.847830 0.635069 0.190802
Si Si3 0.742049 0.167299 0.304366
Si Si4 0.402206 0.917450 0.500000
Si Si5 0.174303 0.085883 0.200887
Si Si6 0.449460 0.237014 0.500000
O O1 0.358461 0.223104 0.220297
O O2 0.368300 0.366910 0.248527
O O3 0.432039 0.277775 0.327996
O O4 0.410382 0.293276 0.000000
O O5 0.796476 0.625298 0.204799
O O6 0.872528 0.585495 0.330622
O O7 0.862333 0.608341 0.000000
O O8 0.726471 0.178042 0.500000
O O9 0.750000 0.250000 0.220930
O O10 0.784453 0.116402 0.301321
O O11 0.437723 0.851843 0.500000
O O12 0.424867 0.000000 0.500000
O O13 0.165335 0.000000 0.256531
O O14 0.184634 0.093800 0.000000
O O15 0.500000 0.245727 0.500000
#
# Coordination Sequence:
#
# PCOD8269404 Si02
#       6
#    16  16  16   8  16   8
#     4   9  19  36  59  83 110 143 180 226 273 321
#     4  10  19  34  56  77 105 153 200 229 264 316
#     4  11  21  31  51  77 111 154 196 239 275 312
#     4  10  22  39  56  81 116 143 176 228 279 324
#     4  10  21  35  52  78 110 147 191 233 276 321
#     4  10  22  39  64  91 108 133 177 218 270 349
#
# _framework density 18.737161
#
# number of rings (size 3 to 8) (size 9 to 14) (size 15 to 20)
#    0.000    2.000    3.000    0.600    1.400    3.000 
#    0.000    0.000    0.000    1.200    0.000    8.400 
#    0.000    0.000    0.000    0.000    0.000    0.000 
#
# Total GULP energy -496053.768417 kJ/mol
# GULP energy per Si atom -12401.344210 kJ/mol
# Density = 1.869451 g / cm^3
# Si number density = 18.737161 Si / 1000 Ang^3
#
#
#
# Elastic Constant Matrix: (Units=GPa)
#
#
# Indices 1 2 3 4 5 6 
#
# 1 122.6330 42.2577 49.7856 0.0000 0.0000 0.0000
# 2 42.2577 112.5592 31.5789 0.0000 0.0000 0.0000
# 3 49.7856 31.5789 105.8324 0.0000 0.0000 0.0000
# 4 0.0000 0.0000 0.0000 12.3445 0.0000 0.0000
# 5 0.0000 0.0000 0.0000 0.0000 22.2315 0.0000
# 6 0.0000 0.0000 0.0000 0.0000 0.0000 16.4132
#
#
#
# Elastic Compliance Matrix: (Units=1/GPa)
#
#
# Indices 1 2 3 4 5 6 
#
# 1 0.010878 -0.002890 -0.004255 0.000000 0.000000 0.000000
# 2 -0.002890 0.010464 -0.001763 0.000000 0.000000 0.000000
# 3 -0.004255 -0.001763 0.011976 0.000000 0.000000 0.000000
# 4 0.000000 0.000000 0.000000 0.081008 0.000000 0.000000
# 5 0.000000 0.000000 0.000000 0.000000 0.044981 0.000000
# 6 0.000000 0.000000 0.000000 0.000000 0.000000 0.060927
#
#
# Mechanical properties :
#
#
# Convention : Reuss Voigt Hill
#
# Bulk Modulus (GPa) = 64.50441 65.36322 64.93381
# Shear Modulus (GPa) = 20.55788 24.69133 22.62461
#
# Velocity S-wave (km/s) = 3.31595 3.63405 3.47864
# Velocity P-wave (km/s) = 7.01152 7.25041 7.13196
#
# Compressibility (1/GPa) = 0.01550282
#
# Stress axis : x y z
#
# Youngs Moduli (GPa) = 91.93236 95.56800 83.49799
#
# Poissons Ratio (x) = 0.27620 0.35526
# Poissons Ratio (y) = 0.26569 0.14718
# Poissons Ratio (z) = 0.39114 0.16846
#
# Static dielectric constant tensor:
#      x y z
#    x 2.986960 0.000000 0.000000 
#    y 0.000000 3.388190 0.000000 
#    z 0.000000 0.000000 3.552570 
# 
# 
# High freq. dielectric constant tensor:
#      x y z
#    x 1.688430 0.000000 0.000000 
#    y 0.000000 1.718940 0.000000 
#    z 0.000000 0.000000 1.740940 
# 
# From -- ./inp_files/18214.got.cif
#   From: 2010.03.12/outbox.cif.g09.slc.cpg/sg65_10_cif.got.tgz:18214.got - 2010.04.10 20:52:16.
