data_PCOD8269295
_publ_section_title
;
Structure prediction by ZEFSAII (Michael W. Deem and Ramdas Pophale) SiO2 
 PCOD8269295
Probable space group: C M M M
;
_chemical_formula_sum "Si O2"
_cell_formula_units_Z 64
_cell_length_a 28.706308
_cell_length_b 13.216334
_cell_length_c 8.668208
_cell_angle_alpha 90.000000
_cell_angle_beta 90.000000
_cell_angle_gamma 90.000000
_cell_volume 3288.650108
_symmetry_space_group_name_H-M "C M M M"
_symmetry_group_IT_number 65
_symmetry_cell_setting 'orthorhombic'
loop_
_space_group_symop_operation_xyz
x,y,z
-x,-y,z
x,-y,-z
-x,y,-z
-x,-y,-z
x,y,-z
-x,y,z
x,-y,z
1/2+x,1/2+y,z
1/2-x,1/2-y,z
1/2+x,1/2-y,-z
1/2-x,1/2+y,-z
1/2-x,1/2-y,-z
1/2+x,1/2+y,-z
1/2-x,1/2+y,z
1/2+x,1/2-y,z
loop_
_atom_site_type_symbol
_atom_site_label
_atom_site_fract_x
_atom_site_fract_y
_atom_site_fract_z
Si Si1 0.360246 0.500000 0.682919
Si Si2 0.753544 0.000000 0.685231
Si Si3 0.447370 0.887194 0.816715
Si Si4 0.296298 0.808310 0.668151
Si Si5 0.880550 0.209541 0.819410
O O1 0.360119 0.500000 0.500000
O O2 0.306872 0.500000 0.747543
O O3 0.387731 0.599978 0.740377
O O4 0.721978 0.090528 0.749650
O O5 0.755718 0.000000 0.500000
O O6 0.500000 0.868395 0.758818
O O7 0.415567 0.795613 0.751347
O O8 0.430625 0.000000 0.760768
O O9 0.445337 0.885100 0.000000
O O10 0.321299 0.824979 0.500000
O O11 0.250000 0.750000 0.630553
O O12 0.328741 0.748031 0.785367
O O13 0.888146 0.194747 0.000000
#
# Coordination Sequence:
#
# PCOD8269295 Si02
#       5
#     8   8  16  16  16
#     4  11  21  39  58  72 105 155 193 216 261 333
#     4   9  18  33  51  70  97 144 196 223 243 309
#     4   8  16  34  58  81 109 144 176 213 272 340
#     4  10  19  34  53  73 104 149 192 218 254 322
#     4  11  22  34  54  86 113 135 179 237 282 315
#
# _framework density 19.460872999999999
#
# number of rings (size 3 to 8) (size 9 to 14) (size 15 to 20)
#    0.000    2.250    2.500    1.875    1.750    0.500 
#    0.000    0.625    0.000    6.750    0.000    7.000 
#    0.000    0.000    0.000    0.000    0.000    0.000 
#
# Total GULP energy -396426.156343 kJ/mol
# GULP energy per Si atom -12388.317386 kJ/mol
# Density = 1.941658 g / cm^3
# Si number density = 19.460873 Si / 1000 Ang^3
#
#
#
# Elastic Constant Matrix: (Units=GPa)
#
#
# Indices 1 2 3 4 5 6 
#
# 1 78.1395 64.0124 18.8952 0.0000 0.0000 0.0000
# 2 64.0124 199.3140 30.5702 0.0000 0.0000 0.0000
# 3 18.8952 30.5702 40.7148 0.0000 0.0000 0.0000
# 4 0.0000 0.0000 0.0000 27.7503 0.0000 0.0000
# 5 0.0000 0.0000 0.0000 0.0000 18.8974 0.0000
# 6 0.0000 0.0000 0.0000 0.0000 0.0000 35.6841
#
#
#
# Elastic Compliance Matrix: (Units=1/GPa)
#
#
# Indices 1 2 3 4 5 6 
#
# 1 0.018085 -0.005109 -0.004557 0.000000 0.000000 0.000000
# 2 -0.005109 0.007114 -0.002970 0.000000 0.000000 0.000000
# 3 -0.004557 -0.002970 0.028906 0.000000 0.000000 0.000000
# 4 0.000000 0.000000 0.000000 0.036036 0.000000 0.000000
# 5 0.000000 0.000000 0.000000 0.000000 0.052917 0.000000
# 6 0.000000 0.000000 0.000000 0.000000 0.000000 0.028024
#
#
# Mechanical properties :
#
#
# Convention : Reuss Voigt Hill
#
# Bulk Modulus (GPa) = 34.68328 60.56931 47.62629
# Shear Modulus (GPa) = 24.27604 30.11239 27.19422
#
# Velocity S-wave (km/s) = 3.53573 3.93788 3.74221
# Velocity P-wave (km/s) = 5.87616 7.20188 6.57253
#
# Compressibility (1/GPa) = 0.02883234
#
# Stress axis : x y z
#
# Youngs Moduli (GPa) = 55.29395 140.57384 34.59513
#
# Poissons Ratio (x) = 0.71825 0.15764
# Poissons Ratio (y) = 0.28252 0.10275
# Poissons Ratio (z) = 0.25196 0.41751
#
# Static dielectric constant tensor:
#      x y z
#    x 3.477380 0.000000 0.000000 
#    y 0.000000 3.841060 0.000000 
#    z 0.000000 0.000000 3.098760 
# 
# 
# High freq. dielectric constant tensor:
#      x y z
#    x 1.732300 0.000000 0.000000 
#    y 0.000000 1.781320 0.000000 
#    z 0.000000 0.000000 1.718430 
# 
# From -- ./inp_files/15663.got.cif
#   From: 2010.03.12/outbox.cif.g09.slc.cpg/sg65_8_cif.got.tgz:15663.got - 2010.04.10 20:52:16.
