data_PCOD8269376
_publ_section_title
;
Structure prediction by ZEFSAII (Michael W. Deem and Ramdas Pophale) SiO2 
 PCOD8269376
Probable space group: C M M M
;
_chemical_formula_sum "Si O2"
_cell_formula_units_Z 104
_cell_length_a 26.875163
_cell_length_b 20.887161
_cell_length_c 9.682355
_cell_angle_alpha 90.000000
_cell_angle_beta 90.000000
_cell_angle_gamma 90.000000
_cell_volume 5435.149860
_symmetry_space_group_name_H-M "C M M M"
_symmetry_group_IT_number 65
_symmetry_cell_setting 'orthorhombic'
loop_
_space_group_symop_operation_xyz
x,y,z
-x,-y,z
x,-y,-z
-x,y,-z
-x,-y,-z
x,y,-z
-x,y,z
x,-y,z
1/2+x,1/2+y,z
1/2-x,1/2-y,z
1/2+x,1/2-y,-z
1/2-x,1/2+y,-z
1/2-x,1/2-y,-z
1/2+x,1/2+y,-z
1/2-x,1/2+y,z
1/2+x,1/2-y,z
loop_
_atom_site_type_symbol
_atom_site_label
_atom_site_fract_x
_atom_site_fract_y
_atom_site_fract_z
Si Si1 0.111160 0.836620 0.152980
Si Si2 0.116457 0.381116 0.339272
Si Si3 0.944518 0.925554 0.655297
Si Si4 0.776875 0.184726 0.160846
Si Si5 0.056511 0.290246 0.843316
Si Si6 0.771943 0.575183 0.661174
Si Si7 0.945100 0.500000 0.335683
O O1 0.098753 0.893187 0.257075
O O2 0.164531 0.804871 0.185987
O O3 0.067240 0.784972 0.163209
O O4 0.112734 0.866626 0.000000
O O5 0.107520 0.366871 0.500000
O O6 0.098765 0.320279 0.253421
O O7 0.172539 0.400913 0.309554
O O8 0.082417 0.437786 0.280934
O O9 0.941274 0.898865 0.500000
O O10 0.000000 0.912195 0.714668
O O11 0.932804 0.000000 0.657067
O O12 0.750000 0.250000 0.213817
O O13 0.762311 0.121238 0.246772
O O14 0.763603 0.173045 0.000000
O O15 0.000000 0.302753 0.790425
O O16 0.062674 0.315537 0.000000
O O17 0.758343 0.583605 0.500000
O O18 0.766200 0.500000 0.703041
O O19 0.944780 0.500000 0.500000
O O20 0.000000 0.500000 0.272761
#
# Coordination Sequence:
#
# PCOD8269376 Si02
#       7
#    16  16  16  16  16  16   8
#     4  10  21  37  57  80 107 142 184 228 273 327
#     4  10  19  34  55  79 107 142 185 225 266 319
#     4   9  19  36  57  82 113 146 178 216 267 328
#     4  10  22  40  60  82 110 146 191 238 285 338
#     4  10  21  36  54  79 112 146 180 223 275 326
#     4  10  21  38  59  84 114 147 187 235 284 336
#     4   9  16  28  49  75 103 135 173 217 260 303
#
# _framework density 19.134708
#
# number of rings (size 3 to 8) (size 9 to 14) (size 15 to 20)
#    0.000    2.231    0.769    2.308    0.000    6.462 
#    0.000    4.231    0.000    1.385    0.000    0.000 
#    0.000    0.000    0.000    0.000    0.000    0.000 
#
# Total GULP energy -644670.478675 kJ/mol
# GULP energy per Si atom -12397.509205 kJ/mol
# Density = 1.909116 g / cm^3
# Si number density = 19.134708 Si / 1000 Ang^3
#
#
#
# Elastic Constant Matrix: (Units=GPa)
#
#
# Indices 1 2 3 4 5 6 
#
# 1 77.9131 38.2324 39.0887 0.0000 0.0000 0.0000
# 2 38.2324 87.6305 49.2792 0.0000 0.0000 0.0000
# 3 39.0887 49.2792 68.0778 0.0000 0.0000 0.0000
# 4 0.0000 0.0000 0.0000 42.1410 0.0000 0.0000
# 5 0.0000 0.0000 0.0000 0.0000 31.0167 0.0000
# 6 0.0000 0.0000 0.0000 0.0000 0.0000 -48.4734
#
#
#
# Elastic Compliance Matrix: (Units=1/GPa)
#
#
# Indices 1 2 3 4 5 6 
#
# 1 0.018668 -0.003570 -0.008134 0.000000 0.000000 0.000000
# 2 -0.003570 0.019929 -0.012376 0.000000 0.000000 0.000000
# 3 -0.008134 -0.012376 0.028318 0.000000 0.000000 0.000000
# 4 0.000000 0.000000 0.000000 0.023730 0.000000 0.000000
# 5 0.000000 0.000000 0.000000 0.000000 0.032241 0.000000
# 6 0.000000 0.000000 0.000000 0.000000 0.000000 -0.020630
#
#
# Mechanical properties :
#
#
# Convention : Reuss Voigt Hill
#
# Bulk Modulus (GPa) = 53.32212 54.09133 53.70672
# Shear Modulus (GPa) = 31.91491 12.07162 21.99326
#
# Velocity S-wave (km/s) = 4.08843 2.51445 3.39394
# Velocity P-wave (km/s) = 7.08620 6.06300 6.59448
#
# Compressibility (1/GPa) = 0.01875394
#
# Stress axis : x y z
#
# Youngs Moduli (GPa) = 53.56871 50.17864 35.31338
#
# Poissons Ratio (x) = 0.17915 0.28724
# Poissons Ratio (y) = 0.19126 0.43703
# Poissons Ratio (z) = 0.43573 0.62100
#
# Static dielectric constant tensor:
#      x y z
#    x 3.562540 0.000000 0.000000 
#    y 0.000000 3.382630 0.000000 
#    z 0.000000 0.000000 3.400370 
# 
# 
# High freq. dielectric constant tensor:
#      x y z
#    x 1.752590 0.000000 0.000000 
#    y 0.000000 1.741720 0.000000 
#    z 0.000000 0.000000 1.729730 
# 
# From -- ./inp_files/16448.got.cif
#   From: 2010.03.12/outbox.cif.g09.slc.cpg/sg65_9_cif.got.tgz:16448.got - 2010.04.10 20:52:16.
