data_PCOD8269434
_publ_section_title
;
Structure prediction by ZEFSAII (Michael W. Deem and Ramdas Pophale) SiO2 
 PCOD8269434
Probable space group: C M M M
;
_chemical_formula_sum "Si O2"
_cell_formula_units_Z 104
_cell_length_a 8.617236
_cell_length_b 21.080035
_cell_length_c 28.747457
_cell_angle_alpha 90.000000
_cell_angle_beta 90.000000
_cell_angle_gamma 90.000000
_cell_volume 5222.022609
_symmetry_space_group_name_H-M "C M M M"
_symmetry_group_IT_number 65
_symmetry_cell_setting 'orthorhombic'
loop_
_space_group_symop_operation_xyz
x,y,z
-x,-y,z
x,-y,-z
-x,y,-z
-x,-y,-z
x,y,-z
-x,y,z
x,-y,z
1/2+x,1/2+y,z
1/2-x,1/2-y,z
1/2+x,1/2-y,-z
1/2-x,1/2+y,-z
1/2-x,1/2-y,-z
1/2+x,1/2+y,-z
1/2-x,1/2+y,z
1/2+x,1/2-y,z
loop_
_atom_site_type_symbol
_atom_site_label
_atom_site_fract_x
_atom_site_fract_y
_atom_site_fract_z
Si Si1 0.180055 0.815976 0.549713
Si Si2 0.316210 0.072910 0.722994
Si Si3 0.820978 0.928152 0.054534
Si Si4 0.682659 0.184376 0.888008
Si Si5 0.685776 0.000000 0.551315
Si Si6 0.816634 0.816804 0.786230
Si Si7 0.181560 0.396521 0.620952
O O1 0.207301 0.854976 0.500000
O O2 0.250000 0.750000 0.536259
O O3 0.269765 0.830832 0.598206
O O4 0.000000 0.813858 0.562045
O O5 0.500000 0.082623 0.725338
O O6 0.237955 0.121968 0.757889
O O7 0.248210 0.088975 0.671694
O O8 0.272689 0.000000 0.735776
O O9 0.715830 0.876215 0.079858
O O10 0.000000 0.915725 0.067178
O O11 0.774287 0.000000 0.069842
O O12 0.792856 0.920381 0.000000
O O13 0.500000 0.192039 0.881436
O O14 0.750000 0.250000 0.910035
O O15 0.761372 0.172583 0.838588
O O16 0.750781 0.058636 0.580657
O O17 0.500000 0.000000 0.548934
O O18 0.758648 0.000000 0.500000
O O19 0.750000 0.750000 0.766181
O O20 0.000000 0.812397 0.784401
O O21 0.000000 0.405942 0.626152
#
# Coordination Sequence:
#
# PCOD8269434 Si02
#       7
#    16  16  16  16   8  16  16
#     4  10  21  36  53  75 104 138 176 219 266 318
#     4  10  21  39  61  86 118 151 189 236 288 345
#     4   9  19  37  60  87 123 166 209 254 303 355
#     4  11  22  38  61  88 120 157 200 252 305 358
#     4   9  16  28  51  81 107 135 173 211 254 313
#     4  11  23  41  64  88 116 152 197 246 301 359
#     4  10  19  34  56  81 107 139 175 217 266 321
#
# _framework density 19.915654
#
# number of rings (size 3 to 8) (size 9 to 14) (size 15 to 20)
#    0.000    1.923    0.769    5.077    0.000    4.615 
#    0.000    1.154    0.000    1.385    0.000    0.000 
#    0.000    0.000    0.000    0.000    0.000    0.000 
#
# Total GULP energy -644201.660087 kJ/mol
# GULP energy per Si atom -12388.493463 kJ/mol
# Density = 1.987033 g / cm^3
# Si number density = 19.915654 Si / 1000 Ang^3
#
#
#
# Elastic Constant Matrix: (Units=GPa)
#
#
# Indices 1 2 3 4 5 6 
#
# 1 73.0940 44.4676 33.3522 0.0000 0.0000 0.0000
# 2 44.4676 133.2566 66.6714 0.0000 0.0000 0.0000
# 3 33.3522 66.6714 85.4825 0.0000 0.0000 0.0000
# 4 0.0000 0.0000 0.0000 18.5825 0.0000 0.0000
# 5 0.0000 0.0000 0.0000 0.0000 26.0622 0.0000
# 6 0.0000 0.0000 0.0000 0.0000 0.0000 25.5032
#
#
#
# Elastic Compliance Matrix: (Units=1/GPa)
#
#
# Indices 1 2 3 4 5 6 
#
# 1 0.017892 -0.004064 -0.003812 0.000000 0.000000 0.000000
# 2 -0.004064 0.013230 -0.008733 0.000000 0.000000 0.000000
# 3 -0.003812 -0.008733 0.019997 0.000000 0.000000 0.000000
# 4 0.000000 0.000000 0.000000 0.053814 0.000000 0.000000
# 5 0.000000 0.000000 0.000000 0.000000 0.038370 0.000000
# 6 0.000000 0.000000 0.000000 0.000000 0.000000 0.039211
#
#
# Mechanical properties :
#
#
# Convention : Reuss Voigt Hill
#
# Bulk Modulus (GPa) = 55.85833 64.53505 60.19669
# Shear Modulus (GPa) = 22.55335 23.85238 23.20287
#
# Velocity S-wave (km/s) = 3.36883 3.46449 3.41700
# Velocity P-wave (km/s) = 6.57574 6.96262 6.77195
#
# Compressibility (1/GPa) = 0.01790243
#
# Stress axis : x y z
#
# Youngs Moduli (GPa) = 55.88980 75.58818 50.00868
#
# Poissons Ratio (x) = 0.30716 0.19061
# Poissons Ratio (y) = 0.22712 0.43672
# Poissons Ratio (z) = 0.21303 0.66010
#
# Static dielectric constant tensor:
#      x y z
#    x 3.409300 0.000000 0.000000 
#    y 0.000000 3.912860 0.000000 
#    z 0.000000 0.000000 3.646050 
# 
# 
# High freq. dielectric constant tensor:
#      x y z
#    x 1.763970 0.000000 0.000000 
#    y 0.000000 1.784240 0.000000 
#    z 0.000000 0.000000 1.778100 
# 
# From -- ./inp_files/73572.got.cif
#   From: 2010.03.12/outbox.cif.g09.slc.cpg/sg65_37_cif.got.tgz:73572.got - 2010.04.10 20:52:16.
