data_PCOD8269145
_publ_section_title
;
Structure prediction by ZEFSAII (Michael W. Deem and Ramdas Pophale) SiO2 
 PCOD8269145
Probable space group: C M M M
;
_chemical_formula_sum "Si O2"
_cell_formula_units_Z 64
_cell_length_a 18.085565
_cell_length_b 9.991896
_cell_length_c 19.380696
_cell_angle_alpha 90.000000
_cell_angle_beta 90.000000
_cell_angle_gamma 90.000000
_cell_volume 3502.267833
_symmetry_space_group_name_H-M "C M M M"
_symmetry_group_IT_number 65
_symmetry_cell_setting 'orthorhombic'
loop_
_space_group_symop_operation_xyz
x,y,z
-x,-y,z
x,-y,-z
-x,y,-z
-x,-y,-z
x,y,-z
-x,y,z
x,-y,z
1/2+x,1/2+y,z
1/2-x,1/2-y,z
1/2+x,1/2-y,-z
1/2-x,1/2+y,-z
1/2-x,1/2-y,-z
1/2+x,1/2+y,-z
1/2-x,1/2+y,z
1/2+x,1/2-y,z
loop_
_atom_site_type_symbol
_atom_site_label
_atom_site_fract_x
_atom_site_fract_y
_atom_site_fract_z
Si Si1 0.912034 0.000000 0.920893
Si Si2 0.087701 0.744741 0.163644
Si Si3 0.417949 0.841743 0.576325
Si Si4 0.677245 0.161839 0.705323
Si Si5 0.912104 0.500000 0.075509
O O1 0.883323 0.124217 0.875790
O O2 0.000000 0.000000 0.926006
O O3 0.880690 0.000000 0.000000
O O4 0.121365 0.719054 0.238181
O O5 0.117073 0.628326 0.114838
O O6 0.000000 0.746233 0.172993
O O7 0.393358 0.791334 0.500000
O O8 0.500000 0.784535 0.593856
O O9 0.357997 0.795855 0.632153
O O10 0.423001 0.000000 0.577007
O O11 0.750000 0.250000 0.713620
O O12 0.690125 0.000000 0.711769
O O13 0.000000 0.500000 0.071033
O O14 0.876490 0.500000 0.000000
#
# Coordination Sequence:
#
# PCOD8269145 Si02
#       5
#     8  16  16  16   8
#     4   9  18  32  53  83 112 135 168 221 281 332
#     4  10  19  33  55  80 105 138 178 223 270 317
#     4   8  15  31  57  85 109 136 176 223 265 309
#     4  11  23  36  53  78 111 147 183 222 264 316
#     4   9  16  28  51  81 104 125 168 227 275 312
#
# _framework density 18.273872999999998
#
# number of rings (size 3 to 8) (size 9 to 14) (size 15 to 20)
#    0.000    2.500    1.250    2.250    1.750    4.500 
#    0.000    0.000    0.000    4.500    0.000    1.750 
#    0.000    0.000    0.000    0.000    0.000    0.000 
#
# Total GULP energy -396501.256297 kJ/mol
# GULP energy per Si atom -12390.664259 kJ/mol
# Density = 1.823228 g / cm^3
# Si number density = 18.273873 Si / 1000 Ang^3
#
#
#
# Elastic Constant Matrix: (Units=GPa)
#
#
# Indices 1 2 3 4 5 6 
#
# 1 52.7466 32.1991 42.5849 0.0000 0.0000 0.0000
# 2 32.1991 120.8089 59.5790 0.0000 0.0000 0.0000
# 3 42.5849 59.5790 153.1361 0.0000 0.0000 0.0000
# 4 0.0000 0.0000 0.0000 24.9508 0.0000 0.0000
# 5 0.0000 0.0000 0.0000 0.0000 2.6949 0.0000
# 6 0.0000 0.0000 0.0000 0.0000 0.0000 38.5302
#
#
#
# Elastic Compliance Matrix: (Units=1/GPa)
#
#
# Indices 1 2 3 4 5 6 
#
# 1 0.026040 -0.004169 -0.005619 0.000000 0.000000 0.000000
# 2 -0.004169 0.010910 -0.003085 0.000000 0.000000 0.000000
# 3 -0.005619 -0.003085 0.009293 0.000000 0.000000 0.000000
# 4 0.000000 0.000000 0.000000 0.040079 0.000000 0.000000
# 5 0.000000 0.000000 0.000000 0.000000 0.371078 0.000000
# 6 0.000000 0.000000 0.000000 0.000000 0.000000 0.025954
#
#
# Mechanical properties :
#
#
# Convention : Reuss Voigt Hill
#
# Bulk Modulus (GPa) = 48.78994 66.15751 57.47372
# Shear Modulus (GPa) = 9.69115 26.05707 17.87411
#
# Velocity S-wave (km/s) = 2.30538 3.78023 3.13089
# Velocity P-wave (km/s) = 5.81753 7.43878 6.67754
#
# Compressibility (1/GPa) = 0.02049603
#
# Stress axis : x y z
#
# Youngs Moduli (GPa) = 38.40174 91.65592 107.60542
#
# Poissons Ratio (x) = 0.38214 0.60468
# Poissons Ratio (y) = 0.16011 0.33200
# Poissons Ratio (z) = 0.21579 0.28279
#
# Static dielectric constant tensor:
#      x y z
#    x 3.080300 0.000000 0.000000 
#    y 0.000000 3.338680 0.000000 
#    z 0.000000 0.000000 3.803160 
# 
# 
# High freq. dielectric constant tensor:
#      x y z
#    x 1.674910 0.000000 0.000000 
#    y 0.000000 1.692290 0.000000 
#    z 0.000000 0.000000 1.730000 
# 
# From -- ./inp_files/55308.got.cif
#   From: 2010.03.12/outbox.cif.g09.slc.cpg/sg65_28_cif.got.tgz:55308.got - 2010.04.10 20:52:16.
