data_PCOD8269209
_publ_section_title
;
Structure prediction by ZEFSAII (Michael W. Deem and Ramdas Pophale) SiO2 
 PCOD8269209
Probable space group: C M M M
;
_chemical_formula_sum "Si O2"
_cell_formula_units_Z 104
_cell_length_a 19.333630
_cell_length_b 32.921023
_cell_length_c 9.088987
_cell_angle_alpha 90.000000
_cell_angle_beta 90.000000
_cell_angle_gamma 90.000000
_cell_volume 5784.984603
_symmetry_space_group_name_H-M "C M M M"
_symmetry_group_IT_number 65
_symmetry_cell_setting 'orthorhombic'
loop_
_space_group_symop_operation_xyz
x,y,z
-x,-y,z
x,-y,-z
-x,y,-z
-x,-y,-z
x,y,-z
-x,y,z
x,-y,z
1/2+x,1/2+y,z
1/2-x,1/2-y,z
1/2+x,1/2-y,-z
1/2-x,1/2+y,-z
1/2-x,1/2-y,-z
1/2+x,1/2+y,-z
1/2-x,1/2+y,z
1/2+x,1/2-y,z
loop_
_atom_site_type_symbol
_atom_site_label
_atom_site_fract_x
_atom_site_fract_y
_atom_site_fract_z
Si Si1 0.580183 0.185820 0.171262
Si Si2 0.129929 0.919665 0.827820
Si Si3 0.169785 0.377439 0.327850
Si Si4 0.170805 0.761922 0.832178
Si Si5 0.318958 0.343529 0.672050
Si Si6 0.721424 0.953798 0.828686
Si Si7 0.500000 0.452874 0.338097
O O1 0.500000 0.193288 0.205943
O O2 0.605223 0.146173 0.258475
O O3 0.622465 0.225341 0.224021
O O4 0.594031 0.177771 0.000000
O O5 0.134003 0.875002 0.759681
O O6 0.198528 0.945415 0.792281
O O7 0.067072 0.942205 0.753902
O O8 0.116484 0.915727 0.000000
O O9 0.157833 0.381733 0.500000
O O10 0.238747 0.351942 0.289690
O O11 0.173367 0.422823 0.261614
O O12 0.250000 0.750000 0.818624
O O13 0.157225 0.799442 0.724968
O O14 0.152322 0.773812 0.000000
O O15 0.333189 0.348078 0.500000
O O16 0.703740 0.000000 0.782099
O O17 0.706627 0.946665 0.000000
O O18 0.500000 0.500000 0.363800
O O19 0.500000 0.431619 0.500000
#
# Coordination Sequence:
#
# PCOD8269209 Si02
#       7
#    16  16  16  16  16  16   8
#     4  10  21  37  56  79 107 141 181 224 269 320
#     4  10  20  35  55  77 104 141 185 228 269 321
#     4  10  20  33  53  80 109 141 174 213 265 323
#     4  10  19  33  56  81 106 140 183 228 270 317
#     4  10  20  34  53  78 108 140 177 222 274 325
#     4   9  18  33  55  82 108 135 174 223 269 316
#     4  11  23  37  53  75 107 145 183 227 281 335
#
# _framework density 17.977575999999999
#
# number of rings (size 3 to 8) (size 9 to 14) (size 15 to 20)
#    0.000    2.077    1.538    2.077    0.000    4.615 
#    1.385    0.000    0.000    0.462    0.000    3.231 
#    0.000    0.000    0.000    0.000    0.000    0.000 
#
# Total GULP energy -644953.418662 kJ/mol
# GULP energy per Si atom -12402.950359 kJ/mol
# Density = 1.793666 g / cm^3
# Si number density = 17.977576 Si / 1000 Ang^3
#
#
#
# Elastic Constant Matrix: (Units=GPa)
#
#
# Indices 1 2 3 4 5 6 
#
# 1 82.4351 51.4732 38.8679 0.0000 0.0000 0.0000
# 2 51.4732 137.1935 59.9365 0.0000 0.0000 0.0000
# 3 38.8679 59.9365 85.9591 0.0000 0.0000 0.0000
# 4 0.0000 0.0000 0.0000 28.3289 0.0000 0.0000
# 5 0.0000 0.0000 0.0000 0.0000 24.7213 0.0000
# 6 0.0000 0.0000 0.0000 0.0000 0.0000 8.8395
#
#
#
# Elastic Compliance Matrix: (Units=1/GPa)
#
#
# Indices 1 2 3 4 5 6 
#
# 1 0.017055 -0.004357 -0.004674 0.000000 0.000000 0.000000
# 2 -0.004357 0.011595 -0.006115 0.000000 0.000000 0.000000
# 3 -0.004674 -0.006115 0.018010 0.000000 0.000000 0.000000
# 4 0.000000 0.000000 0.000000 0.035300 0.000000 0.000000
# 5 0.000000 0.000000 0.000000 0.000000 0.040451 0.000000
# 6 0.000000 0.000000 0.000000 0.000000 0.000000 0.113129
#
#
# Mechanical properties :
#
#
# Convention : Reuss Voigt Hill
#
# Bulk Modulus (GPa) = 61.08940 67.34921 64.21930
# Shear Modulus (GPa) = 18.43064 22.73193 20.58128
#
# Velocity S-wave (km/s) = 3.20535 3.55978 3.38721
# Velocity P-wave (km/s) = 6.91040 7.37837 7.14822
#
# Compressibility (1/GPa) = 0.01636945
#
# Stress axis : x y z
#
# Youngs Moduli (GPa) = 58.63421 86.24368 55.52354
#
# Poissons Ratio (x) = 0.37576 0.25950
# Poissons Ratio (y) = 0.25547 0.33952
# Poissons Ratio (z) = 0.27404 0.52736
#
# Static dielectric constant tensor:
#      x y z
#    x 3.414720 0.000000 0.000000 
#    y 0.000000 3.494610 0.000000 
#    z 0.000000 0.000000 3.361470 
# 
# 
# High freq. dielectric constant tensor:
#      x y z
#    x 1.672210 0.000000 0.000000 
#    y 0.000000 1.701240 0.000000 
#    z 0.000000 0.000000 1.702480 
# 
# From -- ./inp_files/12751.got.cif
#   From: 2010.03.12/outbox.cif.g09.slc.cpg/sg65_7_cif.got.tgz:12751.got - 2010.04.10 20:52:16.
