data_PCOD8269546
_publ_section_title
;
Structure prediction by ZEFSAII (Michael W. Deem and Ramdas Pophale) SiO2 
 PCOD8269546
Probable space group: C M M M
;
_chemical_formula_sum "Si O2"
_cell_formula_units_Z 88
_cell_length_a 8.896592
_cell_length_b 31.564695
_cell_length_c 16.719289
_cell_angle_alpha 90.000000
_cell_angle_beta 90.000000
_cell_angle_gamma 90.000000
_cell_volume 4695.080860
_symmetry_space_group_name_H-M "C M M M"
_symmetry_group_IT_number 65
_symmetry_cell_setting 'orthorhombic'
loop_
_space_group_symop_operation_xyz
x,y,z
-x,-y,z
x,-y,-z
-x,y,-z
-x,-y,-z
x,y,-z
-x,y,z
x,-y,z
1/2+x,1/2+y,z
1/2-x,1/2-y,z
1/2+x,1/2-y,-z
1/2-x,1/2+y,-z
1/2-x,1/2-y,-z
1/2+x,1/2+y,-z
1/2-x,1/2+y,z
1/2+x,1/2-y,z
loop_
_atom_site_type_symbol
_atom_site_label
_atom_site_fract_x
_atom_site_fract_y
_atom_site_fract_z
Si Si1 0.673189 0.206398 0.905456
Si Si2 0.667785 0.061927 0.411186
Si Si3 0.324155 0.545836 0.249693
Si Si4 0.669482 0.157006 0.637661
Si Si5 0.323327 0.294390 0.500000
Si Si6 0.179346 0.136927 0.199810
O O1 0.500000 0.206895 0.878080
O O2 0.750000 0.250000 0.873781
O O3 0.753229 0.163718 0.873401
O O4 0.689236 0.203895 0.000000
O O5 0.731337 0.050189 0.500000
O O6 0.500000 0.043402 0.402281
O O7 0.767446 0.042973 0.340708
O O8 0.662646 0.111893 0.403435
O O9 0.500000 0.551468 0.256275
O O10 0.282746 0.500000 0.208694
O O11 0.264898 0.586965 0.199656
O O12 0.500000 0.174892 0.648843
O O13 0.769268 0.184817 0.580872
O O14 0.755676 0.158137 0.721198
O O15 0.500000 0.292331 0.500000
O O16 0.250000 0.250000 0.500000
O O17 0.000000 0.139899 0.196972
#
# Coordination Sequence:
#
# PCOD8269546 Si02
#       6
#    16  16  16  16   8  16
#     4  10  21  38  61  89 118 145 174 214 267 327
#     4   9  17  30  48  69  95 130 173 222 275 324
#     4   9  19  34  50  73 106 143 184 228 272 320
#     4  10  19  35  53  71  99 136 178 223 271 321
#     4  12  24  36  50  70  97 132 177 226 276 325
#     4  10  20  35  57  84 111 145 185 224 272 324
#
# _framework density 18.743020999999999
#
# number of rings (size 3 to 8) (size 9 to 14) (size 15 to 20)
#    0.000    2.182    0.909    2.455    0.000    4.364 
#    0.000    5.455    0.000    0.545    0.000    3.818 
#    0.000    0.000    0.000    0.000    0.000    0.000 
#
# Total GULP energy -545176.989711 kJ/mol
# GULP energy per Si atom -12390.386130 kJ/mol
# Density = 1.870036 g / cm^3
# Si number density = 18.743021 Si / 1000 Ang^3
#
#
#
# Elastic Constant Matrix: (Units=GPa)
#
#
# Indices 1 2 3 4 5 6 
#
# 1 100.9726 59.6247 29.0668 0.0000 0.0000 0.0000
# 2 59.6247 122.6872 39.8609 0.0000 0.0000 0.0000
# 3 29.0668 39.8609 46.4250 0.0000 0.0000 0.0000
# 4 0.0000 0.0000 0.0000 64.9377 0.0000 0.0000
# 5 0.0000 0.0000 0.0000 0.0000 31.0855 0.0000
# 6 0.0000 0.0000 0.0000 0.0000 0.0000 16.4281
#
#
#
# Elastic Compliance Matrix: (Units=1/GPa)
#
#
# Indices 1 2 3 4 5 6 
#
# 1 0.014453 -0.005664 -0.004186 0.000000 0.000000 0.000000
# 2 -0.005664 0.013524 -0.008065 0.000000 0.000000 0.000000
# 3 -0.004186 -0.008065 0.031086 0.000000 0.000000 0.000000
# 4 0.000000 0.000000 0.000000 0.015399 0.000000 0.000000
# 5 0.000000 0.000000 0.000000 0.000000 0.032169 0.000000
# 6 0.000000 0.000000 0.000000 0.000000 0.000000 0.060871
#
#
# Mechanical properties :
#
#
# Convention : Reuss Voigt Hill
#
# Bulk Modulus (GPa) = 43.04375 58.57662 50.81019
# Shear Modulus (GPa) = 23.68783 31.92576 27.80680
#
# Velocity S-wave (km/s) = 3.55888 4.13163 3.85591
# Velocity P-wave (km/s) = 6.31685 7.35397 6.85505
#
# Compressibility (1/GPa) = 0.02323218
#
# Stress axis : x y z
#
# Youngs Moduli (GPa) = 69.18788 73.94263 32.16881
#
# Poissons Ratio (x) = 0.41882 0.13466
# Poissons Ratio (y) = 0.39189 0.25946
# Poissons Ratio (z) = 0.28962 0.59638
#
# Static dielectric constant tensor:
#      x y z
#    x 3.435360 0.000000 0.000000 
#    y 0.000000 3.810910 0.000000 
#    z 0.000000 0.000000 3.219020 
# 
# 
# High freq. dielectric constant tensor:
#      x y z
#    x 1.733860 0.000000 0.000000 
#    y 0.000000 1.741090 0.000000 
#    z 0.000000 0.000000 1.699210 
# 
# From -- ./inp_files/50320.got.cif
#   From: 2010.03.12/outbox.cif.g09.slc.cpg/sg65_26_cif.got.tgz:50320.got - 2010.04.10 20:52:16.
