data_PCOD8269123
_publ_section_title
;
Structure prediction by ZEFSAII (Michael W. Deem and Ramdas Pophale) SiO2 
 PCOD8269123
Probable space group: C M M M
;
_chemical_formula_sum "Si O2"
_cell_formula_units_Z 80
_cell_length_a 8.725305
_cell_length_b 18.374822
_cell_length_c 25.675368
_cell_angle_alpha 90.000000
_cell_angle_beta 90.000000
_cell_angle_gamma 90.000000
_cell_volume 4116.427157
_symmetry_space_group_name_H-M "C M M M"
_symmetry_group_IT_number 65
_symmetry_cell_setting 'orthorhombic'
loop_
_space_group_symop_operation_xyz
x,y,z
-x,-y,z
x,-y,-z
-x,y,-z
-x,-y,-z
x,y,-z
-x,y,z
x,-y,z
1/2+x,1/2+y,z
1/2-x,1/2-y,z
1/2+x,1/2-y,-z
1/2-x,1/2+y,-z
1/2-x,1/2-y,-z
1/2+x,1/2+y,-z
1/2-x,1/2+y,z
1/2+x,1/2-y,z
loop_
_atom_site_type_symbol
_atom_site_label
_atom_site_fract_x
_atom_site_fract_y
_atom_site_fract_z
Si Si1 0.182071 0.828610 0.098127
Si Si2 0.679250 0.172505 0.205690
Si Si3 0.682248 0.580857 0.000000
Si Si4 0.682468 0.582158 0.500000
Si Si5 0.819714 0.170361 0.400440
Si Si6 0.822275 0.584031 0.307557
O O1 0.250000 0.750000 0.086749
O O2 0.244263 0.858600 0.153136
O O3 0.000000 0.824544 0.100051
O O4 0.242490 0.879952 0.051980
O O5 0.500000 0.183979 0.196095
O O6 0.750000 0.250000 0.221968
O O7 0.713354 0.113966 0.250236
O O8 0.750528 0.500000 0.000000
O O9 0.500000 0.580071 0.000000
O O10 0.748834 0.500000 0.500000
O O11 0.500000 0.579575 0.500000
O O12 0.744563 0.624203 0.550784
O O13 0.750000 0.250000 0.401013
O O14 0.778566 0.128699 0.347926
O O15 0.000000 0.178864 0.404203
O O16 0.773300 0.500000 0.309401
O O17 0.000000 0.594516 0.321791
#
# Coordination Sequence:
#
# PCOD8269123 Si02
#       6
#    16  16   8   8  16  16
#     4  10  19  33  55  78 103 136 174 217 261 311
#     4  10  20  35  55  78 106 139 176 219 266 316
#     4   9  19  34  51  75 106 137 170 212 262 311
#     4   9  19  36  57  83 114 145 180 225 274 322
#     4  11  22  37  59  84 112 147 186 227 270 320
#     4  10  22  39  57  80 112 146 180 224 276 325
#
# _framework density 19.434329999999999
#
# number of rings (size 3 to 8) (size 9 to 14) (size 15 to 20)
#    0.000    2.000    0.000    4.800    0.000    5.200 
#    0.000    3.000    0.000    7.800    0.000    0.000 
#    0.000    0.000    0.000    0.000    0.000    0.000 
#
# Total GULP energy -496107.065819 kJ/mol
# GULP energy per Si atom -12402.676645 kJ/mol
# Density = 1.939010 g / cm^3
# Si number density = 19.434330 Si / 1000 Ang^3
#
#
#
# Elastic Constant Matrix: (Units=GPa)
#
#
# Indices 1 2 3 4 5 6 
#
# 1 71.4552 41.3534 46.1350 0.0000 0.0000 0.0000
# 2 41.3534 156.8614 93.1667 0.0000 0.0000 0.0000
# 3 46.1350 93.1667 151.7758 0.0000 0.0000 0.0000
# 4 0.0000 0.0000 0.0000 31.7629 0.0000 0.0000
# 5 0.0000 0.0000 0.0000 0.0000 3.7821 0.0000
# 6 0.0000 0.0000 0.0000 0.0000 0.0000 9.5140
#
#
#
# Elastic Compliance Matrix: (Units=1/GPa)
#
#
# Indices 1 2 3 4 5 6 
#
# 1 0.017945 -0.002347 -0.004014 0.000000 0.000000 0.000000
# 2 -0.002347 0.010340 -0.005634 0.000000 0.000000 0.000000
# 3 -0.004014 -0.005634 0.011267 0.000000 0.000000 0.000000
# 4 0.000000 0.000000 0.000000 0.031483 0.000000 0.000000
# 5 0.000000 0.000000 0.000000 0.000000 0.264401 0.000000
# 6 0.000000 0.000000 0.000000 0.000000 0.000000 0.105109
#
#
# Mechanical properties :
#
#
# Convention : Reuss Voigt Hill
#
# Bulk Modulus (GPa) = 64.25693 82.37809 73.31751
# Shear Modulus (GPa) = 10.64464 22.30762 16.47613
#
# Velocity S-wave (km/s) = 2.34289 3.39166 2.91483
# Velocity P-wave (km/s) = 6.36036 7.60380 7.00971
#
# Compressibility (1/GPa) = 0.01556252
#
# Stress axis : x y z
#
# Youngs Moduli (GPa) = 55.72723 96.71361 88.75402
#
# Poissons Ratio (x) = 0.22694 0.35627
# Poissons Ratio (y) = 0.13077 0.50002
# Poissons Ratio (z) = 0.22370 0.54486
#
# Static dielectric constant tensor:
#      x y z
#    x 3.415790 0.000000 0.000000 
#    y 0.000000 3.647520 0.000000 
#    z 0.000000 0.000000 3.802750 
# 
# 
# High freq. dielectric constant tensor:
#      x y z
#    x 1.745310 0.000000 0.000000 
#    y 0.000000 1.761020 0.000000 
#    z 0.000000 0.000000 1.773890 
# 
# From -- ./inp_files/72920.got.cif
#   From: 2010.03.12/outbox.cif.g09.slc.cpg/sg65_37_cif.got.tgz:72920.got - 2010.04.10 20:52:16.
