data_PCOD8269556
_publ_section_title
;
Structure prediction by ZEFSAII (Michael W. Deem and Ramdas Pophale) SiO2 
 PCOD8269556
Probable space group: C M M M
;
_chemical_formula_sum "Si O2"
_cell_formula_units_Z 72
_cell_length_a 17.721837
_cell_length_b 15.973980
_cell_length_c 13.707947
_cell_angle_alpha 90.000000
_cell_angle_beta 90.000000
_cell_angle_gamma 90.000000
_cell_volume 3880.558999
_symmetry_space_group_name_H-M "C M M M"
_symmetry_group_IT_number 65
_symmetry_cell_setting 'orthorhombic'
loop_
_space_group_symop_operation_xyz
x,y,z
-x,-y,z
x,-y,-z
-x,y,-z
-x,-y,-z
x,y,-z
-x,y,z
x,-y,z
1/2+x,1/2+y,z
1/2-x,1/2-y,z
1/2+x,1/2-y,-z
1/2-x,1/2+y,-z
1/2-x,1/2-y,-z
1/2+x,1/2+y,-z
1/2-x,1/2+y,z
1/2+x,1/2-y,z
loop_
_atom_site_type_symbol
_atom_site_label
_atom_site_fract_x
_atom_site_fract_y
_atom_site_fract_z
Si Si1 0.088200 0.000000 0.389772
Si Si2 0.586265 0.188401 0.387695
Si Si3 0.161754 0.739821 0.893106
Si Si4 0.177906 0.596501 0.754556
Si Si5 0.343107 0.341983 0.288780
O O1 0.110788 0.920803 0.325850
O O2 0.124451 0.000000 0.500000
O O3 0.000000 0.000000 0.403420
O O4 0.593646 0.166145 0.500000
O O5 0.500000 0.209825 0.359300
O O6 0.614956 0.106636 0.329430
O O7 0.640387 0.266498 0.362935
O O8 0.250000 0.750000 0.906187
O O9 0.147890 0.647186 0.848923
O O10 0.130266 0.811759 0.819717
O O11 0.122496 0.747500 0.000000
O O12 0.189386 0.500000 0.782828
O O13 0.254832 0.636763 0.713270
#
# Coordination Sequence:
#
# PCOD8269556 Si02
#       5
#     8  16  16  16  16
#     4  11  22  34  53  81 112 148 185 220 267 327
#     4  10  21  36  53  73 102 144 187 222 264 320
#     4   8  16  32  55  79 104 137 176 219 267 317
#     4  10  20  34  53  81 111 137 173 224 273 322
#     4  10  19  35  55  78 109 139 178 228 268 317
#
# _framework density 18.554027999999999
#
# number of rings (size 3 to 8) (size 9 to 14) (size 15 to 20)
#    0.000    2.333    1.111    3.333    0.000    5.778 
#    0.000    1.667    0.000   17.333    0.000    6.222 
#    0.000    0.000    0.000    0.000    0.000    0.000 
#
# Total GULP energy -446159.790318 kJ/mol
# GULP energy per Si atom -12393.327509 kJ/mol
# Density = 1.851180 g / cm^3
# Si number density = 18.554028 Si / 1000 Ang^3
#
#
#
# Elastic Constant Matrix: (Units=GPa)
#
#
# Indices 1 2 3 4 5 6 
#
# 1 41.9694 29.6019 49.4950 0.0000 0.0000 0.0000
# 2 29.6019 118.0897 59.5258 0.0000 0.0000 0.0000
# 3 49.4950 59.5258 149.2265 0.0000 0.0000 0.0000
# 4 0.0000 0.0000 0.0000 11.5490 0.0000 0.0000
# 5 0.0000 0.0000 0.0000 0.0000 9.3954 0.0000
# 6 0.0000 0.0000 0.0000 0.0000 0.0000 -26.3187
#
#
#
# Elastic Compliance Matrix: (Units=1/GPa)
#
#
# Indices 1 2 3 4 5 6 
#
# 1 0.040778 -0.004261 -0.011825 0.000000 0.000000 0.000000
# 2 -0.004261 0.011045 -0.002992 0.000000 0.000000 0.000000
# 3 -0.011825 -0.002992 0.011817 0.000000 0.000000 0.000000
# 4 0.000000 0.000000 0.000000 0.086588 0.000000 0.000000
# 5 0.000000 0.000000 0.000000 0.000000 0.106435 0.000000
# 6 0.000000 0.000000 0.000000 0.000000 0.000000 -0.037996
#
#
# Mechanical properties :
#
#
# Convention : Reuss Voigt Hill
#
# Bulk Modulus (GPa) = 39.24316 65.17012 52.20664
# Shear Modulus (GPa) = 18.84526 10.30267 14.57396
#
# Velocity S-wave (km/s) = 3.19046 2.35899 2.80570
# Velocity P-wave (km/s) = 5.89650 6.52844 6.22050
#
# Compressibility (1/GPa) = 0.02548215
#
# Stress axis : x y z
#
# Youngs Moduli (GPa) = 24.52286 90.54165 84.62311
#
# Poissons Ratio (x) = 0.38581 1.00071
# Poissons Ratio (y) = 0.10449 0.25322
# Poissons Ratio (z) = 0.28999 0.27093
#
# Static dielectric constant tensor:
#      x y z
#    x 3.325360 0.000000 0.000000 
#    y 0.000000 3.459460 0.000000 
#    z 0.000000 0.000000 3.831480 
# 
# 
# High freq. dielectric constant tensor:
#      x y z
#    x 1.700280 0.000000 0.000000 
#    y 0.000000 1.716850 0.000000 
#    z 0.000000 0.000000 1.721920 
# 
# From -- ./inp_files/42149.got.cif
#   From: 2010.03.12/outbox.cif.g09.slc.cpg/sg65_22_cif.got.tgz:42149.got - 2010.04.10 20:52:16.
