data_PCOD8269580
_publ_section_title
;
Structure prediction by ZEFSAII (Michael W. Deem and Ramdas Pophale) SiO2 
 PCOD8269580
Probable space group: C M M M
;
_chemical_formula_sum "Si O2"
_cell_formula_units_Z 88
_cell_length_a 8.779258
_cell_length_b 15.663058
_cell_length_c 32.003466
_cell_angle_alpha 90.000000
_cell_angle_beta 90.000000
_cell_angle_gamma 90.000000
_cell_volume 4400.797482
_symmetry_space_group_name_H-M "C M M M"
_symmetry_group_IT_number 65
_symmetry_cell_setting 'orthorhombic'
loop_
_space_group_symop_operation_xyz
x,y,z
-x,-y,z
x,-y,-z
-x,y,-z
-x,-y,-z
x,y,-z
-x,y,z
x,-y,z
1/2+x,1/2+y,z
1/2-x,1/2-y,z
1/2+x,1/2-y,-z
1/2-x,1/2+y,-z
1/2-x,1/2-y,-z
1/2+x,1/2+y,-z
1/2-x,1/2+y,z
1/2+x,1/2-y,z
loop_
_atom_site_type_symbol
_atom_site_label
_atom_site_fract_x
_atom_site_fract_y
_atom_site_fract_z
Si Si1 0.180769 0.344364 0.628634
Si Si2 0.678227 0.661236 0.076948
Si Si3 0.820105 0.500000 0.315361
Si Si4 0.160704 0.593332 0.000000
Si Si5 0.819270 0.841955 0.171401
Si Si6 0.821690 0.842319 0.545148
Si Si7 0.818963 0.500000 0.780071
O O1 0.250000 0.250000 0.637199
O O2 0.239380 0.412440 0.663083
O O3 0.236924 0.385570 0.584405
O O4 0.000000 0.335403 0.628560
O O5 0.500000 0.667786 0.073845
O O6 0.750000 0.750000 0.064502
O O7 0.725782 0.633779 0.123792
O O8 0.739589 0.599086 0.041803
O O9 0.764871 0.500000 0.267787
O O10 0.000000 0.500000 0.318757
O O11 0.098027 0.500000 0.000000
O O12 0.000000 0.648601 0.000000
O O13 0.750000 0.750000 0.183749
O O14 0.748049 0.914644 0.199937
O O15 0.000000 0.838415 0.177771
O O16 0.796994 0.889758 0.500000
O O17 0.750000 0.750000 0.541041
O O18 0.000000 0.835373 0.555431
O O19 0.000000 0.500000 0.784978
#
# Coordination Sequence:
#
# PCOD8269580 Si02
#       7
#    16  16   8   8  16  16   8
#     4  10  19  35  57  80 110 147 188 232 278 333
#     4  10  21  38  60  82 112 150 188 232 280 333
#     4   9  22  41  58  82 114 149 188 230 284 348
#     4  11  24  37  52  81 117 153 194 233 272 329
#     4  10  22  41  64  93 122 154 197 243 294 354
#     4   9  16  27  46  75 109 144 184 228 275 328
#     4  11  23  41  65  89 119 155 190 242 303 356
#
# _framework density 19.996373999999999
#
# number of rings (size 3 to 8) (size 9 to 14) (size 15 to 20)
#    0.000    2.091    0.000    4.091    1.273    4.727 
#    0.000    7.727    0.000    2.727    0.000    0.000 
#    0.000    0.000    0.000    0.000    0.000    0.000 
#
# Total GULP energy -545133.572341 kJ/mol
# GULP energy per Si atom -12389.399371 kJ/mol
# Density = 1.995086 g / cm^3
# Si number density = 19.996374 Si / 1000 Ang^3
#
#
#
# Elastic Constant Matrix: (Units=GPa)
#
#
# Indices 1 2 3 4 5 6 
#
# 1 87.5846 46.8773 50.0892 0.0000 0.0000 0.0000
# 2 46.8773 117.1945 85.7426 0.0000 0.0000 0.0000
# 3 50.0892 85.7426 163.4847 0.0000 0.0000 0.0000
# 4 0.0000 0.0000 0.0000 29.0782 0.0000 0.0000
# 5 0.0000 0.0000 0.0000 0.0000 34.3283 0.0000
# 6 0.0000 0.0000 0.0000 0.0000 0.0000 25.8623
#
#
#
# Elastic Compliance Matrix: (Units=1/GPa)
#
#
# Indices 1 2 3 4 5 6 
#
# 1 0.015070 -0.004300 -0.002362 0.000000 0.000000 0.000000
# 2 -0.004300 0.015072 -0.006588 0.000000 0.000000 0.000000
# 3 -0.002362 -0.006588 0.010295 0.000000 0.000000 0.000000
# 4 0.000000 0.000000 0.000000 0.034390 0.000000 0.000000
# 5 0.000000 0.000000 0.000000 0.000000 0.029130 0.000000
# 6 0.000000 0.000000 0.000000 0.000000 0.000000 0.038666
#
#
# Mechanical properties :
#
#
# Convention : Reuss Voigt Hill
#
# Bulk Modulus (GPa) = 71.74223 81.52023 76.63123
# Shear Modulus (GPa) = 28.77378 30.22408 29.49893
#
# Velocity S-wave (km/s) = 3.79746 3.89199 3.84502
# Velocity P-wave (km/s) = 7.42854 7.81363 7.62351
#
# Compressibility (1/GPa) = 0.01393879
#
# Stress axis : x y z
#
# Youngs Moduli (GPa) = 66.35852 66.34670 97.12984
#
# Poissons Ratio (x) = 0.28527 0.22943
# Poissons Ratio (y) = 0.28532 0.63986
# Poissons Ratio (z) = 0.15674 0.43707
#
# Static dielectric constant tensor:
#      x y z
#    x 3.677360 0.000000 0.000000 
#    y 0.000000 3.480940 0.000000 
#    z 0.000000 0.000000 4.198180 
# 
# 
# High freq. dielectric constant tensor:
#      x y z
#    x 1.790960 0.000000 0.000000 
#    y 0.000000 1.763630 0.000000 
#    z 0.000000 0.000000 1.789630 
# 
# From -- ./inp_files/76715.got.cif
#   From: 2010.03.12/outbox.cif.g09.slc.cpg/sg65_39_cif.got.tgz:76715.got - 2010.04.10 20:52:16.
