data_PCOD8269043
_publ_section_title
;
Structure prediction by ZEFSAII (Michael W. Deem and Ramdas Pophale) SiO2 
 PCOD8269043
Probable space group: C M M M
;
_chemical_formula_sum "Si O2"
_cell_formula_units_Z 104
_cell_length_a 18.465223
_cell_length_b 18.127090
_cell_length_c 17.212905
_cell_angle_alpha 90.000000
_cell_angle_beta 90.000000
_cell_angle_gamma 90.000000
_cell_volume 5761.516629
_symmetry_space_group_name_H-M "C M M M"
_symmetry_group_IT_number 65
_symmetry_cell_setting 'orthorhombic'
loop_
_space_group_symop_operation_xyz
x,y,z
-x,-y,z
x,-y,-z
-x,y,-z
-x,-y,-z
x,y,-z
-x,y,z
x,-y,z
1/2+x,1/2+y,z
1/2-x,1/2-y,z
1/2+x,1/2-y,-z
1/2-x,1/2+y,-z
1/2-x,1/2-y,-z
1/2+x,1/2+y,-z
1/2-x,1/2+y,z
1/2+x,1/2-y,z
loop_
_atom_site_type_symbol
_atom_site_label
_atom_site_fract_x
_atom_site_fract_y
_atom_site_fract_z
Si Si1 0.669404 0.715524 0.228954
Si Si2 0.585089 0.233443 0.911587
Si Si3 0.166271 0.084844 0.655771
Si Si4 0.416321 0.587296 0.500000
Si Si5 0.819446 0.582863 0.584967
Si Si6 0.917184 0.340460 0.305547
Si Si7 0.083654 0.580000 0.850358
O O1 0.750000 0.750000 0.224683
O O2 0.633362 0.713490 0.142854
O O3 0.659509 0.634457 0.266609
O O4 0.621904 0.765767 0.284020
O O5 0.500000 0.238241 0.887597
O O6 0.613763 0.148750 0.900825
O O7 0.596911 0.258401 0.000000
O O8 0.121850 0.115265 0.580138
O O9 0.250930 0.090085 0.639839
O O10 0.143128 0.000000 0.674429
O O11 0.407976 0.500000 0.500000
O O12 0.500000 0.612910 0.500000
O O13 0.796392 0.610655 0.500000
O O14 0.848291 0.500000 0.582032
O O15 0.885508 0.632168 0.613606
O O16 0.904407 0.403034 0.240387
O O17 0.000000 0.321151 0.317635
O O18 0.120958 0.500000 0.869439
O O19 0.000000 0.572176 0.870461
#
# Coordination Sequence:
#
# PCOD8269043 Si02
#       7
#    16  16  16   8  16  16  16
#     4  11  21  36  57  81 106 142 184 221 268 330
#     4   9  19  35  54  78 110 143 174 218 274 326
#     4  10  20  37  58  80 108 142 184 231 280 329
#     4   9  18  34  57  82 107 139 185 242 291 319
#     4  10  19  33  54  77 107 149 187 220 267 329
#     4  10  20  34  50  75 111 146 184 227 268 315
#     4   8  14  26  47  74 104 140 179 217 256 303
#
# _framework density 18.050802999999998
#
# number of rings (size 3 to 8) (size 9 to 14) (size 15 to 20)
#    0.000    2.385    2.308    1.846    0.000    3.077 
#    1.385    3.462    0.000    0.462    0.000    1.077 
#    0.000    0.000    0.000    0.000    0.000    0.000 
#
# Total GULP energy -644331.999337 kJ/mol
# GULP energy per Si atom -12390.999987 kJ/mol
# Density = 1.800972 g / cm^3
# Si number density = 18.050803 Si / 1000 Ang^3
#
#
#
# Elastic Constant Matrix: (Units=GPa)
#
#
# Indices 1 2 3 4 5 6 
#
# 1 84.9300 41.3328 30.5958 0.0000 0.0000 0.0000
# 2 41.3328 76.1263 64.6542 0.0000 0.0000 0.0000
# 3 30.5958 64.6542 88.5589 0.0000 0.0000 0.0000
# 4 0.0000 0.0000 0.0000 21.3548 0.0000 0.0000
# 5 0.0000 0.0000 0.0000 0.0000 30.3618 0.0000
# 6 0.0000 0.0000 0.0000 0.0000 0.0000 20.4273
#
#
#
# Elastic Compliance Matrix: (Units=1/GPa)
#
#
# Indices 1 2 3 4 5 6 
#
# 1 0.016159 -0.010612 0.002165 0.000000 0.000000 0.000000
# 2 -0.010612 0.041543 -0.026663 0.000000 0.000000 0.000000
# 3 0.002165 -0.026663 0.030010 0.000000 0.000000 0.000000
# 4 0.000000 0.000000 0.000000 0.046828 0.000000 0.000000
# 5 0.000000 0.000000 0.000000 0.000000 0.032936 0.000000
# 6 0.000000 0.000000 0.000000 0.000000 0.000000 0.048954
#
#
# Mechanical properties :
#
#
# Convention : Reuss Voigt Hill
#
# Bulk Modulus (GPa) = 57.17100 58.08676 57.62888
# Shear Modulus (GPa) = 17.09517 21.96427 19.52972
#
# Velocity S-wave (km/s) = 3.08077 3.49205 3.29284
# Velocity P-wave (km/s) = 6.66302 6.96482 6.81559
#
# Compressibility (1/GPa) = 0.01749138
#
# Stress axis : x y z
#
# Youngs Moduli (GPa) = 61.88427 24.07159 33.32273
#
# Poissons Ratio (x) = 0.25546 -0.07215
# Poissons Ratio (y) = 0.65674 0.88847
# Poissons Ratio (z) = -0.13398 0.64181
#
# Static dielectric constant tensor:
#      x y z
#    x 3.288390 0.000000 0.000000 
#    y 0.000000 3.310230 0.000000 
#    z 0.000000 0.000000 3.341270 
# 
# 
# High freq. dielectric constant tensor:
#      x y z
#    x 1.686430 0.000000 0.000000 
#    y 0.000000 1.680180 0.000000 
#    z 0.000000 0.000000 1.690380 
# 
# From -- ./inp_files/54617.got.cif
#   From: 2010.03.12/outbox.cif.g09.slc.cpg/sg65_28_cif.got.tgz:54617.got - 2010.04.10 20:52:16.
