data_PCOD8269124
_publ_section_title
;
Structure prediction by ZEFSAII (Michael W. Deem and Ramdas Pophale) SiO2 
 PCOD8269124
Probable space group: C M M M
;
_chemical_formula_sum "Si O2"
_cell_formula_units_Z 64
_cell_length_a 8.730590
_cell_length_b 18.525920
_cell_length_c 20.460662
_cell_angle_alpha 90.000000
_cell_angle_beta 90.000000
_cell_angle_gamma 90.000000
_cell_volume 3309.352729
_symmetry_space_group_name_H-M "C M M M"
_symmetry_group_IT_number 65
_symmetry_cell_setting 'orthorhombic'
loop_
_space_group_symop_operation_xyz
x,y,z
-x,-y,z
x,-y,-z
-x,y,-z
-x,-y,-z
x,y,-z
-x,y,z
x,-y,z
1/2+x,1/2+y,z
1/2-x,1/2-y,z
1/2+x,1/2-y,-z
1/2-x,1/2+y,-z
1/2-x,1/2-y,-z
1/2+x,1/2+y,-z
1/2-x,1/2+y,z
1/2+x,1/2-y,z
loop_
_atom_site_type_symbol
_atom_site_label
_atom_site_fract_x
_atom_site_fract_y
_atom_site_fract_z
Si Si1 0.320881 0.328884 0.000000
Si Si2 0.322001 0.916833 0.115984
Si Si3 0.318012 0.672251 0.621929
Si Si4 0.317923 0.419722 0.500000
Si Si5 0.679228 0.826628 0.242528
O O1 0.250000 0.250000 0.000000
O O2 0.274195 0.372722 0.936138
O O3 0.500000 0.318144 0.000000
O O4 0.500000 0.908818 0.098119
O O5 0.286578 0.885512 0.187360
O O6 0.270419 0.000000 0.114689
O O7 0.500000 0.676773 0.624437
O O8 0.250000 0.750000 0.606135
O O9 0.258339 0.619641 0.565113
O O10 0.255735 0.643574 0.691238
O O11 0.249324 0.500000 0.500000
O O12 0.500000 0.420998 0.500000
O O13 0.500000 0.815157 0.254370
O O14 0.750000 0.750000 0.221272
#
# Coordination Sequence:
#
# PCOD8269124 Si02
#       5
#     8  16  16   8  16
#     4  12  25  40  61  87 113 145 187 232 273 320
#     4  10  22  40  60  83 115 151 182 221 276 330
#     4  10  19  33  55  78 104 139 178 223 269 317
#     4   9  19  34  51  75 106 139 176 218 268 323
#     4  10  20  35  56  81 109 142 182 224 267 320
#
# _framework density 19.339127999999999
#
# number of rings (size 3 to 8) (size 9 to 14) (size 15 to 20)
#    0.000    1.875    0.000    5.625    0.000    7.000 
#    0.000    1.875    0.000    5.250    0.000    0.000 
#    0.000    0.000    0.000    0.000    0.000    0.000 
#
# Total GULP energy -396892.753665 kJ/mol
# GULP energy per Si atom -12402.898552 kJ/mol
# Density = 1.929511 g / cm^3
# Si number density = 19.339128 Si / 1000 Ang^3
#
#
#
# Elastic Constant Matrix: (Units=GPa)
#
#
# Indices 1 2 3 4 5 6 
#
# 1 104.8146 61.0379 66.4680 0.0000 0.0000 0.0000
# 2 61.0379 156.4876 101.4940 0.0000 0.0000 0.0000
# 3 66.4680 101.4940 153.4993 0.0000 0.0000 0.0000
# 4 0.0000 0.0000 0.0000 0.4167 0.0000 0.0000
# 5 0.0000 0.0000 0.0000 0.0000 24.4023 0.0000
# 6 0.0000 0.0000 0.0000 0.0000 0.0000 23.9148
#
#
#
# Elastic Compliance Matrix: (Units=1/GPa)
#
#
# Indices 1 2 3 4 5 6 
#
# 1 0.013743 -0.002628 -0.004214 0.000000 0.000000 0.000000
# 2 -0.002628 0.011691 -0.006592 0.000000 0.000000 0.000000
# 3 -0.004214 -0.006592 0.012698 0.000000 0.000000 0.000000
# 4 0.000000 0.000000 0.000000 2.399660 0.000000 0.000000
# 5 0.000000 0.000000 0.000000 0.000000 0.040980 0.000000
# 6 0.000000 0.000000 0.000000 0.000000 0.000000 0.041815
#
#
# Mechanical properties :
#
#
# Convention : Reuss Voigt Hill
#
# Bulk Modulus (GPa) = 88.77064 96.97792 92.87428
# Shear Modulus (GPa) = 1.95986 22.13355 12.04670
#
# Velocity S-wave (km/s) = 1.00778 3.38671 2.49854
# Velocity P-wave (km/s) = 6.88156 8.09617 7.51345
#
# Compressibility (1/GPa) = 0.01126499
#
# Stress axis : x y z
#
# Youngs Moduli (GPa) = 72.76536 85.53863 78.75315
#
# Poissons Ratio (x) = 0.22476 0.33183
# Poissons Ratio (y) = 0.19120 0.51915
# Poissons Ratio (z) = 0.30660 0.56388
#
# Static dielectric constant tensor:
#      x y z
#    x 3.502810 0.000000 0.000000 
#    y 0.000000 3.627690 0.000000 
#    z 0.000000 0.000000 3.796220 
# 
# 
# High freq. dielectric constant tensor:
#      x y z
#    x 1.748850 0.000000 0.000000 
#    y 0.000000 1.754050 0.000000 
#    z 0.000000 0.000000 1.769920 
# 
# From -- ./inp_files/58893.got.cif
#   From: 2010.03.12/outbox.cif.g09.slc.cpg/sg65_30_cif.got.tgz:58893.got - 2010.04.10 20:52:16.
