data_PCOD8269669
_publ_section_title
;
Structure prediction by ZEFSAII (Michael W. Deem and Ramdas Pophale) SiO2 
 PCOD8269669
Probable space group: C M M M
;
_chemical_formula_sum "Si O2"
_cell_formula_units_Z 80
_cell_length_a 18.201187
_cell_length_b 24.891335
_cell_length_c 9.002884
_cell_angle_alpha 90.000000
_cell_angle_beta 90.000000
_cell_angle_gamma 90.000000
_cell_volume 4078.773189
_symmetry_space_group_name_H-M "C M M M"
_symmetry_group_IT_number 65
_symmetry_cell_setting 'orthorhombic'
loop_
_space_group_symop_operation_xyz
x,y,z
-x,-y,z
x,-y,-z
-x,y,-z
-x,-y,-z
x,y,-z
-x,y,z
x,-y,z
1/2+x,1/2+y,z
1/2-x,1/2-y,z
1/2+x,1/2-y,-z
1/2-x,1/2+y,-z
1/2-x,1/2-y,-z
1/2+x,1/2+y,-z
1/2-x,1/2+y,z
1/2+x,1/2-y,z
loop_
_atom_site_type_symbol
_atom_site_label
_atom_site_fract_x
_atom_site_fract_y
_atom_site_fract_z
Si Si1 0.820114 0.901804 0.327990
Si Si2 0.415117 0.000000 0.162461
Si Si3 0.584255 0.500000 0.677616
Si Si4 0.846429 0.596381 0.327329
Si Si5 0.824759 0.219442 0.676724
Si Si6 0.415365 0.804347 0.825497
O O1 0.838778 0.897294 0.500000
O O2 0.875406 0.946306 0.258021
O O3 0.737248 0.921966 0.302342
O O4 0.827038 0.841752 0.261406
O O5 0.397521 0.052157 0.256214
O O6 0.500000 0.000000 0.131823
O O7 0.375488 0.000000 0.000000
O O8 0.500000 0.500000 0.732169
O O9 0.589710 0.500000 0.500000
O O10 0.864911 0.602844 0.500000
O O11 0.861944 0.652628 0.249499
O O12 0.833521 0.221655 0.500000
O O13 0.750000 0.250000 0.724648
O O14 0.894136 0.247186 0.755344
O O15 0.500000 0.817212 0.788890
O O16 0.400953 0.803877 0.000000
#
# Coordination Sequence:
#
# PCOD8269669 Si02
#       6
#    16   8   8  16  16  16
#     4   9  18  33  55  83 114 145 185 241 292 337
#     4  11  24  39  53  77 116 153 188 236 290 347
#     4   9  17  30  50  80 116 149 182 228 292 353
#     4  11  21  37  60  83 110 148 196 243 289 347
#     4  10  19  36  59  84 114 150 195 245 292 346
#     4  11  24  39  55  82 120 155 189 238 298 356
#
# _framework density 19.613741000000001
#
# number of rings (size 3 to 8) (size 9 to 14) (size 15 to 20)
#    0.000    1.800    2.000    2.700    0.000    7.600 
#    0.000    2.000    0.000    0.000    0.000    0.000 
#    0.000    8.000    0.000    0.000    0.000    0.000 
#
# Total GULP energy -495952.824045 kJ/mol
# GULP energy per Si atom -12398.820601 kJ/mol
# Density = 1.956910 g / cm^3
# Si number density = 19.613741 Si / 1000 Ang^3
#
#
#
# Elastic Constant Matrix: (Units=GPa)
#
#
# Indices 1 2 3 4 5 6 
#
# 1 90.9070 60.6689 31.5558 0.0000 0.0000 0.0000
# 2 60.6689 157.4342 33.9688 0.0000 0.0000 0.0000
# 3 31.5558 33.9688 54.8192 0.0000 0.0000 0.0000
# 4 0.0000 0.0000 0.0000 13.0832 0.0000 0.0000
# 5 0.0000 0.0000 0.0000 0.0000 16.4109 0.0000
# 6 0.0000 0.0000 0.0000 0.0000 0.0000 39.9425
#
#
#
# Elastic Compliance Matrix: (Units=1/GPa)
#
#
# Indices 1 2 3 4 5 6 
#
# 1 0.016571 -0.004995 -0.006443 0.000000 0.000000 0.000000
# 2 -0.004995 0.008838 -0.002601 0.000000 0.000000 0.000000
# 3 -0.006443 -0.002601 0.023562 0.000000 0.000000 0.000000
# 4 0.000000 0.000000 0.000000 0.076434 0.000000 0.000000
# 5 0.000000 0.000000 0.000000 0.000000 0.060935 0.000000
# 6 0.000000 0.000000 0.000000 0.000000 0.000000 0.025036
#
#
# Mechanical properties :
#
#
# Convention : Reuss Voigt Hill
#
# Bulk Modulus (GPa) = 47.86546 61.72749 54.79647
# Shear Modulus (GPa) = 20.29059 25.68510 22.98785
#
# Velocity S-wave (km/s) = 3.21987 3.62269 3.42720
# Velocity P-wave (km/s) = 6.18712 7.00274 6.60753
#
# Compressibility (1/GPa) = 0.02089189
#
# Stress axis : x y z
#
# Youngs Moduli (GPa) = 60.34767 113.14631 42.44050
#
# Poissons Ratio (x) = 0.56522 0.27345
# Poissons Ratio (y) = 0.30146 0.11039
# Poissons Ratio (z) = 0.38883 0.29429
#
# Static dielectric constant tensor:
#      x y z
#    x 3.557740 0.000000 0.000000 
#    y 0.000000 3.835060 0.000000 
#    z 0.000000 0.000000 3.289470 
# 
# 
# High freq. dielectric constant tensor:
#      x y z
#    x 1.762400 0.000000 0.000000 
#    y 0.000000 1.780110 0.000000 
#    z 0.000000 0.000000 1.733150 
# 
# From -- ./inp_files/9729.got.cif
#   From: 2010.03.12/outbox.cif.g09.slc.cpg/sg65_5_cif.got.tgz:9729.got - 2010.04.10 20:52:16.
