data_PCOD8269133
_publ_section_title
;
Structure prediction by ZEFSAII (Michael W. Deem and Ramdas Pophale) SiO2 
 PCOD8269133
Probable space group: C M M M
;
_chemical_formula_sum "Si O2"
_cell_formula_units_Z 88
_cell_length_a 8.942849
_cell_length_b 18.523995
_cell_length_c 28.456678
_cell_angle_alpha 90.000000
_cell_angle_beta 90.000000
_cell_angle_gamma 90.000000
_cell_volume 4714.056164
_symmetry_space_group_name_H-M "C M M M"
_symmetry_group_IT_number 65
_symmetry_cell_setting 'orthorhombic'
loop_
_space_group_symop_operation_xyz
x,y,z
-x,-y,z
x,-y,-z
-x,y,-z
-x,-y,-z
x,y,-z
-x,y,z
x,-y,z
1/2+x,1/2+y,z
1/2-x,1/2-y,z
1/2+x,1/2-y,-z
1/2-x,1/2+y,-z
1/2-x,1/2-y,-z
1/2+x,1/2+y,-z
1/2-x,1/2+y,z
1/2+x,1/2-y,z
loop_
_atom_site_type_symbol
_atom_site_label
_atom_site_fract_x
_atom_site_fract_y
_atom_site_fract_z
Si Si1 0.822532 0.581557 0.410240
Si Si2 0.176845 0.672020 0.320847
Si Si3 0.174186 0.826204 0.051662
Si Si4 0.177759 0.328526 0.500000
Si Si5 0.676669 0.579081 0.135340
Si Si6 0.673332 0.415376 0.240295
O O1 0.756353 0.500000 0.411334
O O2 0.765820 0.622333 0.363710
O O3 0.765250 0.626756 0.454930
O O4 0.000000 0.577203 0.410974
O O5 0.250000 0.750000 0.325213
O O6 0.223123 0.632827 0.273078
O O7 0.000000 0.681890 0.321845
O O8 0.250000 0.750000 0.054071
O O9 0.246431 0.873619 0.093339
O O10 0.000000 0.815007 0.060784
O O11 0.202000 0.861661 0.000000
O O12 0.250000 0.250000 0.500000
O O13 0.000000 0.319334 0.500000
O O14 0.500000 0.573192 0.129070
O O15 0.748646 0.500000 0.130591
O O16 0.712500 0.609918 0.187184
O O17 0.500000 0.400447 0.251843
O O18 0.709682 0.500000 0.246978
#
# Coordination Sequence:
#
# PCOD8269133 Si02
#       6
#    16  16  16   8  16  16
#     4   9  18  33  54  78 101 130 169 208 246 292
#     4  11  22  35  52  75 104 134 168 210 251 295
#     4   9  17  29  46  68  94 124 157 194 237 285
#     4  10  19  33  55  79 105 134 164 202 246 294
#     4   8  15  29  49  72  96 122 156 199 242 285
#     4   9  18  34  54  74  99 131 165 203 250 301
#
# _framework density 18.667574999999999
#
# number of rings (size 3 to 8) (size 9 to 14) (size 15 to 20)
#    0.000    2.727    0.000    3.000    0.000    3.273 
#    0.000    5.455    0.000    4.909    0.000    2.545 
#    0.000    0.000    0.000    0.000    0.000    0.000 
#
# Total GULP energy -545426.783729 kJ/mol
# GULP energy per Si atom -12396.063267 kJ/mol
# Density = 1.862509 g / cm^3
# Si number density = 18.667575 Si / 1000 Ang^3
#
#
#
# Elastic Constant Matrix: (Units=GPa)
#
#
# Indices 1 2 3 4 5 6 
#
# 1 34.4586 33.2768 33.8796 0.0000 0.0000 0.0000
# 2 33.2768 133.5352 90.5291 0.0000 0.0000 0.0000
# 3 33.8796 90.5291 172.2832 0.0000 0.0000 0.0000
# 4 0.0000 0.0000 0.0000 34.7900 0.0000 0.0000
# 5 0.0000 0.0000 0.0000 0.0000 21.3098 0.0000
# 6 0.0000 0.0000 0.0000 0.0000 0.0000 19.8855
#
#
#
# Elastic Compliance Matrix: (Units=1/GPa)
#
#
# Indices 1 2 3 4 5 6 
#
# 1 0.039983 -0.007197 -0.004081 0.000000 0.000000 0.000000
# 2 -0.007197 0.012928 -0.005378 0.000000 0.000000 0.000000
# 3 -0.004081 -0.005378 0.009433 0.000000 0.000000 0.000000
# 4 0.000000 0.000000 0.000000 0.028744 0.000000 0.000000
# 5 0.000000 0.000000 0.000000 0.000000 0.046927 0.000000
# 6 0.000000 0.000000 0.000000 0.000000 0.000000 0.050288
#
#
# Mechanical properties :
#
#
# Convention : Reuss Voigt Hill
#
# Bulk Modulus (GPa) = 34.44473 72.84976 53.64724
# Shear Modulus (GPa) = 21.61773 27.36984 24.49378
#
# Velocity S-wave (km/s) = 3.40669 3.83321 3.62623
# Velocity P-wave (km/s) = 5.82801 7.66165 6.80685
#
# Compressibility (1/GPa) = 0.02903202
#
# Stress axis : x y z
#
# Youngs Moduli (GPa) = 25.01070 77.35062 106.01268
#
# Poissons Ratio (x) = 0.55670 0.43262
# Poissons Ratio (y) = 0.18001 0.57013
# Poissons Ratio (z) = 0.10206 0.41599
#
# Static dielectric constant tensor:
#      x y z
#    x 3.020430 0.000000 0.000000 
#    y 0.000000 3.568170 0.000000 
#    z 0.000000 0.000000 3.824870 
# 
# 
# High freq. dielectric constant tensor:
#      x y z
#    x 1.683080 0.000000 0.000000 
#    y 0.000000 1.726680 0.000000 
#    z 0.000000 0.000000 1.744970 
# 
# From -- ./inp_files/76565.got.cif
#   From: 2010.03.12/outbox.cif.g09.slc.cpg/sg65_39_cif.got.tgz:76565.got - 2010.04.10 20:52:16.
