data_PCOD8269439
_publ_section_title
;
Structure prediction by ZEFSAII (Michael W. Deem and Ramdas Pophale) SiO2 
 PCOD8269439
Probable space group: C M M M
;
_chemical_formula_sum "Si O2"
_cell_formula_units_Z 96
_cell_length_a 17.707202
_cell_length_b 22.148520
_cell_length_c 13.094929
_cell_angle_alpha 90.000000
_cell_angle_beta 90.000000
_cell_angle_gamma 90.000000
_cell_volume 5135.678174
_symmetry_space_group_name_H-M "C M M M"
_symmetry_group_IT_number 65
_symmetry_cell_setting 'orthorhombic'
loop_
_space_group_symop_operation_xyz
x,y,z
-x,-y,z
x,-y,-z
-x,y,-z
-x,-y,-z
x,y,-z
-x,y,z
x,-y,z
1/2+x,1/2+y,z
1/2-x,1/2-y,z
1/2+x,1/2-y,-z
1/2-x,1/2+y,-z
1/2-x,1/2-y,-z
1/2+x,1/2+y,-z
1/2-x,1/2+y,z
1/2+x,1/2-y,z
loop_
_atom_site_type_symbol
_atom_site_label
_atom_site_fract_x
_atom_site_fract_y
_atom_site_fract_z
Si Si1 0.410540 0.000000 0.386943
Si Si2 0.166529 0.732789 0.382634
Si Si3 0.912213 0.857466 0.383113
Si Si4 0.588556 0.878334 0.276647
Si Si5 0.088044 0.930045 0.000000
Si Si6 0.338258 0.569673 0.204053
Si Si7 0.322319 0.930910 0.114776
O O1 0.382660 0.939347 0.331948
O O2 0.500000 0.000000 0.390115
O O3 0.375770 0.000000 0.500000
O O4 0.170943 0.712173 0.500000
O O5 0.250000 0.750000 0.342567
O O6 0.109455 0.787972 0.367746
O O7 0.134732 0.677725 0.318401
O O8 0.895257 0.877371 0.500000
O O9 0.862573 0.897601 0.307517
O O10 0.000000 0.865760 0.356648
O O11 0.500000 0.866392 0.290316
O O12 0.610254 0.888717 0.157865
O O13 0.121093 0.901236 0.104096
O O14 0.000000 0.919475 0.000000
O O15 0.112678 0.000000 0.000000
O O16 0.361876 0.500000 0.215926
O O17 0.249311 0.577628 0.188514
O O18 0.349801 0.000000 0.114551
O O19 0.302132 0.910219 0.000000
#
# Coordination Sequence:
#
# PCOD8269439 Si02
#       7
#     8  16  16  16   8  16  16
#     4   9  18  32  51  83 121 147 178 231 292 345
#     4  10  21  38  60  83 112 154 199 236 280 344
#     4  10  21  36  55  82 116 152 190 235 290 352
#     4  11  21  35  58  87 116 152 193 239 291 345
#     4   9  16  28  50  80 104 135 191 248 293 341
#     4  10  19  34  56  81 112 152 194 241 293 343
#     4  10  20  36  57  81 114 153 190 236 293 351
#
# _framework density 18.692758999999999
#
# number of rings (size 3 to 8) (size 9 to 14) (size 15 to 20)
#    0.000    2.000    1.667    2.500    0.000    3.333 
#    0.000    2.500    1.833    1.500    0.000    0.000 
#    0.000    0.000    0.000    0.000    0.000    0.000 
#
# Total GULP energy -595178.157138 kJ/mol
# GULP energy per Si atom -12399.544940 kJ/mol
# Density = 1.865021 g / cm^3
# Si number density = 18.692759 Si / 1000 Ang^3
#
#
#
# Elastic Constant Matrix: (Units=GPa)
#
#
# Indices 1 2 3 4 5 6 
#
# 1 78.3051 43.2802 51.1788 0.0000 0.0000 0.0000
# 2 43.2802 89.3617 60.4176 0.0000 0.0000 0.0000
# 3 51.1788 60.4176 120.2408 0.0000 0.0000 0.0000
# 4 0.0000 0.0000 0.0000 24.8121 0.0000 0.0000
# 5 0.0000 0.0000 0.0000 0.0000 33.2262 0.0000
# 6 0.0000 0.0000 0.0000 0.0000 0.0000 29.2092
#
#
#
# Elastic Compliance Matrix: (Units=1/GPa)
#
#
# Indices 1 2 3 4 5 6 
#
# 1 0.019496 -0.005804 -0.005382 0.000000 0.000000 0.000000
# 2 -0.005804 0.018676 -0.006914 0.000000 0.000000 0.000000
# 3 -0.005382 -0.006914 0.014081 0.000000 0.000000 0.000000
# 4 0.000000 0.000000 0.000000 0.040303 0.000000 0.000000
# 5 0.000000 0.000000 0.000000 0.000000 0.030097 0.000000
# 6 0.000000 0.000000 0.000000 0.000000 0.000000 0.034236
#
#
# Mechanical properties :
#
#
# Convention : Reuss Voigt Hill
#
# Bulk Modulus (GPa) = 62.28893 66.40677 64.34785
# Shear Modulus (GPa) = 25.19671 26.31824 25.75747
#
# Velocity S-wave (km/s) = 3.67541 3.75632 3.71609
# Velocity P-wave (km/s) = 7.16982 7.37670 7.27400
#
# Compressibility (1/GPa) = 0.01605422
#
# Stress axis : x y z
#
# Youngs Moduli (GPa) = 51.29302 53.54539 71.01548
#
# Poissons Ratio (x) = 0.31075 0.38221
# Poissons Ratio (y) = 0.29768 0.49099
# Poissons Ratio (z) = 0.27606 0.37020
#
# Static dielectric constant tensor:
#      x y z
#    x 3.397260 0.000000 0.000000 
#    y 0.000000 3.199220 0.000000 
#    z 0.000000 0.000000 3.561830 
# 
# 
# High freq. dielectric constant tensor:
#      x y z
#    x 1.731580 0.000000 0.000000 
#    y 0.000000 1.700250 0.000000 
#    z 0.000000 0.000000 1.729770 
# 
# From -- ./inp_files/29063.got.cif
#   From: 2010.03.12/outbox.cif.g09.slc.cpg/sg65_15_cif.got.tgz:29063.got - 2010.04.10 20:52:16.
