data_PCOD8269787
_publ_section_title
;
Structure prediction by ZEFSAII (Michael W. Deem and Ramdas Pophale) SiO2 
 PCOD8269787
Probable space group: C M M M
;
_chemical_formula_sum "Si O2"
_cell_formula_units_Z 72
_cell_length_a 14.363206
_cell_length_b 36.246839
_cell_length_c 7.947782
_cell_angle_alpha 90.000000
_cell_angle_beta 90.000000
_cell_angle_gamma 90.000000
_cell_volume 4137.780746
_symmetry_space_group_name_H-M "C M M M"
_symmetry_group_IT_number 65
_symmetry_cell_setting 'orthorhombic'
loop_
_space_group_symop_operation_xyz
x,y,z
-x,-y,z
x,-y,-z
-x,y,-z
-x,-y,-z
x,y,-z
-x,y,z
x,-y,z
1/2+x,1/2+y,z
1/2-x,1/2-y,z
1/2+x,1/2-y,-z
1/2-x,1/2+y,-z
1/2-x,1/2-y,-z
1/2+x,1/2+y,-z
1/2-x,1/2+y,z
1/2+x,1/2-y,z
loop_
_atom_site_type_symbol
_atom_site_label
_atom_site_fract_x
_atom_site_fract_y
_atom_site_fract_z
Si Si1 0.610328 0.458873 0.500000
Si Si2 0.282762 0.343053 0.689788
Si Si3 0.395731 0.196631 0.697916
Si Si4 0.393740 0.723722 0.807561
Si Si5 0.892506 0.089984 0.811938
O O1 0.653502 0.500000 0.500000
O O2 0.500000 0.461286 0.500000
O O3 0.644149 0.438507 0.670585
O O4 0.286963 0.358264 0.500000
O O5 0.175506 0.336263 0.747298
O O6 0.334151 0.303757 0.694225
O O7 0.331641 0.372895 0.808397
O O8 0.393089 0.203748 0.500000
O O9 0.500000 0.185607 0.758039
O O10 0.360653 0.234060 0.786754
O O11 0.500000 0.720886 0.746196
O O12 0.382389 0.711576 0.000000
O O13 0.000000 0.100533 0.776020
O O14 0.882149 0.072784 0.000000
#
# Coordination Sequence:
#
# PCOD8269787 Si02
#       5
#     8  16  16  16  16
#     4   9  18  34  54  76 104 135 163 189 222 274
#     4  11  20  30  47  67  91 125 162 203 249 290
#     4   9  19  34  47  61  85 120 164 210 252 294
#     4  10  20  31  43  62  88 120 160 205 250 294
#     4  10  20  33  50  75 105 133 162 196 233 277
#
# _framework density 17.400631000000001
#
# number of rings (size 3 to 8) (size 9 to 14) (size 15 to 20)
#    0.000    2.111    1.111    2.667    0.000    8.889 
#    0.000    2.222    0.000    0.000    0.000    0.000 
#    0.000    1.778    0.000    2.000    0.000    0.222 
#
# Total GULP energy -446364.361277 kJ/mol
# GULP energy per Si atom -12399.010035 kJ/mol
# Density = 1.736103 g / cm^3
# Si number density = 17.400631 Si / 1000 Ang^3
#
#
#
# Elastic Constant Matrix: (Units=GPa)
#
#
# Indices 1 2 3 4 5 6 
#
# 1 61.4165 44.7407 26.5180 0.0000 0.0000 0.0000
# 2 44.7407 86.2025 39.1577 0.0000 0.0000 0.0000
# 3 26.5180 39.1577 80.0691 0.0000 0.0000 0.0000
# 4 0.0000 0.0000 0.0000 17.8599 0.0000 0.0000
# 5 0.0000 0.0000 0.0000 0.0000 14.5139 0.0000
# 6 0.0000 0.0000 0.0000 0.0000 0.0000 13.5742
#
#
#
# Elastic Compliance Matrix: (Units=1/GPa)
#
#
# Indices 1 2 3 4 5 6 
#
# 1 0.026610 -0.012609 -0.002647 0.000000 0.000000 0.000000
# 2 -0.012609 0.020888 -0.006039 0.000000 0.000000 0.000000
# 3 -0.002647 -0.006039 0.016319 0.000000 0.000000 0.000000
# 4 0.000000 0.000000 0.000000 0.055991 0.000000 0.000000
# 5 0.000000 0.000000 0.000000 0.000000 0.068900 0.000000
# 6 0.000000 0.000000 0.000000 0.000000 0.000000 0.073669
#
#
# Mechanical properties :
#
#
# Convention : Reuss Voigt Hill
#
# Bulk Modulus (GPa) = 47.10792 49.83563 48.47178
# Shear Modulus (GPa) = 16.02337 17.00772 16.51555
#
# Velocity S-wave (km/s) = 3.03784 3.12976 3.08415
# Velocity P-wave (km/s) = 6.27981 6.46242 6.37177
#
# Compressibility (1/GPa) = 0.02122785
#
# Stress axis : x y z
#
# Youngs Moduli (GPa) = 37.57919 47.87354 61.27699
#
# Poissons Ratio (x) = 0.60364 0.16218
# Poissons Ratio (y) = 0.47384 0.37008
# Poissons Ratio (z) = 0.09946 0.28913
#
# Static dielectric constant tensor:
#      x y z
#    x 3.328100 0.000000 0.000000 
#    y 0.000000 2.992650 0.000000 
#    z 0.000000 0.000000 3.272280 
# 
# 
# High freq. dielectric constant tensor:
#      x y z
#    x 1.653650 0.000000 0.000000 
#    y 0.000000 1.630970 0.000000 
#    z 0.000000 0.000000 1.683370 
# 
# From -- ./inp_files/7693.got.cif
#   From: 2010.03.12/outbox.cif.g09.slc.cpg/sg65_4_cif.got.tgz:7693.got - 2010.04.10 20:52:16.
