data_PCOD8269024
_publ_section_title
;
Structure prediction by ZEFSAII (Michael W. Deem and Ramdas Pophale) SiO2 
 PCOD8269024
Probable space group: C M M M
;
_chemical_formula_sum "Si O2"
_cell_formula_units_Z 80
_cell_length_a 8.896032
_cell_length_b 19.155985
_cell_length_c 25.848940
_cell_angle_alpha 90.000000
_cell_angle_beta 90.000000
_cell_angle_gamma 90.000000
_cell_volume 4404.976169
_symmetry_space_group_name_H-M "C M M M"
_symmetry_group_IT_number 65
_symmetry_cell_setting 'orthorhombic'
loop_
_space_group_symop_operation_xyz
x,y,z
-x,-y,z
x,-y,-z
-x,y,-z
-x,-y,-z
x,y,-z
-x,y,z
x,-y,z
1/2+x,1/2+y,z
1/2-x,1/2-y,z
1/2+x,1/2-y,-z
1/2-x,1/2+y,-z
1/2-x,1/2-y,-z
1/2+x,1/2+y,-z
1/2-x,1/2+y,z
1/2+x,1/2-y,z
loop_
_atom_site_type_symbol
_atom_site_label
_atom_site_fract_x
_atom_site_fract_y
_atom_site_fract_z
Si Si1 0.669377 0.916853 0.101994
Si Si2 0.324223 0.579350 0.204986
Si Si3 0.177906 0.578207 0.500000
Si Si4 0.169226 0.916717 0.000000
Si Si5 0.820382 0.324411 0.593192
Si Si6 0.678687 0.676487 0.700596
O O1 0.500000 0.889609 0.100623
O O2 0.745555 0.888270 0.154295
O O3 0.751370 0.886565 0.051292
O O4 0.679115 0.000000 0.101519
O O5 0.500000 0.583912 0.194679
O O6 0.272066 0.500000 0.214570
O O7 0.275798 0.622208 0.255217
O O8 0.247236 0.500000 0.500000
O O9 0.232055 0.619370 0.550824
O O10 0.000000 0.573662 0.500000
O O11 0.000000 0.889258 0.000000
O O12 0.176700 0.000000 0.000000
O O13 0.750000 0.250000 0.577837
O O14 0.752909 0.350552 0.647536
O O15 0.000000 0.317250 0.596684
O O16 0.500000 0.683721 0.693643
O O17 0.750000 0.750000 0.716536
#
# Coordination Sequence:
#
# PCOD8269024 Si02
#       6
#    16  16   8   8  16  16
#     4   9  16  25  39  62  91 121 156 199 242 284
#     4   9  18  32  48  67  94 127 159 194 241 292
#     4   9  19  34  51  75 104 131 160 196 240 287
#     4   9  15  23  37  57  86 125 162 195 236 287
#     4  10  19  33  54  74  96 127 162 200 238 282
#     4  10  20  34  52  73  98 127 162 202 240 284
#
# _framework density 18.161276999999998
#
# number of rings (size 3 to 8) (size 9 to 14) (size 15 to 20)
#    0.000    2.600    0.000    3.600    0.000    6.000 
#    0.000    1.500    0.000    4.200    0.000    0.700 
#    0.000    0.000    0.000    0.000    0.000    0.000 
#
# Total GULP energy -495961.273109 kJ/mol
# GULP energy per Si atom -12399.031828 kJ/mol
# Density = 1.811994 g / cm^3
# Si number density = 18.161277 Si / 1000 Ang^3
#
#
#
# Elastic Constant Matrix: (Units=GPa)
#
#
# Indices 1 2 3 4 5 6 
#
# 1 95.3002 37.3595 75.2163 0.0000 0.0000 0.0000
# 2 37.3595 72.3179 83.1410 0.0000 0.0000 0.0000
# 3 75.2163 83.1410 192.9150 0.0000 0.0000 0.0000
# 4 0.0000 0.0000 0.0000 6.1536 0.0000 0.0000
# 5 0.0000 0.0000 0.0000 0.0000 29.5204 0.0000
# 6 0.0000 0.0000 0.0000 0.0000 0.0000 17.1848
#
#
#
# Elastic Compliance Matrix: (Units=1/GPa)
#
#
# Indices 1 2 3 4 5 6 
#
# 1 0.015313 -0.002075 -0.005076 0.000000 0.000000 0.000000
# 2 -0.002075 0.027689 -0.011124 0.000000 0.000000 0.000000
# 3 -0.005076 -0.011124 0.011957 0.000000 0.000000 0.000000
# 4 0.000000 0.000000 0.000000 0.162506 0.000000 0.000000
# 5 0.000000 0.000000 0.000000 0.000000 0.033875 0.000000
# 6 0.000000 0.000000 0.000000 0.000000 0.000000 0.058191
#
#
# Mechanical properties :
#
#
# Convention : Reuss Voigt Hill
#
# Bulk Modulus (GPa) = 54.32299 83.55186 68.93742
# Shear Modulus (GPa) = 14.19580 21.55951 17.87765
#
# Velocity S-wave (km/s) = 2.79884 3.44919 3.14089
# Velocity P-wave (km/s) = 6.35775 7.87197 7.15503
#
# Compressibility (1/GPa) = 0.01840841
#
# Stress axis : x y z
#
# Youngs Moduli (GPa) = 65.30406 36.11603 83.63278
#
# Poissons Ratio (x) = 0.07493 0.42455
# Poissons Ratio (y) = 0.13548 0.93034
# Poissons Ratio (z) = 0.33150 0.40176
#
# Static dielectric constant tensor:
#      x y z
#    x 3.361490 0.000000 0.000000 
#    y 0.000000 3.081140 0.000000 
#    z 0.000000 0.000000 3.576870 
# 
# 
# High freq. dielectric constant tensor:
#      x y z
#    x 1.706890 0.000000 0.000000 
#    y 0.000000 1.659750 0.000000 
#    z 0.000000 0.000000 1.721820 
# 
# From -- ./inp_files/72952.got.cif
#   From: 2010.03.12/outbox.cif.g09.slc.cpg/sg65_37_cif.got.tgz:72952.got - 2010.04.10 20:52:16.
