data_PCOD8269354
_publ_section_title
;
Structure prediction by ZEFSAII (Michael W. Deem and Ramdas Pophale) SiO2 
 PCOD8269354
Probable space group: C M M M
;
_chemical_formula_sum "Si O2"
_cell_formula_units_Z 72
_cell_length_a 7.890252
_cell_length_b 18.567871
_cell_length_c 26.662129
_cell_angle_alpha 90.000000
_cell_angle_beta 90.000000
_cell_angle_gamma 90.000000
_cell_volume 3906.140043
_symmetry_space_group_name_H-M "C M M M"
_symmetry_group_IT_number 65
_symmetry_cell_setting 'orthorhombic'
loop_
_space_group_symop_operation_xyz
x,y,z
-x,-y,z
x,-y,-z
-x,y,-z
-x,-y,-z
x,y,-z
-x,y,z
x,-y,z
1/2+x,1/2+y,z
1/2-x,1/2-y,z
1/2+x,1/2-y,-z
1/2-x,1/2+y,-z
1/2-x,1/2-y,-z
1/2+x,1/2+y,-z
1/2-x,1/2+y,z
1/2+x,1/2-y,z
loop_
_atom_site_type_symbol
_atom_site_label
_atom_site_fract_x
_atom_site_fract_y
_atom_site_fract_z
Si Si1 0.698602 0.332200 0.000000
Si Si2 0.500000 0.913934 0.734403
Si Si3 0.813231 0.914507 0.201601
Si Si4 0.500000 0.913949 0.621070
Si Si5 0.804266 0.580646 0.904355
Si Si6 0.811880 0.085615 0.443575
O O1 0.750000 0.250000 0.000000
O O2 0.776197 0.368058 0.951047
O O3 0.500000 0.343071 0.000000
O O4 0.331738 0.882965 0.761845
O O5 0.500000 0.884685 0.677721
O O6 0.500000 0.000000 0.735001
O O7 0.790803 0.887360 0.144389
O O8 0.000000 0.890496 0.220800
O O9 0.795915 0.000000 0.201083
O O10 0.668071 0.883348 0.593476
O O11 0.500000 0.000000 0.620013
O O12 0.739146 0.500000 0.917660
O O13 0.000000 0.578017 0.889936
O O14 0.774942 0.113208 0.500000
O O15 0.000000 0.111303 0.426196
O O16 0.805240 0.000000 0.443006
#
# Coordination Sequence:
#
# PCOD8269354 Si02
#       6
#     8   8  16   8  16  16
#     4  12  25  38  51  73 103 129 155 189 237 285
#     4   9  16  25  34  52  78  99 126 175 221 265
#     4   9  16  27  43  61  81 107 139 175 216 263
#     4   9  15  20  29  42  61  88 117 155 217 269
#     4  10  19  34  55  75  96 123 156 191 229 280
#     4   8  13  20  28  38  54  80 119 163 204 255
#
# _framework density 18.432518000000002
#
# number of rings (size 3 to 8) (size 9 to 14) (size 15 to 20)
#    0.000    2.667    1.111    3.000    0.000    4.889 
#    0.000    4.444    0.000    0.000    0.000    0.000 
#    0.000    0.000    0.000    0.000    0.000    0.000 
#
# Total GULP energy -446223.727424 kJ/mol
# GULP energy per Si atom -12395.103540 kJ/mol
# Density = 1.839056 g / cm^3
# Si number density = 18.432518 Si / 1000 Ang^3
#
#
#
# Elastic Constant Matrix: (Units=GPa)
#
#
# Indices 1 2 3 4 5 6 
#
# 1 158.0349 10.8713 86.5924 0.0000 0.0000 0.0000
# 2 10.8713 28.7169 21.3861 0.0000 0.0000 0.0000
# 3 86.5924 21.3861 153.8005 0.0000 0.0000 0.0000
# 4 0.0000 0.0000 0.0000 -1.3429 0.0000 0.0000
# 5 0.0000 0.0000 0.0000 0.0000 25.4441 0.0000
# 6 0.0000 0.0000 0.0000 0.0000 0.0000 9.5044
#
#
#
# Elastic Compliance Matrix: (Units=1/GPa)
#
#
# Indices 1 2 3 4 5 6 
#
# 1 0.009155 0.000416 -0.005212 0.000000 0.000000 0.000000
# 2 0.000416 0.038864 -0.005638 0.000000 0.000000 0.000000
# 3 -0.005212 -0.005638 0.010221 0.000000 0.000000 0.000000
# 4 0.000000 0.000000 0.000000 -0.744636 0.000000 0.000000
# 5 0.000000 0.000000 0.000000 0.000000 0.039302 0.000000
# 6 0.000000 0.000000 0.000000 0.000000 0.000000 0.105215
#
#
# Mechanical properties :
#
#
# Convention : Reuss Voigt Hill
#
# Bulk Modulus (GPa) = 26.75912 64.25022 45.50467
# Shear Modulus (GPa) = -9.83180 21.50127 5.83473
#
# Velocity S-wave (km/s) = -2.31204 3.41909 1.78110
# Velocity P-wave (km/s) = 2.72424 7.10771 5.38243
#
# Compressibility (1/GPa) = 0.03737043
#
# Stress axis : x y z
#
# Youngs Moduli (GPa) = 109.22875 25.73068 97.84211
#
# Poissons Ratio (x) = -0.01070 0.50998
# Poissons Ratio (y) = -0.04543 0.55166
# Poissons Ratio (z) = 0.56933 0.14508
#
# Static dielectric constant tensor:
#      x y z
#    x 3.787860 0.000000 0.000000 
#    y 0.000000 2.606280 0.000000 
#    z 0.000000 0.000000 3.487510 
# 
# 
# High freq. dielectric constant tensor:
#      x y z
#    x 1.738120 0.000000 0.000000 
#    y 0.000000 1.622160 0.000000 
#    z 0.000000 0.000000 1.717680 
# 
# From -- ./inp_files/67144.got.cif
#   From: 2010.03.12/outbox.cif.g09.slc.cpg/sg65_34_cif.got.tgz:67144.got - 2010.04.10 20:52:16.
