data_PCOD8269061
_publ_section_title
;
Structure prediction by ZEFSAII (Michael W. Deem and Ramdas Pophale) SiO2 
 PCOD8269061
Probable space group: C M M M
;
_chemical_formula_sum "Si O2"
_cell_formula_units_Z 104
_cell_length_a 8.813610
_cell_length_b 19.583688
_cell_length_c 33.054525
_cell_angle_alpha 90.000000
_cell_angle_beta 90.000000
_cell_angle_gamma 90.000000
_cell_volume 5705.309795
_symmetry_space_group_name_H-M "C M M M"
_symmetry_group_IT_number 65
_symmetry_cell_setting 'orthorhombic'
loop_
_space_group_symop_operation_xyz
x,y,z
-x,-y,z
x,-y,-z
-x,y,-z
-x,-y,-z
x,y,-z
-x,y,z
x,-y,z
1/2+x,1/2+y,z
1/2-x,1/2-y,z
1/2+x,1/2-y,-z
1/2-x,1/2+y,-z
1/2-x,1/2-y,-z
1/2+x,1/2+y,-z
1/2-x,1/2+y,z
1/2+x,1/2-y,z
loop_
_atom_site_type_symbol
_atom_site_label
_atom_site_fract_x
_atom_site_fract_y
_atom_site_fract_z
Si Si1 0.826536 0.079033 0.546658
Si Si2 0.322627 0.078709 0.846664
Si Si3 0.178545 0.678134 0.607501
Si Si4 0.320156 0.322145 0.692035
Si Si5 0.323967 0.421753 0.236477
Si Si6 0.821362 0.175396 0.912409
Si Si7 0.175893 0.177784 0.000000
O O1 0.794439 0.096029 0.500000
O O2 0.711810 0.122754 0.573291
O O3 0.000000 0.097286 0.557714
O O4 0.794498 0.000000 0.555556
O O5 0.500000 0.090640 0.850815
O O6 0.270631 0.102802 0.802325
O O7 0.239404 0.122981 0.879937
O O8 0.276774 0.000000 0.853406
O O9 0.250000 0.750000 0.594037
O O10 0.251258 0.653000 0.649566
O O11 0.000000 0.687145 0.613098
O O12 0.500000 0.315264 0.687705
O O13 0.250000 0.250000 0.705140
O O14 0.272339 0.377159 0.725449
O O15 0.500000 0.410966 0.226352
O O16 0.287694 0.500000 0.247380
O O17 0.750000 0.250000 0.906271
O O18 0.779637 0.142670 0.957050
O O19 0.000000 0.183326 0.906760
O O20 0.250000 0.250000 0.000000
O O21 0.000000 0.191659 0.000000
#
# Coordination Sequence:
#
# PCOD8269061 Si02
#       7
#    16  16  16  16  16  16   8
#     4   9  19  37  59  81 107 140 177 218 264 312
#     4  10  21  36  53  75 105 139 174 214 259 306
#     4  11  22  36  55  79 109 143 178 217 261 310
#     4  10  20  35  55  78 105 136 171 214 261 309
#     4   9  19  36  56  76  99 133 175 214 256 307
#     4  10  19  33  54  78 104 134 171 214 258 308
#     4   8  16  30  49  74 101 131 167 209 257 304
#
# _framework density 18.228632999999999
#
# number of rings (size 3 to 8) (size 9 to 14) (size 15 to 20)
#    0.000    2.308    0.000    4.154    0.000    4.923 
#    0.000    4.231    0.000    2.308    0.000    0.000 
#    0.000    0.000    0.000    0.000    0.000    0.000 
#
# Total GULP energy -644690.404972 kJ/mol
# GULP energy per Si atom -12397.892403 kJ/mol
# Density = 1.818714 g / cm^3
# Si number density = 18.228633 Si / 1000 Ang^3
#
#
#
# Elastic Constant Matrix: (Units=GPa)
#
#
# Indices 1 2 3 4 5 6 
#
# 1 90.5279 46.6053 61.0402 0.0000 0.0000 0.0000
# 2 46.6053 83.6063 83.0772 0.0000 0.0000 0.0000
# 3 61.0402 83.0772 141.8169 0.0000 0.0000 0.0000
# 4 0.0000 0.0000 0.0000 47.2281 0.0000 0.0000
# 5 0.0000 0.0000 0.0000 0.0000 28.3633 0.0000
# 6 0.0000 0.0000 0.0000 0.0000 0.0000 30.8575
#
#
#
# Elastic Compliance Matrix: (Units=1/GPa)
#
#
# Indices 1 2 3 4 5 6 
#
# 1 0.016424 -0.005099 -0.004082 0.000000 0.000000 0.000000
# 2 -0.005099 0.030204 -0.015499 0.000000 0.000000 0.000000
# 3 -0.004082 -0.015499 0.017888 0.000000 0.000000 0.000000
# 4 0.000000 0.000000 0.000000 0.021174 0.000000 0.000000
# 5 0.000000 0.000000 0.000000 0.000000 0.035257 0.000000
# 6 0.000000 0.000000 0.000000 0.000000 0.000000 0.032407
#
#
# Mechanical properties :
#
#
# Convention : Reuss Voigt Hill
#
# Bulk Modulus (GPa) = 65.98281 77.48850 71.73566
# Shear Modulus (GPa) = 24.06556 29.63834 26.85195
#
# Velocity S-wave (km/s) = 3.63741 4.03665 3.84222
# Velocity P-wave (km/s) = 7.34281 8.02044 7.68910
#
# Compressibility (1/GPa) = 0.01515546
#
# Stress axis : x y z
#
# Youngs Moduli (GPa) = 60.88740 33.10786 55.90407
#
# Poissons Ratio (x) = 0.16882 0.22820
# Poissons Ratio (y) = 0.31047 0.86647
# Poissons Ratio (z) = 0.24854 0.51314
#
# Static dielectric constant tensor:
#      x y z
#    x 3.417500 0.000000 0.000000 
#    y 0.000000 3.231060 0.000000 
#    z 0.000000 0.000000 3.716790 
# 
# 
# High freq. dielectric constant tensor:
#      x y z
#    x 1.714930 0.000000 0.000000 
#    y 0.000000 1.692600 0.000000 
#    z 0.000000 0.000000 1.719470 
# 
# From -- ./inp_files/73340.got.cif
#   From: 2010.03.12/outbox.cif.g09.slc.cpg/sg65_37_cif.got.tgz:73340.got - 2010.04.10 20:52:16.
