data_PCOD8269248
_publ_section_title
;
Structure prediction by ZEFSAII (Michael W. Deem and Ramdas Pophale) SiO2 
 PCOD8269248
Probable space group: C M M M
;
_chemical_formula_sum "Si O2"
_cell_formula_units_Z 112
_cell_length_a 15.440876
_cell_length_b 27.178212
_cell_length_c 13.745237
_cell_angle_alpha 90.000000
_cell_angle_beta 90.000000
_cell_angle_gamma 90.000000
_cell_volume 5768.262950
_symmetry_space_group_name_H-M "C M M M"
_symmetry_group_IT_number 65
_symmetry_cell_setting 'orthorhombic'
loop_
_space_group_symop_operation_xyz
x,y,z
-x,-y,z
x,-y,-z
-x,y,-z
-x,-y,-z
x,y,-z
-x,y,z
x,-y,z
1/2+x,1/2+y,z
1/2-x,1/2-y,z
1/2+x,1/2-y,-z
1/2-x,1/2+y,-z
1/2-x,1/2-y,-z
1/2+x,1/2+y,-z
1/2-x,1/2+y,z
1/2+x,1/2-y,z
loop_
_atom_site_type_symbol
_atom_site_label
_atom_site_fract_x
_atom_site_fract_y
_atom_site_fract_z
Si Si1 0.402575 0.618505 0.698996
Si Si2 0.400844 0.759727 0.802234
Si Si3 0.398054 0.279505 0.605397
Si Si4 0.345691 0.336978 0.109104
Si Si5 0.598299 0.056771 0.256691
Si Si6 0.245573 0.058007 0.390696
Si Si7 0.647045 0.138482 0.889459
O O1 0.500000 0.601201 0.672919
O O2 0.373209 0.665198 0.635600
O O3 0.401915 0.632531 0.813425
O O4 0.335520 0.575716 0.673543
O O5 0.500000 0.741030 0.804410
O O6 0.365234 0.757326 0.690505
O O7 0.346798 0.721697 0.868896
O O8 0.396517 0.814909 0.838588
O O9 0.355251 0.266987 0.500000
O O10 0.500000 0.274786 0.595162
O O11 0.249214 0.356903 0.118121
O O12 0.381633 0.345908 0.000000
O O13 0.500000 0.064348 0.294421
O O14 0.663663 0.074152 0.341591
O O15 0.614772 0.088819 0.160861
O O16 0.614969 0.000000 0.228125
O O17 0.242799 0.079915 0.500000
O O18 0.238796 0.000000 0.394568
O O19 0.614816 0.136503 0.000000
#
# Coordination Sequence:
#
# PCOD8269248 Si02
#       7
#    16  16  16  16  16  16  16
#     4  10  19  33  57  86 117 153 192 236 283 339
#     4  10  20  32  51  81 117 154 193 238 284 338
#     4   8  15  29  49  74 108 151 191 224 266 326
#     4  10  20  35  55  80 114 159 199 233 280 341
#     4  10  22  41  63  86 113 147 191 242 295 350
#     4  10  21  38  60  86 116 148 187 238 293 348
#     4  11  22  37  58  83 113 150 192 244 300 347
#
# _framework density 19.416589999999999
#
# number of rings (size 3 to 8) (size 9 to 14) (size 15 to 20)
#    0.000    2.143    1.429    3.000    0.000    5.714 
#    0.000    3.571    0.000    3.857    0.000    1.000 
#    0.000    0.000    0.000    0.000    0.000    0.000 
#
# Total GULP energy -694282.487151 kJ/mol
# GULP energy per Si atom -12397.901556 kJ/mol
# Density = 1.937240 g / cm^3
# Si number density = 19.416590 Si / 1000 Ang^3
#
#
#
# Elastic Constant Matrix: (Units=GPa)
#
#
# Indices 1 2 3 4 5 6 
#
# 1 85.7643 34.6649 42.9262 0.0000 0.0000 0.0000
# 2 34.6649 57.3901 45.2924 0.0000 0.0000 0.0000
# 3 42.9262 45.2924 158.7622 0.0000 0.0000 0.0000
# 4 0.0000 0.0000 0.0000 21.6975 0.0000 0.0000
# 5 0.0000 0.0000 0.0000 0.0000 21.4879 0.0000
# 6 0.0000 0.0000 0.0000 0.0000 0.0000 21.9492
#
#
#
# Elastic Compliance Matrix: (Units=1/GPa)
#
#
# Indices 1 2 3 4 5 6 
#
# 1 0.015909 -0.008021 -0.002013 0.000000 0.000000 0.000000
# 2 -0.008021 0.026531 -0.005400 0.000000 0.000000 0.000000
# 3 -0.002013 -0.005400 0.008384 0.000000 0.000000 0.000000
# 4 0.000000 0.000000 0.000000 0.046088 0.000000 0.000000
# 5 0.000000 0.000000 0.000000 0.000000 0.046538 0.000000
# 6 0.000000 0.000000 0.000000 0.000000 0.000000 0.045560
#
#
# Mechanical properties :
#
#
# Convention : Reuss Voigt Hill
#
# Bulk Modulus (GPa) = 50.11125 60.85373 55.48249
# Shear Modulus (GPa) = 22.07204 24.96246 23.51725
#
# Velocity S-wave (km/s) = 3.37525 3.58945 3.48400
# Velocity P-wave (km/s) = 6.40736 6.97051 6.69486
#
# Compressibility (1/GPa) = 0.01995560
#
# Stress axis : x y z
#
# Youngs Moduli (GPa) = 62.85562 37.69146 119.27834
#
# Poissons Ratio (x) = 0.30231 0.24016
# Poissons Ratio (y) = 0.50414 0.64414
# Poissons Ratio (z) = 0.12656 0.20355
#
# Static dielectric constant tensor:
#      x y z
#    x 3.515230 0.000000 0.000000 
#    y 0.000000 3.293330 0.000000 
#    z 0.000000 0.000000 3.935150 
# 
# 
# High freq. dielectric constant tensor:
#      x y z
#    x 1.756010 0.000000 0.000000 
#    y 0.000000 1.733670 0.000000 
#    z 0.000000 0.000000 1.765630 
# 
# From -- ./inp_files/41082.got.cif
#   From: 2010.03.12/outbox.cif.g09.slc.cpg/sg65_21_cif.got.tgz:41082.got - 2010.04.10 20:52:16.
