data_PCOD8269917
_publ_section_title
;
Structure prediction by ZEFSAII (Michael W. Deem and Ramdas Pophale) SiO2 
 PCOD8269917
Probable space group: C M M M
;
_chemical_formula_sum "Si O2"
_cell_formula_units_Z 112
_cell_length_a 18.852199
_cell_length_b 19.478050
_cell_length_c 18.555256
_cell_angle_alpha 90.000000
_cell_angle_beta 90.000000
_cell_angle_gamma 90.000000
_cell_volume 6813.565611
_symmetry_space_group_name_H-M "C M M M"
_symmetry_group_IT_number 65
_symmetry_cell_setting 'orthorhombic'
loop_
_space_group_symop_operation_xyz
x,y,z
-x,-y,z
x,-y,-z
-x,y,-z
-x,-y,-z
x,y,-z
-x,y,z
x,-y,z
1/2+x,1/2+y,z
1/2-x,1/2-y,z
1/2+x,1/2-y,-z
1/2-x,1/2+y,-z
1/2-x,1/2-y,-z
1/2+x,1/2+y,-z
1/2-x,1/2+y,z
1/2+x,1/2-y,z
loop_
_atom_site_type_symbol
_atom_site_label
_atom_site_fract_x
_atom_site_fract_y
_atom_site_fract_z
Si Si1 0.205213 0.314431 0.916580
Si Si2 0.414963 0.196840 0.581028
Si Si3 0.915886 0.576648 0.318921
Si Si4 0.419182 0.173090 0.191540
Si Si5 0.323181 0.578896 0.080341
Si Si6 0.919196 0.204058 0.300277
Si Si7 0.083741 0.077637 0.784871
O O1 0.250000 0.250000 0.886459
O O2 0.130515 0.323073 0.877445
O O3 0.251200 0.381723 0.901527
O O4 0.187105 0.303280 0.000000
O O5 0.385415 0.202824 0.500000
O O6 0.500000 0.198039 0.583101
O O7 0.388102 0.125061 0.615842
O O8 0.384456 0.261280 0.628175
O O9 0.882881 0.500000 0.325702
O O10 0.894220 0.610330 0.242712
O O11 0.000000 0.572744 0.323454
O O12 0.500000 0.161729 0.165492
O O13 0.412660 0.243989 0.234215
O O14 0.301997 0.500000 0.084387
O O15 0.384164 0.596799 0.137442
O O16 0.351043 0.598792 0.000000
O O17 0.885542 0.130783 0.275524
O O18 0.000000 0.189331 0.320042
O O19 0.000000 0.086849 0.793794
O O20 0.103715 0.000000 0.761255
#
# Coordination Sequence:
#
# PCOD8269917 Si02
#       7
#    16  16  16  16  16  16  16
#     4  10  20  32  45  62  85 112 143 181 221 255
#     4   8  13  21  35  56  83 117 147 166 199 254
#     4   8  14  24  38  59  86 112 140 176 212 244
#     4   9  17  29  45  62  82 113 147 176 211 254
#     4   9  18  31  44  60  85 113 139 174 222 266
#     4   8  14  25  39  57  83 109 135 171 211 250
#     4   9  16  26  43  64  83 108 142 178 217 261
#
# _framework density 16.437795000000001
#
# number of rings (size 3 to 8) (size 9 to 14) (size 15 to 20)
#    0.000    3.286    0.000    2.571    0.000    1.429 
#    0.000    2.857    0.000    5.571    0.000    7.000 
#    0.000   36.571    0.000    6.000    0.000    6.571 
#
# Total GULP energy -693903.500054 kJ/mol
# GULP energy per Si atom -12391.133930 kJ/mol
# Density = 1.640038 g / cm^3
# Si number density = 16.437795 Si / 1000 Ang^3
#
#
#
# Elastic Constant Matrix: (Units=GPa)
#
#
# Indices 1 2 3 4 5 6 
#
# 1 38.7398 26.8815 40.6606 0.0000 0.0000 0.0000
# 2 26.8815 120.2169 69.3371 0.0000 0.0000 0.0000
# 3 40.6606 69.3371 108.2372 0.0000 0.0000 0.0000
# 4 0.0000 0.0000 0.0000 19.2808 0.0000 0.0000
# 5 0.0000 0.0000 0.0000 0.0000 5.0049 0.0000
# 6 0.0000 0.0000 0.0000 0.0000 0.0000 15.0497
#
#
#
# Elastic Compliance Matrix: (Units=1/GPa)
#
#
# Indices 1 2 3 4 5 6 
#
# 1 0.042633 -0.000469 -0.015715 0.000000 0.000000 0.000000
# 2 -0.000469 0.013198 -0.008278 0.000000 0.000000 0.000000
# 3 -0.015715 -0.008278 0.020446 0.000000 0.000000 0.000000
# 4 0.000000 0.000000 0.000000 0.051865 0.000000 0.000000
# 5 0.000000 0.000000 0.000000 0.000000 0.199805 0.000000
# 6 0.000000 0.000000 0.000000 0.000000 0.000000 0.066446
#
#
# Mechanical properties :
#
#
# Convention : Reuss Voigt Hill
#
# Bulk Modulus (GPa) = 36.56121 60.10582 48.33351
# Shear Modulus (GPa) = 11.05131 16.55473 13.80302
#
# Velocity S-wave (km/s) = 2.59571 3.17695 2.90092
# Velocity P-wave (km/s) = 5.59232 7.07830 6.37873
#
# Compressibility (1/GPa) = 0.02735139
#
# Stress axis : x y z
#
# Youngs Moduli (GPa) = 23.45600 75.76959 48.91017
#
# Poissons Ratio (x) = 0.03555 0.76862
# Poissons Ratio (y) = 0.01101 0.40490
# Poissons Ratio (z) = 0.36861 0.62725
#
# Static dielectric constant tensor:
#      x y z
#    x 2.615360 0.000000 0.000000 
#    y 0.000000 3.477420 0.000000 
#    z 0.000000 0.000000 3.164600 
# 
# 
# High freq. dielectric constant tensor:
#      x y z
#    x 1.579990 0.000000 0.000000 
#    y 0.000000 1.645280 0.000000 
#    z 0.000000 0.000000 1.621570 
# 
# From -- ./inp_files/54819.got.cif
#   From: 2010.03.12/outbox.cif.g09.slc.cpg/sg65_28_cif.got.tgz:54819.got - 2010.04.10 20:52:16.
