data_PCOD8269380
_publ_section_title
;
Structure prediction by ZEFSAII (Michael W. Deem and Ramdas Pophale) SiO2 
 PCOD8269380
Probable space group: C M M M
;
_chemical_formula_sum "Si O2"
_cell_formula_units_Z 120
_cell_length_a 27.150677
_cell_length_b 25.567564
_cell_length_c 9.270641
_cell_angle_alpha 90.000000
_cell_angle_beta 90.000000
_cell_angle_gamma 90.000000
_cell_volume 6435.462715
_symmetry_space_group_name_H-M "C M M M"
_symmetry_group_IT_number 65
_symmetry_cell_setting 'orthorhombic'
loop_
_space_group_symop_operation_xyz
x,y,z
-x,-y,z
x,-y,-z
-x,y,-z
-x,-y,-z
x,y,-z
-x,y,z
x,-y,z
1/2+x,1/2+y,z
1/2-x,1/2-y,z
1/2+x,1/2-y,-z
1/2-x,1/2+y,-z
1/2-x,1/2-y,-z
1/2+x,1/2+y,-z
1/2-x,1/2+y,z
1/2+x,1/2-y,z
loop_
_atom_site_type_symbol
_atom_site_label
_atom_site_fract_x
_atom_site_fract_y
_atom_site_fract_z
Si Si1 0.054208 0.562214 0.661781
Si Si2 0.353565 0.227983 0.667321
Si Si3 0.000000 0.062032 0.332432
Si Si4 0.918428 0.125181 0.829881
Si Si5 0.285757 0.133213 0.669536
Si Si6 0.055046 0.756491 0.166574
Si Si7 0.146343 0.562000 0.836990
Si Si8 0.325534 0.344983 0.667989
O O1 0.065008 0.582500 0.500000
O O2 0.055464 0.500000 0.663548
O O3 0.096041 0.584785 0.767016
O O4 0.000000 0.581442 0.713077
O O5 0.364205 0.221261 0.500000
O O6 0.315425 0.184391 0.722542
O O7 0.406140 0.221789 0.745341
O O8 0.329534 0.283676 0.703361
O O9 0.048470 0.083090 0.252455
O O10 0.000000 0.079784 0.500000
O O11 0.000000 0.000000 0.319424
O O12 0.940319 0.182234 0.796856
O O13 0.863306 0.121853 0.765340
O O14 0.917730 0.112607 0.000000
O O15 0.291892 0.125070 0.500000
O O16 0.306658 0.082775 0.750669
O O17 0.228964 0.137905 0.712716
O O18 0.000000 0.738378 0.208616
O O19 0.066134 0.746895 0.000000
O O20 0.147800 0.500000 0.828257
O O21 0.148201 0.582284 0.000000
O O22 0.336551 0.355928 0.500000
#
# Coordination Sequence:
#
# PCOD8269380 Si02
#       8
#    16  16   8  16  16  16  16  16
#     4   8  14  27  49  74  96 120 156 202 250 300
#     4   9  18  32  52  80 107 134 172 218 265 313
#     4  11  23  37  55  81 113 147 185 229 272 319
#     4  10  19  34  55  80 108 140 178 220 265 318
#     4  10  20  35  55  77 105 139 176 219 265 315
#     4   9  17  31  50  75 108 143 176 213 258 316
#     4  10  21  35  51  73 101 133 172 216 260 309
#     4   9  18  34  56  81 107 137 173 217 267 317
#
# _framework density 18.646678000000001
#
# number of rings (size 3 to 8) (size 9 to 14) (size 15 to 20)
#    0.000    2.600    0.667    1.800    0.000    5.067 
#    0.000    2.667    0.000    5.600    0.000    0.000 
#    0.000    0.000    0.000    0.000    0.000    0.000 
#
# Total GULP energy -744017.947720 kJ/mol
# GULP energy per Si atom -12400.299129 kJ/mol
# Density = 1.860424 g / cm^3
# Si number density = 18.646678 Si / 1000 Ang^3
#
#
#
# Elastic Constant Matrix: (Units=GPa)
#
#
# Indices 1 2 3 4 5 6 
#
# 1 161.6351 38.8271 73.2537 0.0000 0.0000 0.0000
# 2 38.8271 36.9781 34.5775 0.0000 0.0000 0.0000
# 3 73.2537 34.5775 86.9721 0.0000 0.0000 0.0000
# 4 0.0000 0.0000 0.0000 22.3922 0.0000 0.0000
# 5 0.0000 0.0000 0.0000 0.0000 23.4646 0.0000
# 6 0.0000 0.0000 0.0000 0.0000 0.0000 24.0725
#
#
#
# Elastic Compliance Matrix: (Units=1/GPa)
#
#
# Indices 1 2 3 4 5 6 
#
# 1 0.010429 -0.004356 -0.007052 0.000000 0.000000 0.000000
# 2 -0.004356 0.044865 -0.014168 0.000000 0.000000 0.000000
# 3 -0.007052 -0.014168 0.023071 0.000000 0.000000 0.000000
# 4 0.000000 0.000000 0.000000 0.044658 0.000000 0.000000
# 5 0.000000 0.000000 0.000000 0.000000 0.042617 0.000000
# 6 0.000000 0.000000 0.000000 0.000000 0.000000 0.041541
#
#
# Mechanical properties :
#
#
# Convention : Reuss Voigt Hill
#
# Bulk Modulus (GPa) = 36.74831 64.32244 50.53537
# Shear Modulus (GPa) = 18.69814 23.24767 20.97290
#
# Velocity S-wave (km/s) = 3.17007 3.53476 3.35737
# Velocity P-wave (km/s) = 5.75757 7.15749 6.49536
#
# Compressibility (1/GPa) = 0.02721214
#
# Stress axis : x y z
#
# Youngs Moduli (GPa) = 95.88272 22.28890 43.34515
#
# Poissons Ratio (x) = 0.09710 0.30569
# Poissons Ratio (y) = 0.41770 0.61411
# Poissons Ratio (z) = 0.67620 0.31579
#
# Static dielectric constant tensor:
#      x y z
#    x 3.646370 0.000000 0.000000 
#    y 0.000000 3.119050 0.000000 
#    z 0.000000 0.000000 3.464250 
# 
# 
# High freq. dielectric constant tensor:
#      x y z
#    x 1.733720 0.000000 0.000000 
#    y 0.000000 1.695480 0.000000 
#    z 0.000000 0.000000 1.721870 
# 
# From -- ./inp_files/17118.got.cif
#   From: 2010.03.12/outbox.cif.g09.slc.cpg/sg65_9_cif.got.tgz:17118.got - 2010.04.10 20:52:16.
