data_PCOD8269962
_publ_section_title
;
Structure prediction by ZEFSAII (Michael W. Deem and Ramdas Pophale) SiO2 
 PCOD8269962
Probable space group: C M M M
;
_chemical_formula_sum "Si O2"
_cell_formula_units_Z 112
_cell_length_a 19.623266
_cell_length_b 18.005542
_cell_length_c 18.482007
_cell_angle_alpha 90.000000
_cell_angle_beta 90.000000
_cell_angle_gamma 90.000000
_cell_volume 6530.202070
_symmetry_space_group_name_H-M "C M M M"
_symmetry_group_IT_number 65
_symmetry_cell_setting 'orthorhombic'
loop_
_space_group_symop_operation_xyz
x,y,z
-x,-y,z
x,-y,-z
-x,y,-z
-x,-y,-z
x,y,-z
-x,y,z
x,-y,z
1/2+x,1/2+y,z
1/2-x,1/2-y,z
1/2+x,1/2-y,-z
1/2-x,1/2+y,-z
1/2-x,1/2-y,-z
1/2+x,1/2+y,-z
1/2-x,1/2+y,z
1/2+x,1/2-y,z
loop_
_atom_site_type_symbol
_atom_site_label
_atom_site_fract_x
_atom_site_fract_y
_atom_site_fract_z
Si Si1 0.781360 0.913350 0.823540
Si Si2 0.160043 0.588301 0.082289
Si Si3 0.921227 0.640730 0.212583
Si Si4 0.820348 0.292097 0.581128
Si Si5 0.924800 0.914743 0.779130
Si Si6 0.075998 0.224501 0.311770
Si Si7 0.806601 0.583845 0.306135
O O1 0.736229 0.886518 0.891715
O O2 0.862031 0.895056 0.833698
O O3 0.750995 0.880778 0.747891
O O4 0.769067 0.000000 0.816382
O O5 0.149187 0.500000 0.090076
O O6 0.104378 0.632032 0.130027
O O7 0.151105 0.614332 0.000000
O O8 0.908365 0.724983 0.240775
O O9 0.878922 0.585484 0.264201
O O10 0.000000 0.618040 0.216289
O O11 0.847081 0.307183 0.500000
O O12 0.750000 0.250000 0.579187
O O13 0.874236 0.240701 0.622383
O O14 0.810141 0.370417 0.620274
O O15 0.917381 0.861943 0.709687
O O16 0.000000 0.902421 0.815799
O O17 0.917769 0.000000 0.752668
O O18 0.000000 0.242123 0.339413
O O19 0.789555 0.500000 0.328635
#
# Coordination Sequence:
#
# PCOD8269962 Si02
#       7
#    16  16  16  16  16  16  16
#     4   8  14  26  44  65  90 117 144 180 225 267
#     4   9  17  28  43  65  93 125 156 183 217 262
#     4   9  17  29  45  66  93 123 154 187 223 265
#     4  10  20  32  46  66  92 121 153 187 223 267
#     4   9  16  27  48  74  90 104 139 191 234 267
#     4   9  18  32  49  68  91 120 149 180 225 275
#     4   9  17  29  46  66  88 119 156 191 228 265
#
# _framework density 17.151077000000001
#
# number of rings (size 3 to 8) (size 9 to 14) (size 15 to 20)
#    0.000    3.000    0.000    2.143    0.000    2.000 
#    0.000    0.714    0.000    3.429    0.000   11.000 
#    0.000    0.000    0.000    0.000    0.000    0.000 
#
# Total GULP energy -693909.109046 kJ/mol
# GULP energy per Si atom -12391.234090 kJ/mol
# Density = 1.711204 g / cm^3
# Si number density = 17.151077 Si / 1000 Ang^3
#
#
#
# Elastic Constant Matrix: (Units=GPa)
#
#
# Indices 1 2 3 4 5 6 
#
# 1 121.2096 20.5559 48.2375 0.0000 0.0000 0.0000
# 2 20.5559 52.9632 28.9386 0.0000 0.0000 0.0000
# 3 48.2375 28.9386 117.0827 0.0000 0.0000 0.0000
# 4 0.0000 0.0000 0.0000 16.4557 0.0000 0.0000
# 5 0.0000 0.0000 0.0000 0.0000 12.7413 0.0000
# 6 0.0000 0.0000 0.0000 0.0000 0.0000 18.9018
#
#
#
# Elastic Compliance Matrix: (Units=1/GPa)
#
#
# Indices 1 2 3 4 5 6 
#
# 1 0.010029 -0.001890 -0.003665 0.000000 0.000000 0.000000
# 2 -0.001890 0.022185 -0.004705 0.000000 0.000000 0.000000
# 3 -0.003665 -0.004705 0.011214 0.000000 0.000000 0.000000
# 4 0.000000 0.000000 0.000000 0.060769 0.000000 0.000000
# 5 0.000000 0.000000 0.000000 0.000000 0.078485 0.000000
# 6 0.000000 0.000000 0.000000 0.000000 0.000000 0.052905
#
#
# Mechanical properties :
#
#
# Convention : Reuss Voigt Hill
#
# Bulk Modulus (GPa) = 43.65109 54.07995 48.86552
# Shear Modulus (GPa) = 18.95789 22.52134 20.73962
#
# Velocity S-wave (km/s) = 3.32828 3.62762 3.48117
# Velocity P-wave (km/s) = 6.34635 7.01043 6.68664
#
# Compressibility (1/GPa) = 0.02290893
#
# Stress axis : x y z
#
# Youngs Moduli (GPa) = 99.70895 45.07513 89.17676
#
# Poissons Ratio (x) = 0.08519 0.32682
# Poissons Ratio (y) = 0.18846 0.41955
# Poissons Ratio (z) = 0.36542 0.21206
#
# Static dielectric constant tensor:
#      x y z
#    x 3.494810 0.000000 0.000000 
#    y 0.000000 3.105400 0.000000 
#    z 0.000000 0.000000 3.075510 
# 
# 
# High freq. dielectric constant tensor:
#      x y z
#    x 1.677120 0.000000 0.000000 
#    y 0.000000 1.648660 0.000000 
#    z 0.000000 0.000000 1.627750 
# 
# From -- ./inp_files/54862.got.cif
#   From: 2010.03.12/outbox.cif.g09.slc.cpg/sg65_28_cif.got.tgz:54862.got - 2010.04.10 20:52:16.
