data_PCOD8269646
_publ_section_title
;
Structure prediction by ZEFSAII (Michael W. Deem and Ramdas Pophale) SiO2 
 PCOD8269646
Probable space group: C M M M
;
_chemical_formula_sum "Si O2"
_cell_formula_units_Z 104
_cell_length_a 8.802247
_cell_length_b 20.180770
_cell_length_c 26.739233
_cell_angle_alpha 90.000000
_cell_angle_beta 90.000000
_cell_angle_gamma 90.000000
_cell_volume 4749.853660
_symmetry_space_group_name_H-M "C M M M"
_symmetry_group_IT_number 65
_symmetry_cell_setting 'orthorhombic'
loop_
_space_group_symop_operation_xyz
x,y,z
-x,-y,z
x,-y,-z
-x,y,-z
-x,-y,-z
x,y,-z
-x,y,z
x,-y,z
1/2+x,1/2+y,z
1/2-x,1/2-y,z
1/2+x,1/2-y,-z
1/2-x,1/2+y,-z
1/2-x,1/2-y,-z
1/2+x,1/2+y,-z
1/2-x,1/2+y,z
1/2+x,1/2-y,z
loop_
_atom_site_type_symbol
_atom_site_label
_atom_site_fract_x
_atom_site_fract_y
_atom_site_fract_z
Si Si1 0.679249 0.371003 0.738551
Si Si2 0.324866 0.369993 0.556844
Si Si3 0.179196 0.576764 0.088871
Si Si4 0.820579 0.316379 0.831798
Si Si5 0.678106 0.184343 0.646975
Si Si6 0.820781 0.500000 0.275311
Si Si7 0.680928 0.825596 0.000000
Si Si8 0.827848 0.000000 0.619380
O O1 0.500000 0.364424 0.738893
O O2 0.752571 0.317638 0.775696
O O3 0.741417 0.370537 0.681188
O O4 0.741878 0.441472 0.755715
O O5 0.266059 0.370938 0.500000
O O6 0.500000 0.347819 0.559412
O O7 0.222998 0.319178 0.588604
O O8 0.297707 0.440118 0.581982
O O9 0.245989 0.500000 0.086141
O O10 0.226075 0.615526 0.139708
O O11 0.000000 0.569630 0.084396
O O12 0.236097 0.628140 0.046207
O O13 0.750000 0.250000 0.857579
O O14 0.000000 0.307894 0.830323
O O15 0.500000 0.181819 0.654532
O O16 0.750000 0.250000 0.670405
O O17 0.788134 0.500000 0.334839
O O18 0.000000 0.500000 0.266591
O O19 0.750000 0.750000 0.000000
O O20 0.500000 0.815728 0.000000
O O21 0.000000 0.000000 0.640866
#
# Coordination Sequence:
#
# PCOD8269646 Si02
#       8
#    16  16  16  16  16   8   8   8
#     4  12  25  43  65  91 124 161 204 255 312 374
#     4  10  21  38  61  89 120 154 192 238 295 360
#     4   9  19  36  61  94 129 171 223 277 326 379
#     4  11  23  40  63  92 128 169 215 268 324 387
#     4  12  25  42  63  87 116 154 200 251 306 367
#     4  12  24  39  63  95 125 158 199 248 305 371
#     4  10  19  35  63  95 131 174 224 274 328 390
#     4  10  19  36  62  90 121 155 189 233 289 356
#
# _framework density 21.895409999999998
#
# number of rings (size 3 to 8) (size 9 to 14) (size 15 to 20)
#    0.000    1.231    1.538    5.308    1.077    2.462 
#    0.000    0.769    0.000    4.154    0.000    0.000 
#    0.000    0.000    0.000    0.000    0.000    0.000 
#
# Total GULP energy -644332.640721 kJ/mol
# GULP energy per Si atom -12391.012322 kJ/mol
# Density = 2.184558 g / cm^3
# Si number density = 21.895410 Si / 1000 Ang^3
#
#
#
# Elastic Constant Matrix: (Units=GPa)
#
#
# Indices 1 2 3 4 5 6 
#
# 1 125.1085 48.3314 39.1583 0.0000 0.0000 0.0000
# 2 48.3314 146.5702 40.7915 0.0000 0.0000 0.0000
# 3 39.1583 40.7915 109.5028 0.0000 0.0000 0.0000
# 4 0.0000 0.0000 0.0000 37.2095 0.0000 0.0000
# 5 0.0000 0.0000 0.0000 0.0000 22.5431 0.0000
# 6 0.0000 0.0000 0.0000 0.0000 0.0000 34.7624
#
#
#
# Elastic Compliance Matrix: (Units=1/GPa)
#
#
# Indices 1 2 3 4 5 6 
#
# 1 0.009762 -0.002507 -0.002557 0.000000 0.000000 0.000000
# 2 -0.002507 0.008256 -0.002179 0.000000 0.000000 0.000000
# 3 -0.002557 -0.002179 0.010858 0.000000 0.000000 0.000000
# 4 0.000000 0.000000 0.000000 0.026875 0.000000 0.000000
# 5 0.000000 0.000000 0.000000 0.000000 0.044359 0.000000
# 6 0.000000 0.000000 0.000000 0.000000 0.000000 0.028767
#
#
# Mechanical properties :
#
#
# Convention : Reuss Voigt Hill
#
# Bulk Modulus (GPa) = 69.49313 70.86042 70.17677
# Shear Modulus (GPa) = 33.74736 35.76302 34.75519
#
# Velocity S-wave (km/s) = 3.93020 4.04587 3.98845
# Velocity P-wave (km/s) = 7.23898 7.36605 7.30279
#
# Compressibility (1/GPa) = 0.01438991
#
# Stress axis : x y z
#
# Youngs Moduli (GPa) = 102.43797 121.12607 92.09672
#
# Poissons Ratio (x) = 0.30371 0.23548
# Poissons Ratio (y) = 0.25686 0.20066
# Poissons Ratio (z) = 0.26192 0.26391
#
# Static dielectric constant tensor:
#      x y z
#    x 3.602660 0.000000 0.000000 
#    y 0.000000 4.547980 0.000000 
#    z 0.000000 0.000000 3.983830 
# 
# 
# High freq. dielectric constant tensor:
#      x y z
#    x 1.833990 0.000000 0.000000 
#    y 0.000000 1.885570 0.000000 
#    z 0.000000 0.000000 1.861260 
# 
# From -- ./inp_files/73435.got.cif
#   From: 2010.03.12/outbox.cif.g09.slc.cpg/sg65_37_cif.got.tgz:73435.got - 2010.04.10 20:52:16.
