data_PCOD8269891
_publ_section_title
;
Structure prediction by ZEFSAII (Michael W. Deem and Ramdas Pophale) SiO2 
 PCOD8269891
Probable space group: C M M M
;
_chemical_formula_sum "Si O2"
_cell_formula_units_Z 104
_cell_length_a 29.846022
_cell_length_b 9.093084
_cell_length_c 28.331503
_cell_angle_alpha 90.000000
_cell_angle_beta 90.000000
_cell_angle_gamma 90.000000
_cell_volume 7688.954173
_symmetry_space_group_name_H-M "C M M M"
_symmetry_group_IT_number 65
_symmetry_cell_setting 'orthorhombic'
loop_
_space_group_symop_operation_xyz
x,y,z
-x,-y,z
x,-y,-z
-x,y,-z
-x,-y,-z
x,y,-z
-x,y,z
x,-y,z
1/2+x,1/2+y,z
1/2-x,1/2-y,z
1/2+x,1/2-y,-z
1/2-x,1/2+y,-z
1/2-x,1/2-y,-z
1/2+x,1/2+y,-z
1/2-x,1/2+y,z
1/2+x,1/2-y,z
loop_
_atom_site_type_symbol
_atom_site_label
_atom_site_fract_x
_atom_site_fract_y
_atom_site_fract_z
Si Si1 0.052822 0.829873 0.123479
Si Si2 0.293564 0.333661 0.056180
Si Si3 0.450818 0.174882 0.500000
Si Si4 0.882665 0.670566 0.944472
Si Si5 0.946687 0.334237 0.216934
Si Si6 0.446355 0.165474 0.398901
Si Si7 0.946550 0.165372 0.308293
O O1 0.075074 0.746951 0.079754
O O2 0.070258 0.758344 0.172115
O O3 0.000000 0.809557 0.117738
O O4 0.066714 0.000000 0.123381
O O5 0.294408 0.500000 0.075886
O O6 0.250000 0.250000 0.076352
O O7 0.337378 0.247568 0.073917
O O8 0.291961 0.334909 0.000000
O O9 0.500000 0.247693 0.500000
O O10 0.426949 0.220468 0.450289
O O11 0.455663 0.000000 0.500000
O O12 0.880562 0.500000 0.930612
O O13 0.888805 0.692480 0.000000
O O14 0.927959 0.500000 0.213549
O O15 0.927740 0.259397 0.264442
O O16 0.000000 0.334812 0.218348
O O17 0.500000 0.169612 0.401187
O O18 0.427767 0.268691 0.357316
O O19 0.430168 0.000000 0.387962
O O20 0.000000 0.169421 0.308351
O O21 0.928614 0.000000 0.303230
#
# Coordination Sequence:
#
# PCOD8269891 Si02
#       7
#    16  16   8  16  16  16  16
#     4  10  20  32  44  57  74  96 121 150 184 219
#     4   9  16  27  44  64  84 103 122 145 174 207
#     4   7  10  16  25  35  47  65  89 115 143 181
#     4  10  20  32  45  61  80 101 125 150 175 208
#     4   9  16  26  39  51  62  79 105 136 169 205
#     4   8  12  18  27  37  49  67  91 117 147 186
#     4   9  15  21  29  42  58  73  92 122 159 196
#
# _framework density 13.525897000000001
#
# number of rings (size 3 to 8) (size 9 to 14) (size 15 to 20)
#    0.000    3.000    0.000    3.231    0.000    7.692 
#    0.000    1.923    0.000    2.308    0.000    0.000 
#    0.000    0.000    0.000    0.000    0.000    0.000 
#
# Total GULP energy -644466.335070 kJ/mol
# GULP energy per Si atom -12393.583367 kJ/mol
# Density = 1.349511 g / cm^3
# Si number density = 13.525897 Si / 1000 Ang^3
#
#
#
# Elastic Constant Matrix: (Units=GPa)
#
#
# Indices 1 2 3 4 5 6 
#
# 1 24.9982 27.0759 24.9077 0.0000 0.0000 0.0000
# 2 27.0759 120.0350 53.6210 0.0000 0.0000 0.0000
# 3 24.9077 53.6210 77.2222 0.0000 0.0000 0.0000
# 4 0.0000 0.0000 0.0000 20.1237 0.0000 0.0000
# 5 0.0000 0.0000 0.0000 0.0000 0.4760 0.0000
# 6 0.0000 0.0000 0.0000 0.0000 0.0000 15.2395
#
#
#
# Elastic Compliance Matrix: (Units=1/GPa)
#
#
# Indices 1 2 3 4 5 6 
#
# 1 0.063255 -0.007472 -0.015215 0.000000 0.000000 0.000000
# 2 -0.007472 0.012960 -0.006589 0.000000 0.000000 0.000000
# 3 -0.015215 -0.006589 0.022432 0.000000 0.000000 0.000000
# 4 0.000000 0.000000 0.000000 0.049693 0.000000 0.000000
# 5 0.000000 0.000000 0.000000 0.000000 2.100923 0.000000
# 6 0.000000 0.000000 0.000000 0.000000 0.000000 0.065619
#
#
# Mechanical properties :
#
#
# Convention : Reuss Voigt Hill
#
# Bulk Modulus (GPa) = 24.93968 48.16275 36.55122
# Shear Modulus (GPa) = 2.09486 14.94455 8.51971
#
# Velocity S-wave (km/s) = 1.24585 3.32759 2.51247
# Velocity P-wave (km/s) = 4.53299 7.10274 5.95806
#
# Compressibility (1/GPa) = 0.04009674
#
# Stress axis : x y z
#
# Youngs Moduli (GPa) = 15.80897 77.16304 44.57902
#
# Poissons Ratio (x) = 0.57655 0.67825
# Poissons Ratio (y) = 0.11812 0.29372
# Poissons Ratio (z) = 0.24053 0.50841
#
# Static dielectric constant tensor:
#      x y z
#    x 2.189460 0.000000 0.000000 
#    y 0.000000 2.857690 0.000000 
#    z 0.000000 0.000000 2.837530 
# 
# 
# High freq. dielectric constant tensor:
#      x y z
#    x 1.437080 0.000000 0.000000 
#    y 0.000000 1.529460 0.000000 
#    z 0.000000 0.000000 1.512680 
# 
# From -- ./inp_files/76254.got.cif
#   From: 2010.03.12/outbox.cif.g09.slc.cpg/sg65_39_cif.got.tgz:76254.got - 2010.04.10 20:52:16.
