data_PCOD8269443
_publ_section_title
;
Structure prediction by ZEFSAII (Michael W. Deem and Ramdas Pophale) SiO2 
 PCOD8269443
Probable space group: C M M M
;
_chemical_formula_sum "Si O2"
_cell_formula_units_Z 96
_cell_length_a 25.447960
_cell_length_b 8.849539
_cell_length_c 23.328157
_cell_angle_alpha 90.000000
_cell_angle_beta 90.000000
_cell_angle_gamma 90.000000
_cell_volume 5253.564280
_symmetry_space_group_name_H-M "C M M M"
_symmetry_group_IT_number 65
_symmetry_cell_setting 'orthorhombic'
loop_
_space_group_symop_operation_xyz
x,y,z
-x,-y,z
x,-y,-z
-x,y,-z
-x,-y,-z
x,y,-z
-x,y,z
x,-y,z
1/2+x,1/2+y,z
1/2-x,1/2-y,z
1/2+x,1/2-y,-z
1/2-x,1/2+y,-z
1/2-x,1/2-y,-z
1/2+x,1/2+y,-z
1/2-x,1/2+y,z
1/2+x,1/2-y,z
loop_
_atom_site_type_symbol
_atom_site_label
_atom_site_fract_x
_atom_site_fract_y
_atom_site_fract_z
Si Si1 0.500000 0.320378 0.936052
Si Si2 0.600635 0.678564 0.132743
Si Si3 0.194915 0.822328 0.434938
Si Si4 0.439087 0.174894 0.755738
Si Si5 0.500000 0.820105 0.435588
Si Si6 0.194586 0.322193 0.934642
Si Si7 0.601312 0.176025 0.369834
O O1 0.500000 0.500000 0.936862
O O2 0.551384 0.259974 0.903808
O O3 0.500000 0.253286 0.000000
O O4 0.607235 0.500000 0.127427
O O5 0.591028 0.723241 0.198277
O O6 0.652380 0.757028 0.109046
O O7 0.179385 0.774815 0.500000
O O8 0.250000 0.750000 0.417230
O O9 0.152285 0.765207 0.389878
O O10 0.200535 0.000000 0.429390
O O11 0.500000 0.224089 0.749934
O O12 0.408709 0.204909 0.696871
O O13 0.435525 0.000000 0.773598
O O14 0.500000 0.758545 0.500000
O O15 0.448376 0.757757 0.404332
O O16 0.500000 0.000000 0.432303
O O17 0.198862 0.500000 0.926399
O O18 0.250000 0.250000 0.918124
O O19 0.179052 0.279585 0.000000
O O20 0.609497 0.000000 0.383270
#
# Coordination Sequence:
#
# PCOD8269443 Si02
#       7
#     8  16  16  16   8  16  16
#     4   9  18  31  49  77 111 143 178 223 274 327
#     4  11  21  35  56  82 113 150 191 231 277 332
#     4  10  21  37  57  82 112 146 183 227 280 334
#     4  10  20  36  56  79 112 151 191 234 278 327
#     4   9  16  27  49  81 111 139 176 221 270 327
#     4  10  21  38  60  86 115 148 185 228 281 336
#     4  10  19  34  56  82 110 146 188 228 274 328
#
# _framework density 18.273306999999999
#
# number of rings (size 3 to 8) (size 9 to 14) (size 15 to 20)
#    0.000    2.000    1.667    2.500    0.000    4.000 
#    0.000    1.250    0.000    7.500    0.000    0.000 
#    0.000    0.000    0.000    0.000    0.000    0.000 
#
# Total GULP energy -595359.505665 kJ/mol
# GULP energy per Si atom -12403.323035 kJ/mol
# Density = 1.823172 g / cm^3
# Si number density = 18.273307 Si / 1000 Ang^3
#
#
#
# Elastic Constant Matrix: (Units=GPa)
#
#
# Indices 1 2 3 4 5 6 
#
# 1 146.6442 52.2328 67.7106 0.0000 0.0000 0.0000
# 2 52.2328 63.6426 38.2743 0.0000 0.0000 0.0000
# 3 67.7106 38.2743 105.6789 0.0000 0.0000 0.0000
# 4 0.0000 0.0000 0.0000 28.8769 0.0000 0.0000
# 5 0.0000 0.0000 0.0000 0.0000 25.6953 0.0000
# 6 0.0000 0.0000 0.0000 0.0000 0.0000 29.0992
#
#
#
# Elastic Compliance Matrix: (Units=1/GPa)
#
#
# Indices 1 2 3 4 5 6 
#
# 1 0.011385 -0.006337 -0.004999 0.000000 0.000000 0.000000
# 2 -0.006337 0.023616 -0.004493 0.000000 0.000000 0.000000
# 3 -0.004999 -0.004493 0.014293 0.000000 0.000000 0.000000
# 4 0.000000 0.000000 0.000000 0.034630 0.000000 0.000000
# 5 0.000000 0.000000 0.000000 0.000000 0.038918 0.000000
# 6 0.000000 0.000000 0.000000 0.000000 0.000000 0.034365
#
#
# Mechanical properties :
#
#
# Convention : Reuss Voigt Hill
#
# Bulk Modulus (GPa) = 56.70512 70.26679 63.48595
# Shear Modulus (GPa) = 25.67492 27.25081 26.46287
#
# Velocity S-wave (km/s) = 3.75247 3.86591 3.80961
# Velocity P-wave (km/s) = 7.06213 7.64616 7.35994
#
# Compressibility (1/GPa) = 0.01763509
#
# Stress axis : x y z
#
# Youngs Moduli (GPa) = 87.83648 42.34479 69.96476
#
# Poissons Ratio (x) = 0.26835 0.34977
# Poissons Ratio (y) = 0.55664 0.31433
# Poissons Ratio (z) = 0.43912 0.19024
#
# Static dielectric constant tensor:
#      x y z
#    x 3.400390 0.000000 0.000000 
#    y 0.000000 3.201430 0.000000 
#    z 0.000000 0.000000 3.385180 
# 
# 
# High freq. dielectric constant tensor:
#      x y z
#    x 1.713040 0.000000 0.000000 
#    y 0.000000 1.696790 0.000000 
#    z 0.000000 0.000000 1.709710 
# 
# From -- ./inp_files/71456.got.cif
#   From: 2010.03.12/outbox.cif.g09.slc.cpg/sg65_36_cif.got.tgz:71456.got - 2010.04.10 20:52:16.
