data_PCOD8269421
_publ_section_title
;
Structure prediction by ZEFSAII (Michael W. Deem and Ramdas Pophale) SiO2 
 PCOD8269421
Probable space group: C M M M
;
_chemical_formula_sum "Si O2"
_cell_formula_units_Z 104
_cell_length_a 19.306418
_cell_length_b 33.162145
_cell_length_c 9.003178
_cell_angle_alpha 90.000000
_cell_angle_beta 90.000000
_cell_angle_gamma 90.000000
_cell_volume 5764.214788
_symmetry_space_group_name_H-M "C M M M"
_symmetry_group_IT_number 65
_symmetry_cell_setting 'orthorhombic'
loop_
_space_group_symop_operation_xyz
x,y,z
-x,-y,z
x,-y,-z
-x,y,-z
-x,-y,-z
x,y,-z
-x,y,z
x,-y,z
1/2+x,1/2+y,z
1/2-x,1/2-y,z
1/2+x,1/2-y,-z
1/2-x,1/2+y,-z
1/2-x,1/2-y,-z
1/2+x,1/2+y,-z
1/2-x,1/2+y,z
1/2+x,1/2-y,z
loop_
_atom_site_type_symbol
_atom_site_label
_atom_site_fract_x
_atom_site_fract_y
_atom_site_fract_z
Si Si1 0.322303 0.157016 0.824641
Si Si2 0.671616 0.760192 0.325374
Si Si3 0.580546 0.306713 0.827323
Si Si4 0.676065 0.621443 0.171766
Si Si5 0.221984 0.045196 0.325625
Si Si6 0.500000 0.046495 0.163357
Si Si7 0.630102 0.919809 0.675159
O O1 0.348122 0.199001 0.758214
O O2 0.243040 0.147406 0.778218
O O3 0.371329 0.123593 0.752680
O O4 0.332311 0.157878 0.000000
O O5 0.662802 0.766287 0.500000
O O6 0.750000 0.750000 0.281234
O O7 0.620036 0.725505 0.272438
O O8 0.500000 0.305901 0.786129
O O9 0.608993 0.351542 0.791098
O O10 0.593768 0.296475 0.000000
O O11 0.670803 0.578569 0.255502
O O12 0.681504 0.610624 0.000000
O O13 0.211083 0.046988 0.500000
O O14 0.300642 0.055816 0.282091
O O15 0.204978 0.000000 0.266364
O O16 0.566530 0.056002 0.260656
O O17 0.500000 0.000000 0.131841
O O18 0.500000 0.068141 0.000000
O O19 0.622604 0.914347 0.500000
#
# Coordination Sequence:
#
# PCOD8269421 Si02
#       7
#    16  16  16  16  16   8  16
#     4  10  19  34  56  79 106 138 177 223 273 323
#     4  11  22  35  56  84 113 145 184 227 270 322
#     4  10  21  38  58  81 110 144 183 225 274 328
#     4   9  18  32  53  80 106 136 172 215 265 317
#     4   9  18  32  52  79 107 135 171 217 268 321
#     4  11  23  37  53  75 105 143 187 229 273 331
#     4  10  20  35  54  76 105 139 179 226 276 328
#
# _framework density 18.042354
#
# number of rings (size 3 to 8) (size 9 to 14) (size 15 to 20)
#    0.000    2.077    1.538    2.077    0.000    4.308 
#    1.385    0.000    0.000    0.462    0.000    3.231 
#    0.000    0.000    0.000    0.000    0.000    0.000 
#
# Total GULP energy -644858.186115 kJ/mol
# GULP energy per Si atom -12401.118964 kJ/mol
# Density = 1.800129 g / cm^3
# Si number density = 18.042354 Si / 1000 Ang^3
#
#
#
# Elastic Constant Matrix: (Units=GPa)
#
#
# Indices 1 2 3 4 5 6 
#
# 1 81.2102 42.1230 36.2714 0.0000 0.0000 0.0000
# 2 42.1230 141.3368 54.5581 0.0000 0.0000 0.0000
# 3 36.2714 54.5581 69.9919 0.0000 0.0000 0.0000
# 4 0.0000 0.0000 0.0000 35.7349 0.0000 0.0000
# 5 0.0000 0.0000 0.0000 0.0000 26.7738 0.0000
# 6 0.0000 0.0000 0.0000 0.0000 0.0000-1990.6468
#
#
#
# Elastic Compliance Matrix: (Units=1/GPa)
#
#
# Indices 1 2 3 4 5 6 
#
# 1 0.016537 -0.002318 -0.006763 0.000000 0.000000 0.000000
# 2 -0.002318 0.010445 -0.006941 0.000000 0.000000 0.000000
# 3 -0.006763 -0.006941 0.023202 0.000000 0.000000 0.000000
# 4 0.000000 0.000000 0.000000 0.027984 0.000000 0.000000
# 5 0.000000 0.000000 0.000000 0.000000 0.037350 0.000000
# 6 0.000000 0.000000 0.000000 0.000000 0.000000 -0.000502
#
#
# Mechanical properties :
#
#
# Convention : Reuss Voigt Hill
#
# Bulk Modulus (GPa) = 55.12357 62.04933 58.58645
# Shear Modulus (GPa) = 32.65708 -374.98854 -171.16573
#
# Velocity S-wave (km/s) = 4.25905 -14.43223 -9.75063
# Velocity P-wave (km/s) = 7.40302 15.59658 9.70692
#
# Compressibility (1/GPa) = 0.01814106
#
# Stress axis : x y z
#
# Youngs Moduli (GPa) = 60.47226 95.73577 43.09889
#
# Poissons Ratio (x) = 0.22190 0.29147
# Poissons Ratio (y) = 0.14017 0.29915
# Poissons Ratio (z) = 0.40896 0.66450
#
# Static dielectric constant tensor:
#      x y z
#    x 3.184580 0.000000 0.000000 
#    y 0.000000 3.487710 0.000000 
#    z 0.000000 0.000000 3.343740 
# 
# 
# High freq. dielectric constant tensor:
#      x y z
#    x 1.671820 0.000000 0.000000 
#    y 0.000000 1.707200 0.000000 
#    z 0.000000 0.000000 1.705340 
# 
# From -- ./inp_files/12838.got.cif
#   From: 2010.03.12/outbox.cif.g09.slc.cpg/sg65_7_cif.got.tgz:12838.got - 2010.04.10 20:52:16.
