data_PCOD8269092
_publ_section_title
;
Structure prediction by ZEFSAII (Michael W. Deem and Ramdas Pophale) SiO2 
 PCOD8269092
Probable space group: C M M M
;
_chemical_formula_sum "Si O2"
_cell_formula_units_Z 64
_cell_length_a 8.834911
_cell_length_b 15.854373
_cell_length_c 22.176570
_cell_angle_alpha 90.000000
_cell_angle_beta 90.000000
_cell_angle_gamma 90.000000
_cell_volume 3106.315946
_symmetry_space_group_name_H-M "C M M M"
_symmetry_group_IT_number 65
_symmetry_cell_setting 'orthorhombic'
loop_
_space_group_symop_operation_xyz
x,y,z
-x,-y,z
x,-y,-z
-x,y,-z
-x,-y,-z
x,y,-z
-x,y,z
x,-y,z
1/2+x,1/2+y,z
1/2-x,1/2-y,z
1/2+x,1/2-y,-z
1/2-x,1/2+y,-z
1/2-x,1/2-y,-z
1/2+x,1/2+y,-z
1/2-x,1/2+y,z
1/2+x,1/2-y,z
loop_
_atom_site_type_symbol
_atom_site_label
_atom_site_fract_x
_atom_site_fract_y
_atom_site_fract_z
Si Si1 0.325291 0.339049 0.000000
Si Si2 0.178737 0.157703 0.869829
Si Si3 0.180001 0.000000 0.568079
Si Si4 0.320651 0.663877 0.639744
Si Si5 0.327619 0.904262 0.754093
O O1 0.250000 0.250000 0.000000
O O2 0.284721 0.384446 0.063790
O O3 0.500000 0.318681 0.000000
O O4 0.250000 0.250000 0.864816
O O5 0.254766 0.098738 0.820215
O O6 0.000000 0.163026 0.858176
O O7 0.239917 0.084541 0.600848
O O8 0.242463 0.000000 0.500000
O O9 0.000000 0.000000 0.569334
O O10 0.500000 0.670479 0.637628
O O11 0.250000 0.750000 0.612854
O O12 0.266523 0.653903 0.708580
O O13 0.500000 0.871683 0.756199
O O14 0.319306 0.000000 0.731130
#
# Coordination Sequence:
#
# PCOD8269092 Si02
#       5
#     8  16   8  16  16
#     4   8  16  30  49  74 103 139 181 233 287 347
#     4  10  19  33  54  79 108 142 187 236 292 354
#     4   9  20  40  65  93 127 164 201 242 289 347
#     4  11  22  39  64  92 123 161 203 245 296 351
#     4  11  23  38  56  80 113 150 194 247 299 349
#
# _framework density 20.603183999999999
#
# number of rings (size 3 to 8) (size 9 to 14) (size 15 to 20)
#    0.000    1.875    1.250    3.000    0.000    3.000 
#    0.000    0.625    0.000    9.000    0.000    0.000 
#    0.000    0.000    0.000    0.000    0.000    0.000 
#
# Total GULP energy -396646.498691 kJ/mol
# GULP energy per Si atom -12395.203084 kJ/mol
# Density = 2.055629 g / cm^3
# Si number density = 20.603184 Si / 1000 Ang^3
#
#
#
# Elastic Constant Matrix: (Units=GPa)
#
#
# Indices 1 2 3 4 5 6 
#
# 1 88.7094 38.8063 40.3280 0.0000 0.0000 0.0000
# 2 38.8063 114.6903 53.6604 0.0000 0.0000 0.0000
# 3 40.3280 53.6604 141.4051 0.0000 0.0000 0.0000
# 4 0.0000 0.0000 0.0000 35.2822 0.0000 0.0000
# 5 0.0000 0.0000 0.0000 0.0000 19.1792 0.0000
# 6 0.0000 0.0000 0.0000 0.0000 0.0000 28.7432
#
#
#
# Elastic Compliance Matrix: (Units=1/GPa)
#
#
# Indices 1 2 3 4 5 6 
#
# 1 0.014015 -0.003492 -0.002672 0.000000 0.000000 0.000000
# 2 -0.003492 0.011471 -0.003357 0.000000 0.000000 0.000000
# 3 -0.002672 -0.003357 0.009108 0.000000 0.000000 0.000000
# 4 0.000000 0.000000 0.000000 0.028343 0.000000 0.000000
# 5 0.000000 0.000000 0.000000 0.000000 0.052140 0.000000
# 6 0.000000 0.000000 0.000000 0.000000 0.000000 0.034791
#
#
# Mechanical properties :
#
#
# Convention : Reuss Voigt Hill
#
# Bulk Modulus (GPa) = 64.30010 67.82159 66.06085
# Shear Modulus (GPa) = 28.72010 30.77493 29.74751
#
# Velocity S-wave (km/s) = 3.73763 3.86903 3.80390
# Velocity P-wave (km/s) = 7.06421 7.27658 7.17118
#
# Compressibility (1/GPa) = 0.01555207
#
# Stress axis : x y z
#
# Youngs Moduli (GPa) = 71.35209 87.17284 109.79460
#
# Poissons Ratio (x) = 0.30441 0.29336
# Poissons Ratio (y) = 0.24916 0.36861
# Poissons Ratio (z) = 0.19064 0.29267
#
# Static dielectric constant tensor:
#      x y z
#    x 3.611490 0.000000 0.000000 
#    y 0.000000 3.602420 0.000000 
#    z 0.000000 0.000000 4.102660 
# 
# 
# High freq. dielectric constant tensor:
#      x y z
#    x 1.801350 0.000000 0.000000 
#    y 0.000000 1.790390 0.000000 
#    z 0.000000 0.000000 1.814920 
# 
# From -- ./inp_files/66739.got.cif
#   From: 2010.03.12/outbox.cif.g09.slc.cpg/sg65_34_cif.got.tgz:66739.got - 2010.04.10 20:52:16.
