data_PCOD8269218
_publ_section_title
;
Structure prediction by ZEFSAII (Michael W. Deem and Ramdas Pophale) SiO2 
 PCOD8269218
Probable space group: C M M M
;
_chemical_formula_sum "Si O2"
_cell_formula_units_Z 72
_cell_length_a 18.971929
_cell_length_b 22.341488
_cell_length_c 9.434126
_cell_angle_alpha 90.000000
_cell_angle_beta 90.000000
_cell_angle_gamma 90.000000
_cell_volume 3998.759251
_symmetry_space_group_name_H-M "C M M M"
_symmetry_group_IT_number 65
_symmetry_cell_setting 'orthorhombic'
loop_
_space_group_symop_operation_xyz
x,y,z
-x,-y,z
x,-y,-z
-x,y,-z
-x,-y,-z
x,y,-z
-x,y,z
x,-y,z
1/2+x,1/2+y,z
1/2-x,1/2-y,z
1/2+x,1/2-y,-z
1/2-x,1/2+y,-z
1/2-x,1/2-y,-z
1/2+x,1/2+y,-z
1/2-x,1/2+y,z
1/2+x,1/2-y,z
loop_
_atom_site_type_symbol
_atom_site_label
_atom_site_fract_x
_atom_site_fract_y
_atom_site_fract_z
Si Si1 0.081463 0.843548 0.335602
Si Si2 0.170580 0.612015 0.832601
Si Si3 0.172257 0.270271 0.665660
Si Si4 0.174810 0.069057 0.165500
Si Si5 0.920418 0.500000 0.168447
O O1 0.094065 0.857447 0.500000
O O2 0.118639 0.781931 0.292066
O O3 0.112732 0.898523 0.248680
O O4 0.000000 0.837124 0.297167
O O5 0.147758 0.672059 0.753067
O O6 0.250243 0.596229 0.789912
O O7 0.119854 0.559069 0.777463
O O8 0.162771 0.621612 0.000000
O O9 0.169651 0.286034 0.500000
O O10 0.250000 0.250000 0.712364
O O11 0.173707 0.000000 0.208738
O O12 0.161237 0.077746 0.000000
O O13 0.000000 0.500000 0.228375
O O14 0.919756 0.500000 0.000000
#
# Coordination Sequence:
#
# PCOD8269218 Si02
#       5
#    16  16  16  16   8
#     4  10  22  39  56  77 108 143 178 220 270 321
#     4  10  19  33  56  83 108 140 181 220 261 314
#     4  10  20  35  55  79 106 139 179 220 266 318
#     4  10  20  35  56  81 109 140 177 222 268 314
#     4   9  18  34  55  81 114 145 174 216 269 319
#
# _framework density 18.005585
#
# number of rings (size 3 to 8) (size 9 to 14) (size 15 to 20)
#    0.000    2.111    3.333    0.000    0.000    3.556 
#    0.000    2.778    0.000    0.667    0.000    0.000 
#    0.000    0.000    0.000    0.000    0.000    0.000 
#
# Total GULP energy -446544.254433 kJ/mol
# GULP energy per Si atom -12404.007068 kJ/mol
# Density = 1.796460 g / cm^3
# Si number density = 18.005585 Si / 1000 Ang^3
#
#
#
# Elastic Constant Matrix: (Units=GPa)
#
#
# Indices 1 2 3 4 5 6 
#
# 1 99.5880 41.7258 30.8758 0.0000 0.0000 0.0000
# 2 41.7258 120.5785 46.9176 0.0000 0.0000 0.0000
# 3 30.8758 46.9176 37.4486 0.0000 0.0000 0.0000
# 4 0.0000 0.0000 0.0000 21.1281 0.0000 0.0000
# 5 0.0000 0.0000 0.0000 0.0000 21.5847 0.0000
# 6 0.0000 0.0000 0.0000 0.0000 0.0000 34.4251
#
#
#
# Elastic Compliance Matrix: (Units=1/GPa)
#
#
# Indices 1 2 3 4 5 6 
#
# 1 0.013517 -0.000666 -0.010311 0.000000 0.000000 0.000000
# 2 -0.000666 0.016215 -0.019766 0.000000 0.000000 0.000000
# 3 -0.010311 -0.019766 0.059968 0.000000 0.000000 0.000000
# 4 0.000000 0.000000 0.000000 0.047330 0.000000 0.000000
# 5 0.000000 0.000000 0.000000 0.000000 0.046329 0.000000
# 6 0.000000 0.000000 0.000000 0.000000 0.000000 0.029049
#
#
# Mechanical properties :
#
#
# Convention : Reuss Voigt Hill
#
# Bulk Modulus (GPa) = 35.44157 55.18370 45.31264
# Shear Modulus (GPa) = 17.64937 24.63399 21.14168
#
# Velocity S-wave (km/s) = 3.13424 3.70284 3.43034
# Velocity P-wave (km/s) = 5.72925 6.99971 6.39610
#
# Compressibility (1/GPa) = 0.02821545
#
# Stress axis : x y z
#
# Youngs Moduli (GPa) = 73.98158 61.67279 16.67561
#
# Poissons Ratio (x) = 0.04105 0.17194
# Poissons Ratio (y) = 0.04924 0.32961
# Poissons Ratio (z) = 0.76279 1.21901
#
# Static dielectric constant tensor:
#      x y z
#    x 3.416300 0.000000 0.000000 
#    y 0.000000 3.381470 0.000000 
#    z 0.000000 0.000000 3.093640 
# 
# 
# High freq. dielectric constant tensor:
#      x y z
#    x 1.699860 0.000000 0.000000 
#    y 0.000000 1.709410 0.000000 
#    z 0.000000 0.000000 1.677630 
# 
# From -- ./inp_files/9197.got.cif
#   From: 2010.03.12/outbox.cif.g09.slc.cpg/sg65_5_cif.got.tgz:9197.got - 2010.04.10 20:52:16.
