data_PCOD8269798
_publ_section_title
;
Structure prediction by ZEFSAII (Michael W. Deem and Ramdas Pophale) SiO2 
 PCOD8269798
Probable space group: C M M M
;
_chemical_formula_sum "Si O2"
_cell_formula_units_Z 128
_cell_length_a 28.542907
_cell_length_b 27.946494
_cell_length_c 9.704686
_cell_angle_alpha 90.000000
_cell_angle_beta 90.000000
_cell_angle_gamma 90.000000
_cell_volume 7741.177440
_symmetry_space_group_name_H-M "C M M M"
_symmetry_group_IT_number 65
_symmetry_cell_setting 'orthorhombic'
loop_
_space_group_symop_operation_xyz
x,y,z
-x,-y,z
x,-y,-z
-x,y,-z
-x,-y,-z
x,y,-z
-x,y,z
x,-y,z
1/2+x,1/2+y,z
1/2-x,1/2-y,z
1/2+x,1/2-y,-z
1/2-x,1/2+y,-z
1/2-x,1/2-y,-z
1/2+x,1/2+y,-z
1/2-x,1/2+y,z
1/2+x,1/2-y,z
loop_
_atom_site_type_symbol
_atom_site_label
_atom_site_fract_x
_atom_site_fract_y
_atom_site_fract_z
Si Si1 0.814180 0.447391 0.837404
Si Si2 0.859126 0.353187 0.836929
Si Si3 0.444651 0.291882 0.652173
Si Si4 0.356402 0.445664 0.338368
Si Si5 0.230747 0.299482 0.838927
Si Si6 0.448716 0.603222 0.662943
Si Si7 0.446524 0.205825 0.160679
Si Si8 0.219031 0.103545 0.840848
O O1 0.824127 0.500000 0.771450
O O2 0.850075 0.407025 0.778491
O O3 0.761720 0.431217 0.800504
O O4 0.819980 0.451011 0.000000
O O5 0.820039 0.315901 0.777770
O O6 0.911955 0.337713 0.798443
O O7 0.851379 0.355229 0.000000
O O8 0.422550 0.282875 0.500000
O O9 0.500000 0.288955 0.639869
O O10 0.431253 0.344151 0.712080
O O11 0.427147 0.251815 0.758316
O O12 0.349237 0.435909 0.500000
O O13 0.344296 0.500000 0.299287
O O14 0.410322 0.435941 0.294207
O O15 0.324331 0.409520 0.254597
O O16 0.250000 0.250000 0.770320
O O17 0.268101 0.341427 0.810702
O O18 0.224246 0.290585 0.000000
O O19 0.454139 0.606019 0.500000
O O20 0.500000 0.589963 0.726394
O O21 0.500000 0.191743 0.200386
O O22 0.442699 0.218079 0.000000
O O23 0.205075 0.096380 0.000000
#
# Coordination Sequence:
#
# PCOD8269798 Si02
#       8
#    16  16  16  16  16  16  16  16
#     4   8  13  23  41  61  78 101 137 175 203 231
#     4   8  14  23  35  54  80 108 136 165 198 238
#     4   8  14  26  43  59  76 103 138 170 198 232
#     4  10  20  31  44  64  87 110 138 174 216 256
#     4   8  14  25  41  62  86 110 138 170 202 241
#     4   8  15  29  46  61  79 106 141 177 207 240
#     4   9  16  25  39  61  88 112 131 159 203 249
#     4   9  17  29  46  66  85 107 137 173 210 248
#
# _framework density 16.534952000000001
#
# number of rings (size 3 to 8) (size 9 to 14) (size 15 to 20)
#    0.000    3.500    0.000    2.625    0.000    2.000 
#    0.000    3.125    0.000    4.875    0.000    3.500 
#    0.000    0.000    0.000    3.125    0.000    3.250 
#
# Total GULP energy -792922.174435 kJ/mol
# GULP energy per Si atom -12389.408976 kJ/mol
# Density = 1.649732 g / cm^3
# Si number density = 16.534952 Si / 1000 Ang^3
#
#
#
# Elastic Constant Matrix: (Units=GPa)
#
#
# Indices 1 2 3 4 5 6 
#
# 1 86.4045 49.1968 24.8485 0.0000 0.0000 0.0000
# 2 49.1968 112.5081 21.2483 0.0000 0.0000 0.0000
# 3 24.8485 21.2483 26.0719 0.0000 0.0000 0.0000
# 4 0.0000 0.0000 0.0000 16.0669 0.0000 0.0000
# 5 0.0000 0.0000 0.0000 0.0000 14.6614 0.0000
# 6 0.0000 0.0000 0.0000 0.0000 0.0000 22.2423
#
#
#
# Elastic Compliance Matrix: (Units=1/GPa)
#
#
# Indices 1 2 3 4 5 6 
#
# 1 0.018546 -0.005639 -0.013080 0.000000 0.000000 0.000000
# 2 -0.005639 0.012220 -0.004584 0.000000 0.000000 0.000000
# 3 -0.013080 -0.004584 0.054557 0.000000 0.000000 0.000000
# 4 0.000000 0.000000 0.000000 0.062240 0.000000 0.000000
# 5 0.000000 0.000000 0.000000 0.000000 0.068206 0.000000
# 6 0.000000 0.000000 0.000000 0.000000 0.000000 0.044959
#
#
# Mechanical properties :
#
#
# Convention : Reuss Voigt Hill
#
# Bulk Modulus (GPa) = 25.82870 46.17464 36.00167
# Shear Modulus (GPa) = 15.61324 19.24017 17.42671
#
# Velocity S-wave (km/s) = 3.07621 3.41487 3.24995
# Velocity P-wave (km/s) = 5.31714 6.59807 5.99193
#
# Compressibility (1/GPa) = 0.03871662
#
# Stress axis : x y z
#
# Youngs Moduli (GPa) = 53.92034 81.83289 18.32933
#
# Poissons Ratio (x) = 0.46149 0.23974
# Poissons Ratio (y) = 0.30408 0.08403
# Poissons Ratio (z) = 0.70525 0.37515
#
# Static dielectric constant tensor:
#      x y z
#    x 3.092770 0.000000 0.000000 
#    y 0.000000 3.495010 0.000000 
#    z 0.000000 0.000000 2.737320 
# 
# 
# High freq. dielectric constant tensor:
#      x y z
#    x 1.625550 0.000000 0.000000 
#    y 0.000000 1.641340 0.000000 
#    z 0.000000 0.000000 1.580680 
# 
# From -- ./inp_files/31448.got.cif
#   From: 2010.03.12/outbox.cif.g09.slc.cpg/sg65_16_cif.got.tgz:31448.got - 2010.04.10 20:52:16.
