data_PCOD8269654
_publ_section_title
;
Structure prediction by ZEFSAII (Michael W. Deem and Ramdas Pophale) SiO2 
 PCOD8269654
Probable space group: C M M M
;
_chemical_formula_sum "Si O2"
_cell_formula_units_Z 112
_cell_length_a 17.457605
_cell_length_b 18.686874
_cell_length_c 18.934740
_cell_angle_alpha 90.000000
_cell_angle_beta 90.000000
_cell_angle_gamma 90.000000
_cell_volume 6177.043591
_symmetry_space_group_name_H-M "C M M M"
_symmetry_group_IT_number 65
_symmetry_cell_setting 'orthorhombic'
loop_
_space_group_symop_operation_xyz
x,y,z
-x,-y,z
x,-y,-z
-x,y,-z
-x,-y,-z
x,y,-z
-x,y,z
x,-y,z
1/2+x,1/2+y,z
1/2-x,1/2-y,z
1/2+x,1/2-y,-z
1/2-x,1/2+y,-z
1/2-x,1/2-y,-z
1/2+x,1/2+y,-z
1/2-x,1/2+y,z
1/2+x,1/2-y,z
loop_
_atom_site_type_symbol
_atom_site_label
_atom_site_fract_x
_atom_site_fract_y
_atom_site_fract_z
Si Si1 0.734959 0.334305 0.077953
Si Si2 0.415083 0.580175 0.082825
Si Si3 0.916029 0.304535 0.676675
Si Si4 0.718449 0.829062 0.223634
Si Si5 0.208615 0.081958 0.343360
Si Si6 0.634829 0.918210 0.579448
Si Si7 0.909671 0.173745 0.418213
O O1 0.750000 0.250000 0.071447
O O2 0.648134 0.358345 0.100416
O O3 0.786656 0.362527 0.143924
O O4 0.755190 0.367882 0.000000
O O5 0.500000 0.601275 0.113742
O O6 0.391757 0.500000 0.111098
O O7 0.423003 0.575175 0.000000
O O8 0.865858 0.324465 0.744248
O O9 0.923244 0.374048 0.627466
O O10 0.881171 0.241684 0.627726
O O11 0.000000 0.283618 0.704587
O O12 0.750000 0.750000 0.216212
O O13 0.776590 0.874675 0.271451
O O14 0.278215 0.094733 0.396753
O O15 0.132224 0.105628 0.384376
O O16 0.198897 0.000000 0.321642
O O17 0.626855 0.890613 0.500000
O O18 0.610488 0.000000 0.586630
O O19 0.886313 0.184592 0.500000
O O20 0.000000 0.161653 0.411252
#
# Coordination Sequence:
#
# PCOD8269654 Si02
#       7
#    16  16  16  16  16  16  16
#     4   9  18  32  52  79 109 138 175 224 270 317
#     4   8  14  27  49  77 109 142 173 210 262 320
#     4  10  20  34  52  74 101 135 177 220 260 312
#     4  10  19  36  55  73  98 138 177 211 260 312
#     4  10  20  34  51  74 104 137 173 212 255 310
#     4   9  18  31  49  74 101 130 167 215 268 312
#     4  10  20  33  51  76 104 139 181 220 261 310
#
# _framework density 18.131651000000002
#
# number of rings (size 3 to 8) (size 9 to 14) (size 15 to 20)
#    0.000    2.571    1.429    1.286    0.000    2.857 
#    0.000    7.143    0.000    1.286    0.000    0.000 
#    0.000    1.714    0.000   26.714    0.000    0.000 
#
# Total GULP energy -693782.994283 kJ/mol
# GULP energy per Si atom -12388.982041 kJ/mol
# Density = 1.809038 g / cm^3
# Si number density = 18.131651 Si / 1000 Ang^3
#
#
#
# Elastic Constant Matrix: (Units=GPa)
#
#
# Indices 1 2 3 4 5 6 
#
# 1 71.4144 40.7055 48.2087 0.0000 0.0000 0.0000
# 2 40.7055 70.9793 26.4490 0.0000 0.0000 0.0000
# 3 48.2087 26.4490 137.4193 0.0000 0.0000 0.0000
# 4 0.0000 0.0000 0.0000 16.4548 0.0000 0.0000
# 5 0.0000 0.0000 0.0000 0.0000 11.0112 0.0000
# 6 0.0000 0.0000 0.0000 0.0000 0.0000 29.3311
#
#
#
# Elastic Compliance Matrix: (Units=1/GPa)
#
#
# Indices 1 2 3 4 5 6 
#
# 1 0.025308 -0.012071 -0.006555 0.000000 0.000000 0.000000
# 2 -0.012071 0.020935 0.000205 0.000000 0.000000 0.000000
# 3 -0.006555 0.000205 0.009537 0.000000 0.000000 0.000000
# 4 0.000000 0.000000 0.000000 0.060772 0.000000 0.000000
# 5 0.000000 0.000000 0.000000 0.000000 0.090816 0.000000
# 6 0.000000 0.000000 0.000000 0.000000 0.000000 0.034094
#
#
# Mechanical properties :
#
#
# Convention : Reuss Voigt Hill
#
# Bulk Modulus (GPa) = 52.80323 56.72660 54.76491
# Shear Modulus (GPa) = 17.56744 22.32274 19.94509
#
# Velocity S-wave (km/s) = 3.11606 3.51258 3.32025
# Velocity P-wave (km/s) = 6.49090 6.91410 6.70584
#
# Compressibility (1/GPa) = 0.01893823
#
# Stress axis : x y z
#
# Youngs Moduli (GPa) = 39.51252 47.76744 104.85358
#
# Poissons Ratio (x) = 0.57662 0.68734
# Poissons Ratio (y) = 0.47697 -0.02155
# Poissons Ratio (z) = 0.25901 -0.00982
#
# Static dielectric constant tensor:
#      x y z
#    x 3.338230 0.000000 0.000000 
#    y 0.000000 3.418770 0.000000 
#    z 0.000000 0.000000 3.631670 
# 
# 
# High freq. dielectric constant tensor:
#      x y z
#    x 1.687420 0.000000 0.000000 
#    y 0.000000 1.695000 0.000000 
#    z 0.000000 0.000000 1.698860 
# 
# From -- ./inp_files/54837.got.cif
#   From: 2010.03.12/outbox.cif.g09.slc.cpg/sg65_28_cif.got.tgz:54837.got - 2010.04.10 20:52:16.
