data_PCOD8269699
_publ_section_title
;
Structure prediction by ZEFSAII (Michael W. Deem and Ramdas Pophale) SiO2 
 PCOD8269699
Probable space group: C M M M
;
_chemical_formula_sum "Si O2"
_cell_formula_units_Z 104
_cell_length_a 29.549777
_cell_length_b 9.026549
_cell_length_c 23.903101
_cell_angle_alpha 90.000000
_cell_angle_beta 90.000000
_cell_angle_gamma 90.000000
_cell_volume 6375.734127
_symmetry_space_group_name_H-M "C M M M"
_symmetry_group_IT_number 65
_symmetry_cell_setting 'orthorhombic'
loop_
_space_group_symop_operation_xyz
x,y,z
-x,-y,z
x,-y,-z
-x,y,-z
-x,-y,-z
x,y,-z
-x,y,z
x,-y,z
1/2+x,1/2+y,z
1/2-x,1/2-y,z
1/2+x,1/2-y,-z
1/2-x,1/2+y,-z
1/2-x,1/2-y,-z
1/2+x,1/2+y,-z
1/2-x,1/2+y,z
1/2+x,1/2-y,z
loop_
_atom_site_type_symbol
_atom_site_label
_atom_site_fract_x
_atom_site_fract_y
_atom_site_fract_z
Si Si1 0.703896 0.823207 0.377451
Si Si2 0.553358 0.165655 0.891224
Si Si3 0.617884 0.834123 0.692196
Si Si4 0.445929 0.667339 0.000000
Si Si5 0.082647 0.167810 0.500000
Si Si6 0.325025 0.174068 0.500000
Si Si7 0.552073 0.675344 0.223002
Si Si8 0.548349 0.839785 0.404763
O O1 0.750000 0.750000 0.355651
O O2 0.666003 0.773162 0.331460
O O3 0.695865 0.763666 0.441509
O O4 0.706976 0.000000 0.377774
O O5 0.500000 0.155409 0.897813
O O6 0.566261 0.257026 0.836285
O O7 0.574001 0.000000 0.887512
O O8 0.573427 0.249248 0.945330
O O9 0.591287 0.728308 0.734814
O O10 0.588706 0.839706 0.637334
O O11 0.622853 0.000000 0.718052
O O12 0.427291 0.500000 0.000000
O O13 0.500000 0.666506 0.000000
O O14 0.123124 0.283103 0.500000
O O15 0.052342 0.201372 0.446223
O O16 0.099970 0.000000 0.500000
O O17 0.320084 0.000000 0.500000
O O18 0.500000 0.723576 0.239206
O O19 0.554458 0.500000 0.218890
O O20 0.500000 0.820209 0.373510
O O21 0.549266 0.000000 0.436140
#
# Coordination Sequence:
#
# PCOD8269699 Si02
#       8
#    16  16  16   8   8   8  16  16
#     4  10  21  36  57  77  95 116 144 185 233 287
#     4   9  16  26  41  61  87 123 167 206 237 277
#     4  10  20  35  53  70  89 119 156 190 225 276
#     4   9  15  23  37  59  89 123 160 205 250 281
#     4  12  23  32  47  70  95 117 142 185 229 268
#     4  10  19  38  58  71  92 120 148 179 223 288
#     4  10  20  32  46  67  96 128 161 201 244 278
#     4  10  20  35  53  67  86 120 155 184 221 274
#
# _framework density 16.311847
#
# number of rings (size 3 to 8) (size 9 to 14) (size 15 to 20)
#    0.000    2.077    1.538    2.769    0.000    7.385 
#    0.000    0.000    0.000    0.000    0.000    0.000 
#    0.000    0.000    0.000    0.692    0.000    9.462 
#
# Total GULP energy -644243.361913 kJ/mol
# GULP energy per Si atom -12389.295421 kJ/mol
# Density = 1.627472 g / cm^3
# Si number density = 16.311847 Si / 1000 Ang^3
#
#
#
# Elastic Constant Matrix: (Units=GPa)
#
#
# Indices 1 2 3 4 5 6 
#
# 1 92.0316 25.7316 38.5884 0.0000 0.0000 0.0000
# 2 25.7316 70.5727 47.0670 0.0000 0.0000 0.0000
# 3 38.5884 47.0670 96.8985 0.0000 0.0000 0.0000
# 4 0.0000 0.0000 0.0000 -3.1303 0.0000 0.0000
# 5 0.0000 0.0000 0.0000 0.0000 -1.2564 0.0000
# 6 0.0000 0.0000 0.0000 0.0000 0.0000 20.4745
#
#
#
# Elastic Compliance Matrix: (Units=1/GPa)
#
#
# Indices 1 2 3 4 5 6 
#
# 1 0.013220 -0.001936 -0.004324 0.000000 0.000000 0.000000
# 2 -0.001936 0.021243 -0.009547 0.000000 0.000000 0.000000
# 3 -0.004324 -0.009547 0.016680 0.000000 0.000000 0.000000
# 4 0.000000 0.000000 0.000000 -0.319457 0.000000 0.000000
# 5 0.000000 0.000000 0.000000 0.000000 -0.795928 0.000000
# 6 0.000000 0.000000 0.000000 0.000000 0.000000 0.048841
#
#
# Mechanical properties :
#
#
# Convention : Reuss Voigt Hill
#
# Bulk Modulus (GPa) = 51.21066 53.58632 52.39849
# Shear Modulus (GPa) = -5.11627 13.09194 3.98784
#
# Velocity S-wave (km/s) = -1.77295 2.83610 1.56527
# Velocity P-wave (km/s) = 5.22224 6.60659 5.95478
#
# Compressibility (1/GPa) = 0.01952718
#
# Stress axis : x y z
#
# Youngs Moduli (GPa) = 75.64089 47.07374 59.95311
#
# Poissons Ratio (x) = 0.09115 0.25925
# Poissons Ratio (y) = 0.14646 0.57240
# Poissons Ratio (z) = 0.32709 0.44944
#
# Static dielectric constant tensor:
#      x y z
#    x 2.901900 0.000000 0.000000 
#    y 0.000000 3.176870 0.000000 
#    z 0.000000 0.000000 3.098370 
# 
# 
# High freq. dielectric constant tensor:
#      x y z
#    x 1.590720 0.000000 0.000000 
#    y 0.000000 1.631580 0.000000 
#    z 0.000000 0.000000 1.611440 
# 
# From -- ./inp_files/71923.got.cif
#   From: 2010.03.12/outbox.cif.g09.slc.cpg/sg65_36_cif.got.tgz:71923.got - 2010.04.10 20:52:16.
