data_PCOD8269402
_publ_section_title
;
Structure prediction by ZEFSAII (Michael W. Deem and Ramdas Pophale) SiO2 
 PCOD8269402
Probable space group: C M M M
;
_chemical_formula_sum "Si O2"
_cell_formula_units_Z 104
_cell_length_a 15.781251
_cell_length_b 20.521988
_cell_length_c 17.677074
_cell_angle_alpha 90.000000
_cell_angle_beta 90.000000
_cell_angle_gamma 90.000000
_cell_volume 5724.943918
_symmetry_space_group_name_H-M "C M M M"
_symmetry_group_IT_number 65
_symmetry_cell_setting 'orthorhombic'
loop_
_space_group_symop_operation_xyz
x,y,z
-x,-y,z
x,-y,-z
-x,y,-z
-x,-y,-z
x,y,-z
-x,y,z
x,-y,z
1/2+x,1/2+y,z
1/2-x,1/2-y,z
1/2+x,1/2-y,-z
1/2-x,1/2+y,-z
1/2-x,1/2-y,-z
1/2+x,1/2+y,-z
1/2-x,1/2+y,z
1/2+x,1/2-y,z
loop_
_atom_site_type_symbol
_atom_site_label
_atom_site_fract_x
_atom_site_fract_y
_atom_site_fract_z
Si Si1 0.500000 0.191927 0.911784
Si Si2 0.909390 0.073393 0.638257
Si Si3 0.399517 0.500000 0.087715
Si Si4 0.732958 0.077072 0.414828
Si Si5 0.837460 0.625951 0.732917
Si Si6 0.345371 0.749634 0.826765
Si Si7 0.500000 0.926867 0.193091
Si Si8 0.158217 0.897192 0.204018
O O1 0.585694 0.228811 0.888069
O O2 0.500000 0.119401 0.879275
O O3 0.500000 0.185756 0.000000
O O4 0.829153 0.104909 0.595164
O O5 0.895360 0.072053 0.728358
O O6 0.000000 0.108672 0.619953
O O7 0.916963 0.000000 0.609245
O O8 0.500000 0.500000 0.095645
O O9 0.361513 0.564721 0.126639
O O10 0.371599 0.500000 0.000000
O O11 0.701729 0.090642 0.500000
O O12 0.674083 0.117539 0.357384
O O13 0.729497 0.000000 0.395328
O O14 0.848937 0.702317 0.753810
O O15 0.918777 0.584646 0.754931
O O16 0.757978 0.596330 0.778487
O O17 0.250000 0.750000 0.862015
O O18 0.370254 0.677675 0.801173
O O19 0.500000 0.000000 0.162074
#
# Coordination Sequence:
#
# PCOD8269402 Si02
#       8
#     8  16   8  16  16  16   8  16
#     4  10  22  37  54  80 107 134 173 222 275 323
#     4   9  16  26  45  73 104 144 180 215 248 303
#     4  11  24  36  50  83 120 146 175 217 274 328
#     4   9  17  29  49  80 114 143 169 212 273 324
#     4   9  19  36  57  79 105 139 185 228 263 317
#     4   9  20  37  57  78 102 141 188 222 262 319
#     4  10  20  35  59  78  99 134 181 227 274 312
#     4  10  19  34  56  75 109 142 183 221 261 320
#
# _framework density 18.166115999999999
#
# number of rings (size 3 to 8) (size 9 to 14) (size 15 to 20)
#    0.000    2.538    0.769    0.923    4.308    1.385 
#    0.000    8.077    0.000   12.923    0.000    0.000 
#    0.000    0.000    0.000    0.000    0.000    0.000 
#
# Total GULP energy -644568.957774 kJ/mol
# GULP energy per Si atom -12395.556880 kJ/mol
# Density = 1.812477 g / cm^3
# Si number density = 18.166116 Si / 1000 Ang^3
#
#
#
# Elastic Constant Matrix: (Units=GPa)
#
#
# Indices 1 2 3 4 5 6 
#
# 1 107.2078 37.2967 47.3643 0.0000 0.0000 0.0000
# 2 37.2967 95.1981 43.0007 0.0000 0.0000 0.0000
# 3 47.3643 43.0007 133.5216 0.0000 0.0000 0.0000
# 4 0.0000 0.0000 0.0000 15.0822 0.0000 0.0000
# 5 0.0000 0.0000 0.0000 0.0000 18.5183 0.0000
# 6 0.0000 0.0000 0.0000 0.0000 0.0000 21.5270
#
#
#
# Elastic Compliance Matrix: (Units=1/GPa)
#
#
# Indices 1 2 3 4 5 6 
#
# 1 0.011844 -0.003209 -0.003168 0.000000 0.000000 0.000000
# 2 -0.003209 0.013162 -0.003100 0.000000 0.000000 0.000000
# 3 -0.003168 -0.003100 0.009612 0.000000 0.000000 0.000000
# 4 0.000000 0.000000 0.000000 0.066303 0.000000 0.000000
# 5 0.000000 0.000000 0.000000 0.000000 0.054001 0.000000
# 6 0.000000 0.000000 0.000000 0.000000 0.000000 0.046453
#
#
# Mechanical properties :
#
#
# Convention : Reuss Voigt Hill
#
# Bulk Modulus (GPa) = 63.84667 65.69455 64.77061
# Shear Modulus (GPa) = 22.16797 24.90988 23.53892
#
# Velocity S-wave (km/s) = 3.49706 3.70703 3.60357
# Velocity P-wave (km/s) = 7.17831 7.38678 7.28329
#
# Compressibility (1/GPa) = 0.01566252
#
# Stress axis : x y z
#
# Youngs Moduli (GPa) = 84.43325 75.97513 104.04037
#
# Poissons Ratio (x) = 0.24382 0.32958
# Poissons Ratio (y) = 0.27097 0.32257
# Poissons Ratio (z) = 0.26747 0.23556
#
# Static dielectric constant tensor:
#      x y z
#    x 3.787550 0.000000 0.000000 
#    y 0.000000 3.264490 0.000000 
#    z 0.000000 0.000000 3.147150 
# 
# 
# High freq. dielectric constant tensor:
#      x y z
#    x 1.715440 0.000000 0.000000 
#    y 0.000000 1.687570 0.000000 
#    z 0.000000 0.000000 1.682690 
# 
# From -- ./inp_files/53378.got.cif
#   From: 2010.03.12/outbox.cif.g09.slc.cpg/sg65_27_cif.got.tgz:53378.got - 2010.04.10 20:52:16.
