data_PCOD8269939
_publ_section_title
;
Structure prediction by ZEFSAII (Michael W. Deem and Ramdas Pophale) SiO2 
 PCOD8269939
Probable space group: C M M M
;
_chemical_formula_sum "Si O2"
_cell_formula_units_Z 96
_cell_length_a 9.219425
_cell_length_b 27.805085
_cell_length_c 23.702919
_cell_angle_alpha 90.000000
_cell_angle_beta 90.000000
_cell_angle_gamma 90.000000
_cell_volume 6076.169706
_symmetry_space_group_name_H-M "C M M M"
_symmetry_group_IT_number 65
_symmetry_cell_setting 'orthorhombic'
loop_
_space_group_symop_operation_xyz
x,y,z
-x,-y,z
x,-y,-z
-x,y,-z
-x,-y,-z
x,y,-z
-x,y,z
x,-y,z
1/2+x,1/2+y,z
1/2-x,1/2-y,z
1/2+x,1/2-y,-z
1/2-x,1/2+y,-z
1/2-x,1/2-y,-z
1/2+x,1/2+y,-z
1/2-x,1/2+y,z
1/2+x,1/2-y,z
loop_
_atom_site_type_symbol
_atom_site_label
_atom_site_fract_x
_atom_site_fract_y
_atom_site_fract_z
Si Si1 0.830936 0.644641 0.845021
Si Si2 0.672591 0.054215 0.562239
Si Si3 0.168113 0.201361 0.934749
Si Si4 0.672205 0.053095 0.221099
Si Si5 0.331079 0.200825 0.731691
Si Si6 0.672814 0.892612 0.670501
O O1 0.734888 0.657972 0.898921
O O2 0.782830 0.590690 0.827595
O O3 0.796827 0.681124 0.794047
O O4 0.000000 0.646653 0.861294
O O5 0.726552 0.070775 0.500000
O O6 0.500000 0.054831 0.563968
O O7 0.735341 0.090427 0.609818
O O8 0.727067 0.000000 0.574693
O O9 0.250000 0.250000 0.917966
O O10 0.000000 0.208274 0.919881
O O11 0.191697 0.188481 0.000000
O O12 0.500000 0.051538 0.224562
O O13 0.732400 0.071107 0.281510
O O14 0.735537 0.000000 0.207627
O O15 0.500000 0.210907 0.724914
O O16 0.250000 0.250000 0.719721
O O17 0.277514 0.161663 0.685338
O O18 0.500000 0.894459 0.671022
#
# Coordination Sequence:
#
# PCOD8269939 Si02
#       6
#    16  16  16  16  16  16
#     4   9  17  28  43  64  86 107 134 167 202 241
#     4   8  12  17  28  49  76 104 131 159 196 242
#     4  10  20  32  46  64  85 109 136 165 200 242
#     4   8  13  22  38  59  81 105 133 166 203 241
#     4   9  17  27  39  57  80 106 135 165 199 239
#     4   8  13  21  33  51  77 106 133 163 201 242
#
# _framework density 15.799427
#
# number of rings (size 3 to 8) (size 9 to 14) (size 15 to 20)
#    0.000    3.333    0.000    4.000    0.000    5.000 
#    0.000    0.000    0.000    1.500    0.000    3.500 
#    0.000    2.000    0.000    1.833    0.000    3.500 
#
# Total GULP energy -594861.732744 kJ/mol
# GULP energy per Si atom -12392.952766 kJ/mol
# Density = 1.576347 g / cm^3
# Si number density = 15.799427 Si / 1000 Ang^3
#
#
#
# Elastic Constant Matrix: (Units=GPa)
#
#
# Indices 1 2 3 4 5 6 
#
# 1 34.9996 35.5054 36.5656 0.0000 0.0000 0.0000
# 2 35.5054 143.7448 73.3664 0.0000 0.0000 0.0000
# 3 36.5656 73.3664 106.5764 0.0000 0.0000 0.0000
# 4 0.0000 0.0000 0.0000 27.9852 0.0000 0.0000
# 5 0.0000 0.0000 0.0000 0.0000 9.9875 0.0000
# 6 0.0000 0.0000 0.0000 0.0000 0.0000 17.1387
#
#
#
# Elastic Compliance Matrix: (Units=1/GPa)
#
#
# Indices 1 2 3 4 5 6 
#
# 1 0.046929 -0.005201 -0.012520 0.000000 0.000000 0.000000
# 2 -0.005201 0.011301 -0.005995 0.000000 0.000000 0.000000
# 3 -0.012520 -0.005995 0.017806 0.000000 0.000000 0.000000
# 4 0.000000 0.000000 0.000000 0.035733 0.000000 0.000000
# 5 0.000000 0.000000 0.000000 0.000000 0.100125 0.000000
# 6 0.000000 0.000000 0.000000 0.000000 0.000000 0.058348
#
#
# Mechanical properties :
#
#
# Convention : Reuss Voigt Hill
#
# Bulk Modulus (GPa) = 34.96259 64.02173 49.49216
# Shear Modulus (GPa) = 15.28070 20.34782 17.81426
#
# Velocity S-wave (km/s) = 3.11331 3.59260 3.36151
# Velocity P-wave (km/s) = 5.92458 7.60385 6.81613
#
# Compressibility (1/GPa) = 0.02860200
#
# Stress axis : x y z
#
# Youngs Moduli (GPa) = 21.30891 88.48400 56.16157
#
# Poissons Ratio (x) = 0.46022 0.70317
# Poissons Ratio (y) = 0.11083 0.33671
# Poissons Ratio (z) = 0.26680 0.53049
#
# Static dielectric constant tensor:
#      x y z
#    x 2.546490 0.000000 0.000000 
#    y 0.000000 3.189110 0.000000 
#    z 0.000000 0.000000 3.140320 
# 
# 
# High freq. dielectric constant tensor:
#      x y z
#    x 1.557940 0.000000 0.000000 
#    y 0.000000 1.603100 0.000000 
#    z 0.000000 0.000000 1.601150 
# 
# From -- ./inp_files/68033.got.cif
#   From: 2010.03.12/outbox.cif.g09.slc.cpg/sg65_35_cif.got.tgz:68033.got - 2010.04.10 20:52:16.
