data_PCOD8269861
_publ_section_title
;
Structure prediction by ZEFSAII (Michael W. Deem and Ramdas Pophale) SiO2 
 PCOD8269861
Probable space group: C M M M
;
_chemical_formula_sum "Si O2"
_cell_formula_units_Z 72
_cell_length_a 15.640770
_cell_length_b 9.090746
_cell_length_c 24.504450
_cell_angle_alpha 90.000000
_cell_angle_beta 90.000000
_cell_angle_gamma 90.000000
_cell_volume 3484.196278
_symmetry_space_group_name_H-M "C M M M"
_symmetry_group_IT_number 65
_symmetry_cell_setting 'orthorhombic'
loop_
_space_group_symop_operation_xyz
x,y,z
-x,-y,z
x,-y,-z
-x,y,-z
-x,-y,-z
x,y,-z
-x,y,z
x,-y,z
1/2+x,1/2+y,z
1/2-x,1/2-y,z
1/2+x,1/2-y,-z
1/2-x,1/2+y,-z
1/2-x,1/2-y,-z
1/2+x,1/2+y,-z
1/2-x,1/2+y,z
1/2+x,1/2-y,z
loop_
_atom_site_type_symbol
_atom_site_label
_atom_site_fract_x
_atom_site_fract_y
_atom_site_fract_z
Si Si1 0.402943 0.340314 0.839731
Si Si2 0.659522 0.173292 0.381649
Si Si3 0.337574 0.829277 0.256465
Si Si4 0.101726 0.335438 0.940139
Si Si5 0.500000 0.331560 0.435443
O O1 0.500000 0.365289 0.856372
O O2 0.359459 0.500000 0.829226
O O3 0.404429 0.241534 0.785089
O O4 0.357122 0.262165 0.891497
O O5 0.750000 0.250000 0.395651
O O6 0.634276 0.198869 0.318674
O O7 0.584953 0.247528 0.416381
O O8 0.666432 0.000000 0.395502
O O9 0.250000 0.750000 0.242837
O O10 0.328408 0.000000 0.244321
O O11 0.137969 0.500000 0.933629
O O12 0.000000 0.339940 0.934846
O O13 0.127708 0.272091 0.000000
O O14 0.500000 0.500000 0.413476
O O15 0.500000 0.330301 0.500000
#
# Coordination Sequence:
#
# PCOD8269861 Si02
#       5
#    16  16  16  16   8
#     4  10  20  31  47  76 108 140 179 224 276 331
#     4  10  22  41  65  93 124 163 207 253 306 361
#     4  10  21  37  57  80 109 144 184 228 280 339
#     4   8  14  26  44  66  95 133 176 223 275 329
#     4  11  25  43  65  95 129 167 208 251 300 353
#
# _framework density 20.664736000000001
#
# number of rings (size 3 to 8) (size 9 to 14) (size 15 to 20)
#    0.000    2.333    0.000    3.000    1.556    5.778 
#    0.000    2.222    0.000    0.667    0.000    0.000 
#    0.000    0.000    0.000    0.000    0.000    0.000 
#
# Total GULP energy -446210.793342 kJ/mol
# GULP energy per Si atom -12394.744259 kJ/mol
# Density = 2.061770 g / cm^3
# Si number density = 20.664736 Si / 1000 Ang^3
#
#
#
# Elastic Constant Matrix: (Units=GPa)
#
#
# Indices 1 2 3 4 5 6 
#
# 1 68.1968 49.8416 40.1047 0.0000 0.0000 0.0000
# 2 49.8416 164.7975 73.4383 0.0000 0.0000 0.0000
# 3 40.1047 73.4383 110.6916 0.0000 0.0000 0.0000
# 4 0.0000 0.0000 0.0000 34.2608 0.0000 0.0000
# 5 0.0000 0.0000 0.0000 0.0000 -0.9380 0.0000
# 6 0.0000 0.0000 0.0000 0.0000 0.0000 28.0993
#
#
#
# Elastic Compliance Matrix: (Units=1/GPa)
#
#
# Indices 1 2 3 4 5 6 
#
# 1 0.020402 -0.004084 -0.004682 0.000000 0.000000 0.000000
# 2 -0.004084 0.009433 -0.004778 0.000000 0.000000 0.000000
# 3 -0.004682 -0.004778 0.013901 0.000000 0.000000 0.000000
# 4 0.000000 0.000000 0.000000 0.029188 0.000000 0.000000
# 5 0.000000 0.000000 0.000000 0.000000 -1.066071 0.000000
# 6 0.000000 0.000000 0.000000 0.000000 0.000000 0.035588
#
#
# Mechanical properties :
#
#
# Convention : Reuss Voigt Hill
#
# Bulk Modulus (GPa) = 60.07476 74.49501 67.28489
# Shear Modulus (GPa) = -5.40586 24.30449 9.44932
#
# Velocity S-wave (km/s) = -1.61915 3.43320 2.14070
# Velocity P-wave (km/s) = 5.06347 7.20024 6.22423
#
# Compressibility (1/GPa) = 0.01664592
#
# Stress axis : x y z
#
# Youngs Moduli (GPa) = 49.01581 106.01602 71.93809
#
# Poissons Ratio (x) = 0.43294 0.33684
# Poissons Ratio (y) = 0.20017 0.34375
# Poissons Ratio (z) = 0.22951 0.50659
#
# Static dielectric constant tensor:
#      x y z
#    x 3.150540 0.000000 0.000000 
#    y 0.000000 4.183140 0.000000 
#    z 0.000000 0.000000 3.837440 
# 
# 
# High freq. dielectric constant tensor:
#      x y z
#    x 1.777850 0.000000 0.000000 
#    y 0.000000 1.822960 0.000000 
#    z 0.000000 0.000000 1.814050 
# 
# From -- ./inp_files/67058.got.cif
#   From: 2010.03.12/outbox.cif.g09.slc.cpg/sg65_34_cif.got.tgz:67058.got - 2010.04.10 20:52:16.
