data_PCOD8269508
_publ_section_title
;
Structure prediction by ZEFSAII (Michael W. Deem and Ramdas Pophale) SiO2 
 PCOD8269508
Probable space group: C M M M
;
_chemical_formula_sum "Si O2"
_cell_formula_units_Z 72
_cell_length_a 18.684508
_cell_length_b 19.735734
_cell_length_c 10.120466
_cell_angle_alpha 90.000000
_cell_angle_beta 90.000000
_cell_angle_gamma 90.000000
_cell_volume 3731.946934
_symmetry_space_group_name_H-M "C M M M"
_symmetry_group_IT_number 65
_symmetry_cell_setting 'orthorhombic'
loop_
_space_group_symop_operation_xyz
x,y,z
-x,-y,z
x,-y,-z
-x,y,-z
-x,-y,-z
x,y,-z
-x,y,z
x,-y,z
1/2+x,1/2+y,z
1/2-x,1/2-y,z
1/2+x,1/2-y,-z
1/2-x,1/2+y,-z
1/2-x,1/2-y,-z
1/2+x,1/2+y,-z
1/2-x,1/2+y,z
1/2+x,1/2-y,z
loop_
_atom_site_type_symbol
_atom_site_label
_atom_site_fract_x
_atom_site_fract_y
_atom_site_fract_z
Si Si1 0.175855 0.786072 0.851579
Si Si2 0.584247 0.793413 0.653664
Si Si3 0.920879 0.079544 0.500000
Si Si4 0.683485 0.422940 0.268839
Si Si5 0.843336 0.427321 0.650825
O O1 0.250000 0.750000 0.812588
O O2 0.116479 0.765184 0.744917
O O3 0.183494 0.868045 0.848835
O O4 0.152896 0.765351 0.000000
O O5 0.607010 0.782056 0.500000
O O6 0.500000 0.792941 0.669169
O O7 0.614197 0.864410 0.713767
O O8 0.878165 0.100748 0.369575
O O9 0.000000 0.114526 0.500000
O O10 0.930080 0.000000 0.500000
O O11 0.670869 0.500000 0.215785
O O12 0.758506 0.417225 0.343767
O O13 0.867475 0.430727 0.500000
O O14 0.863900 0.500000 0.718806
#
# Coordination Sequence:
#
# PCOD8269508 Si02
#       5
#    16  16   8  16  16
#     4  11  24  40  58  83 116 155 195 238 291 347
#     4  10  22  38  59  88 118 153 195 238 287 345
#     4   9  18  32  53  86 121 147 183 240 295 341
#     4  10  19  34  58  84 113 151 191 235 288 344
#     4   9  16  30  55  87 119 150 187 233 286 342
#
# _framework density 19.292878999999999
#
# number of rings (size 3 to 8) (size 9 to 14) (size 15 to 20)
#    0.000    2.111    3.333    0.000    1.556    2.667 
#    0.000    2.222    0.000    0.667    0.000    6.222 
#    0.000    0.000    0.000    0.000    0.000    0.000 
#
# Total GULP energy -446159.378356 kJ/mol
# GULP energy per Si atom -12393.316065 kJ/mol
# Density = 1.924897 g / cm^3
# Si number density = 19.292879 Si / 1000 Ang^3
#
#
#
# Elastic Constant Matrix: (Units=GPa)
#
#
# Indices 1 2 3 4 5 6 
#
# 1 95.2673 42.0853 38.1018 0.0000 0.0000 0.0000
# 2 42.0853 131.6264 40.5457 0.0000 0.0000 0.0000
# 3 38.1018 40.5457 66.3802 0.0000 0.0000 0.0000
# 4 0.0000 0.0000 0.0000 18.7316 0.0000 0.0000
# 5 0.0000 0.0000 0.0000 0.0000 14.9216 0.0000
# 6 0.0000 0.0000 0.0000 0.0000 0.0000 25.8518
#
#
#
# Elastic Compliance Matrix: (Units=1/GPa)
#
#
# Indices 1 2 3 4 5 6 
#
# 1 0.014268 -0.002512 -0.006656 0.000000 0.000000 0.000000
# 2 -0.002512 0.009800 -0.004544 0.000000 0.000000 0.000000
# 3 -0.006656 -0.004544 0.021661 0.000000 0.000000 0.000000
# 4 0.000000 0.000000 0.000000 0.053386 0.000000 0.000000
# 5 0.000000 0.000000 0.000000 0.000000 0.067017 0.000000
# 6 0.000000 0.000000 0.000000 0.000000 0.000000 0.038682
#
#
# Mechanical properties :
#
#
# Convention : Reuss Voigt Hill
#
# Bulk Modulus (GPa) = 54.62789 59.41550 57.02170
# Shear Modulus (GPa) = 20.97848 23.40374 22.19111
#
# Velocity S-wave (km/s) = 3.30111 3.48670 3.39517
# Velocity P-wave (km/s) = 6.55029 6.86097 6.70743
#
# Compressibility (1/GPa) = 0.01830567
#
# Stress axis : x y z
#
# Youngs Moduli (GPa) = 70.08539 102.03894 46.16662
#
# Poissons Ratio (x) = 0.25631 0.30727
# Poissons Ratio (y) = 0.17605 0.20979
# Poissons Ratio (z) = 0.46646 0.46369
#
# Static dielectric constant tensor:
#      x y z
#    x 3.546530 0.000000 0.000000 
#    y 0.000000 3.897600 0.000000 
#    z 0.000000 0.000000 3.095800 
# 
# 
# High freq. dielectric constant tensor:
#      x y z
#    x 1.743190 0.000000 0.000000 
#    y 0.000000 1.770020 0.000000 
#    z 0.000000 0.000000 1.706140 
# 
# From -- ./inp_files/11263.got.cif
#   From: 2010.03.12/outbox.cif.g09.slc.cpg/sg65_6_cif.got.tgz:11263.got - 2010.04.10 20:52:16.
