data_PCOD8269610
_publ_section_title
;
Structure prediction by ZEFSAII (Michael W. Deem and Ramdas Pophale) SiO2 
 PCOD8269610
Probable space group: C M M M
;
_chemical_formula_sum "Si O2"
_cell_formula_units_Z 96
_cell_length_a 23.426575
_cell_length_b 25.447060
_cell_length_c 8.907668
_cell_angle_alpha 90.000000
_cell_angle_beta 90.000000
_cell_angle_gamma 90.000000
_cell_volume 5310.194573
_symmetry_space_group_name_H-M "C M M M"
_symmetry_group_IT_number 65
_symmetry_cell_setting 'orthorhombic'
loop_
_space_group_symop_operation_xyz
x,y,z
-x,-y,z
x,-y,-z
-x,y,-z
-x,-y,-z
x,y,-z
-x,y,z
x,-y,z
1/2+x,1/2+y,z
1/2-x,1/2-y,z
1/2+x,1/2-y,-z
1/2-x,1/2+y,-z
1/2-x,1/2-y,-z
1/2+x,1/2+y,-z
1/2-x,1/2+y,z
1/2+x,1/2-y,z
loop_
_atom_site_type_symbol
_atom_site_label
_atom_site_fract_x
_atom_site_fract_y
_atom_site_fract_z
Si Si1 0.434549 0.199851 0.826848
Si Si2 0.629683 0.095613 0.823262
Si Si3 0.434663 0.000000 0.323345
Si Si4 0.432558 0.500000 0.329838
Si Si5 0.065797 0.807890 0.324563
Si Si6 0.748588 0.441065 0.822488
Si Si7 0.627044 0.403120 0.178036
O O1 0.500000 0.182653 0.800070
O O2 0.393739 0.152475 0.776030
O O3 0.417972 0.249169 0.724508
O O4 0.424414 0.215110 0.000000
O O5 0.695671 0.091444 0.771546
O O6 0.593711 0.051836 0.740684
O O7 0.622862 0.086196 0.000000
O O8 0.500000 0.000000 0.272817
O O9 0.427316 0.000000 0.500000
O O10 0.500000 0.500000 0.327992
O O11 0.409339 0.500000 0.500000
O O12 0.411955 0.551672 0.245849
O O13 0.077183 0.814600 0.500000
O O14 0.106230 0.846953 0.234479
O O15 0.000000 0.819949 0.284018
O O16 0.750427 0.500000 0.753576
O O17 0.692127 0.411055 0.765998
O O18 0.746909 0.445777 0.000000
O O19 0.622071 0.405782 0.000000
#
# Coordination Sequence:
#
# PCOD8269610 Si02
#       7
#    16  16   8   8  16  16  16
#     4   9  18  33  55  83 108 134 176 224 267 315
#     4  10  19  35  59  81 105 140 183 226 265 312
#     4  11  23  34  47  76 116 147 174 217 272 325
#     4  11  23  36  51  76 110 141 172 217 272 327
#     4  10  21  37  56  78 107 143 178 217 271 326
#     4   9  17  33  55  80 108 140 178 221 267 314
#     4  11  21  35  56  80 107 140 180 223 266 315
#
# _framework density 18.078433
#
# number of rings (size 3 to 8) (size 9 to 14) (size 15 to 20)
#    0.000    2.000    1.667    2.500    0.000    5.667 
#    0.000    5.000    0.000    5.000    0.000    0.000 
#    0.000    0.000    0.000    0.000    0.000    0.000 
#
# Total GULP energy -595300.352143 kJ/mol
# GULP energy per Si atom -12402.090670 kJ/mol
# Density = 1.803729 g / cm^3
# Si number density = 18.078433 Si / 1000 Ang^3
#
#
#
# Elastic Constant Matrix: (Units=GPa)
#
#
# Indices 1 2 3 4 5 6 
#
# 1 135.5045 82.6498 45.1813 0.0000 0.0000 0.0000
# 2 82.6498 123.4822 39.6950 0.0000 0.0000 0.0000
# 3 45.1813 39.6950 58.8432 0.0000 0.0000 0.0000
# 4 0.0000 0.0000 0.0000 -0.5984 0.0000 0.0000
# 5 0.0000 0.0000 0.0000 0.0000 14.8658 0.0000
# 6 0.0000 0.0000 0.0000 0.0000 0.0000 1.0884
#
#
#
# Elastic Compliance Matrix: (Units=1/GPa)
#
#
# Indices 1 2 3 4 5 6 
#
# 1 0.013761 -0.007424 -0.005558 0.000000 0.000000 0.000000
# 2 -0.007424 0.014346 -0.003977 0.000000 0.000000 0.000000
# 3 -0.005558 -0.003977 0.023945 0.000000 0.000000 0.000000
# 4 0.000000 0.000000 0.000000 -1.671070 0.000000 0.000000
# 5 0.000000 0.000000 0.000000 0.000000 0.067269 0.000000
# 6 0.000000 0.000000 0.000000 0.000000 0.000000 0.918812
#
#
# Mechanical properties :
#
#
# Convention : Reuss Voigt Hill
#
# Bulk Modulus (GPa) = 55.14676 72.54245 63.84461
# Shear Modulus (GPa) = -8.43208 13.09140 2.32966
#
# Velocity S-wave (km/s) = -2.16201 2.69391 1.13641
# Velocity P-wave (km/s) = 4.93336 7.06327 6.09212
#
# Compressibility (1/GPa) = 0.01813343
#
# Stress axis : x y z
#
# Youngs Moduli (GPa) = 72.66756 69.70581 41.76246
#
# Poissons Ratio (x) = 0.51750 0.23212
# Poissons Ratio (y) = 0.53949 0.16610
# Poissons Ratio (z) = 0.40389 0.27724
#
# Static dielectric constant tensor:
#      x y z
#    x 3.578310 0.000000 0.000000 
#    y 0.000000 3.420310 0.000000 
#    z 0.000000 0.000000 3.259720 
# 
# 
# High freq. dielectric constant tensor:
#      x y z
#    x 1.703470 0.000000 0.000000 
#    y 0.000000 1.703280 0.000000 
#    z 0.000000 0.000000 1.689710 
# 
# From -- ./inp_files/14431.got.cif
#   From: 2010.03.12/outbox.cif.g09.slc.cpg/sg65_8_cif.got.tgz:14431.got - 2010.04.10 20:52:16.
