data_PCOD8269638
_publ_section_title
;
Structure prediction by ZEFSAII (Michael W. Deem and Ramdas Pophale) SiO2 
 PCOD8269638
Probable space group: C M M M
;
_chemical_formula_sum "Si O2"
_cell_formula_units_Z 96
_cell_length_a 16.447745
_cell_length_b 21.649155
_cell_length_c 14.101181
_cell_angle_alpha 90.000000
_cell_angle_beta 90.000000
_cell_angle_gamma 90.000000
_cell_volume 5021.145441
_symmetry_space_group_name_H-M "C M M M"
_symmetry_group_IT_number 65
_symmetry_cell_setting 'orthorhombic'
loop_
_space_group_symop_operation_xyz
x,y,z
-x,-y,z
x,-y,-z
-x,y,-z
-x,-y,-z
x,y,-z
-x,y,z
x,-y,z
1/2+x,1/2+y,z
1/2-x,1/2-y,z
1/2+x,1/2-y,-z
1/2-x,1/2+y,-z
1/2-x,1/2-y,-z
1/2+x,1/2+y,-z
1/2-x,1/2+y,z
1/2+x,1/2-y,z
loop_
_atom_site_type_symbol
_atom_site_label
_atom_site_fract_x
_atom_site_fract_y
_atom_site_fract_z
Si Si1 0.830826 0.282995 0.758775
Si Si2 0.252875 0.368725 0.608689
Si Si3 0.406107 0.657670 0.275862
Si Si4 0.177886 0.500000 0.605379
Si Si5 0.095862 0.620148 0.108713
Si Si6 0.403687 0.430614 0.105885
Si Si7 0.593655 0.000000 0.792271
O O1 0.750000 0.250000 0.794865
O O2 0.809691 0.326052 0.668200
O O3 0.898680 0.231551 0.735607
O O4 0.863448 0.320241 0.847478
O O5 0.243412 0.347840 0.500000
O O6 0.346839 0.361358 0.638562
O O7 0.233140 0.440443 0.622480
O O8 0.500000 0.641403 0.300038
O O9 0.374628 0.620418 0.182326
O O10 0.139543 0.500000 0.500000
O O11 0.103846 0.500000 0.679165
O O12 0.133656 0.560436 0.161082
O O13 0.000000 0.624676 0.124119
O O14 0.120375 0.615845 0.000000
O O15 0.500000 0.430182 0.103180
O O16 0.373570 0.500000 0.134112
O O17 0.370812 0.413566 0.000000
O O18 0.500000 0.000000 0.819396
#
# Coordination Sequence:
#
# PCOD8269638 Si02
#       7
#    16  16  16   8  16  16   8
#     4  10  21  37  57  80 111 153 192 229 273 330
#     4  10  22  40  60  81 110 148 187 229 288 348
#     4  10  21  35  57  86 114 145 188 234 277 329
#     4  10  20  38  64  86 110 148 186 230 290 342
#     4  10  20  35  57  85 117 151 184 226 282 335
#     4   8  15  30  52  77 107 143 180 221 272 324
#     4  10  19  35  62  88 114 143 184 236 281 336
#
# _framework density 19.119143000000001
#
# number of rings (size 3 to 8) (size 9 to 14) (size 15 to 20)
#    0.000    2.333    1.667    1.250    1.167    5.500 
#    0.000    4.167    0.000    3.000    0.000    0.000 
#    0.000    0.000    0.000    0.000    0.000    0.000 
#
# Total GULP energy -595028.547113 kJ/mol
# GULP energy per Si atom -12396.428065 kJ/mol
# Density = 1.907563 g / cm^3
# Si number density = 19.119143 Si / 1000 Ang^3
#
#
#
# Elastic Constant Matrix: (Units=GPa)
#
#
# Indices 1 2 3 4 5 6 
#
# 1 35.1180 24.3804 38.4127 0.0000 0.0000 0.0000
# 2 24.3804 137.7101 70.7647 0.0000 0.0000 0.0000
# 3 38.4127 70.7647 134.8259 0.0000 0.0000 0.0000
# 4 0.0000 0.0000 0.0000 25.3077 0.0000 0.0000
# 5 0.0000 0.0000 0.0000 0.0000 29.8902 0.0000
# 6 0.0000 0.0000 0.0000 0.0000 0.0000 23.5434
#
#
#
# Elastic Compliance Matrix: (Units=1/GPa)
#
#
# Indices 1 2 3 4 5 6 
#
# 1 0.041672 -0.001748 -0.010955 0.000000 0.000000 0.000000
# 2 -0.001748 0.010017 -0.004759 0.000000 0.000000 0.000000
# 3 -0.010955 -0.004759 0.013036 0.000000 0.000000 0.000000
# 4 0.000000 0.000000 0.000000 0.039514 0.000000 0.000000
# 5 0.000000 0.000000 0.000000 0.000000 0.033456 0.000000
# 6 0.000000 0.000000 0.000000 0.000000 0.000000 0.042475
#
#
# Mechanical properties :
#
#
# Convention : Reuss Voigt Hill
#
# Bulk Modulus (GPa) = 33.55745 63.86329 48.71037
# Shear Modulus (GPa) = 22.21952 27.35466 24.78709
#
# Velocity S-wave (km/s) = 3.41275 3.78663 3.60454
# Velocity P-wave (km/s) = 5.75491 7.25213 6.54646
#
# Compressibility (1/GPa) = 0.02979964
#
# Stress axis : x y z
#
# Youngs Moduli (GPa) = 23.99700 99.83214 76.71008
#
# Poissons Ratio (x) = 0.17453 0.84036
# Poissons Ratio (y) = 0.04195 0.36509
# Poissons Ratio (z) = 0.26289 0.47513
#
# Static dielectric constant tensor:
#      x y z
#    x 3.214210 0.000000 0.000000 
#    y 0.000000 3.914340 0.000000 
#    z 0.000000 0.000000 3.581780 
# 
# 
# High freq. dielectric constant tensor:
#      x y z
#    x 1.721250 0.000000 0.000000 
#    y 0.000000 1.760900 0.000000 
#    z 0.000000 0.000000 1.741760 
# 
# From -- ./inp_files/27183.got.cif
#   From: 2010.03.12/outbox.cif.g09.slc.cpg/sg65_14_cif.got.tgz:27183.got - 2010.04.10 20:52:16.
