data_PCOD8269375
_publ_section_title
;
Structure prediction by ZEFSAII (Michael W. Deem and Ramdas Pophale) SiO2 
 PCOD8269375
Probable space group: C M M M
;
_chemical_formula_sum "Si O2"
_cell_formula_units_Z 88
_cell_length_a 8.896851
_cell_length_b 25.563758
_cell_length_c 22.045299
_cell_angle_alpha 90.000000
_cell_angle_beta 90.000000
_cell_angle_gamma 90.000000
_cell_volume 5013.915477
_symmetry_space_group_name_H-M "C M M M"
_symmetry_group_IT_number 65
_symmetry_cell_setting 'orthorhombic'
loop_
_space_group_symop_operation_xyz
x,y,z
-x,-y,z
x,-y,-z
-x,y,-z
-x,-y,-z
x,y,-z
-x,y,z
x,-y,z
1/2+x,1/2+y,z
1/2-x,1/2-y,z
1/2+x,1/2-y,-z
1/2-x,1/2+y,-z
1/2-x,1/2-y,-z
1/2+x,1/2+y,-z
1/2-x,1/2+y,z
1/2+x,1/2-y,z
loop_
_atom_site_type_symbol
_atom_site_label
_atom_site_fract_x
_atom_site_fract_y
_atom_site_fract_z
Si Si1 0.165704 0.058385 0.725296
Si Si2 0.171586 0.650761 0.679792
Si Si3 0.671141 0.000000 0.928283
Si Si4 0.821044 0.694539 0.191016
Si Si5 0.324904 0.694985 0.433039
Si Si6 0.172134 0.908219 0.141147
O O1 0.301112 0.090556 0.696074
O O2 0.180401 0.059034 0.797362
O O3 0.000000 0.080560 0.707023
O O4 0.184034 0.000000 0.701143
O O5 0.222048 0.685216 0.738017
O O6 0.270324 0.657991 0.620177
O O7 0.000000 0.661312 0.663401
O O8 0.749868 0.945888 0.907746
O O9 0.500000 0.000000 0.904003
O O10 0.676906 0.000000 0.000000
O O11 0.750000 0.750000 0.170978
O O12 0.754718 0.648111 0.149001
O O13 0.000000 0.695775 0.182499
O O14 0.282668 0.672521 0.500000
O O15 0.500000 0.703371 0.427120
O O16 0.250000 0.750000 0.421807
O O17 0.000000 0.897284 0.121572
#
# Coordination Sequence:
#
# PCOD8269375 Si02
#       6
#    16  16   8  16  16  16
#     4   9  17  31  50  73 101 132 164 204 253 301
#     4  10  20  31  47  73 101 132 167 206 253 304
#     4  11  23  37  55  81 113 145 176 215 258 301
#     4  10  20  33  50  77 109 142 175 212 260 314
#     4  10  20  33  49  68  92 125 163 205 252 301
#     4  10  19  34  55  79 106 139 177 217 259 305
#
# _framework density 17.551154
#
# number of rings (size 3 to 8) (size 9 to 14) (size 15 to 20)
#    0.000    2.091    0.909    3.000    0.000    6.545 
#    0.000    0.000    0.000    1.091    0.000    3.818 
#    0.000    0.000    0.000    0.000    0.000    0.000 
#
# Total GULP energy -545396.112926 kJ/mol
# GULP energy per Si atom -12395.366203 kJ/mol
# Density = 1.751121 g / cm^3
# Si number density = 17.551154 Si / 1000 Ang^3
#
#
#
# Elastic Constant Matrix: (Units=GPa)
#
#
# Indices 1 2 3 4 5 6 
#
# 1 76.5552 46.1473 31.7759 0.0000 0.0000 0.0000
# 2 46.1473 111.2853 36.1995 0.0000 0.0000 0.0000
# 3 31.7759 36.1995 64.3800 0.0000 0.0000 0.0000
# 4 0.0000 0.0000 0.0000 36.4578 0.0000 0.0000
# 5 0.0000 0.0000 0.0000 0.0000 25.4652 0.0000
# 6 0.0000 0.0000 0.0000 0.0000 0.0000 33.7233
#
#
#
# Elastic Compliance Matrix: (Units=1/GPa)
#
#
# Indices 1 2 3 4 5 6 
#
# 1 0.019203 -0.005972 -0.006120 0.000000 0.000000 0.000000
# 2 -0.005972 0.012855 -0.004280 0.000000 0.000000 0.000000
# 3 -0.006120 -0.004280 0.020960 0.000000 0.000000 0.000000
# 4 0.000000 0.000000 0.000000 0.027429 0.000000 0.000000
# 5 0.000000 0.000000 0.000000 0.000000 0.039269 0.000000
# 6 0.000000 0.000000 0.000000 0.000000 0.000000 0.029653
#
#
# Mechanical properties :
#
#
# Convention : Reuss Voigt Hill
#
# Bulk Modulus (GPa) = 49.32687 53.38509 51.35598
# Shear Modulus (GPa) = 26.47315 28.33581 27.40448
#
# Velocity S-wave (km/s) = 3.88795 4.02241 3.95575
# Velocity P-wave (km/s) = 6.95130 7.21498 7.08436
#
# Compressibility (1/GPa) = 0.02027293
#
# Stress axis : x y z
#
# Youngs Moduli (GPa) = 52.07623 77.79230 47.70997
#
# Poissons Ratio (x) = 0.46459 0.29197
# Poissons Ratio (y) = 0.31101 0.20421
# Poissons Ratio (z) = 0.31869 0.33297
#
# Static dielectric constant tensor:
#      x y z
#    x 3.415370 0.000000 0.000000 
#    y 0.000000 3.133800 0.000000 
#    z 0.000000 0.000000 3.095620 
# 
# 
# High freq. dielectric constant tensor:
#      x y z
#    x 1.694240 0.000000 0.000000 
#    y 0.000000 1.672750 0.000000 
#    z 0.000000 0.000000 1.652040 
# 
# From -- ./inp_files/59786.got.cif
#   From: 2010.03.12/outbox.cif.g09.slc.cpg/sg65_30_cif.got.tgz:59786.got - 2010.04.10 20:52:16.
