data_PCOD8269563
_publ_section_title
;
Structure prediction by ZEFSAII (Michael W. Deem and Ramdas Pophale) SiO2 
 PCOD8269563
Probable space group: C M M M
;
_chemical_formula_sum "Si O2"
_cell_formula_units_Z 104
_cell_length_a 9.331872
_cell_length_b 28.451201
_cell_length_c 21.638237
_cell_angle_alpha 90.000000
_cell_angle_beta 90.000000
_cell_angle_gamma 90.000000
_cell_volume 5745.016102
_symmetry_space_group_name_H-M "C M M M"
_symmetry_group_IT_number 65
_symmetry_cell_setting 'orthorhombic'
loop_
_space_group_symop_operation_xyz
x,y,z
-x,-y,z
x,-y,-z
-x,y,-z
-x,-y,-z
x,y,-z
-x,y,z
x,-y,z
1/2+x,1/2+y,z
1/2-x,1/2-y,z
1/2+x,1/2-y,-z
1/2-x,1/2+y,-z
1/2-x,1/2-y,-z
1/2+x,1/2+y,-z
1/2-x,1/2+y,z
1/2+x,1/2-y,z
loop_
_atom_site_type_symbol
_atom_site_label
_atom_site_fract_x
_atom_site_fract_y
_atom_site_fract_z
Si Si1 0.670815 0.447724 0.643734
Si Si2 0.161887 0.555288 0.000000
Si Si3 0.843493 0.208794 0.072389
Si Si4 0.669504 0.388155 0.756476
Si Si5 0.330385 0.701594 0.317729
Si Si6 0.329053 0.606393 0.895459
Si Si7 0.170157 0.860104 0.568395
O O1 0.500000 0.449790 0.644065
O O2 0.734287 0.500000 0.632141
O O3 0.727000 0.428159 0.709811
O O4 0.724619 0.411525 0.591030
O O5 0.246657 0.570104 0.938569
O O6 0.155206 0.500000 0.000000
O O7 0.000000 0.576144 0.000000
O O8 0.750000 0.250000 0.103392
O O9 0.776026 0.158088 0.084890
O O10 0.000000 0.211090 0.103761
O O11 0.856371 0.217703 0.000000
O O12 0.500000 0.388143 0.754782
O O13 0.718127 0.336044 0.734604
O O14 0.722420 0.401072 0.825056
O O15 0.500000 0.710582 0.316174
O O16 0.250000 0.750000 0.304704
O O17 0.281506 0.680776 0.384441
O O18 0.500000 0.600227 0.904541
O O19 0.233480 0.850012 0.500000
O O20 0.000000 0.861367 0.566712
#
# Coordination Sequence:
#
# PCOD8269563 Si02
#       7
#    16   8  16  16  16  16  16
#     4   8  13  22  37  60  90 120 152 192 239 289
#     4  11  25  41  54  73 102 129 154 193 246 295
#     4   9  17  29  45  68  94 117 145 182 223 272
#     4   8  16  29  46  68  94 121 152 196 242 278
#     4   9  17  30  46  67  97 131 164 199 236 275
#     4  10  19  35  56  75  95 124 164 202 236 285
#     4   8  14  24  38  59  90 127 162 196 237 281
#
# _framework density 18.102646
#
# number of rings (size 3 to 8) (size 9 to 14) (size 15 to 20)
#    0.000    3.154    0.769    2.077    0.000    3.077 
#    0.000    3.846    0.000    0.000    0.000    0.000 
#    0.000    5.538    0.000    5.538    0.000    6.154 
#
# Total GULP energy -644383.797501 kJ/mol
# GULP energy per Si atom -12391.996106 kJ/mol
# Density = 1.806144 g / cm^3
# Si number density = 18.102646 Si / 1000 Ang^3
#
#
#
# Elastic Constant Matrix: (Units=GPa)
#
#
# Indices 1 2 3 4 5 6 
#
# 1 31.7305 19.6518 20.6788 0.0000 0.0000 0.0000
# 2 19.6518 85.5731 23.7489 0.0000 0.0000 0.0000
# 3 20.6788 23.7489 114.9936 0.0000 0.0000 0.0000
# 4 0.0000 0.0000 0.0000 11.3508 0.0000 0.0000
# 5 0.0000 0.0000 0.0000 0.0000 7.8799 0.0000
# 6 0.0000 0.0000 0.0000 0.0000 0.0000 23.3458
#
#
#
# Elastic Compliance Matrix: (Units=1/GPa)
#
#
# Indices 1 2 3 4 5 6 
#
# 1 0.039874 -0.007603 -0.005600 0.000000 0.000000 0.000000
# 2 -0.007603 0.013846 -0.001492 0.000000 0.000000 0.000000
# 3 -0.005600 -0.001492 0.010011 0.000000 0.000000 0.000000
# 4 0.000000 0.000000 0.000000 0.088099 0.000000 0.000000
# 5 0.000000 0.000000 0.000000 0.000000 0.126906 0.000000
# 6 0.000000 0.000000 0.000000 0.000000 0.000000 0.042834
#
#
# Mechanical properties :
#
#
# Convention : Reuss Voigt Hill
#
# Bulk Modulus (GPa) = 29.12006 40.05068 34.58537
# Shear Modulus (GPa) = 13.79659 19.72980 16.76320
#
# Velocity S-wave (km/s) = 2.76367 3.30492 3.04634
# Velocity P-wave (km/s) = 5.12882 6.06099 5.61429
#
# Compressibility (1/GPa) = 0.03434059
#
# Stress axis : x y z
#
# Youngs Moduli (GPa) = 25.07911 72.22267 99.88609
#
# Poissons Ratio (x) = 0.54910 0.55938
# Poissons Ratio (y) = 0.19067 0.14907
# Poissons Ratio (z) = 0.14045 0.10778
#
# Static dielectric constant tensor:
#      x y z
#    x 2.989310 0.000000 0.000000 
#    y 0.000000 3.442920 0.000000 
#    z 0.000000 0.000000 3.764960 
# 
# 
# High freq. dielectric constant tensor:
#      x y z
#    x 1.640760 0.000000 0.000000 
#    y 0.000000 1.705820 0.000000 
#    z 0.000000 0.000000 1.702890 
# 
# From -- ./inp_files/60783.got.cif
#   From: 2010.03.12/outbox.cif.g09.slc.cpg/sg65_31_cif.got.tgz:60783.got - 2010.04.10 20:52:16.
