data_PCOD8269214
_publ_section_title
;
Structure prediction by ZEFSAII (Michael W. Deem and Ramdas Pophale) SiO2 
 PCOD8269214
Probable space group: C M M M
;
_chemical_formula_sum "Si O2"
_cell_formula_units_Z 72
_cell_length_a 23.856469
_cell_length_b 17.797434
_cell_length_c 8.912447
_cell_angle_alpha 90.000000
_cell_angle_beta 90.000000
_cell_angle_gamma 90.000000
_cell_volume 3784.081795
_symmetry_space_group_name_H-M "C M M M"
_symmetry_group_IT_number 65
_symmetry_cell_setting 'orthorhombic'
loop_
_space_group_symop_operation_xyz
x,y,z
-x,-y,z
x,-y,-z
-x,y,-z
-x,-y,-z
x,y,-z
-x,y,z
x,-y,z
1/2+x,1/2+y,z
1/2-x,1/2-y,z
1/2+x,1/2-y,-z
1/2-x,1/2+y,-z
1/2-x,1/2-y,-z
1/2+x,1/2+y,-z
1/2-x,1/2+y,z
1/2+x,1/2-y,z
loop_
_atom_site_type_symbol
_atom_site_label
_atom_site_fract_x
_atom_site_fract_y
_atom_site_fract_z
Si Si1 0.256113 0.664199 0.323065
Si Si2 0.438041 0.500000 0.178264
Si Si3 0.062926 0.708349 0.822637
Si Si4 0.127677 0.855002 0.821752
Si Si5 0.348435 0.086760 0.174805
O O1 0.261112 0.657021 0.500000
O O2 0.250000 0.750000 0.270562
O O3 0.311641 0.632527 0.247750
O O4 0.204118 0.615023 0.268909
O O5 0.500000 0.500000 0.247021
O O6 0.407722 0.425503 0.236113
O O7 0.440111 0.500000 0.000000
O O8 0.097259 0.779960 0.759856
O O9 0.096136 0.632894 0.776855
O O10 0.000000 0.705716 0.753527
O O11 0.058089 0.715876 0.000000
O O12 0.133582 0.852289 0.000000
O O13 0.360339 0.000000 0.211432
O O14 0.334992 0.099619 0.000000
#
# Coordination Sequence:
#
# PCOD8269214 Si02
#       5
#    16   8  16  16  16
#     4  11  23  38  56  78 108 145 185 229 276 323
#     4   9  18  32  53  85 117 141 174 223 274 327
#     4   9  17  31  54  82 109 140 178 222 274 326
#     4  10  19  33  56  82 110 144 181 225 272 324
#     4  10  21  36  56  83 113 144 180 224 272 323
#
# _framework density 19.027073000000001
#
# number of rings (size 3 to 8) (size 9 to 14) (size 15 to 20)
#    0.000    2.111    2.222    1.333    1.556    4.444 
#    0.000    2.222    0.000    5.333    0.000    1.556 
#    0.000    0.000    0.000    0.000    0.000    0.000 
#
# Total GULP energy -446451.026434 kJ/mol
# GULP energy per Si atom -12401.417401 kJ/mol
# Density = 1.898377 g / cm^3
# Si number density = 19.027073 Si / 1000 Ang^3
#
#
#
# Elastic Constant Matrix: (Units=GPa)
#
#
# Indices 1 2 3 4 5 6 
#
# 1 156.2057 61.9126 24.9954 0.0000 0.0000 0.0000
# 2 61.9126 150.5320 24.3908 0.0000 0.0000 0.0000
# 3 24.9954 24.3908 27.6845 0.0000 0.0000 0.0000
# 4 0.0000 0.0000 0.0000 14.1093 0.0000 0.0000
# 5 0.0000 0.0000 0.0000 0.0000 -6.1777 0.0000
# 6 0.0000 0.0000 0.0000 0.0000 0.0000 37.4055
#
#
#
# Elastic Compliance Matrix: (Units=1/GPa)
#
#
# Indices 1 2 3 4 5 6 
#
# 1 0.008244 -0.002548 -0.005198 0.000000 0.000000 0.000000
# 2 -0.002548 0.008537 -0.005221 0.000000 0.000000 0.000000
# 3 -0.005198 -0.005221 0.045414 0.000000 0.000000 0.000000
# 4 0.000000 0.000000 0.000000 0.070875 0.000000 0.000000
# 5 0.000000 0.000000 0.000000 0.000000 -0.161873 0.000000
# 6 0.000000 0.000000 0.000000 0.000000 0.000000 0.026734
#
#
# Mechanical properties :
#
#
# Convention : Reuss Voigt Hill
#
# Bulk Modulus (GPa) = 27.57779 61.89109 44.73444
# Shear Modulus (GPa) = 139.07659 23.94230 81.50945
#
# Velocity S-wave (km/s) = 8.55878 3.55114 6.55223
# Velocity P-wave (km/s) = 10.59225 7.02941 8.98912
#
# Compressibility (1/GPa) = 0.03626106
#
# Stress axis : x y z
#
# Youngs Moduli (GPa) = 121.30666 117.13563 22.01977
#
# Poissons Ratio (x) = 0.29850 0.11445
# Poissons Ratio (y) = 0.30913 0.11496
# Poissons Ratio (z) = 0.63052 0.61152
#
# Static dielectric constant tensor:
#      x y z
#    x 3.680550 0.000000 0.000000 
#    y 0.000000 3.685850 0.000000 
#    z 0.000000 0.000000 3.026800 
# 
# 
# High freq. dielectric constant tensor:
#      x y z
#    x 1.754380 0.000000 0.000000 
#    y 0.000000 1.751880 0.000000 
#    z 0.000000 0.000000 1.693410 
# 
# From -- ./inp_files/9227.got.cif
#   From: 2010.03.12/outbox.cif.g09.slc.cpg/sg65_5_cif.got.tgz:9227.got - 2010.04.10 20:52:16.
