data_PCOD8269902
_publ_section_title
;
Structure prediction by ZEFSAII (Michael W. Deem and Ramdas Pophale) SiO2 
 PCOD8269902
Probable space group: C M M M
;
_chemical_formula_sum "Si O2"
_cell_formula_units_Z 88
_cell_length_a 36.048857
_cell_length_b 9.041058
_cell_length_c 19.519297
_cell_angle_alpha 90.000000
_cell_angle_beta 90.000000
_cell_angle_gamma 90.000000
_cell_volume 6361.725510
_symmetry_space_group_name_H-M "C M M M"
_symmetry_group_IT_number 65
_symmetry_cell_setting 'orthorhombic'
loop_
_space_group_symop_operation_xyz
x,y,z
-x,-y,z
x,-y,-z
-x,y,-z
-x,-y,-z
x,y,-z
-x,y,z
x,-y,z
1/2+x,1/2+y,z
1/2-x,1/2-y,z
1/2+x,1/2-y,-z
1/2-x,1/2+y,-z
1/2-x,1/2-y,-z
1/2+x,1/2+y,-z
1/2-x,1/2+y,z
1/2+x,1/2-y,z
loop_
_atom_site_type_symbol
_atom_site_label
_atom_site_fract_x
_atom_site_fract_y
_atom_site_fract_z
Si Si1 0.139135 0.827286 0.419678
Si Si2 0.500000 0.331661 0.418940
Si Si3 0.286124 0.166954 0.581353
Si Si4 0.544068 0.332216 0.925552
Si Si5 0.930354 0.674835 0.353059
Si Si6 0.458103 0.827766 0.206417
O O1 0.132427 0.800987 0.500000
O O2 0.178059 0.759168 0.395336
O O3 0.107865 0.742595 0.378086
O O4 0.138525 0.000000 0.401558
O O5 0.500000 0.500000 0.391111
O O6 0.500000 0.331225 0.500000
O O7 0.463768 0.247528 0.394007
O O8 0.283712 0.161390 0.500000
O O9 0.250000 0.250000 0.611294
O O10 0.288036 0.000000 0.610840
O O11 0.500000 0.319830 0.923305
O O12 0.557245 0.500000 0.917617
O O13 0.560745 0.242859 0.861275
O O14 0.557874 0.270932 0.000000
O O15 0.931263 0.500000 0.366610
O O16 0.933828 0.712366 0.272627
O O17 0.500000 0.768086 0.218869
O O18 0.459211 0.000000 0.193067
#
# Coordination Sequence:
#
# PCOD8269902 Si02
#       6
#    16   8  16  16  16  16
#     4  10  20  32  44  60  81 103 132 170 207 246
#     4  11  23  35  45  57  72  95 132 175 215 252
#     4   9  16  27  44  64  83 103 126 155 196 243
#     4   8  14  24  38  57  77  95 119 152 190 233
#     4  11  21  33  45  58  77 102 134 171 209 247
#     4   9  17  29  41  55  75  98 128 163 199 240
#
# _framework density 13.832725
#
# number of rings (size 3 to 8) (size 9 to 14) (size 15 to 20)
#    0.000    2.455    0.909    3.000    0.000    8.000 
#    0.000    1.818    0.000    0.000    0.000    0.000 
#    0.000    0.000    0.000    0.000    0.000    0.909 
#
# Total GULP energy -545450.190709 kJ/mol
# GULP energy per Si atom -12396.595243 kJ/mol
# Density = 1.380124 g / cm^3
# Si number density = 13.832725 Si / 1000 Ang^3
#
#
#
# Elastic Constant Matrix: (Units=GPa)
#
#
# Indices 1 2 3 4 5 6 
#
# 1 91.3517 47.4861 42.2419 0.0000 0.0000 0.0000
# 2 47.4861 92.2282 51.3539 0.0000 0.0000 0.0000
# 3 42.2419 51.3539 81.0218 0.0000 0.0000 0.0000
# 4 0.0000 0.0000 0.0000 22.7270 0.0000 0.0000
# 5 0.0000 0.0000 0.0000 0.0000 1.7808 0.0000
# 6 0.0000 0.0000 0.0000 0.0000 0.0000 27.3221
#
#
#
# Elastic Compliance Matrix: (Units=1/GPa)
#
#
# Indices 1 2 3 4 5 6 
#
# 1 0.016093 -0.005585 -0.004850 0.000000 0.000000 0.000000
# 2 -0.005585 0.018695 -0.008937 0.000000 0.000000 0.000000
# 3 -0.004850 -0.008937 0.020536 0.000000 0.000000 0.000000
# 4 0.000000 0.000000 0.000000 0.044001 0.000000 0.000000
# 5 0.000000 0.000000 0.000000 0.000000 0.561547 0.000000
# 6 0.000000 0.000000 0.000000 0.000000 0.000000 0.036600
#
#
# Mechanical properties :
#
#
# Convention : Reuss Voigt Hill
#
# Bulk Modulus (GPa) = 60.32105 60.75174 60.53640
# Shear Modulus (GPa) = 6.74089 18.60064 12.67076
#
# Velocity S-wave (km/s) = 2.20991 3.67097 3.02983
# Velocity P-wave (km/s) = 7.08617 7.87288 7.48986
#
# Compressibility (1/GPa) = 0.01657796
#
# Stress axis : x y z
#
# Youngs Moduli (GPa) = 62.13993 53.49092 48.69538
#
# Poissons Ratio (x) = 0.29875 0.23618
# Poissons Ratio (y) = 0.34706 0.43521
# Poissons Ratio (z) = 0.30139 0.47807
#
# Static dielectric constant tensor:
#      x y z
#    x 2.491730 0.000000 0.000000 
#    y 0.000000 2.930010 0.000000 
#    z 0.000000 0.000000 2.831290 
# 
# 
# High freq. dielectric constant tensor:
#      x y z
#    x 1.494080 0.000000 0.000000 
#    y 0.000000 1.544020 0.000000 
#    z 0.000000 0.000000 1.504640 
# 
# From -- ./inp_files/66213.got.cif
#   From: 2010.03.12/outbox.cif.g09.slc.cpg/sg65_34_cif.got.tgz:66213.got - 2010.04.10 20:52:16.
