data_PCOD8269412
_publ_section_title
;
Structure prediction by ZEFSAII (Michael W. Deem and Ramdas Pophale) SiO2 
 PCOD8269412
Probable space group: C M M M
;
_chemical_formula_sum "Si O2"
_cell_formula_units_Z 88
_cell_length_a 19.497774
_cell_length_b 8.790596
_cell_length_c 27.473618
_cell_angle_alpha 90.000000
_cell_angle_beta 90.000000
_cell_angle_gamma 90.000000
_cell_volume 4708.897192
_symmetry_space_group_name_H-M "C M M M"
_symmetry_group_IT_number 65
_symmetry_cell_setting 'orthorhombic'
loop_
_space_group_symop_operation_xyz
x,y,z
-x,-y,z
x,-y,-z
-x,y,-z
-x,-y,-z
x,y,-z
-x,y,z
x,-y,z
1/2+x,1/2+y,z
1/2-x,1/2-y,z
1/2+x,1/2-y,-z
1/2-x,1/2+y,-z
1/2-x,1/2-y,-z
1/2+x,1/2+y,-z
1/2-x,1/2+y,z
1/2+x,1/2-y,z
loop_
_atom_site_type_symbol
_atom_site_label
_atom_site_fract_x
_atom_site_fract_y
_atom_site_fract_z
Si Si1 0.079942 0.174630 0.737657
Si Si2 0.920203 0.826770 0.373302
Si Si3 0.077279 0.180223 0.000000
Si Si4 0.678284 0.820926 0.812091
Si Si5 0.680278 0.822356 0.554610
Si Si6 0.322962 0.318774 0.914895
O O1 0.099581 0.212835 0.682110
O O2 0.121397 0.288449 0.771742
O O3 0.000000 0.203490 0.746704
O O4 0.098637 0.000000 0.749755
O O5 0.881626 0.716925 0.409955
O O6 0.000000 0.799591 0.381692
O O7 0.900098 0.000000 0.384962
O O8 0.118529 0.235418 0.952401
O O9 0.000000 0.249414 0.000000
O O10 0.072696 0.000000 0.000000
O O11 0.750000 0.750000 0.794373
O O12 0.654878 0.744511 0.862510
O O13 0.687025 0.000000 0.819695
O O14 0.664500 0.761377 0.500000
O O15 0.750000 0.750000 0.575127
O O16 0.690888 0.000000 0.554025
O O17 0.316287 0.500000 0.913011
O O18 0.250000 0.250000 0.931328
#
# Coordination Sequence:
#
# PCOD8269412 Si02
#       6
#    16  16   8  16  16  16
#     4   9  19  37  58  79 106 140 176 215 263 316
#     4   9  19  36  57  80 106 138 176 216 260 314
#     4   9  19  34  53  79 106 135 174 214 256 311
#     4  11  22  36  55  80 109 140 179 221 263 313
#     4  10  21  36  54  77 106 140 177 218 264 313
#     4  10  19  34  56  78 104 138 175 216 261 310
#
# _framework density 18.688027000000002
#
# number of rings (size 3 to 8) (size 9 to 14) (size 15 to 20)
#    0.000    2.273    0.000    5.182    0.000    4.364 
#    0.000    6.818    0.000    3.818    0.000    0.000 
#    0.000    0.000    0.000    0.000    0.000    0.000 
#
# Total GULP energy -545671.113221 kJ/mol
# GULP energy per Si atom -12401.616210 kJ/mol
# Density = 1.864549 g / cm^3
# Si number density = 18.688027 Si / 1000 Ang^3
#
#
#
# Elastic Constant Matrix: (Units=GPa)
#
#
# Indices 1 2 3 4 5 6 
#
# 1 101.1770 39.8207 73.2308 0.0000 0.0000 0.0000
# 2 39.8207 87.5624 42.6502 0.0000 0.0000 0.0000
# 3 73.2308 42.6502 107.9276 0.0000 0.0000 0.0000
# 4 0.0000 0.0000 0.0000 30.2468 0.0000 0.0000
# 5 0.0000 0.0000 0.0000 0.0000 14.7138 0.0000
# 6 0.0000 0.0000 0.0000 0.0000 0.0000 33.4869
#
#
#
# Elastic Compliance Matrix: (Units=1/GPa)
#
#
# Indices 1 2 3 4 5 6 
#
# 1 0.020075 -0.003089 -0.012400 0.000000 0.000000 0.000000
# 2 -0.003089 0.014618 -0.003680 0.000000 0.000000 0.000000
# 3 -0.012400 -0.003680 0.019134 0.000000 0.000000 0.000000
# 4 0.000000 0.000000 0.000000 0.033061 0.000000 0.000000
# 5 0.000000 0.000000 0.000000 0.000000 0.067963 0.000000
# 6 0.000000 0.000000 0.000000 0.000000 0.000000 0.029862
#
#
# Mechanical properties :
#
#
# Convention : Reuss Voigt Hill
#
# Bulk Modulus (GPa) = 64.57323 67.56337 66.06830
# Shear Modulus (GPa) = 21.90911 25.08720 23.49816
#
# Velocity S-wave (km/s) = 3.42769 3.66788 3.54982
# Velocity P-wave (km/s) = 7.09180 7.36000 7.22715
#
# Compressibility (1/GPa) = 0.01548629
#
# Stress axis : x y z
#
# Youngs Moduli (GPa) = 49.81402 68.40828 52.26401
#
# Poissons Ratio (x) = 0.21134 0.64808
# Poissons Ratio (y) = 0.15390 0.19236
# Poissons Ratio (z) = 0.61770 0.25178
#
# Static dielectric constant tensor:
#      x y z
#    x 3.412670 0.000000 0.000000 
#    y 0.000000 3.323830 0.000000 
#    z 0.000000 0.000000 3.489220 
# 
# 
# High freq. dielectric constant tensor:
#      x y z
#    x 1.724530 0.000000 0.000000 
#    y 0.000000 1.720990 0.000000 
#    z 0.000000 0.000000 1.731440 
# 
# From -- ./inp_files/67488.got.cif
#   From: 2010.03.12/outbox.cif.g09.slc.cpg/sg65_34_cif.got.tgz:67488.got - 2010.04.10 20:52:16.
