data_PCOD8269720
_publ_section_title
;
Structure prediction by ZEFSAII (Michael W. Deem and Ramdas Pophale) SiO2 
 PCOD8269720
Probable space group: C M M M
;
_chemical_formula_sum "Si O2"
_cell_formula_units_Z 88
_cell_length_a 18.139551
_cell_length_b 23.239436
_cell_length_c 13.680823
_cell_angle_alpha 90.000000
_cell_angle_beta 90.000000
_cell_angle_gamma 90.000000
_cell_volume 5767.191082
_symmetry_space_group_name_H-M "C M M M"
_symmetry_group_IT_number 65
_symmetry_cell_setting 'orthorhombic'
loop_
_space_group_symop_operation_xyz
x,y,z
-x,-y,z
x,-y,-z
-x,y,-z
-x,-y,-z
x,y,-z
-x,y,z
x,-y,z
1/2+x,1/2+y,z
1/2-x,1/2-y,z
1/2+x,1/2-y,-z
1/2-x,1/2+y,-z
1/2-x,1/2-y,-z
1/2+x,1/2+y,-z
1/2-x,1/2+y,z
1/2+x,1/2-y,z
loop_
_atom_site_type_symbol
_atom_site_label
_atom_site_fract_x
_atom_site_fract_y
_atom_site_fract_z
Si Si1 0.280878 0.566363 0.384422
Si Si2 0.086266 0.732808 0.387531
Si Si3 0.919026 0.862280 0.615903
Si Si4 0.000000 0.563478 0.614806
Si Si5 0.139438 0.623665 0.704970
Si Si6 0.414051 0.934016 0.111470
O O1 0.271823 0.574019 0.500000
O O2 0.278192 0.500000 0.353493
O O3 0.358467 0.592456 0.346784
O O4 0.217073 0.600728 0.331272
O O5 0.111292 0.723739 0.500000
O O6 0.102434 0.797644 0.351610
O O7 0.133883 0.691791 0.316288
O O8 0.000000 0.718130 0.377537
O O9 0.923768 0.863064 0.500000
O O10 0.000000 0.879100 0.658256
O O11 0.074051 0.594340 0.645840
O O12 0.000000 0.500000 0.662186
O O13 0.000000 0.559794 0.500000
O O14 0.132035 0.609075 0.819849
O O15 0.500000 0.926855 0.136447
O O16 0.389851 0.000000 0.129609
O O17 0.398026 0.916292 0.000000
#
# Coordination Sequence:
#
# PCOD8269720 Si02
#       6
#    16  16  16   8  16  16
#     4  10  20  30  41  63  92 118 148 183 217 259
#     4   9  16  27  43  63  87 116 151 180 205 251
#     4   8  16  31  47  61  82 115 152 189 221 250
#     4  11  20  26  35  55  87 127 153 163 190 241
#     4  12  19  27  42  62  90 119 145 177 214 257
#     4   9  17  29  43  58  79 113 157 193 216 246
#
# _framework density 15.258728
#
# number of rings (size 3 to 8) (size 9 to 14) (size 15 to 20)
#    0.000    2.273    1.818    4.909    0.000    2.545 
#    0.000    4.545    0.000    0.000    0.000    2.545 
#    0.000    2.182    0.000    3.818    0.000    0.182 
#
# Total GULP energy -545499.345715 kJ/mol
# GULP energy per Si atom -12397.712403 kJ/mol
# Density = 1.522400 g / cm^3
# Si number density = 15.258728 Si / 1000 Ang^3
#
#
#
# Elastic Constant Matrix: (Units=GPa)
#
#
# Indices 1 2 3 4 5 6 
#
# 1 89.4996 36.1602 18.3052 0.0000 0.0000 0.0000
# 2 36.1602 54.7351 13.0133 0.0000 0.0000 0.0000
# 3 18.3052 13.0133 43.2141 0.0000 0.0000 0.0000
# 4 0.0000 0.0000 0.0000 7.4215 0.0000 0.0000
# 5 0.0000 0.0000 0.0000 0.0000 6.9876 0.0000
# 6 0.0000 0.0000 0.0000 0.0000 0.0000 24.5371
#
#
#
# Elastic Compliance Matrix: (Units=1/GPa)
#
#
# Indices 1 2 3 4 5 6 
#
# 1 0.015807 -0.009534 -0.003825 0.000000 0.000000 0.000000
# 2 -0.009534 0.025429 -0.003619 0.000000 0.000000 0.000000
# 3 -0.003825 -0.003619 0.025851 0.000000 0.000000 0.000000
# 4 0.000000 0.000000 0.000000 0.134744 0.000000 0.000000
# 5 0.000000 0.000000 0.000000 0.000000 0.143111 0.000000
# 6 0.000000 0.000000 0.000000 0.000000 0.000000 0.040755
#
#
# Mechanical properties :
#
#
# Convention : Reuss Voigt Hill
#
# Bulk Modulus (GPa) = 30.18296 35.82290 33.00293
# Shear Modulus (GPa) = 11.60912 15.78722 13.69817
#
# Velocity S-wave (km/s) = 2.76129 3.22006 2.99946
# Velocity P-wave (km/s) = 5.47631 6.11171 5.80272
#
# Compressibility (1/GPa) = 0.03313127
#
# Stress axis : x y z
#
# Youngs Moduli (GPa) = 63.26153 39.32587 38.68374
#
# Poissons Ratio (x) = 0.37492 0.14797
# Poissons Ratio (y) = 0.60311 0.14000
# Poissons Ratio (z) = 0.24198 0.14232
#
# Static dielectric constant tensor:
#      x y z
#    x 3.821700 0.000000 0.000000 
#    y 0.000000 3.090620 0.000000 
#    z 0.000000 0.000000 2.670460 
# 
# 
# High freq. dielectric constant tensor:
#      x y z
#    x 1.574390 0.000000 0.000000 
#    y 0.000000 1.586950 0.000000 
#    z 0.000000 0.000000 1.539330 
# 
# From -- ./inp_files/42972.got.cif
#   From: 2010.03.12/outbox.cif.g09.slc.cpg/sg65_22_cif.got.tgz:42972.got - 2010.04.10 20:52:16.
