data_PCOD8269602
_publ_section_title
;
Structure prediction by ZEFSAII (Michael W. Deem and Ramdas Pophale) SiO2 
 PCOD8269602
Probable space group: C M M M
;
_chemical_formula_sum "Si O2"
_cell_formula_units_Z 96
_cell_length_a 25.233848
_cell_length_b 14.210694
_cell_length_c 13.359809
_cell_angle_alpha 90.000000
_cell_angle_beta 90.000000
_cell_angle_gamma 90.000000
_cell_volume 4790.700487
_symmetry_space_group_name_H-M "C M M M"
_symmetry_group_IT_number 65
_symmetry_cell_setting 'orthorhombic'
loop_
_space_group_symop_operation_xyz
x,y,z
-x,-y,z
x,-y,-z
-x,y,-z
-x,-y,-z
x,y,-z
-x,y,z
x,-y,z
1/2+x,1/2+y,z
1/2-x,1/2-y,z
1/2+x,1/2-y,-z
1/2-x,1/2+y,-z
1/2-x,1/2-y,-z
1/2+x,1/2+y,-z
1/2-x,1/2+y,z
1/2+x,1/2-y,z
loop_
_atom_site_type_symbol
_atom_site_label
_atom_site_fract_x
_atom_site_fract_y
_atom_site_fract_z
Si Si1 0.095285 0.298551 0.615712
Si Si2 0.939365 0.198493 0.800316
Si Si3 0.747769 0.894694 0.188296
Si Si4 0.288110 0.164379 0.607813
Si Si5 0.938270 0.000000 0.112063
Si Si6 0.331820 0.252812 0.114784
Si Si7 0.442059 0.000000 0.618415
O O1 0.078047 0.284151 0.500000
O O2 0.062796 0.222816 0.681925
O O3 0.157042 0.284050 0.635581
O O4 0.086095 0.405141 0.654736
O O5 0.922281 0.091063 0.822993
O O6 0.893708 0.260642 0.854254
O O7 0.000000 0.218401 0.838754
O O8 0.732549 0.904006 0.305607
O O9 0.699132 0.845184 0.130509
O O10 0.801848 0.835059 0.176690
O O11 0.756039 0.000000 0.146032
O O12 0.293587 0.110119 0.500000
O O13 0.250000 0.250000 0.593987
O O14 0.000000 0.000000 0.094468
O O15 0.911672 0.000000 0.000000
O O16 0.329144 0.282413 0.000000
O O17 0.500000 0.000000 0.666747
O O18 0.444686 0.000000 0.500000
#
# Coordination Sequence:
#
# PCOD8269602 Si02
#       7
#    16  16  16  16   8  16   8
#     4  10  20  35  59  88 124 165 200 239 293 355
#     4  11  22  39  63  91 121 156 201 254 309 362
#     4  11  22  39  63  91 122 157 199 248 304 360
#     4  10  19  35  58  84 122 159 192 237 286 349
#     4   9  20  38  59  84 111 147 202 258 304 356
#     4  11  24  42  61  88 120 154 205 255 305 365
#     4   9  18  32  52  83 119 157 203 239 269 336
#
# _framework density 20.038824000000002
#
# number of rings (size 3 to 8) (size 9 to 14) (size 15 to 20)
#    0.000    1.667    3.333    2.000    2.333    3.667 
#    0.000    0.417    0.000    1.500    0.000    1.167 
#    0.000    0.000    0.000    0.000    0.000    0.000 
#
# Total GULP energy -594805.361760 kJ/mol
# GULP energy per Si atom -12391.778370 kJ/mol
# Density = 1.999321 g / cm^3
# Si number density = 20.038824 Si / 1000 Ang^3
#
#
#
# Elastic Constant Matrix: (Units=GPa)
#
#
# Indices 1 2 3 4 5 6 
#
# 1 130.7747 28.5446 27.1587 0.0000 0.0000 0.0000
# 2 28.5446 109.5316 39.2046 0.0000 0.0000 0.0000
# 3 27.1587 39.2046 113.9507 0.0000 0.0000 0.0000
# 4 0.0000 0.0000 0.0000 15.5961 0.0000 0.0000
# 5 0.0000 0.0000 0.0000 0.0000 25.5907 0.0000
# 6 0.0000 0.0000 0.0000 0.0000 0.0000 17.2763
#
#
#
# Elastic Compliance Matrix: (Units=1/GPa)
#
#
# Indices 1 2 3 4 5 6 
#
# 1 0.008301 -0.001660 -0.001408 0.000000 0.000000 0.000000
# 2 -0.001660 0.010744 -0.003301 0.000000 0.000000 0.000000
# 3 -0.001408 -0.003301 0.010247 0.000000 0.000000 0.000000
# 4 0.000000 0.000000 0.000000 0.064118 0.000000 0.000000
# 5 0.000000 0.000000 0.000000 0.000000 0.039077 0.000000
# 6 0.000000 0.000000 0.000000 0.000000 0.000000 0.057883
#
#
# Mechanical properties :
#
#
# Convention : Reuss Voigt Hill
#
# Bulk Modulus (GPa) = 60.40108 60.45255 60.42682
# Shear Modulus (GPa) = 23.96652 28.98256 26.47454
#
# Velocity S-wave (km/s) = 3.46208 3.80718 3.63872
# Velocity P-wave (km/s) = 6.79623 7.03984 6.91911
#
# Compressibility (1/GPa) = 0.01655599
#
# Stress axis : x y z
#
# Youngs Moduli (GPa) = 120.46324 93.07734 97.59106
#
# Poissons Ratio (x) = 0.15447 0.13736
# Poissons Ratio (y) = 0.19992 0.32213
# Poissons Ratio (z) = 0.16956 0.30723
#
# Static dielectric constant tensor:
#      x y z
#    x 3.479910 0.000000 0.000000 
#    y 0.000000 3.368540 0.000000 
#    z 0.000000 0.000000 4.058260 
# 
# 
# High freq. dielectric constant tensor:
#      x y z
#    x 1.791730 0.000000 0.000000 
#    y 0.000000 1.756870 0.000000 
#    z 0.000000 0.000000 1.778060 
# 
# From -- ./inp_files/45706.got.cif
#   From: 2010.03.12/outbox.cif.g09.slc.cpg/sg65_23_cif.got.tgz:45706.got - 2010.04.10 20:52:16.
