data_PCOD8269928
_publ_section_title
;
Structure prediction by ZEFSAII (Michael W. Deem and Ramdas Pophale) SiO2 
 PCOD8269928
Probable space group: C M M M
;
_chemical_formula_sum "Si O2"
_cell_formula_units_Z 104
_cell_length_a 9.267121
_cell_length_b 27.978359
_cell_length_c 23.365192
_cell_angle_alpha 90.000000
_cell_angle_beta 90.000000
_cell_angle_gamma 90.000000
_cell_volume 6058.099837
_symmetry_space_group_name_H-M "C M M M"
_symmetry_group_IT_number 65
_symmetry_cell_setting 'orthorhombic'
loop_
_space_group_symop_operation_xyz
x,y,z
-x,-y,z
x,-y,-z
-x,y,-z
-x,-y,-z
x,y,-z
-x,y,z
x,-y,z
1/2+x,1/2+y,z
1/2-x,1/2-y,z
1/2+x,1/2-y,-z
1/2-x,1/2+y,-z
1/2-x,1/2-y,-z
1/2+x,1/2+y,-z
1/2-x,1/2+y,z
1/2+x,1/2-y,z
loop_
_atom_site_type_symbol
_atom_site_label
_atom_site_fract_x
_atom_site_fract_y
_atom_site_fract_z
Si Si1 0.158719 0.795148 0.248962
Si Si2 0.328809 0.361921 0.350338
Si Si3 0.671549 0.554372 0.730185
Si Si4 0.330301 0.092947 0.065272
Si Si5 0.667053 0.201974 0.432562
Si Si6 0.340671 0.500000 0.932794
Si Si7 0.338341 0.619298 0.833881
O O1 0.250000 0.750000 0.231856
O O2 0.219513 0.822917 0.303687
O O3 0.155861 0.829643 0.195123
O O4 0.000000 0.776491 0.263539
O O5 0.500000 0.361245 0.362794
O O6 0.281455 0.414237 0.325633
O O7 0.239958 0.346128 0.406451
O O8 0.500000 0.554553 0.732071
O O9 0.732366 0.500000 0.725424
O O10 0.724434 0.579517 0.789183
O O11 0.500000 0.086271 0.071233
O O12 0.266815 0.129473 0.111690
O O13 0.250850 0.045197 0.086515
O O14 0.289936 0.107339 0.000000
O O15 0.681981 0.196037 0.500000
O O16 0.500000 0.205939 0.413796
O O17 0.750000 0.250000 0.411824
O O18 0.500000 0.500000 0.903847
O O19 0.358537 0.500000 0.000000
O O20 0.500000 0.604714 0.854308
#
# Coordination Sequence:
#
# PCOD8269928 Si02
#       7
#    16  16  16  16  16   8  16
#     4   9  18  31  47  70  97 122 153 195 238 283
#     4   9  17  30  49  73  99 127 160 195 235 282
#     4   8  15  29  49  72  97 125 159 199 237 273
#     4  10  20  32  45  65  95 124 151 190 237 282
#     4  10  20  32  47  70 100 131 162 197 238 283
#     4   9  17  29  45  63  83 115 155 185 216 265
#     4   9  18  31  48  71  94 120 158 195 231 283
#
# _framework density 17.167097999999999
#
# number of rings (size 3 to 8) (size 9 to 14) (size 15 to 20)
#    0.000    2.846    0.000    3.462    1.077    5.231 
#    0.000    2.308    0.000    2.308    0.000    3.231 
#    0.000    0.000    0.000    0.000    0.000    0.000 
#
# Total GULP energy -644360.213147 kJ/mol
# GULP energy per Si atom -12391.542561 kJ/mol
# Density = 1.712803 g / cm^3
# Si number density = 17.167098 Si / 1000 Ang^3
#
#
#
# Elastic Constant Matrix: (Units=GPa)
#
#
# Indices 1 2 3 4 5 6 
#
# 1 75.4170 35.2248 37.6701 0.0000 0.0000 0.0000
# 2 35.2248 94.8349 34.1171 0.0000 0.0000 0.0000
# 3 37.6701 34.1171 66.7746 0.0000 0.0000 0.0000
# 4 0.0000 0.0000 0.0000 16.4259 0.0000 0.0000
# 5 0.0000 0.0000 0.0000 0.0000 28.2172 0.0000
# 6 0.0000 0.0000 0.0000 0.0000 0.0000 23.5304
#
#
#
# Elastic Compliance Matrix: (Units=1/GPa)
#
#
# Indices 1 2 3 4 5 6 
#
# 1 0.019659 -0.004058 -0.009017 0.000000 0.000000 0.000000
# 2 -0.004058 0.013757 -0.004740 0.000000 0.000000 0.000000
# 3 -0.009017 -0.004740 0.022484 0.000000 0.000000 0.000000
# 4 0.000000 0.000000 0.000000 0.060879 0.000000 0.000000
# 5 0.000000 0.000000 0.000000 0.000000 0.035439 0.000000
# 6 0.000000 0.000000 0.000000 0.000000 0.000000 0.042498
#
#
# Mechanical properties :
#
#
# Convention : Reuss Voigt Hill
#
# Bulk Modulus (GPa) = 49.33180 50.11672 49.72426
# Shear Modulus (GPa) = 21.08789 22.30236 21.69513
#
# Velocity S-wave (km/s) = 3.50864 3.60826 3.55880
# Velocity P-wave (km/s) = 6.72404 6.82761 6.77602
#
# Compressibility (1/GPa) = 0.02027090
#
# Stress axis : x y z
#
# Youngs Moduli (GPa) = 50.86759 72.69023 44.47589
#
# Poissons Ratio (x) = 0.29498 0.40104
# Poissons Ratio (y) = 0.20643 0.21079
# Poissons Ratio (z) = 0.45867 0.34452
#
# Static dielectric constant tensor:
#      x y z
#    x 3.100980 0.000000 0.000000 
#    y 0.000000 3.205710 0.000000 
#    z 0.000000 0.000000 3.149680 
# 
# 
# High freq. dielectric constant tensor:
#      x y z
#    x 1.649830 0.000000 0.000000 
#    y 0.000000 1.643270 0.000000 
#    z 0.000000 0.000000 1.656710 
# 
# From -- ./inp_files/68227.got.cif
#   From: 2010.03.12/outbox.cif.g09.slc.cpg/sg65_35_cif.got.tgz:68227.got - 2010.04.10 20:52:16.
