data_PCOD8269468
_publ_section_title
;
Structure prediction by ZEFSAII (Michael W. Deem and Ramdas Pophale) SiO2 
 PCOD8269468
Probable space group: C M M M
;
_chemical_formula_sum "Si O2"
_cell_formula_units_Z 88
_cell_length_a 15.414670
_cell_length_b 33.342050
_cell_length_c 9.061271
_cell_angle_alpha 90.000000
_cell_angle_beta 90.000000
_cell_angle_gamma 90.000000
_cell_volume 4657.100922
_symmetry_space_group_name_H-M "C M M M"
_symmetry_group_IT_number 65
_symmetry_cell_setting 'orthorhombic'
loop_
_space_group_symop_operation_xyz
x,y,z
-x,-y,z
x,-y,-z
-x,y,-z
-x,-y,-z
x,y,-z
-x,y,z
x,-y,z
1/2+x,1/2+y,z
1/2-x,1/2-y,z
1/2+x,1/2-y,-z
1/2-x,1/2+y,-z
1/2-x,1/2-y,-z
1/2+x,1/2+y,-z
1/2-x,1/2+y,z
1/2+x,1/2-y,z
loop_
_atom_site_type_symbol
_atom_site_label
_atom_site_fract_x
_atom_site_fract_y
_atom_site_fract_z
Si Si1 0.253710 0.884089 0.674529
Si Si2 0.848092 0.248785 0.172279
Si Si3 0.403627 0.328870 0.329411
Si Si4 0.173430 0.046382 0.173275
Si Si5 0.401207 0.162773 0.168982
Si Si6 0.500000 0.547460 0.665050
O O1 0.253039 0.890600 0.500000
O O2 0.170954 0.858371 0.731214
O O3 0.250058 0.927267 0.755249
O O4 0.342284 0.862930 0.721795
O O5 0.750000 0.250000 0.232813
O O6 0.900878 0.213752 0.249890
O O7 0.894292 0.290541 0.210356
O O8 0.849194 0.239336 0.000000
O O9 0.386031 0.320705 0.500000
O O10 0.500000 0.347637 0.303431
O O11 0.084584 0.061715 0.247676
O O12 0.192694 0.000000 0.209087
O O13 0.166703 0.053844 0.000000
O O14 0.500000 0.148714 0.190994
O O15 0.370714 0.156084 0.000000
O O16 0.500000 0.500000 0.653997
O O17 0.500000 0.566523 0.500000
#
# Coordination Sequence:
#
# PCOD8269468 Si02
#       6
#    16  16  16  16  16   8
#     4  11  23  37  57  83 113 148 187 234 285 339
#     4  10  19  34  57  81 108 144 188 234 277 328
#     4  10  22  37  52  76 112 151 187 225 272 326
#     4  10  21  37  57  82 113 149 190 233 281 340
#     4  10  21  38  59  82 111 148 190 238 289 338
#     4   9  17  31  53  81 113 149 187 225 269 327
#
# _framework density 18.895876000000001
#
# number of rings (size 3 to 8) (size 9 to 14) (size 15 to 20)
#    0.000    1.909    1.818    1.909    1.273    5.455 
#    0.000    0.000    0.000    0.545    0.000    3.818 
#    0.000    0.000    0.000    0.000    0.000    0.000 
#
# Total GULP energy -545733.203381 kJ/mol
# GULP energy per Si atom -12403.027350 kJ/mol
# Density = 1.885287 g / cm^3
# Si number density = 18.895876 Si / 1000 Ang^3
#
#
#
# Elastic Constant Matrix: (Units=GPa)
#
#
# Indices 1 2 3 4 5 6 
#
# 1 96.8378 39.4070 36.2000 0.0000 0.0000 0.0000
# 2 39.4070 86.2233 49.2224 0.0000 0.0000 0.0000
# 3 36.2000 49.2224 82.1129 0.0000 0.0000 0.0000
# 4 0.0000 0.0000 0.0000 30.3100 0.0000 0.0000
# 5 0.0000 0.0000 0.0000 0.0000 31.9320 0.0000
# 6 0.0000 0.0000 0.0000 0.0000 0.0000 23.6689
#
#
#
# Elastic Compliance Matrix: (Units=1/GPa)
#
#
# Indices 1 2 3 4 5 6 
#
# 1 0.013271 -0.004143 -0.003367 0.000000 0.000000 0.000000
# 2 -0.004143 0.018925 -0.009518 0.000000 0.000000 0.000000
# 3 -0.003367 -0.009518 0.019368 0.000000 0.000000 0.000000
# 4 0.000000 0.000000 0.000000 0.032992 0.000000 0.000000
# 5 0.000000 0.000000 0.000000 0.000000 0.031317 0.000000
# 6 0.000000 0.000000 0.000000 0.000000 0.000000 0.042250
#
#
# Mechanical properties :
#
#
# Convention : Reuss Voigt Hill
#
# Bulk Modulus (GPa) = 57.11691 57.20365 57.16028
# Shear Modulus (GPa) = 25.25055 26.53848 25.89451
#
# Velocity S-wave (km/s) = 3.65951 3.75168 3.70588
# Velocity P-wave (km/s) = 6.93893 7.00754 6.97332
#
# Compressibility (1/GPa) = 0.01750795
#
# Stress axis : x y z
#
# Youngs Moduli (GPa) = 75.35068 52.84038 51.63092
#
# Poissons Ratio (x) = 0.21893 0.17384
# Poissons Ratio (y) = 0.31220 0.49142
# Poissons Ratio (z) = 0.25371 0.50293
#
# Static dielectric constant tensor:
#      x y z
#    x 3.401660 0.000000 0.000000 
#    y 0.000000 3.363510 0.000000 
#    z 0.000000 0.000000 3.414590 
# 
# 
# High freq. dielectric constant tensor:
#      x y z
#    x 1.723990 0.000000 0.000000 
#    y 0.000000 1.728620 0.000000 
#    z 0.000000 0.000000 1.734270 
# 
# From -- ./inp_files/10053.got.cif
#   From: 2010.03.12/outbox.cif.g09.slc.cpg/sg65_6_cif.got.tgz:10053.got - 2010.04.10 20:52:16.
