data_PCOD8269153
_publ_section_title
;
Structure prediction by ZEFSAII (Michael W. Deem and Ramdas Pophale) SiO2 
 PCOD8269153
Probable space group: C M M M
;
_chemical_formula_sum "Si O2"
_cell_formula_units_Z 88
_cell_length_a 29.142264
_cell_length_b 9.000554
_cell_length_c 17.503052
_cell_angle_alpha 90.000000
_cell_angle_beta 90.000000
_cell_angle_gamma 90.000000
_cell_volume 4590.989643
_symmetry_space_group_name_H-M "C M M M"
_symmetry_group_IT_number 65
_symmetry_cell_setting 'orthorhombic'
loop_
_space_group_symop_operation_xyz
x,y,z
-x,-y,z
x,-y,-z
-x,y,-z
-x,-y,-z
x,y,-z
-x,y,z
x,-y,z
1/2+x,1/2+y,z
1/2-x,1/2-y,z
1/2+x,1/2-y,-z
1/2-x,1/2+y,-z
1/2-x,1/2-y,-z
1/2+x,1/2+y,-z
1/2-x,1/2+y,z
1/2+x,1/2-y,z
loop_
_atom_site_type_symbol
_atom_site_label
_atom_site_fract_x
_atom_site_fract_y
_atom_site_fract_z
Si Si1 0.892499 0.674699 0.352705
Si Si2 0.661025 0.668082 0.842302
Si Si3 0.926589 0.330037 0.807690
Si Si4 0.052036 0.676491 0.500000
Si Si5 0.203713 0.830800 0.000000
Si Si6 0.000000 0.175673 0.911564
Si Si7 0.796966 0.169987 0.313505
O O1 0.881319 0.500000 0.356095
O O2 0.928398 0.707750 0.282946
O O3 0.919718 0.732961 0.426570
O O4 0.843459 0.757738 0.347584
O O5 0.640012 0.500000 0.841282
O O6 0.625731 0.798645 0.826456
O O7 0.676620 0.714470 0.925388
O O8 0.701045 0.677733 0.778928
O O9 0.940337 0.500000 0.823361
O O10 0.956429 0.228337 0.863257
O O11 0.049319 0.500000 0.500000
O O12 0.000000 0.741468 0.500000
O O13 0.250000 0.750000 0.000000
O O14 0.216591 0.000000 0.000000
O O15 0.000000 0.000000 0.914458
O O16 0.000000 0.235941 0.000000
O O17 0.750000 0.250000 0.341103
O O18 0.794821 0.000000 0.341947
#
# Coordination Sequence:
#
# PCOD8269153 Si02
#       7
#    16  16  16   8   8   8  16
#     4   9  19  36  59  88 118 148 185 228 277 337
#     4   9  19  34  51  73 105 144 182 222 274 334
#     4  10  21  36  57  83 110 140 180 233 280 325
#     4   9  18  34  62  91 116 149 186 225 276 339
#     4  10  20  32  48  71 100 135 176 222 269 320
#     4  11  25  41  57  76 105 148 192 233 279 333
#     4  10  19  33  55  80 111 149 190 233 279 332
#
# _framework density 19.167981000000001
#
# number of rings (size 3 to 8) (size 9 to 14) (size 15 to 20)
#    0.000    2.364    0.000    1.909    2.545    2.909 
#    0.000    0.909    0.000    0.545    0.000    0.000 
#    0.000    0.000    0.000    0.000    0.000    0.000 
#
# Total GULP energy -545191.548388 kJ/mol
# GULP energy per Si atom -12390.717009 kJ/mol
# Density = 1.912435 g / cm^3
# Si number density = 19.167981 Si / 1000 Ang^3
#
#
#
# Elastic Constant Matrix: (Units=GPa)
#
#
# Indices 1 2 3 4 5 6 
#
# 1 105.5289 44.4758 59.0779 0.0000 0.0000 0.0000
# 2 44.4758 61.2703 44.1927 0.0000 0.0000 0.0000
# 3 59.0779 44.1927 146.6520 0.0000 0.0000 0.0000
# 4 0.0000 0.0000 0.0000 19.5757 0.0000 0.0000
# 5 0.0000 0.0000 0.0000 0.0000 26.8989 0.0000
# 6 0.0000 0.0000 0.0000 0.0000 0.0000 31.9468
#
#
#
# Elastic Compliance Matrix: (Units=1/GPa)
#
#
# Indices 1 2 3 4 5 6 
#
# 1 0.014949 -0.008315 -0.003516 0.000000 0.000000 0.000000
# 2 -0.008315 0.025479 -0.004328 0.000000 0.000000 0.000000
# 3 -0.003516 -0.004328 0.009540 0.000000 0.000000 0.000000
# 4 0.000000 0.000000 0.000000 0.051084 0.000000 0.000000
# 5 0.000000 0.000000 0.000000 0.000000 0.037176 0.000000
# 6 0.000000 0.000000 0.000000 0.000000 0.000000 0.031302
#
#
# Mechanical properties :
#
#
# Convention : Reuss Voigt Hill
#
# Bulk Modulus (GPa) = 56.66327 67.66043 62.16185
# Shear Modulus (GPa) = 24.06945 26.73127 25.40036
#
# Velocity S-wave (km/s) = 3.54745 3.73846 3.64420
# Velocity P-wave (km/s) = 6.81210 7.34915 7.08572
#
# Compressibility (1/GPa) = 0.01764812
#
# Stress axis : x y z
#
# Youngs Moduli (GPa) = 66.89341 39.24821 104.82492
#
# Poissons Ratio (x) = 0.32636 0.36861
# Poissons Ratio (y) = 0.55623 0.45370
# Poissons Ratio (z) = 0.23523 0.16987
#
# Static dielectric constant tensor:
#      x y z
#    x 3.396140 0.000000 0.000000 
#    y 0.000000 3.406520 0.000000 
#    z 0.000000 0.000000 2.546690 
# 
# 
# High freq. dielectric constant tensor:
#      x y z
#    x 1.741240 0.000000 0.000000 
#    y 0.000000 1.737810 0.000000 
#    z 0.000000 0.000000 1.748010 
# 
# From -- ./inp_files/50550.got.cif
#   From: 2010.03.12/outbox.cif.g09.slc.cpg/sg65_26_cif.got.tgz:50550.got - 2010.04.10 20:52:16.
