data_PCOD8269992
_publ_section_title
;
Structure prediction by ZEFSAII (Michael W. Deem and Ramdas Pophale) SiO2 
 PCOD8269992
Probable space group: C M M M
;
_chemical_formula_sum "Si O2"
_cell_formula_units_Z 104
_cell_length_a 18.020125
_cell_length_b 21.599845
_cell_length_c 14.679496
_cell_angle_alpha 90.000000
_cell_angle_beta 90.000000
_cell_angle_gamma 90.000000
_cell_volume 5713.728220
_symmetry_space_group_name_H-M "C M M M"
_symmetry_group_IT_number 65
_symmetry_cell_setting 'orthorhombic'
loop_
_space_group_symop_operation_xyz
x,y,z
-x,-y,z
x,-y,-z
-x,y,-z
-x,-y,-z
x,y,-z
-x,y,z
x,-y,z
1/2+x,1/2+y,z
1/2-x,1/2-y,z
1/2+x,1/2-y,-z
1/2-x,1/2+y,-z
1/2-x,1/2-y,-z
1/2+x,1/2+y,-z
1/2-x,1/2+y,z
1/2+x,1/2-y,z
loop_
_atom_site_type_symbol
_atom_site_label
_atom_site_fract_x
_atom_site_fract_y
_atom_site_fract_z
Si Si1 0.915875 0.234498 0.395669
Si Si2 0.781758 0.574000 0.753030
Si Si3 0.323485 0.614668 0.606736
Si Si4 0.839909 0.073828 0.897865
Si Si5 0.500000 0.567925 0.891671
Si Si6 0.912499 0.568263 0.500000
Si Si7 0.581364 0.500000 0.391823
Si Si8 0.085673 0.364784 0.683459
O O1 0.903196 0.256379 0.500000
O O2 0.859280 0.180501 0.369147
O O3 0.901817 0.291304 0.327323
O O4 0.000000 0.209530 0.385429
O O5 0.789094 0.500000 0.748617
O O6 0.752869 0.604221 0.659082
O O7 0.727009 0.596249 0.833522
O O8 0.863150 0.605794 0.763982
O O9 0.307428 0.608132 0.500000
O O10 0.377842 0.561085 0.643600
O O11 0.921104 0.100916 0.864543
O O12 0.845928 0.000000 0.896388
O O13 0.821596 0.097141 0.000000
O O14 0.500000 0.500000 0.846489
O O15 0.500000 0.561492 0.000000
O O16 0.875726 0.500000 0.500000
O O17 0.887533 0.603717 0.590088
O O18 0.000000 0.562874 0.500000
O O19 0.500000 0.500000 0.348285
O O20 0.577025 0.500000 0.500000
O O21 0.000000 0.379349 0.706985
#
# Coordination Sequence:
#
# PCOD8269992 Si02
#       8
#    16  16  16  16   8   8   8  16
#     4   9  17  33  53  70  93 133 184 225 253 289
#     4  11  22  33  47  75 107 137 169 206 262 314
#     4  10  20  32  46  70 103 139 170 204 250 300
#     4   8  15  30  50  73 102 134 167 206 251 303
#     4   7  10  22  46  70  93 125 163 201 244 293
#     4   9  16  28  46  69  92 122 162 211 270 309
#     4   9  16  30  46  62  94 140 176 195 230 296
#     4  10  20  34  51  71  95 129 178 226 263 301
#
# _framework density 18.201775999999999
#
# number of rings (size 3 to 8) (size 9 to 14) (size 15 to 20)
#    0.000    2.692    1.538    1.846    1.077    3.385 
#    2.769    1.538    0.000    0.462    0.000    4.308 
#    0.000    1.231    0.000    0.000    0.000    0.000 
#
# Total GULP energy -644385.775577 kJ/mol
# GULP energy per Si atom -12392.034146 kJ/mol
# Density = 1.816035 g / cm^3
# Si number density = 18.201776 Si / 1000 Ang^3
#
#
#
# Elastic Constant Matrix: (Units=GPa)
#
#
# Indices 1 2 3 4 5 6 
#
# 1 133.1933 42.7175 51.1351 0.0000 0.0000 0.0000
# 2 42.7175 72.8340 22.2043 0.0000 0.0000 0.0000
# 3 51.1351 22.2043 51.9972 0.0000 0.0000 0.0000
# 4 0.0000 0.0000 0.0000 9.2498 0.0000 0.0000
# 5 0.0000 0.0000 0.0000 0.0000 28.0267 0.0000
# 6 0.0000 0.0000 0.0000 0.0000 0.0000 28.5120
#
#
#
# Elastic Compliance Matrix: (Units=1/GPa)
#
#
# Indices 1 2 3 4 5 6 
#
# 1 0.013154 -0.004336 -0.011084 0.000000 0.000000 0.000000
# 2 -0.004336 0.017214 -0.003087 0.000000 0.000000 0.000000
# 3 -0.011084 -0.003087 0.031451 0.000000 0.000000 0.000000
# 4 0.000000 0.000000 0.000000 0.108110 0.000000 0.000000
# 5 0.000000 0.000000 0.000000 0.000000 0.035680 0.000000
# 6 0.000000 0.000000 0.000000 0.000000 0.000000 0.035073
#
#
# Mechanical properties :
#
#
# Convention : Reuss Voigt Hill
#
# Bulk Modulus (GPa) = 40.31562 54.45980 47.38771
# Shear Modulus (GPa) = 17.48473 22.62221 20.05347
#
# Velocity S-wave (km/s) = 3.10273 3.52924 3.32283
# Velocity P-wave (km/s) = 5.91889 6.82586 6.38849
#
# Compressibility (1/GPa) = 0.02480428
#
# Stress axis : x y z
#
# Youngs Moduli (GPa) = 76.02340 58.09273 31.79590
#
# Poissons Ratio (x) = 0.25187 0.35244
# Poissons Ratio (y) = 0.32961 0.09816
# Poissons Ratio (z) = 0.84267 0.17934
#
# Static dielectric constant tensor:
#      x y z
#    x 3.548070 0.000000 0.000000 
#    y 0.000000 3.146000 0.000000 
#    z 0.000000 0.000000 3.062460 
# 
# 
# High freq. dielectric constant tensor:
#      x y z
#    x 1.716910 0.000000 0.000000 
#    y 0.000000 1.675460 0.000000 
#    z 0.000000 0.000000 1.660420 
# 
# From -- ./inp_files/43131.got.cif
#   From: 2010.03.12/outbox.cif.g09.slc.cpg/sg65_22_cif.got.tgz:43131.got - 2010.04.10 20:52:16.
