data_PCOD8269332
_publ_section_title
;
Structure prediction by ZEFSAII (Michael W. Deem and Ramdas Pophale) SiO2 
 PCOD8269332
Probable space group: C M M M
;
_chemical_formula_sum "Si O2"
_cell_formula_units_Z 96
_cell_length_a 8.923839
_cell_length_b 23.884562
_cell_length_c 25.385064
_cell_angle_alpha 90.000000
_cell_angle_beta 90.000000
_cell_angle_gamma 90.000000
_cell_volume 5410.622952
_symmetry_space_group_name_H-M "C M M M"
_symmetry_group_IT_number 65
_symmetry_cell_setting 'orthorhombic'
loop_
_space_group_symop_operation_xyz
x,y,z
-x,-y,z
x,-y,-z
-x,y,-z
-x,-y,-z
x,y,-z
-x,y,z
x,-y,z
1/2+x,1/2+y,z
1/2-x,1/2-y,z
1/2+x,1/2-y,-z
1/2-x,1/2+y,-z
1/2-x,1/2-y,-z
1/2+x,1/2+y,-z
1/2-x,1/2+y,z
1/2+x,1/2-y,z
loop_
_atom_site_type_symbol
_atom_site_label
_atom_site_fract_x
_atom_site_fract_y
_atom_site_fract_z
Si Si1 0.825115 0.064695 0.939786
Si Si2 0.825622 0.606346 0.155829
Si Si3 0.677106 0.500000 0.204898
Si Si4 0.822873 0.000000 0.678725
Si Si5 0.324030 0.691924 0.558611
Si Si6 0.823944 0.689370 0.247557
Si Si7 0.822237 0.878380 0.657177
O O1 0.731096 0.109607 0.904745
O O2 0.000000 0.076017 0.931177
O O3 0.787855 0.000000 0.924556
O O4 0.779265 0.075768 0.000000
O O5 0.731501 0.555531 0.177789
O O6 0.790665 0.661677 0.190367
O O7 0.000000 0.592274 0.157596
O O8 0.500000 0.500000 0.204121
O O9 0.745303 0.500000 0.263130
O O10 0.769066 0.942900 0.650839
O O11 0.000000 0.000000 0.681540
O O12 0.274212 0.672042 0.500000
O O13 0.500000 0.700781 0.560946
O O14 0.250000 0.750000 0.574057
O O15 0.270050 0.647741 0.601909
O O16 0.750000 0.750000 0.248781
O O17 0.757434 0.650876 0.293647
O O18 0.000000 0.695840 0.257502
O O19 0.000000 0.873083 0.666351
#
# Coordination Sequence:
#
# PCOD8269332 Si02
#       7
#    16  16   8   8  16  16  16
#     4   9  18  32  51  77 107 139 175 210 249 303
#     4  11  22  34  51  78 109 136 169 215 261 304
#     4  11  19  31  52  75 103 141 176 204 249 311
#     4   9  18  31  50  76 103 137 173 204 248 311
#     4   9  18  32  51  74 100 132 172 219 264 304
#     4  11  24  38  53  76 105 135 172 215 260 306
#     4  10  19  34  54  76 105 137 173 211 255 311
#
# _framework density 17.742874
#
# number of rings (size 3 to 8) (size 9 to 14) (size 15 to 20)
#    0.000    2.000    2.500    2.250    0.000    4.333 
#    0.000    1.667    0.000    3.000    0.000    0.000 
#    0.000    4.000    0.000    0.000    0.000    0.000 
#
# Total GULP energy -594975.828698 kJ/mol
# GULP energy per Si atom -12395.329765 kJ/mol
# Density = 1.770249 g / cm^3
# Si number density = 17.742874 Si / 1000 Ang^3
#
#
#
# Elastic Constant Matrix: (Units=GPa)
#
#
# Indices 1 2 3 4 5 6 
#
# 1 55.8972 38.5363 42.2322 0.0000 0.0000 0.0000
# 2 38.5363 125.9805 73.6007 0.0000 0.0000 0.0000
# 3 42.2322 73.6007 130.5287 0.0000 0.0000 0.0000
# 4 0.0000 0.0000 0.0000 21.5075 0.0000 0.0000
# 5 0.0000 0.0000 0.0000 0.0000 23.8611 0.0000
# 6 0.0000 0.0000 0.0000 0.0000 0.0000 11.5136
#
#
#
# Elastic Compliance Matrix: (Units=1/GPa)
#
#
# Indices 1 2 3 4 5 6 
#
# 1 0.025210 -0.004394 -0.005679 0.000000 0.000000 0.000000
# 2 -0.004394 0.012603 -0.005685 0.000000 0.000000 0.000000
# 3 -0.005679 -0.005685 0.012704 0.000000 0.000000 0.000000
# 4 0.000000 0.000000 0.000000 0.046495 0.000000 0.000000
# 5 0.000000 0.000000 0.000000 0.000000 0.041909 0.000000
# 6 0.000000 0.000000 0.000000 0.000000 0.000000 0.086854
#
#
# Mechanical properties :
#
#
# Convention : Reuss Voigt Hill
#
# Bulk Modulus (GPa) = 52.62693 69.01610 60.82151
# Shear Modulus (GPa) = 18.96638 21.91225 20.43931
#
# Velocity S-wave (km/s) = 3.27304 3.51805 3.39776
# Velocity P-wave (km/s) = 6.63393 7.44880 7.05314
#
# Compressibility (1/GPa) = 0.01900168
#
# Stress axis : x y z
#
# Youngs Moduli (GPa) = 39.66720 79.34687 78.71467
#
# Poissons Ratio (x) = 0.34861 0.44703
# Poissons Ratio (y) = 0.17428 0.44748
# Poissons Ratio (z) = 0.22528 0.45107
#
# Static dielectric constant tensor:
#      x y z
#    x 3.232950 0.000000 0.000000 
#    y 0.000000 3.268060 0.000000 
#    z 0.000000 0.000000 3.673900 
# 
# 
# High freq. dielectric constant tensor:
#      x y z
#    x 1.680330 0.000000 0.000000 
#    y 0.000000 1.669430 0.000000 
#    z 0.000000 0.000000 1.696620 
# 
# From -- ./inp_files/73485.got.cif
#   From: 2010.03.12/outbox.cif.g09.slc.cpg/sg65_37_cif.got.tgz:73485.got - 2010.04.10 20:52:16.
