data_PCOD8269810
_publ_section_title
;
Structure prediction by ZEFSAII (Michael W. Deem and Ramdas Pophale) SiO2 
 PCOD8269810
Probable space group: C M M M
;
_chemical_formula_sum "Si O2"
_cell_formula_units_Z 88
_cell_length_a 9.357573
_cell_length_b 26.824836
_cell_length_c 21.485265
_cell_angle_alpha 90.000000
_cell_angle_beta 90.000000
_cell_angle_gamma 90.000000
_cell_volume 5393.131552
_symmetry_space_group_name_H-M "C M M M"
_symmetry_group_IT_number 65
_symmetry_cell_setting 'orthorhombic'
loop_
_space_group_symop_operation_xyz
x,y,z
-x,-y,z
x,-y,-z
-x,y,-z
-x,-y,-z
x,y,-z
-x,y,z
x,-y,z
1/2+x,1/2+y,z
1/2-x,1/2-y,z
1/2+x,1/2-y,-z
1/2-x,1/2+y,-z
1/2-x,1/2-y,-z
1/2+x,1/2+y,-z
1/2-x,1/2+y,z
1/2+x,1/2-y,z
loop_
_atom_site_type_symbol
_atom_site_label
_atom_site_fract_x
_atom_site_fract_y
_atom_site_fract_z
Si Si1 0.834852 0.942212 0.618406
Si Si2 0.161491 0.559298 0.500000
Si Si3 0.165812 0.137240 0.070431
Si Si4 0.836494 0.798531 0.814690
Si Si5 0.334554 0.399594 0.749642
Si Si6 0.164472 0.557417 0.139650
O O1 0.741493 0.920986 0.561477
O O2 0.791331 0.910351 0.678743
O O3 0.000000 0.934864 0.600719
O O4 0.801365 0.000000 0.632181
O O5 0.166557 0.500000 0.500000
O O6 0.000000 0.579637 0.500000
O O7 0.210197 0.181832 0.116898
O O8 0.258677 0.088529 0.085319
O O9 0.000000 0.123327 0.081311
O O10 0.195451 0.154718 0.000000
O O11 0.750000 0.750000 0.795385
O O12 0.806529 0.841476 0.763919
O O13 0.000000 0.782410 0.815154
O O14 0.500000 0.413530 0.761685
O O15 0.239109 0.433836 0.794026
O O16 0.177749 0.500000 0.120879
O O17 0.000000 0.574172 0.144678
#
# Coordination Sequence:
#
# PCOD8269810 Si02
#       6
#    16   8  16  16  16  16
#     4   9  16  27  45  67  91 122 158 189 215 249
#     4   9  17  27  39  61  96 131 156 181 216 257
#     4   9  19  35  51  66  86 115 152 188 221 267
#     4   9  18  32  49  69  91 113 142 184 232 278
#     4   9  18  32  49  68  90 119 156 192 223 263
#     4  10  20  31  44  66  95 122 148 183 226 269
#
# _framework density 16.317050999999999
#
# number of rings (size 3 to 8) (size 9 to 14) (size 15 to 20)
#    0.000    2.818    0.000    2.455    0.000    8.000 
#    0.000    3.636    0.000    0.000    0.000    0.636 
#    0.000    0.000    0.000    0.000    0.000    0.000 
#
# Total GULP energy -545611.161166 kJ/mol
# GULP energy per Si atom -12400.253663 kJ/mol
# Density = 1.627991 g / cm^3
# Si number density = 16.317051 Si / 1000 Ang^3
#
#
#
# Elastic Constant Matrix: (Units=GPa)
#
#
# Indices 1 2 3 4 5 6 
#
# 1 70.7182 34.8755 40.5693 0.0000 0.0000 0.0000
# 2 34.8755 69.4711 34.7562 0.0000 0.0000 0.0000
# 3 40.5693 34.7562 124.7237 0.0000 0.0000 0.0000
# 4 0.0000 0.0000 0.0000 15.1676 0.0000 0.0000
# 5 0.0000 0.0000 0.0000 0.0000 15.0060 0.0000
# 6 0.0000 0.0000 0.0000 0.0000 0.0000 26.8590
#
#
#
# Elastic Compliance Matrix: (Units=1/GPa)
#
#
# Indices 1 2 3 4 5 6 
#
# 1 0.020734 -0.008174 -0.004466 0.000000 0.000000 0.000000
# 2 -0.008174 0.019949 -0.002900 0.000000 0.000000 0.000000
# 3 -0.004466 -0.002900 0.010279 0.000000 0.000000 0.000000
# 4 0.000000 0.000000 0.000000 0.065930 0.000000 0.000000
# 5 0.000000 0.000000 0.000000 0.000000 0.066640 0.000000
# 6 0.000000 0.000000 0.000000 0.000000 0.000000 0.037231
#
#
# Mechanical properties :
#
#
# Convention : Reuss Voigt Hill
#
# Bulk Modulus (GPa) = 50.30160 53.92391 52.11275
# Shear Modulus (GPa) = 19.34447 21.72066 20.53256
#
# Velocity S-wave (km/s) = 3.44690 3.65247 3.55117
# Velocity P-wave (km/s) = 6.83638 7.13489 6.98723
#
# Compressibility (1/GPa) = 0.01988008
#
# Stress axis : x y z
#
# Youngs Moduli (GPa) = 48.22966 50.12757 97.28851
#
# Poissons Ratio (x) = 0.40976 0.43453
# Poissons Ratio (y) = 0.39425 0.28216
# Poissons Ratio (z) = 0.21541 0.14538
#
# Static dielectric constant tensor:
#      x y z
#    x 3.143630 0.000000 0.000000 
#    y 0.000000 2.796450 0.000000 
#    z 0.000000 0.000000 3.140650 
# 
# 
# High freq. dielectric constant tensor:
#      x y z
#    x 1.632130 0.000000 0.000000 
#    y 0.000000 1.597720 0.000000 
#    z 0.000000 0.000000 1.625170 
# 
# From -- ./inp_files/60221.got.cif
#   From: 2010.03.12/outbox.cif.g09.slc.cpg/sg65_31_cif.got.tgz:60221.got - 2010.04.10 20:52:16.
