data_PCOD8269837
_publ_section_title
;
Structure prediction by ZEFSAII (Michael W. Deem and Ramdas Pophale) SiO2 
 PCOD8269837
Probable space group: C M M M
;
_chemical_formula_sum "Si O2"
_cell_formula_units_Z 80
_cell_length_a 28.503156
_cell_length_b 9.199831
_cell_length_c 18.251377
_cell_angle_alpha 90.000000
_cell_angle_beta 90.000000
_cell_angle_gamma 90.000000
_cell_volume 4785.953064
_symmetry_space_group_name_H-M "C M M M"
_symmetry_group_IT_number 65
_symmetry_cell_setting 'orthorhombic'
loop_
_space_group_symop_operation_xyz
x,y,z
-x,-y,z
x,-y,-z
-x,y,-z
-x,-y,-z
x,y,-z
-x,y,z
x,-y,z
1/2+x,1/2+y,z
1/2-x,1/2-y,z
1/2+x,1/2-y,-z
1/2-x,1/2+y,-z
1/2-x,1/2-y,-z
1/2+x,1/2+y,-z
1/2-x,1/2+y,z
1/2+x,1/2-y,z
loop_
_atom_site_type_symbol
_atom_site_label
_atom_site_fract_x
_atom_site_fract_y
_atom_site_fract_z
Si Si1 0.702869 0.168569 0.582655
Si Si2 0.799469 0.670034 0.841352
Si Si3 0.634076 0.170790 0.288436
Si Si4 0.054378 0.829809 0.645297
Si Si5 0.797447 0.666169 0.000000
Si Si6 0.944725 0.662457 0.500000
O O1 0.686799 0.209623 0.500000
O O2 0.750000 0.250000 0.605436
O O3 0.662182 0.213577 0.638294
O O4 0.714594 0.000000 0.589743
O O5 0.789587 0.500000 0.829485
O O6 0.750000 0.750000 0.830858
O O7 0.836750 0.725266 0.781877
O O8 0.822912 0.701840 0.922305
O O9 0.585346 0.260527 0.289437
O O10 0.622816 0.000000 0.284189
O O11 0.071159 0.750367 0.571254
O O12 0.000000 0.799510 0.663037
O O13 0.064187 0.000000 0.636838
O O14 0.750000 0.750000 0.000000
O O15 0.782833 0.500000 0.000000
O O16 0.921597 0.500000 0.500000
O O17 0.000000 0.646033 0.500000
#
# Coordination Sequence:
#
# PCOD8269837 Si02
#       6
#    16  16  16  16   8   8
#     4   9  18  31  44  60  85 117 152 188 221 260
#     4   9  17  29  46  70  98 127 158 192 230 278
#     4  10  20  31  46  68  92 121 158 194 233 280
#     4  10  21  35  49  68  93 119 153 198 243 284
#     4   8  14  26  44  66  95 126 153 187 232 275
#     4   9  17  31  51  69  86 113 148 189 237 283
#
# _framework density 16.715585000000001
#
# number of rings (size 3 to 8) (size 9 to 14) (size 15 to 20)
#    0.000    2.700    0.000    1.500    1.400    4.000 
#    0.000    0.000    0.000    0.000    0.000    0.700 
#    0.000    5.600    0.000    0.000    0.000    0.000 
#
# Total GULP energy -495754.713680 kJ/mol
# GULP energy per Si atom -12393.867842 kJ/mol
# Density = 1.667754 g / cm^3
# Si number density = 16.715585 Si / 1000 Ang^3
#
#
#
# Elastic Constant Matrix: (Units=GPa)
#
#
# Indices 1 2 3 4 5 6 
#
# 1 83.0000 44.4272 64.1454 0.0000 0.0000 0.0000
# 2 44.4272 63.8800 44.2731 0.0000 0.0000 0.0000
# 3 64.1454 44.2731 119.1663 0.0000 0.0000 0.0000
# 4 0.0000 0.0000 0.0000 17.2257 0.0000 0.0000
# 5 0.0000 0.0000 0.0000 0.0000 15.1687 0.0000
# 6 0.0000 0.0000 0.0000 0.0000 0.0000 27.8661
#
#
#
# Elastic Compliance Matrix: (Units=1/GPa)
#
#
# Indices 1 2 3 4 5 6 
#
# 1 0.025298 -0.010985 -0.009536 0.000000 0.000000 0.000000
# 2 -0.010985 0.025853 -0.003692 0.000000 0.000000 0.000000
# 3 -0.009536 -0.003692 0.014897 0.000000 0.000000 0.000000
# 4 0.000000 0.000000 0.000000 0.058053 0.000000 0.000000
# 5 0.000000 0.000000 0.000000 0.000000 0.065925 0.000000
# 6 0.000000 0.000000 0.000000 0.000000 0.000000 0.035886
#
#
# Mechanical properties :
#
#
# Convention : Reuss Voigt Hill
#
# Bulk Modulus (GPa) = 56.75043 63.52640 60.13842
# Shear Modulus (GPa) = 17.84363 19.59881 18.72122
#
# Velocity S-wave (km/s) = 3.27078 3.42787 3.35025
# Velocity P-wave (km/s) = 6.94898 7.33171 7.14291
#
# Compressibility (1/GPa) = 0.01762101
#
# Stress axis : x y z
#
# Youngs Moduli (GPa) = 39.52850 38.68032 67.12944
#
# Poissons Ratio (x) = 0.42490 0.64018
# Poissons Ratio (y) = 0.43422 0.24784
# Poissons Ratio (z) = 0.37696 0.14280
#
# Static dielectric constant tensor:
#      x y z
#    x 2.963370 0.000000 0.000000 
#    y 0.000000 3.070710 0.000000 
#    z 0.000000 0.000000 3.630870 
# 
# 
# High freq. dielectric constant tensor:
#      x y z
#    x 1.619710 0.000000 0.000000 
#    y 0.000000 1.647130 0.000000 
#    z 0.000000 0.000000 1.637220 
# 
# From -- ./inp_files/49965.got.cif
#   From: 2010.03.12/outbox.cif.g09.slc.cpg/sg65_25_cif.got.tgz:49965.got - 2010.04.10 20:52:16.
