data_PCOD8269935
_publ_section_title
;
Structure prediction by ZEFSAII (Michael W. Deem and Ramdas Pophale) SiO2 
 PCOD8269935
Probable space group: C M M M
;
_chemical_formula_sum "Si O2"
_cell_formula_units_Z 80
_cell_length_a 33.732838
_cell_length_b 14.121349
_cell_length_c 9.156263
_cell_angle_alpha 90.000000
_cell_angle_beta 90.000000
_cell_angle_gamma 90.000000
_cell_volume 4361.614980
_symmetry_space_group_name_H-M "C M M M"
_symmetry_group_IT_number 65
_symmetry_cell_setting 'orthorhombic'
loop_
_space_group_symop_operation_xyz
x,y,z
-x,-y,z
x,-y,-z
-x,y,-z
-x,-y,-z
x,y,-z
-x,y,z
x,-y,z
1/2+x,1/2+y,z
1/2-x,1/2-y,z
1/2+x,1/2-y,-z
1/2-x,1/2+y,-z
1/2-x,1/2-y,-z
1/2+x,1/2+y,-z
1/2-x,1/2+y,z
1/2+x,1/2-y,z
loop_
_atom_site_type_symbol
_atom_site_label
_atom_site_fract_x
_atom_site_fract_y
_atom_site_fract_z
Si Si1 0.846985 0.396070 0.173083
Si Si2 0.259889 0.111805 0.837777
Si Si3 0.314707 0.387548 0.663900
Si Si4 0.045702 0.108632 0.668181
Si Si5 0.385856 0.706654 0.827161
O O1 0.859551 0.500000 0.235523
O O2 0.803275 0.365350 0.230762
O O3 0.878576 0.316286 0.219315
O O4 0.843408 0.403631 0.000000
O O5 0.225149 0.155716 0.737275
O O6 0.254822 0.000000 0.846958
O O7 0.255293 0.155610 0.000000
O O8 0.318357 0.346928 0.500000
O O9 0.312327 0.500000 0.660465
O O10 0.352938 0.359942 0.756743
O O11 0.057687 0.124001 0.500000
O O12 0.071075 0.177822 0.769444
O O13 0.000000 0.134811 0.693406
O O14 0.053670 0.000000 0.712848
O O15 0.384163 0.693457 0.000000
#
# Coordination Sequence:
#
# PCOD8269935 Si02
#       5
#    16  16  16  16  16
#     4   8  16  32  51  70  95 129 167 206 248 289
#     4   8  14  28  49  67  87 123 170 212 245 281
#     4  10  20  32  45  65  99 137 166 198 245 297
#     4   9  19  37  58  77 101 133 160 184 228 292
#     4  11  21  31  50  78 101 124 160 205 245 284
#
# _framework density 18.341830000000002
#
# number of rings (size 3 to 8) (size 9 to 14) (size 15 to 20)
#    0.000    2.800    0.000    3.600    0.000    5.200 
#    0.000    7.000    0.000    5.400    0.000    4.200 
#    0.000    0.000    0.000    0.000    0.000    0.000 
#
# Total GULP energy -495847.404984 kJ/mol
# GULP energy per Si atom -12396.185125 kJ/mol
# Density = 1.830008 g / cm^3
# Si number density = 18.341830 Si / 1000 Ang^3
#
#
#
# Elastic Constant Matrix: (Units=GPa)
#
#
# Indices 1 2 3 4 5 6 
#
# 1 109.3769 51.4016 52.9313 0.0000 0.0000 0.0000
# 2 51.4016 69.0024 34.6765 0.0000 0.0000 0.0000
# 3 52.9313 34.6765 89.5115 0.0000 0.0000 0.0000
# 4 0.0000 0.0000 0.0000 13.4538 0.0000 0.0000
# 5 0.0000 0.0000 0.0000 0.0000 111.4135 0.0000
# 6 0.0000 0.0000 0.0000 0.0000 0.0000 26.4951
#
#
#
# Elastic Compliance Matrix: (Units=1/GPa)
#
#
# Indices 1 2 3 4 5 6 
#
# 1 0.016421 -0.009130 -0.006173 0.000000 0.000000 0.000000
# 2 -0.009130 0.023072 -0.003539 0.000000 0.000000 0.000000
# 3 -0.006173 -0.003539 0.016193 0.000000 0.000000 0.000000
# 4 0.000000 0.000000 0.000000 0.074328 0.000000 0.000000
# 5 0.000000 0.000000 0.000000 0.000000 0.008976 0.000000
# 6 0.000000 0.000000 0.000000 0.000000 0.000000 0.037743
#
#
# Mechanical properties :
#
#
# Convention : Reuss Voigt Hill
#
# Bulk Modulus (GPa) = 55.55162 60.65662 58.10412
# Shear Modulus (GPa) = 22.68421 38.86458 30.77439
#
# Velocity S-wave (km/s) = 3.52056 4.60815 4.10057
# Velocity P-wave (km/s) = 6.84678 7.83934 7.35981
#
# Compressibility (1/GPa) = 0.01800128
#
# Stress axis : x y z
#
# Youngs Moduli (GPa) = 60.89854 43.34274 61.75402
#
# Poissons Ratio (x) = 0.39572 0.38122
# Poissons Ratio (y) = 0.55600 0.21856
# Poissons Ratio (z) = 0.37594 0.15340
#
# Static dielectric constant tensor:
#      x y z
#    x 3.315690 0.000000 0.000000 
#    y 0.000000 3.419700 0.000000 
#    z 0.000000 0.000000 3.411230 
# 
# 
# High freq. dielectric constant tensor:
#      x y z
#    x 1.697630 0.000000 0.000000 
#    y 0.000000 1.704800 0.000000 
#    z 0.000000 0.000000 1.693780 
# 
# From -- ./inp_files/18181.got.cif
#   From: 2010.03.12/outbox.cif.g09.slc.cpg/sg65_10_cif.got.tgz:18181.got - 2010.04.10 20:52:16.
