data_PCOD8269055
_publ_section_title
;
Structure prediction by ZEFSAII (Michael W. Deem and Ramdas Pophale) SiO2 
 PCOD8269055
Probable space group: C M M M
;
_chemical_formula_sum "Si O2"
_cell_formula_units_Z 104
_cell_length_a 9.135258
_cell_length_b 28.271742
_cell_length_c 22.831567
_cell_angle_alpha 90.000000
_cell_angle_beta 90.000000
_cell_angle_gamma 90.000000
_cell_volume 5896.700984
_symmetry_space_group_name_H-M "C M M M"
_symmetry_group_IT_number 65
_symmetry_cell_setting 'orthorhombic'
loop_
_space_group_symop_operation_xyz
x,y,z
-x,-y,z
x,-y,-z
-x,y,-z
-x,-y,-z
x,y,-z
-x,y,z
x,-y,z
1/2+x,1/2+y,z
1/2-x,1/2-y,z
1/2+x,1/2-y,-z
1/2-x,1/2+y,-z
1/2-x,1/2-y,-z
1/2+x,1/2+y,-z
1/2-x,1/2+y,z
1/2+x,1/2-y,z
loop_
_atom_site_type_symbol
_atom_site_label
_atom_site_fract_x
_atom_site_fract_y
_atom_site_fract_z
Si Si1 0.826413 0.552828 0.000000
Si Si2 0.173138 0.895893 0.668528
Si Si3 0.172395 0.202504 0.853518
Si Si4 0.829685 0.796638 0.282042
Si Si5 0.669213 0.054129 0.567540
Si Si6 0.827160 0.610915 0.112359
Si Si7 0.832062 0.445305 0.772052
O O1 0.772419 0.580088 0.057632
O O2 0.759160 0.500000 0.000000
O O3 0.000000 0.549448 0.000000
O O4 0.223610 0.842169 0.681467
O O5 0.232754 0.910454 0.605217
O O6 0.234160 0.931305 0.717129
O O7 0.000000 0.900043 0.669291
O O8 0.250000 0.250000 0.876079
O O9 0.210920 0.194116 0.785470
O O10 0.239856 0.159876 0.890697
O O11 0.000000 0.206084 0.864586
O O12 0.750000 0.750000 0.306517
O O13 0.000000 0.787523 0.289937
O O14 0.698718 0.066158 0.500000
O O15 0.500000 0.061928 0.583503
O O16 0.713524 0.000000 0.580981
O O17 0.782355 0.583463 0.171066
O O18 0.000000 0.620954 0.109752
O O19 0.808053 0.500000 0.786569
O O20 0.000000 0.434551 0.755994
#
# Coordination Sequence:
#
# PCOD8269055 Si02
#       7
#     8  16  16  16  16  16  16
#     4   9  18  34  56  79 104 137 180 225 262 307
#     4  11  21  33  50  78 109 135 168 213 264 311
#     4  10  19  34  54  77 106 136 170 213 263 317
#     4   9  19  33  50  74 104 135 168 208 257 310
#     4   9  19  36  55  75 103 141 182 218 252 298
#     4  10  19  33  54  78 103 136 176 218 264 311
#     4  10  20  32  48  73 104 137 173 211 254 308
#
# _framework density 17.636980000000001
#
# number of rings (size 3 to 8) (size 9 to 14) (size 15 to 20)
#    0.000    2.231    1.538    2.308    0.000    6.462 
#    0.000    1.538    0.000    2.308    0.000    0.000 
#    0.000    0.000    0.000    0.000    0.000    0.000 
#
# Total GULP energy -644960.274238 kJ/mol
# GULP energy per Si atom -12403.082197 kJ/mol
# Density = 1.759684 g / cm^3
# Si number density = 17.636980 Si / 1000 Ang^3
#
#
#
# Elastic Constant Matrix: (Units=GPa)
#
#
# Indices 1 2 3 4 5 6 
#
# 1 57.9664 51.6659 33.7325 0.0000 0.0000 0.0000
# 2 51.6659 143.8513 56.0858 0.0000 0.0000 0.0000
# 3 33.7325 56.0858 86.7837 0.0000 0.0000 0.0000
# 4 0.0000 0.0000 0.0000 30.2253 0.0000 0.0000
# 5 0.0000 0.0000 0.0000 0.0000 17.9295 0.0000
# 6 0.0000 0.0000 0.0000 0.0000 0.0000 32.7070
#
#
#
# Elastic Compliance Matrix: (Units=1/GPa)
#
#
# Indices 1 2 3 4 5 6 
#
# 1 0.027348 -0.007590 -0.005725 0.000000 0.000000 0.000000
# 2 -0.007590 0.011400 -0.004417 0.000000 0.000000 0.000000
# 3 -0.005725 -0.004417 0.016603 0.000000 0.000000 0.000000
# 4 0.000000 0.000000 0.000000 0.033085 0.000000 0.000000
# 5 0.000000 0.000000 0.000000 0.000000 0.055774 0.000000
# 6 0.000000 0.000000 0.000000 0.000000 0.000000 0.030574
#
#
# Mechanical properties :
#
#
# Convention : Reuss Voigt Hill
#
# Bulk Modulus (GPa) = 50.28545 63.50773 56.89659
# Shear Modulus (GPa) = 23.05450 25.98018 24.51734
#
# Velocity S-wave (km/s) = 3.61940 3.84220 3.73246
# Velocity P-wave (km/s) = 6.78528 7.46792 7.13477
#
# Compressibility (1/GPa) = 0.01988647
#
# Stress axis : x y z
#
# Youngs Moduli (GPa) = 36.56555 87.71934 60.23125
#
# Poissons Ratio (x) = 0.66583 0.34480
# Poissons Ratio (y) = 0.27755 0.26605
# Poissons Ratio (z) = 0.20932 0.38747
#
# Static dielectric constant tensor:
#      x y z
#    x 3.156340 0.000000 0.000000 
#    y 0.000000 3.386570 0.000000 
#    z 0.000000 0.000000 3.162390 
# 
# 
# High freq. dielectric constant tensor:
#      x y z
#    x 1.672700 0.000000 0.000000 
#    y 0.000000 1.690420 0.000000 
#    z 0.000000 0.000000 1.666290 
# 
# From -- ./inp_files/60455.got.cif
#   From: 2010.03.12/outbox.cif.g09.slc.cpg/sg65_31_cif.got.tgz:60455.got - 2010.04.10 20:52:16.
