data_PCOD8269287
_publ_section_title
;
Structure prediction by ZEFSAII (Michael W. Deem and Ramdas Pophale) SiO2 
 PCOD8269287
Probable space group: C M M M
;
_chemical_formula_sum "Si O2"
_cell_formula_units_Z 104
_cell_length_a 9.391821
_cell_length_b 29.005728
_cell_length_c 22.816215
_cell_angle_alpha 90.000000
_cell_angle_beta 90.000000
_cell_angle_gamma 90.000000
_cell_volume 6215.515837
_symmetry_space_group_name_H-M "C M M M"
_symmetry_group_IT_number 65
_symmetry_cell_setting 'orthorhombic'
loop_
_space_group_symop_operation_xyz
x,y,z
-x,-y,z
x,-y,-z
-x,y,-z
-x,-y,-z
x,y,-z
-x,y,z
x,-y,z
1/2+x,1/2+y,z
1/2-x,1/2-y,z
1/2+x,1/2-y,-z
1/2-x,1/2+y,-z
1/2-x,1/2-y,-z
1/2+x,1/2+y,-z
1/2-x,1/2+y,z
1/2+x,1/2-y,z
loop_
_atom_site_type_symbol
_atom_site_label
_atom_site_fract_x
_atom_site_fract_y
_atom_site_fract_z
Si Si1 0.333408 0.104727 0.101984
Si Si2 0.164344 0.706125 0.067883
Si Si3 0.664436 0.447554 0.331086
Si Si4 0.334892 0.052744 0.780039
Si Si5 0.167789 0.054315 0.000000
Si Si6 0.159417 0.707944 0.569546
Si Si7 0.164235 0.880101 0.566766
O O1 0.500000 0.097717 0.085896
O O2 0.294092 0.159021 0.101385
O O3 0.296085 0.085245 0.165703
O O4 0.238059 0.076598 0.056904
O O5 0.250000 0.750000 0.093506
O O6 0.000000 0.717965 0.076649
O O7 0.202797 0.698139 0.000000
O O8 0.500000 0.441943 0.315020
O O9 0.708594 0.500000 0.342083
O O10 0.751563 0.427494 0.276167
O O11 0.702741 0.422361 0.391426
O O12 0.500000 0.055332 0.764877
O O13 0.289167 0.000000 0.794391
O O14 0.000000 0.064802 0.000000
O O15 0.199004 0.000000 0.000000
O O16 0.153075 0.712449 0.500000
O O17 0.250000 0.750000 0.596400
O O18 0.237665 0.661462 0.588258
O O19 0.000000 0.708540 0.595891
O O20 0.198563 0.894807 0.500000
O O21 0.000000 0.864749 0.572516
#
# Coordination Sequence:
#
# PCOD8269287 Si02
#       7
#    16  16  16  16   8  16  16
#     4  10  19  34  53  72  95 128 167 200 235 283
#     4   9  17  30  48  71  97 125 158 196 237 281
#     4   9  18  32  49  69  95 127 161 199 242 286
#     4   9  18  32  51  72  92 121 162 203 240 284
#     4  11  23  33  44  71 106 131 154 193 244 289
#     4   9  16  26  42  65  93 123 153 187 231 282
#     4   9  17  29  46  69  96 125 159 198 240 289
#
# _framework density 16.732320999999999
#
# number of rings (size 3 to 8) (size 9 to 14) (size 15 to 20)
#    0.000    2.692    0.769    1.154    0.000    5.231 
#    0.000    3.077    0.000    0.923    0.000    8.615 
#    0.000    0.000    0.000    0.000    0.000    0.000 
#
# Total GULP energy -644771.170374 kJ/mol
# GULP energy per Si atom -12399.445584 kJ/mol
# Density = 1.669424 g / cm^3
# Si number density = 16.732321 Si / 1000 Ang^3
#
#
#
# Elastic Constant Matrix: (Units=GPa)
#
#
# Indices 1 2 3 4 5 6 
#
# 1 83.0386 63.4292 52.8233 0.0000 0.0000 0.0000
# 2 63.4292 121.3838 67.3306 0.0000 0.0000 0.0000
# 3 52.8233 67.3306 97.0056 0.0000 0.0000 0.0000
# 4 0.0000 0.0000 0.0000 8.8556 0.0000 0.0000
# 5 0.0000 0.0000 0.0000 0.0000 24.9074 0.0000
# 6 0.0000 0.0000 0.0000 0.0000 0.0000 29.5563
#
#
#
# Elastic Compliance Matrix: (Units=1/GPa)
#
#
# Indices 1 2 3 4 5 6 
#
# 1 0.022382 -0.008025 -0.006618 0.000000 0.000000 0.000000
# 2 -0.008025 0.016273 -0.006925 0.000000 0.000000 0.000000
# 3 -0.006618 -0.006925 0.018719 0.000000 0.000000 0.000000
# 4 0.000000 0.000000 0.000000 0.112923 0.000000 0.000000
# 5 0.000000 0.000000 0.000000 0.000000 0.040149 0.000000
# 6 0.000000 0.000000 0.000000 0.000000 0.000000 0.033834
#
#
# Mechanical properties :
#
#
# Convention : Reuss Voigt Hill
#
# Bulk Modulus (GPa) = 70.23256 74.28824 72.26040
# Shear Modulus (GPa) = 17.11379 20.52019 18.81699
#
# Velocity S-wave (km/s) = 3.20159 3.50577 3.35713
# Velocity P-wave (km/s) = 7.46540 7.80267 7.63590
#
# Compressibility (1/GPa) = 0.01423841
#
# Stress axis : x y z
#
# Youngs Moduli (GPa) = 44.67796 61.45119 53.42151
#
# Poissons Ratio (x) = 0.49315 0.35354
# Poissons Ratio (y) = 0.35854 0.36995
# Poissons Ratio (z) = 0.29568 0.42555
#
# Static dielectric constant tensor:
#      x y z
#    x 3.229520 0.000000 0.000000 
#    y 0.000000 3.230960 0.000000 
#    z 0.000000 0.000000 2.956100 
# 
# 
# High freq. dielectric constant tensor:
#      x y z
#    x 1.648130 0.000000 0.000000 
#    y 0.000000 1.646470 0.000000 
#    z 0.000000 0.000000 1.615530 
# 
# From -- ./inp_files/60863.got.cif
#   From: 2010.03.12/outbox.cif.g09.slc.cpg/sg65_31_cif.got.tgz:60863.got - 2010.04.10 20:52:16.
