data_PCOD8269886
_publ_section_title
;
Structure prediction by ZEFSAII (Michael W. Deem and Ramdas Pophale) SiO2 
 PCOD8269886
Probable space group: C M M M
;
_chemical_formula_sum "Si O2"
_cell_formula_units_Z 80
_cell_length_a 17.522091
_cell_length_b 20.726528
_cell_length_c 14.372814
_cell_angle_alpha 90.000000
_cell_angle_beta 90.000000
_cell_angle_gamma 90.000000
_cell_volume 5219.805183
_symmetry_space_group_name_H-M "C M M M"
_symmetry_group_IT_number 65
_symmetry_cell_setting 'orthorhombic'
loop_
_space_group_symop_operation_xyz
x,y,z
-x,-y,z
x,-y,-z
-x,y,-z
-x,-y,-z
x,y,-z
-x,y,z
x,-y,z
1/2+x,1/2+y,z
1/2-x,1/2-y,z
1/2+x,1/2-y,-z
1/2-x,1/2+y,-z
1/2-x,1/2-y,-z
1/2+x,1/2+y,-z
1/2-x,1/2+y,z
1/2+x,1/2-y,z
loop_
_atom_site_type_symbol
_atom_site_label
_atom_site_fract_x
_atom_site_fract_y
_atom_site_fract_z
Si Si1 0.821644 0.000000 0.389222
Si Si2 0.147299 0.500000 0.389439
Si Si3 0.340046 0.754880 0.605736
Si Si4 0.913651 0.122879 0.610737
Si Si5 0.909479 0.427797 0.101492
Si Si6 0.589116 0.873780 0.707556
O O1 0.864315 0.063319 0.349531
O O2 0.824597 0.000000 0.500000
O O3 0.734730 0.000000 0.354165
O O4 0.143239 0.500000 0.500000
O O5 0.104236 0.562635 0.352402
O O6 0.367821 0.766888 0.500000
O O7 0.250000 0.750000 0.609724
O O8 0.377150 0.689628 0.646432
O O9 0.364593 0.814227 0.668157
O O10 0.911884 0.121208 0.500000
O O11 0.000000 0.116954 0.648107
O O12 0.876328 0.500000 0.114729
O O13 0.881024 0.383334 0.186313
O O14 0.000000 0.431852 0.105878
O O15 0.883488 0.400308 0.000000
O O16 0.500000 0.857494 0.703551
#
# Coordination Sequence:
#
# PCOD8269886 Si02
#       6
#     8   8  16  16  16  16
#     4   9  17  29  43  58  79 109 144 184 226 261
#     4  11  21  29  38  59  93 125 149 173 209 260
#     4  10  20  32  43  58  87 126 158 182 218 268
#     4   9  16  27  43  60  76 102 147 195 226 249
#     4   8  14  27  46  66  88 112 142 182 224 266
#     4  11  20  30  45  66  89 117 151 186 220 259
#
# _framework density 15.326242000000001
#
# number of rings (size 3 to 8) (size 9 to 14) (size 15 to 20)
#    0.000    2.400    1.000    3.600    0.000    7.200 
#    0.000    0.000    0.000    0.600    0.000    0.000 
#    0.000    0.000    0.000    0.000    0.000   25.900 
#
# Total GULP energy -495877.756820 kJ/mol
# GULP energy per Si atom -12396.943920 kJ/mol
# Density = 1.529136 g / cm^3
# Si number density = 15.326242 Si / 1000 Ang^3
#
#
#
# Elastic Constant Matrix: (Units=GPa)
#
#
# Indices 1 2 3 4 5 6 
#
# 1 43.2894 15.0869 19.7038 0.0000 0.0000 0.0000
# 2 15.0869 107.0995 44.6752 0.0000 0.0000 0.0000
# 3 19.7038 44.6752 84.3848 0.0000 0.0000 0.0000
# 4 0.0000 0.0000 0.0000 12.0265 0.0000 0.0000
# 5 0.0000 0.0000 0.0000 0.0000 7.4150 0.0000
# 6 0.0000 0.0000 0.0000 0.0000 0.0000 28.1656
#
#
#
# Elastic Compliance Matrix: (Units=1/GPa)
#
#
# Indices 1 2 3 4 5 6 
#
# 1 0.026022 -0.001452 -0.005308 0.000000 0.000000 0.000000
# 2 -0.001452 0.012065 -0.006048 0.000000 0.000000 0.000000
# 3 -0.005308 -0.006048 0.016292 0.000000 0.000000 0.000000
# 4 0.000000 0.000000 0.000000 0.083150 0.000000 0.000000
# 5 0.000000 0.000000 0.000000 0.000000 0.134862 0.000000
# 6 0.000000 0.000000 0.000000 0.000000 0.000000 0.035504
#
#
# Mechanical properties :
#
#
# Convention : Reuss Voigt Hill
#
# Bulk Modulus (GPa) = 34.76639 43.74507 39.25573
# Shear Modulus (GPa) = 14.57314 19.87527 17.22420
#
# Velocity S-wave (km/s) = 3.08695 3.60504 3.35601
# Velocity P-wave (km/s) = 5.95308 6.77738 6.37856
#
# Compressibility (1/GPa) = 0.02876342
#
# Stress axis : x y z
#
# Youngs Moduli (GPa) = 38.42888 82.88727 61.38022
#
# Poissons Ratio (x) = 0.12033 0.32578
# Poissons Ratio (y) = 0.05579 0.37125
# Poissons Ratio (z) = 0.20397 0.50133
#
# Static dielectric constant tensor:
#      x y z
#    x 2.909490 0.000000 0.000000 
#    y 0.000000 3.107360 0.000000 
#    z 0.000000 0.000000 2.904520 
# 
# 
# High freq. dielectric constant tensor:
#      x y z
#    x 1.580030 0.000000 0.000000 
#    y 0.000000 1.591490 0.000000 
#    z 0.000000 0.000000 1.545630 
# 
# From -- ./inp_files/42646.got.cif
#   From: 2010.03.12/outbox.cif.g09.slc.cpg/sg65_22_cif.got.tgz:42646.got - 2010.04.10 20:52:16.
