data_PCOD8269198
_publ_section_title
;
Structure prediction by ZEFSAII (Michael W. Deem and Ramdas Pophale) SiO2 
 PCOD8269198
Probable space group: C M M M
;
_chemical_formula_sum "Si O2"
_cell_formula_units_Z 104
_cell_length_a 29.972800
_cell_length_b 20.025152
_cell_length_c 8.738564
_cell_angle_alpha 90.000000
_cell_angle_beta 90.000000
_cell_angle_gamma 90.000000
_cell_volume 5244.972414
_symmetry_space_group_name_H-M "C M M M"
_symmetry_group_IT_number 65
_symmetry_cell_setting 'orthorhombic'
loop_
_space_group_symop_operation_xyz
x,y,z
-x,-y,z
x,-y,-z
-x,y,-z
-x,-y,-z
x,y,-z
-x,y,z
x,-y,z
1/2+x,1/2+y,z
1/2-x,1/2-y,z
1/2+x,1/2-y,-z
1/2-x,1/2+y,-z
1/2-x,1/2-y,-z
1/2+x,1/2+y,-z
1/2-x,1/2+y,z
1/2+x,1/2-y,z
loop_
_atom_site_type_symbol
_atom_site_label
_atom_site_fract_x
_atom_site_fract_y
_atom_site_fract_z
Si Si1 0.000000 0.080007 0.171761
Si Si2 0.815865 0.500000 0.830329
Si Si3 0.449164 0.923747 0.319522
Si Si4 0.826199 0.882346 0.821383
Si Si5 0.801067 0.253686 0.680571
Si Si6 0.634315 0.863366 0.174451
Si Si7 0.226960 0.000000 0.322816
Si Si8 0.586794 0.422368 0.331649
O O1 0.957555 0.109969 0.260889
O O2 0.000000 0.000000 0.168705
O O3 0.000000 0.108285 0.000000
O O4 0.846427 0.436600 0.808951
O O5 0.779837 0.500000 0.695126
O O6 0.793388 0.500000 0.000000
O O7 0.442936 0.920232 0.500000
O O8 0.500000 0.904057 0.273915
O O9 0.415262 0.869025 0.246871
O O10 0.439629 0.000000 0.263397
O O11 0.824579 0.814045 0.729453
O O12 0.789812 0.933310 0.758091
O O13 0.874540 0.912420 0.791278
O O14 0.817994 0.870554 0.000000
O O15 0.800150 0.261541 0.500000
O O16 0.750000 0.250000 0.744314
O O17 0.830794 0.313872 0.744803
O O18 0.629507 0.839544 0.000000
O O19 0.212390 0.000000 0.500000
O O20 0.597262 0.391103 0.500000
O O21 0.578579 0.500000 0.353065
#
# Coordination Sequence:
#
# PCOD8269198 Si02
#       8
#     8   8  16  16  16  16   8  16
#     4   9  17  29  49  79 115 149 187 232 282 339
#     4  10  22  38  57  87 123 156 194 244 298 353
#     4   9  18  34  59  92 128 166 208 254 306 364
#     4  12  24  39  61  86 116 154 195 245 302 358
#     4  11  25  44  64  87 117 159 207 252 304 370
#     4  11  22  38  61  91 125 162 203 251 308 366
#     4  12  24  38  58  86 118 154 198 249 298 355
#     4  10  19  33  55  83 115 149 188 234 282 339
#
# _framework density 19.828512
#
# number of rings (size 3 to 8) (size 9 to 14) (size 15 to 20)
#    0.000    1.462    1.538    5.077    0.000    6.769 
#    0.000    0.769    1.692    0.000    0.000    0.000 
#    0.000    0.000    0.000    0.000    0.000    0.000 
#
# Total GULP energy -644698.091928 kJ/mol
# GULP energy per Si atom -12398.040229 kJ/mol
# Density = 1.978338 g / cm^3
# Si number density = 19.828512 Si / 1000 Ang^3
#
#
#
# Elastic Constant Matrix: (Units=GPa)
#
#
# Indices 1 2 3 4 5 6 
#
# 1 127.6096 24.4885 54.9958 0.0000 0.0000 0.0000
# 2 24.4885 77.9261 34.9107 0.0000 0.0000 0.0000
# 3 54.9958 34.9107 89.8723 0.0000 0.0000 0.0000
# 4 0.0000 0.0000 0.0000 27.6085 0.0000 0.0000
# 5 0.0000 0.0000 0.0000 0.0000 78.0363 0.0000
# 6 0.0000 0.0000 0.0000 0.0000 0.0000 13.5589
#
#
#
# Elastic Compliance Matrix: (Units=1/GPa)
#
#
# Indices 1 2 3 4 5 6 
#
# 1 0.010661 -0.000518 -0.006322 0.000000 0.000000 0.000000
# 2 -0.000518 0.015561 -0.005728 0.000000 0.000000 0.000000
# 3 -0.006322 -0.005728 0.017221 0.000000 0.000000 0.000000
# 4 0.000000 0.000000 0.000000 0.036221 0.000000 0.000000
# 5 0.000000 0.000000 0.000000 0.000000 0.012815 0.000000
# 6 0.000000 0.000000 0.000000 0.000000 0.000000 0.073752
#
#
# Mechanical properties :
#
#
# Convention : Reuss Voigt Hill
#
# Bulk Modulus (GPa) = 54.62521 58.24421 56.43471
# Shear Modulus (GPa) = 25.32042 35.90827 30.61435
#
# Velocity S-wave (km/s) = 3.57735 4.26013 3.93358
# Velocity P-wave (km/s) = 6.68370 7.32366 7.01099
#
# Compressibility (1/GPa) = 0.01830657
#
# Stress axis : x y z
#
# Youngs Moduli (GPa) = 93.80410 64.26119 58.06916
#
# Poissons Ratio (x) = 0.03327 0.36714
# Poissons Ratio (y) = 0.04856 0.33262
# Poissons Ratio (z) = 0.59307 0.36809
#
# Static dielectric constant tensor:
#      x y z
#    x 3.765480 0.000000 0.000000 
#    y 0.000000 3.396890 0.000000 
#    z 0.000000 0.000000 3.762780 
# 
# 
# High freq. dielectric constant tensor:
#      x y z
#    x 1.786920 0.000000 0.000000 
#    y 0.000000 1.743310 0.000000 
#    z 0.000000 0.000000 1.782950 
# 
# From -- ./inp_files/16531.got.cif
#   From: 2010.03.12/outbox.cif.g09.slc.cpg/sg65_9_cif.got.tgz:16531.got - 2010.04.10 20:52:16.
