data_PCOD8269319
_publ_section_title
;
Structure prediction by ZEFSAII (Michael W. Deem and Ramdas Pophale) SiO2 
 PCOD8269319
Probable space group: C M M M
;
_chemical_formula_sum "Si O2"
_cell_formula_units_Z 104
_cell_length_a 8.117660
_cell_length_b 29.242142
_cell_length_c 24.711797
_cell_angle_alpha 90.000000
_cell_angle_beta 90.000000
_cell_angle_gamma 90.000000
_cell_volume 5866.031176
_symmetry_space_group_name_H-M "C M M M"
_symmetry_group_IT_number 65
_symmetry_cell_setting 'orthorhombic'
loop_
_space_group_symop_operation_xyz
x,y,z
-x,-y,z
x,-y,-z
-x,y,-z
-x,-y,-z
x,y,-z
-x,y,z
x,-y,z
1/2+x,1/2+y,z
1/2-x,1/2-y,z
1/2+x,1/2-y,-z
1/2-x,1/2+y,-z
1/2-x,1/2-y,-z
1/2+x,1/2+y,-z
1/2-x,1/2+y,z
1/2+x,1/2-y,z
loop_
_atom_site_type_symbol
_atom_site_label
_atom_site_fract_x
_atom_site_fract_y
_atom_site_fract_z
Si Si1 0.000000 0.945791 0.560552
Si Si2 0.693313 0.797422 0.767416
Si Si3 0.192396 0.610940 0.940707
Si Si4 0.188705 0.446131 0.369018
Si Si5 0.809774 0.948892 0.844813
Si Si6 0.307863 0.104054 0.741620
Si Si7 0.694827 0.797793 0.888835
O O1 0.170995 0.929369 0.588802
O O2 0.000000 0.925339 0.500000
O O3 0.000000 0.000000 0.558882
O O4 0.500000 0.796876 0.770099
O O5 0.750000 0.750000 0.738562
O O6 0.751458 0.843025 0.735439
O O7 0.768102 0.799854 0.827931
O O8 0.222273 0.571433 0.897397
O O9 0.270846 0.659279 0.921303
O O10 0.000000 0.618087 0.946389
O O11 0.266438 0.598176 0.000000
O O12 0.201694 0.500000 0.359338
O O13 0.235294 0.421778 0.313305
O O14 0.000000 0.433579 0.387880
O O15 0.784134 0.919192 0.791305
O O16 0.000000 0.950414 0.858653
O O17 0.739995 0.000000 0.834884
O O18 0.500000 0.101418 0.755181
O O19 0.500000 0.801297 0.887497
O O20 0.750000 0.750000 0.916398
#
# Coordination Sequence:
#
# PCOD8269319 Si02
#       7
#     8  16  16  16  16  16  16
#     4   9  18  32  50  74 110 152 187 221 259 303
#     4   9  17  30  48  71 100 130 159 196 248 305
#     4  10  21  38  56  71  90 120 161 204 247 302
#     4   9  18  31  49  76 108 144 184 224 262 301
#     4  11  24  37  51  73  97 124 160 204 256 308
#     4  10  19  34  54  75 102 136 169 209 252 301
#     4   9  17  31  49  71  95 119 152 193 241 299
#
# _framework density 17.729194
#
# number of rings (size 3 to 8) (size 9 to 14) (size 15 to 20)
#    0.000    2.385    1.538    0.923    1.077    4.308 
#    0.000    3.077    0.000    0.000    0.000    0.000 
#    0.000    0.615    0.308    0.000    0.000    0.000 
#
# Total GULP energy -644469.287417 kJ/mol
# GULP energy per Si atom -12393.640143 kJ/mol
# Density = 1.768884 g / cm^3
# Si number density = 17.729194 Si / 1000 Ang^3
#
#
#
# Elastic Constant Matrix: (Units=GPa)
#
#
# Indices 1 2 3 4 5 6 
#
# 1 48.7913 20.9643 39.0137 0.0000 0.0000 0.0000
# 2 20.9643 106.7062 41.6817 0.0000 0.0000 0.0000
# 3 39.0137 41.6817 104.1954 0.0000 0.0000 0.0000
# 4 0.0000 0.0000 0.0000 8.7354 0.0000 0.0000
# 5 0.0000 0.0000 0.0000 0.0000 19.8201 0.0000
# 6 0.0000 0.0000 0.0000 0.0000 0.0000 22.4411
#
#
#
# Elastic Compliance Matrix: (Units=1/GPa)
#
#
# Indices 1 2 3 4 5 6 
#
# 1 0.029529 -0.001757 -0.010354 0.000000 0.000000 0.000000
# 2 -0.001757 0.011212 -0.003827 0.000000 0.000000 0.000000
# 3 -0.010354 -0.003827 0.015005 0.000000 0.000000 0.000000
# 4 0.000000 0.000000 0.000000 0.114477 0.000000 0.000000
# 5 0.000000 0.000000 0.000000 0.000000 0.050454 0.000000
# 6 0.000000 0.000000 0.000000 0.000000 0.000000 0.044561
#
#
# Mechanical properties :
#
#
# Convention : Reuss Voigt Hill
#
# Bulk Modulus (GPa) = 41.89342 51.44580 46.66961
# Shear Modulus (GPa) = 16.38964 20.73485 18.56225
#
# Velocity S-wave (km/s) = 3.04377 3.42355 3.23923
# Velocity P-wave (km/s) = 6.00280 6.68642 6.35381
#
# Compressibility (1/GPa) = 0.02387010
#
# Stress axis : x y z
#
# Youngs Moduli (GPa) = 33.86465 89.19247 66.64424
#
# Poissons Ratio (x) = 0.15673 0.69001
# Poissons Ratio (y) = 0.05951 0.25506
# Poissons Ratio (z) = 0.35062 0.34135
#
# Static dielectric constant tensor:
#      x y z
#    x 3.246860 0.000000 0.000000 
#    y 0.000000 3.609110 0.000000 
#    z 0.000000 0.000000 3.215520 
# 
# 
# High freq. dielectric constant tensor:
#      x y z
#    x 1.682610 0.000000 0.000000 
#    y 0.000000 1.683540 0.000000 
#    z 0.000000 0.000000 1.650990 
# 
# From -- ./inp_files/60899.got.cif
#   From: 2010.03.12/outbox.cif.g09.slc.cpg/sg65_31_cif.got.tgz:60899.got - 2010.04.10 20:52:16.
