data_PCOD8269829
_publ_section_title
;
Structure prediction by ZEFSAII (Michael W. Deem and Ramdas Pophale) SiO2 
 PCOD8269829
Probable space group: C M M M
;
_chemical_formula_sum "Si O2"
_cell_formula_units_Z 120
_cell_length_a 23.424151
_cell_length_b 32.400598
_cell_length_c 9.381829
_cell_angle_alpha 90.000000
_cell_angle_beta 90.000000
_cell_angle_gamma 90.000000
_cell_volume 7120.400102
_symmetry_space_group_name_H-M "C M M M"
_symmetry_group_IT_number 65
_symmetry_cell_setting 'orthorhombic'
loop_
_space_group_symop_operation_xyz
x,y,z
-x,-y,z
x,-y,-z
-x,y,-z
-x,-y,-z
x,y,-z
-x,y,z
x,-y,z
1/2+x,1/2+y,z
1/2-x,1/2-y,z
1/2+x,1/2-y,-z
1/2-x,1/2+y,-z
1/2-x,1/2-y,-z
1/2+x,1/2+y,-z
1/2-x,1/2+y,z
1/2+x,1/2-y,z
loop_
_atom_site_type_symbol
_atom_site_label
_atom_site_fract_x
_atom_site_fract_y
_atom_site_fract_z
Si Si1 0.066017 0.306296 0.664627
Si Si2 0.657172 0.047930 0.831935
Si Si3 0.122028 0.046334 0.829194
Si Si4 0.233850 0.812843 0.831255
Si Si5 0.730112 0.404796 0.829937
Si Si6 0.000000 0.049132 0.843384
Si Si7 0.933812 0.400141 0.334178
Si Si8 0.841016 0.261009 0.831776
O O1 0.081208 0.300200 0.500000
O O2 0.080893 0.353156 0.711334
O O3 0.100537 0.272823 0.755202
O O4 0.000000 0.297238 0.693434
O O5 0.714569 0.070274 0.776375
O O6 0.602759 0.068115 0.757462
O O7 0.660920 0.000000 0.789919
O O8 0.649860 0.053766 0.000000
O O9 0.172778 0.074402 0.768475
O O10 0.060026 0.062097 0.767650
O O11 0.134529 0.000000 0.776855
O O12 0.119693 0.047523 0.000000
O O13 0.230369 0.858603 0.766086
O O14 0.178611 0.785393 0.788285
O O15 0.291948 0.791985 0.776428
O O16 0.236923 0.814998 0.000000
O O17 0.728841 0.404855 0.000000
O O18 0.000000 0.000000 0.858091
O O19 0.000000 0.069391 0.000000
O O20 0.920078 0.406677 0.500000
O O21 0.000000 0.409475 0.303342
O O22 0.850388 0.264651 0.000000
#
# Coordination Sequence:
#
# PCOD8269829 Si02
#       8
#    16  16  16  16  16   8  16  16
#     4   9  18  32  49  69  92 116 146 189 233 270
#     4  10  20  31  45  69  96 120 153 195 232 268
#     4   8  12  18  30  48  72 105 142 175 207 249
#     4   8  15  26  41  61  84 115 148 180 216 263
#     4   9  15  24  39  58  85 118 146 176 223 269
#     4   7  10  16  26  42  64  94 135 171 195 231
#     4   9  19  35  51  66  87 119 157 191 227 275
#     4   9  16  28  46  66  89 116 149 180 216 268
#
# _framework density 16.852986000000001
#
# number of rings (size 3 to 8) (size 9 to 14) (size 15 to 20)
#    0.000    3.267    0.000    3.600    0.000    4.267 
#    0.000    4.000    1.467    0.800    0.000    0.000 
#    0.000    0.000    0.000    0.000    0.000    6.933 
#
# Total GULP energy -743531.816264 kJ/mol
# GULP energy per Si atom -12392.196938 kJ/mol
# Density = 1.681463 g / cm^3
# Si number density = 16.852986 Si / 1000 Ang^3
#
#
#
# Elastic Constant Matrix: (Units=GPa)
#
#
# Indices 1 2 3 4 5 6 
#
# 1 124.0954 72.0418 33.2626 0.0000 0.0000 0.0000
# 2 72.0418 117.6817 28.9781 0.0000 0.0000 0.0000
# 3 33.2626 28.9781 25.9257 0.0000 0.0000 0.0000
# 4 0.0000 0.0000 0.0000 16.1685 0.0000 0.0000
# 5 0.0000 0.0000 0.0000 0.0000 8.0370 0.0000
# 6 0.0000 0.0000 0.0000 0.0000 0.0000 32.5580
#
#
#
# Elastic Compliance Matrix: (Units=1/GPa)
#
#
# Indices 1 2 3 4 5 6 
#
# 1 0.014888 -0.006085 -0.012299 0.000000 0.000000 0.000000
# 2 -0.006085 0.014212 -0.008078 0.000000 0.000000 0.000000
# 3 -0.012299 -0.008078 0.063380 0.000000 0.000000 0.000000
# 4 0.000000 0.000000 0.000000 0.061849 0.000000 0.000000
# 5 0.000000 0.000000 0.000000 0.000000 0.124424 0.000000
# 6 0.000000 0.000000 0.000000 0.000000 0.000000 0.030714
#
#
# Mechanical properties :
#
#
# Convention : Reuss Voigt Hill
#
# Bulk Modulus (GPa) = 25.28090 59.58532 42.43311
# Shear Modulus (GPa) = 13.31287 20.24739 16.78013
#
# Velocity S-wave (km/s) = 2.81364 3.46990 3.15886
# Velocity P-wave (km/s) = 5.05854 7.17540 6.20786
#
# Compressibility (1/GPa) = 0.03955555
#
# Stress axis : x y z
#
# Youngs Moduli (GPa) = 67.16934 70.36385 15.77784
#
# Poissons Ratio (x) = 0.42819 0.19405
# Poissons Ratio (y) = 0.40875 0.12745
# Poissons Ratio (z) = 0.82612 0.56837
#
# Static dielectric constant tensor:
#      x y z
#    x 3.346660 0.000000 0.000000 
#    y 0.000000 3.297130 0.000000 
#    z 0.000000 0.000000 2.608100 
# 
# 
# High freq. dielectric constant tensor:
#      x y z
#    x 1.661070 0.000000 0.000000 
#    y 0.000000 1.642510 0.000000 
#    z 0.000000 0.000000 1.592210 
# 
# From -- ./inp_files/29795.got.cif
#   From: 2010.03.12/outbox.cif.g09.slc.cpg/sg65_15_cif.got.tgz:29795.got - 2010.04.10 20:52:16.
