data_PCOD8269869
_publ_section_title
;
Structure prediction by ZEFSAII (Michael W. Deem and Ramdas Pophale) SiO2 
 PCOD8269869
Probable space group: C M M M
;
_chemical_formula_sum "Si O2"
_cell_formula_units_Z 120
_cell_length_a 18.135926
_cell_length_b 15.074922
_cell_length_c 23.950343
_cell_angle_alpha 90.000000
_cell_angle_beta 90.000000
_cell_angle_gamma 90.000000
_cell_volume 6547.967968
_symmetry_space_group_name_H-M "C M M M"
_symmetry_group_IT_number 65
_symmetry_cell_setting 'orthorhombic'
loop_
_space_group_symop_operation_xyz
x,y,z
-x,-y,z
x,-y,-z
-x,y,-z
-x,-y,-z
x,y,-z
-x,y,z
x,-y,z
1/2+x,1/2+y,z
1/2-x,1/2-y,z
1/2+x,1/2-y,-z
1/2-x,1/2+y,-z
1/2-x,1/2-y,-z
1/2+x,1/2+y,-z
1/2-x,1/2+y,z
1/2+x,1/2-y,z
loop_
_atom_site_type_symbol
_atom_site_label
_atom_site_fract_x
_atom_site_fract_y
_atom_site_fract_z
Si Si1 0.164095 0.747078 0.833673
Si Si2 0.413481 0.102747 0.366524
Si Si3 0.913073 0.808099 0.064092
Si Si4 0.664813 0.250673 0.434252
Si Si5 0.162670 0.898877 0.249899
Si Si6 0.333322 0.101175 0.253258
Si Si7 0.413939 0.397912 0.635156
Si Si8 0.087175 0.000000 0.061468
O O1 0.250000 0.750000 0.845912
O O2 0.124234 0.739075 0.893640
O O3 0.138535 0.834595 0.800103
O O4 0.141337 0.660493 0.798745
O O5 0.500000 0.122945 0.365792
O O6 0.374648 0.161358 0.413512
O O7 0.380358 0.129892 0.306794
O O8 0.396920 0.000000 0.380076
O O9 0.888338 0.906067 0.088124
O O10 0.000000 0.795664 0.066931
O O11 0.886534 0.793278 0.000000
O O12 0.654937 0.254825 0.500000
O O13 0.750000 0.250000 0.416334
O O14 0.627798 0.338249 0.409442
O O15 0.247516 0.882764 0.267172
O O16 0.113118 0.874702 0.302881
O O17 0.149337 0.000000 0.230157
O O18 0.349329 0.000000 0.236640
O O19 0.500000 0.376900 0.631868
O O20 0.396387 0.500000 0.620664
O O21 0.000000 0.000000 0.056739
O O22 0.121489 0.000000 0.000000
#
# Coordination Sequence:
#
# PCOD8269869 Si02
#       8
#    16  16  16  16  16  16  16   8
#     4  10  20  31  48  76 104 136 172 214 256 302
#     4  10  21  37  59  84 107 135 174 224 278 320
#     4   9  18  32  50  72 100 135 172 210 257 312
#     4  11  24  39  56  79 107 143 185 223 260 313
#     4   9  18  32  51  76 107 139 171 208 256 315
#     4   9  18  34  53  74 104 139 175 214 257 310
#     4  10  21  37  57  82 112 143 175 216 267 322
#     4   7  12  26  46  68  94 124 159 197 240 298
#
# _framework density 18.326295999999999
#
# number of rings (size 3 to 8) (size 9 to 14) (size 15 to 20)
#    0.000    2.467    0.000    2.800    0.933    5.600 
#    0.000    2.667    0.000    0.400    0.000    0.933 
#    0.000    0.000    0.000    0.000    0.000    0.000 
#
# Total GULP energy -743852.610241 kJ/mol
# GULP energy per Si atom -12397.543504 kJ/mol
# Density = 1.828458 g / cm^3
# Si number density = 18.326296 Si / 1000 Ang^3
#
#
#
# Elastic Constant Matrix: (Units=GPa)
#
#
# Indices 1 2 3 4 5 6 
#
# 1 81.8587 44.4343 58.8840 0.0000 0.0000 0.0000
# 2 44.4343 91.7798 62.7430 0.0000 0.0000 0.0000
# 3 58.8840 62.7430 115.2946 0.0000 0.0000 0.0000
# 4 0.0000 0.0000 0.0000 25.7371 0.0000 0.0000
# 5 0.0000 0.0000 0.0000 0.0000 17.7891 0.0000
# 6 0.0000 0.0000 0.0000 0.0000 0.0000 25.7583
#
#
#
# Elastic Compliance Matrix: (Units=1/GPa)
#
#
# Indices 1 2 3 4 5 6 
#
# 1 0.020358 -0.004376 -0.008016 0.000000 0.000000 0.000000
# 2 -0.004376 0.018291 -0.007719 0.000000 0.000000 0.000000
# 3 -0.008016 -0.007719 0.016968 0.000000 0.000000 0.000000
# 4 0.000000 0.000000 0.000000 0.038854 0.000000 0.000000
# 5 0.000000 0.000000 0.000000 0.000000 0.056214 0.000000
# 6 0.000000 0.000000 0.000000 0.000000 0.000000 0.038822
#
#
# Mechanical properties :
#
#
# Convention : Reuss Voigt Hill
#
# Bulk Modulus (GPa) = 64.95605 69.00619 66.98112
# Shear Modulus (GPa) = 21.28918 22.04837 21.66877
#
# Velocity S-wave (km/s) = 3.41203 3.47234 3.44232
# Velocity P-wave (km/s) = 7.14449 7.33567 7.24071
#
# Compressibility (1/GPa) = 0.01539503
#
# Stress axis : x y z
#
# Youngs Moduli (GPa) = 49.12162 54.67095 58.93486
#
# Poissons Ratio (x) = 0.23925 0.47240
# Poissons Ratio (y) = 0.21497 0.45492
# Poissons Ratio (z) = 0.39374 0.42200
#
# Static dielectric constant tensor:
#      x y z
#    x 3.300980 0.000000 0.000000 
#    y 0.000000 3.627870 0.000000 
#    z 0.000000 0.000000 3.245780 
# 
# 
# High freq. dielectric constant tensor:
#      x y z
#    x 1.702490 0.000000 0.000000 
#    y 0.000000 1.715640 0.000000 
#    z 0.000000 0.000000 1.702680 
# 
# From -- ./inp_files/64744.got.cif
#   From: 2010.03.12/outbox.cif.g09.slc.cpg/sg65_33_cif.got.tgz:64744.got - 2010.04.10 20:52:16.
