data_PCOD8269221
_publ_section_title
;
Structure prediction by ZEFSAII (Michael W. Deem and Ramdas Pophale) SiO2 
 PCOD8269221
Probable space group: C M M M
;
_chemical_formula_sum "Si O2"
_cell_formula_units_Z 72
_cell_length_a 15.213980
_cell_length_b 13.735030
_cell_length_c 17.491131
_cell_angle_alpha 90.000000
_cell_angle_beta 90.000000
_cell_angle_gamma 90.000000
_cell_volume 3655.024949
_symmetry_space_group_name_H-M "C M M M"
_symmetry_group_IT_number 65
_symmetry_cell_setting 'orthorhombic'
loop_
_space_group_symop_operation_xyz
x,y,z
-x,-y,z
x,-y,-z
-x,y,-z
-x,-y,-z
x,y,-z
-x,y,z
x,-y,z
1/2+x,1/2+y,z
1/2-x,1/2-y,z
1/2+x,1/2-y,-z
1/2-x,1/2+y,-z
1/2-x,1/2-y,-z
1/2+x,1/2+y,-z
1/2-x,1/2+y,z
1/2+x,1/2-y,z
loop_
_atom_site_type_symbol
_atom_site_label
_atom_site_fract_x
_atom_site_fract_y
_atom_site_fract_z
Si Si1 0.650046 0.727836 0.916809
Si Si2 0.000000 0.612750 0.590296
Si Si3 0.101230 0.893222 0.222964
Si Si4 0.346149 0.223438 0.673810
Si Si5 0.900742 0.390516 0.188985
O O1 0.750000 0.750000 0.930233
O O2 0.646496 0.641845 0.855079
O O3 0.601100 0.824689 0.886504
O O4 0.608904 0.699357 0.000000
O O5 0.088555 0.670614 0.614602
O O6 0.000000 0.500000 0.621284
O O7 0.000000 0.610701 0.500000
O O8 0.113774 0.824434 0.296232
O O9 0.000000 0.897158 0.202511
O O10 0.138181 0.000000 0.244008
O O11 0.250000 0.250000 0.638304
O O12 0.334112 0.151635 0.746971
O O13 0.873413 0.500000 0.167521
O O14 0.000000 0.386319 0.223668
#
# Coordination Sequence:
#
# PCOD8269221 Si02
#       5
#    16   8  16  16  16
#     4  10  21  34  47  70 108 150 196 255 312 361
#     4  11  24  44  69  97 130 163 197 241 295 359
#     4  10  20  35  56  81 110 150 199 248 299 352
#     4  11  21  37  64  92 123 159 199 247 296 352
#     4  10  19  33  56  83 112 150 200 255 307 361
#
# _framework density 19.698907999999999
#
# number of rings (size 3 to 8) (size 9 to 14) (size 15 to 20)
#    0.000    1.667    2.222    5.333    0.000    7.556 
#    0.000    4.444    0.000    1.333    0.000    0.000 
#    0.000    0.000    0.000    0.000    0.000    0.000 
#
# Total GULP energy -446186.399022 kJ/mol
# GULP energy per Si atom -12394.066639 kJ/mol
# Density = 1.965407 g / cm^3
# Si number density = 19.698908 Si / 1000 Ang^3
#
#
#
# Elastic Constant Matrix: (Units=GPa)
#
#
# Indices 1 2 3 4 5 6 
#
# 1 94.4980 29.5939 26.4129 0.0000 0.0000 0.0000
# 2 29.5939 161.0746 43.3110 0.0000 0.0000 0.0000
# 3 26.4129 43.3110 79.4259 0.0000 0.0000 0.0000
# 4 0.0000 0.0000 0.0000 20.7779 0.0000 0.0000
# 5 0.0000 0.0000 0.0000 0.0000 25.2766 0.0000
# 6 0.0000 0.0000 0.0000 0.0000 0.0000 16.7537
#
#
#
# Elastic Compliance Matrix: (Units=1/GPa)
#
#
# Indices 1 2 3 4 5 6 
#
# 1 0.011900 -0.001315 -0.003240 0.000000 0.000000 0.000000
# 2 -0.001315 0.007420 -0.003609 0.000000 0.000000 0.000000
# 3 -0.003240 -0.003609 0.015636 0.000000 0.000000 0.000000
# 4 0.000000 0.000000 0.000000 0.048128 0.000000 0.000000
# 5 0.000000 0.000000 0.000000 0.000000 0.039562 0.000000
# 6 0.000000 0.000000 0.000000 0.000000 0.000000 0.059688
#
#
# Mechanical properties :
#
#
# Convention : Reuss Voigt Hill
#
# Bulk Modulus (GPa) = 53.68403 59.29268 56.48836
# Shear Modulus (GPa) = 24.40546 28.27368 26.33957
#
# Velocity S-wave (km/s) = 3.52365 3.79263 3.66062
# Velocity P-wave (km/s) = 6.62316 7.02450 6.82678
#
# Compressibility (1/GPa) = 0.01862751
#
# Stress axis : x y z
#
# Youngs Moduli (GPa) = 84.03568 134.76483 63.95572
#
# Poissons Ratio (x) = 0.17723 0.20722
# Poissons Ratio (y) = 0.11051 0.23082
# Poissons Ratio (z) = 0.27228 0.48636
#
# Static dielectric constant tensor:
#      x y z
#    x 3.648970 0.000000 0.000000 
#    y 0.000000 3.989460 0.000000 
#    z 0.000000 0.000000 3.364500 
# 
# 
# High freq. dielectric constant tensor:
#      x y z
#    x 1.773450 0.000000 0.000000 
#    y 0.000000 1.774560 0.000000 
#    z 0.000000 0.000000 1.735370 
# 
# From -- ./inp_files/52705.got.cif
#   From: 2010.03.12/outbox.cif.g09.slc.cpg/sg65_27_cif.got.tgz:52705.got - 2010.04.10 20:52:16.
