data_PCOD8269026
_publ_section_title
;
Structure prediction by ZEFSAII (Michael W. Deem and Ramdas Pophale) SiO2 
 PCOD8269026
Probable space group: C M M M
;
_chemical_formula_sum "Si O2"
_cell_formula_units_Z 88
_cell_length_a 19.535543
_cell_length_b 8.746051
_cell_length_c 28.049345
_cell_angle_alpha 90.000000
_cell_angle_beta 90.000000
_cell_angle_gamma 90.000000
_cell_volume 4792.478981
_symmetry_space_group_name_H-M "C M M M"
_symmetry_group_IT_number 65
_symmetry_cell_setting 'orthorhombic'
loop_
_space_group_symop_operation_xyz
x,y,z
-x,-y,z
x,-y,-z
-x,y,-z
-x,-y,-z
x,y,-z
-x,y,z
x,-y,z
1/2+x,1/2+y,z
1/2-x,1/2-y,z
1/2+x,1/2-y,-z
1/2-x,1/2+y,-z
1/2-x,1/2-y,-z
1/2+x,1/2+y,-z
1/2-x,1/2+y,z
1/2+x,1/2-y,z
loop_
_atom_site_type_symbol
_atom_site_label
_atom_site_fract_x
_atom_site_fract_y
_atom_site_fract_z
Si Si1 0.676777 0.817919 0.583486
Si Si2 0.422911 0.818981 0.865930
Si Si3 0.677530 0.681755 0.684557
Si Si4 0.422192 0.679636 0.768245
Si Si5 0.922757 0.681104 0.500000
Si Si6 0.321813 0.819133 0.946410
O O1 0.750000 0.750000 0.567688
O O2 0.654036 0.752785 0.634482
O O3 0.618690 0.763434 0.546514
O O4 0.683430 0.000000 0.585694
O O5 0.500000 0.758021 0.873254
O O6 0.392877 0.756564 0.816204
O O7 0.378813 0.755774 0.910138
O O8 0.420671 0.000000 0.864356
O O9 0.682989 0.500000 0.679619
O O10 0.750000 0.750000 0.700574
O O11 0.622483 0.734161 0.723585
O O12 0.500000 0.732944 0.758748
O O13 0.417098 0.500000 0.775222
O O14 0.927298 0.500000 0.500000
O O15 0.000000 0.750454 0.500000
O O16 0.250000 0.750000 0.930227
O O17 0.316248 0.000000 0.943682
O O18 0.341197 0.765906 0.000000
#
# Coordination Sequence:
#
# PCOD8269026 Si02
#       6
#    16  16  16  16   8  16
#     4  10  19  33  54  75  99 131 164 200 240 285
#     4   9  18  32  50  72  96 124 161 201 238 282
#     4  10  20  34  52  74 100 128 162 202 241 286
#     4   9  19  35  52  70  96 130 162 196 242 289
#     4   9  19  34  51  75 104 131 162 200 242 287
#     4   9  18  32  49  70  97 127 158 195 240 287
#
# _framework density 18.362103999999999
#
# number of rings (size 3 to 8) (size 9 to 14) (size 15 to 20)
#    0.000    2.636    0.000    2.455    0.000    4.000 
#    0.000    6.818    0.000    3.818    0.000    5.091 
#    0.000    0.000    0.000    0.000    0.000    0.000 
#
# Total GULP energy -545591.451979 kJ/mol
# GULP energy per Si atom -12399.805727 kJ/mol
# Density = 1.832031 g / cm^3
# Si number density = 18.362104 Si / 1000 Ang^3
#
#
#
# Elastic Constant Matrix: (Units=GPa)
#
#
# Indices 1 2 3 4 5 6 
#
# 1 130.0706 30.2952 110.7931 0.0000 0.0000 0.0000
# 2 30.2952 41.3161 36.7253 0.0000 0.0000 0.0000
# 3 110.7931 36.7253 164.9422 0.0000 0.0000 0.0000
# 4 0.0000 0.0000 0.0000 27.2982 0.0000 0.0000
# 5 0.0000 0.0000 0.0000 0.0000 42.9148 0.0000
# 6 0.0000 0.0000 0.0000 0.0000 0.0000 24.3298
#
#
#
# Elastic Compliance Matrix: (Units=1/GPa)
#
#
# Indices 1 2 3 4 5 6 
#
# 1 0.018283 -0.003104 -0.011590 0.000000 0.000000 0.000000
# 2 -0.003104 0.030703 -0.004751 0.000000 0.000000 0.000000
# 3 -0.011590 -0.004751 0.014906 0.000000 0.000000 0.000000
# 4 0.000000 0.000000 0.000000 0.036632 0.000000 0.000000
# 5 0.000000 0.000000 0.000000 0.000000 0.023302 0.000000
# 6 0.000000 0.000000 0.000000 0.000000 0.000000 0.041102
#
#
# Mechanical properties :
#
#
# Convention : Reuss Voigt Hill
#
# Bulk Modulus (GPa) = 39.99750 76.88401 58.44075
# Shear Modulus (GPa) = 23.56795 29.47623 26.52209
#
# Velocity S-wave (km/s) = 3.58650 4.01094 3.80464
# Velocity P-wave (km/s) = 6.24344 7.96317 7.15516
#
# Compressibility (1/GPa) = 0.02500156
#
# Stress axis : x y z
#
# Youngs Moduli (GPa) = 54.69460 32.57012 67.08886
#
# Poissons Ratio (x) = 0.10111 0.77755
# Poissons Ratio (y) = 0.16979 0.31874
# Poissons Ratio (z) = 0.63390 0.15474
#
# Static dielectric constant tensor:
#      x y z
#    x 6.556930 0.000000 0.000000 
#    y 0.000000 3.231580 0.000000 
#    z 0.000000 0.000000 3.610450 
# 
# 
# High freq. dielectric constant tensor:
#      x y z
#    x 1.708950 0.000000 0.000000 
#    y 0.000000 1.701530 0.000000 
#    z 0.000000 0.000000 1.722220 
# 
# From -- ./inp_files/77957.got.cif
#   From: 2010.03.12/outbox.cif.g09.slc.cpg/sg65_39_cif.got.tgz:77957.got - 2010.04.10 20:52:16.
