data_PCOD8269033
_publ_section_title
;
Structure prediction by ZEFSAII (Michael W. Deem and Ramdas Pophale) SiO2 
 PCOD8269033
Probable space group: C M M M
;
_chemical_formula_sum "Si O2"
_cell_formula_units_Z 64
_cell_length_a 8.820912
_cell_length_b 15.145794
_cell_length_c 24.709935
_cell_angle_alpha 90.000000
_cell_angle_beta 90.000000
_cell_angle_gamma 90.000000
_cell_volume 3301.240299
_symmetry_space_group_name_H-M "C M M M"
_symmetry_group_IT_number 65
_symmetry_cell_setting 'orthorhombic'
loop_
_space_group_symop_operation_xyz
x,y,z
-x,-y,z
x,-y,-z
-x,y,-z
-x,-y,-z
x,y,-z
-x,y,z
x,-y,z
1/2+x,1/2+y,z
1/2-x,1/2-y,z
1/2+x,1/2-y,-z
1/2-x,1/2+y,-z
1/2-x,1/2-y,-z
1/2+x,1/2+y,-z
1/2-x,1/2+y,z
1/2+x,1/2-y,z
loop_
_atom_site_type_symbol
_atom_site_label
_atom_site_fract_x
_atom_site_fract_y
_atom_site_fract_z
Si Si1 0.823177 0.844854 0.135492
Si Si2 0.677147 0.344949 0.254568
Si Si3 0.320203 0.153249 0.361309
Si Si4 0.318960 0.500000 0.938933
Si Si5 0.320125 0.000000 0.439580
O O1 0.750000 0.750000 0.126633
O O2 0.793972 0.887648 0.195401
O O3 0.000000 0.830319 0.126886
O O4 0.756700 0.913074 0.091563
O O5 0.500000 0.339345 0.268057
O O6 0.750000 0.250000 0.250590
O O7 0.739271 0.108195 0.305082
O O8 0.500000 0.161582 0.358903
O O9 0.250000 0.250000 0.371077
O O10 0.265199 0.088581 0.409134
O O11 0.500000 0.500000 0.937384
O O12 0.256341 0.500000 0.000000
O O13 0.500000 0.000000 0.441694
O O14 0.250687 0.000000 0.500000
#
# Coordination Sequence:
#
# PCOD8269033 Si02
#       5
#    16  16  16   8   8
#     4   9  18  32  51  74  99 130 164 200 245 294
#     4   9  16  28  48  74 103 129 158 198 245 296
#     4  10  19  33  54  77 101 130 164 201 244 293
#     4   9  18  33  51  71  97 131 170 205 242 294
#     4   9  20  37  53  71  99 135 170 201 240 294
#
# _framework density 19.386652999999999
#
# number of rings (size 3 to 8) (size 9 to 14) (size 15 to 20)
#    0.000    2.750    0.000    3.000    0.000    3.000 
#    0.000    4.375    0.000    6.000    0.000    0.000 
#    0.000    0.000    0.000    0.000    0.000    0.000 
#
# Total GULP energy -396478.321703 kJ/mol
# GULP energy per Si atom -12389.947553 kJ/mol
# Density = 1.934253 g / cm^3
# Si number density = 19.386653 Si / 1000 Ang^3
#
#
#
# Elastic Constant Matrix: (Units=GPa)
#
#
# Indices 1 2 3 4 5 6 
#
# 1 63.4249 31.7435 43.5452 0.0000 0.0000 0.0000
# 2 31.7435 117.7227 90.8251 0.0000 0.0000 0.0000
# 3 43.5452 90.8251 199.2067 0.0000 0.0000 0.0000
# 4 0.0000 0.0000 0.0000 33.9918 0.0000 0.0000
# 5 0.0000 0.0000 0.0000 0.0000 19.3483 0.0000
# 6 0.0000 0.0000 0.0000 0.0000 0.0000 13.2121
#
#
#
# Elastic Compliance Matrix: (Units=1/GPa)
#
#
# Indices 1 2 3 4 5 6 
#
# 1 0.019211 -0.002993 -0.002835 0.000000 0.000000 0.000000
# 2 -0.002993 0.013570 -0.005533 0.000000 0.000000 0.000000
# 3 -0.002835 -0.005533 0.008162 0.000000 0.000000 0.000000
# 4 0.000000 0.000000 0.000000 0.029419 0.000000 0.000000
# 5 0.000000 0.000000 0.000000 0.000000 0.051684 0.000000
# 6 0.000000 0.000000 0.000000 0.000000 0.000000 0.075688
#
#
# Mechanical properties :
#
#
# Convention : Reuss Voigt Hill
#
# Bulk Modulus (GPa) = 54.87876 79.17578 67.02727
# Shear Modulus (GPa) = 22.07214 27.59315 24.83264
#
# Velocity S-wave (km/s) = 3.37786 3.77677 3.58287
# Velocity P-wave (km/s) = 6.60168 7.74259 7.19478
#
# Compressibility (1/GPa) = 0.01822198
#
# Stress axis : x y z
#
# Youngs Moduli (GPa) = 52.05378 73.69005 122.51598
#
# Poissons Ratio (x) = 0.22056 0.34730
# Poissons Ratio (y) = 0.15580 0.67787
# Poissons Ratio (z) = 0.14756 0.40772
#
# Static dielectric constant tensor:
#      x y z
#    x 3.335130 0.000000 0.000000 
#    y 0.000000 3.432250 0.000000 
#    z 0.000000 0.000000 4.440700 
# 
# 
# High freq. dielectric constant tensor:
#      x y z
#    x 1.732480 0.000000 0.000000 
#    y 0.000000 1.740870 0.000000 
#    z 0.000000 0.000000 1.766770 
# 
# From -- ./inp_files/68744.got.cif
#   From: 2010.03.12/outbox.cif.g09.slc.cpg/sg65_35_cif.got.tgz:68744.got - 2010.04.10 20:52:16.
