data_PCOD8269200
_publ_section_title
;
Structure prediction by ZEFSAII (Michael W. Deem and Ramdas Pophale) SiO2 
 PCOD8269200
Probable space group: C M M M
;
_chemical_formula_sum "Si O2"
_cell_formula_units_Z 72
_cell_length_a 15.504576
_cell_length_b 8.786137
_cell_length_c 26.319535
_cell_angle_alpha 90.000000
_cell_angle_beta 90.000000
_cell_angle_gamma 90.000000
_cell_volume 3585.387311
_symmetry_space_group_name_H-M "C M M M"
_symmetry_group_IT_number 65
_symmetry_cell_setting 'orthorhombic'
loop_
_space_group_symop_operation_xyz
x,y,z
-x,-y,z
x,-y,-z
-x,y,-z
-x,-y,-z
x,y,-z
-x,y,z
x,-y,z
1/2+x,1/2+y,z
1/2-x,1/2-y,z
1/2+x,1/2-y,-z
1/2-x,1/2+y,-z
1/2-x,1/2-y,-z
1/2+x,1/2+y,-z
1/2-x,1/2+y,z
1/2+x,1/2-y,z
loop_
_atom_site_type_symbol
_atom_site_label
_atom_site_fract_x
_atom_site_fract_y
_atom_site_fract_z
Si Si1 0.397422 0.671814 0.500000
Si Si2 0.500000 0.680668 0.768066
Si Si3 0.101560 0.676424 0.603090
Si Si4 0.500000 0.319412 0.116468
Si Si5 0.340054 0.177584 0.059184
Si Si6 0.661930 0.319826 0.295422
O O1 0.361540 0.500000 0.500000
O O2 0.500000 0.672257 0.500000
O O3 0.363401 0.760007 0.549591
O O4 0.500000 0.500000 0.766003
O O5 0.500000 0.739311 0.825684
O O6 0.584453 0.744039 0.739438
O O7 0.125516 0.500000 0.607320
O O8 0.149647 0.768209 0.646816
O O9 0.000000 0.704538 0.608430
O O10 0.500000 0.500000 0.112886
O O11 0.415348 0.256969 0.089865
O O12 0.250000 0.250000 0.076813
O O13 0.338546 0.000000 0.071734
O O14 0.356682 0.208622 0.000000
O O15 0.666990 0.500000 0.293294
O O16 0.750000 0.250000 0.273318
#
# Coordination Sequence:
#
# PCOD8269200 Si02
#       6
#     8   8  16   8  16  16
#     4   9  17  29  50  81 114 152 189 224 281 347
#     4   9  22  42  62  84 117 156 196 245 297 350
#     4  10  19  33  55  84 116 148 188 236 285 342
#     4  11  22  38  61  90 123 159 202 249 302 356
#     4  10  21  38  60  89 125 164 205 248 296 352
#     4  11  22  40  62  85 113 150 194 240 293 350
#
# _framework density 20.081513999999999
#
# number of rings (size 3 to 8) (size 9 to 14) (size 15 to 20)
#    0.000    1.889    1.111    3.000    0.000    5.778 
#    0.000    7.222    0.000    0.000    0.000    0.000 
#    0.000    0.000    0.000    0.000    0.000    0.000 
#
# Total GULP energy -446553.281127 kJ/mol
# GULP energy per Si atom -12404.257809 kJ/mol
# Density = 2.003581 g / cm^3
# Si number density = 20.081514 Si / 1000 Ang^3
#
#
#
# Elastic Constant Matrix: (Units=GPa)
#
#
# Indices 1 2 3 4 5 6 
#
# 1 154.2279 60.0733 83.9789 0.0000 0.0000 0.0000
# 2 60.0733 104.8402 51.6673 0.0000 0.0000 0.0000
# 3 83.9789 51.6673 126.4314 0.0000 0.0000 0.0000
# 4 0.0000 0.0000 0.0000 25.1443 0.0000 0.0000
# 5 0.0000 0.0000 0.0000 0.0000 7.4794 0.0000
# 6 0.0000 0.0000 0.0000 0.0000 0.0000 35.9204
#
#
#
# Elastic Compliance Matrix: (Units=1/GPa)
#
#
# Indices 1 2 3 4 5 6 
#
# 1 0.011047 -0.003398 -0.005949 0.000000 0.000000 0.000000
# 2 -0.003398 0.012989 -0.003051 0.000000 0.000000 0.000000
# 3 -0.005949 -0.003051 0.013108 0.000000 0.000000 0.000000
# 4 0.000000 0.000000 0.000000 0.039770 0.000000 0.000000
# 5 0.000000 0.000000 0.000000 0.000000 0.133701 0.000000
# 6 0.000000 0.000000 0.000000 0.000000 0.000000 0.027839
#
#
# Mechanical properties :
#
#
# Convention : Reuss Voigt Hill
#
# Bulk Modulus (GPa) = 80.98788 86.32649 83.65719
# Shear Modulus (GPa) = 18.70100 26.36084 22.53092
#
# Velocity S-wave (km/s) = 3.05496 3.62704 3.35322
# Velocity P-wave (km/s) = 7.27054 7.78601 7.53269
#
# Compressibility (1/GPa) = 0.01234753
#
# Stress axis : x y z
#
# Youngs Moduli (GPa) = 90.52479 76.98827 76.29147
#
# Poissons Ratio (x) = 0.26161 0.45385
# Poissons Ratio (y) = 0.30761 0.23277
# Poissons Ratio (z) = 0.53852 0.23489
#
# Static dielectric constant tensor:
#      x y z
#    x 3.785580 0.000000 0.000000 
#    y 0.000000 3.647440 0.000000 
#    z 0.000000 0.000000 3.731080 
# 
# 
# High freq. dielectric constant tensor:
#      x y z
#    x 1.786900 0.000000 0.000000 
#    y 0.000000 1.786820 0.000000 
#    z 0.000000 0.000000 1.782190 
# 
# From -- ./inp_files/74631.got.cif
#   From: 2010.03.12/outbox.cif.g09.slc.cpg/sg65_38_cif.got.tgz:74631.got - 2010.04.10 20:52:16.
