data_PCOD8269096
_publ_section_title
;
Structure prediction by ZEFSAII (Michael W. Deem and Ramdas Pophale) SiO2 
 PCOD8269096
Probable space group: C M M M
;
_chemical_formula_sum "Si O2"
_cell_formula_units_Z 64
_cell_length_a 16.849334
_cell_length_b 22.324745
_cell_length_c 8.961540
_cell_angle_alpha 90.000000
_cell_angle_beta 90.000000
_cell_angle_gamma 90.000000
_cell_volume 3370.946763
_symmetry_space_group_name_H-M "C M M M"
_symmetry_group_IT_number 65
_symmetry_cell_setting 'orthorhombic'
loop_
_space_group_symop_operation_xyz
x,y,z
-x,-y,z
x,-y,-z
-x,y,-z
-x,-y,-z
x,y,-z
-x,y,z
x,-y,z
1/2+x,1/2+y,z
1/2-x,1/2-y,z
1/2+x,1/2-y,-z
1/2-x,1/2+y,-z
1/2-x,1/2-y,-z
1/2+x,1/2+y,-z
1/2-x,1/2+y,z
1/2+x,1/2-y,z
loop_
_atom_site_type_symbol
_atom_site_label
_atom_site_fract_x
_atom_site_fract_y
_atom_site_fract_z
Si Si1 0.910763 0.232555 0.177319
Si Si2 0.642421 0.862269 0.176666
Si Si3 0.000000 0.570379 0.328075
Si Si4 0.909854 0.000000 0.177966
Si Si5 0.319883 0.617073 0.822448
O O1 0.868704 0.293692 0.228914
O O2 0.862377 0.176263 0.243117
O O3 0.000000 0.230877 0.241343
O O4 0.912485 0.228917 0.000000
O O5 0.578438 0.904275 0.252497
O O6 0.728776 0.884191 0.230221
O O7 0.631668 0.867756 0.000000
O O8 0.000000 0.500000 0.304528
O O9 0.000000 0.588972 0.500000
O O10 0.864735 0.058557 0.240043
O O11 0.000000 0.000000 0.237898
O O12 0.909307 0.000000 0.000000
O O13 0.323946 0.618540 0.000000
#
# Coordination Sequence:
#
# PCOD8269096 Si02
#       5
#    16  16   8   8  16
#     4   9  15  26  45  73 106 139 170 207 259 308
#     4  10  19  33  54  80 104 131 174 220 261 304
#     4  11  25  41  55  73 103 140 173 210 266 323
#     4   9  16  26  38  63 107 150 172 193 249 317
#     4   9  17  26  43  72 108 141 170 211 257 306
#
# _framework density 18.985764
#
# number of rings (size 3 to 8) (size 9 to 14) (size 15 to 20)
#    0.000    2.500    1.250    1.875    1.750    7.000 
#    0.000    0.000    0.000    3.000    0.000    0.000 
#    0.000    1.000    0.000    0.000    0.000    0.000 
#
# Total GULP energy -396783.175169 kJ/mol
# GULP energy per Si atom -12399.474224 kJ/mol
# Density = 1.894255 g / cm^3
# Si number density = 18.985764 Si / 1000 Ang^3
#
#
#
# Elastic Constant Matrix: (Units=GPa)
#
#
# Indices 1 2 3 4 5 6 
#
# 1 203.5608 98.2757 27.3708 0.0000 0.0000 0.0000
# 2 98.2757 141.4465 26.2575 0.0000 0.0000 0.0000
# 3 27.3708 26.2575 20.8639 0.0000 0.0000 0.0000
# 4 0.0000 0.0000 0.0000 8.2064 0.0000 0.0000
# 5 0.0000 0.0000 0.0000 0.0000 0.3314 0.0000
# 6 0.0000 0.0000 0.0000 0.0000 0.0000 35.3281
#
#
#
# Elastic Compliance Matrix: (Units=1/GPa)
#
#
# Indices 1 2 3 4 5 6 
#
# 1 0.007688 -0.004527 -0.004389 0.000000 0.000000 0.000000
# 2 -0.004527 0.011891 -0.009026 0.000000 0.000000 0.000000
# 3 -0.004389 -0.009026 0.065046 0.000000 0.000000 0.000000
# 4 0.000000 0.000000 0.000000 0.121856 0.000000 0.000000
# 5 0.000000 0.000000 0.000000 0.000000 3.017811 0.000000
# 6 0.000000 0.000000 0.000000 0.000000 0.000000 0.028306
#
#
# Mechanical properties :
#
#
# Convention : Reuss Voigt Hill
#
# Bulk Modulus (GPa) = 20.51618 74.40880 47.46249
# Shear Modulus (GPa) = 1.51298 23.03766 12.27532
#
# Velocity S-wave (km/s) = 0.89366 3.48719 2.54550
# Velocity P-wave (km/s) = 3.44882 7.44923 5.80454
#
# Compressibility (1/GPa) = 0.04874202
#
# Stress axis : x y z
#
# Youngs Moduli (GPa) = 130.06964 84.10000 15.37380
#
# Poissons Ratio (x) = 0.38072 0.06747
# Poissons Ratio (y) = 0.58882 0.13876
# Poissons Ratio (z) = 0.57083 0.75906
#
# Static dielectric constant tensor:
#      x y z
#    x 3.736370 0.000000 0.000000 
#    y 0.000000 3.732660 0.000000 
#    z 0.000000 0.000000 2.753980 
# 
# 
# High freq. dielectric constant tensor:
#      x y z
#    x 1.758430 0.000000 0.000000 
#    y 0.000000 1.755550 0.000000 
#    z 0.000000 0.000000 1.655790 
# 
# From -- ./inp_files/6769.got.cif
#   From: 2010.03.12/outbox.cif.g09.slc.cpg/sg65_4_cif.got.tgz:6769.got - 2010.04.10 20:52:16.
