data_PCOD8269174
_publ_section_title
;
Structure prediction by ZEFSAII (Michael W. Deem and Ramdas Pophale) SiO2 
 PCOD8269174
Probable space group: C M M M
;
_chemical_formula_sum "Si O2"
_cell_formula_units_Z 88
_cell_length_a 8.631046
_cell_length_b 23.389035
_cell_length_c 22.672198
_cell_angle_alpha 90.000000
_cell_angle_beta 90.000000
_cell_angle_gamma 90.000000
_cell_volume 4576.878259
_symmetry_space_group_name_H-M "C M M M"
_symmetry_group_IT_number 65
_symmetry_cell_setting 'orthorhombic'
loop_
_space_group_symop_operation_xyz
x,y,z
-x,-y,z
x,-y,-z
-x,y,-z
-x,-y,-z
x,y,-z
-x,y,z
x,-y,z
1/2+x,1/2+y,z
1/2-x,1/2-y,z
1/2+x,1/2-y,-z
1/2-x,1/2+y,-z
1/2-x,1/2-y,-z
1/2+x,1/2+y,-z
1/2-x,1/2+y,z
1/2+x,1/2-y,z
loop_
_atom_site_type_symbol
_atom_site_label
_atom_site_fract_x
_atom_site_fract_y
_atom_site_fract_z
Si Si1 0.815489 0.500000 0.874218
Si Si2 0.316784 0.812584 0.782629
Si Si3 0.818078 0.388489 0.323432
Si Si4 0.815871 0.500000 0.740863
Si Si5 0.315691 0.187347 0.000000
Si Si6 0.684061 0.380323 0.109191
Si Si7 0.682894 0.435613 0.565780
O O1 0.756113 0.500000 0.807282
O O2 0.744802 0.556059 0.904453
O O3 0.000000 0.500000 0.880905
O O4 0.500000 0.812069 0.792616
O O5 0.250000 0.750000 0.793534
O O6 0.274530 0.833051 0.715949
O O7 0.244378 0.857606 0.827982
O O8 0.748912 0.444091 0.290915
O O9 0.746449 0.387706 0.388983
O O10 0.000000 0.393499 0.330361
O O11 0.000000 0.500000 0.740566
O O12 0.250000 0.250000 0.000000
O O13 0.252865 0.158474 0.058495
O O14 0.500000 0.187055 0.000000
O O15 0.500000 0.378463 0.107958
O O16 0.740234 0.419170 0.500000
O O17 0.500000 0.434729 0.568081
O O18 0.742767 0.500000 0.581414
#
# Coordination Sequence:
#
# PCOD8269174 Si02
#       7
#     8  16  16   8   8  16  16
#     4  11  21  40  64  90 126 163 194 236 294 353
#     4  11  23  40  60  85 116 153 195 244 294 346
#     4  10  19  33  55  81 111 148 188 233 285 341
#     4   9  16  31  53  81 115 148 183 228 285 344
#     4  12  26  47  70  91 118 160 204 248 298 346
#     4  12  25  42  64  94 125 156 196 243 291 351
#     4   9  18  31  47  74 113 150 183 226 282 342
#
# _framework density 19.227079
#
# number of rings (size 3 to 8) (size 9 to 14) (size 15 to 20)
#    0.000    1.455    2.727    4.364    0.000    2.182 
#    0.000    2.727    0.000    0.545    0.000    0.000 
#    0.000    0.000    0.000    0.000    0.000    0.000 
#
# Total GULP energy -545585.470922 kJ/mol
# GULP energy per Si atom -12399.669794 kJ/mol
# Density = 1.918332 g / cm^3
# Si number density = 19.227079 Si / 1000 Ang^3
#
#
#
# Elastic Constant Matrix: (Units=GPa)
#
#
# Indices 1 2 3 4 5 6 
#
# 1 111.7189 48.3741 49.7513 0.0000 0.0000 0.0000
# 2 48.3741 124.3136 46.3261 0.0000 0.0000 0.0000
# 3 49.7513 46.3261 121.4116 0.0000 0.0000 0.0000
# 4 0.0000 0.0000 0.0000 25.7206 0.0000 0.0000
# 5 0.0000 0.0000 0.0000 0.0000 30.9843 0.0000
# 6 0.0000 0.0000 0.0000 0.0000 0.0000 30.1130
#
#
#
# Elastic Compliance Matrix: (Units=1/GPa)
#
#
# Indices 1 2 3 4 5 6 
#
# 1 0.012015 -0.003311 -0.003660 0.000000 0.000000 0.000000
# 2 -0.003311 0.010290 -0.002569 0.000000 0.000000 0.000000
# 3 -0.003660 -0.002569 0.010717 0.000000 0.000000 0.000000
# 4 0.000000 0.000000 0.000000 0.038879 0.000000 0.000000
# 5 0.000000 0.000000 0.000000 0.000000 0.032274 0.000000
# 6 0.000000 0.000000 0.000000 0.000000 0.000000 0.033208
#
#
# Mechanical properties :
#
#
# Convention : Reuss Voigt Hill
#
# Bulk Modulus (GPa) = 71.73517 71.81635 71.77576
# Shear Modulus (GPa) = 31.03443 31.56311 31.29877
#
# Velocity S-wave (km/s) = 4.02195 4.05606 4.03904
# Velocity P-wave (km/s) = 7.67844 7.70508 7.69177
#
# Compressibility (1/GPa) = 0.01394016
#
# Stress axis : x y z
#
# Youngs Moduli (GPa) = 83.23154 97.17931 93.31382
#
# Poissons Ratio (x) = 0.32180 0.34151
# Poissons Ratio (y) = 0.27562 0.23976
# Poissons Ratio (z) = 0.30461 0.24970
#
# Static dielectric constant tensor:
#      x y z
#    x 3.417880 0.000000 0.000000 
#    y 0.000000 3.517700 0.000000 
#    z 0.000000 0.000000 3.761190 
# 
# 
# High freq. dielectric constant tensor:
#      x y z
#    x 1.745050 0.000000 0.000000 
#    y 0.000000 1.736010 0.000000 
#    z 0.000000 0.000000 1.755460 
# 
# From -- ./inp_files/67657.got.cif
#   From: 2010.03.12/outbox.cif.g09.slc.cpg/sg65_34_cif.got.tgz:67657.got - 2010.04.10 20:52:16.
