data_PCOD8269959
_publ_section_title
;
Structure prediction by ZEFSAII (Michael W. Deem and Ramdas Pophale) SiO2 
 PCOD8269959
Probable space group: C M M M
;
_chemical_formula_sum "Si O2"
_cell_formula_units_Z 104
_cell_length_a 8.974797
_cell_length_b 27.294061
_cell_length_c 26.600396
_cell_angle_alpha 90.000000
_cell_angle_beta 90.000000
_cell_angle_gamma 90.000000
_cell_volume 6515.997274
_symmetry_space_group_name_H-M "C M M M"
_symmetry_group_IT_number 65
_symmetry_cell_setting 'orthorhombic'
loop_
_space_group_symop_operation_xyz
x,y,z
-x,-y,z
x,-y,-z
-x,y,-z
-x,-y,-z
x,y,-z
-x,y,z
x,-y,z
1/2+x,1/2+y,z
1/2-x,1/2-y,z
1/2+x,1/2-y,-z
1/2-x,1/2+y,-z
1/2-x,1/2-y,-z
1/2+x,1/2+y,-z
1/2-x,1/2+y,z
1/2+x,1/2-y,z
loop_
_atom_site_type_symbol
_atom_site_label
_atom_site_fract_x
_atom_site_fract_y
_atom_site_fract_z
Si Si1 0.663657 0.558295 0.000000
Si Si2 0.827648 0.556688 0.698857
Si Si3 0.827006 0.300687 0.558359
Si Si4 0.322286 0.554893 0.107373
Si Si5 0.672468 0.300412 0.737654
Si Si6 0.175442 0.897245 0.791533
Si Si7 0.823541 0.139625 0.640854
O O1 0.744029 0.573357 0.052947
O O2 0.648748 0.500000 0.000000
O O3 0.500000 0.582512 0.000000
O O4 0.806752 0.500000 0.685663
O O5 0.761165 0.567007 0.753813
O O6 0.739870 0.586811 0.656272
O O7 0.000000 0.572236 0.698458
O O8 0.802221 0.312415 0.500000
O O9 0.750000 0.250000 0.573852
O O10 0.750738 0.344670 0.588617
O O11 0.000000 0.296709 0.572325
O O12 0.500000 0.554283 0.102899
O O13 0.264992 0.500000 0.119691
O O14 0.270393 0.591017 0.151856
O O15 0.500000 0.289029 0.737281
O O16 0.750000 0.250000 0.751512
O O17 0.713768 0.340675 0.779917
O O18 0.722288 0.320857 0.683365
O O19 0.000000 0.907247 0.784167
O O20 0.000000 0.135575 0.634625
#
# Coordination Sequence:
#
# PCOD8269959 Si02
#       7
#     8  16  16  16  16  16  16
#     4   7  10  16  28  52  82 107 133 167 213 263
#     4  10  20  32  46  66  92 120 149 181 218 263
#     4  10  20  33  50  73 100 127 154 186 225 267
#     4   8  12  19  34  56  83 111 136 170 216 261
#     4   9  18  29  41  60  84 110 141 176 214 257
#     4   9  17  28  42  62  86 113 146 180 217 262
#     4  10  20  33  50  70  91 118 151 186 224 266
#
# _framework density 15.960718999999999
#
# number of rings (size 3 to 8) (size 9 to 14) (size 15 to 20)
#    0.000    2.846    0.000    4.154    0.000    7.077 
#    0.000    0.000    0.000    0.462    0.000    4.308 
#    0.000    3.077    0.000    0.000    0.000    0.000 
#
# Total GULP energy -644534.905296 kJ/mol
# GULP energy per Si atom -12394.902025 kJ/mol
# Density = 1.592439 g / cm^3
# Si number density = 15.960719 Si / 1000 Ang^3
#
#
#
# Elastic Constant Matrix: (Units=GPa)
#
#
# Indices 1 2 3 4 5 6 
#
# 1 64.1295 40.8052 44.0219 0.0000 0.0000 0.0000
# 2 40.8052 90.1609 57.0427 0.0000 0.0000 0.0000
# 3 44.0219 57.0427 116.0505 0.0000 0.0000 0.0000
# 4 0.0000 0.0000 0.0000 24.5027 0.0000 0.0000
# 5 0.0000 0.0000 0.0000 0.0000 12.7244 0.0000
# 6 0.0000 0.0000 0.0000 0.0000 0.0000 24.9675
#
#
#
# Elastic Compliance Matrix: (Units=1/GPa)
#
#
# Indices 1 2 3 4 5 6 
#
# 1 0.024087 -0.007432 -0.005484 0.000000 0.000000 0.000000
# 2 -0.007432 0.018390 -0.006220 0.000000 0.000000 0.000000
# 3 -0.005484 -0.006220 0.013755 0.000000 0.000000 0.000000
# 4 0.000000 0.000000 0.000000 0.040812 0.000000 0.000000
# 5 0.000000 0.000000 0.000000 0.000000 0.078589 0.000000
# 6 0.000000 0.000000 0.000000 0.000000 0.000000 0.040052
#
#
# Mechanical properties :
#
#
# Convention : Reuss Voigt Hill
#
# Bulk Modulus (GPa) = 55.68031 61.56448 58.62239
# Shear Modulus (GPa) = 19.23501 21.00367 20.11934
#
# Velocity S-wave (km/s) = 3.47529 3.63155 3.55428
# Velocity P-wave (km/s) = 7.14598 7.49936 7.32481
#
# Compressibility (1/GPa) = 0.01795967
#
# Stress axis : x y z
#
# Youngs Moduli (GPa) = 41.51677 54.37698 72.70238
#
# Poissons Ratio (x) = 0.40411 0.39870
# Poissons Ratio (y) = 0.30854 0.45223
# Poissons Ratio (z) = 0.22768 0.33824
#
# Static dielectric constant tensor:
#      x y z
#    x 2.897750 0.000000 0.000000 
#    y 0.000000 2.883150 0.000000 
#    z 0.000000 0.000000 3.274920 
# 
# 
# High freq. dielectric constant tensor:
#      x y z
#    x 1.599470 0.000000 0.000000 
#    y 0.000000 1.590920 0.000000 
#    z 0.000000 0.000000 1.612980 
# 
# From -- ./inp_files/73788.got.cif
#   From: 2010.03.12/outbox.cif.g09.slc.cpg/sg65_37_cif.got.tgz:73788.got - 2010.04.10 20:52:16.
