data_PCOD8269732
_publ_section_title
;
Structure prediction by ZEFSAII (Michael W. Deem and Ramdas Pophale) SiO2 
 PCOD8269732
Probable space group: C M M M
;
_chemical_formula_sum "Si O2"
_cell_formula_units_Z 104
_cell_length_a 30.006386
_cell_length_b 9.376157
_cell_length_c 22.754061
_cell_angle_alpha 90.000000
_cell_angle_beta 90.000000
_cell_angle_gamma 90.000000
_cell_volume 6401.731875
_symmetry_space_group_name_H-M "C M M M"
_symmetry_group_IT_number 65
_symmetry_cell_setting 'orthorhombic'
loop_
_space_group_symop_operation_xyz
x,y,z
-x,-y,z
x,-y,-z
-x,y,-z
-x,-y,-z
x,y,-z
-x,y,z
x,-y,z
1/2+x,1/2+y,z
1/2-x,1/2-y,z
1/2+x,1/2-y,-z
1/2-x,1/2+y,-z
1/2-x,1/2-y,-z
1/2+x,1/2+y,-z
1/2-x,1/2+y,z
1/2+x,1/2-y,z
loop_
_atom_site_type_symbol
_atom_site_label
_atom_site_fract_x
_atom_site_fract_y
_atom_site_fract_z
Si Si1 0.419195 0.657869 0.605843
Si Si2 0.113283 0.158471 0.737188
Si Si3 0.325062 0.331151 0.563870
Si Si4 0.500000 0.832673 0.433113
Si Si5 0.792844 0.169218 0.688203
Si Si6 0.051810 0.331610 0.176464
Si Si7 0.552775 0.340643 0.935373
O O1 0.434532 0.500000 0.584542
O O2 0.407790 0.649500 0.673637
O O3 0.376894 0.711352 0.568558
O O4 0.457013 0.773531 0.598861
O O5 0.164769 0.208399 0.729243
O O6 0.084569 0.269111 0.774598
O O7 0.111423 0.000000 0.766035
O O8 0.307151 0.273673 0.500000
O O9 0.321232 0.500000 0.566270
O O10 0.299083 0.271521 0.620917
O O11 0.500000 0.781898 0.500000
O O12 0.500000 0.000000 0.425978
O O13 0.750000 0.250000 0.714753
O O14 0.785253 0.000000 0.688415
O O15 0.057529 0.500000 0.175145
O O16 0.068728 0.270286 0.113983
O O17 0.000000 0.289472 0.189168
O O18 0.500000 0.341738 0.937494
O O19 0.570089 0.500000 0.919967
O O20 0.570994 0.294352 0.000000
#
# Coordination Sequence:
#
# PCOD8269732 Si02
#       7
#    16  16  16   8  16  16  16
#     4   9  18  32  49  64  77 107 153 191 221 260
#     4   9  19  34  49  66  89 118 155 194 228 269
#     4   8  14  27  47  67  86 107 136 178 222 269
#     4  11  23  33  41  59  87 113 138 179 234 281
#     4   9  18  32  49  69  90 113 144 182 230 282
#     4  10  20  30  43  68  99 130 162 194 232 273
#     4   8  14  26  44  65  91 127 167 199 227 260
#
# _framework density 16.245604
#
# number of rings (size 3 to 8) (size 9 to 14) (size 15 to 20)
#    0.000    3.000    0.000    3.462    1.077    4.000 
#    0.000    3.846    0.000    0.923    0.000    0.000 
#    0.000    0.615    0.000    2.000    0.000    2.462 
#
# Total GULP energy -644338.805928 kJ/mol
# GULP energy per Si atom -12391.130883 kJ/mol
# Density = 1.620863 g / cm^3
# Si number density = 16.245604 Si / 1000 Ang^3
#
#
#
# Elastic Constant Matrix: (Units=GPa)
#
#
# Indices 1 2 3 4 5 6 
#
# 1 85.8049 41.5444 32.5253 0.0000 0.0000 0.0000
# 2 41.5444 62.9028 36.2076 0.0000 0.0000 0.0000
# 3 32.5253 36.2076 68.3349 0.0000 0.0000 0.0000
# 4 0.0000 0.0000 0.0000 19.8121 0.0000 0.0000
# 5 0.0000 0.0000 0.0000 0.0000 10.2751 0.0000
# 6 0.0000 0.0000 0.0000 0.0000 0.0000 39.9939
#
#
#
# Elastic Compliance Matrix: (Units=1/GPa)
#
#
# Indices 1 2 3 4 5 6 
#
# 1 0.017604 -0.009789 -0.003192 0.000000 0.000000 0.000000
# 2 -0.009789 0.028317 -0.010345 0.000000 0.000000 0.000000
# 3 -0.003192 -0.010345 0.021634 0.000000 0.000000 0.000000
# 4 0.000000 0.000000 0.000000 0.050474 0.000000 0.000000
# 5 0.000000 0.000000 0.000000 0.000000 0.097323 0.000000
# 6 0.000000 0.000000 0.000000 0.000000 0.000000 0.025004
#
#
# Mechanical properties :
#
#
# Convention : Reuss Voigt Hill
#
# Bulk Modulus (GPa) = 47.83856 48.62193 48.23025
# Shear Modulus (GPa) = 17.00816 21.13391 19.07104
#
# Velocity S-wave (km/s) = 3.23915 3.61071 3.42997
# Velocity P-wave (km/s) = 6.59549 6.88311 6.74084
#
# Compressibility (1/GPa) = 0.02090364
#
# Stress axis : x y z
#
# Youngs Moduli (GPa) = 56.80515 35.31388 46.22269
#
# Poissons Ratio (x) = 0.34570 0.14755
# Poissons Ratio (y) = 0.55608 0.47816
# Poissons Ratio (z) = 0.18133 0.36532
#
# Static dielectric constant tensor:
#      x y z
#    x 2.951590 0.000000 0.000000 
#    y 0.000000 2.961620 0.000000 
#    z 0.000000 0.000000 3.270460 
# 
# 
# High freq. dielectric constant tensor:
#      x y z
#    x 1.600380 0.000000 0.000000 
#    y 0.000000 1.612100 0.000000 
#    z 0.000000 0.000000 1.612940 
# 
# From -- ./inp_files/72115.got.cif
#   From: 2010.03.12/outbox.cif.g09.slc.cpg/sg65_37_cif.got.tgz:72115.got - 2010.04.10 20:52:16.
