data_PCOD8269454
_publ_section_title
;
Structure prediction by ZEFSAII (Michael W. Deem and Ramdas Pophale) SiO2 
 PCOD8269454
Probable space group: C M M M
;
_chemical_formula_sum "Si O2"
_cell_formula_units_Z 64
_cell_length_a 15.515961
_cell_length_b 8.567046
_cell_length_c 23.985866
_cell_angle_alpha 90.000000
_cell_angle_beta 90.000000
_cell_angle_gamma 90.000000
_cell_volume 3188.344064
_symmetry_space_group_name_H-M "C M M M"
_symmetry_group_IT_number 65
_symmetry_cell_setting 'orthorhombic'
loop_
_space_group_symop_operation_xyz
x,y,z
-x,-y,z
x,-y,-z
-x,y,-z
-x,-y,-z
x,y,-z
-x,y,z
x,-y,z
1/2+x,1/2+y,z
1/2-x,1/2-y,z
1/2+x,1/2-y,-z
1/2-x,1/2+y,-z
1/2-x,1/2-y,-z
1/2+x,1/2+y,-z
1/2-x,1/2+y,z
1/2+x,1/2-y,z
loop_
_atom_site_type_symbol
_atom_site_label
_atom_site_fract_x
_atom_site_fract_y
_atom_site_fract_z
Si Si1 0.500000 0.685299 0.316100
Si Si2 0.659076 0.815125 0.615873
Si Si3 0.840008 0.814846 0.881870
Si Si4 0.096854 0.185708 0.000000
Si Si5 0.500000 0.685414 0.189235
Si Si6 0.899459 0.815948 0.500000
O O1 0.500000 0.500000 0.321458
O O2 0.415130 0.750011 0.344887
O O3 0.500000 0.744375 0.252563
O O4 0.750000 0.750000 0.638211
O O5 0.645401 0.758494 0.553166
O O6 0.658756 0.000000 0.618106
O O7 0.750000 0.750000 0.858931
O O8 0.854935 0.752326 0.944841
O O9 0.915356 0.749592 0.842001
O O10 0.838904 0.000000 0.880591
O O11 0.000000 0.252139 0.000000
O O12 0.093617 0.000000 0.000000
O O13 0.500000 0.500000 0.186634
O O14 0.000000 0.773907 0.500000
O O15 0.883875 0.000000 0.500000
#
# Coordination Sequence:
#
# PCOD8269454 Si02
#       6
#     8  16  16   8   8   8
#     4  11  23  42  63  87 118 156 204 255 302 353
#     4  12  25  42  65  93 125 161 201 246 298 356
#     4  10  19  34  56  84 113 148 190 235 288 346
#     4   9  15  28  55  82 109 148 191 229 278 352
#     4   9  20  38  60  81 110 152 197 239 286 349
#     4  11  22  39  66  96 129 163 195 239 298 358
#
# _framework density 20.073117
#
# number of rings (size 3 to 8) (size 9 to 14) (size 15 to 20)
#    0.000    1.500    2.500    3.750    0.000    1.500 
#    0.000    5.625    0.000    0.750    0.000    0.000 
#    0.000    0.000    0.000    0.000    0.000    0.000 
#
# Total GULP energy -396900.319657 kJ/mol
# GULP energy per Si atom -12403.134989 kJ/mol
# Density = 2.002743 g / cm^3
# Si number density = 20.073117 Si / 1000 Ang^3
#
#
#
# Elastic Constant Matrix: (Units=GPa)
#
#
# Indices 1 2 3 4 5 6 
#
# 1 200.7464 45.4955 88.5112 0.0000 0.0000 0.0000
# 2 45.4955 77.3892 36.5339 0.0000 0.0000 0.0000
# 3 88.5112 36.5339 164.9254 0.0000 0.0000 0.0000
# 4 0.0000 0.0000 0.0000 -4.1864 0.0000 0.0000
# 5 0.0000 0.0000 0.0000 0.0000 358.7857 0.0000
# 6 0.0000 0.0000 0.0000 0.0000 0.0000 34.9692
#
#
#
# Elastic Compliance Matrix: (Units=1/GPa)
#
#
# Indices 1 2 3 4 5 6 
#
# 1 0.006965 -0.002602 -0.003162 0.000000 0.000000 0.000000
# 2 -0.002602 0.015403 -0.002016 0.000000 0.000000 0.000000
# 3 -0.003162 -0.002016 0.008207 0.000000 0.000000 0.000000
# 4 0.000000 0.000000 0.000000 -0.238869 0.000000 0.000000
# 5 0.000000 0.000000 0.000000 0.000000 0.002787 0.000000
# 6 0.000000 0.000000 0.000000 0.000000 0.000000 0.028597
#
#
# Mechanical properties :
#
#
# Convention : Reuss Voigt Hill
#
# Bulk Modulus (GPa) = 66.59502 87.12692 76.86097
# Shear Modulus (GPa) = -31.98011 96.08173 32.05081
#
# Velocity S-wave (km/s) = -3.99580 6.92602 4.00021
# Velocity P-wave (km/s) = 3.45828 10.36623 7.72717
#
# Compressibility (1/GPa) = 0.01501614
#
# Stress axis : x y z
#
# Youngs Moduli (GPa) = 143.57279 64.92268 121.85375
#
# Poissons Ratio (x) = 0.16894 0.38525
# Poissons Ratio (y) = 0.37359 0.24560
# Poissons Ratio (z) = 0.45392 0.13085
#
# Static dielectric constant tensor:
#      x y z
#    x 3.927720 0.000000 0.000000 
#    y 0.000000 3.392140 0.000000 
#    z 0.000000 0.000000 3.838680 
# 
# 
# High freq. dielectric constant tensor:
#      x y z
#    x 1.804080 0.000000 0.000000 
#    y 0.000000 1.761760 0.000000 
#    z 0.000000 0.000000 1.784910 
# 
# From -- ./inp_files/69591.got.cif
#   From: 2010.03.12/outbox.cif.g09.slc.cpg/sg65_35_cif.got.tgz:69591.got - 2010.04.10 20:52:16.
