data_PCOD8269484
_publ_section_title
;
Structure prediction by ZEFSAII (Michael W. Deem and Ramdas Pophale) SiO2 
 PCOD8269484
Probable space group: C M M M
;
_chemical_formula_sum "Si O2"
_cell_formula_units_Z 80
_cell_length_a 20.569715
_cell_length_b 23.177148
_cell_length_c 8.737591
_cell_angle_alpha 90.000000
_cell_angle_beta 90.000000
_cell_angle_gamma 90.000000
_cell_volume 4165.623170
_symmetry_space_group_name_H-M "C M M M"
_symmetry_group_IT_number 65
_symmetry_cell_setting 'orthorhombic'
loop_
_space_group_symop_operation_xyz
x,y,z
-x,-y,z
x,-y,-z
-x,y,-z
-x,-y,-z
x,y,-z
-x,y,z
x,-y,z
1/2+x,1/2+y,z
1/2-x,1/2-y,z
1/2+x,1/2-y,-z
1/2-x,1/2+y,-z
1/2-x,1/2-y,-z
1/2+x,1/2+y,-z
1/2-x,1/2+y,z
1/2+x,1/2-y,z
loop_
_atom_site_type_symbol
_atom_site_label
_atom_site_fract_x
_atom_site_fract_y
_atom_site_fract_z
Si Si1 0.874295 0.869690 0.318517
Si Si2 0.749027 0.433112 0.181660
Si Si3 0.424594 0.255673 0.181402
Si Si4 0.876949 0.368225 0.818441
Si Si5 0.500000 0.563902 0.681925
Si Si6 0.500000 0.935743 0.182951
O O1 0.870443 0.868581 0.500000
O O2 0.812671 0.902730 0.254338
O O3 0.880789 0.805019 0.256911
O O4 0.936870 0.903674 0.256288
O O5 0.754091 0.500000 0.234544
O O6 0.810703 0.396757 0.243848
O O7 0.743913 0.429607 0.000000
O O8 0.500000 0.256324 0.238525
O O9 0.387833 0.197527 0.234624
O O10 0.423249 0.262352 0.000000
O O11 0.936503 0.404740 0.750825
O O12 0.877376 0.371776 0.000000
O O13 0.500000 0.500000 0.751744
O O14 0.500000 0.562074 0.500000
O O15 0.500000 0.000000 0.246807
O O16 0.500000 0.933989 0.000000
#
# Coordination Sequence:
#
# PCOD8269484 Si02
#       6
#    16  16  16  16   8   8
#     4  11  22  37  57  79 108 146 188 232 276 327
#     4  10  21  37  56  82 116 148 181 225 276 329
#     4  10  19  34  57  83 113 144 181 229 277 327
#     4   9  17  31  52  80 113 148 181 221 275 327
#     4   9  18  33  53  75  97 129 176 225 272 320
#     4   9  14  23  46  80 111 141 182 227 270 321
#
# _framework density 19.204809999999998
#
# number of rings (size 3 to 8) (size 9 to 14) (size 15 to 20)
#    0.000    2.200    2.000    1.800    0.000    4.400 
#    0.000    5.000    0.000    2.400    0.000    0.000 
#    0.000    3.200    0.000    0.000    0.000    0.000 
#
# Total GULP energy -495930.768603 kJ/mol
# GULP energy per Si atom -12398.269215 kJ/mol
# Density = 1.916110 g / cm^3
# Si number density = 19.204810 Si / 1000 Ang^3
#
#
#
# Elastic Constant Matrix: (Units=GPa)
#
#
# Indices 1 2 3 4 5 6 
#
# 1 159.9643 97.9616 37.8669 0.0000 0.0000 0.0000
# 2 97.9616 198.6482 34.0932 0.0000 0.0000 0.0000
# 3 37.8669 34.0932 16.3620 0.0000 0.0000 0.0000
# 4 0.0000 0.0000 0.0000 8.6560 0.0000 0.0000
# 5 0.0000 0.0000 0.0000 0.0000 12.8336 0.0000
# 6 0.0000 0.0000 0.0000 0.0000 0.0000 42.9202
#
#
#
# Elastic Compliance Matrix: (Units=1/GPa)
#
#
# Indices 1 2 3 4 5 6 
#
# 1 0.014392 -0.002150 -0.028829 0.000000 0.000000 0.000000
# 2 -0.002150 0.008157 -0.012023 0.000000 0.000000 0.000000
# 3 -0.028829 -0.012023 0.152889 0.000000 0.000000 0.000000
# 4 0.000000 0.000000 0.000000 0.115526 0.000000 0.000000
# 5 0.000000 0.000000 0.000000 0.000000 0.077921 0.000000
# 6 0.000000 0.000000 0.000000 0.000000 0.000000 0.023299
#
#
# Mechanical properties :
#
#
# Convention : Reuss Voigt Hill
#
# Bulk Modulus (GPa) = 11.18123 79.42421 45.30272
# Shear Modulus (GPa) = 9.84252 26.55216 18.19734
#
# Velocity S-wave (km/s) = 2.26631 3.72234 3.08155
# Velocity P-wave (km/s) = 3.56131 7.74084 6.02509
#
# Compressibility (1/GPa) = 0.08943557
#
# Stress axis : x y z
#
# Youngs Moduli (GPa) = 69.48168 122.58666 6.54068
#
# Poissons Ratio (x) = 0.26351 0.18856
# Poissons Ratio (y) = 0.14936 0.07864
# Poissons Ratio (z) = 2.00311 1.47384
#
# Static dielectric constant tensor:
#      x y z
#    x 3.775910 0.000000 0.000000 
#    y 0.000000 3.785830 0.000000 
#    z 0.000000 0.000000 3.006770 
# 
# 
# High freq. dielectric constant tensor:
#      x y z
#    x 1.756890 0.000000 0.000000 
#    y 0.000000 1.768020 0.000000 
#    z 0.000000 0.000000 1.698710 
# 
# From -- ./inp_files/11548.got.cif
#   From: 2010.03.12/outbox.cif.g09.slc.cpg/sg65_6_cif.got.tgz:11548.got - 2010.04.10 20:52:16.
