data_PCOD8269557
_publ_section_title
;
Structure prediction by ZEFSAII (Michael W. Deem and Ramdas Pophale) SiO2 
 PCOD8269557
Probable space group: C M M M
;
_chemical_formula_sum "Si O2"
_cell_formula_units_Z 100
_cell_length_a 30.671199
_cell_length_b 19.735629
_cell_length_c 7.861130
_cell_angle_alpha 90.000000
_cell_angle_beta 90.000000
_cell_angle_gamma 90.000000
_cell_volume 4758.463085
_symmetry_space_group_name_H-M "C M M M"
_symmetry_group_IT_number 65
_symmetry_cell_setting 'orthorhombic'
loop_
_space_group_symop_operation_xyz
x,y,z
-x,-y,z
x,-y,-z
-x,y,-z
-x,-y,-z
x,y,-z
-x,y,z
x,-y,z
1/2+x,1/2+y,z
1/2-x,1/2-y,z
1/2+x,1/2-y,-z
1/2-x,1/2+y,-z
1/2-x,1/2-y,-z
1/2+x,1/2+y,-z
1/2-x,1/2+y,z
1/2+x,1/2-y,z
loop_
_atom_site_type_symbol
_atom_site_label
_atom_site_fract_x
_atom_site_fract_y
_atom_site_fract_z
Si Si1 0.304061 0.500000 0.500000
Si Si2 0.799210 0.246555 0.303760
Si Si3 0.114462 0.076123 0.500000
Si Si4 0.676315 0.102173 0.304794
Si Si5 0.883364 0.823974 0.197873
Si Si6 0.952838 0.284775 0.805003
Si Si7 0.257483 0.000000 0.183940
Si Si8 0.579893 0.925263 0.300551
O O1 0.333175 0.432159 0.500000
O O2 0.277808 0.500000 0.328186
O O3 0.795760 0.224907 0.500000
O O4 0.750000 0.250000 0.225794
O O5 0.821990 0.318195 0.278047
O O6 0.831732 0.193577 0.212429
O O7 0.102519 0.115402 0.325173
O O8 0.092635 0.000000 0.500000
O O9 0.684382 0.081218 0.500000
O O10 0.713292 0.067084 0.194015
O O11 0.629839 0.076263 0.239854
O O12 0.912830 0.760410 0.265657
O O13 0.892621 0.843684 0.000000
O O14 0.946175 0.365431 0.788842
O O15 0.000000 0.266760 0.719193
O O16 0.956247 0.266258 0.000000
O O17 0.234058 0.000000 0.000000
O O18 0.577332 0.911277 0.500000
O O19 0.560640 0.000000 0.254793
#
# Coordination Sequence:
#
# PCOD8269557 Si02
#       8
#     4  16   8  16  16  16   8  16
#     4  10  26  46  60  88 133 160 211 274 318 390
#     4  10  21  34  59  88 123 167 212 264 324 374
#     4  10  26  46  69  93 127 165 199 253 331 399
#     4  10  19  35  55  79 124 173 214 269 324 370
#     4  11  23  42  69  98 129 166 215 267 320 394
#     4  10  23  42  64  94 131 169 212 269 333 389
#     4  12  24  36  60  88 123 178 231 270 322 378
#     4  10  20  35  57  87 124 175 224 274 320 369
#
# _framework density 21.01519
#
# number of rings (size 3 to 8) (size 9 to 14) (size 15 to 20)
#    0.240    1.440    4.000    0.000    3.360    3.520 
#    0.000    1.600    0.000    0.960    0.000    2.240 
#    0.000    0.000    0.000    0.000    0.000    0.000 
#
# Total GULP energy -619630.598100 kJ/mol
# GULP energy per Si atom -12392.611962 kJ/mol
# Density = 2.096736 g / cm^3
# Si number density = 21.015190 Si / 1000 Ang^3
#
#
#
# Elastic Constant Matrix: (Units=GPa)
#
#
# Indices 1 2 3 4 5 6 
#
# 1 91.4767 33.1719 22.6727 0.0000 0.0000 0.0000
# 2 33.1719 112.7871 36.1565 0.0000 0.0000 0.0000
# 3 22.6727 36.1565 92.4351 0.0000 0.0000 0.0000
# 4 0.0000 0.0000 0.0000 32.1411 0.0000 0.0000
# 5 0.0000 0.0000 0.0000 0.0000 21.4115 0.0000
# 6 0.0000 0.0000 0.0000 0.0000 0.0000 49.8876
#
#
#
# Elastic Compliance Matrix: (Units=1/GPa)
#
#
# Indices 1 2 3 4 5 6 
#
# 1 0.012511 -0.003082 -0.001863 0.000000 0.000000 0.000000
# 2 -0.003082 0.010897 -0.003506 0.000000 0.000000 0.000000
# 3 -0.001863 -0.003506 0.012647 0.000000 0.000000 0.000000
# 4 0.000000 0.000000 0.000000 0.031113 0.000000 0.000000
# 5 0.000000 0.000000 0.000000 0.000000 0.046704 0.000000
# 6 0.000000 0.000000 0.000000 0.000000 0.000000 0.020045
#
#
# Mechanical properties :
#
#
# Convention : Reuss Voigt Hill
#
# Bulk Modulus (GPa) = 52.21555 53.41125 52.81340
# Shear Modulus (GPa) = 31.80574 34.33455 33.07015
#
# Velocity S-wave (km/s) = 3.89455 4.04641 3.97120
# Velocity P-wave (km/s) = 6.71743 6.87764 6.79801
#
# Compressibility (1/GPa) = 0.01915138
#
# Stress axis : x y z
#
# Youngs Moduli (GPa) = 79.92774 91.76949 79.07076
#
# Poissons Ratio (x) = 0.28288 0.14732
# Poissons Ratio (y) = 0.24637 0.27725
# Poissons Ratio (z) = 0.14891 0.32177
#
# Static dielectric constant tensor:
#      x y z
#    x 3.953670 0.000000 0.000000 
#    y 0.000000 3.977900 0.000000 
#    z 0.000000 0.000000 3.593700 
# 
# 
# High freq. dielectric constant tensor:
#      x y z
#    x 1.809380 0.000000 0.000000 
#    y 0.000000 1.816710 0.000000 
#    z 0.000000 0.000000 1.808360 
# 
# From -- ./inp_files/16553.got.cif
#   From: 2010.03.12/outbox.cif.g09.slc.cpg/sg65_9_cif.got.tgz:16553.got - 2010.04.10 20:52:16.
