data_PCOD8269093
_publ_section_title
;
Structure prediction by ZEFSAII (Michael W. Deem and Ramdas Pophale) SiO2 
 PCOD8269093
Probable space group: C M M M
;
_chemical_formula_sum "Si O2"
_cell_formula_units_Z 104
_cell_length_a 28.913571
_cell_length_b 8.979134
_cell_length_c 20.431914
_cell_angle_alpha 90.000000
_cell_angle_beta 90.000000
_cell_angle_gamma 90.000000
_cell_volume 5304.509575
_symmetry_space_group_name_H-M "C M M M"
_symmetry_group_IT_number 65
_symmetry_cell_setting 'orthorhombic'
loop_
_space_group_symop_operation_xyz
x,y,z
-x,-y,z
x,-y,-z
-x,y,-z
-x,-y,-z
x,y,-z
-x,y,z
x,-y,z
1/2+x,1/2+y,z
1/2-x,1/2-y,z
1/2+x,1/2-y,-z
1/2-x,1/2+y,-z
1/2-x,1/2-y,-z
1/2+x,1/2+y,-z
1/2-x,1/2+y,z
1/2+x,1/2-y,z
loop_
_atom_site_type_symbol
_atom_site_label
_atom_site_fract_x
_atom_site_fract_y
_atom_site_fract_z
Si Si1 0.447120 0.670591 0.755497
Si Si2 0.947421 0.676096 0.000000
Si Si3 0.702767 0.824364 0.674305
Si Si4 0.105130 0.325653 0.129743
Si Si5 0.136786 0.828293 0.426936
Si Si6 0.203857 0.328177 0.176923
Si Si7 0.447118 0.826787 0.620658
O O1 0.500000 0.686748 0.778045
O O2 0.435126 0.500000 0.737761
O O3 0.415587 0.725498 0.813873
O O4 0.436609 0.774816 0.694172
O O5 0.918312 0.730022 0.062715
O O6 0.950726 0.500000 0.000000
O O7 0.000000 0.742188 0.000000
O O8 0.750000 0.750000 0.650169
O O9 0.662995 0.768745 0.626577
O O10 0.691729 0.775092 0.749015
O O11 0.707167 0.000000 0.667339
O O12 0.094881 0.500000 0.142920
O O13 0.160444 0.295892 0.129098
O O14 0.157546 0.807465 0.500000
O O15 0.084147 0.769047 0.428486
O O16 0.138268 0.000000 0.405938
O O17 0.216208 0.500000 0.178516
O O18 0.250000 0.250000 0.149425
O O19 0.500000 0.795807 0.601235
O O20 0.434648 0.000000 0.615069
#
# Coordination Sequence:
#
# PCOD8269093 Si02
#       7
#    16   8  16  16  16  16  16
#     4  10  20  33  52  80 110 139 174 220 276 331
#     4   9  18  32  52  79 111 149 189 227 268 315
#     4  10  20  36  58  82 108 139 178 226 281 335
#     4  10  19  33  54  79 108 144 187 228 267 316
#     4  11  24  39  55  78 109 145 183 223 272 330
#     4   9  19  34  54  80 106 134 172 221 273 322
#     4  10  21  37  57  80 106 139 181 228 276 327
#
# _framework density 19.60596
#
# number of rings (size 3 to 8) (size 9 to 14) (size 15 to 20)
#    0.000    2.077    0.000    3.231    0.000    6.769 
#    0.000    2.308    0.000    1.385    0.000    0.000 
#    0.000    0.000    0.000    0.000    0.000    0.000 
#
# Total GULP energy -644836.921209 kJ/mol
# GULP energy per Si atom -12400.710023 kJ/mol
# Density = 1.956134 g / cm^3
# Si number density = 19.605960 Si / 1000 Ang^3
#
#
#
# Elastic Constant Matrix: (Units=GPa)
#
#
# Indices 1 2 3 4 5 6 
#
# 1 117.1939 36.7457 49.6944 0.0000 0.0000 0.0000
# 2 36.7457 64.1936 20.1675 0.0000 0.0000 0.0000
# 3 49.6944 20.1675 61.8571 0.0000 0.0000 0.0000
# 4 0.0000 0.0000 0.0000 17.9836 0.0000 0.0000
# 5 0.0000 0.0000 0.0000 0.0000 24.6170 0.0000
# 6 0.0000 0.0000 0.0000 0.0000 0.0000 36.0469
#
#
#
# Elastic Compliance Matrix: (Units=1/GPa)
#
#
# Indices 1 2 3 4 5 6 
#
# 1 0.014297 -0.005097 -0.009824 0.000000 0.000000 0.000000
# 2 -0.005097 0.019173 -0.002156 0.000000 0.000000 0.000000
# 3 -0.009824 -0.002156 0.024761 0.000000 0.000000 0.000000
# 4 0.000000 0.000000 0.000000 0.055606 0.000000 0.000000
# 5 0.000000 0.000000 0.000000 0.000000 0.040622 0.000000
# 6 0.000000 0.000000 0.000000 0.000000 0.000000 0.027742
#
#
# Mechanical properties :
#
#
# Convention : Reuss Voigt Hill
#
# Bulk Modulus (GPa) = 41.53340 50.71776 46.12558
# Shear Modulus (GPa) = 22.28351 24.83863 23.56107
#
# Velocity S-wave (km/s) = 3.37496 3.56320 3.47036
# Velocity P-wave (km/s) = 6.03467 6.54624 6.29565
#
# Compressibility (1/GPa) = 0.02407701
#
# Stress axis : x y z
#
# Youngs Moduli (GPa) = 69.94593 52.15643 40.38559
#
# Poissons Ratio (x) = 0.26587 0.39674
# Poissons Ratio (y) = 0.35655 0.08707
# Poissons Ratio (z) = 0.68713 0.11244
#
# Static dielectric constant tensor:
#      x y z
#    x 3.757120 0.000000 0.000000 
#    y 0.000000 3.518230 0.000000 
#    z 0.000000 0.000000 3.501200 
# 
# 
# High freq. dielectric constant tensor:
#      x y z
#    x 1.772410 0.000000 0.000000 
#    y 0.000000 1.760430 0.000000 
#    z 0.000000 0.000000 1.747420 
# 
# From -- ./inp_files/65918.got.cif
#   From: 2010.03.12/outbox.cif.g09.slc.cpg/sg65_33_cif.got.tgz:65918.got - 2010.04.10 20:52:16.
