data_PCOD8269231
_publ_section_title
;
Structure prediction by ZEFSAII (Michael W. Deem and Ramdas Pophale) SiO2 
 PCOD8269231
Probable space group: C M M M
;
_chemical_formula_sum "Si O2"
_cell_formula_units_Z 72
_cell_length_a 15.499323
_cell_length_b 8.911212
_cell_length_c 26.339758
_cell_angle_alpha 90.000000
_cell_angle_beta 90.000000
_cell_angle_gamma 90.000000
_cell_volume 3637.988192
_symmetry_space_group_name_H-M "C M M M"
_symmetry_group_IT_number 65
_symmetry_cell_setting 'orthorhombic'
loop_
_space_group_symop_operation_xyz
x,y,z
-x,-y,z
x,-y,-z
-x,y,-z
-x,-y,-z
x,y,-z
-x,y,z
x,-y,z
1/2+x,1/2+y,z
1/2-x,1/2-y,z
1/2+x,1/2-y,-z
1/2-x,1/2+y,-z
1/2-x,1/2-y,-z
1/2+x,1/2+y,-z
1/2-x,1/2+y,z
1/2+x,1/2-y,z
loop_
_atom_site_type_symbol
_atom_site_label
_atom_site_fract_x
_atom_site_fract_y
_atom_site_fract_z
Si Si1 0.397404 0.669545 0.500000
Si Si2 0.500000 0.676223 0.769546
Si Si3 0.101567 0.674477 0.602149
Si Si4 0.500000 0.178155 0.121569
Si Si5 0.337882 0.176988 0.057977
Si Si6 0.663175 0.322504 0.297084
O O1 0.361307 0.500000 0.500000
O O2 0.500000 0.669012 0.500000
O O3 0.363621 0.757150 0.549461
O O4 0.500000 0.500000 0.780063
O O5 0.500000 0.762702 0.821902
O O6 0.583982 0.726696 0.738334
O O7 0.125310 0.500000 0.604080
O O8 0.150131 0.760365 0.646630
O O9 0.000000 0.701616 0.608130
O O10 0.415830 0.238695 0.092228
O O11 0.500000 0.000000 0.121958
O O12 0.250000 0.250000 0.078521
O O13 0.328717 0.000000 0.062583
O O14 0.355886 0.225759 0.000000
O O15 0.672450 0.500000 0.299587
O O16 0.750000 0.250000 0.273873
#
# Coordination Sequence:
#
# PCOD8269231 Si02
#       6
#     8   8  16   8  16  16
#     4   9  17  29  50  81 116 154 189 226 279 341
#     4  10  24  43  61  82 115 152 190 241 293 343
#     4  10  19  33  56  85 116 149 188 234 283 341
#     4  10  21  36  58  84 113 151 194 237 284 339
#     4   9  18  34  56  84 118 155 193 234 281 335
#     4  11  23  41  62  85 112 148 192 238 292 348
#
# _framework density 19.791157999999999
#
# number of rings (size 3 to 8) (size 9 to 14) (size 15 to 20)
#    0.000    2.111    1.111    2.000    0.000    7.111 
#    0.000    5.000    0.000    3.333    0.000    0.000 
#    0.000    0.000    0.000    0.000    0.000    0.000 
#
# Total GULP energy -446533.572763 kJ/mol
# GULP energy per Si atom -12403.710355 kJ/mol
# Density = 1.974611 g / cm^3
# Si number density = 19.791158 Si / 1000 Ang^3
#
#
#
# Elastic Constant Matrix: (Units=GPa)
#
#
# Indices 1 2 3 4 5 6 
#
# 1 151.3707 53.5522 81.7547 0.0000 0.0000 0.0000
# 2 53.5522 76.0924 45.9769 0.0000 0.0000 0.0000
# 3 81.7547 45.9769 131.7260 0.0000 0.0000 0.0000
# 4 0.0000 0.0000 0.0000 36.9302 0.0000 0.0000
# 5 0.0000 0.0000 0.0000 0.0000 2.7203 0.0000
# 6 0.0000 0.0000 0.0000 0.0000 0.0000 32.0676
#
#
#
# Elastic Compliance Matrix: (Units=1/GPa)
#
#
# Indices 1 2 3 4 5 6 
#
# 1 0.011086 -0.004619 -0.005268 0.000000 0.000000 0.000000
# 2 -0.004619 0.018579 -0.003618 0.000000 0.000000 0.000000
# 3 -0.005268 -0.003618 0.012124 0.000000 0.000000 0.000000
# 4 0.000000 0.000000 0.000000 0.027078 0.000000 0.000000
# 5 0.000000 0.000000 0.000000 0.000000 0.367601 0.000000
# 6 0.000000 0.000000 0.000000 0.000000 0.000000 0.031184
#
#
# Mechanical properties :
#
#
# Convention : Reuss Voigt Hill
#
# Bulk Modulus (GPa) = 67.66594 80.19518 73.93056
# Shear Modulus (GPa) = 10.00826 26.20397 18.10612
#
# Velocity S-wave (km/s) = 2.25120 3.64266 3.02794
# Velocity P-wave (km/s) = 6.40480 7.63549 7.04706
#
# Compressibility (1/GPa) = 0.01477848
#
# Stress axis : x y z
#
# Youngs Moduli (GPa) = 90.20721 53.82559 82.48156
#
# Poissons Ratio (x) = 0.24860 0.43452
# Poissons Ratio (y) = 0.41664 0.29842
# Poissons Ratio (z) = 0.47522 0.19474
#
# Static dielectric constant tensor:
#      x y z
#    x 3.776930 0.000000 0.000000 
#    y 0.000000 3.554090 0.000000 
#    z 0.000000 0.000000 3.575990 
# 
# 
# High freq. dielectric constant tensor:
#      x y z
#    x 1.774660 0.000000 0.000000 
#    y 0.000000 1.771040 0.000000 
#    z 0.000000 0.000000 1.768760 
# 
# From -- ./inp_files/72609.got.cif
#   From: 2010.03.12/outbox.cif.g09.slc.cpg/sg65_37_cif.got.tgz:72609.got - 2010.04.10 20:52:16.
