data_PCOD8269445
_publ_section_title
;
Structure prediction by ZEFSAII (Michael W. Deem and Ramdas Pophale) SiO2 
 PCOD8269445
Probable space group: C M M M
;
_chemical_formula_sum "Si O2"
_cell_formula_units_Z 96
_cell_length_a 23.657215
_cell_length_b 24.826048
_cell_length_c 8.764118
_cell_angle_alpha 90.000000
_cell_angle_beta 90.000000
_cell_angle_gamma 90.000000
_cell_volume 5147.299323
_symmetry_space_group_name_H-M "C M M M"
_symmetry_group_IT_number 65
_symmetry_cell_setting 'orthorhombic'
loop_
_space_group_symop_operation_xyz
x,y,z
-x,-y,z
x,-y,-z
-x,y,-z
-x,-y,-z
x,y,-z
-x,y,z
x,-y,z
1/2+x,1/2+y,z
1/2-x,1/2-y,z
1/2+x,1/2-y,-z
1/2-x,1/2+y,-z
1/2-x,1/2-y,-z
1/2+x,1/2+y,-z
1/2-x,1/2+y,z
1/2+x,1/2-y,z
loop_
_atom_site_type_symbol
_atom_site_label
_atom_site_fract_x
_atom_site_fract_y
_atom_site_fract_z
Si Si1 0.500000 0.189198 0.680863
Si Si2 0.000000 0.810737 0.318987
Si Si3 0.381118 0.853573 0.678318
Si Si4 0.614420 0.348157 0.178773
Si Si5 0.303900 0.938069 0.823472
Si Si6 0.313281 0.562688 0.322760
Si Si7 0.184816 0.245279 0.676816
O O1 0.500000 0.194337 0.500000
O O2 0.500000 0.249827 0.747536
O O3 0.555212 0.157133 0.736545
O O4 0.945024 0.841767 0.262339
O O5 0.000000 0.810225 0.500000
O O6 0.379401 0.867479 0.500000
O O7 0.357927 0.904016 0.771898
O O8 0.344162 0.801478 0.716359
O O9 0.639987 0.405325 0.228156
O O10 0.657570 0.301033 0.222133
O O11 0.603828 0.347729 0.000000
O O12 0.249303 0.919344 0.728247
O O13 0.318621 0.000000 0.790031
O O14 0.290567 0.928029 0.000000
O O15 0.319662 0.576593 0.500000
O O16 0.322864 0.500000 0.287671
O O17 0.176107 0.229928 0.500000
O O18 0.250000 0.250000 0.720906
#
# Coordination Sequence:
#
# PCOD8269445 Si02
#       7
#     8   8  16  16  16  16  16
#     4   9  18  35  58  81 106 148 196 238 282 327
#     4  11  21  41  64  81 112 157 200 237 279 338
#     4  10  19  34  56  82 111 147 195 240 282 336
#     4  12  24  37  57  88 121 150 187 235 291 345
#     4  10  21  37  57  84 118 152 185 231 294 350
#     4  10  21  39  63  87 112 150 196 236 280 338
#     4  10  20  34  55  83 114 150 190 234 284 341
#
# _framework density 18.650556999999999
#
# number of rings (size 3 to 8) (size 9 to 14) (size 15 to 20)
#    0.000    1.667    1.667    3.750    0.000    4.333 
#    0.000    1.250    0.000    5.000    0.000    0.000 
#    0.000    0.000    0.000    0.000    0.000    0.000 
#
# Total GULP energy -595464.927292 kJ/mol
# GULP energy per Si atom -12405.519319 kJ/mol
# Density = 1.860811 g / cm^3
# Si number density = 18.650557 Si / 1000 Ang^3
#
#
#
# Elastic Constant Matrix: (Units=GPa)
#
#
# Indices 1 2 3 4 5 6 
#
# 1 152.3997 64.2729 39.9355 0.0000 0.0000 0.0000
# 2 64.2729 90.0111 38.8830 0.0000 0.0000 0.0000
# 3 39.9355 38.8830 79.5787 0.0000 0.0000 0.0000
# 4 0.0000 0.0000 0.0000 29.4344 0.0000 0.0000
# 5 0.0000 0.0000 0.0000 0.0000 20.3519 0.0000
# 6 0.0000 0.0000 0.0000 0.0000 0.0000 17.9259
#
#
#
# Elastic Compliance Matrix: (Units=1/GPa)
#
#
# Indices 1 2 3 4 5 6 
#
# 1 0.009602 -0.006052 -0.001861 0.000000 0.000000 0.000000
# 2 -0.006052 0.017897 -0.005707 0.000000 0.000000 0.000000
# 3 -0.001861 -0.005707 0.016289 0.000000 0.000000 0.000000
# 4 0.000000 0.000000 0.000000 0.033974 0.000000 0.000000
# 5 0.000000 0.000000 0.000000 0.000000 0.049135 0.000000
# 6 0.000000 0.000000 0.000000 0.000000 0.000000 0.055785
#
#
# Mechanical properties :
#
#
# Convention : Reuss Voigt Hill
#
# Bulk Modulus (GPa) = 60.43847 67.57468 64.00658
# Shear Modulus (GPa) = 23.20840 25.46900 24.33870
#
# Velocity S-wave (km/s) = 3.53141 3.69940 3.61638
# Velocity P-wave (km/s) = 7.00741 7.38634 7.19937
#
# Compressibility (1/GPa) = 0.01654575
#
# Stress axis : x y z
#
# Youngs Moduli (GPa) = 104.14587 55.87586 61.39119
#
# Poissons Ratio (x) = 0.33817 0.11427
# Poissons Ratio (y) = 0.63031 0.35038
# Poissons Ratio (z) = 0.19386 0.31890
#
# Static dielectric constant tensor:
#      x y z
#    x 3.714000 0.000000 0.000000 
#    y 0.000000 3.422740 0.000000 
#    z 0.000000 0.000000 3.341480 
# 
# 
# High freq. dielectric constant tensor:
#      x y z
#    x 1.729830 0.000000 0.000000 
#    y 0.000000 1.723790 0.000000 
#    z 0.000000 0.000000 1.719010 
# 
# From -- ./inp_files/14383.got.cif
#   From: 2010.03.12/outbox.cif.g09.slc.cpg/sg65_8_cif.got.tgz:14383.got - 2010.04.10 20:52:16.
