data_PCOD8269920
_publ_section_title
;
Structure prediction by ZEFSAII (Michael W. Deem and Ramdas Pophale) SiO2 
 PCOD8269920
Probable space group: C M M M
;
_chemical_formula_sum "Si O2"
_cell_formula_units_Z 96
_cell_length_a 9.132537
_cell_length_b 26.982237
_cell_length_c 24.497105
_cell_angle_alpha 90.000000
_cell_angle_beta 90.000000
_cell_angle_gamma 90.000000
_cell_volume 6036.485430
_symmetry_space_group_name_H-M "C M M M"
_symmetry_group_IT_number 65
_symmetry_cell_setting 'orthorhombic'
loop_
_space_group_symop_operation_xyz
x,y,z
-x,-y,z
x,-y,-z
-x,y,-z
-x,-y,-z
x,y,-z
-x,y,z
x,-y,z
1/2+x,1/2+y,z
1/2-x,1/2-y,z
1/2+x,1/2-y,-z
1/2-x,1/2+y,-z
1/2-x,1/2-y,-z
1/2+x,1/2+y,-z
1/2-x,1/2+y,z
1/2+x,1/2-y,z
loop_
_atom_site_type_symbol
_atom_site_label
_atom_site_fract_x
_atom_site_fract_y
_atom_site_fract_z
Si Si1 0.836168 0.941232 0.557688
Si Si2 0.831507 0.943167 0.877122
Si Si3 0.325677 0.442658 0.675849
Si Si4 0.831927 0.700598 0.837284
Si Si5 0.171316 0.601032 0.223151
Si Si6 0.170348 0.361882 0.938237
O O1 0.756394 0.924600 0.500000
O O2 0.765885 0.924828 0.615661
O O3 0.000000 0.919779 0.555628
O O4 0.843770 0.000000 0.559669
O O5 0.746211 0.934832 0.820730
O O6 0.762269 0.911253 0.926026
O O7 0.000000 0.927861 0.868436
O O8 0.816891 0.000000 0.894678
O O9 0.500000 0.435297 0.680119
O O10 0.285303 0.500000 0.687062
O O11 0.243194 0.407785 0.718291
O O12 0.750000 0.750000 0.819569
O O13 0.800463 0.658123 0.792808
O O14 0.779542 0.681624 0.897079
O O15 0.000000 0.714965 0.839498
O O16 0.000000 0.588562 0.224927
O O17 0.000000 0.374513 0.927963
O O18 0.200150 0.344346 0.000000
#
# Coordination Sequence:
#
# PCOD8269920 Si02
#       6
#    16  16  16  16  16  16
#     4   7  10  18  33  54  82 116 151 184 214 241
#     4  10  20  32  46  65  89 116 147 182 213 241
#     4   9  16  25  40  64  91 119 153 187 213 242
#     4   9  19  34  50  67  85 107 136 172 215 261
#     4  10  20  32  45  63  88 115 144 177 215 263
#     4   9  19  35  51  68  91 115 139 167 203 255
#
# _framework density 15.903293
#
# number of rings (size 3 to 8) (size 9 to 14) (size 15 to 20)
#    0.000    3.000    0.000    4.000    0.000    8.000 
#    0.000    1.667    0.000    0.500    0.000    2.333 
#    0.000    0.667    0.000    1.500    0.000    2.333 
#
# Total GULP energy -594753.597813 kJ/mol
# GULP energy per Si atom -12390.699954 kJ/mol
# Density = 1.586710 g / cm^3
# Si number density = 15.903293 Si / 1000 Ang^3
#
#
#
# Elastic Constant Matrix: (Units=GPa)
#
#
# Indices 1 2 3 4 5 6 
#
# 1 58.6350 34.7472 36.5188 0.0000 0.0000 0.0000
# 2 34.7472 66.7711 33.7882 0.0000 0.0000 0.0000
# 3 36.5188 33.7882 131.5014 0.0000 0.0000 0.0000
# 4 0.0000 0.0000 0.0000 12.3516 0.0000 0.0000
# 5 0.0000 0.0000 0.0000 0.0000 16.3979 0.0000
# 6 0.0000 0.0000 0.0000 0.0000 0.0000 24.2339
#
#
#
# Elastic Compliance Matrix: (Units=1/GPa)
#
#
# Indices 1 2 3 4 5 6 
#
# 1 0.026725 -0.011669 -0.004423 0.000000 0.000000 0.000000
# 2 -0.011669 0.022310 -0.002492 0.000000 0.000000 0.000000
# 3 -0.004423 -0.002492 0.009473 0.000000 0.000000 0.000000
# 4 0.000000 0.000000 0.000000 0.080961 0.000000 0.000000
# 5 0.000000 0.000000 0.000000 0.000000 0.060983 0.000000
# 6 0.000000 0.000000 0.000000 0.000000 0.000000 0.041264
#
#
# Mechanical properties :
#
#
# Convention : Reuss Voigt Hill
#
# Bulk Modulus (GPa) = 46.86159 51.89065 49.37612
# Shear Modulus (GPa) = 17.48264 20.72024 19.10144
#
# Velocity S-wave (km/s) = 3.31918 3.61347 3.46945
# Velocity P-wave (km/s) = 6.64980 7.07879 6.86765
#
# Compressibility (1/GPa) = 0.02133944
#
# Stress axis : x y z
#
# Youngs Moduli (GPa) = 37.41863 44.82311 105.56172
#
# Poissons Ratio (x) = 0.52304 0.46694
# Poissons Ratio (y) = 0.43664 0.26304
# Poissons Ratio (z) = 0.16552 0.11169
#
# Static dielectric constant tensor:
#      x y z
#    x 2.922100 0.000000 0.000000 
#    y 0.000000 2.691430 0.000000 
#    z 0.000000 0.000000 3.382780 
# 
# 
# High freq. dielectric constant tensor:
#      x y z
#    x 1.598600 0.000000 0.000000 
#    y 0.000000 1.571610 0.000000 
#    z 0.000000 0.000000 1.619150 
# 
# From -- ./inp_files/67837.got.cif
#   From: 2010.03.12/outbox.cif.g09.slc.cpg/sg65_34_cif.got.tgz:67837.got - 2010.04.10 20:52:16.
