data_PCOD8269814
_publ_section_title
;
Structure prediction by ZEFSAII (Michael W. Deem and Ramdas Pophale) SiO2 
 PCOD8269814
Probable space group: C M M M
;
_chemical_formula_sum "Si O2"
_cell_formula_units_Z 96
_cell_length_a 31.976458
_cell_length_b 18.512165
_cell_length_c 9.294428
_cell_angle_alpha 90.000000
_cell_angle_beta 90.000000
_cell_angle_gamma 90.000000
_cell_volume 5501.868875
_symmetry_space_group_name_H-M "C M M M"
_symmetry_group_IT_number 65
_symmetry_cell_setting 'orthorhombic'
loop_
_space_group_symop_operation_xyz
x,y,z
-x,-y,z
x,-y,-z
-x,y,-z
-x,-y,-z
x,y,-z
-x,y,z
x,-y,z
1/2+x,1/2+y,z
1/2-x,1/2-y,z
1/2+x,1/2-y,-z
1/2-x,1/2+y,-z
1/2-x,1/2-y,-z
1/2+x,1/2+y,-z
1/2-x,1/2+y,z
1/2+x,1/2-y,z
loop_
_atom_site_type_symbol
_atom_site_label
_atom_site_fract_x
_atom_site_fract_y
_atom_site_fract_z
Si Si1 0.825217 0.917768 0.166603
Si Si2 0.547729 0.213089 0.665476
Si Si3 0.080991 0.581781 0.166492
Si Si4 0.832036 0.350994 0.836546
Si Si5 0.116887 0.789652 0.834594
Si Si6 0.242205 0.583241 0.668254
O O1 0.864549 0.867576 0.207637
O O2 0.785603 0.893490 0.259606
O O3 0.838314 0.000000 0.201011
O O4 0.813106 0.907573 0.000000
O O5 0.560886 0.205599 0.500000
O O6 0.500000 0.238253 0.682196
O O7 0.553138 0.135001 0.738593
O O8 0.576382 0.274201 0.738229
O O9 0.069440 0.500000 0.208522
O O10 0.130031 0.594286 0.195946
O O11 0.070949 0.597911 0.000000
O O12 0.847233 0.269663 0.807257
O O13 0.794418 0.367100 0.729389
O O14 0.816183 0.360538 0.000000
O O15 0.102301 0.786830 0.000000
O O16 0.246156 0.597329 0.500000
O O17 0.232100 0.500000 0.704234
#
# Coordination Sequence:
#
# PCOD8269814 Si02
#       6
#    16  16  16  16  16  16
#     4   9  18  34  55  75  95 122 157 198 245 294
#     4  10  21  35  51  73 100 129 160 195 240 293
#     4   9  18  32  50  72  98 132 173 210 243 280
#     4   9  17  30  47  67  95 130 166 202 237 274
#     4   9  19  35  54  75  96 122 159 200 243 292
#     4  10  20  31  44  67  99 133 168 202 236 277
#
# _framework density 17.448616000000001
#
# number of rings (size 3 to 8) (size 9 to 14) (size 15 to 20)
#    0.000    2.667    0.000    2.500    0.000    7.667 
#    0.000    5.000    0.000    0.500    0.000    3.500 
#    0.000    0.000    0.000    0.000    0.000    0.000 
#
# Total GULP energy -595293.527825 kJ/mol
# GULP energy per Si atom -12401.948496 kJ/mol
# Density = 1.740890 g / cm^3
# Si number density = 17.448616 Si / 1000 Ang^3
#
#
#
# Elastic Constant Matrix: (Units=GPa)
#
#
# Indices 1 2 3 4 5 6 
#
# 1 100.0671 56.0703 65.7685 0.0000 0.0000 0.0000
# 2 56.0703 75.2300 44.9871 0.0000 0.0000 0.0000
# 3 65.7685 44.9871 96.1653 0.0000 0.0000 0.0000
# 4 0.0000 0.0000 0.0000 16.5943 0.0000 0.0000
# 5 0.0000 0.0000 0.0000 0.0000 27.1474 0.0000
# 6 0.0000 0.0000 0.0000 0.0000 0.0000 15.5218
#
#
#
# Elastic Compliance Matrix: (Units=1/GPa)
#
#
# Indices 1 2 3 4 5 6 
#
# 1 0.023110 -0.010792 -0.010757 0.000000 0.000000 0.000000
# 2 -0.010792 0.023495 -0.003611 0.000000 0.000000 0.000000
# 3 -0.010757 -0.003611 0.019444 0.000000 0.000000 0.000000
# 4 0.000000 0.000000 0.000000 0.060262 0.000000 0.000000
# 5 0.000000 0.000000 0.000000 0.000000 0.036836 0.000000
# 6 0.000000 0.000000 0.000000 0.000000 0.000000 0.064426
#
#
# Mechanical properties :
#
#
# Convention : Reuss Voigt Hill
#
# Bulk Modulus (GPa) = 63.56743 67.23491 65.40117
# Shear Modulus (GPa) = 17.65945 18.82846 18.24395
#
# Velocity S-wave (km/s) = 3.18478 3.28850 3.23705
# Velocity P-wave (km/s) = 7.07347 7.28256 7.17878
#
# Compressibility (1/GPa) = 0.01573133
#
# Stress axis : x y z
#
# Youngs Moduli (GPa) = 43.27127 42.56209 51.42877
#
# Poissons Ratio (x) = 0.45933 0.55320
# Poissons Ratio (y) = 0.46698 0.18569
# Poissons Ratio (z) = 0.46545 0.15367
#
# Static dielectric constant tensor:
#      x y z
#    x 3.057840 0.000000 0.000000 
#    y 0.000000 3.287750 0.000000 
#    z 0.000000 0.000000 3.237010 
# 
# 
# High freq. dielectric constant tensor:
#      x y z
#    x 1.660570 0.000000 0.000000 
#    y 0.000000 1.664180 0.000000 
#    z 0.000000 0.000000 1.675220 
# 
# From -- ./inp_files/16308.got.cif
#   From: 2010.03.12/outbox.cif.g09.slc.cpg/sg65_9_cif.got.tgz:16308.got - 2010.04.10 20:52:16.
