data_PCOD8269712
_publ_section_title
;
Structure prediction by ZEFSAII (Michael W. Deem and Ramdas Pophale) SiO2 
 PCOD8269712
Probable space group: C M M M
;
_chemical_formula_sum "Si O2"
_cell_formula_units_Z 104
_cell_length_a 23.167226
_cell_length_b 18.147770
_cell_length_c 19.540525
_cell_angle_alpha 90.000000
_cell_angle_beta 90.000000
_cell_angle_gamma 90.000000
_cell_volume 8215.491102
_symmetry_space_group_name_H-M "C M M M"
_symmetry_group_IT_number 65
_symmetry_cell_setting 'orthorhombic'
loop_
_space_group_symop_operation_xyz
x,y,z
-x,-y,z
x,-y,-z
-x,y,-z
-x,-y,-z
x,y,-z
-x,y,z
x,-y,z
1/2+x,1/2+y,z
1/2-x,1/2-y,z
1/2+x,1/2-y,-z
1/2-x,1/2+y,-z
1/2-x,1/2-y,-z
1/2+x,1/2+y,-z
1/2-x,1/2+y,z
1/2+x,1/2-y,z
loop_
_atom_site_type_symbol
_atom_site_label
_atom_site_fract_x
_atom_site_fract_y
_atom_site_fract_z
Si Si1 0.121564 0.359738 0.646748
Si Si2 0.933760 0.500000 0.579031
Si Si3 0.564764 0.087359 0.072271
Si Si4 0.068303 0.413444 0.220797
Si Si5 0.640122 0.580835 0.418920
Si Si6 0.229697 0.586203 0.421147
Si Si7 0.432931 0.282039 0.580560
O O1 0.091024 0.425754 0.608310
O O2 0.107390 0.366541 0.727135
O O3 0.189555 0.365627 0.629452
O O4 0.097661 0.282826 0.620755
O O5 0.919991 0.500000 0.500000
O O6 0.000000 0.500000 0.597934
O O7 0.500000 0.118321 0.069847
O O8 0.591629 0.112336 0.145163
O O9 0.562682 0.000000 0.074363
O O10 0.595934 0.112864 0.000000
O O11 0.079163 0.500000 0.233685
O O12 0.000000 0.396281 0.229281
O O13 0.638718 0.575916 0.500000
O O14 0.623244 0.500000 0.389024
O O15 0.705088 0.601874 0.396586
O O16 0.595021 0.641628 0.392755
O O17 0.220427 0.611049 0.500000
O O18 0.214289 0.500000 0.413854
O O19 0.422861 0.270705 0.500000
O O20 0.500000 0.283989 0.599123
#
# Coordination Sequence:
#
# PCOD8269712 Si02
#       7
#    16   8  16  16  16  16  16
#     4  12  19  25  35  50  74 101 125 148 173 206
#     4  11  20  26  32  42  63 101 136 154 169 193
#     4   7  10  17  29  43  58  80 116 158 186 201
#     4   9  15  22  31  44  65  95 127 152 176 206
#     4   8  16  31  47  57  64  80 112 158 204 235
#     4   9  16  27  41  54  68  90 124 156 180 211
#     4  10  20  30  39  54  73  91 117 153 190 227
#
# _framework density 12.659012000000001
#
# number of rings (size 3 to 8) (size 9 to 14) (size 15 to 20)
#    0.000    2.692    1.538    5.077    0.000    2.154 
#    0.000    3.846    0.000    0.000    0.000    0.000 
#    0.000    0.000    0.000    2.769    0.000    8.462 
#
# Total GULP energy -644186.270699 kJ/mol
# GULP energy per Si atom -12388.197513 kJ/mol
# Density = 1.263020 g / cm^3
# Si number density = 12.659012 Si / 1000 Ang^3
#
#
#
# Elastic Constant Matrix: (Units=GPa)
#
#
# Indices 1 2 3 4 5 6 
#
# 1 44.2342 31.9286 14.0387 0.0000 0.0000 0.0000
# 2 31.9286 68.6159 23.5349 0.0000 0.0000 0.0000
# 3 14.0387 23.5349 73.1677 0.0000 0.0000 0.0000
# 4 0.0000 0.0000 0.0000 4.8020 0.0000 0.0000
# 5 0.0000 0.0000 0.0000 0.0000 8.2079 0.0000
# 6 0.0000 0.0000 0.0000 0.0000 0.0000 11.6087
#
#
#
# Elastic Compliance Matrix: (Units=1/GPa)
#
#
# Indices 1 2 3 4 5 6 
#
# 1 0.034211 -0.015363 -0.001623 0.000000 0.000000 0.000000
# 2 -0.015363 0.023280 -0.004540 0.000000 0.000000 0.000000
# 3 -0.001623 -0.004540 0.015439 0.000000 0.000000 0.000000
# 4 0.000000 0.000000 0.000000 0.208248 0.000000 0.000000
# 5 0.000000 0.000000 0.000000 0.000000 0.121834 0.000000
# 6 0.000000 0.000000 0.000000 0.000000 0.000000 0.086142
#
#
# Mechanical properties :
#
#
# Convention : Reuss Voigt Hill
#
# Bulk Modulus (GPa) = 33.46902 36.11359 34.79130
# Shear Modulus (GPa) = 9.22229 12.69142 10.95686
#
# Velocity S-wave (km/s) = 2.70203 3.16976 2.94519
# Velocity P-wave (km/s) = 6.01921 6.47969 6.25369
#
# Compressibility (1/GPa) = 0.02987838
#
# Stress axis : x y z
#
# Youngs Moduli (GPa) = 29.23060 42.95570 64.77094
#
# Poissons Ratio (x) = 0.65991 0.10509
# Poissons Ratio (y) = 0.44906 0.29409
# Poissons Ratio (z) = 0.04743 0.19504
#
# Static dielectric constant tensor:
#      x y z
#    x 2.586350 0.000000 0.000000 
#    y 0.000000 2.468880 0.000000 
#    z 0.000000 0.000000 2.728880 
# 
# 
# High freq. dielectric constant tensor:
#      x y z
#    x 1.465030 0.000000 0.000000 
#    y 0.000000 1.456830 0.000000 
#    z 0.000000 0.000000 1.453930 
# 
# From -- ./inp_files/65497.got.cif
#   From: 2010.03.12/outbox.cif.g09.slc.cpg/sg65_33_cif.got.tgz:65497.got - 2010.04.10 20:52:16.
