data_PCOD8269781
_publ_section_title
;
Structure prediction by ZEFSAII (Michael W. Deem and Ramdas Pophale) SiO2 
 PCOD8269781
Probable space group: C M M M
;
_chemical_formula_sum "Si O2"
_cell_formula_units_Z 72
_cell_length_a 23.517661
_cell_length_b 23.146139
_cell_length_c 8.814919
_cell_angle_alpha 90.000000
_cell_angle_beta 90.000000
_cell_angle_gamma 90.000000
_cell_volume 4798.339898
_symmetry_space_group_name_H-M "C M M M"
_symmetry_group_IT_number 65
_symmetry_cell_setting 'orthorhombic'
loop_
_space_group_symop_operation_xyz
x,y,z
-x,-y,z
x,-y,-z
-x,y,-z
-x,-y,-z
x,y,-z
-x,y,z
x,-y,z
1/2+x,1/2+y,z
1/2-x,1/2-y,z
1/2+x,1/2-y,-z
1/2-x,1/2+y,-z
1/2-x,1/2-y,-z
1/2+x,1/2+y,-z
1/2-x,1/2+y,z
1/2+x,1/2-y,z
loop_
_atom_site_type_symbol
_atom_site_label
_atom_site_fract_x
_atom_site_fract_y
_atom_site_fract_z
Si Si1 0.325830 0.273695 0.825683
Si Si2 0.719118 0.565349 0.676050
Si Si3 0.109170 0.117105 0.825817
Si Si4 0.500000 0.564910 0.321473
Si Si5 0.782879 0.326368 0.675000
O O1 0.381641 0.313479 0.803914
O O2 0.277829 0.298515 0.715020
O O3 0.332625 0.206141 0.773249
O O4 0.305765 0.276395 0.000000
O O5 0.701909 0.573147 0.500000
O O6 0.737158 0.500000 0.713339
O O7 0.664785 0.581924 0.776093
O O8 0.774329 0.605516 0.713982
O O9 0.055424 0.099272 0.728624
O O10 0.096915 0.102080 0.000000
O O11 0.500000 0.500000 0.252781
O O12 0.500000 0.561469 0.500000
O O13 0.797796 0.317328 0.500000
#
# Coordination Sequence:
#
# PCOD8269781 Si02
#       5
#    16  16  16   8  16
#     4   9  16  26  39  55  75  96 121 157 197 231
#     4   9  17  28  40  56  80 107 133 161 193 229
#     4  10  20  31  43  58  75  99 132 168 202 234
#     4  11  23  35  45  57  75 101 132 167 204 235
#     4   9  15  23  38  57  75  98 127 156 187 227
#
# _framework density 15.005190000000001
#
# number of rings (size 3 to 8) (size 9 to 14) (size 15 to 20)
#    0.000    2.556    0.000    4.333    0.000    7.556 
#    0.000    0.000    0.000    0.000    0.000    0.000 
#    0.000    0.000    0.000    1.000    0.000   20.222 
#
# Total GULP energy -445977.660104 kJ/mol
# GULP energy per Si atom -12388.268336 kJ/mol
# Density = 1.497104 g / cm^3
# Si number density = 15.005190 Si / 1000 Ang^3
#
#
#
# Elastic Constant Matrix: (Units=GPa)
#
#
# Indices 1 2 3 4 5 6 
#
# 1 43.5662 48.0559 21.8233 0.0000 0.0000 0.0000
# 2 48.0559 122.2704 36.4435 0.0000 0.0000 0.0000
# 3 21.8233 36.4435 51.1270 0.0000 0.0000 0.0000
# 4 0.0000 0.0000 0.0000 20.0918 0.0000 0.0000
# 5 0.0000 0.0000 0.0000 0.0000 41.6413 0.0000
# 6 0.0000 0.0000 0.0000 0.0000 0.0000 20.5199
#
#
#
# Elastic Compliance Matrix: (Units=1/GPa)
#
#
# Indices 1 2 3 4 5 6 
#
# 1 0.042952 -0.014497 -0.008000 0.000000 0.000000 0.000000
# 2 -0.014497 0.015278 -0.004702 0.000000 0.000000 0.000000
# 3 -0.008000 -0.004702 0.026326 0.000000 0.000000 0.000000
# 4 0.000000 0.000000 0.000000 0.049772 0.000000 0.000000
# 5 0.000000 0.000000 0.000000 0.000000 0.024015 0.000000
# 6 0.000000 0.000000 0.000000 0.000000 0.000000 0.048733
#
#
# Mechanical properties :
#
#
# Convention : Reuss Voigt Hill
#
# Bulk Modulus (GPa) = 33.16013 47.73435 40.44724
# Shear Modulus (GPa) = 18.41444 23.82664 21.12054
#
# Velocity S-wave (km/s) = 3.50695 3.98916 3.75580
# Velocity P-wave (km/s) = 6.20849 7.28689 6.76920
#
# Compressibility (1/GPa) = 0.03015669
#
# Stress axis : x y z
#
# Youngs Moduli (GPa) = 23.28186 65.45456 37.98555
#
# Poissons Ratio (x) = 0.94888 0.30390
# Poissons Ratio (y) = 0.33751 0.17862
# Poissons Ratio (z) = 0.18626 0.30778
#
# Static dielectric constant tensor:
#      x y z
#    x 2.576020 0.000000 0.000000 
#    y 0.000000 3.665150 0.000000 
#    z 0.000000 0.000000 2.990690 
# 
# 
# High freq. dielectric constant tensor:
#      x y z
#    x 1.508160 0.000000 0.000000 
#    y 0.000000 1.583490 0.000000 
#    z 0.000000 0.000000 1.590740 
# 
# From -- ./inp_files/11431.got.cif
#   From: 2010.03.12/outbox.cif.g09.slc.cpg/sg65_6_cif.got.tgz:11431.got - 2010.04.10 20:52:16.
