data_PCOD8269730
_publ_section_title
;
Structure prediction by ZEFSAII (Michael W. Deem and Ramdas Pophale) SiO2 
 PCOD8269730
Probable space group: C M M M
;
_chemical_formula_sum "Si O2"
_cell_formula_units_Z 96
_cell_length_a 8.838806
_cell_length_b 26.896313
_cell_length_c 24.023562
_cell_angle_alpha 90.000000
_cell_angle_beta 90.000000
_cell_angle_gamma 90.000000
_cell_volume 5711.152450
_symmetry_space_group_name_H-M "C M M M"
_symmetry_group_IT_number 65
_symmetry_cell_setting 'orthorhombic'
loop_
_space_group_symop_operation_xyz
x,y,z
-x,-y,z
x,-y,-z
-x,y,-z
-x,-y,-z
x,y,-z
-x,y,z
x,-y,z
1/2+x,1/2+y,z
1/2-x,1/2-y,z
1/2+x,1/2-y,-z
1/2-x,1/2+y,-z
1/2-x,1/2-y,-z
1/2+x,1/2+y,-z
1/2-x,1/2+y,z
1/2+x,1/2-y,z
loop_
_atom_site_type_symbol
_atom_site_label
_atom_site_fract_x
_atom_site_fract_y
_atom_site_fract_z
Si Si1 0.819763 0.056072 0.119555
Si Si2 0.673911 0.444391 0.326835
Si Si3 0.665338 0.558906 0.000000
Si Si4 0.177744 0.847989 0.608294
Si Si5 0.323477 0.200247 0.287134
Si Si6 0.320841 0.804553 0.500000
Si Si7 0.673986 0.898907 0.776397
O O1 0.753238 0.073429 0.058641
O O2 0.761426 0.093438 0.166190
O O3 0.000000 0.057826 0.117224
O O4 0.765258 0.000000 0.133627
O O5 0.500000 0.437222 0.309368
O O6 0.705175 0.500000 0.349705
O O7 0.716291 0.405022 0.374961
O O8 0.770445 0.436188 0.271408
O O9 0.645517 0.500000 0.000000
O O10 0.500000 0.584179 0.000000
O O11 0.234320 0.811349 0.656284
O O12 0.268428 0.835986 0.552889
O O13 0.000000 0.839703 0.598432
O O14 0.500000 0.206976 0.300766
O O15 0.250000 0.250000 0.261750
O O16 0.296504 0.157611 0.241798
O O17 0.500000 0.798986 0.500000
O O18 0.250000 0.750000 0.500000
O O19 0.500000 0.910299 0.786939
#
# Coordination Sequence:
#
# PCOD8269730 Si02
#       7
#    16  16   8  16  16   8  16
#     4   9  16  27  44  65  91 124 160 193 224 265
#     4   9  18  33  52  72  95 126 161 192 222 263
#     4   7  12  24  41  61  86 119 158 195 226 259
#     4  10  20  35  54  75  98 123 154 190 229 272
#     4  10  20  34  50  69  94 122 152 188 233 280
#     4  12  24  38  55  74  97 123 154 191 233 280
#     4  10  20  30  43  68  98 124 152 189 233 278
#
# _framework density 16.809218000000001
#
# number of rings (size 3 to 8) (size 9 to 14) (size 15 to 20)
#    0.000    2.417    0.000    4.250    0.000    5.333 
#    0.000    0.833    0.000    4.000    0.000    0.583 
#    0.000    0.000    0.000    0.000    0.000    0.000 
#
# Total GULP energy -595045.615944 kJ/mol
# GULP energy per Si atom -12396.783665 kJ/mol
# Density = 1.677096 g / cm^3
# Si number density = 16.809218 Si / 1000 Ang^3
#
#
#
# Elastic Constant Matrix: (Units=GPa)
#
#
# Indices 1 2 3 4 5 6 
#
# 1 74.3631 38.7625 48.8829 0.0000 0.0000 0.0000
# 2 38.7625 100.3571 52.1404 0.0000 0.0000 0.0000
# 3 48.8829 52.1404 133.2665 0.0000 0.0000 0.0000
# 4 0.0000 0.0000 0.0000 16.2820 0.0000 0.0000
# 5 0.0000 0.0000 0.0000 0.0000 16.6990 0.0000
# 6 0.0000 0.0000 0.0000 0.0000 0.0000 24.1903
#
#
#
# Elastic Compliance Matrix: (Units=1/GPa)
#
#
# Indices 1 2 3 4 5 6 
#
# 1 0.019376 -0.004759 -0.005245 0.000000 0.000000 0.000000
# 2 -0.004759 0.013675 -0.003605 0.000000 0.000000 0.000000
# 3 -0.005245 -0.003605 0.010838 0.000000 0.000000 0.000000
# 4 0.000000 0.000000 0.000000 0.061417 0.000000 0.000000
# 5 0.000000 0.000000 0.000000 0.000000 0.059884 0.000000
# 6 0.000000 0.000000 0.000000 0.000000 0.000000 0.041339
#
#
# Mechanical properties :
#
#
# Convention : Reuss Voigt Hill
#
# Bulk Modulus (GPa) = 59.98226 65.28426 62.63326
# Shear Modulus (GPa) = 20.89383 22.64768 21.77075
#
# Velocity S-wave (km/s) = 3.52944 3.67459 3.60275
# Velocity P-wave (km/s) = 7.23677 7.54494 7.39246
#
# Compressibility (1/GPa) = 0.01667160
#
# Stress axis : x y z
#
# Youngs Moduli (GPa) = 51.60977 73.12402 92.26565
#
# Poissons Ratio (x) = 0.34797 0.48398
# Poissons Ratio (y) = 0.24560 0.33262
# Poissons Ratio (z) = 0.27072 0.26361
#
# Static dielectric constant tensor:
#      x y z
#    x 3.146450 0.000000 0.000000 
#    y 0.000000 3.119910 0.000000 
#    z 0.000000 0.000000 3.256460 
# 
# 
# High freq. dielectric constant tensor:
#      x y z
#    x 1.647820 0.000000 0.000000 
#    y 0.000000 1.633060 0.000000 
#    z 0.000000 0.000000 1.642890 
# 
# From -- ./inp_files/68077.got.cif
#   From: 2010.03.12/outbox.cif.g09.slc.cpg/sg65_35_cif.got.tgz:68077.got - 2010.04.10 20:52:16.
