data_PCOD8269135
_publ_section_title
;
Structure prediction by ZEFSAII (Michael W. Deem and Ramdas Pophale) SiO2 
 PCOD8269135
Probable space group: C M M M
;
_chemical_formula_sum "Si O2"
_cell_formula_units_Z 88
_cell_length_a 8.921842
_cell_length_b 18.117870
_cell_length_c 28.961097
_cell_angle_alpha 90.000000
_cell_angle_beta 90.000000
_cell_angle_gamma 90.000000
_cell_volume 4681.409965
_symmetry_space_group_name_H-M "C M M M"
_symmetry_group_IT_number 65
_symmetry_cell_setting 'orthorhombic'
loop_
_space_group_symop_operation_xyz
x,y,z
-x,-y,z
x,-y,-z
-x,y,-z
-x,-y,-z
x,y,-z
-x,y,z
x,-y,z
1/2+x,1/2+y,z
1/2-x,1/2-y,z
1/2+x,1/2-y,-z
1/2-x,1/2+y,-z
1/2-x,1/2-y,-z
1/2+x,1/2+y,-z
1/2-x,1/2+y,z
1/2+x,1/2-y,z
loop_
_atom_site_type_symbol
_atom_site_label
_atom_site_fract_x
_atom_site_fract_y
_atom_site_fract_z
Si Si1 0.821977 0.582837 0.410425
Si Si2 0.177594 0.670360 0.320821
Si Si3 0.175809 0.828826 0.048715
Si Si4 0.178164 0.329754 0.500000
Si Si5 0.675971 0.670934 0.148357
Si Si6 0.675240 0.414428 0.238079
O O1 0.755356 0.500000 0.410821
O O2 0.764188 0.624279 0.364821
O O3 0.763536 0.626239 0.455251
O O4 0.000000 0.579323 0.410948
O O5 0.250000 0.750000 0.322949
O O6 0.227281 0.628766 0.275032
O O7 0.000000 0.678891 0.320915
O O8 0.250000 0.750000 0.047459
O O9 0.222394 0.865165 0.098073
O O10 0.000000 0.816635 0.049076
O O11 0.220458 0.871157 0.000000
O O12 0.250000 0.250000 0.500000
O O13 0.000000 0.321708 0.500000
O O14 0.500000 0.684595 0.150699
O O15 0.750000 0.750000 0.157106
O O16 0.725736 0.613675 0.187608
O O17 0.500000 0.399713 0.247130
O O18 0.715306 0.500000 0.241404
#
# Coordination Sequence:
#
# PCOD8269135 Si02
#       6
#    16  16  16   8  16  16
#     4   9  18  33  54  79 104 133 170 208 246 292
#     4  11  22  36  55  78 104 132 166 208 251 298
#     4   8  13  22  38  61  88 116 148 189 236 284
#     4  10  19  33  55  79 105 136 170 208 248 292
#     4   9  17  29  46  68  93 122 157 198 243 290
#     4  10  21  36  52  71  98 132 168 206 250 298
#
# _framework density 18.797754999999999
#
# number of rings (size 3 to 8) (size 9 to 14) (size 15 to 20)
#    0.000    2.545    0.000    2.455    0.000    4.364 
#    0.000    0.909    0.000    3.818    0.000    3.818 
#    0.000    0.000    0.000   31.091    0.000   15.636 
#
# Total GULP energy -545181.495392 kJ/mol
# GULP energy per Si atom -12390.488532 kJ/mol
# Density = 1.875497 g / cm^3
# Si number density = 18.797755 Si / 1000 Ang^3
#
#
#
# Elastic Constant Matrix: (Units=GPa)
#
#
# Indices 1 2 3 4 5 6 
#
# 1 29.5630 31.0230 35.6638 0.0000 0.0000 0.0000
# 2 31.0230 137.0498 85.7354 0.0000 0.0000 0.0000
# 3 35.6638 85.7354 201.2665 0.0000 0.0000 0.0000
# 4 0.0000 0.0000 0.0000 14.2873 0.0000 0.0000
# 5 0.0000 0.0000 0.0000 0.0000 26.5851 0.0000
# 6 0.0000 0.0000 0.0000 0.0000 0.0000 15.8669
#
#
#
# Elastic Compliance Matrix: (Units=1/GPa)
#
#
# Indices 1 2 3 4 5 6 
#
# 1 0.048192 -0.007589 -0.005307 0.000000 0.000000 0.000000
# 2 -0.007589 0.011143 -0.003402 0.000000 0.000000 0.000000
# 3 -0.005307 -0.003402 0.007358 0.000000 0.000000 0.000000
# 4 0.000000 0.000000 0.000000 0.069992 0.000000 0.000000
# 5 0.000000 0.000000 0.000000 0.000000 0.037615 0.000000
# 6 0.000000 0.000000 0.000000 0.000000 0.000000 0.063024
#
#
# Mechanical properties :
#
#
# Convention : Reuss Voigt Hill
#
# Bulk Modulus (GPa) = 29.32790 74.74707 52.03748
# Shear Modulus (GPa) = 17.77560 25.71166 21.74363
#
# Velocity S-wave (km/s) = 3.07844 3.70240 3.40474
# Velocity P-wave (km/s) = 5.31708 7.62412 6.57261
#
# Compressibility (1/GPa) = 0.03409723
#
# Stress axis : x y z
#
# Youngs Moduli (GPa) = 20.75050 89.74593 135.90799
#
# Poissons Ratio (x) = 0.68109 0.72121
# Poissons Ratio (y) = 0.15748 0.46232
# Poissons Ratio (z) = 0.11011 0.30529
#
# Static dielectric constant tensor:
#      x y z
#    x 3.229310 0.000000 0.000000 
#    y 0.000000 3.320300 0.000000 
#    z 0.000000 0.000000 4.284830 
# 
# 
# High freq. dielectric constant tensor:
#      x y z
#    x 1.705920 0.000000 0.000000 
#    y 0.000000 1.707580 0.000000 
#    z 0.000000 0.000000 1.764340 
# 
# From -- ./inp_files/76567.got.cif
#   From: 2010.03.12/outbox.cif.g09.slc.cpg/sg65_39_cif.got.tgz:76567.got - 2010.04.10 20:52:16.
