data_PCOD8269300
_publ_section_title
;
Structure prediction by ZEFSAII (Michael W. Deem and Ramdas Pophale) SiO2 
 PCOD8269300
Probable space group: C M M M
;
_chemical_formula_sum "Si O2"
_cell_formula_units_Z 64
_cell_length_a 7.467830
_cell_length_b 26.773645
_cell_length_c 18.442195
_cell_angle_alpha 90.000000
_cell_angle_beta 90.000000
_cell_angle_gamma 90.000000
_cell_volume 3687.351452
_symmetry_space_group_name_H-M "C M M M"
_symmetry_group_IT_number 65
_symmetry_cell_setting 'orthorhombic'
loop_
_space_group_symop_operation_xyz
x,y,z
-x,-y,z
x,-y,-z
-x,y,-z
-x,-y,-z
x,y,-z
-x,y,z
x,-y,z
1/2+x,1/2+y,z
1/2-x,1/2-y,z
1/2+x,1/2-y,-z
1/2-x,1/2+y,-z
1/2-x,1/2-y,-z
1/2+x,1/2+y,-z
1/2-x,1/2+y,z
1/2+x,1/2-y,z
loop_
_atom_site_type_symbol
_atom_site_label
_atom_site_fract_x
_atom_site_fract_y
_atom_site_fract_z
Si Si1 0.500000 0.056308 0.674314
Si Si2 0.795741 0.194658 0.684270
Si Si3 0.288143 0.443946 0.078944
Si Si4 0.000000 0.652211 0.585265
Si Si5 0.292037 0.399820 0.773598
O O1 0.500000 0.093819 0.606215
O O2 0.321937 0.064437 0.721769
O O3 0.500000 0.000000 0.644147
O O4 0.750000 0.250000 0.711946
O O5 0.675380 0.179720 0.615868
O O6 0.757773 0.157803 0.751975
O O7 0.000000 0.190701 0.658110
O O8 0.500000 0.444634 0.075910
O O9 0.217540 0.500000 0.094938
O O10 0.224699 0.407300 0.143495
O O11 0.214360 0.425785 0.000000
O O12 0.000000 0.657948 0.500000
O O13 0.500000 0.414931 0.764581
#
# Coordination Sequence:
#
# PCOD8269300 Si02
#       5
#     8  16  16   8  16
#     4  10  20  33  51  74  98 129 167 197 230 285
#     4  10  19  34  53  74  97 125 161 199 246 291
#     4   8  13  23  42  68  96 126 160 197 239 282
#     4  10  22  37  52  75 103 126 155 196 242 295
#     4   9  18  31  49  71  98 130 164 203 240 283
#
# _framework density 17.356632000000001
#
# number of rings (size 3 to 8) (size 9 to 14) (size 15 to 20)
#    0.000    2.750    1.250    1.500    0.000    2.750 
#    0.000    0.625    0.000    3.000    0.000    7.000 
#    0.000    0.000    0.000    0.000    0.000    0.000 
#
# Total GULP energy -396627.776158 kJ/mol
# GULP energy per Si atom -12394.618005 kJ/mol
# Density = 1.731713 g / cm^3
# Si number density = 17.356632 Si / 1000 Ang^3
#
#
#
# Elastic Constant Matrix: (Units=GPa)
#
#
# Indices 1 2 3 4 5 6 
#
# 1 82.8478 32.9852 35.3071 0.0000 0.0000 0.0000
# 2 32.9852 127.1540 64.0842 0.0000 0.0000 0.0000
# 3 35.3071 64.0842 142.6974 0.0000 0.0000 0.0000
# 4 0.0000 0.0000 0.0000 17.9036 0.0000 0.0000
# 5 0.0000 0.0000 0.0000 0.0000 12.7209 0.0000
# 6 0.0000 0.0000 0.0000 0.0000 0.0000 11.1651
#
#
#
# Elastic Compliance Matrix: (Units=1/GPa)
#
#
# Indices 1 2 3 4 5 6 
#
# 1 0.014059 -0.002448 -0.002379 0.000000 0.000000 0.000000
# 2 -0.002448 0.010591 -0.004151 0.000000 0.000000 0.000000
# 3 -0.002379 -0.004151 0.009461 0.000000 0.000000 0.000000
# 4 0.000000 0.000000 0.000000 0.055855 0.000000 0.000000
# 5 0.000000 0.000000 0.000000 0.000000 0.078611 0.000000
# 6 0.000000 0.000000 0.000000 0.000000 0.000000 0.089565
#
#
# Mechanical properties :
#
#
# Convention : Reuss Voigt Hill
#
# Bulk Modulus (GPa) = 61.90031 68.60581 65.25306
# Shear Modulus (GPa) = 17.76309 23.04609 20.40459
#
# Velocity S-wave (km/s) = 3.20256 3.64785 3.43243
# Velocity P-wave (km/s) = 7.02968 7.57333 7.30656
#
# Compressibility (1/GPa) = 0.01615501
#
# Stress axis : x y z
#
# Youngs Moduli (GPa) = 71.12938 94.41536 105.70121
#
# Poissons Ratio (x) = 0.23112 0.25148
# Poissons Ratio (y) = 0.17412 0.43875
# Poissons Ratio (z) = 0.16923 0.39191
#
# Static dielectric constant tensor:
#      x y z
#    x 3.338110 0.000000 0.000000 
#    y 0.000000 3.279680 0.000000 
#    z 0.000000 0.000000 3.282740 
# 
# 
# High freq. dielectric constant tensor:
#      x y z
#    x 1.679450 0.000000 0.000000 
#    y 0.000000 1.656910 0.000000 
#    z 0.000000 0.000000 1.654080 
# 
# From -- ./inp_files/49641.got.cif
#   From: 2010.03.12/outbox.cif.g09.slc.cpg/sg65_25_cif.got.tgz:49641.got - 2010.04.10 20:52:16.
