data_PCOD8269994
_publ_section_title
;
Structure prediction by ZEFSAII (Michael W. Deem and Ramdas Pophale) SiO2 
 PCOD8269994
Probable space group: C M M M
;
_chemical_formula_sum "Si O2"
_cell_formula_units_Z 96
_cell_length_a 18.331729
_cell_length_b 18.240290
_cell_length_c 16.867107
_cell_angle_alpha 90.000000
_cell_angle_beta 90.000000
_cell_angle_gamma 90.000000
_cell_volume 5639.956667
_symmetry_space_group_name_H-M "C M M M"
_symmetry_group_IT_number 65
_symmetry_cell_setting 'orthorhombic'
loop_
_space_group_symop_operation_xyz
x,y,z
-x,-y,z
x,-y,-z
-x,y,-z
-x,-y,-z
x,y,-z
-x,y,z
x,-y,z
1/2+x,1/2+y,z
1/2-x,1/2-y,z
1/2+x,1/2-y,-z
1/2-x,1/2+y,-z
1/2-x,1/2-y,-z
1/2+x,1/2+y,-z
1/2-x,1/2+y,z
1/2+x,1/2-y,z
loop_
_atom_site_type_symbol
_atom_site_label
_atom_site_fract_x
_atom_site_fract_y
_atom_site_fract_z
Si Si1 0.080448 0.163558 0.146645
Si Si2 0.718076 0.581832 0.146028
Si Si3 0.784115 0.086677 0.326063
Si Si4 0.778215 0.332020 0.000000
Si Si5 0.683924 0.194101 0.410195
Si Si6 0.418285 0.234562 0.000000
Si Si7 0.414783 0.303953 0.676331
O O1 0.131042 0.092347 0.141990
O O2 0.100963 0.218724 0.077214
O O3 0.088882 0.207187 0.229182
O O4 0.000000 0.131766 0.135406
O O5 0.738702 0.500000 0.123126
O O6 0.741192 0.601318 0.235578
O O7 0.755397 0.632242 0.081839
O O8 0.715357 0.117516 0.375988
O O9 0.861256 0.127580 0.347190
O O10 0.795002 0.000000 0.343049
O O11 0.750000 0.250000 0.000000
O O12 0.866011 0.335423 0.000000
O O13 0.657985 0.180755 0.500000
O O14 0.750000 0.250000 0.404912
O O15 0.615112 0.228493 0.362697
O O16 0.500000 0.204913 0.000000
O O17 0.500000 0.318325 0.650179
#
# Coordination Sequence:
#
# PCOD8269994 Si02
#       7
#    16  16  16   8  16   8  16
#     4   9  17  30  47  71 102 133 163 195 241 297
#     4  10  20  32  47  72 102 131 166 207 250 295
#     4   9  19  33  51  74 104 138 170 206 250 304
#     4  12  21  30  51  72  93 133 172 215 251 286
#     4   9  18  32  51  73  99 131 167 206 250 302
#     4  10  20  32  46  70  97 125 166 208 245 285
#     4   9  18  31  51  77 104 133 167 208 253 299
#
# _framework density 17.021408000000001
#
# number of rings (size 3 to 8) (size 9 to 14) (size 15 to 20)
#    0.000    2.500    1.667    0.250    2.333    2.000 
#    0.000    3.333    0.000    4.000    0.000    8.167 
#    0.000    0.000    0.000    0.000    0.000    0.000 
#
# Total GULP energy -594776.224993 kJ/mol
# GULP energy per Si atom -12391.171354 kJ/mol
# Density = 1.698267 g / cm^3
# Si number density = 17.021408 Si / 1000 Ang^3
#
#
#
# Elastic Constant Matrix: (Units=GPa)
#
#
# Indices 1 2 3 4 5 6 
#
# 1 72.4423 47.1904 32.9707 0.0000 0.0000 0.0000
# 2 47.1904 85.9412 41.7329 0.0000 0.0000 0.0000
# 3 32.9707 41.7329 89.2327 0.0000 0.0000 0.0000
# 4 0.0000 0.0000 0.0000 21.5064 0.0000 0.0000
# 5 0.0000 0.0000 0.0000 0.0000 24.0910 0.0000
# 6 0.0000 0.0000 0.0000 0.0000 0.0000 21.7489
#
#
#
# Elastic Compliance Matrix: (Units=1/GPa)
#
#
# Indices 1 2 3 4 5 6 
#
# 1 0.022191 -0.010614 -0.003235 0.000000 0.000000 0.000000
# 2 -0.010614 0.020132 -0.005494 0.000000 0.000000 0.000000
# 3 -0.003235 -0.005494 0.014971 0.000000 0.000000 0.000000
# 4 0.000000 0.000000 0.000000 0.046498 0.000000 0.000000
# 5 0.000000 0.000000 0.000000 0.000000 0.041509 0.000000
# 6 0.000000 0.000000 0.000000 0.000000 0.000000 0.045979
#
#
# Mechanical properties :
#
#
# Convention : Reuss Voigt Hill
#
# Bulk Modulus (GPa) = 53.73981 54.60047 54.17014
# Shear Modulus (GPa) = 21.17135 21.85074 21.51105
#
# Velocity S-wave (km/s) = 3.53059 3.58679 3.55880
# Velocity P-wave (km/s) = 6.94698 7.02144 6.98431
#
# Compressibility (1/GPa) = 0.01860818
#
# Stress axis : x y z
#
# Youngs Moduli (GPa) = 45.06401 49.67314 66.79438
#
# Poissons Ratio (x) = 0.52722 0.21610
# Poissons Ratio (y) = 0.47830 0.36694
# Poissons Ratio (z) = 0.14579 0.27288
#
# Static dielectric constant tensor:
#      x y z
#    x 3.354610 0.000000 0.000000 
#    y 0.000000 3.019810 0.000000 
#    z 0.000000 0.000000 3.298030 
# 
# 
# High freq. dielectric constant tensor:
#      x y z
#    x 1.649180 0.000000 0.000000 
#    y 0.000000 1.628700 0.000000 
#    z 0.000000 0.000000 1.667500 
# 
# From -- ./inp_files/54517.got.cif
#   From: 2010.03.12/outbox.cif.g09.slc.cpg/sg65_28_cif.got.tgz:54517.got - 2010.04.10 20:52:16.
