data_PCOD8269408
_publ_section_title
;
Structure prediction by ZEFSAII (Michael W. Deem and Ramdas Pophale) SiO2 
 PCOD8269408
Probable space group: C M M M
;
_chemical_formula_sum "Si O2"
_cell_formula_units_Z 120
_cell_length_a 26.359864
_cell_length_b 27.894738
_cell_length_c 9.198615
_cell_angle_alpha 90.000000
_cell_angle_beta 90.000000
_cell_angle_gamma 90.000000
_cell_volume 6763.755407
_symmetry_space_group_name_H-M "C M M M"
_symmetry_group_IT_number 65
_symmetry_cell_setting 'orthorhombic'
loop_
_space_group_symop_operation_xyz
x,y,z
-x,-y,z
x,-y,-z
-x,y,-z
-x,-y,-z
x,y,-z
-x,y,z
x,-y,z
1/2+x,1/2+y,z
1/2-x,1/2-y,z
1/2+x,1/2-y,-z
1/2-x,1/2+y,-z
1/2-x,1/2-y,-z
1/2+x,1/2+y,-z
1/2-x,1/2+y,z
1/2+x,1/2-y,z
loop_
_atom_site_type_symbol
_atom_site_label
_atom_site_fract_x
_atom_site_fract_y
_atom_site_fract_z
Si Si1 0.440375 0.687334 0.668512
Si Si2 0.145377 0.136178 0.170933
Si Si3 0.000000 0.556232 0.830907
Si Si4 0.944513 0.292265 0.328845
Si Si5 0.256558 0.695657 0.829108
Si Si6 0.300502 0.445114 0.669315
Si Si7 0.796671 0.613983 0.332141
Si Si8 0.408879 0.893028 0.669543
O O1 0.426097 0.680142 0.500000
O O2 0.500000 0.678438 0.693581
O O3 0.408849 0.650258 0.764185
O O4 0.424672 0.740640 0.726304
O O5 0.187739 0.175832 0.213548
O O6 0.159412 0.084805 0.237717
O O7 0.140334 0.130299 0.000000
O O8 0.051036 0.577033 0.761085
O O9 0.000000 0.500000 0.802604
O O10 0.000000 0.569205 0.000000
O O11 0.950021 0.286990 0.500000
O O12 0.909163 0.336699 0.285716
O O13 0.000000 0.303203 0.262034
O O14 0.250000 0.750000 0.771280
O O15 0.213811 0.662378 0.757068
O O16 0.247585 0.693351 0.000000
O O17 0.313120 0.438465 0.500000
O O18 0.304444 0.500000 0.718083
O O19 0.243786 0.427103 0.704858
O O20 0.795136 0.629246 0.500000
O O21 0.851545 0.590900 0.294127
O O22 0.422802 0.899751 0.500000
#
# Coordination Sequence:
#
# PCOD8269408 Si02
#       8
#    16  16   8  16  16  16  16  16
#     4   9  18  32  52  77 107 143 176 207 250 304
#     4  10  20  33  51  77 107 138 175 216 255 302
#     4  11  25  41  53  71 101 137 179 225 274 327
#     4   8  14  27  48  72  99 132 170 209 248 296
#     4   9  19  34  48  68 106 150 181 208 251 308
#     4   9  18  35  56  76 102 134 170 214 263 316
#     4   9  19  32  51  81 105 127 169 222 269 311
#     4  10  19  34  56  78 102 132 173 223 272 319
#
# _framework density 17.741623000000001
#
# number of rings (size 3 to 8) (size 9 to 14) (size 15 to 20)
#    0.000    2.733    0.667    1.400    1.867    2.933 
#    0.000    2.000    0.000    0.400    0.000    2.800 
#    0.000    0.000    0.000    0.000    0.000    0.000 
#
# Total GULP energy -743821.950000 kJ/mol
# GULP energy per Si atom -12397.032500 kJ/mol
# Density = 1.770124 g / cm^3
# Si number density = 17.741623 Si / 1000 Ang^3
#
#
#
# Elastic Constant Matrix: (Units=GPa)
#
#
# Indices 1 2 3 4 5 6 
#
# 1 96.5109 59.8969 47.4398 0.0000 0.0000 0.0000
# 2 59.8969 130.1153 54.8051 0.0000 0.0000 0.0000
# 3 47.4398 54.8051 62.6999 0.0000 0.0000 0.0000
# 4 0.0000 0.0000 0.0000 25.2861 0.0000 0.0000
# 5 0.0000 0.0000 0.0000 0.0000 20.6599 0.0000
# 6 0.0000 0.0000 0.0000 0.0000 0.0000 20.3272
#
#
#
# Elastic Compliance Matrix: (Units=1/GPa)
#
#
# Indices 1 2 3 4 5 6 
#
# 1 0.017704 -0.003969 -0.009926 0.000000 0.000000 0.000000
# 2 -0.003969 0.013054 -0.008407 0.000000 0.000000 0.000000
# 3 -0.009926 -0.008407 0.030807 0.000000 0.000000 0.000000
# 4 0.000000 0.000000 0.000000 0.039547 0.000000 0.000000
# 5 0.000000 0.000000 0.000000 0.000000 0.048403 0.000000
# 6 0.000000 0.000000 0.000000 0.000000 0.000000 0.049195
#
#
# Mechanical properties :
#
#
# Convention : Reuss Voigt Hill
#
# Bulk Modulus (GPa) = 58.95750 68.17886 63.56818
# Shear Modulus (GPa) = 20.08296 21.73361 20.90828
#
# Velocity S-wave (km/s) = 3.36812 3.50381 3.43663
# Velocity P-wave (km/s) = 6.95909 7.40818 7.18714
#
# Compressibility (1/GPa) = 0.01696137
#
# Stress axis : x y z
#
# Youngs Moduli (GPa) = 56.48531 76.60730 32.45967
#
# Poissons Ratio (x) = 0.30405 0.32219
# Poissons Ratio (y) = 0.22418 0.27289
# Poissons Ratio (z) = 0.56066 0.64404
#
# Static dielectric constant tensor:
#      x y z
#    x 3.234170 0.000000 0.000000 
#    y 0.000000 3.304010 0.000000 
#    z 0.000000 0.000000 3.093710 
# 
# 
# High freq. dielectric constant tensor:
#      x y z
#    x 1.682510 0.000000 0.000000 
#    y 0.000000 1.680000 0.000000 
#    z 0.000000 0.000000 1.668560 
# 
# From -- ./inp_files/17102.got.cif
#   From: 2010.03.12/outbox.cif.g09.slc.cpg/sg65_9_cif.got.tgz:17102.got - 2010.04.10 20:52:16.
