data_PCOD8269567
_publ_section_title
;
Structure prediction by ZEFSAII (Michael W. Deem and Ramdas Pophale) SiO2 
 PCOD8269567
Probable space group: C M M M
;
_chemical_formula_sum "Si O2"
_cell_formula_units_Z 72
_cell_length_a 17.868769
_cell_length_b 14.687577
_cell_length_c 13.481092
_cell_angle_alpha 90.000000
_cell_angle_beta 90.000000
_cell_angle_gamma 90.000000
_cell_volume 3538.098044
_symmetry_space_group_name_H-M "C M M M"
_symmetry_group_IT_number 65
_symmetry_cell_setting 'orthorhombic'
loop_
_space_group_symop_operation_xyz
x,y,z
-x,-y,z
x,-y,-z
-x,y,-z
-x,-y,-z
x,y,-z
-x,y,z
x,-y,z
1/2+x,1/2+y,z
1/2-x,1/2-y,z
1/2+x,1/2-y,-z
1/2-x,1/2+y,-z
1/2-x,1/2-y,-z
1/2+x,1/2+y,-z
1/2-x,1/2+y,z
1/2+x,1/2-y,z
loop_
_atom_site_type_symbol
_atom_site_label
_atom_site_fract_x
_atom_site_fract_y
_atom_site_fract_z
Si Si1 0.585175 0.272221 0.732685
Si Si2 0.861842 0.601975 0.383461
Si Si3 0.582953 0.000000 0.117455
Si Si4 0.216073 0.104254 0.263156
Si Si5 0.327763 0.824217 0.883463
O O1 0.500000 0.306840 0.737280
O O2 0.588984 0.180948 0.666655
O O3 0.638931 0.353322 0.693391
O O4 0.617299 0.254402 0.843626
O O5 0.867349 0.615777 0.500000
O O6 0.891147 0.500000 0.353711
O O7 0.775519 0.612207 0.351714
O O8 0.629362 0.914176 0.153667
O O9 0.500000 0.000000 0.164432
O O10 0.576495 0.000000 0.000000
O O11 0.246317 0.165776 0.169273
O O12 0.202092 0.000000 0.229996
O O13 0.315083 0.814038 0.000000
#
# Coordination Sequence:
#
# PCOD8269567 Si02
#       5
#    16  16   8  16  16
#     4  11  24  36  52  83 117 149 185 227 276 332
#     4   9  19  38  63  87 111 141 178 224 279 338
#     4   9  16  26  46  76 106 134 162 205 272 332
#     4  10  21  38  58  80 107 146 196 236 269 321
#     4  10  19  35  56  79 108 142 184 232 279 330
#
# _framework density 20.349916
#
# number of rings (size 3 to 8) (size 9 to 14) (size 15 to 20)
#    0.000    2.111    1.111    3.333    1.556    6.222 
#    0.000    1.111    0.000    0.000    0.000    7.778 
#    0.000    0.000    0.000    0.000    0.000    0.000 
#
# Total GULP energy -446202.722754 kJ/mol
# GULP energy per Si atom -12394.520076 kJ/mol
# Density = 2.030360 g / cm^3
# Si number density = 20.349916 Si / 1000 Ang^3
#
#
#
# Elastic Constant Matrix: (Units=GPa)
#
#
# Indices 1 2 3 4 5 6 
#
# 1 144.3782 31.9375 8.5017 0.0000 0.0000 0.0000
# 2 31.9375 62.6494 12.0945 0.0000 0.0000 0.0000
# 3 8.5017 12.0945 66.8152 0.0000 0.0000 0.0000
# 4 0.0000 0.0000 0.0000 15.0165 0.0000 0.0000
# 5 0.0000 0.0000 0.0000 0.0000 11.0125 0.0000
# 6 0.0000 0.0000 0.0000 0.0000 0.0000 16.5607
#
#
#
# Elastic Compliance Matrix: (Units=1/GPa)
#
#
# Indices 1 2 3 4 5 6 
#
# 1 0.007812 -0.003928 -0.000283 0.000000 0.000000 0.000000
# 2 -0.003928 0.018515 -0.002852 0.000000 0.000000 0.000000
# 3 -0.000283 -0.002852 0.015519 0.000000 0.000000 0.000000
# 4 0.000000 0.000000 0.000000 0.066593 0.000000 0.000000
# 5 0.000000 0.000000 0.000000 0.000000 0.090806 0.000000
# 6 0.000000 0.000000 0.000000 0.000000 0.000000 0.060384
#
#
# Mechanical properties :
#
#
# Convention : Reuss Voigt Hill
#
# Bulk Modulus (GPa) = 36.07429 42.10113 39.08771
# Shear Modulus (GPa) = 17.66826 23.27188 20.47007
#
# Velocity S-wave (km/s) = 2.94976 3.38536 3.17504
# Velocity P-wave (km/s) = 5.41913 6.00120 5.71758
#
# Compressibility (1/GPa) = 0.02772057
#
# Stress axis : x y z
#
# Youngs Moduli (GPa) = 128.01241 54.01150 64.43776
#
# Poissons Ratio (x) = 0.21214 0.01824
# Poissons Ratio (y) = 0.50279 0.18375
# Poissons Ratio (z) = 0.03623 0.15402
#
# Static dielectric constant tensor:
#      x y z
#    x 3.601340 0.000000 0.000000 
#    y 0.000000 3.992930 0.000000 
#    z 0.000000 0.000000 3.531390 
# 
# 
# High freq. dielectric constant tensor:
#      x y z
#    x 1.786290 0.000000 0.000000 
#    y 0.000000 1.798610 0.000000 
#    z 0.000000 0.000000 1.784100 
# 
# From -- ./inp_files/39807.got.cif
#   From: 2010.03.12/outbox.cif.g09.slc.cpg/sg65_20_cif.got.tgz:39807.got - 2010.04.10 20:52:16.
