data_PCOD8269138
_publ_section_title
;
Structure prediction by ZEFSAII (Michael W. Deem and Ramdas Pophale) SiO2 
 PCOD8269138
Probable space group: C M M M
;
_chemical_formula_sum "Si O2"
_cell_formula_units_Z 72
_cell_length_a 8.975979
_cell_length_b 18.192143
_cell_length_c 23.032159
_cell_angle_alpha 90.000000
_cell_angle_beta 90.000000
_cell_angle_gamma 90.000000
_cell_volume 3760.974068
_symmetry_space_group_name_H-M "C M M M"
_symmetry_group_IT_number 65
_symmetry_cell_setting 'orthorhombic'
loop_
_space_group_symop_operation_xyz
x,y,z
-x,-y,z
x,-y,-z
-x,y,-z
-x,-y,-z
x,y,-z
-x,y,z
x,-y,z
1/2+x,1/2+y,z
1/2-x,1/2-y,z
1/2+x,1/2-y,-z
1/2-x,1/2+y,-z
1/2-x,1/2-y,-z
1/2+x,1/2+y,-z
1/2-x,1/2+y,z
1/2+x,1/2-y,z
loop_
_atom_site_type_symbol
_atom_site_label
_atom_site_fract_x
_atom_site_fract_y
_atom_site_fract_z
Si Si1 0.176827 0.082464 0.112081
Si Si2 0.823446 0.171101 0.775750
Si Si3 0.173491 0.584636 0.674176
Si Si4 0.326500 0.824348 0.435243
Si Si5 0.322857 0.329177 0.000000
O O1 0.233011 0.123006 0.169901
O O2 0.000000 0.078562 0.111000
O O3 0.243556 0.000000 0.111059
O O4 0.234749 0.126709 0.056193
O O5 0.750000 0.250000 0.780759
O O6 0.773563 0.131457 0.717328
O O7 0.000000 0.180366 0.775459
O O8 0.218380 0.500000 0.679982
O O9 0.211636 0.609751 0.608664
O O10 0.000000 0.597590 0.688546
O O11 0.270310 0.846191 0.500000
O O12 0.500000 0.807780 0.435982
O O13 0.250000 0.750000 0.412953
O O14 0.250000 0.250000 0.000000
O O15 0.500000 0.320406 0.000000
#
# Coordination Sequence:
#
# PCOD8269138 Si02
#       5
#    16  16  16  16   8
#     4   9  18  33  54  79 104 134 174 216 258 306
#     4  11  22  36  55  78 106 139 176 217 261 312
#     4  10  21  36  54  78 107 138 174 216 262 311
#     4   9  18  33  53  76 102 134 172 213 257 306
#     4  10  19  33  55  79 105 136 172 214 256 304
#
# _framework density 19.143977
#
# number of rings (size 3 to 8) (size 9 to 14) (size 15 to 20)
#    0.000    2.222    0.000    3.000    0.000    5.778 
#    0.000    3.333    0.000    4.000    0.000    4.667 
#    0.000    0.000    0.000    0.000    0.000    0.000 
#
# Total GULP energy -446464.604760 kJ/mol
# GULP energy per Si atom -12401.794577 kJ/mol
# Density = 1.910040 g / cm^3
# Si number density = 19.143977 Si / 1000 Ang^3
#
#
#
# Elastic Constant Matrix: (Units=GPa)
#
#
# Indices 1 2 3 4 5 6 
#
# 1 41.0570 41.6465 35.9424 0.0000 0.0000 0.0000
# 2 41.6465 175.5434 80.2209 0.0000 0.0000 0.0000
# 3 35.9424 80.2209 136.6678 0.0000 0.0000 0.0000
# 4 0.0000 0.0000 0.0000 40.2848 0.0000 0.0000
# 5 0.0000 0.0000 0.0000 0.0000 19.2678 0.0000
# 6 0.0000 0.0000 0.0000 0.0000 0.0000 22.7319
#
#
#
# Elastic Compliance Matrix: (Units=1/GPa)
#
#
# Indices 1 2 3 4 5 6 
#
# 1 0.035314 -0.005649 -0.005971 0.000000 0.000000 0.000000
# 2 -0.005649 0.008689 -0.003614 0.000000 0.000000 0.000000
# 3 -0.005971 -0.003614 0.011009 0.000000 0.000000 0.000000
# 4 0.000000 0.000000 0.000000 0.024823 0.000000 0.000000
# 5 0.000000 0.000000 0.000000 0.000000 0.051900 0.000000
# 6 0.000000 0.000000 0.000000 0.000000 0.000000 0.043991
#
#
# Mechanical properties :
#
#
# Convention : Reuss Voigt Hill
#
# Bulk Modulus (GPa) = 40.74655 74.32086 57.53371
# Shear Modulus (GPa) = 23.32346 29.48746 26.40546
#
# Velocity S-wave (km/s) = 3.49423 3.92892 3.71793
# Velocity P-wave (km/s) = 6.13270 7.71286 6.96772
#
# Compressibility (1/GPa) = 0.02454195
#
# Stress axis : x y z
#
# Youngs Moduli (GPa) = 28.31719 115.09455 90.83553
#
# Poissons Ratio (x) = 0.65020 0.54241
# Poissons Ratio (y) = 0.15997 0.32830
# Poissons Ratio (z) = 0.16909 0.41598
#
# Static dielectric constant tensor:
#      x y z
#    x 3.555300 0.000000 0.000000 
#    y 0.000000 3.667480 0.000000 
#    z 0.000000 0.000000 3.832110 
# 
# 
# High freq. dielectric constant tensor:
#      x y z
#    x 1.716920 0.000000 0.000000 
#    y 0.000000 1.754430 0.000000 
#    z 0.000000 0.000000 1.762030 
# 
# From -- ./inp_files/67078.got.cif
#   From: 2010.03.12/outbox.cif.g09.slc.cpg/sg65_34_cif.got.tgz:67078.got - 2010.04.10 20:52:16.
