data_PCOD8269435
_publ_section_title
;
Structure prediction by ZEFSAII (Michael W. Deem and Ramdas Pophale) SiO2 
 PCOD8269435
Probable space group: C M M M
;
_chemical_formula_sum "Si O2"
_cell_formula_units_Z 88
_cell_length_a 9.079750
_cell_length_b 28.693547
_cell_length_c 17.938430
_cell_angle_alpha 90.000000
_cell_angle_beta 90.000000
_cell_angle_gamma 90.000000
_cell_volume 4673.503354
_symmetry_space_group_name_H-M "C M M M"
_symmetry_group_IT_number 65
_symmetry_cell_setting 'orthorhombic'
loop_
_space_group_symop_operation_xyz
x,y,z
-x,-y,z
x,-y,-z
-x,y,-z
-x,-y,-z
x,y,-z
-x,y,z
x,-y,z
1/2+x,1/2+y,z
1/2-x,1/2-y,z
1/2+x,1/2-y,-z
1/2-x,1/2+y,-z
1/2-x,1/2-y,-z
1/2+x,1/2+y,-z
1/2-x,1/2+y,z
1/2+x,1/2-y,z
loop_
_atom_site_type_symbol
_atom_site_label
_atom_site_fract_x
_atom_site_fract_y
_atom_site_fract_z
Si Si1 0.829683 0.295907 0.809971
Si Si2 0.329968 0.054763 0.294979
Si Si3 0.168669 0.887259 0.415118
Si Si4 0.324108 0.052915 0.000000
Si Si5 0.672130 0.796794 0.363959
Si Si6 0.324802 0.895705 0.146070
O O1 0.750000 0.250000 0.841244
O O2 0.796291 0.304121 0.723237
O O3 0.772407 0.341793 0.853362
O O4 0.000000 0.287717 0.824689
O O5 0.500000 0.069019 0.307809
O O6 0.236181 0.072065 0.364770
O O7 0.266909 0.078214 0.219797
O O8 0.311070 0.000000 0.286514
O O9 0.179638 0.904642 0.500000
O O10 0.259469 0.839817 0.407604
O O11 0.000000 0.878163 0.391633
O O12 0.260807 0.079086 0.927163
O O13 0.500000 0.053791 0.000000
O O14 0.265979 0.000000 0.000000
O O15 0.500000 0.793474 0.381711
O O16 0.750000 0.750000 0.393021
O O17 0.500000 0.898309 0.145805
#
# Coordination Sequence:
#
# PCOD8269435 Si02
#       6
#    16  16  16   8  16  16
#     4   9  17  30  50  76 107 139 174 216 259 309
#     4  10  20  36  58  80 104 138 182 229 276 329
#     4  11  24  39  54  76 108 143 181 227 276 327
#     4   9  16  26  47  80 113 143 175 217 270 319
#     4  10  19  34  56  81 109 142 180 223 271 323
#     4   9  16  30  50  78 112 142 174 218 269 318
#
# _framework density 18.829556
#
# number of rings (size 3 to 8) (size 9 to 14) (size 15 to 20)
#    0.000    2.273    1.818    1.636    0.000    5.455 
#    0.000    2.273    0.000    0.000    0.000    1.909 
#    0.000    4.364    0.000    0.000    0.000    0.000 
#
# Total GULP energy -545659.000055 kJ/mol
# GULP energy per Si atom -12401.340910 kJ/mol
# Density = 1.878670 g / cm^3
# Si number density = 18.829556 Si / 1000 Ang^3
#
#
#
# Elastic Constant Matrix: (Units=GPa)
#
#
# Indices 1 2 3 4 5 6 
#
# 1 62.9941 40.2554 38.2586 0.0000 0.0000 0.0000
# 2 40.2554 137.7201 69.5423 0.0000 0.0000 0.0000
# 3 38.2586 69.5423 110.0784 0.0000 0.0000 0.0000
# 4 0.0000 0.0000 0.0000 28.1319 0.0000 0.0000
# 5 0.0000 0.0000 0.0000 0.0000 11.9979 0.0000
# 6 0.0000 0.0000 0.0000 0.0000 0.0000 31.3162
#
#
#
# Elastic Compliance Matrix: (Units=1/GPa)
#
#
# Indices 1 2 3 4 5 6 
#
# 1 0.021305 -0.003654 -0.005096 0.000000 0.000000 0.000000
# 2 -0.003654 0.011289 -0.005862 0.000000 0.000000 0.000000
# 3 -0.005096 -0.005862 0.014559 0.000000 0.000000 0.000000
# 4 0.000000 0.000000 0.000000 0.035547 0.000000 0.000000
# 5 0.000000 0.000000 0.000000 0.000000 0.083348 0.000000
# 6 0.000000 0.000000 0.000000 0.000000 0.000000 0.031932
#
#
# Mechanical properties :
#
#
# Convention : Reuss Voigt Hill
#
# Bulk Modulus (GPa) = 55.77718 67.43391 61.60554
# Shear Modulus (GPa) = 21.44265 25.13829 23.29047
#
# Velocity S-wave (km/s) = 3.37824 3.65779 3.52079
# Velocity P-wave (km/s) = 6.70098 7.33006 7.02257
#
# Compressibility (1/GPa) = 0.01792848
#
# Stress axis : x y z
#
# Youngs Moduli (GPa) = 46.93822 88.58021 68.68611
#
# Poissons Ratio (x) = 0.32367 0.35004
# Poissons Ratio (y) = 0.17151 0.40264
# Poissons Ratio (z) = 0.23920 0.51926
#
# Static dielectric constant tensor:
#      x y z
#    x 3.275350 0.000000 0.000000 
#    y 0.000000 3.606360 0.000000 
#    z 0.000000 0.000000 3.448220 
# 
# 
# High freq. dielectric constant tensor:
#      x y z
#    x 1.700070 0.000000 0.000000 
#    y 0.000000 1.745790 0.000000 
#    z 0.000000 0.000000 1.720380 
# 
# From -- ./inp_files/50407.got.cif
#   From: 2010.03.12/outbox.cif.g09.slc.cpg/sg65_26_cif.got.tgz:50407.got - 2010.04.10 20:52:16.
