data_PCOD8269070
_publ_section_title
;
Structure prediction by ZEFSAII (Michael W. Deem and Ramdas Pophale) SiO2 
 PCOD8269070
Probable space group: C M M M
;
_chemical_formula_sum "Si O2"
_cell_formula_units_Z 96
_cell_length_a 25.170091
_cell_length_b 23.638395
_cell_length_c 8.861232
_cell_angle_alpha 90.000000
_cell_angle_beta 90.000000
_cell_angle_gamma 90.000000
_cell_volume 5272.260718
_symmetry_space_group_name_H-M "C M M M"
_symmetry_group_IT_number 65
_symmetry_cell_setting 'orthorhombic'
loop_
_space_group_symop_operation_xyz
x,y,z
-x,-y,z
x,-y,-z
-x,y,-z
-x,-y,-z
x,y,-z
-x,y,z
x,-y,z
1/2+x,1/2+y,z
1/2-x,1/2-y,z
1/2+x,1/2-y,-z
1/2-x,1/2+y,-z
1/2-x,1/2-y,-z
1/2+x,1/2+y,-z
1/2-x,1/2+y,z
1/2+x,1/2-y,z
loop_
_atom_site_type_symbol
_atom_site_label
_atom_site_fract_x
_atom_site_fract_y
_atom_site_fract_z
Si Si1 0.312175 0.000000 0.678958
Si Si2 0.437887 0.814586 0.674379
Si Si3 0.350466 0.886521 0.178364
Si Si4 0.059521 0.187074 0.678155
Si Si5 0.650844 0.618897 0.176937
Si Si6 0.751509 0.686914 0.820505
Si Si7 0.196941 0.000000 0.176070
O O1 0.343873 0.946073 0.739856
O O2 0.313339 0.000000 0.500000
O O3 0.251436 0.000000 0.732705
O O4 0.422570 0.823767 0.500000
O O5 0.500000 0.825742 0.699644
O O6 0.406435 0.858858 0.777368
O O7 0.423218 0.750607 0.725874
O O8 0.304039 0.844831 0.236317
O O9 0.347726 0.896211 0.000000
O O10 0.061381 0.182092 0.500000
O O11 0.096899 0.139575 0.748038
O O12 0.000000 0.175051 0.736965
O O13 0.700147 0.654488 0.242495
O O14 0.660961 0.553683 0.218296
O O15 0.645353 0.628119 0.000000
O O16 0.750000 0.750000 0.753076
O O17 0.750727 0.688003 0.000000
O O18 0.212976 0.000000 0.000000
#
# Coordination Sequence:
#
# PCOD8269070 Si02
#       7
#     8  16  16  16  16  16   8
#     4  12  24  38  57  80 111 150 190 225 270 331
#     4   9  19  37  58  81 113 149 182 222 275 331
#     4  11  21  36  58  82 112 145 184 230 274 325
#     4   9  19  36  56  79 112 150 183 222 276 332
#     4  10  19  33  54  78 107 142 184 230 276 326
#     4   9  17  29  49  79 110 137 168 216 276 326
#     4  10  20  38  57  76 107 149 188 227 280 330
#
# _framework density 18.208507000000001
#
# number of rings (size 3 to 8) (size 9 to 14) (size 15 to 20)
#    0.000    2.167    1.667    3.250    0.000    3.333 
#    0.000    2.500    0.000    8.500    0.000    0.000 
#    0.000    0.000    0.000    0.000    0.000    0.000 
#
# Total GULP energy -595270.762441 kJ/mol
# GULP energy per Si atom -12401.474218 kJ/mol
# Density = 1.816706 g / cm^3
# Si number density = 18.208507 Si / 1000 Ang^3
#
#
#
# Elastic Constant Matrix: (Units=GPa)
#
#
# Indices 1 2 3 4 5 6 
#
# 1 109.0191 73.4280 37.4836 0.0000 0.0000 0.0000
# 2 73.4280 163.0630 46.4810 0.0000 0.0000 0.0000
# 3 37.4836 46.4810 57.7974 0.0000 0.0000 0.0000
# 4 0.0000 0.0000 0.0000 23.9715 0.0000 0.0000
# 5 0.0000 0.0000 0.0000 0.0000 31.6435 0.0000
# 6 0.0000 0.0000 0.0000 0.0000 0.0000 26.2049
#
#
#
# Elastic Compliance Matrix: (Units=1/GPa)
#
#
# Indices 1 2 3 4 5 6 
#
# 1 0.014326 -0.004934 -0.005323 0.000000 0.000000 0.000000
# 2 -0.004934 0.009656 -0.004565 0.000000 0.000000 0.000000
# 3 -0.005323 -0.004565 0.024426 0.000000 0.000000 0.000000
# 4 0.000000 0.000000 0.000000 0.041716 0.000000 0.000000
# 5 0.000000 0.000000 0.000000 0.000000 0.031602 0.000000
# 6 0.000000 0.000000 0.000000 0.000000 0.000000 0.038161
#
#
# Mechanical properties :
#
#
# Convention : Reuss Voigt Hill
#
# Bulk Modulus (GPa) = 53.29750 71.62941 62.46345
# Shear Modulus (GPa) = 25.53819 27.86310 26.70065
#
# Velocity S-wave (km/s) = 3.74912 3.91605 3.83349
# Velocity P-wave (km/s) = 6.93364 7.73764 7.34665
#
# Compressibility (1/GPa) = 0.01876261
#
# Stress axis : x y z
#
# Youngs Moduli (GPa) = 69.80343 103.56656 40.94052
#
# Poissons Ratio (x) = 0.51096 0.21793
# Poissons Ratio (y) = 0.34439 0.18691
# Poissons Ratio (z) = 0.37158 0.47283
#
# Static dielectric constant tensor:
#      x y z
#    x 3.405780 0.000000 0.000000 
#    y 0.000000 3.555730 0.000000 
#    z 0.000000 0.000000 3.096860 
# 
# 
# High freq. dielectric constant tensor:
#      x y z
#    x 1.705840 0.000000 0.000000 
#    y 0.000000 1.712790 0.000000 
#    z 0.000000 0.000000 1.685920 
# 
# From -- ./inp_files/14410.got.cif
#   From: 2010.03.12/outbox.cif.g09.slc.cpg/sg65_8_cif.got.tgz:14410.got - 2010.04.10 20:52:16.
