data_PCOD8269377
_publ_section_title
;
Structure prediction by ZEFSAII (Michael W. Deem and Ramdas Pophale) SiO2 
 PCOD8269377
Probable space group: C M M M
;
_chemical_formula_sum "Si O2"
_cell_formula_units_Z 104
_cell_length_a 23.700732
_cell_length_b 8.994354
_cell_length_c 25.437951
_cell_angle_alpha 90.000000
_cell_angle_beta 90.000000
_cell_angle_gamma 90.000000
_cell_volume 5422.678571
_symmetry_space_group_name_H-M "C M M M"
_symmetry_group_IT_number 65
_symmetry_cell_setting 'orthorhombic'
loop_
_space_group_symop_operation_xyz
x,y,z
-x,-y,z
x,-y,-z
-x,y,-z
-x,-y,-z
x,y,-z
-x,y,z
x,-y,z
1/2+x,1/2+y,z
1/2-x,1/2-y,z
1/2+x,1/2-y,-z
1/2-x,1/2+y,-z
1/2-x,1/2-y,-z
1/2+x,1/2+y,-z
1/2-x,1/2+y,z
1/2+x,1/2-y,z
loop_
_atom_site_type_symbol
_atom_site_label
_atom_site_fract_x
_atom_site_fract_y
_atom_site_fract_z
Si Si1 0.388621 0.671511 0.442667
Si Si2 0.112821 0.324699 0.859043
Si Si3 0.000000 0.177343 0.174727
Si Si4 0.190780 0.673982 0.760441
Si Si5 0.000000 0.659432 0.560638
Si Si6 0.000000 0.824893 0.705757
Si Si7 0.307804 0.328453 0.061746
Si Si8 0.377227 0.673525 0.329451
O O1 0.364400 0.730851 0.500000
O O2 0.402075 0.500000 0.449833
O O3 0.445839 0.747281 0.424930
O O4 0.352365 0.697647 0.389504
O O5 0.103994 0.500000 0.865806
O O6 0.149593 0.285960 0.808001
O O7 0.141722 0.258254 0.910609
O O8 0.053671 0.242677 0.854732
O O9 0.000000 0.235250 0.234698
O O10 0.000000 0.000000 0.171002
O O11 0.200765 0.500000 0.754360
O O12 0.250000 0.750000 0.772263
O O13 0.164278 0.733853 0.706736
O O14 0.000000 0.500000 0.590686
O O15 0.000000 0.624801 0.500000
O O16 0.057557 0.769039 0.677092
O O17 0.000000 0.000000 0.705925
O O18 0.305456 0.500000 0.079841
O O19 0.250000 0.250000 0.078903
O O20 0.318166 0.314638 0.000000
O O21 0.374023 0.500000 0.313913
#
# Coordination Sequence:
#
# PCOD8269377 Si02
#       8
#    16  16   8  16   8   8  16  16
#     4   9  17  29  47  71 100 136 176 219 269 329
#     4  11  23  39  60  88 120 154 193 237 285 339
#     4  11  21  36  59  84 117 157 194 235 282 340
#     4  11  24  39  57  82 111 143 183 231 283 334
#     4   9  16  25  39  63  96 132 169 210 256 307
#     4   9  17  30  51  79 108 146 185 220 269 330
#     4  10  21  38  62  92 124 159 200 244 288 334
#     4  10  19  34  55  79 109 143 183 226 274 335
#
# _framework density 19.178712999999998
#
# number of rings (size 3 to 8) (size 9 to 14) (size 15 to 20)
#    0.000    1.923    1.538    2.769    0.000    6.769 
#    0.000    0.769    0.000    2.769    0.000    0.000 
#    0.000    0.000    0.000    0.000    0.000    0.000 
#
# Total GULP energy -644425.250055 kJ/mol
# GULP energy per Si atom -12392.793270 kJ/mol
# Density = 1.913506 g / cm^3
# Si number density = 19.178713 Si / 1000 Ang^3
#
#
#
# Elastic Constant Matrix: (Units=GPa)
#
#
# Indices 1 2 3 4 5 6 
#
# 1 110.4432 49.8928 46.7377 0.0000 0.0000 0.0000
# 2 49.8928 77.1741 47.2128 0.0000 0.0000 0.0000
# 3 46.7377 47.2128 90.5980 0.0000 0.0000 0.0000
# 4 0.0000 0.0000 0.0000 24.4903 0.0000 0.0000
# 5 0.0000 0.0000 0.0000 0.0000 1.3664 0.0000
# 6 0.0000 0.0000 0.0000 0.0000 0.0000 36.4061
#
#
#
# Elastic Compliance Matrix: (Units=1/GPa)
#
#
# Indices 1 2 3 4 5 6 
#
# 1 0.013527 -0.006571 -0.003554 0.000000 0.000000 0.000000
# 2 -0.006571 0.022214 -0.008186 0.000000 0.000000 0.000000
# 3 -0.003554 -0.008186 0.017137 0.000000 0.000000 0.000000
# 4 0.000000 0.000000 0.000000 0.040833 0.000000 0.000000
# 5 0.000000 0.000000 0.000000 0.000000 0.731826 0.000000
# 6 0.000000 0.000000 0.000000 0.000000 0.000000 0.027468
#
#
# Mechanical properties :
#
#
# Convention : Reuss Voigt Hill
#
# Bulk Modulus (GPa) = 61.51739 62.87798 62.19768
# Shear Modulus (GPa) = 5.58631 21.41069 13.49850
#
# Velocity S-wave (km/s) = 1.70853 3.34485 2.65585
# Velocity P-wave (km/s) = 6.00313 6.91186 6.47346
#
# Compressibility (1/GPa) = 0.01625557
#
# Stress axis : x y z
#
# Youngs Moduli (GPa) = 73.92746 45.01679 58.35195
#
# Poissons Ratio (x) = 0.29580 0.20738
# Poissons Ratio (y) = 0.48576 0.47770
# Poissons Ratio (z) = 0.26274 0.36853
#
# Static dielectric constant tensor:
#      x y z
#    x 2.469310 0.000000 0.000000 
#    y 0.000000 3.574840 0.000000 
#    z 0.000000 0.000000 3.708850 
# 
# 
# High freq. dielectric constant tensor:
#      x y z
#    x 1.718290 0.000000 0.000000 
#    y 0.000000 1.747330 0.000000 
#    z 0.000000 0.000000 1.759570 
# 
# From -- ./inp_files/71908.got.cif
#   From: 2010.03.12/outbox.cif.g09.slc.cpg/sg65_36_cif.got.tgz:71908.got - 2010.04.10 20:52:16.
