data_PCOD8269433
_publ_section_title
;
Structure prediction by ZEFSAII (Michael W. Deem and Ramdas Pophale) SiO2 
 PCOD8269433
Probable space group: C M M M
;
_chemical_formula_sum "Si O2"
_cell_formula_units_Z 104
_cell_length_a 25.430372
_cell_length_b 25.368090
_cell_length_c 9.195018
_cell_angle_alpha 90.000000
_cell_angle_beta 90.000000
_cell_angle_gamma 90.000000
_cell_volume 5931.889696
_symmetry_space_group_name_H-M "C M M M"
_symmetry_group_IT_number 65
_symmetry_cell_setting 'orthorhombic'
loop_
_space_group_symop_operation_xyz
x,y,z
-x,-y,z
x,-y,-z
-x,y,-z
-x,-y,-z
x,y,-z
-x,y,z
x,-y,z
1/2+x,1/2+y,z
1/2-x,1/2-y,z
1/2+x,1/2-y,-z
1/2-x,1/2+y,-z
1/2-x,1/2-y,-z
1/2+x,1/2+y,-z
1/2-x,1/2+y,z
1/2+x,1/2-y,z
loop_
_atom_site_type_symbol
_atom_site_label
_atom_site_fract_x
_atom_site_fract_y
_atom_site_fract_z
Si Si1 0.057833 0.937938 0.840528
Si Si2 0.720600 0.500000 0.327774
Si Si3 0.396642 0.897873 0.169903
Si Si4 0.301508 0.690555 0.171710
Si Si5 0.151777 0.096518 0.669741
Si Si6 0.000000 0.437652 0.326291
Si Si7 0.816630 0.308847 0.829089
Si Si8 0.827121 0.500000 0.836174
O O1 0.092528 0.918682 0.706732
O O2 0.000000 0.913327 0.819073
O O3 0.054086 0.000000 0.834315
O O4 0.080130 0.920680 0.000000
O O5 0.719272 0.500000 0.500000
O O6 0.690986 0.448227 0.268466
O O7 0.779752 0.500000 0.275266
O O8 0.449525 0.906859 0.262238
O O9 0.362707 0.847611 0.231811
O O10 0.361378 0.948905 0.193890
O O11 0.411599 0.890494 0.000000
O O12 0.339563 0.650876 0.249888
O O13 0.242222 0.678946 0.230008
O O14 0.325502 0.747825 0.212085
O O15 0.302346 0.683101 0.000000
O O16 0.158813 0.104434 0.500000
O O17 0.000000 0.500000 0.281091
O O18 0.000000 0.432289 0.500000
O O19 0.816263 0.317667 0.000000
O O20 0.804798 0.500000 0.000000
#
# Coordination Sequence:
#
# PCOD8269433 Si02
#       8
#    16   8  16  16  16   8  16   8
#     4   9  18  33  53  75  96 124 167 214 255 298
#     4  10  22  34  44  68 110 147 171 199 250 313
#     4  10  19  34  56  81 106 134 174 222 268 312
#     4   9  17  33  56  79 105 137 174 217 261 310
#     4  11  21  33  48  73 107 142 172 206 254 311
#     4  11  23  37  53  77 109 147 185 216 263 322
#     4   8  16  32  56  82 105 133 172 218 267 312
#     4  10  20  31  51  81 106 130 168 212 256 307
#
# _framework density 17.532356
#
# number of rings (size 3 to 8) (size 9 to 14) (size 15 to 20)
#    0.000    2.385    1.538    3.000    0.000    3.692 
#    0.000    3.846    1.692    0.000    0.000    0.000 
#    0.000    0.000    0.000    0.000    0.000    0.000 
#
# Total GULP energy -644458.499528 kJ/mol
# GULP energy per Si atom -12393.432683 kJ/mol
# Density = 1.749245 g / cm^3
# Si number density = 17.532356 Si / 1000 Ang^3
#
#
#
# Elastic Constant Matrix: (Units=GPa)
#
#
# Indices 1 2 3 4 5 6 
#
# 1 107.8353 56.9724 32.6634 0.0000 0.0000 0.0000
# 2 56.9724 108.1418 34.1027 0.0000 0.0000 0.0000
# 3 32.6634 34.1027 35.6281 0.0000 0.0000 0.0000
# 4 0.0000 0.0000 0.0000 7.8475 0.0000 0.0000
# 5 0.0000 0.0000 0.0000 0.0000 26.4885 0.0000
# 6 0.0000 0.0000 0.0000 0.0000 0.0000 42.0111
#
#
#
# Elastic Compliance Matrix: (Units=1/GPa)
#
#
# Indices 1 2 3 4 5 6 
#
# 1 0.014464 -0.004925 -0.008546 0.000000 0.000000 0.000000
# 2 -0.004925 0.014922 -0.009768 0.000000 0.000000 0.000000
# 3 -0.008546 -0.009768 0.045253 0.000000 0.000000 0.000000
# 4 0.000000 0.000000 0.000000 0.127428 0.000000 0.000000
# 5 0.000000 0.000000 0.000000 0.000000 0.037752 0.000000
# 6 0.000000 0.000000 0.000000 0.000000 0.000000 0.023803
#
#
# Mechanical properties :
#
#
# Convention : Reuss Voigt Hill
#
# Bulk Modulus (GPa) = 35.51121 55.45358 45.48239
# Shear Modulus (GPa) = 15.65002 23.79388 19.72195
#
# Velocity S-wave (km/s) = 2.99094 3.68794 3.35757
# Velocity P-wave (km/s) = 5.67682 7.05921 6.40542
#
# Compressibility (1/GPa) = 0.02816012
#
# Stress axis : x y z
#
# Youngs Moduli (GPa) = 69.13649 67.01457 22.09812
#
# Poissons Ratio (x) = 0.33005 0.18886
# Poissons Ratio (y) = 0.34050 0.21585
# Poissons Ratio (z) = 0.59087 0.65460
#
# Static dielectric constant tensor:
#      x y z
#    x 3.458650 0.000000 0.000000 
#    y 0.000000 3.397050 0.000000 
#    z 0.000000 0.000000 3.055580 
# 
# 
# High freq. dielectric constant tensor:
#      x y z
#    x 1.676610 0.000000 0.000000 
#    y 0.000000 1.673730 0.000000 
#    z 0.000000 0.000000 1.657200 
# 
# From -- ./inp_files/14849.got.cif
#   From: 2010.03.12/outbox.cif.g09.slc.cpg/sg65_8_cif.got.tgz:14849.got - 2010.04.10 20:52:16.
