data_PCOD8269053
_publ_section_title
;
Structure prediction by ZEFSAII (Michael W. Deem and Ramdas Pophale) SiO2 
 PCOD8269053
Probable space group: C M M M
;
_chemical_formula_sum "Si O2"
_cell_formula_units_Z 64
_cell_length_a 18.075917
_cell_length_b 9.192166
_cell_length_c 20.749694
_cell_angle_alpha 90.000000
_cell_angle_beta 90.000000
_cell_angle_gamma 90.000000
_cell_volume 3447.703372
_symmetry_space_group_name_H-M "C M M M"
_symmetry_group_IT_number 65
_symmetry_cell_setting 'orthorhombic'
loop_
_space_group_symop_operation_xyz
x,y,z
-x,-y,z
x,-y,-z
-x,y,-z
-x,-y,-z
x,y,-z
-x,y,z
x,-y,z
1/2+x,1/2+y,z
1/2-x,1/2-y,z
1/2+x,1/2-y,-z
1/2-x,1/2+y,-z
1/2-x,1/2-y,-z
1/2+x,1/2+y,-z
1/2-x,1/2+y,z
1/2+x,1/2-y,z
loop_
_atom_site_type_symbol
_atom_site_label
_atom_site_fract_x
_atom_site_fract_y
_atom_site_fract_z
Si Si1 0.172369 0.828753 0.123835
Si Si2 0.175664 0.334813 0.500000
Si Si3 0.082929 0.172933 0.000000
Si Si4 0.828704 0.670719 0.639898
Si Si5 0.085872 0.832570 0.747761
O O1 0.250000 0.750000 0.124888
O O2 0.125564 0.770792 0.063145
O O3 0.128511 0.786252 0.188003
O O4 0.185906 0.000000 0.118828
O O5 0.200660 0.500000 0.500000
O O6 0.250000 0.250000 0.500000
O O7 0.135035 0.300906 0.568165
O O8 0.000000 0.237917 0.000000
O O9 0.078757 0.000000 0.000000
O O10 0.816542 0.500000 0.652967
O O11 0.750000 0.750000 0.648222
O O12 0.887735 0.732602 0.689452
O O13 0.000000 0.804213 0.760351
O O14 0.101482 0.000000 0.730084
#
# Coordination Sequence:
#
# PCOD8269053 Si02
#       5
#    16   8   8  16  16
#     4  10  20  34  54  78 103 133 170 212 254 299
#     4   8  16  30  49  74 101 129 165 209 253 300
#     4   9  17  32  55  79 102 133 172 208 246 297
#     4  10  19  33  54  78 103 133 170 211 256 306
#     4  10  21  36  52  73 103 137 173 214 259 306
#
# _framework density 18.563081
#
# number of rings (size 3 to 8) (size 9 to 14) (size 15 to 20)
#    0.000    2.375    0.000    2.625    0.000    7.500 
#    0.000    0.625    0.000    6.750    0.000    0.000 
#    0.000    0.000    0.000    0.000    0.000    0.000 
#
# Total GULP energy -396648.460762 kJ/mol
# GULP energy per Si atom -12395.264399 kJ/mol
# Density = 1.852083 g / cm^3
# Si number density = 18.563081 Si / 1000 Ang^3
#
#
#
# Elastic Constant Matrix: (Units=GPa)
#
#
# Indices 1 2 3 4 5 6 
#
# 1 132.3819 45.9460 83.0654 0.0000 0.0000 0.0000
# 2 45.9460 58.0378 61.4883 0.0000 0.0000 0.0000
# 3 83.0654 61.4883 184.1483 0.0000 0.0000 0.0000
# 4 0.0000 0.0000 0.0000 16.3835 0.0000 0.0000
# 5 0.0000 0.0000 0.0000 0.0000 10.5897 0.0000
# 6 0.0000 0.0000 0.0000 0.0000 0.0000 30.2798
#
#
#
# Elastic Compliance Matrix: (Units=1/GPa)
#
#
# Indices 1 2 3 4 5 6 
#
# 1 0.011618 -0.005641 -0.003357 0.000000 0.000000 0.000000
# 2 -0.005641 0.029401 -0.007273 0.000000 0.000000 0.000000
# 3 -0.003357 -0.007273 0.009373 0.000000 0.000000 0.000000
# 4 0.000000 0.000000 0.000000 0.061037 0.000000 0.000000
# 5 0.000000 0.000000 0.000000 0.000000 0.094432 0.000000
# 6 0.000000 0.000000 0.000000 0.000000 0.000000 0.033025
#
#
# Mechanical properties :
#
#
# Convention : Reuss Voigt Hill
#
# Bulk Modulus (GPa) = 56.02004 83.95196 69.98600
# Shear Modulus (GPa) = 18.02596 23.72181 20.87388
#
# Velocity S-wave (km/s) = 3.11957 3.57865 3.35697
# Velocity P-wave (km/s) = 6.57414 7.89931 7.26700
#
# Compressibility (1/GPa) = 0.01785076
#
# Stress axis : x y z
#
# Youngs Moduli (GPa) = 86.07166 34.01273 106.68754
#
# Poissons Ratio (x) = 0.19186 0.35817
# Poissons Ratio (y) = 0.48551 0.77590
# Poissons Ratio (z) = 0.28896 0.24736
#
# Static dielectric constant tensor:
#      x y z
#    x 3.222980 0.000000 0.000000 
#    y 0.000000 3.279710 0.000000 
#    z 0.000000 0.000000 4.099570 
# 
# 
# High freq. dielectric constant tensor:
#      x y z
#    x 1.705160 0.000000 0.000000 
#    y 0.000000 1.706550 0.000000 
#    z 0.000000 0.000000 1.745990 
# 
# From -- ./inp_files/58780.got.cif
#   From: 2010.03.12/outbox.cif.g09.slc.cpg/sg65_30_cif.got.tgz:58780.got - 2010.04.10 20:52:16.
