data_PCOD8269527
_publ_section_title
;
Structure prediction by ZEFSAII (Michael W. Deem and Ramdas Pophale) SiO2 
 PCOD8269527
Probable space group: C M M M
;
_chemical_formula_sum "Si O2"
_cell_formula_units_Z 72
_cell_length_a 19.002383
_cell_length_b 22.661743
_cell_length_c 9.063328
_cell_angle_alpha 90.000000
_cell_angle_beta 90.000000
_cell_angle_gamma 90.000000
_cell_volume 3902.914834
_symmetry_space_group_name_H-M "C M M M"
_symmetry_group_IT_number 65
_symmetry_cell_setting 'orthorhombic'
loop_
_space_group_symop_operation_xyz
x,y,z
-x,-y,z
x,-y,-z
-x,y,-z
-x,-y,-z
x,y,-z
-x,y,z
x,-y,z
1/2+x,1/2+y,z
1/2-x,1/2-y,z
1/2+x,1/2-y,-z
1/2-x,1/2+y,-z
1/2-x,1/2-y,-z
1/2+x,1/2+y,-z
1/2-x,1/2+y,z
1/2+x,1/2-y,z
loop_
_atom_site_type_symbol
_atom_site_label
_atom_site_fract_x
_atom_site_fract_y
_atom_site_fract_z
Si Si1 0.918456 0.335266 0.827255
Si Si2 0.078885 0.000000 0.323739
Si Si3 0.330571 0.736195 0.671735
Si Si4 0.169977 0.431605 0.672811
Si Si5 0.676825 0.603353 0.674519
O O1 0.880296 0.277515 0.766346
O O2 0.889862 0.394787 0.754104
O O3 0.000000 0.329697 0.787522
O O4 0.904927 0.339148 0.000000
O O5 0.119075 0.942155 0.262921
O O6 0.077460 0.000000 0.500000
O O7 0.000000 0.000000 0.259487
O O8 0.346800 0.746876 0.500000
O O9 0.250000 0.750000 0.707309
O O10 0.346182 0.669021 0.720080
O O11 0.165588 0.417331 0.500000
O O12 0.156452 0.500000 0.705725
O O13 0.246071 0.412588 0.737161
O O14 0.681281 0.596891 0.500000
#
# Coordination Sequence:
#
# PCOD8269527 Si02
#       5
#    16   8  16  16  16
#     4  11  25  41  55  78 116 154 187 232 286 338
#     4   9  16  26  44  76 116 147 170 208 271 335
#     4  10  19  34  59  86 110 141 185 235 281 329
#     4  10  19  35  61  86 110 144 187 236 284 333
#     4   9  16  29  51  81 113 142 176 223 274 325
#
# _framework density 18.447751
#
# number of rings (size 3 to 8) (size 9 to 14) (size 15 to 20)
#    0.000    2.111    3.333    0.667    0.000    4.000 
#    0.000    4.444    0.000    0.000    0.000    0.000 
#    0.000    3.556    0.000    0.000    0.000    0.000 
#
# Total GULP energy -446441.749859 kJ/mol
# GULP energy per Si atom -12401.159718 kJ/mol
# Density = 1.840576 g / cm^3
# Si number density = 18.447751 Si / 1000 Ang^3
#
#
#
# Elastic Constant Matrix: (Units=GPa)
#
#
# Indices 1 2 3 4 5 6 
#
# 1 128.3160 90.8948 57.1902 0.0000 0.0000 0.0000
# 2 90.8948 163.5689 49.1202 0.0000 0.0000 0.0000
# 3 57.1902 49.1202 48.8570 0.0000 0.0000 0.0000
# 4 0.0000 0.0000 0.0000 4.7374 0.0000 0.0000
# 5 0.0000 0.0000 0.0000 0.0000 20.4354 0.0000
# 6 0.0000 0.0000 0.0000 0.0000 0.0000 31.1354
#
#
#
# Elastic Compliance Matrix: (Units=1/GPa)
#
#
# Indices 1 2 3 4 5 6 
#
# 1 0.019378 -0.005668 -0.016985 0.000000 0.000000 0.000000
# 2 -0.005668 0.010416 -0.003837 0.000000 0.000000 0.000000
# 3 -0.016985 -0.003837 0.044208 0.000000 0.000000 0.000000
# 4 0.000000 0.000000 0.000000 0.211087 0.000000 0.000000
# 5 0.000000 0.000000 0.000000 0.000000 0.048935 0.000000
# 6 0.000000 0.000000 0.000000 0.000000 0.000000 0.032118
#
#
# Mechanical properties :
#
#
# Convention : Reuss Voigt Hill
#
# Bulk Modulus (GPa) = 47.57027 81.68358 64.62693
# Shear Modulus (GPa) = 11.73353 20.83077 16.28215
#
# Velocity S-wave (km/s) = 2.52472 3.36397 2.97410
# Velocity P-wave (km/s) = 5.86016 7.71122 6.84851
#
# Compressibility (1/GPa) = 0.02102153
#
# Stress axis : x y z
#
# Youngs Moduli (GPa) = 51.60359 96.01066 22.62029
#
# Poissons Ratio (x) = 0.54417 0.38421
# Poissons Ratio (y) = 0.29248 0.08680
# Poissons Ratio (z) = 0.87651 0.36840
#
# Static dielectric constant tensor:
#      x y z
#    x 3.484150 0.000000 0.000000 
#    y 0.000000 3.657200 0.000000 
#    z 0.000000 0.000000 2.982470 
# 
# 
# High freq. dielectric constant tensor:
#      x y z
#    x 1.717690 0.000000 0.000000 
#    y 0.000000 1.736440 0.000000 
#    z 0.000000 0.000000 1.670690 
# 
# From -- ./inp_files/9200.got.cif
#   From: 2010.03.12/outbox.cif.g09.slc.cpg/sg65_5_cif.got.tgz:9200.got - 2010.04.10 20:52:16.
