data_PCOD8269269
_publ_section_title
;
Structure prediction by ZEFSAII (Michael W. Deem and Ramdas Pophale) SiO2 
 PCOD8269269
Probable space group: C M M M
;
_chemical_formula_sum "Si O2"
_cell_formula_units_Z 120
_cell_length_a 18.147553
_cell_length_b 20.500265
_cell_length_c 18.860721
_cell_angle_alpha 90.000000
_cell_angle_beta 90.000000
_cell_angle_gamma 90.000000
_cell_volume 7016.747349
_symmetry_space_group_name_H-M "C M M M"
_symmetry_group_IT_number 65
_symmetry_cell_setting 'orthorhombic'
loop_
_space_group_symop_operation_xyz
x,y,z
-x,-y,z
x,-y,-z
-x,y,-z
-x,-y,-z
x,y,-z
-x,y,z
x,-y,z
1/2+x,1/2+y,z
1/2-x,1/2-y,z
1/2+x,1/2-y,-z
1/2-x,1/2+y,-z
1/2-x,1/2-y,-z
1/2+x,1/2+y,-z
1/2-x,1/2+y,z
1/2+x,1/2-y,z
loop_
_atom_site_type_symbol
_atom_site_label
_atom_site_fract_x
_atom_site_fract_y
_atom_site_fract_z
Si Si1 0.083197 0.000000 0.583236
Si Si2 0.915864 0.799013 0.176157
Si Si3 0.178347 0.112748 0.647497
Si Si4 0.304848 0.073729 0.080793
Si Si5 0.176208 0.925097 0.806965
Si Si6 0.416485 0.185339 0.917753
Si Si7 0.914404 0.761090 0.333728
Si Si8 0.697738 0.187739 0.580386
O O1 0.129921 0.060834 0.607454
O O2 0.075618 0.000000 0.500000
O O3 0.000000 0.000000 0.616574
O O4 0.884295 0.871848 0.172134
O O5 0.880847 0.749514 0.118785
O O6 0.904621 0.760281 0.249396
O O7 0.000000 0.810895 0.158107
O O8 0.200195 0.090191 0.726618
O O9 0.125191 0.174245 0.639905
O O10 0.256228 0.125598 0.608660
O O11 0.241438 0.085669 0.137694
O O12 0.371478 0.120823 0.101944
O O13 0.334644 0.000000 0.086302
O O14 0.276751 0.087623 0.000000
O O15 0.146345 0.000000 0.812010
O O16 0.500000 0.173871 0.890720
O O17 0.414141 0.200052 0.000000
O O18 0.874028 0.699039 0.369971
O O19 0.000000 0.761038 0.356294
O O20 0.671537 0.174583 0.500000
O O21 0.750000 0.250000 0.584862
#
# Coordination Sequence:
#
# PCOD8269269 Si02
#       8
#     8  16  16  16  16  16  16  16
#     4  11  22  34  52  78 106 136 170 213 262 308
#     4   9  19  33  49  73 102 133 171 215 258 304
#     4  10  19  34  50  73 104 136 172 210 255 313
#     4   9  19  34  52  77 108 135 169 215 257 304
#     4  10  20  34  51  73  98 138 177 212 257 305
#     4   9  18  33  53  77 105 136 168 208 260 313
#     4   9  18  32  50  73 100 132 168 212 259 302
#     4   9  18  31  48  70  98 131 165 204 253 311
#
# _framework density 17.101939999999999
#
# number of rings (size 3 to 8) (size 9 to 14) (size 15 to 20)
#    0.000    2.600    0.667    0.800    1.867    2.933 
#    0.000    2.667    0.000    0.000    0.000    4.200 
#    0.000    1.600    0.000    0.000    0.000    0.000 
#
# Total GULP energy -743591.490989 kJ/mol
# GULP energy per Si atom -12393.191516 kJ/mol
# Density = 1.706302 g / cm^3
# Si number density = 17.101940 Si / 1000 Ang^3
#
#
#
# Elastic Constant Matrix: (Units=GPa)
#
#
# Indices 1 2 3 4 5 6 
#
# 1 92.5795 60.6683 55.1831 0.0000 0.0000 0.0000
# 2 60.6683 106.5565 58.3564 0.0000 0.0000 0.0000
# 3 55.1831 58.3564 78.6802 0.0000 0.0000 0.0000
# 4 0.0000 0.0000 0.0000 -20.4588 0.0000 0.0000
# 5 0.0000 0.0000 0.0000 0.0000 26.6347 0.0000
# 6 0.0000 0.0000 0.0000 0.0000 0.0000 24.2250
#
#
#
# Elastic Compliance Matrix: (Units=1/GPa)
#
#
# Indices 1 2 3 4 5 6 
#
# 1 0.020956 -0.006538 -0.009849 0.000000 0.000000 0.000000
# 2 -0.006538 0.017844 -0.008649 0.000000 0.000000 0.000000
# 3 -0.009849 -0.008649 0.026032 0.000000 0.000000 0.000000
# 4 0.000000 0.000000 0.000000 -0.048879 0.000000 0.000000
# 5 0.000000 0.000000 0.000000 0.000000 0.037545 0.000000
# 6 0.000000 0.000000 0.000000 0.000000 0.000000 0.041280
#
#
# Mechanical properties :
#
#
# Convention : Reuss Voigt Hill
#
# Bulk Modulus (GPa) = 67.74774 69.58132 68.66453
# Shear Modulus (GPa) = 33.38436 12.98741 23.18589
#
# Velocity S-wave (km/s) = 4.42303 2.75873 3.68604
# Velocity P-wave (km/s) = 8.11075 7.13597 7.63892
#
# Compressibility (1/GPa) = 0.01476064
#
# Stress axis : x y z
#
# Youngs Moduli (GPa) = 47.71825 56.04174 38.41360
#
# Poissons Ratio (x) = 0.36639 0.37833
# Poissons Ratio (y) = 0.31197 0.33225
# Poissons Ratio (z) = 0.46997 0.48472
#
# Static dielectric constant tensor:
#      x y z
#    x 3.248230 0.000000 0.000000 
#    y 0.000000 3.405690 0.000000 
#    z 0.000000 0.000000 3.336430 
# 
# 
# High freq. dielectric constant tensor:
#      x y z
#    x 1.646520 0.000000 0.000000 
#    y 0.000000 1.654350 0.000000 
#    z 0.000000 0.000000 1.668450 
# 
# From -- ./inp_files/54994.got.cif
#   From: 2010.03.12/outbox.cif.g09.slc.cpg/sg65_28_cif.got.tgz:54994.got - 2010.04.10 20:52:16.
