data_PCOD8269212
_publ_section_title
;
Structure prediction by ZEFSAII (Michael W. Deem and Ramdas Pophale) SiO2 
 PCOD8269212
Probable space group: C M M M
;
_chemical_formula_sum "Si O2"
_cell_formula_units_Z 104
_cell_length_a 15.547349
_cell_length_b 21.609283
_cell_length_c 15.277420
_cell_angle_alpha 90.000000
_cell_angle_beta 90.000000
_cell_angle_gamma 90.000000
_cell_volume 5132.709950
_symmetry_space_group_name_H-M "C M M M"
_symmetry_group_IT_number 65
_symmetry_cell_setting 'orthorhombic'
loop_
_space_group_symop_operation_xyz
x,y,z
-x,-y,z
x,-y,-z
-x,y,-z
-x,-y,-z
x,y,-z
-x,y,z
x,-y,z
1/2+x,1/2+y,z
1/2-x,1/2-y,z
1/2+x,1/2-y,-z
1/2-x,1/2+y,-z
1/2-x,1/2-y,-z
1/2+x,1/2+y,-z
1/2-x,1/2+y,z
1/2+x,1/2-y,z
loop_
_atom_site_type_symbol
_atom_site_label
_atom_site_fract_x
_atom_site_fract_y
_atom_site_fract_z
Si Si1 0.250000 0.250000 0.320715
Si Si2 0.600079 0.000000 0.784691
Si Si3 0.400466 0.762691 0.814296
Si Si4 0.177952 0.500000 0.598564
Si Si5 0.790248 0.876712 0.401857
Si Si6 0.397738 0.110905 0.901268
Si Si7 0.101773 0.068941 0.260257
Si Si8 0.900744 0.136748 0.905688
O O1 0.338077 0.251975 0.266187
O O2 0.256742 0.187825 0.379153
O O3 0.639792 0.940220 0.833961
O O4 0.500000 0.000000 0.802670
O O5 0.612241 0.000000 0.679763
O O6 0.500000 0.768443 0.781315
O O7 0.366853 0.823685 0.863203
O O8 0.391497 0.708838 0.885032
O O9 0.135524 0.500000 0.500000
O O10 0.230059 0.563515 0.609192
O O11 0.825668 0.872685 0.500000
O O12 0.871596 0.886491 0.339096
O O13 0.500000 0.109045 0.904590
O O14 0.361607 0.100899 0.000000
O O15 0.142534 0.094952 0.169881
O O16 0.000000 0.070012 0.255887
O O17 0.137990 0.000000 0.274998
O O18 0.000000 0.118185 0.911482
O O19 0.856528 0.123502 0.000000
#
# Coordination Sequence:
#
# PCOD8269212 Si02
#       8
#     8   8  16   8  16  16  16  16
#     4  12  23  38  63  88 118 154 199 252 301 364
#     4  10  19  33  56  82 106 138 184 238 290 337
#     4  10  20  35  57  83 115 157 198 239 289 346
#     4  10  22  40  60  78 106 147 187 231 296 361
#     4  11  23  40  60  83 114 153 191 238 302 363
#     4   9  17  31  53  81 113 149 187 229 281 341
#     4  10  20  36  61  90 118 152 197 245 293 353
#     4   9  17  32  55  83 118 157 192 232 287 349
#
# _framework density 20.2622
#
# number of rings (size 3 to 8) (size 9 to 14) (size 15 to 20)
#    0.000    2.000    2.308    1.846    0.000    3.538 
#    0.000    3.846    0.000    3.231    0.000    0.000 
#    0.000    0.000    0.000    0.000    0.000    0.000 
#
# Total GULP energy -644479.641578 kJ/mol
# GULP energy per Si atom -12393.839261 kJ/mol
# Density = 2.021608 g / cm^3
# Si number density = 20.262200 Si / 1000 Ang^3
#
#
#
# Elastic Constant Matrix: (Units=GPa)
#
#
# Indices 1 2 3 4 5 6 
#
# 1 31.4844 24.7261 30.1456 0.0000 0.0000 0.0000
# 2 24.7261 125.1383 58.6172 0.0000 0.0000 0.0000
# 3 30.1456 58.6172 169.4340 0.0000 0.0000 0.0000
# 4 0.0000 0.0000 0.0000 27.9728 0.0000 0.0000
# 5 0.0000 0.0000 0.0000 0.0000 19.6062 0.0000
# 6 0.0000 0.0000 0.0000 0.0000 0.0000 19.1008
#
#
#
# Elastic Compliance Matrix: (Units=1/GPa)
#
#
# Indices 1 2 3 4 5 6 
#
# 1 0.041371 -0.005641 -0.005409 0.000000 0.000000 0.000000
# 2 -0.005641 0.010306 -0.002562 0.000000 0.000000 0.000000
# 3 -0.005409 -0.002562 0.007751 0.000000 0.000000 0.000000
# 4 0.000000 0.000000 0.000000 0.035749 0.000000 0.000000
# 5 0.000000 0.000000 0.000000 0.000000 0.051004 0.000000
# 6 0.000000 0.000000 0.000000 0.000000 0.000000 0.052354
#
#
# Mechanical properties :
#
#
# Convention : Reuss Voigt Hill
#
# Bulk Modulus (GPa) = 31.05219 61.44830 46.25025
# Shear Modulus (GPa) = 21.14235 27.50715 24.32475
#
# Velocity S-wave (km/s) = 3.23373 3.68851 3.46858
# Velocity P-wave (km/s) = 5.41305 6.96653 6.23834
#
# Compressibility (1/GPa) = 0.03220385
#
# Stress axis : x y z
#
# Youngs Moduli (GPa) = 24.17161 97.03386 129.02106
#
# Poissons Ratio (x) = 0.54734 0.69790
# Poissons Ratio (y) = 0.13634 0.33052
# Poissons Ratio (z) = 0.13075 0.24858
#
# Static dielectric constant tensor:
#      x y z
#    x 3.204420 0.000000 0.000000 
#    y 0.000000 4.060090 0.000000 
#    z 0.000000 0.000000 3.969980 
# 
# 
# High freq. dielectric constant tensor:
#      x y z
#    x 1.750480 0.000000 0.000000 
#    y 0.000000 1.810650 0.000000 
#    z 0.000000 0.000000 1.798690 
# 
# From -- ./inp_files/42906.got.cif
#   From: 2010.03.12/outbox.cif.g09.slc.cpg/sg65_22_cif.got.tgz:42906.got - 2010.04.10 20:52:16.
