data_PCOD8269489
_publ_section_title
;
Structure prediction by ZEFSAII (Michael W. Deem and Ramdas Pophale) SiO2 
 PCOD8269489
Probable space group: C M M M
;
_chemical_formula_sum "Si O2"
_cell_formula_units_Z 64
_cell_length_a 8.708505
_cell_length_b 17.745613
_cell_length_c 20.645996
_cell_angle_alpha 90.000000
_cell_angle_beta 90.000000
_cell_angle_gamma 90.000000
_cell_volume 3190.585965
_symmetry_space_group_name_H-M "C M M M"
_symmetry_group_IT_number 65
_symmetry_cell_setting 'orthorhombic'
loop_
_space_group_symop_operation_xyz
x,y,z
-x,-y,z
x,-y,-z
-x,y,-z
-x,-y,-z
x,y,-z
-x,y,z
x,-y,z
1/2+x,1/2+y,z
1/2-x,1/2-y,z
1/2+x,1/2-y,-z
1/2-x,1/2+y,-z
1/2-x,1/2-y,-z
1/2+x,1/2+y,-z
1/2-x,1/2+y,z
1/2+x,1/2-y,z
loop_
_atom_site_type_symbol
_atom_site_label
_atom_site_fract_x
_atom_site_fract_y
_atom_site_fract_z
Si Si1 0.818841 0.331360 0.619294
Si Si2 0.677233 0.830066 0.000000
Si Si3 0.327590 0.588773 0.500000
Si Si4 0.181827 0.666348 0.859481
Si Si5 0.179719 0.087147 0.260114
O O1 0.750000 0.250000 0.605893
O O2 0.761495 0.386817 0.563850
O O3 0.768019 0.361764 0.688692
O O4 0.000000 0.325801 0.617186
O O5 0.750000 0.750000 0.000000
O O6 0.720405 0.869203 0.068681
O O7 0.500000 0.813748 0.000000
O O8 0.335467 0.500000 0.500000
O O9 0.500000 0.622780 0.500000
O O10 0.250000 0.750000 0.851195
O O11 0.262550 0.609221 0.810797
O O12 0.000000 0.669620 0.846336
O O13 0.000000 0.103363 0.266486
O O14 0.217898 0.000000 0.272884
#
# Coordination Sequence:
#
# PCOD8269489 Si02
#       5
#    16   8   8  16  16
#     4  12  25  42  65  91 120 154 196 241 285 338
#     4   8  16  30  51  80 111 145 185 233 285 338
#     4  11  24  43  66  93 127 161 192 233 286 339
#     4  10  19  34  57  84 114 148 190 237 287 344
#     4  11  24  41  59  82 115 153 193 239 292 346
#
# _framework density 20.059011000000002
#
# number of rings (size 3 to 8) (size 9 to 14) (size 15 to 20)
#    0.000    1.375    0.000    6.000    0.000    7.000 
#    0.000    0.625    0.000    3.750    0.000    0.000 
#    0.000    0.000    0.000    0.000    0.000    0.000 
#
# Total GULP energy -396743.066946 kJ/mol
# GULP energy per Si atom -12398.220842 kJ/mol
# Density = 2.001336 g / cm^3
# Si number density = 20.059011 Si / 1000 Ang^3
#
#
#
# Elastic Constant Matrix: (Units=GPa)
#
#
# Indices 1 2 3 4 5 6 
#
# 1 130.2601 42.4976 45.0529 0.0000 0.0000 0.0000
# 2 42.4976 66.5631 26.3903 0.0000 0.0000 0.0000
# 3 45.0529 26.3903 131.3866 0.0000 0.0000 0.0000
# 4 0.0000 0.0000 0.0000 24.0357 0.0000 0.0000
# 5 0.0000 0.0000 0.0000 0.0000 35.9472 0.0000
# 6 0.0000 0.0000 0.0000 0.0000 0.0000 30.5248
#
#
#
# Elastic Compliance Matrix: (Units=1/GPa)
#
#
# Indices 1 2 3 4 5 6 
#
# 1 0.010357 -0.005655 -0.002416 0.000000 0.000000 0.000000
# 2 -0.005655 0.019411 -0.001960 0.000000 0.000000 0.000000
# 3 -0.002416 -0.001960 0.008833 0.000000 0.000000 0.000000
# 4 0.000000 0.000000 0.000000 0.041605 0.000000 0.000000
# 5 0.000000 0.000000 0.000000 0.000000 0.027819 0.000000
# 6 0.000000 0.000000 0.000000 0.000000 0.000000 0.032760
#
#
# Mechanical properties :
#
#
# Convention : Reuss Voigt Hill
#
# Bulk Modulus (GPa) = 53.93626 61.78793 57.86210
# Shear Modulus (GPa) = 29.93547 32.38613 31.16080
#
# Velocity S-wave (km/s) = 3.86731 4.02250 3.94567
# Velocity P-wave (km/s) = 6.84753 7.24182 7.04743
#
# Compressibility (1/GPa) = 0.01854040
#
# Stress axis : x y z
#
# Youngs Moduli (GPa) = 96.54910 51.51783 113.21025
#
# Poissons Ratio (x) = 0.29133 0.27349
# Poissons Ratio (y) = 0.54598 0.22186
# Poissons Ratio (z) = 0.23324 0.10096
#
# Static dielectric constant tensor:
#      x y z
#    x 3.862980 0.000000 0.000000 
#    y 0.000000 12.895160 0.000000 
#    z 0.000000 0.000000 4.159940 
# 
# 
# High freq. dielectric constant tensor:
#      x y z
#    x 1.800110 0.000000 0.000000 
#    y 0.000000 1.765740 0.000000 
#    z 0.000000 0.000000 1.809680 
# 
# From -- ./inp_files/58795.got.cif
#   From: 2010.03.12/outbox.cif.g09.slc.cpg/sg65_30_cif.got.tgz:58795.got - 2010.04.10 20:52:16.
