data_PCOD8269859
_publ_section_title
;
Structure prediction by ZEFSAII (Michael W. Deem and Ramdas Pophale) SiO2 
 PCOD8269859
Probable space group: C M M M
;
_chemical_formula_sum "Si O2"
_cell_formula_units_Z 88
_cell_length_a 7.663561
_cell_length_b 19.189618
_cell_length_c 30.361572
_cell_angle_alpha 90.000000
_cell_angle_beta 90.000000
_cell_angle_gamma 90.000000
_cell_volume 4464.997314
_symmetry_space_group_name_H-M "C M M M"
_symmetry_group_IT_number 65
_symmetry_cell_setting 'orthorhombic'
loop_
_space_group_symop_operation_xyz
x,y,z
-x,-y,z
x,-y,-z
-x,y,-z
-x,-y,-z
x,y,-z
-x,y,z
x,-y,z
1/2+x,1/2+y,z
1/2-x,1/2-y,z
1/2+x,1/2-y,-z
1/2-x,1/2+y,-z
1/2-x,1/2-y,-z
1/2+x,1/2+y,-z
1/2-x,1/2+y,z
1/2+x,1/2-y,z
loop_
_atom_site_type_symbol
_atom_site_label
_atom_site_fract_x
_atom_site_fract_y
_atom_site_fract_z
Si Si1 0.295957 0.169161 0.301785
Si Si2 0.707843 0.078656 0.222614
Si Si3 0.297897 0.918571 0.614620
Si Si4 0.705173 0.172161 0.951427
Si Si5 0.792587 0.421921 0.874610
Si Si6 0.000000 0.082052 0.451326
O O1 0.500000 0.159608 0.298987
O O2 0.250000 0.250000 0.304488
O O3 0.212777 0.132670 0.258388
O O4 0.229946 0.127771 0.344633
O O5 0.500000 0.079106 0.223903
O O6 0.772591 0.102237 0.173910
O O7 0.773350 0.000000 0.232943
O O8 0.500000 0.903305 0.602531
O O9 0.176600 0.895287 0.573884
O O10 0.272136 0.000000 0.626566
O O11 0.500000 0.160529 0.952991
O O12 0.750000 0.250000 0.937793
O O13 0.791007 0.124429 0.913513
O O14 0.783871 0.154710 0.000000
O O15 0.728522 0.500000 0.883343
O O16 0.000000 0.417275 0.875966
O O17 0.000000 0.116732 0.500000
O O18 0.000000 0.000000 0.456335
#
# Coordination Sequence:
#
# PCOD8269859 Si02
#       6
#    16  16  16  16  16   8
#     4  10  20  31  47  72  97 128 161 200 244 289
#     4   8  14  27  46  66  91 121 156 195 237 293
#     4   9  18  33  53  77 104 137 174 211 254 302
#     4   9  17  28  42  62  88 117 151 190 235 286
#     4   8  14  25  43  66  88 114 150 195 242 282
#     4   9  18  32  54  84 110 134 169 215 262 302
#
# _framework density 19.708859
#
# number of rings (size 3 to 8) (size 9 to 14) (size 15 to 20)
#    0.000    3.182    0.000    1.636    1.273    3.636 
#    0.000    3.636    0.000    1.091    0.000    5.091 
#    0.000    0.000    0.000    0.000    0.000    0.000 
#
# Total GULP energy -545236.910285 kJ/mol
# GULP energy per Si atom -12391.747961 kJ/mol
# Density = 1.966400 g / cm^3
# Si number density = 19.708859 Si / 1000 Ang^3
#
#
#
# Elastic Constant Matrix: (Units=GPa)
#
#
# Indices 1 2 3 4 5 6 
#
# 1 39.1746 15.7563 36.6982 0.0000 0.0000 0.0000
# 2 15.7563 112.8777 105.9196 0.0000 0.0000 0.0000
# 3 36.6982 105.9196 212.7752 0.0000 0.0000 0.0000
# 4 0.0000 0.0000 0.0000 21.6434 0.0000 0.0000
# 5 0.0000 0.0000 0.0000 0.0000 3.6124 0.0000
# 6 0.0000 0.0000 0.0000 0.0000 0.0000 19.0226
#
#
#
# Elastic Compliance Matrix: (Units=1/GPa)
#
#
# Indices 1 2 3 4 5 6 
#
# 1 0.030544 0.001276 -0.005903 0.000000 0.000000 0.000000
# 2 0.001276 0.016678 -0.008522 0.000000 0.000000 0.000000
# 3 -0.005903 -0.008522 0.009960 0.000000 0.000000 0.000000
# 4 0.000000 0.000000 0.000000 0.046203 0.000000 0.000000
# 5 0.000000 0.000000 0.000000 0.000000 0.276823 0.000000
# 6 0.000000 0.000000 0.000000 0.000000 0.000000 0.052569
#
#
# Mechanical properties :
#
#
# Convention : Reuss Voigt Hill
#
# Bulk Modulus (GPa) = 32.38082 75.73064 54.05573
# Shear Modulus (GPa) = 10.65256 22.61924 16.63590
#
# Velocity S-wave (km/s) = 2.32738 3.39140 2.90846
# Velocity P-wave (km/s) = 4.86698 7.33782 6.22620
#
# Compressibility (1/GPa) = 0.03088248
#
# Stress axis : x y z
#
# Youngs Moduli (GPa) = 32.74017 59.95874 100.39809
#
# Poissons Ratio (x) = -0.07648 0.59264
# Poissons Ratio (y) = -0.04176 0.85563
# Poissons Ratio (z) = 0.19326 0.51099
#
# Static dielectric constant tensor:
#      x y z
#    x 3.270850 0.000000 0.000000 
#    y 0.000000 3.324130 0.000000 
#    z 0.000000 0.000000 4.182020 
# 
# 
# High freq. dielectric constant tensor:
#      x y z
#    x 1.742570 0.000000 0.000000 
#    y 0.000000 1.746330 0.000000 
#    z 0.000000 0.000000 1.776620 
# 
# From -- ./inp_files/76628.got.cif
#   From: 2010.03.12/outbox.cif.g09.slc.cpg/sg65_39_cif.got.tgz:76628.got - 2010.04.10 20:52:16.
