data_PCOD8269302
_publ_section_title
;
Structure prediction by ZEFSAII (Michael W. Deem and Ramdas Pophale) SiO2 
 PCOD8269302
Probable space group: C M M M
;
_chemical_formula_sum "Si O2"
_cell_formula_units_Z 120
_cell_length_a 8.899917
_cell_length_b 28.285839
_cell_length_c 28.670238
_cell_angle_alpha 90.000000
_cell_angle_beta 90.000000
_cell_angle_gamma 90.000000
_cell_volume 7217.492142
_symmetry_space_group_name_H-M "C M M M"
_symmetry_group_IT_number 65
_symmetry_cell_setting 'orthorhombic'
loop_
_space_group_symop_operation_xyz
x,y,z
-x,-y,z
x,-y,-z
-x,y,-z
-x,-y,-z
x,y,-z
-x,y,z
x,-y,z
1/2+x,1/2+y,z
1/2-x,1/2-y,z
1/2+x,1/2-y,-z
1/2-x,1/2+y,-z
1/2-x,1/2-y,-z
1/2+x,1/2+y,-z
1/2-x,1/2+y,z
1/2+x,1/2-y,z
loop_
_atom_site_type_symbol
_atom_site_label
_atom_site_fract_x
_atom_site_fract_y
_atom_site_fract_z
Si Si1 0.176150 0.610564 0.766717
Si Si2 0.823809 0.897627 0.412021
Si Si3 0.178229 0.054870 0.150295
Si Si4 0.675792 0.297509 0.624420
Si Si5 0.831542 0.056079 0.049273
Si Si6 0.827844 0.555335 0.673957
Si Si7 0.822181 0.446089 0.500000
Si Si8 0.322297 0.701740 0.730746
O O1 0.230861 0.585324 0.813086
O O2 0.218672 0.578117 0.722824
O O3 0.261060 0.660091 0.762880
O O4 0.000000 0.619934 0.769639
O O5 0.778414 0.842471 0.406940
O O6 0.782600 0.925178 0.365237
O O7 0.734245 0.919214 0.454696
O O8 0.000000 0.903298 0.421168
O O9 0.239112 0.072135 0.098863
O O10 0.000000 0.063426 0.154864
O O11 0.216267 0.000000 0.158769
O O12 0.500000 0.289186 0.623669
O O13 0.750000 0.250000 0.603668
O O14 0.730540 0.306976 0.677319
O O15 0.000000 0.076119 0.047416
O O16 0.837563 0.000000 0.050953
O O17 0.749899 0.072140 0.000000
O O18 0.802185 0.500000 0.678825
O O19 0.000000 0.567223 0.660531
O O20 0.761932 0.500000 0.500000
O O21 0.000000 0.445672 0.500000
O O22 0.500000 0.704582 0.735086
O O23 0.250000 0.750000 0.749557
#
# Coordination Sequence:
#
# PCOD8269302 Si02
#       8
#    16  16  16  16  16  16   8  16
#     4  11  21  32  47  69 100 136 169 202 245 295
#     4  11  22  38  58  82 104 127 162 205 247 288
#     4   9  17  28  43  65  95 132 171 212 256 297
#     4   9  19  34  55  81 106 128 157 196 240 290
#     4   7  10  19  37  60  85 117 162 212 256 297
#     4  10  21  35  50  70  98 133 170 203 237 285
#     4  11  25  43  60  79 104 135 168 201 240 289
#     4  10  19  34  53  75 101 128 163 203 246 294
#
# _framework density 16.626273000000001
#
# number of rings (size 3 to 8) (size 9 to 14) (size 15 to 20)
#    0.000    2.333    1.333    3.400    0.000    5.333 
#    0.000    0.333    0.000    0.400    0.000    1.867 
#    0.000    0.533    0.000    1.467    0.000    2.133 
#
# Total GULP energy -743694.152372 kJ/mol
# GULP energy per Si atom -12394.902540 kJ/mol
# Density = 1.658843 g / cm^3
# Si number density = 16.626273 Si / 1000 Ang^3
#
#
#
# Elastic Constant Matrix: (Units=GPa)
#
#
# Indices 1 2 3 4 5 6 
#
# 1 51.1706 39.7771 36.2836 0.0000 0.0000 0.0000
# 2 39.7771 106.3960 56.0555 0.0000 0.0000 0.0000
# 3 36.2836 56.0555 120.5374 0.0000 0.0000 0.0000
# 4 0.0000 0.0000 0.0000 34.1374 0.0000 0.0000
# 5 0.0000 0.0000 0.0000 0.0000 21.0269 0.0000
# 6 0.0000 0.0000 0.0000 0.0000 0.0000 26.6952
#
#
#
# Elastic Compliance Matrix: (Units=1/GPa)
#
#
# Indices 1 2 3 4 5 6 
#
# 1 0.029658 -0.008456 -0.004995 0.000000 0.000000 0.000000
# 2 -0.008456 0.014860 -0.004365 0.000000 0.000000 0.000000
# 3 -0.004995 -0.004365 0.011830 0.000000 0.000000 0.000000
# 4 0.000000 0.000000 0.000000 0.029293 0.000000 0.000000
# 5 0.000000 0.000000 0.000000 0.000000 0.047558 0.000000
# 6 0.000000 0.000000 0.000000 0.000000 0.000000 0.037460
#
#
# Mechanical properties :
#
#
# Convention : Reuss Voigt Hill
#
# Bulk Modulus (GPa) = 48.27440 60.25960 54.26700
# Shear Modulus (GPa) = 23.45256 26.10442 24.77849
#
# Velocity S-wave (km/s) = 3.75983 3.96671 3.86466
# Velocity P-wave (km/s) = 6.92434 7.56981 7.25426
#
# Compressibility (1/GPa) = 0.02071491
#
# Stress axis : x y z
#
# Youngs Moduli (GPa) = 33.71821 67.29427 84.53279
#
# Poissons Ratio (x) = 0.56905 0.42223
# Poissons Ratio (y) = 0.28513 0.36900
# Poissons Ratio (z) = 0.16842 0.29375
#
# Static dielectric constant tensor:
#      x y z
#    x 2.802260 0.000000 0.000000 
#    y 0.000000 3.101950 0.000000 
#    z 0.000000 0.000000 2.938900 
# 
# 
# High freq. dielectric constant tensor:
#      x y z
#    x 1.632160 0.000000 0.000000 
#    y 0.000000 1.626130 0.000000 
#    z 0.000000 0.000000 1.635950 
# 
# From -- ./inp_files/73869.got.cif
#   From: 2010.03.12/outbox.cif.g09.slc.cpg/sg65_37_cif.got.tgz:73869.got - 2010.04.10 20:52:16.
