data_PCOD8269281
_publ_section_title
;
Structure prediction by ZEFSAII (Michael W. Deem and Ramdas Pophale) SiO2 
 PCOD8269281
Probable space group: C M M M
;
_chemical_formula_sum "Si O2"
_cell_formula_units_Z 80
_cell_length_a 18.838258
_cell_length_b 16.411790
_cell_length_c 14.280238
_cell_angle_alpha 90.000000
_cell_angle_beta 90.000000
_cell_angle_gamma 90.000000
_cell_volume 4415.014532
_symmetry_space_group_name_H-M "C M M M"
_symmetry_group_IT_number 65
_symmetry_cell_setting 'orthorhombic'
loop_
_space_group_symop_operation_xyz
x,y,z
-x,-y,z
x,-y,-z
-x,y,-z
-x,-y,-z
x,y,-z
-x,y,z
x,-y,z
1/2+x,1/2+y,z
1/2-x,1/2-y,z
1/2+x,1/2-y,-z
1/2-x,1/2+y,-z
1/2-x,1/2-y,-z
1/2+x,1/2+y,-z
1/2-x,1/2+y,z
1/2+x,1/2-y,z
loop_
_atom_site_type_symbol
_atom_site_label
_atom_site_fract_x
_atom_site_fract_y
_atom_site_fract_z
Si Si1 0.581605 0.677294 0.110995
Si Si2 0.500000 0.411985 0.390110
Si Si3 0.793661 0.094315 0.795932
Si Si4 0.660187 0.158171 0.889541
Si Si5 0.651208 0.596680 0.397042
Si Si6 0.921218 0.500000 0.888555
O O1 0.500000 0.672118 0.146296
O O2 0.628242 0.607075 0.159497
O O3 0.615356 0.763610 0.141295
O O4 0.584572 0.665887 0.000000
O O5 0.500000 0.500000 0.338150
O O6 0.500000 0.426990 0.500000
O O7 0.425988 0.364761 0.366990
O O8 0.738259 0.155769 0.844041
O O9 0.793282 0.117376 0.685111
O O10 0.772486 0.000000 0.812312
O O11 0.618025 0.080030 0.851503
O O12 0.671568 0.155706 0.000000
O O13 0.676738 0.628951 0.500000
O O14 0.640173 0.500000 0.402756
O O15 0.000000 0.500000 0.846306
O O16 0.923923 0.500000 0.000000
#
# Coordination Sequence:
#
# PCOD8269281 Si02
#       6
#    16   8  16  16  16   8
#     4  10  22  37  51  69  99 141 179 207 243 297
#     4   7  10  20  38  58  83 119 157 194 232 273
#     4  11  21  31  50  78 106 134 166 205 253 307
#     4  10  19  34  52  72 101 133 170 210 253 300
#     4   8  15  27  44  68  98 129 165 206 248 296
#     4   9  16  28  52  78  96 120 163 220 260 282
#
# _framework density 18.119985
#
# number of rings (size 3 to 8) (size 9 to 14) (size 15 to 20)
#    0.000    2.600    1.000    3.000    1.400    5.600 
#    0.000    1.000    0.000    2.400    0.000    0.000 
#    0.000    3.200    0.000    0.000    0.000    0.000 
#
# Total GULP energy -495644.160017 kJ/mol
# GULP energy per Si atom -12391.104000 kJ/mol
# Density = 1.807874 g / cm^3
# Si number density = 18.119985 Si / 1000 Ang^3
#
#
#
# Elastic Constant Matrix: (Units=GPa)
#
#
# Indices 1 2 3 4 5 6 
#
# 1 102.4328 10.7133 32.9565 0.0000 0.0000 0.0000
# 2 10.7133 33.4061 13.0651 0.0000 0.0000 0.0000
# 3 32.9565 13.0651 44.5242 0.0000 0.0000 0.0000
# 4 0.0000 0.0000 0.0000 9.8388 0.0000 0.0000
# 5 0.0000 0.0000 0.0000 0.0000 14.4654 0.0000
# 6 0.0000 0.0000 0.0000 0.0000 0.0000 25.5211
#
#
#
# Elastic Compliance Matrix: (Units=1/GPa)
#
#
# Indices 1 2 3 4 5 6 
#
# 1 0.012820 -0.000452 -0.009357 0.000000 0.000000 0.000000
# 2 -0.000452 0.033831 -0.009593 0.000000 0.000000 0.000000
# 3 -0.009357 -0.009593 0.032200 0.000000 0.000000 0.000000
# 4 0.000000 0.000000 0.000000 0.101639 0.000000 0.000000
# 5 0.000000 0.000000 0.000000 0.000000 0.069131 0.000000
# 6 0.000000 0.000000 0.000000 0.000000 0.000000 0.039183
#
#
# Mechanical properties :
#
#
# Convention : Reuss Voigt Hill
#
# Bulk Modulus (GPa) = 24.96960 32.64811 28.80885
# Shear Modulus (GPa) = 14.66459 18.20694 16.43576
#
# Velocity S-wave (km/s) = 2.84791 3.17329 3.01500
# Velocity P-wave (km/s) = 4.96228 5.61099 5.29658
#
# Compressibility (1/GPa) = 0.04004871
#
# Stress axis : x y z
#
# Youngs Moduli (GPa) = 78.00194 29.55837 31.05551
#
# Poissons Ratio (x) = 0.01336 0.29058
# Poissons Ratio (y) = 0.03526 0.29791
# Poissons Ratio (z) = 0.72985 0.28355
#
# Static dielectric constant tensor:
#      x y z
#    x 3.548580 0.000000 0.000000 
#    y 0.000000 3.068400 0.000000 
#    z 0.000000 0.000000 3.253670 
# 
# 
# High freq. dielectric constant tensor:
#      x y z
#    x 1.706400 0.000000 0.000000 
#    y 0.000000 1.669000 0.000000 
#    z 0.000000 0.000000 1.678620 
# 
# From -- ./inp_files/42378.got.cif
#   From: 2010.03.12/outbox.cif.g09.slc.cpg/sg65_22_cif.got.tgz:42378.got - 2010.04.10 20:52:16.
