data_PCOD8269698
_publ_section_title
;
Structure prediction by ZEFSAII (Michael W. Deem and Ramdas Pophale) SiO2 
 PCOD8269698
Probable space group: C M M M
;
_chemical_formula_sum "Si O2"
_cell_formula_units_Z 80
_cell_length_a 9.468780
_cell_length_b 29.526566
_cell_length_c 15.783281
_cell_angle_alpha 90.000000
_cell_angle_beta 90.000000
_cell_angle_gamma 90.000000
_cell_volume 4412.698503
_symmetry_space_group_name_H-M "C M M M"
_symmetry_group_IT_number 65
_symmetry_cell_setting 'orthorhombic'
loop_
_space_group_symop_operation_xyz
x,y,z
-x,-y,z
x,-y,-z
-x,y,-z
-x,-y,-z
x,y,-z
-x,y,z
x,-y,z
1/2+x,1/2+y,z
1/2-x,1/2-y,z
1/2+x,1/2-y,-z
1/2-x,1/2+y,-z
1/2-x,1/2-y,-z
1/2+x,1/2+y,-z
1/2-x,1/2+y,z
1/2+x,1/2-y,z
loop_
_atom_site_type_symbol
_atom_site_label
_atom_site_fract_x
_atom_site_fract_y
_atom_site_fract_z
Si Si1 0.836405 0.671655 0.000000
Si Si2 0.334471 0.419368 0.000000
Si Si3 0.662719 0.448872 0.599565
Si Si4 0.158414 0.618432 0.710088
Si Si5 0.347318 0.048722 0.142188
Si Si6 0.834177 0.705940 0.813279
O O1 0.739104 0.628529 0.000000
O O2 0.799374 0.697918 0.913027
O O3 0.000000 0.657084 0.000000
O O4 0.285492 0.447542 0.919204
O O5 0.500000 0.412882 0.000000
O O6 0.682079 0.443097 0.500000
O O7 0.500000 0.444024 0.626218
O O8 0.715377 0.500000 0.625696
O O9 0.744999 0.406541 0.640989
O O10 0.157504 0.587656 0.791182
O O11 0.215039 0.666289 0.747725
O O12 0.000000 0.623881 0.672504
O O13 0.500000 0.052051 0.094428
O O14 0.334109 0.000000 0.187950
O O15 0.750000 0.750000 0.783284
O O16 0.000000 0.714139 0.802569
#
# Coordination Sequence:
#
# PCOD8269698 Si02
#       6
#     8   8  16  16  16  16
#     4  10  19  38  58  71 100 144 184 225 273 324
#     4  12  23  32  47  72 103 137 178 227 265 306
#     4   9  19  36  57  83 116 149 176 209 262 321
#     4  10  20  35  56  81 107 138 178 222 265 316
#     4  10  20  35  53  70  98 142 181 214 263 322
#     4  10  21  36  57  80 106 139 179 227 276 323
#
# _framework density 18.129497000000001
#
# number of rings (size 3 to 8) (size 9 to 14) (size 15 to 20)
#    0.000    2.000    2.000    2.700    0.000    5.600 
#    0.000    1.000    0.000    0.600    0.000    0.000 
#    0.000    0.000    0.000    0.000    0.000    0.000 
#
# Total GULP energy -495524.870741 kJ/mol
# GULP energy per Si atom -12388.121769 kJ/mol
# Density = 1.808823 g / cm^3
# Si number density = 18.129497 Si / 1000 Ang^3
#
#
#
# Elastic Constant Matrix: (Units=GPa)
#
#
# Indices 1 2 3 4 5 6 
#
# 1 74.4557 54.2593 36.0610 0.0000 0.0000 0.0000
# 2 54.2593 152.7782 44.7771 0.0000 0.0000 0.0000
# 3 36.0610 44.7771 62.2623 0.0000 0.0000 0.0000
# 4 0.0000 0.0000 0.0000 35.1076 0.0000 0.0000
# 5 0.0000 0.0000 0.0000 0.0000 31.8753 0.0000
# 6 0.0000 0.0000 0.0000 0.0000 0.0000 32.8528
#
#
#
# Elastic Compliance Matrix: (Units=1/GPa)
#
#
# Indices 1 2 3 4 5 6 
#
# 1 0.021315 -0.005007 -0.008744 0.000000 0.000000 0.000000
# 2 -0.005007 0.009470 -0.003910 0.000000 0.000000 0.000000
# 3 -0.008744 -0.003910 0.023938 0.000000 0.000000 0.000000
# 4 0.000000 0.000000 0.000000 0.028484 0.000000 0.000000
# 5 0.000000 0.000000 0.000000 0.000000 0.031372 0.000000
# 6 0.000000 0.000000 0.000000 0.000000 0.000000 0.030439
#
#
# Mechanical properties :
#
#
# Convention : Reuss Voigt Hill
#
# Bulk Modulus (GPa) = 51.54883 62.18788 56.86835
# Shear Modulus (GPa) = 26.76562 30.26037 28.51299
#
# Velocity S-wave (km/s) = 3.84651 4.08992 3.97008
# Velocity P-wave (km/s) = 6.94427 7.52860 7.24233
#
# Compressibility (1/GPa) = 0.01939908
#
# Stress axis : x y z
#
# Youngs Moduli (GPa) = 46.91579 105.59866 41.77519
#
# Poissons Ratio (x) = 0.52875 0.36528
# Poissons Ratio (y) = 0.23492 0.16335
# Poissons Ratio (z) = 0.41023 0.41293
#
# Static dielectric constant tensor:
#      x y z
#    x 3.491920 0.000000 0.000000 
#    y 0.000000 3.688930 0.000000 
#    z 0.000000 0.000000 3.218020 
# 
# 
# High freq. dielectric constant tensor:
#      x y z
#    x 1.696030 0.000000 0.000000 
#    y 0.000000 1.709230 0.000000 
#    z 0.000000 0.000000 1.677260 
# 
# From -- ./inp_files/50184.got.cif
#   From: 2010.03.12/outbox.cif.g09.slc.cpg/sg65_26_cif.got.tgz:50184.got - 2010.04.10 20:52:16.
