data_PCOD8269292
_publ_section_title
;
Structure prediction by ZEFSAII (Michael W. Deem and Ramdas Pophale) SiO2 
 PCOD8269292
Probable space group: C M M M
;
_chemical_formula_sum "Si O2"
_cell_formula_units_Z 104
_cell_length_a 9.182859
_cell_length_b 28.476509
_cell_length_c 23.104726
_cell_angle_alpha 90.000000
_cell_angle_beta 90.000000
_cell_angle_gamma 90.000000
_cell_volume 6041.788046
_symmetry_space_group_name_H-M "C M M M"
_symmetry_group_IT_number 65
_symmetry_cell_setting 'orthorhombic'
loop_
_space_group_symop_operation_xyz
x,y,z
-x,-y,z
x,-y,-z
-x,y,-z
-x,-y,-z
x,y,-z
-x,y,z
x,-y,z
1/2+x,1/2+y,z
1/2-x,1/2-y,z
1/2+x,1/2-y,-z
1/2-x,1/2+y,-z
1/2-x,1/2-y,-z
1/2+x,1/2+y,-z
1/2-x,1/2+y,z
1/2+x,1/2-y,z
loop_
_atom_site_type_symbol
_atom_site_label
_atom_site_fract_x
_atom_site_fract_y
_atom_site_fract_z
Si Si1 0.327240 0.799153 0.777436
Si Si2 0.827748 0.050828 0.842558
Si Si3 0.328236 0.349707 0.882235
Si Si4 0.830033 0.297689 0.434654
Si Si5 0.670004 0.862584 0.332053
Si Si6 0.667652 0.446902 0.712555
Si Si7 0.169533 0.200827 0.000000
O O1 0.500000 0.791930 0.784187
O O2 0.250000 0.750000 0.765928
O O3 0.264128 0.821575 0.835549
O O4 0.286519 0.831957 0.723598
O O5 0.781144 0.095114 0.881944
O O6 0.768458 0.058655 0.777527
O O7 0.000000 0.047466 0.838986
O O8 0.768989 0.000000 0.866566
O O9 0.500000 0.344033 0.868852
O O10 0.285581 0.329594 0.944506
O O11 0.793144 0.313971 0.500000
O O12 0.750000 0.250000 0.418428
O O13 0.775328 0.337385 0.390505
O O14 0.000000 0.287959 0.426347
O O15 0.500000 0.871759 0.334170
O O16 0.746560 0.912913 0.330327
O O17 0.500000 0.432016 0.711478
O O18 0.689153 0.500000 0.690477
O O19 0.250000 0.250000 0.000000
O O20 0.000000 0.212278 0.000000
#
# Coordination Sequence:
#
# PCOD8269292 Si02
#       7
#    16  16  16  16  16  16   8
#     4  11  22  33  47  71 100 127 159 199 246 292
#     4   8  14  27  49  74  98 124 154 192 240 291
#     4  10  19  34  53  72  97 128 163 201 242 290
#     4   9  18  33  51  71  98 133 170 205 243 291
#     4  10  20  32  48  74 103 128 160 203 248 292
#     4   9  17  30  50  75 100 129 164 198 241 297
#     4  10  22  36  51  71  93 127 170 206 241 288
#
# _framework density 17.213446000000001
#
# number of rings (size 3 to 8) (size 9 to 14) (size 15 to 20)
#    0.000    2.462    1.538    2.308    0.000    3.385 
#    0.000    0.385    0.000    3.231    0.000    3.231 
#    0.000    1.846    0.000    0.000    0.000    0.000 
#
# Total GULP energy -644672.579269 kJ/mol
# GULP energy per Si atom -12397.549601 kJ/mol
# Density = 1.717427 g / cm^3
# Si number density = 17.213446 Si / 1000 Ang^3
#
#
#
# Elastic Constant Matrix: (Units=GPa)
#
#
# Indices 1 2 3 4 5 6 
#
# 1 41.4674 44.2220 37.4365 0.0000 0.0000 0.0000
# 2 44.2220 143.1405 70.4486 0.0000 0.0000 0.0000
# 3 37.4365 70.4486 112.7033 0.0000 0.0000 0.0000
# 4 0.0000 0.0000 0.0000 27.7809 0.0000 0.0000
# 5 0.0000 0.0000 0.0000 0.0000 20.3263 0.0000
# 6 0.0000 0.0000 0.0000 0.0000 0.0000 27.2669
#
#
#
# Elastic Compliance Matrix: (Units=1/GPa)
#
#
# Indices 1 2 3 4 5 6 
#
# 1 0.040555 -0.008520 -0.008145 0.000000 0.000000 0.000000
# 2 -0.008520 0.011880 -0.004596 0.000000 0.000000 0.000000
# 3 -0.008145 -0.004596 0.014451 0.000000 0.000000 0.000000
# 4 0.000000 0.000000 0.000000 0.035996 0.000000 0.000000
# 5 0.000000 0.000000 0.000000 0.000000 0.049197 0.000000
# 6 0.000000 0.000000 0.000000 0.000000 0.000000 0.036675
#
#
# Mechanical properties :
#
#
# Convention : Reuss Voigt Hill
#
# Bulk Modulus (GPa) = 41.04475 66.83616 53.94046
# Shear Modulus (GPa) = 20.88562 24.75510 22.82036
#
# Velocity S-wave (km/s) = 3.48707 3.79638 3.64501
# Velocity P-wave (km/s) = 6.33318 7.62422 7.00850
#
# Compressibility (1/GPa) = 0.02436365
#
# Stress axis : x y z
#
# Youngs Moduli (GPa) = 24.65780 84.17205 69.19784
#
# Poissons Ratio (x) = 0.71718 0.56363
# Poissons Ratio (y) = 0.21009 0.31803
# Poissons Ratio (z) = 0.20084 0.38686
#
# Static dielectric constant tensor:
#      x y z
#    x 3.034100 0.000000 0.000000 
#    y 0.000000 3.564030 0.000000 
#    z 0.000000 0.000000 3.211580 
# 
# 
# High freq. dielectric constant tensor:
#      x y z
#    x 1.646880 0.000000 0.000000 
#    y 0.000000 1.675370 0.000000 
#    z 0.000000 0.000000 1.649440 
# 
# From -- ./inp_files/60853.got.cif
#   From: 2010.03.12/outbox.cif.g09.slc.cpg/sg65_31_cif.got.tgz:60853.got - 2010.04.10 20:52:16.
