data_PCOD8269961
_publ_section_title
;
Structure prediction by ZEFSAII (Michael W. Deem and Ramdas Pophale) SiO2 
 PCOD8269961
Probable space group: C M M M
;
_chemical_formula_sum "Si O2"
_cell_formula_units_Z 104
_cell_length_a 9.076698
_cell_length_b 27.316556
_cell_length_c 26.016776
_cell_angle_alpha 90.000000
_cell_angle_beta 90.000000
_cell_angle_gamma 90.000000
_cell_volume 6450.706870
_symmetry_space_group_name_H-M "C M M M"
_symmetry_group_IT_number 65
_symmetry_cell_setting 'orthorhombic'
loop_
_space_group_symop_operation_xyz
x,y,z
-x,-y,z
x,-y,-z
-x,y,-z
-x,-y,-z
x,y,-z
-x,y,z
x,-y,z
1/2+x,1/2+y,z
1/2-x,1/2-y,z
1/2+x,1/2-y,-z
1/2-x,1/2+y,-z
1/2-x,1/2-y,-z
1/2+x,1/2+y,-z
1/2-x,1/2+y,z
1/2+x,1/2-y,z
loop_
_atom_site_type_symbol
_atom_site_label
_atom_site_fract_x
_atom_site_fract_y
_atom_site_fract_z
Si Si1 0.333768 0.441806 0.500000
Si Si2 0.830190 0.443844 0.804284
Si Si3 0.826846 0.443895 0.398776
Si Si4 0.172122 0.859944 0.857528
Si Si5 0.670711 0.199885 0.940427
Si Si6 0.672660 0.698359 0.755227
Si Si7 0.670513 0.113209 0.702100
O O1 0.326564 0.500000 0.500000
O O2 0.500000 0.422064 0.500000
O O3 0.252760 0.422166 0.550918
O O4 0.783198 0.500000 0.808698
O O5 0.728203 0.413897 0.843367
O O6 0.801908 0.426868 0.746134
O O7 0.000000 0.435755 0.819668
O O8 0.779937 0.500000 0.388056
O O9 0.776260 0.411040 0.350860
O O10 0.000000 0.440444 0.408046
O O11 0.257669 0.843811 0.908445
O O12 0.209895 0.822567 0.811560
O O13 0.000000 0.861971 0.869419
O O14 0.500000 0.205448 0.926185
O O15 0.750000 0.250000 0.925019
O O16 0.694169 0.187307 0.000000
O O17 0.500000 0.704732 0.746851
O O18 0.750000 0.750000 0.748547
O O19 0.733976 0.661636 0.712012
O O20 0.500000 0.128618 0.699866
#
# Coordination Sequence:
#
# PCOD8269961 Si02
#       7
#     8  16  16  16  16  16  16
#     4   9  17  27  39  59  88 121 154 187 225 265
#     4   9  17  30  48  69  94 124 156 189 226 269
#     4   9  16  27  44  65  90 120 153 187 222 263
#     4  10  20  32  48  70  95 124 155 187 225 269
#     4  10  20  33  50  72  96 121 150 186 229 275
#     4  10  20  32  46  66  92 121 152 185 223 267
#     4   9  17  29  46  68  92 119 152 188 226 268
#
# _framework density 16.122264000000001
#
# number of rings (size 3 to 8) (size 9 to 14) (size 15 to 20)
#    0.000    2.538    0.000    2.538    0.000    7.692 
#    0.000    0.000    0.000    3.231    0.000    3.769 
#    0.000    0.000    0.000    0.000    0.000    0.000 
#
# Total GULP energy -644939.659504 kJ/mol
# GULP energy per Si atom -12402.685760 kJ/mol
# Density = 1.608557 g / cm^3
# Si number density = 16.122264 Si / 1000 Ang^3
#
#
#
# Elastic Constant Matrix: (Units=GPa)
#
#
# Indices 1 2 3 4 5 6 
#
# 1 87.0963 56.5969 56.6763 0.0000 0.0000 0.0000
# 2 56.5969 111.0696 56.3043 0.0000 0.0000 0.0000
# 3 56.6763 56.3043 98.8329 0.0000 0.0000 0.0000
# 4 0.0000 0.0000 0.0000 23.4526 0.0000 0.0000
# 5 0.0000 0.0000 0.0000 0.0000 23.9091 0.0000
# 6 0.0000 0.0000 0.0000 0.0000 0.0000 27.4038
#
#
#
# Elastic Compliance Matrix: (Units=1/GPa)
#
#
# Indices 1 2 3 4 5 6 
#
# 1 0.021225 -0.006532 -0.008451 0.000000 0.000000 0.000000
# 2 -0.006532 0.014669 -0.004611 0.000000 0.000000 0.000000
# 3 -0.008451 -0.004611 0.017591 0.000000 0.000000 0.000000
# 4 0.000000 0.000000 0.000000 0.042639 0.000000 0.000000
# 5 0.000000 0.000000 0.000000 0.000000 0.041825 0.000000
# 6 0.000000 0.000000 0.000000 0.000000 0.000000 0.036491
#
#
# Mechanical properties :
#
#
# Convention : Reuss Voigt Hill
#
# Bulk Modulus (GPa) = 69.93839 70.68375 70.31107
# Shear Modulus (GPa) = 22.89438 23.44786 23.17112
#
# Velocity S-wave (km/s) = 3.77244 3.81777 3.79517
# Velocity P-wave (km/s) = 7.90248 7.96061 7.93160
#
# Compressibility (1/GPa) = 0.01429830
#
# Stress axis : x y z
#
# Youngs Moduli (GPa) = 47.11428 68.16972 56.84669
#
# Poissons Ratio (x) = 0.44526 0.48039
# Poissons Ratio (y) = 0.30773 0.26214
# Poissons Ratio (z) = 0.39814 0.31436
#
# Static dielectric constant tensor:
#      x y z
#    x 3.105290 0.000000 0.000000 
#    y 0.000000 2.900610 0.000000 
#    z 0.000000 0.000000 3.033340 
# 
# 
# High freq. dielectric constant tensor:
#      x y z
#    x 1.628230 0.000000 0.000000 
#    y 0.000000 1.599580 0.000000 
#    z 0.000000 0.000000 1.611890 
# 
# From -- ./inp_files/68269.got.cif
#   From: 2010.03.12/outbox.cif.g09.slc.cpg/sg65_35_cif.got.tgz:68269.got - 2010.04.10 20:52:16.
