data_PCOD8269576
_publ_section_title
;
Structure prediction by ZEFSAII (Michael W. Deem and Ramdas Pophale) SiO2 
 PCOD8269576
Probable space group: C M M M
;
_chemical_formula_sum "Si O2"
_cell_formula_units_Z 80
_cell_length_a 8.532341
_cell_length_b 29.522393
_cell_length_c 16.220701
_cell_angle_alpha 90.000000
_cell_angle_beta 90.000000
_cell_angle_gamma 90.000000
_cell_volume 4085.915493
_symmetry_space_group_name_H-M "C M M M"
_symmetry_group_IT_number 65
_symmetry_cell_setting 'orthorhombic'
loop_
_space_group_symop_operation_xyz
x,y,z
-x,-y,z
x,-y,-z
-x,y,-z
-x,-y,-z
x,y,-z
-x,y,z
x,-y,z
1/2+x,1/2+y,z
1/2-x,1/2-y,z
1/2+x,1/2-y,-z
1/2-x,1/2+y,-z
1/2-x,1/2-y,-z
1/2+x,1/2+y,-z
1/2-x,1/2+y,z
1/2+x,1/2-y,z
loop_
_atom_site_type_symbol
_atom_site_label
_atom_site_fract_x
_atom_site_fract_y
_atom_site_fract_z
Si Si1 0.185521 0.701272 0.906543
Si Si2 0.815044 0.311825 0.500000
Si Si3 0.818365 0.369050 0.772377
Si Si4 0.682717 0.705324 0.331180
Si Si5 0.684273 0.550437 0.676505
Si Si6 0.185460 0.909344 0.500000
O O1 0.250000 0.750000 0.876719
O O2 0.251532 0.659322 0.850911
O O3 0.000000 0.703369 0.898329
O O4 0.240051 0.691545 0.000000
O O5 0.721106 0.288662 0.573790
O O6 0.791801 0.365367 0.500000
O O7 0.000000 0.300265 0.500000
O O8 0.782563 0.338309 0.693712
O O9 0.744733 0.417752 0.751372
O O10 0.000000 0.377164 0.786009
O O11 0.500000 0.698388 0.312382
O O12 0.750000 0.750000 0.284466
O O13 0.500000 0.551387 0.682729
O O14 0.750117 0.500000 0.693150
O O15 0.733057 0.563802 0.583189
O O16 0.000000 0.897441 0.500000
#
# Coordination Sequence:
#
# PCOD8269576 Si02
#       6
#    16   8  16  16  16   8
#     4   9  19  36  58  85 116 148 182 221 270 328
#     4  12  23  36  53  76 106 142 185 230 274 324
#     4  11  22  36  56  83 113 144 181 229 278 330
#     4  12  24  38  54  75 107 147 186 226 273 327
#     4  10  21  37  58  82 110 146 188 234 285 336
#     4  10  19  35  57  79 105 144 186 232 284 333
#
# _framework density 19.579454999999999
#
# number of rings (size 3 to 8) (size 9 to 14) (size 15 to 20)
#    0.000    1.400    2.000    4.500    0.000    4.800 
#    0.000    0.000    0.000    2.400    0.000    4.200 
#    0.000    0.000    0.000    0.000    0.000    0.000 
#
# Total GULP energy -495717.566500 kJ/mol
# GULP energy per Si atom -12392.939162 kJ/mol
# Density = 1.953489 g / cm^3
# Si number density = 19.579455 Si / 1000 Ang^3
#
#
#
# Elastic Constant Matrix: (Units=GPa)
#
#
# Indices 1 2 3 4 5 6 
#
# 1 33.7579 26.0894 16.0424 0.0000 0.0000 0.0000
# 2 26.0894 165.4483 54.7203 0.0000 0.0000 0.0000
# 3 16.0424 54.7203 107.1635 0.0000 0.0000 0.0000
# 4 0.0000 0.0000 0.0000 24.9069 0.0000 0.0000
# 5 0.0000 0.0000 0.0000 0.0000 19.8142 0.0000
# 6 0.0000 0.0000 0.0000 0.0000 0.0000 31.7506
#
#
#
# Elastic Compliance Matrix: (Units=1/GPa)
#
#
# Indices 1 2 3 4 5 6 
#
# 1 0.034451 -0.004484 -0.002868 0.000000 0.000000 0.000000
# 2 -0.004484 0.007856 -0.003340 0.000000 0.000000 0.000000
# 3 -0.002868 -0.003340 0.011466 0.000000 0.000000 0.000000
# 4 0.000000 0.000000 0.000000 0.040149 0.000000 0.000000
# 5 0.000000 0.000000 0.000000 0.000000 0.050469 0.000000
# 6 0.000000 0.000000 0.000000 0.000000 0.000000 0.031495
#
#
# Mechanical properties :
#
#
# Convention : Reuss Voigt Hill
#
# Bulk Modulus (GPa) = 30.87422 55.56377 43.21899
# Shear Modulus (GPa) = 24.03068 29.26220 26.64644
#
# Velocity S-wave (km/s) = 3.50714 3.87012 3.69309
# Velocity P-wave (km/s) = 5.67477 6.95777 6.34876
#
# Compressibility (1/GPa) = 0.03238948
#
# Stress axis : x y z
#
# Youngs Moduli (GPa) = 29.02684 127.29102 87.21125
#
# Poissons Ratio (x) = 0.57078 0.25009
# Poissons Ratio (y) = 0.13016 0.29130
# Poissons Ratio (z) = 0.08324 0.42518
#
# Static dielectric constant tensor:
#      x y z
#    x 3.394740 0.000000 0.000000 
#    y 0.000000 3.839860 0.000000 
#    z 0.000000 0.000000 3.744780 
# 
# 
# High freq. dielectric constant tensor:
#      x y z
#    x 1.752690 0.000000 0.000000 
#    y 0.000000 1.764660 0.000000 
#    z 0.000000 0.000000 1.751070 
# 
# From -- ./inp_files/49920.got.cif
#   From: 2010.03.12/outbox.cif.g09.slc.cpg/sg65_25_cif.got.tgz:49920.got - 2010.04.10 20:52:16.
