data_PCOD8269091
_publ_section_title
;
Structure prediction by ZEFSAII (Michael W. Deem and Ramdas Pophale) SiO2 
 PCOD8269091
Probable space group: C M M M
;
_chemical_formula_sum "Si O2"
_cell_formula_units_Z 80
_cell_length_a 23.754468
_cell_length_b 14.810505
_cell_length_c 12.477191
_cell_angle_alpha 90.000000
_cell_angle_beta 90.000000
_cell_angle_gamma 90.000000
_cell_volume 4389.671275
_symmetry_space_group_name_H-M "C M M M"
_symmetry_group_IT_number 65
_symmetry_cell_setting 'orthorhombic'
loop_
_space_group_symop_operation_xyz
x,y,z
-x,-y,z
x,-y,-z
-x,y,-z
-x,-y,-z
x,y,-z
-x,y,z
x,-y,z
1/2+x,1/2+y,z
1/2-x,1/2-y,z
1/2+x,1/2-y,-z
1/2-x,1/2+y,-z
1/2-x,1/2-y,-z
1/2+x,1/2+y,-z
1/2-x,1/2+y,z
1/2+x,1/2-y,z
loop_
_atom_site_type_symbol
_atom_site_label
_atom_site_fract_x
_atom_site_fract_y
_atom_site_fract_z
Si Si1 0.618295 0.896702 0.624176
Si Si2 0.334256 0.601939 0.000000
Si Si3 0.256615 0.855624 0.378254
Si Si4 0.841751 0.102473 0.228310
Si Si5 0.064723 0.246555 0.765273
Si Si6 0.062144 0.790091 0.000000
O O1 0.613406 0.865960 0.500000
O O2 0.682472 0.885912 0.664571
O O3 0.578226 0.835342 0.696676
O O4 0.598847 0.000000 0.638036
O O5 0.314667 0.642379 0.115507
O O6 0.315384 0.500000 0.000000
O O7 0.401473 0.618617 0.000000
O O8 0.249619 0.887346 0.500000
O O9 0.250000 0.750000 0.364036
O O10 0.207684 0.904110 0.313604
O O11 0.893401 0.164868 0.268856
O O12 0.864477 0.000000 0.209531
O O13 0.000000 0.218256 0.741704
O O14 0.073053 0.269088 0.892225
O O15 0.000000 0.829350 0.000000
#
# Coordination Sequence:
#
# PCOD8269091 Si02
#       6
#    16   8  16  16  16   8
#     4  10  21  37  56  77 101 133 175 218 258 304
#     4   8  16  29  46  73 106 137 169 204 246 300
#     4  10  19  34  56  79 103 133 170 214 261 306
#     4  10  19  33  54  79 108 139 170 208 255 306
#     4  10  20  35  54  77 106 138 173 213 255 303
#     4   8  16  31  50  71  98 135 175 211 249 295
#
# _framework density 18.224599000000001
#
# number of rings (size 3 to 8) (size 9 to 14) (size 15 to 20)
#    0.000    2.400    2.000    0.600    0.000    2.600 
#    0.000    7.000    0.000    1.800    0.000    2.800 
#    0.000    0.000    0.000    0.000    0.000    0.000 
#
# Total GULP energy -495533.373559 kJ/mol
# GULP energy per Si atom -12388.334339 kJ/mol
# Density = 1.818312 g / cm^3
# Si number density = 18.224599 Si / 1000 Ang^3
#
#
#
# Elastic Constant Matrix: (Units=GPa)
#
#
# Indices 1 2 3 4 5 6 
#
# 1 79.3646 17.5476 39.9411 0.0000 0.0000 0.0000
# 2 17.5476 60.7515 19.7635 0.0000 0.0000 0.0000
# 3 39.9411 19.7635 70.3160 0.0000 0.0000 0.0000
# 4 0.0000 0.0000 0.0000 24.7807 0.0000 0.0000
# 5 0.0000 0.0000 0.0000 0.0000 28.1152 0.0000
# 6 0.0000 0.0000 0.0000 0.0000 0.0000 18.5289
#
#
#
# Elastic Compliance Matrix: (Units=1/GPa)
#
#
# Indices 1 2 3 4 5 6 
#
# 1 0.017872 -0.002047 -0.009576 0.000000 0.000000 0.000000
# 2 -0.002047 0.018351 -0.003995 0.000000 0.000000 0.000000
# 3 -0.009576 -0.003995 0.020784 0.000000 0.000000 0.000000
# 4 0.000000 0.000000 0.000000 0.040354 0.000000 0.000000
# 5 0.000000 0.000000 0.000000 0.000000 0.035568 0.000000
# 6 0.000000 0.000000 0.000000 0.000000 0.000000 0.053970
#
#
# Mechanical properties :
#
#
# Convention : Reuss Voigt Hill
#
# Bulk Modulus (GPa) = 38.80420 40.54850 39.67635
# Shear Modulus (GPa) = 22.05297 23.16361 22.60829
#
# Velocity S-wave (km/s) = 3.48237 3.56899 3.52595
# Velocity P-wave (km/s) = 6.12435 6.26747 6.19632
#
# Compressibility (1/GPa) = 0.02577041
#
# Stress axis : x y z
#
# Youngs Moduli (GPa) = 55.95321 54.49161 48.11366
#
# Poissons Ratio (x) = 0.11153 0.46076
# Poissons Ratio (y) = 0.11453 0.19223
# Poissons Ratio (z) = 0.53583 0.21771
#
# Static dielectric constant tensor:
#      x y z
#    x 3.245140 0.000000 0.000000 
#    y 0.000000 3.174620 0.000000 
#    z 0.000000 0.000000 3.672620 
# 
# 
# High freq. dielectric constant tensor:
#      x y z
#    x 1.693480 0.000000 0.000000 
#    y 0.000000 1.689280 0.000000 
#    z 0.000000 0.000000 1.715740 
# 
# From -- ./inp_files/30424.got.cif
#   From: 2010.03.12/outbox.cif.g09.slc.cpg/sg65_16_cif.got.tgz:30424.got - 2010.04.10 20:52:16.
