data_PCOD8269689
_publ_section_title
;
Structure prediction by ZEFSAII (Michael W. Deem and Ramdas Pophale) SiO2 
 PCOD8269689
Probable space group: C M M M
;
_chemical_formula_sum "Si O2"
_cell_formula_units_Z 88
_cell_length_a 13.536096
_cell_length_b 18.478867
_cell_length_c 20.169543
_cell_angle_alpha 90.000000
_cell_angle_beta 90.000000
_cell_angle_gamma 90.000000
_cell_volume 5045.042435
_symmetry_space_group_name_H-M "C M M M"
_symmetry_group_IT_number 65
_symmetry_cell_setting 'orthorhombic'
loop_
_space_group_symop_operation_xyz
x,y,z
-x,-y,z
x,-y,-z
-x,y,-z
-x,-y,-z
x,y,-z
-x,y,z
x,-y,z
1/2+x,1/2+y,z
1/2-x,1/2-y,z
1/2+x,1/2-y,-z
1/2-x,1/2+y,-z
1/2-x,1/2-y,-z
1/2+x,1/2+y,-z
1/2-x,1/2+y,z
1/2+x,1/2-y,z
loop_
_atom_site_type_symbol
_atom_site_label
_atom_site_fract_x
_atom_site_fract_y
_atom_site_fract_z
Si Si1 0.750000 0.750000 0.841944
Si Si2 0.112258 0.854165 0.077544
Si Si3 0.386273 0.710016 0.500000
Si Si4 0.724671 0.500000 0.076878
Si Si5 0.385897 0.152419 0.248324
Si Si6 0.264230 0.916370 0.500000
Si Si7 0.384890 0.833412 0.399784
Si Si8 0.112091 0.500000 0.813116
O O1 0.825811 0.792332 0.887637
O O2 0.685735 0.802997 0.797979
O O3 0.000000 0.852857 0.104028
O O4 0.158053 0.931543 0.094691
O O5 0.115285 0.838367 0.000000
O O6 0.500000 0.689833 0.500000
O O7 0.332463 0.633565 0.500000
O O8 0.357300 0.757422 0.435264
O O9 0.822667 0.500000 0.120826
O O10 0.757647 0.500000 0.000000
O O11 0.500000 0.173779 0.235169
O O12 0.354918 0.170277 0.323278
O O13 0.366978 0.068352 0.233594
O O14 0.327608 0.899433 0.434309
O O15 0.232083 0.000000 0.500000
O O16 0.500000 0.850239 0.408673
O O17 0.000000 0.500000 0.839405
#
# Coordination Sequence:
#
# PCOD8269689 Si02
#       8
#     8  16   8   8  16   8  16   8
#     4  12  21  34  58  81 114 138 178 222 268 333
#     4  10  21  37  57  80 107 141 182 229 274 319
#     4   9  19  37  57  75 106 143 181 220 258 311
#     4  10  19  37  58  79 104 141 188 226 269 322
#     4  10  22  36  55  81 109 145 178 216 272 327
#     4  11  22  32  53  85 109 137 179 219 266 310
#     4   9  19  36  56  79 105 138 179 221 266 314
#     4  10  20  38  55  77 112 145 180 220 270 331
#
# _framework density 17.442865999999999
#
# number of rings (size 3 to 8) (size 9 to 14) (size 15 to 20)
#    0.000    2.000    1.818    3.000    3.818    2.182 
#    0.000    0.000    0.000    0.000    0.000    0.000 
#    0.000    0.000    0.000    0.000    0.000    0.000 
#
# Total GULP energy -545659.711254 kJ/mol
# GULP energy per Si atom -12401.357074 kJ/mol
# Density = 1.740316 g / cm^3
# Si number density = 17.442866 Si / 1000 Ang^3
#
#
#
# Elastic Constant Matrix: (Units=GPa)
#
#
# Indices 1 2 3 4 5 6 
#
# 1 109.7448 69.3919 62.0071 0.0000 0.0000 0.0000
# 2 69.3919 139.5695 54.1490 0.0000 0.0000 0.0000
# 3 62.0071 54.1490 86.2504 0.0000 0.0000 0.0000
# 4 0.0000 0.0000 0.0000 23.9168 0.0000 0.0000
# 5 0.0000 0.0000 0.0000 0.0000 30.8130 0.0000
# 6 0.0000 0.0000 0.0000 0.0000 0.0000 33.4182
#
#
#
# Elastic Compliance Matrix: (Units=1/GPa)
#
#
# Indices 1 2 3 4 5 6 
#
# 1 0.017738 -0.005118 -0.009539 0.000000 0.000000 0.000000
# 2 -0.005118 0.010949 -0.003194 0.000000 0.000000 0.000000
# 3 -0.009539 -0.003194 0.020457 0.000000 0.000000 0.000000
# 4 0.000000 0.000000 0.000000 0.041812 0.000000 0.000000
# 5 0.000000 0.000000 0.000000 0.000000 0.032454 0.000000
# 6 0.000000 0.000000 0.000000 0.000000 0.000000 0.029924
#
#
# Mechanical properties :
#
#
# Convention : Reuss Voigt Hill
#
# Bulk Modulus (GPa) = 74.39729 78.51785 76.45757
# Shear Modulus (GPa) = 25.83766 27.63072 26.73419
#
# Velocity S-wave (km/s) = 3.85291 3.98436 3.91918
# Velocity P-wave (km/s) = 7.90808 8.14118 8.02548
#
# Compressibility (1/GPa) = 0.01344135
#
# Stress axis : x y z
#
# Youngs Moduli (GPa) = 56.37677 91.33375 48.88267
#
# Poissons Ratio (x) = 0.46746 0.46628
# Poissons Ratio (y) = 0.28855 0.15614
# Poissons Ratio (z) = 0.53777 0.29174
#
# Static dielectric constant tensor:
#      x y z
#    x 3.350080 0.000000 0.000000 
#    y 0.000000 4.095360 0.000000 
#    z 0.000000 0.000000 3.333890 
# 
# 
# High freq. dielectric constant tensor:
#      x y z
#    x 1.683610 0.000000 0.000000 
#    y 0.000000 1.673050 0.000000 
#    z 0.000000 0.000000 1.673700 
# 
# From -- ./inp_files/61536.got.cif
#   From: 2010.03.12/outbox.cif.g09.slc.cpg/sg65_31_cif.got.tgz:61536.got - 2010.04.10 20:52:16.
