data_PCOD8269983
_publ_section_title
;
Structure prediction by ZEFSAII (Michael W. Deem and Ramdas Pophale) SiO2 
 PCOD8269983
Probable space group: C M M M
;
_chemical_formula_sum "Si O2"
_cell_formula_units_Z 56
_cell_length_a 36.581218
_cell_length_b 9.105040
_cell_length_c 9.198466
_cell_angle_alpha 90.000000
_cell_angle_beta 90.000000
_cell_angle_gamma 90.000000
_cell_volume 3063.764834
_symmetry_space_group_name_H-M "C M M M"
_symmetry_group_IT_number 65
_symmetry_cell_setting 'orthorhombic'
loop_
_space_group_symop_operation_xyz
x,y,z
-x,-y,z
x,-y,-z
-x,y,-z
-x,-y,-z
x,y,-z
-x,y,z
x,-y,z
1/2+x,1/2+y,z
1/2-x,1/2-y,z
1/2+x,1/2-y,-z
1/2-x,1/2+y,-z
1/2-x,1/2-y,-z
1/2+x,1/2+y,-z
1/2-x,1/2+y,z
1/2+x,1/2-y,z
loop_
_atom_site_type_symbol
_atom_site_label
_atom_site_fract_x
_atom_site_fract_y
_atom_site_fract_z
Si Si1 0.285329 0.334276 0.673136
Si Si2 0.000000 0.826695 0.158114
Si Si3 0.421078 0.332845 0.826406
Si Si4 0.857562 0.328583 0.331896
O O1 0.284081 0.332391 0.500000
O O2 0.285137 0.500000 0.733315
O O3 0.250000 0.250000 0.736211
O O4 0.321820 0.254082 0.728742
O O5 0.038500 0.785291 0.236075
O O6 0.000000 0.000000 0.135405
O O7 0.000000 0.750186 0.000000
O O8 0.411739 0.500000 0.779510
O O9 0.392359 0.221963 0.758671
O O10 0.420780 0.319402 0.000000
O O11 0.864358 0.289999 0.500000
O O12 0.851100 0.500000 0.308317
#
# Coordination Sequence:
#
# PCOD8269983 Si02
#       4
#    16   8  16  16
#     4   9  16  27  45  68  93 122 157 196 235 276
#     4   7  12  26  48  71  92 116 152 197 238 279
#     4   9  17  31  52  74  94 120 157 199 241 285
#     4  10  20  32  46  68  99 131 161 194 233 278
#
# _framework density 18.278165999999999
#
# number of rings (size 3 to 8) (size 9 to 14) (size 15 to 20)
#    0.000    3.000    0.000    3.429    0.000    5.714 
#    0.000    1.429    0.000    7.714    0.000    0.000 
#    0.000    0.000    0.000    0.000    0.000    0.000 
#
# Total GULP energy -346987.575476 kJ/mol
# GULP energy per Si atom -12392.413410 kJ/mol
# Density = 1.823656 g / cm^3
# Si number density = 18.278166 Si / 1000 Ang^3
#
#
#
# Elastic Constant Matrix: (Units=GPa)
#
#
# Indices 1 2 3 4 5 6 
#
# 1 182.1567 70.7150 28.7825 0.0000 0.0000 0.0000
# 2 70.7150 102.7010 20.6459 0.0000 0.0000 0.0000
# 3 28.7825 20.6459 20.1118 0.0000 0.0000 0.0000
# 4 0.0000 0.0000 0.0000 20.4010 0.0000 0.0000
# 5 0.0000 0.0000 0.0000 0.0000 30.2594 0.0000
# 6 0.0000 0.0000 0.0000 0.0000 0.0000 34.8053
#
#
#
# Elastic Compliance Matrix: (Units=1/GPa)
#
#
# Indices 1 2 3 4 5 6 
#
# 1 0.008321 -0.004203 -0.007594 0.000000 0.000000 0.000000
# 2 -0.004203 0.014392 -0.008759 0.000000 0.000000 0.000000
# 3 -0.007594 -0.008759 0.069582 0.000000 0.000000 0.000000
# 4 0.000000 0.000000 0.000000 0.049017 0.000000 0.000000
# 5 0.000000 0.000000 0.000000 0.000000 0.033048 0.000000
# 6 0.000000 0.000000 0.000000 0.000000 0.000000 0.028731
#
#
# Mechanical properties :
#
#
# Convention : Reuss Voigt Hill
#
# Bulk Modulus (GPa) = 19.53791 60.58405 40.06098
# Shear Modulus (GPa) = 19.13769 29.41489 24.27629
#
# Velocity S-wave (km/s) = 3.23929 4.01595 3.64834
# Velocity P-wave (km/s) = 4.97022 7.39739 6.30176
#
# Compressibility (1/GPa) = 0.05118255
#
# Stress axis : x y z
#
# Youngs Moduli (GPa) = 120.17174 69.48390 14.37157
#
# Poissons Ratio (x) = 0.29204 0.10914
# Poissons Ratio (y) = 0.50509 0.12588
# Poissons Ratio (z) = 0.91262 0.60860
#
# Static dielectric constant tensor:
#      x y z
#    x 3.779700 0.000000 0.000000 
#    y 0.000000 3.285100 0.000000 
#    z 0.000000 0.000000 2.804880 
# 
# 
# High freq. dielectric constant tensor:
#      x y z
#    x 1.733760 0.000000 0.000000 
#    y 0.000000 1.700070 0.000000 
#    z 0.000000 0.000000 1.646760 
# 
# From -- ./inp_files/33127.got.cif
#   From: 2010.03.12/outbox.cif.g09.slc.cpg/sg65_17_cif.got.tgz:33127.got - 2010.04.10 20:52:16.
