data_PCOD8269552
_publ_section_title
;
Structure prediction by ZEFSAII (Michael W. Deem and Ramdas Pophale) SiO2 
 PCOD8269552
Probable space group: C M M M
;
_chemical_formula_sum "Si O2"
_cell_formula_units_Z 104
_cell_length_a 28.908886
_cell_length_b 8.640869
_cell_length_c 22.918512
_cell_angle_alpha 90.000000
_cell_angle_beta 90.000000
_cell_angle_gamma 90.000000
_cell_volume 5724.996097
_symmetry_space_group_name_H-M "C M M M"
_symmetry_group_IT_number 65
_symmetry_cell_setting 'orthorhombic'
loop_
_space_group_symop_operation_xyz
x,y,z
-x,-y,z
x,-y,-z
-x,y,-z
-x,-y,-z
x,y,-z
-x,y,z
x,-y,z
1/2+x,1/2+y,z
1/2-x,1/2-y,z
1/2+x,1/2-y,-z
1/2-x,1/2+y,-z
1/2-x,1/2-y,-z
1/2+x,1/2+y,-z
1/2-x,1/2+y,z
1/2+x,1/2-y,z
loop_
_atom_site_type_symbol
_atom_site_label
_atom_site_fract_x
_atom_site_fract_y
_atom_site_fract_z
Si Si1 0.352561 0.683492 0.115380
Si Si2 0.800862 0.816831 0.000000
Si Si3 0.701082 0.181496 0.567149
Si Si4 0.300301 0.182763 0.224586
Si Si5 0.450143 0.316943 0.151231
Si Si6 0.449478 0.316314 0.717720
Si Si7 0.354626 0.683546 0.667647
O O1 0.346446 0.500000 0.123933
O O2 0.332057 0.769401 0.170772
O O3 0.406900 0.731504 0.110668
O O4 0.327828 0.743297 0.056946
O O5 0.750000 0.750000 0.000000
O O6 0.798217 0.000000 0.000000
O O7 0.691437 0.223417 0.500000
O O8 0.750000 0.250000 0.587814
O O9 0.660137 0.258419 0.604026
O O10 0.702063 0.000000 0.578307
O O11 0.250000 0.250000 0.212850
O O12 0.320186 0.248341 0.284516
O O13 0.297334 0.000000 0.229143
O O14 0.500000 0.255413 0.126705
O O15 0.452300 0.500000 0.154957
O O16 0.442384 0.252221 0.216670
O O17 0.500000 0.260541 0.693774
O O18 0.448070 0.500000 0.718692
O O19 0.407136 0.255071 0.678148
O O20 0.351861 0.500000 0.671022
#
# Coordination Sequence:
#
# PCOD8269552 Si02
#       7
#    16   8  16  16  16  16  16
#     4  10  19  35  54  76 103 134 173 214 260 310
#     4  10  22  36  53  73  99 135 176 220 261 314
#     4  10  21  37  55  76 106 143 181 219 258 306
#     4  12  24  36  51  74 104 136 171 214 264 313
#     4   8  13  25  49  77 104 133 165 205 256 311
#     4   8  14  26  48  78 106 134 168 207 255 308
#     4  11  20  33  55  81 108 137 172 216 261 308
#
# _framework density 18.165951
#
# number of rings (size 3 to 8) (size 9 to 14) (size 15 to 20)
#    0.000    2.154    1.538    4.154    0.000    2.769 
#    0.000    0.385    0.000    6.000    0.000    3.231 
#    0.000    1.846    0.000    0.000    0.000    0.000 
#
# Total GULP energy -644585.324592 kJ/mol
# GULP energy per Si atom -12395.871627 kJ/mol
# Density = 1.812460 g / cm^3
# Si number density = 18.165951 Si / 1000 Ang^3
#
#
#
# Elastic Constant Matrix: (Units=GPa)
#
#
# Indices 1 2 3 4 5 6 
#
# 1 170.0629 27.1327 62.2600 0.0000 0.0000 0.0000
# 2 27.1327 56.3311 24.5616 0.0000 0.0000 0.0000
# 3 62.2600 24.5616 89.1622 0.0000 0.0000 0.0000
# 4 0.0000 0.0000 0.0000 16.9654 0.0000 0.0000
# 5 0.0000 0.0000 0.0000 0.0000 32.0794 0.0000
# 6 0.0000 0.0000 0.0000 0.0000 0.0000 18.8567
#
#
#
# Elastic Compliance Matrix: (Units=1/GPa)
#
#
# Indices 1 2 3 4 5 6 
#
# 1 0.008027 -0.001617 -0.005160 0.000000 0.000000 0.000000
# 2 -0.001617 0.020501 -0.004519 0.000000 0.000000 0.000000
# 3 -0.005160 -0.004519 0.016063 0.000000 0.000000 0.000000
# 4 0.000000 0.000000 0.000000 0.058943 0.000000 0.000000
# 5 0.000000 0.000000 0.000000 0.000000 0.031173 0.000000
# 6 0.000000 0.000000 0.000000 0.000000 0.000000 0.053031
#
#
# Mechanical properties :
#
#
# Convention : Reuss Voigt Hill
#
# Bulk Modulus (GPa) = 45.45177 60.38498 52.91837
# Shear Modulus (GPa) = 22.97131 27.02044 24.99587
#
# Velocity S-wave (km/s) = 3.55987 3.86090 3.71344
# Velocity P-wave (km/s) = 6.47855 7.29303 6.89782
#
# Compressibility (1/GPa) = 0.02200134
#
# Stress axis : x y z
#
# Youngs Moduli (GPa) = 124.57795 48.77801 62.25383
#
# Poissons Ratio (x) = 0.07885 0.32122
# Poissons Ratio (y) = 0.20139 0.28130
# Poissons Ratio (z) = 0.64280 0.22041
#
# Static dielectric constant tensor:
#      x y z
#    x 3.909150 0.000000 0.000000 
#    y 0.000000 3.111390 0.000000 
#    z 0.000000 0.000000 3.315280 
# 
# 
# High freq. dielectric constant tensor:
#      x y z
#    x 1.721550 0.000000 0.000000 
#    y 0.000000 1.678760 0.000000 
#    z 0.000000 0.000000 1.684620 
# 
# From -- ./inp_files/71837.got.cif
#   From: 2010.03.12/outbox.cif.g09.slc.cpg/sg65_36_cif.got.tgz:71837.got - 2010.04.10 20:52:16.
