data_PCOD8269800
_publ_section_title
;
Structure prediction by ZEFSAII (Michael W. Deem and Ramdas Pophale) SiO2 
 PCOD8269800
Probable space group: C M M M
;
_chemical_formula_sum "Si O2"
_cell_formula_units_Z 120
_cell_length_a 9.012990
_cell_length_b 30.088404
_cell_length_c 28.359445
_cell_angle_alpha 90.000000
_cell_angle_beta 90.000000
_cell_angle_gamma 90.000000
_cell_volume 7690.698188
_symmetry_space_group_name_H-M "C M M M"
_symmetry_group_IT_number 65
_symmetry_cell_setting 'orthorhombic'
loop_
_space_group_symop_operation_xyz
x,y,z
-x,-y,z
x,-y,-z
-x,y,-z
-x,-y,-z
x,y,-z
-x,y,z
x,-y,z
1/2+x,1/2+y,z
1/2-x,1/2-y,z
1/2+x,1/2-y,-z
1/2-x,1/2+y,-z
1/2-x,1/2-y,-z
1/2+x,1/2+y,-z
1/2-x,1/2+y,z
1/2+x,1/2-y,z
loop_
_atom_site_type_symbol
_atom_site_label
_atom_site_fract_x
_atom_site_fract_y
_atom_site_fract_z
Si Si1 0.170227 0.331929 0.051521
Si Si2 0.335172 0.414711 0.917920
Si Si3 0.667127 0.619906 0.186859
Si Si4 0.324652 0.204585 0.848704
Si Si5 0.174360 0.448396 0.255781
Si Si6 0.176322 0.049760 0.450088
Si Si7 0.333770 0.552811 0.349521
Si Si8 0.174683 0.500000 0.946681
O O1 0.266969 0.376349 0.049736
O O2 0.218281 0.301448 0.095734
O O3 0.000000 0.346251 0.058676
O O4 0.191974 0.308118 0.000000
O O5 0.500000 0.425427 0.936636
O O6 0.339470 0.400238 0.864454
O O7 0.233054 0.457464 0.919612
O O8 0.500000 0.629873 0.205077
O O9 0.761057 0.665450 0.184369
O O10 0.744050 0.583502 0.219471
O O11 0.500000 0.207164 0.841405
O O12 0.250000 0.250000 0.831458
O O13 0.219602 0.500000 0.246575
O O14 0.222693 0.432985 0.308081
O O15 0.000000 0.441861 0.250413
O O16 0.225466 0.073823 0.500000
O O17 0.226628 0.072458 0.400263
O O18 0.000000 0.047832 0.447824
O O19 0.241000 0.000000 0.452202
O O20 0.500000 0.570501 0.337969
O O21 0.338810 0.500000 0.354676
O O22 0.000000 0.500000 0.944306
O O23 0.233908 0.500000 0.000000
#
# Coordination Sequence:
#
# PCOD8269800 Si02
#       8
#    16  16  16  16  16  16  16   8
#     4   9  18  33  51  70  93 119 142 165 200 248
#     4  10  21  34  48  67  87 109 140 180 217 250
#     4  10  21  36  52  69  89 113 145 182 222 264
#     4  10  20  35  54  74  96 118 142 173 210 255
#     4  10  20  31  44  64  89 118 151 188 229 271
#     4   7   9  14  27  48  72  99 137 184 226 261
#     4   8  13  22  36  54  77 108 145 185 227 265
#     4  11  23  35  47  63  85 115 145 171 206 255
#
# _framework density 15.603266
#
# number of rings (size 3 to 8) (size 9 to 14) (size 15 to 20)
#    0.000    2.733    0.000    3.400    0.933    5.600 
#    0.000    0.000    0.000    0.400    0.000    2.800 
#    0.000    0.000    0.000    0.000    0.000    0.667 
#
# Total GULP energy -743349.297446 kJ/mol
# GULP energy per Si atom -12389.154957 kJ/mol
# Density = 1.556775 g / cm^3
# Si number density = 15.603266 Si / 1000 Ang^3
#
#
#
# Elastic Constant Matrix: (Units=GPa)
#
#
# Indices 1 2 3 4 5 6 
#
# 1 74.6706 36.5727 30.6648 0.0000 0.0000 0.0000
# 2 36.5727 70.8099 25.2800 0.0000 0.0000 0.0000
# 3 30.6648 25.2800 75.9913 0.0000 0.0000 0.0000
# 4 0.0000 0.0000 0.0000 9.7099 0.0000 0.0000
# 5 0.0000 0.0000 0.0000 0.0000 14.2550 0.0000
# 6 0.0000 0.0000 0.0000 0.0000 0.0000 22.2632
#
#
#
# Elastic Compliance Matrix: (Units=1/GPa)
#
#
# Indices 1 2 3 4 5 6 
#
# 1 0.019550 -0.008262 -0.005140 0.000000 0.000000 0.000000
# 2 -0.008262 0.019517 -0.003159 0.000000 0.000000 0.000000
# 3 -0.005140 -0.003159 0.016285 0.000000 0.000000 0.000000
# 4 0.000000 0.000000 0.000000 0.102988 0.000000 0.000000
# 5 0.000000 0.000000 0.000000 0.000000 0.070151 0.000000
# 6 0.000000 0.000000 0.000000 0.000000 0.000000 0.044917
#
#
# Mechanical properties :
#
#
# Convention : Reuss Voigt Hill
#
# Bulk Modulus (GPa) = 44.98613 45.16741 45.07677
# Shear Modulus (GPa) = 15.92659 17.84256 16.88457
#
# Velocity S-wave (km/s) = 3.19834 3.38526 3.29312
# Velocity P-wave (km/s) = 6.52173 6.65509 6.58875
#
# Compressibility (1/GPa) = 0.02222908
#
# Stress axis : x y z
#
# Youngs Moduli (GPa) = 51.15134 51.23637 61.40789
#
# Poissons Ratio (x) = 0.42332 0.31566
# Poissons Ratio (y) = 0.42262 0.19398
# Poissons Ratio (z) = 0.26294 0.16185
#
# Static dielectric constant tensor:
#      x y z
#    x 3.059230 0.000000 0.000000 
#    y 0.000000 2.610580 0.000000 
#    z 0.000000 0.000000 3.360050 
# 
# 
# High freq. dielectric constant tensor:
#      x y z
#    x 1.600180 0.000000 0.000000 
#    y 0.000000 1.548840 0.000000 
#    z 0.000000 0.000000 1.595980 
# 
# From -- ./inp_files/74012.got.cif
#   From: 2010.03.12/outbox.cif.g09.slc.cpg/sg65_38_cif.got.tgz:74012.got - 2010.04.10 20:52:16.
