data_PCOD8269629
_publ_section_title
;
Structure prediction by ZEFSAII (Michael W. Deem and Ramdas Pophale) SiO2 
 PCOD8269629
Probable space group: C M M M
;
_chemical_formula_sum "Si O2"
_cell_formula_units_Z 48
_cell_length_a 16.094798
_cell_length_b 7.729155
_cell_length_c 18.659418
_cell_angle_alpha 90.000000
_cell_angle_beta 90.000000
_cell_angle_gamma 90.000000
_cell_volume 2321.216456
_symmetry_space_group_name_H-M "C M M M"
_symmetry_group_IT_number 65
_symmetry_cell_setting 'orthorhombic'
loop_
_space_group_symop_operation_xyz
x,y,z
-x,-y,z
x,-y,-z
-x,y,-z
-x,-y,-z
x,y,-z
-x,y,z
x,-y,z
1/2+x,1/2+y,z
1/2-x,1/2-y,z
1/2+x,1/2-y,-z
1/2-x,1/2+y,-z
1/2-x,1/2-y,-z
1/2+x,1/2+y,-z
1/2-x,1/2+y,z
1/2+x,1/2-y,z
loop_
_atom_site_type_symbol
_atom_site_label
_atom_site_fract_x
_atom_site_fract_y
_atom_site_fract_z
Si Si1 0.000000 0.705357 0.419709
Si Si2 0.157123 0.804218 0.831509
Si Si3 0.657392 0.796472 0.328161
Si Si4 0.592745 0.000000 0.923057
O O1 0.915043 0.770041 0.381531
O O2 0.000000 0.500000 0.421218
O O3 0.000000 0.781597 0.500000
O O4 0.250000 0.750000 0.847975
O O5 0.139116 0.795219 0.747007
O O6 0.102938 0.672433 0.876488
O O7 0.140083 0.000000 0.857437
O O8 0.750000 0.750000 0.357581
O O9 0.651820 0.000000 0.316029
O O10 0.500000 0.000000 0.947723
O O11 0.643362 0.000000 0.000000
#
# Coordination Sequence:
#
# PCOD8269629 Si02
#       4
#     8  16  16   8
#     4   9  20  36  57  87 121 165 207 246 315 382
#     4  11  21  40  66  93 122 162 216 259 307 371
#     4  10  19  35  60  87 121 159 209 261 307 366
#     4  11  26  44  62  92 131 165 202 257 324 376
#
# _framework density 20.678813000000002
#
# number of rings (size 3 to 8) (size 9 to 14) (size 15 to 20)
#    0.000    1.667    3.333    3.000    2.333    2.667 
#    0.000    4.167    0.000    7.000    0.000    0.000 
#    0.000    0.000    0.000    0.000    0.000    0.000 
#
# Total GULP energy -297455.361728 kJ/mol
# GULP energy per Si atom -12393.973405 kJ/mol
# Density = 2.063175 g / cm^3
# Si number density = 20.678813 Si / 1000 Ang^3
#
#
#
# Elastic Constant Matrix: (Units=GPa)
#
#
# Indices 1 2 3 4 5 6 
#
# 1 130.3138 28.7350 76.6355 0.0000 0.0000 0.0000
# 2 28.7350 144.5722 36.9047 0.0000 0.0000 0.0000
# 3 76.6355 36.9047 102.7311 0.0000 0.0000 0.0000
# 4 0.0000 0.0000 0.0000 23.4299 0.0000 0.0000
# 5 0.0000 0.0000 0.0000 0.0000 23.9575 0.0000
# 6 0.0000 0.0000 0.0000 0.0000 0.0000 22.6401
#
#
#
# Elastic Compliance Matrix: (Units=1/GPa)
#
#
# Indices 1 2 3 4 5 6 
#
# 1 0.013674 -0.000125 -0.010155 0.000000 0.000000 0.000000
# 2 -0.000125 0.007616 -0.002643 0.000000 0.000000 0.000000
# 3 -0.010155 -0.002643 0.018259 0.000000 0.000000 0.000000
# 4 0.000000 0.000000 0.000000 0.042681 0.000000 0.000000
# 5 0.000000 0.000000 0.000000 0.000000 0.041741 0.000000
# 6 0.000000 0.000000 0.000000 0.000000 0.000000 0.044169
#
#
# Mechanical properties :
#
#
# Convention : Reuss Voigt Hill
#
# Bulk Modulus (GPa) = 72.97803 73.57416 73.27610
# Shear Modulus (GPa) = 25.18217 29.69496 27.43856
#
# Velocity S-wave (km/s) = 3.49345 3.79358 3.64661
# Velocity P-wave (km/s) = 7.18610 7.40575 7.29675
#
# Compressibility (1/GPa) = 0.01370275
#
# Stress axis : x y z
#
# Youngs Moduli (GPa) = 73.13408 131.29493 54.76761
#
# Poissons Ratio (x) = 0.01647 0.55617
# Poissons Ratio (y) = 0.00918 0.14472
# Poissons Ratio (z) = 0.74269 0.34695
#
# Static dielectric constant tensor:
#      x y z
#    x 3.910550 0.000000 0.000000 
#    y 0.000000 3.394470 0.000000 
#    z 0.000000 0.000000 3.763840 
# 
# 
# High freq. dielectric constant tensor:
#      x y z
#    x 1.808140 0.000000 0.000000 
#    y 0.000000 1.809600 0.000000 
#    z 0.000000 0.000000 1.803680 
# 
# From -- ./inp_files/41653.got.cif
#   From: 2010.03.12/outbox.cif.g09.slc.cpg/sg65_21_cif.got.tgz:41653.got - 2010.04.10 20:52:16.
