data_PCOD8269515
_publ_section_title
;
Structure prediction by ZEFSAII (Michael W. Deem and Ramdas Pophale) SiO2 
 PCOD8269515
Probable space group: C M M M
;
_chemical_formula_sum "Si O2"
_cell_formula_units_Z 72
_cell_length_a 23.671091
_cell_length_b 17.831525
_cell_length_c 8.726633
_cell_angle_alpha 90.000000
_cell_angle_beta 90.000000
_cell_angle_gamma 90.000000
_cell_volume 3683.438930
_symmetry_space_group_name_H-M "C M M M"
_symmetry_group_IT_number 65
_symmetry_cell_setting 'orthorhombic'
loop_
_space_group_symop_operation_xyz
x,y,z
-x,-y,z
x,-y,-z
-x,y,-z
-x,-y,-z
x,y,-z
-x,y,z
x,-y,z
1/2+x,1/2+y,z
1/2-x,1/2-y,z
1/2+x,1/2-y,-z
1/2-x,1/2+y,-z
1/2-x,1/2-y,-z
1/2+x,1/2+y,-z
1/2-x,1/2+y,z
1/2+x,1/2-y,z
loop_
_atom_site_type_symbol
_atom_site_label
_atom_site_fract_x
_atom_site_fract_y
_atom_site_fract_z
Si Si1 0.564712 0.289397 0.680764
Si Si2 0.063279 0.500000 0.182396
Si Si3 0.250544 0.667068 0.179582
Si Si4 0.124479 0.353155 0.820121
Si Si5 0.138830 0.085182 0.182334
O O1 0.569236 0.295349 0.500000
O O2 0.500000 0.277354 0.733842
O O3 0.602925 0.220834 0.736845
O O4 0.587158 0.366552 0.752683
O O5 0.092378 0.574725 0.246860
O O6 0.000000 0.500000 0.244185
O O7 0.066881 0.500000 0.000000
O O8 0.250000 0.750000 0.253960
O O9 0.190114 0.629980 0.214468
O O10 0.301453 0.617176 0.247740
O O11 0.261568 0.674686 0.000000
O O12 0.113685 0.341260 0.000000
O O13 0.132197 0.000000 0.240572
O O14 0.137352 0.088697 0.000000
#
# Coordination Sequence:
#
# PCOD8269515 Si02
#       5
#    16   8  16  16  16
#     4  11  24  40  57  78 108 149 194 237 284 335
#     4   9  18  30  49  83 117 143 178 225 270 316
#     4   9  16  30  54  85 113 138 173 221 276 325
#     4  10  19  34  58  85 114 147 184 228 277 334
#     4  10  21  37  59  87 116 146 184 230 280 337
#
# _framework density 19.546952000000001
#
# number of rings (size 3 to 8) (size 9 to 14) (size 15 to 20)
#    0.000    2.111    2.222    1.333    1.556    3.556 
#    0.000    5.000    0.000    2.000    0.000    0.000 
#    0.000    0.000    0.000    0.000    0.000    0.000 
#
# Total GULP energy -446384.722568 kJ/mol
# GULP energy per Si atom -12399.575627 kJ/mol
# Density = 1.950246 g / cm^3
# Si number density = 19.546952 Si / 1000 Ang^3
#
#
#
# Elastic Constant Matrix: (Units=GPa)
#
#
# Indices 1 2 3 4 5 6 
#
# 1 82.1895 31.4545 15.8184 0.0000 0.0000 0.0000
# 2 31.4545 135.2096 21.2677 0.0000 0.0000 0.0000
# 3 15.8184 21.2677 26.2027 0.0000 0.0000 0.0000
# 4 0.0000 0.0000 0.0000 5.2349 0.0000 0.0000
# 5 0.0000 0.0000 0.0000 0.0000 15.9073 0.0000
# 6 0.0000 0.0000 0.0000 0.0000 0.0000 40.4808
#
#
#
# Elastic Compliance Matrix: (Units=1/GPa)
#
#
# Indices 1 2 3 4 5 6 
#
# 1 0.014347 -0.002264 -0.006823 0.000000 0.000000 0.000000
# 2 -0.002264 0.008836 -0.005805 0.000000 0.000000 0.000000
# 3 -0.006823 -0.005805 0.046994 0.000000 0.000000 0.000000
# 4 0.000000 0.000000 0.000000 0.191024 0.000000 0.000000
# 5 0.000000 0.000000 0.000000 0.000000 0.062864 0.000000
# 6 0.000000 0.000000 0.000000 0.000000 0.000000 0.024703
#
#
# Mechanical properties :
#
#
# Convention : Reuss Voigt Hill
#
# Bulk Modulus (GPa) = 24.75695 42.29809 33.52752
# Shear Modulus (GPa) = 12.75456 23.99536 18.37496
#
# Velocity S-wave (km/s) = 2.55720 3.50748 3.06934
# Velocity P-wave (km/s) = 4.62730 6.17166 5.45442
#
# Compressibility (1/GPa) = 0.04039270
#
# Stress axis : x y z
#
# Youngs Moduli (GPa) = 69.70209 113.17692 21.27909
#
# Poissons Ratio (x) = 0.25627 0.14519
# Poissons Ratio (y) = 0.15783 0.12352
# Poissons Ratio (z) = 0.47559 0.65695
#
# Static dielectric constant tensor:
#      x y z
#    x 3.787460 0.000000 0.000000 
#    y 0.000000 3.752490 0.000000 
#    z 0.000000 0.000000 3.084550 
# 
# 
# High freq. dielectric constant tensor:
#      x y z
#    x 1.777290 0.000000 0.000000 
#    y 0.000000 1.771390 0.000000 
#    z 0.000000 0.000000 1.711920 
# 
# From -- ./inp_files/9251.got.cif
#   From: 2010.03.12/outbox.cif.g09.slc.cpg/sg65_5_cif.got.tgz:9251.got - 2010.04.10 20:52:16.
