data_PCOD8269622
_publ_section_title
;
Structure prediction by ZEFSAII (Michael W. Deem and Ramdas Pophale) SiO2 
 PCOD8269622
Probable space group: C M M M
;
_chemical_formula_sum "Si O2"
_cell_formula_units_Z 96
_cell_length_a 11.386540
_cell_length_b 13.829250
_cell_length_c 31.264518
_cell_angle_alpha 90.000000
_cell_angle_beta 90.000000
_cell_angle_gamma 90.000000
_cell_volume 4923.139495
_symmetry_space_group_name_H-M "C M M M"
_symmetry_group_IT_number 65
_symmetry_cell_setting 'orthorhombic'
loop_
_space_group_symop_operation_xyz
x,y,z
-x,-y,z
x,-y,-z
-x,y,-z
-x,-y,-z
x,y,-z
-x,y,z
x,-y,z
1/2+x,1/2+y,z
1/2-x,1/2-y,z
1/2+x,1/2-y,-z
1/2-x,1/2+y,-z
1/2-x,1/2-y,-z
1/2+x,1/2+y,-z
1/2-x,1/2+y,z
1/2+x,1/2-y,z
loop_
_atom_site_type_symbol
_atom_site_label
_atom_site_fract_x
_atom_site_fract_y
_atom_site_fract_z
Si Si1 0.500000 0.885242 0.548393
Si Si2 0.864037 0.500000 0.953190
Si Si3 0.257351 0.113982 0.582911
Si Si4 0.750000 0.750000 0.265067
Si Si5 0.630823 0.384680 0.500000
Si Si6 0.363496 0.611293 0.668509
Si Si7 0.359533 0.819647 0.894733
Si Si8 0.363874 0.106223 0.199686
O O1 0.500000 0.841534 0.500000
O O2 0.609578 0.851260 0.576773
O O3 0.500000 0.000000 0.543244
O O4 0.830632 0.406320 0.926440
O O5 0.000000 0.500000 0.961787
O O6 0.800484 0.500000 0.000000
O O7 0.188079 0.158842 0.542746
O O8 0.207624 0.152478 0.627683
O O9 0.242773 0.000000 0.582452
O O10 0.663852 0.682531 0.292517
O O11 0.674656 0.820750 0.236110
O O12 0.642777 0.500000 0.500000
O O13 0.500000 0.347222 0.500000
O O14 0.500000 0.615971 0.657313
O O15 0.327342 0.500000 0.679520
O O16 0.500000 0.784648 0.899682
O O17 0.250000 0.750000 0.906499
O O18 0.335328 0.851318 0.846512
O O19 0.500000 0.091020 0.205248
O O20 0.303080 0.000000 0.204562
#
# Coordination Sequence:
#
# PCOD8269622 Si02
#       8
#     8   8  16   8   8  16  16  16
#     4   9  14  24  44  76 112 138 171 223 277 325
#     4   9  18  34  59  89 125 175 223 257 305 376
#     4   9  16  28  47  73 106 141 177 222 270 329
#     4  12  22  38  60  85 111 144 190 248 298 348
#     4   9  14  21  41  72  99 130 175 218 262 320
#     4  10  22  40  58  80 114 152 187 226 285 351
#     4  10  19  35  59  88 123 162 209 261 310 364
#     4  10  20  36  59  86 115 151 195 247 301 356
#
# _framework density 19.499752000000001
#
# number of rings (size 3 to 8) (size 9 to 14) (size 15 to 20)
#    0.000    2.250    2.500    1.500    0.000    2.333 
#    3.000    0.417    0.000    2.000    0.000    0.000 
#    0.000    0.000    0.000    0.000    0.000    1.000 
#
# Total GULP energy -594687.178366 kJ/mol
# GULP energy per Si atom -12389.316216 kJ/mol
# Density = 1.945537 g / cm^3
# Si number density = 19.499752 Si / 1000 Ang^3
#
#
#
# Elastic Constant Matrix: (Units=GPa)
#
#
# Indices 1 2 3 4 5 6 
#
# 1 109.6361 44.8005 56.6332 0.0000 0.0000 0.0000
# 2 44.8005 99.2421 52.7305 0.0000 0.0000 0.0000
# 3 56.6332 52.7305 149.8070 0.0000 0.0000 0.0000
# 4 0.0000 0.0000 0.0000 -22.6416 0.0000 0.0000
# 5 0.0000 0.0000 0.0000 0.0000 29.9029 0.0000
# 6 0.0000 0.0000 0.0000 0.0000 0.0000 16.5631
#
#
#
# Elastic Compliance Matrix: (Units=1/GPa)
#
#
# Indices 1 2 3 4 5 6 
#
# 1 0.012413 -0.003826 -0.003346 0.000000 0.000000 0.000000
# 2 -0.003826 0.013573 -0.003331 0.000000 0.000000 0.000000
# 3 -0.003346 -0.003331 0.009113 0.000000 0.000000 0.000000
# 4 0.000000 0.000000 0.000000 -0.044167 0.000000 0.000000
# 5 0.000000 0.000000 0.000000 0.000000 0.033442 0.000000
# 6 0.000000 0.000000 0.000000 0.000000 0.000000 0.060375
#
#
# Mechanical properties :
#
#
# Convention : Reuss Voigt Hill
#
# Bulk Modulus (GPa) = 70.95762 74.11260 72.53511
# Shear Modulus (GPa) = 45.26808 18.39960 31.83384
#
# Velocity S-wave (km/s) = 4.82339 3.07511 4.04484
# Velocity P-wave (km/s) = 8.21511 7.12024 7.68720
#
# Compressibility (1/GPa) = 0.01409292
#
# Stress axis : x y z
#
# Youngs Moduli (GPa) = 80.56263 73.67307 109.73573
#
# Poissons Ratio (x) = 0.28185 0.36717
# Poissons Ratio (y) = 0.30820 0.36558
# Poissons Ratio (z) = 0.26956 0.24544
#
# Static dielectric constant tensor:
#      x y z
#    x 3.634510 0.000000 0.000000 
#    y 0.000000 3.592380 0.000000 
#    z 0.000000 0.000000 3.762760 
# 
# 
# High freq. dielectric constant tensor:
#      x y z
#    x 1.750420 0.000000 0.000000 
#    y 0.000000 1.763120 0.000000 
#    z 0.000000 0.000000 1.759950 
# 
# From -- ./inp_files/77406.got.cif
#   From: 2010.03.12/outbox.cif.g09.slc.cpg/sg65_39_cif.got.tgz:77406.got - 2010.04.10 20:52:16.
