data_PCOD8269483
_publ_section_title
;
Structure prediction by ZEFSAII (Michael W. Deem and Ramdas Pophale) SiO2 
 PCOD8269483
Probable space group: C M M M
;
_chemical_formula_sum "Si O2"
_cell_formula_units_Z 88
_cell_length_a 9.037795
_cell_length_b 26.363975
_cell_length_c 18.971429
_cell_angle_alpha 90.000000
_cell_angle_beta 90.000000
_cell_angle_gamma 90.000000
_cell_volume 4520.364152
_symmetry_space_group_name_H-M "C M M M"
_symmetry_group_IT_number 65
_symmetry_cell_setting 'orthorhombic'
loop_
_space_group_symop_operation_xyz
x,y,z
-x,-y,z
x,-y,-z
-x,y,-z
-x,-y,-z
x,y,-z
-x,y,z
x,-y,z
1/2+x,1/2+y,z
1/2-x,1/2-y,z
1/2+x,1/2-y,-z
1/2-x,1/2+y,-z
1/2-x,1/2-y,-z
1/2+x,1/2+y,-z
1/2-x,1/2+y,z
1/2+x,1/2-y,z
loop_
_atom_site_type_symbol
_atom_site_label
_atom_site_fract_x
_atom_site_fract_y
_atom_site_fract_z
Si Si1 0.334534 0.298305 0.416623
Si Si2 0.824192 0.500000 0.921164
Si Si3 0.330525 0.442805 0.293104
Si Si4 0.173859 0.301235 0.080869
Si Si5 0.175552 0.598551 0.836977
Si Si6 0.174405 0.400793 0.580697
O O1 0.344950 0.292487 0.500000
O O2 0.500000 0.302067 0.384643
O O3 0.250000 0.250000 0.383830
O O4 0.239719 0.346960 0.395637
O O5 0.767698 0.449162 0.882803
O O6 0.000000 0.500000 0.923437
O O7 0.758732 0.500000 0.000000
O O8 0.500000 0.426196 0.302727
O O9 0.317636 0.500000 0.263995
O O10 0.251232 0.404424 0.239371
O O11 0.249199 0.442031 0.368801
O O12 0.250000 0.250000 0.109669
O O13 0.227672 0.349482 0.126055
O O14 0.000000 0.293854 0.088032
O O15 0.220090 0.311296 0.000000
O O16 0.000000 0.596927 0.827263
O O17 0.215373 0.414019 0.500000
O O18 0.000000 0.399948 0.591806
#
# Coordination Sequence:
#
# PCOD8269483 Si02
#       6
#    16   8  16  16  16  16
#     4   9  16  28  49  77 109 141 172 212 267 327
#     4   9  16  28  53  87 114 139 178 231 281 322
#     4  11  24  40  57  78 109 147 184 228 289 355
#     4   9  18  33  55  85 119 155 194 234 278 330
#     4  10  19  34  57  83 112 148 191 235 278 334
#     4  10  21  37  58  83 108 138 184 238 288 343
#
# _framework density 19.467458000000001
#
# number of rings (size 3 to 8) (size 9 to 14) (size 15 to 20)
#    0.000    2.273    0.909    2.182    0.000    7.636 
#    0.000    2.727    0.000    4.364    0.000    0.000 
#    0.000    0.000    0.000    0.000    0.000    0.000 
#
# Total GULP energy -545635.230430 kJ/mol
# GULP energy per Si atom -12400.800692 kJ/mol
# Density = 1.942315 g / cm^3
# Si number density = 19.467458 Si / 1000 Ang^3
#
#
#
# Elastic Constant Matrix: (Units=GPa)
#
#
# Indices 1 2 3 4 5 6 
#
# 1 83.5644 43.8699 46.6654 0.0000 0.0000 0.0000
# 2 43.8699 127.0866 54.6632 0.0000 0.0000 0.0000
# 3 46.6654 54.6632 101.9816 0.0000 0.0000 0.0000
# 4 0.0000 0.0000 0.0000 28.1934 0.0000 0.0000
# 5 0.0000 0.0000 0.0000 0.0000 22.8813 0.0000
# 6 0.0000 0.0000 0.0000 0.0000 0.0000 32.7834
#
#
#
# Elastic Compliance Matrix: (Units=1/GPa)
#
#
# Indices 1 2 3 4 5 6 
#
# 1 0.017072 -0.003292 -0.006047 0.000000 0.000000 0.000000
# 2 -0.003292 0.010861 -0.004315 0.000000 0.000000 0.000000
# 3 -0.006047 -0.004315 0.014886 0.000000 0.000000 0.000000
# 4 0.000000 0.000000 0.000000 0.035469 0.000000 0.000000
# 5 0.000000 0.000000 0.000000 0.000000 0.043704 0.000000
# 6 0.000000 0.000000 0.000000 0.000000 0.000000 0.030503
#
#
# Mechanical properties :
#
#
# Convention : Reuss Voigt Hill
#
# Bulk Modulus (GPa) = 64.47566 67.00328 65.73947
# Shear Modulus (GPa) = 27.03066 27.93391 27.48229
#
# Velocity S-wave (km/s) = 3.73031 3.79212 3.76134
# Velocity P-wave (km/s) = 7.19341 7.32573 7.25988
#
# Compressibility (1/GPa) = 0.01550973
#
# Stress axis : x y z
#
# Youngs Moduli (GPa) = 58.57470 92.07094 67.17762
#
# Poissons Ratio (x) = 0.30311 0.40625
# Poissons Ratio (y) = 0.19284 0.28989
# Poissons Ratio (z) = 0.35422 0.39731
#
# Static dielectric constant tensor:
#      x y z
#    x 3.458740 0.000000 0.000000 
#    y 0.000000 3.610140 0.000000 
#    z 0.000000 0.000000 3.382470 
# 
# 
# High freq. dielectric constant tensor:
#      x y z
#    x 1.750650 0.000000 0.000000 
#    y 0.000000 1.761620 0.000000 
#    z 0.000000 0.000000 1.739170 
# 
# From -- ./inp_files/59818.got.cif
#   From: 2010.03.12/outbox.cif.g09.slc.cpg/sg65_30_cif.got.tgz:59818.got - 2010.04.10 20:52:16.
