data_PCOD8269766
_publ_section_title
;
Structure prediction by ZEFSAII (Michael W. Deem and Ramdas Pophale) SiO2 
 PCOD8269766
Probable space group: C M M M
;
_chemical_formula_sum "Si O2"
_cell_formula_units_Z 88
_cell_length_a 29.977516
_cell_length_b 9.353728
_cell_length_c 23.073340
_cell_angle_alpha 90.000000
_cell_angle_beta 90.000000
_cell_angle_gamma 90.000000
_cell_volume 6469.799856
_symmetry_space_group_name_H-M "C M M M"
_symmetry_group_IT_number 65
_symmetry_cell_setting 'orthorhombic'
loop_
_space_group_symop_operation_xyz
x,y,z
-x,-y,z
x,-y,-z
-x,y,-z
-x,-y,-z
x,y,-z
-x,y,z
x,-y,z
1/2+x,1/2+y,z
1/2-x,1/2-y,z
1/2+x,1/2-y,-z
1/2-x,1/2+y,-z
1/2-x,1/2-y,-z
1/2+x,1/2+y,-z
1/2-x,1/2+y,z
1/2+x,1/2-y,z
loop_
_atom_site_type_symbol
_atom_site_label
_atom_site_fract_x
_atom_site_fract_y
_atom_site_fract_z
Si Si1 0.447027 0.157972 0.229383
Si Si2 0.446494 0.660222 0.123967
Si Si3 0.292447 0.837324 0.568965
Si Si4 0.052183 0.333697 0.358552
Si Si5 0.549205 0.670653 0.000000
Si Si6 0.621108 0.665222 0.431589
O O1 0.500000 0.155669 0.224536
O O2 0.426192 0.251753 0.177650
O O3 0.433993 0.214250 0.293313
O O4 0.427560 0.000000 0.220941
O O5 0.500000 0.666927 0.122552
O O6 0.429868 0.500000 0.134200
O O7 0.427694 0.717852 0.061146
O O8 0.290907 0.840489 0.500000
O O9 0.250000 0.750000 0.593231
O O10 0.336309 0.754460 0.590734
O O11 0.292209 0.000000 0.593159
O O12 0.064437 0.500000 0.368802
O O13 0.077332 0.232009 0.403088
O O14 0.000000 0.309613 0.368908
O O15 0.545493 0.500000 0.000000
O O16 0.500000 0.738534 0.000000
O O17 0.615451 0.679783 0.500000
O O18 0.626791 0.500000 0.413365
#
# Coordination Sequence:
#
# PCOD8269766 Si02
#       6
#    16  16  16  16   8  16
#     4   8  14  24  35  46  61  81 108 144 181 213
#     4   8  12  18  29  43  58  78 104 133 167 207
#     4   9  16  27  44  63  81  99 117 138 169 212
#     4   9  18  31  43  53  68  94 126 157 190 227
#     4   7  10  16  25  39  59  79  99 127 164 205
#     4  10  20  31  42  58  78  96 117 149 187 224
#
# _framework density 13.601656999999999
#
# number of rings (size 3 to 8) (size 9 to 14) (size 15 to 20)
#    0.000    3.364    0.000    3.273    0.000    4.727 
#    0.000    4.091    0.000    2.727    0.000    0.000 
#    0.000    0.000    0.000    0.000    0.000    0.000 
#
# Total GULP energy -545096.062423 kJ/mol
# GULP energy per Si atom -12388.546873 kJ/mol
# Density = 1.357070 g / cm^3
# Si number density = 13.601657 Si / 1000 Ang^3
#
#
#
# Elastic Constant Matrix: (Units=GPa)
#
#
# Indices 1 2 3 4 5 6 
#
# 1 43.0204 37.3167 27.7596 0.0000 0.0000 0.0000
# 2 37.3167 91.5310 42.1997 0.0000 0.0000 0.0000
# 3 27.7596 42.1997 55.8721 0.0000 0.0000 0.0000
# 4 0.0000 0.0000 0.0000 22.0956 0.0000 0.0000
# 5 0.0000 0.0000 0.0000 0.0000 0.2886 0.0000
# 6 0.0000 0.0000 0.0000 0.0000 0.0000 18.3242
#
#
#
# Elastic Compliance Matrix: (Units=1/GPa)
#
#
# Indices 1 2 3 4 5 6 
#
# 1 0.040408 -0.011075 -0.011712 0.000000 0.000000 0.000000
# 2 -0.011075 0.019797 -0.009450 0.000000 0.000000 0.000000
# 3 -0.011712 -0.009450 0.030855 0.000000 0.000000 0.000000
# 4 0.000000 0.000000 0.000000 0.045258 0.000000 0.000000
# 5 0.000000 0.000000 0.000000 0.000000 3.465147 0.000000
# 6 0.000000 0.000000 0.000000 0.000000 0.000000 0.054573
#
#
# Mechanical properties :
#
#
# Convention : Reuss Voigt Hill
#
# Bulk Modulus (GPa) = 37.61305 44.99730 41.30517
# Shear Modulus (GPa) = 1.34071 13.68483 7.51277
#
# Velocity S-wave (km/s) = 0.99390 3.17537 2.35275
# Velocity P-wave (km/s) = 5.38799 6.82627 6.14933
#
# Compressibility (1/GPa) = 0.02658652
#
# Stress axis : x y z
#
# Youngs Moduli (GPa) = 24.74727 50.51172 32.40969
#
# Poissons Ratio (x) = 0.55939 0.37959
# Poissons Ratio (y) = 0.27406 0.30629
# Poissons Ratio (z) = 0.28984 0.47736
#
# Static dielectric constant tensor:
#      x y z
#    x 2.294320 0.000000 0.000000 
#    y 0.000000 2.832740 0.000000 
#    z 0.000000 0.000000 2.840500 
# 
# 
# High freq. dielectric constant tensor:
#      x y z
#    x 1.457660 0.000000 0.000000 
#    y 0.000000 1.521650 0.000000 
#    z 0.000000 0.000000 1.508830 
# 
# From -- ./inp_files/72069.got.cif
#   From: 2010.03.12/outbox.cif.g09.slc.cpg/sg65_37_cif.got.tgz:72069.got - 2010.04.10 20:52:16.
