data_PCOD8269884
_publ_section_title
;
Structure prediction by ZEFSAII (Michael W. Deem and Ramdas Pophale) SiO2 
 PCOD8269884
Probable space group: C M M M
;
_chemical_formula_sum "Si O2"
_cell_formula_units_Z 112
_cell_length_a 28.162163
_cell_length_b 10.757068
_cell_length_c 25.086723
_cell_angle_alpha 90.000000
_cell_angle_beta 90.000000
_cell_angle_gamma 90.000000
_cell_volume 7599.829626
_symmetry_space_group_name_H-M "C M M M"
_symmetry_group_IT_number 65
_symmetry_cell_setting 'orthorhombic'
loop_
_space_group_symop_operation_xyz
x,y,z
-x,-y,z
x,-y,-z
-x,y,-z
-x,-y,-z
x,y,-z
-x,y,z
x,-y,z
1/2+x,1/2+y,z
1/2-x,1/2-y,z
1/2+x,1/2-y,-z
1/2-x,1/2+y,-z
1/2-x,1/2-y,-z
1/2+x,1/2+y,-z
1/2-x,1/2+y,z
1/2+x,1/2-y,z
loop_
_atom_site_type_symbol
_atom_site_label
_atom_site_fract_x
_atom_site_fract_y
_atom_site_fract_z
Si Si1 0.556665 0.359938 0.364828
Si Si2 0.943588 0.638815 0.560281
Si Si3 0.556303 0.261070 0.746410
Si Si4 0.052028 0.141556 0.141844
Si Si5 0.387641 0.225159 0.060337
Si Si6 0.284077 0.140464 0.063279
Si Si7 0.944319 0.500000 0.095543
Si Si8 0.443663 0.000000 0.217391
O O1 0.500000 0.355839 0.365313
O O2 0.573655 0.500000 0.381082
O O3 0.577100 0.252558 0.404169
O O4 0.577015 0.328795 0.305869
O O5 0.925676 0.660216 0.500000
O O6 0.927145 0.500000 0.579989
O O7 0.000000 0.643306 0.562375
O O8 0.500000 0.266228 0.742721
O O9 0.573558 0.327875 0.800212
O O10 0.574762 0.119167 0.749845
O O11 0.092232 0.167913 0.098229
O O12 0.000000 0.210830 0.133454
O O13 0.040108 0.000000 0.138194
O O14 0.337122 0.175688 0.081232
O O15 0.425876 0.116830 0.063037
O O16 0.383593 0.276129 0.000000
O O17 0.250000 0.250000 0.086338
O O18 0.271443 0.000000 0.084618
O O19 0.280273 0.137484 0.000000
O O20 0.924612 0.500000 0.156464
O O21 0.000000 0.500000 0.094147
O O22 0.500000 0.000000 0.214579
#
# Coordination Sequence:
#
# PCOD8269884 Si02
#       8
#    16  16  16  16  16  16   8   8
#     4   9  16  23  33  48  63  84 115 149 186 229
#     4   8  14  23  32  43  61  83 107 141 187 233
#     4   9  16  26  38  52  70  92 123 159 192 228
#     4  10  20  32  43  56  81 113 137 162 198 243
#     4  11  21  32  46  64  83 104 133 164 201 250
#     4   9  18  33  51  68  85 104 129 166 208 247
#     4  11  19  30  45  64  86 107 132 162 200 247
#     4   9  16  25  40  57  71  96 129 157 189 230
#
# _framework density 14.737173
#
# number of rings (size 3 to 8) (size 9 to 14) (size 15 to 20)
#    0.000    2.571    2.143    1.500    1.000    4.286 
#    0.000    3.571    0.000    0.000    0.000    0.000 
#    0.000    0.000    0.000    0.000    0.000    0.000 
#
# Total GULP energy -693751.032454 kJ/mol
# GULP energy per Si atom -12388.411294 kJ/mol
# Density = 1.470363 g / cm^3
# Si number density = 14.737173 Si / 1000 Ang^3
#
#
#
# Elastic Constant Matrix: (Units=GPa)
#
#
# Indices 1 2 3 4 5 6 
#
# 1 35.9395 29.5818 15.0449 0.0000 0.0000 0.0000
# 2 29.5818 114.9026 48.0027 0.0000 0.0000 0.0000
# 3 15.0449 48.0027 77.5840 0.0000 0.0000 0.0000
# 4 0.0000 0.0000 0.0000 20.8644 0.0000 0.0000
# 5 0.0000 0.0000 0.0000 0.0000 0.0532 0.0000
# 6 0.0000 0.0000 0.0000 0.0000 0.0000 -7.6303
#
#
#
# Elastic Compliance Matrix: (Units=1/GPa)
#
#
# Indices 1 2 3 4 5 6 
#
# 1 0.035463 -0.008438 -0.001656 0.000000 0.000000 0.000000
# 2 -0.008438 0.013745 -0.006868 0.000000 0.000000 0.000000
# 3 -0.001656 -0.006868 0.017460 0.000000 0.000000 0.000000
# 4 0.000000 0.000000 0.000000 0.047928 0.000000 0.000000
# 5 0.000000 0.000000 0.000000 0.000000 18.788721 0.000000
# 6 0.000000 0.000000 0.000000 0.000000 0.000000 -0.131056
#
#
# Mechanical properties :
#
#
# Convention : Reuss Voigt Hill
#
# Bulk Modulus (GPa) = 30.54045 45.96497 38.25271
# Shear Modulus (GPa) = 0.26572 11.71059 5.98815
#
# Velocity S-wave (km/s) = 0.42508 2.82198 2.01795
# Velocity P-wave (km/s) = 4.58359 6.47114 5.60736
#
# Compressibility (1/GPa) = 0.03274346
#
# Stress axis : x y z
#
# Youngs Moduli (GPa) = 28.19819 72.75607 57.27518
#
# Poissons Ratio (x) = 0.61393 0.09485
# Poissons Ratio (y) = 0.23794 0.39335
# Poissons Ratio (z) = 0.04670 0.49967
#
# Static dielectric constant tensor:
#      x y z
#    x 2.404640 0.000000 0.000000 
#    y 0.000000 3.187280 0.000000 
#    z 0.000000 0.000000 2.918730 
# 
# 
# High freq. dielectric constant tensor:
#      x y z
#    x 1.483950 0.000000 0.000000 
#    y 0.000000 1.584620 0.000000 
#    z 0.000000 0.000000 1.548290 
# 
# From -- ./inp_files/71592.got.cif
#   From: 2010.03.12/outbox.cif.g09.slc.cpg/sg65_36_cif.got.tgz:71592.got - 2010.04.10 20:52:16.
