data_PCOD8269246
_publ_section_title
;
Structure prediction by ZEFSAII (Michael W. Deem and Ramdas Pophale) SiO2 
 PCOD8269246
Probable space group: C M M M
;
_chemical_formula_sum "Si O2"
_cell_formula_units_Z 80
_cell_length_a 21.218164
_cell_length_b 21.541906
_cell_length_c 9.171827
_cell_angle_alpha 90.000000
_cell_angle_beta 90.000000
_cell_angle_gamma 90.000000
_cell_volume 4192.255882
_symmetry_space_group_name_H-M "C M M M"
_symmetry_group_IT_number 65
_symmetry_cell_setting 'orthorhombic'
loop_
_space_group_symop_operation_xyz
x,y,z
-x,-y,z
x,-y,-z
-x,y,-z
-x,-y,-z
x,y,-z
-x,y,z
x,-y,z
1/2+x,1/2+y,z
1/2-x,1/2-y,z
1/2+x,1/2-y,-z
1/2-x,1/2+y,-z
1/2-x,1/2-y,-z
1/2+x,1/2+y,-z
1/2-x,1/2+y,z
1/2+x,1/2-y,z
loop_
_atom_site_type_symbol
_atom_site_label
_atom_site_fract_x
_atom_site_fract_y
_atom_site_fract_z
Si Si1 0.258225 0.821675 0.169953
Si Si2 0.627494 0.613610 0.166389
Si Si3 0.928551 0.240097 0.160244
Si Si4 0.879855 0.650404 0.328418
Si Si5 0.071620 0.000000 0.327782
Si Si6 0.500000 0.071036 0.326640
O O1 0.250000 0.750000 0.223528
O O2 0.195345 0.859088 0.206684
O O3 0.312741 0.861267 0.251961
O O4 0.274208 0.822306 0.000000
O O5 0.576396 0.667473 0.193971
O O6 0.610130 0.559078 0.274370
O O7 0.625314 0.589508 0.000000
O O8 0.895480 0.278777 0.286848
O O9 0.000000 0.260927 0.155117
O O10 0.896904 0.253199 0.000000
O O11 0.871941 0.643450 0.500000
O O12 0.935910 0.604930 0.270274
O O13 0.070774 0.000000 0.500000
O O14 0.000000 0.000000 0.266025
O O15 0.500000 0.073621 0.500000
O O16 0.500000 0.000000 0.269742
#
# Coordination Sequence:
#
# PCOD8269246 Si02
#       6
#    16  16  16  16   8   8
#     4  10  20  38  61  86 119 154 192 240 294 350
#     4  10  21  39  63  85 113 159 205 243 290 355
#     4  10  19  33  57  86 114 147 192 246 299 347
#     4  11  21  34  57  86 116 151 193 243 297 352
#     4  11  25  43  61  87 125 162 197 248 301 345
#     4   9  20  40  59  79 115 158 197 236 287 353
#
# _framework density 19.082803999999999
#
# number of rings (size 3 to 8) (size 9 to 14) (size 15 to 20)
#    0.000    1.800    3.000    1.500    0.000    3.600 
#    1.800    0.000    0.000    4.200    0.000    0.000 
#    0.000    0.000    0.000    0.000    0.000    0.000 
#
# Total GULP energy -495860.539095 kJ/mol
# GULP energy per Si atom -12396.513477 kJ/mol
# Density = 1.903937 g / cm^3
# Si number density = 19.082804 Si / 1000 Ang^3
#
#
#
# Elastic Constant Matrix: (Units=GPa)
#
#
# Indices 1 2 3 4 5 6 
#
# 1 121.0736 47.5156 44.7581 0.0000 0.0000 0.0000
# 2 47.5156 102.2823 38.5594 0.0000 0.0000 0.0000
# 3 44.7581 38.5594 59.1255 0.0000 0.0000 0.0000
# 4 0.0000 0.0000 0.0000 27.5823 0.0000 0.0000
# 5 0.0000 0.0000 0.0000 0.0000 32.8083 0.0000
# 6 0.0000 0.0000 0.0000 0.0000 0.0000 28.6805
#
#
#
# Elastic Compliance Matrix: (Units=1/GPa)
#
#
# Indices 1 2 3 4 5 6 
#
# 1 0.012072 -0.002868 -0.007268 0.000000 0.000000 0.000000
# 2 -0.002868 0.013646 -0.006728 0.000000 0.000000 0.000000
# 3 -0.007268 -0.006728 0.026803 0.000000 0.000000 0.000000
# 4 0.000000 0.000000 0.000000 0.036255 0.000000 0.000000
# 5 0.000000 0.000000 0.000000 0.000000 0.030480 0.000000
# 6 0.000000 0.000000 0.000000 0.000000 0.000000 0.034867
#
#
# Mechanical properties :
#
#
# Convention : Reuss Voigt Hill
#
# Bulk Modulus (GPa) = 53.21368 60.46084 56.83726
# Shear Modulus (GPa) = 25.75802 27.92413 26.84108
#
# Velocity S-wave (km/s) = 3.67795 3.82948 3.75448
# Velocity P-wave (km/s) = 6.78105 7.16278 6.97453
#
# Compressibility (1/GPa) = 0.01879216
#
# Stress axis : x y z
#
# Youngs Moduli (GPa) = 82.83771 73.28357 37.30958
#
# Poissons Ratio (x) = 0.21018 0.27116
# Poissons Ratio (y) = 0.23758 0.25102
# Poissons Ratio (z) = 0.60206 0.49305
#
# Static dielectric constant tensor:
#      x y z
#    x 3.768090 0.000000 0.000000 
#    y 0.000000 3.393970 0.000000 
#    z 0.000000 0.000000 3.309170 
# 
# 
# High freq. dielectric constant tensor:
#      x y z
#    x 1.760840 0.000000 0.000000 
#    y 0.000000 1.727180 0.000000 
#    z 0.000000 0.000000 1.722810 
# 
# From -- ./inp_files/11563.got.cif
#   From: 2010.03.12/outbox.cif.g09.slc.cpg/sg65_6_cif.got.tgz:11563.got - 2010.04.10 20:52:16.
