data_PCOD8269734
_publ_section_title
;
Structure prediction by ZEFSAII (Michael W. Deem and Ramdas Pophale) SiO2 
 PCOD8269734
Probable space group: C M M M
;
_chemical_formula_sum "Si O2"
_cell_formula_units_Z 104
_cell_length_a 13.981260
_cell_length_b 22.824193
_cell_length_c 18.988023
_cell_angle_alpha 90.000000
_cell_angle_beta 90.000000
_cell_angle_gamma 90.000000
_cell_volume 6059.286564
_symmetry_space_group_name_H-M "C M M M"
_symmetry_group_IT_number 65
_symmetry_cell_setting 'orthorhombic'
loop_
_space_group_symop_operation_xyz
x,y,z
-x,-y,z
x,-y,-z
-x,y,-z
-x,-y,-z
x,y,-z
-x,y,z
x,-y,z
1/2+x,1/2+y,z
1/2-x,1/2-y,z
1/2+x,1/2-y,-z
1/2-x,1/2+y,-z
1/2-x,1/2-y,-z
1/2+x,1/2+y,-z
1/2-x,1/2+y,z
1/2+x,1/2-y,z
loop_
_atom_site_type_symbol
_atom_site_label
_atom_site_fract_x
_atom_site_fract_y
_atom_site_fract_z
Si Si1 0.734101 0.682873 0.291733
Si Si2 0.389062 0.844184 0.615047
Si Si3 0.756927 0.662106 0.861331
Si Si4 0.386565 0.065471 0.500000
Si Si5 0.388286 0.287654 0.421427
Si Si6 0.893104 0.432554 0.917407
Si Si7 0.890080 0.758894 0.919217
O O1 0.750000 0.750000 0.275518
O O2 0.833120 0.650730 0.311886
O O3 0.708157 0.655352 0.216288
O O4 0.661027 0.675632 0.357950
O O5 0.500000 0.848470 0.631229
O O6 0.352941 0.897876 0.567468
O O7 0.361240 0.781404 0.580557
O O8 0.806314 0.601043 0.880163
O O9 0.840492 0.711419 0.867927
O O10 0.668160 0.679809 0.911919
O O11 0.500000 0.061478 0.500000
O O12 0.341516 0.000000 0.500000
O O13 0.358933 0.310514 0.500000
O O14 0.500000 0.295866 0.409386
O O15 0.881085 0.500000 0.896720
O O16 0.000000 0.410928 0.894266
O O17 0.882619 0.422817 0.000000
O O18 0.000000 0.767914 0.896254
O O19 0.883745 0.737117 0.000000
#
# Coordination Sequence:
#
# PCOD8269734 Si02
#       7
#    16  16  16   8  16  16  16
#     4  10  20  30  43  70  97 132 164 195 242 305
#     4   9  17  28  42  63  91 125 156 190 236 286
#     4  11  19  33  48  74 106 137 169 211 262 308
#     4   9  16  28  45  64  87 119 160 201 240 280
#     4   9  17  30  48  68  93 124 161 202 243 291
#     4   9  18  33  55  80 103 135 179 218 250 290
#     4  10  20  32  49  73 102 139 176 209 253 309
#
# _framework density 17.163737000000001
#
# number of rings (size 3 to 8) (size 9 to 14) (size 15 to 20)
#    0.000    2.385    2.308    2.769    1.077    4.000 
#    0.000    0.769    0.000    2.308    0.000    2.154 
#    0.000    2.462    0.000    0.000    0.000    0.000 
#
# Total GULP energy -644220.527768 kJ/mol
# GULP energy per Si atom -12388.856303 kJ/mol
# Density = 1.712467 g / cm^3
# Si number density = 17.163737 Si / 1000 Ang^3
#
#
#
# Elastic Constant Matrix: (Units=GPa)
#
#
# Indices 1 2 3 4 5 6 
#
# 1 79.5482 34.0063 35.6090 0.0000 0.0000 0.0000
# 2 34.0063 64.9804 27.7684 0.0000 0.0000 0.0000
# 3 35.6090 27.7684 95.0419 0.0000 0.0000 0.0000
# 4 0.0000 0.0000 0.0000 12.7201 0.0000 0.0000
# 5 0.0000 0.0000 0.0000 0.0000 22.3996 0.0000
# 6 0.0000 0.0000 0.0000 0.0000 0.0000 23.1433
#
#
#
# Elastic Compliance Matrix: (Units=1/GPa)
#
#
# Indices 1 2 3 4 5 6 
#
# 1 0.017727 -0.007358 -0.004492 0.000000 0.000000 0.000000
# 2 -0.007358 0.020638 -0.003273 0.000000 0.000000 0.000000
# 3 -0.004492 -0.003273 0.013161 0.000000 0.000000 0.000000
# 4 0.000000 0.000000 0.000000 0.078616 0.000000 0.000000
# 5 0.000000 0.000000 0.000000 0.000000 0.044644 0.000000
# 6 0.000000 0.000000 0.000000 0.000000 0.000000 0.043209
#
#
# Mechanical properties :
#
#
# Convention : Reuss Voigt Hill
#
# Bulk Modulus (GPa) = 46.99079 48.25978 47.62528
# Shear Modulus (GPa) = 19.58214 21.13172 20.35693
#
# Velocity S-wave (km/s) = 3.38139 3.51263 3.44763
# Velocity P-wave (km/s) = 6.53318 6.68055 6.60728
#
# Compressibility (1/GPa) = 0.02128077
#
# Stress axis : x y z
#
# Youngs Moduli (GPa) = 56.41074 48.45315 75.98159
#
# Poissons Ratio (x) = 0.35650 0.34132
# Poissons Ratio (y) = 0.41504 0.24871
# Poissons Ratio (z) = 0.25340 0.15860
#
# Static dielectric constant tensor:
#      x y z
#    x 3.262670 0.000000 0.000000 
#    y 0.000000 3.030870 0.000000 
#    z 0.000000 0.000000 3.308650 
# 
# 
# High freq. dielectric constant tensor:
#      x y z
#    x 1.656890 0.000000 0.000000 
#    y 0.000000 1.615310 0.000000 
#    z 0.000000 0.000000 1.663650 
# 
# From -- ./inp_files/53512.got.cif
#   From: 2010.03.12/outbox.cif.g09.slc.cpg/sg65_27_cif.got.tgz:53512.got - 2010.04.10 20:52:16.
