data_PCOD8269288
_publ_section_title
;
Structure prediction by ZEFSAII (Michael W. Deem and Ramdas Pophale) SiO2 
 PCOD8269288
Probable space group: C M M M
;
_chemical_formula_sum "Si O2"
_cell_formula_units_Z 104
_cell_length_a 19.765672
_cell_length_b 32.002388
_cell_length_c 9.164478
_cell_angle_alpha 90.000000
_cell_angle_beta 90.000000
_cell_angle_gamma 90.000000
_cell_volume 5796.978686
_symmetry_space_group_name_H-M "C M M M"
_symmetry_group_IT_number 65
_symmetry_cell_setting 'orthorhombic'
loop_
_space_group_symop_operation_xyz
x,y,z
-x,-y,z
x,-y,-z
-x,y,-z
-x,-y,-z
x,y,-z
-x,y,z
x,-y,z
1/2+x,1/2+y,z
1/2-x,1/2-y,z
1/2+x,1/2-y,-z
1/2-x,1/2+y,-z
1/2-x,1/2-y,-z
1/2+x,1/2+y,-z
1/2-x,1/2+y,z
1/2+x,1/2-y,z
loop_
_atom_site_type_symbol
_atom_site_label
_atom_site_fract_x
_atom_site_fract_y
_atom_site_fract_z
Si Si1 0.293572 0.953056 0.166587
Si Si2 0.077133 0.217509 0.830775
Si Si3 0.667845 0.653030 0.672319
Si Si4 0.423155 0.500000 0.658067
Si Si5 0.639684 0.571504 0.167105
Si Si6 0.922409 0.685218 0.834450
Si Si7 0.181340 0.628949 0.670869
O O1 0.213662 0.947967 0.180667
O O2 0.329228 0.917172 0.261193
O O3 0.312881 0.000000 0.221279
O O4 0.317006 0.947275 0.000000
O O5 0.133161 0.194977 0.731635
O O6 0.087268 0.266232 0.799386
O O7 0.000000 0.204419 0.789435
O O8 0.090756 0.207226 0.000000
O O9 0.657124 0.650077 0.500000
O O10 0.630505 0.615160 0.751267
O O11 0.747340 0.650570 0.713962
O O12 0.500000 0.500000 0.617038
O O13 0.383717 0.500000 0.500000
O O14 0.410130 0.540544 0.753396
O O15 0.617898 0.577527 0.000000
O O16 0.877716 0.658834 0.724243
O O17 0.000000 0.672110 0.811541
O O18 0.899663 0.675692 0.000000
O O19 0.175540 0.622987 0.500000
#
# Coordination Sequence:
#
# PCOD8269288 Si02
#       7
#    16  16  16   8  16  16  16
#     4   9  17  32  54  78 102 131 170 213 256 305
#     4   9  19  36  56  77 101 136 183 226 266 314
#     4  10  21  35  51  77 110 141 174 216 267 318
#     4  11  23  35  47  67  97 133 172 215 266 319
#     4  10  19  34  53  72  95 129 174 219 261 305
#     4   9  19  37  59  80 104 137 177 219 263 315
#     4  10  21  34  51  81 113 141 174 212 262 318
#
# _framework density 17.940380000000001
#
# number of rings (size 3 to 8) (size 9 to 14) (size 15 to 20)
#    0.000    2.385    0.769    2.538    0.000    5.846 
#    0.000    4.615    0.000    0.462    0.000    3.231 
#    0.000    0.000    0.000    0.000    0.000    0.000 
#
# Total GULP energy -644730.615409 kJ/mol
# GULP energy per Si atom -12398.665681 kJ/mol
# Density = 1.789955 g / cm^3
# Si number density = 17.940380 Si / 1000 Ang^3
#
#
#
# Elastic Constant Matrix: (Units=GPa)
#
#
# Indices 1 2 3 4 5 6 
#
# 1 62.1440 52.1332 43.3736 0.0000 0.0000 0.0000
# 2 52.1332 108.0837 59.7710 0.0000 0.0000 0.0000
# 3 43.3736 59.7710 97.9427 0.0000 0.0000 0.0000
# 4 0.0000 0.0000 0.0000 -23.9025 0.0000 0.0000
# 5 0.0000 0.0000 0.0000 0.0000 28.3386 0.0000
# 6 0.0000 0.0000 0.0000 0.0000 0.0000 -66.5076
#
#
#
# Elastic Compliance Matrix: (Units=1/GPa)
#
#
# Indices 1 2 3 4 5 6 
#
# 1 0.029640 -0.010623 -0.006643 0.000000 0.000000 0.000000
# 2 -0.010623 0.017772 -0.006141 0.000000 0.000000 0.000000
# 3 -0.006643 -0.006141 0.016900 0.000000 0.000000 0.000000
# 4 0.000000 0.000000 0.000000 -0.041837 0.000000 0.000000
# 5 0.000000 0.000000 0.000000 0.000000 0.035288 0.000000
# 6 0.000000 0.000000 0.000000 0.000000 0.000000 -0.015036
#
#
# Mechanical properties :
#
#
# Convention : Reuss Voigt Hill
#
# Bulk Modulus (GPa) = 57.15264 64.30289 60.72777
# Shear Modulus (GPa) = 52.42509 -4.88814 23.76847
#
# Velocity S-wave (km/s) = 5.41159 -1.65244 3.64381
# Velocity P-wave (km/s) = 8.42456 5.68151 7.18515
#
# Compressibility (1/GPa) = 0.01749701
#
# Stress axis : x y z
#
# Youngs Moduli (GPa) = 33.73836 56.26778 59.17202
#
# Poissons Ratio (x) = 0.59772 0.39309
# Poissons Ratio (y) = 0.35840 0.36340
# Poissons Ratio (z) = 0.22413 0.34557
#
# Static dielectric constant tensor:
#      x y z
#    x 3.085620 0.000000 0.000000 
#    y 0.000000 3.319460 0.000000 
#    z 0.000000 0.000000 3.343410 
# 
# 
# High freq. dielectric constant tensor:
#      x y z
#    x 1.669330 0.000000 0.000000 
#    y 0.000000 1.699800 0.000000 
#    z 0.000000 0.000000 1.702540 
# 
# From -- ./inp_files/12846.got.cif
#   From: 2010.03.12/outbox.cif.g09.slc.cpg/sg65_7_cif.got.tgz:12846.got - 2010.04.10 20:52:16.
