data_PCOD8269013
_publ_section_title
;
Structure prediction by ZEFSAII (Michael W. Deem and Ramdas Pophale) SiO2 
 PCOD8269013
Probable space group: C M M M
;
_chemical_formula_sum "Si O2"
_cell_formula_units_Z 120
_cell_length_a 18.252722
_cell_length_b 26.689782
_cell_length_c 13.226731
_cell_angle_alpha 90.000000
_cell_angle_beta 90.000000
_cell_angle_gamma 90.000000
_cell_volume 6443.549764
_symmetry_space_group_name_H-M "C M M M"
_symmetry_group_IT_number 65
_symmetry_cell_setting 'orthorhombic'
loop_
_space_group_symop_operation_xyz
x,y,z
-x,-y,z
x,-y,-z
-x,y,-z
-x,-y,-z
x,y,-z
-x,y,z
x,-y,z
1/2+x,1/2+y,z
1/2-x,1/2-y,z
1/2+x,1/2-y,-z
1/2-x,1/2+y,-z
1/2-x,1/2-y,-z
1/2+x,1/2+y,-z
1/2-x,1/2+y,z
1/2+x,1/2-y,z
loop_
_atom_site_type_symbol
_atom_site_label
_atom_site_fract_x
_atom_site_fract_y
_atom_site_fract_z
Si Si1 0.913630 0.207518 0.205064
Si Si2 0.655664 0.944300 0.302873
Si Si3 0.417012 0.899787 0.112491
Si Si4 0.302540 0.360974 0.885310
Si Si5 0.083221 0.559521 0.500000
Si Si6 0.840318 0.300609 0.113613
Si Si7 0.180166 0.057001 0.275320
Si Si8 0.915358 0.863570 0.385601
O O1 0.879732 0.167906 0.125811
O O2 0.868002 0.258699 0.192086
O O3 0.898636 0.185426 0.317309
O O4 0.000000 0.214858 0.182925
O O5 0.639528 0.919974 0.194689
O O6 0.617818 0.916535 0.398165
O O7 0.741127 0.944516 0.328353
O O8 0.623394 0.000000 0.294940
O O9 0.500000 0.912031 0.145141
O O10 0.405804 0.840413 0.108089
O O11 0.400821 0.922315 0.000000
O O12 0.235280 0.325859 0.845219
O O13 0.309693 0.414081 0.830014
O O14 0.285518 0.374722 0.000000
O O15 0.096695 0.500000 0.500000
O O16 0.000000 0.575487 0.500000
O O17 0.827615 0.278120 0.000000
O O18 0.126250 0.086819 0.348992
O O19 0.151488 0.000000 0.256874
O O20 0.892082 0.850283 0.500000
O O21 0.000000 0.877774 0.377961
#
# Coordination Sequence:
#
# PCOD8269013 Si02
#       8
#    16  16  16  16   8  16  16  16
#     4  10  20  34  56  83 109 139 180 230 279 332
#     4  10  20  34  52  74 103 142 185 229 277 331
#     4  10  20  33  51  77 109 144 184 231 279 326
#     4  10  20  35  54  78 111 149 185 222 269 327
#     4   9  18  32  50  70  93 128 175 225 274 323
#     4  10  19  33  53  79 110 147 184 222 267 320
#     4  10  21  35  55  83 111 144 184 226 273 328
#     4   9  20  39  61  84 110 140 177 228 287 342
#
# _framework density 18.623276000000001
#
# number of rings (size 3 to 8) (size 9 to 14) (size 15 to 20)
#    0.000    2.200    1.333    1.600    0.933    4.533 
#    0.000    2.667    1.467    6.400    0.000    3.733 
#    0.000    0.000    0.000    0.000    0.000    0.000 
#
# Total GULP energy -743658.797669 kJ/mol
# GULP energy per Si atom -12394.313294 kJ/mol
# Density = 1.858089 g / cm^3
# Si number density = 18.623276 Si / 1000 Ang^3
#
#
#
# Elastic Constant Matrix: (Units=GPa)
#
#
# Indices 1 2 3 4 5 6 
#
# 1 76.5408 37.0836 47.4130 0.0000 0.0000 0.0000
# 2 37.0836 96.5036 56.6306 0.0000 0.0000 0.0000
# 3 47.4130 56.6306 116.9926 0.0000 0.0000 0.0000
# 4 0.0000 0.0000 0.0000 20.6195 0.0000 0.0000
# 5 0.0000 0.0000 0.0000 0.0000 26.1351 0.0000
# 6 0.0000 0.0000 0.0000 0.0000 0.0000 27.1672
#
#
#
# Elastic Compliance Matrix: (Units=1/GPa)
#
#
# Indices 1 2 3 4 5 6 
#
# 1 0.018371 -0.003758 -0.005626 0.000000 0.000000 0.000000
# 2 -0.003758 0.015242 -0.005855 0.000000 0.000000 0.000000
# 3 -0.005626 -0.005855 0.013662 0.000000 0.000000 0.000000
# 4 0.000000 0.000000 0.000000 0.048498 0.000000 0.000000
# 5 0.000000 0.000000 0.000000 0.000000 0.038263 0.000000
# 6 0.000000 0.000000 0.000000 0.000000 0.000000 0.036809
#
#
# Mechanical properties :
#
#
# Convention : Reuss Voigt Hill
#
# Bulk Modulus (GPa) = 59.53545 63.58793 61.56169
# Shear Modulus (GPa) = 24.16379 24.71166 24.43773
#
# Velocity S-wave (km/s) = 3.60600 3.64665 3.62638
# Velocity P-wave (km/s) = 7.02676 7.20758 7.11774
#
# Compressibility (1/GPa) = 0.01679671
#
# Stress axis : x y z
#
# Youngs Moduli (GPa) = 54.43489 65.60695 73.19709
#
# Poissons Ratio (x) = 0.24654 0.41180
# Poissons Ratio (y) = 0.20456 0.42858
# Poissons Ratio (z) = 0.30625 0.38414
#
# Static dielectric constant tensor:
#      x y z
#    x 3.492790 0.000000 0.000000 
#    y 0.000000 3.284920 0.000000 
#    z 0.000000 0.000000 3.489000 
# 
# 
# High freq. dielectric constant tensor:
#      x y z
#    x 1.732290 0.000000 0.000000 
#    y 0.000000 1.703770 0.000000 
#    z 0.000000 0.000000 1.716030 
# 
# From -- ./inp_files/29665.got.cif
#   From: 2010.03.12/outbox.cif.g09.slc.cpg/sg65_15_cif.got.tgz:29665.got - 2010.04.10 20:52:16.
