data_PCOD8269118
_publ_section_title
;
Structure prediction by ZEFSAII (Michael W. Deem and Ramdas Pophale) SiO2 
 PCOD8269118
Probable space group: C M M M
;
_chemical_formula_sum "Si O2"
_cell_formula_units_Z 88
_cell_length_a 8.884552
_cell_length_b 23.635330
_cell_length_c 23.172284
_cell_angle_alpha 90.000000
_cell_angle_beta 90.000000
_cell_angle_gamma 90.000000
_cell_volume 4865.932123
_symmetry_space_group_name_H-M "C M M M"
_symmetry_group_IT_number 65
_symmetry_cell_setting 'orthorhombic'
loop_
_space_group_symop_operation_xyz
x,y,z
-x,-y,z
x,-y,-z
-x,y,-z
-x,-y,-z
x,y,-z
-x,y,z
x,-y,z
1/2+x,1/2+y,z
1/2-x,1/2-y,z
1/2+x,1/2-y,-z
1/2-x,1/2+y,-z
1/2-x,1/2-y,-z
1/2+x,1/2+y,-z
1/2-x,1/2+y,z
1/2+x,1/2-y,z
loop_
_atom_site_type_symbol
_atom_site_label
_atom_site_fract_x
_atom_site_fract_y
_atom_site_fract_z
Si Si1 0.322012 0.812077 0.374669
Si Si2 0.179122 0.500000 0.241261
Si Si3 0.674006 0.611132 0.065318
Si Si4 0.678489 0.614907 0.275784
Si Si5 0.671666 0.808731 0.500000
Si Si6 0.676409 0.310355 0.167211
Si Si7 0.322600 0.000000 0.109564
O O1 0.500000 0.808346 0.360972
O O2 0.250000 0.750000 0.368588
O O3 0.239283 0.853846 0.331769
O O4 0.290781 0.839267 0.438939
O O5 0.244280 0.445888 0.273798
O O6 0.237164 0.500000 0.175183
O O7 0.000000 0.500000 0.245183
O O8 0.500000 0.597237 0.077799
O O9 0.730807 0.660810 0.107594
O O10 0.766086 0.554538 0.075805
O O11 0.699919 0.632109 0.000000
O O12 0.500000 0.607940 0.279362
O O13 0.728441 0.649860 0.219482
O O14 0.500000 0.792117 0.500000
O O15 0.750000 0.750000 0.500000
O O16 0.500000 0.300822 0.167746
O O17 0.750000 0.250000 0.174686
O O18 0.500000 0.000000 0.108516
#
# Coordination Sequence:
#
# PCOD8269118 Si02
#       7
#    16   8  16  16   8  16   8
#     4  10  19  33  54  83 117 151 188 226 268 319
#     4  11  23  38  58  82 107 140 177 224 276 329
#     4  10  21  38  58  78 104 142 181 218 267 326
#     4  11  22  37  57  81 109 144 182 225 275 326
#     4   8  16  30  50  77 112 151 186 224 266 310
#     4  10  22  37  54  77 106 140 178 219 265 320
#     4  11  22  36  57  84 109 133 171 224 277 320
#
# _framework density 18.084921999999999
#
# number of rings (size 3 to 8) (size 9 to 14) (size 15 to 20)
#    0.000    1.818    1.818    2.455    0.000    6.909 
#    0.000    0.000    0.000    0.545    0.000    3.818 
#    0.000    0.000    0.000    0.000    0.000    0.000 
#
# Total GULP energy -545528.456288 kJ/mol
# GULP energy per Si atom -12398.374007 kJ/mol
# Density = 1.804376 g / cm^3
# Si number density = 18.084922 Si / 1000 Ang^3
#
#
#
# Elastic Constant Matrix: (Units=GPa)
#
#
# Indices 1 2 3 4 5 6 
#
# 1 60.5829 42.2572 46.9117 0.0000 0.0000 0.0000
# 2 42.2572 129.4368 64.9136 0.0000 0.0000 0.0000
# 3 46.9117 64.9136 150.8724 0.0000 0.0000 0.0000
# 4 0.0000 0.0000 0.0000 35.8102 0.0000 0.0000
# 5 0.0000 0.0000 0.0000 0.0000 28.1199 0.0000
# 6 0.0000 0.0000 0.0000 0.0000 0.0000 27.6263
#
#
#
# Elastic Compliance Matrix: (Units=1/GPa)
#
#
# Indices 1 2 3 4 5 6 
#
# 1 0.024274 -0.005278 -0.005277 0.000000 0.000000 0.000000
# 2 -0.005278 0.010999 -0.003091 0.000000 0.000000 0.000000
# 3 -0.005277 -0.003091 0.009599 0.000000 0.000000 0.000000
# 4 0.000000 0.000000 0.000000 0.027925 0.000000 0.000000
# 5 0.000000 0.000000 0.000000 0.000000 0.035562 0.000000
# 6 0.000000 0.000000 0.000000 0.000000 0.000000 0.036197
#
#
# Mechanical properties :
#
#
# Convention : Reuss Voigt Hill
#
# Bulk Modulus (GPa) = 56.88437 72.11745 64.50091
# Shear Modulus (GPa) = 28.13590 30.76525 29.45057
#
# Velocity S-wave (km/s) = 3.94860 4.12898 4.03980
# Velocity P-wave (km/s) = 7.23263 7.91802 7.58307
#
# Compressibility (1/GPa) = 0.01757952
#
# Stress axis : x y z
#
# Youngs Moduli (GPa) = 41.19649 90.91464 104.17957
#
# Poissons Ratio (x) = 0.47989 0.54971
# Poissons Ratio (y) = 0.21745 0.32205
# Poissons Ratio (z) = 0.21738 0.28104
#
# Static dielectric constant tensor:
#      x y z
#    x 3.365900 0.000000 0.000000 
#    y 0.000000 3.399390 0.000000 
#    z 0.000000 0.000000 3.660510 
# 
# 
# High freq. dielectric constant tensor:
#      x y z
#    x 1.707510 0.000000 0.000000 
#    y 0.000000 1.683810 0.000000 
#    z 0.000000 0.000000 1.715030 
# 
# From -- ./inp_files/59911.got.cif
#   From: 2010.03.12/outbox.cif.g09.slc.cpg/sg65_30_cif.got.tgz:59911.got - 2010.04.10 20:52:16.
