data_PCOD8269550
_publ_section_title
;
Structure prediction by ZEFSAII (Michael W. Deem and Ramdas Pophale) SiO2 
 PCOD8269550
Probable space group: C M M M
;
_chemical_formula_sum "Si O2"
_cell_formula_units_Z 88
_cell_length_a 8.740533
_cell_length_b 31.681011
_cell_length_c 16.555287
_cell_angle_alpha 90.000000
_cell_angle_beta 90.000000
_cell_angle_gamma 90.000000
_cell_volume 4584.306679
_symmetry_space_group_name_H-M "C M M M"
_symmetry_group_IT_number 65
_symmetry_cell_setting 'orthorhombic'
loop_
_space_group_symop_operation_xyz
x,y,z
-x,-y,z
x,-y,-z
-x,y,-z
-x,-y,-z
x,y,-z
-x,y,z
x,-y,z
1/2+x,1/2+y,z
1/2-x,1/2-y,z
1/2+x,1/2-y,-z
1/2-x,1/2+y,-z
1/2-x,1/2-y,-z
1/2+x,1/2+y,-z
1/2-x,1/2+y,z
1/2+x,1/2-y,z
loop_
_atom_site_type_symbol
_atom_site_label
_atom_site_fract_x
_atom_site_fract_y
_atom_site_fract_z
Si Si1 0.675875 0.206164 0.904517
Si Si2 0.670985 0.060926 0.413507
Si Si3 0.180245 0.546615 0.237819
Si Si4 0.672212 0.153860 0.636856
Si Si5 0.320396 0.294723 0.500000
Si Si6 0.180980 0.132162 0.195883
O O1 0.500000 0.205821 0.877000
O O2 0.750000 0.250000 0.871717
O O3 0.757531 0.163980 0.872005
O O4 0.693780 0.204240 0.000000
O O5 0.750405 0.047184 0.500000
O O6 0.500000 0.042451 0.414616
O O7 0.749639 0.045111 0.330023
O O8 0.667414 0.111035 0.412951
O O9 0.208769 0.500000 0.198955
O O10 0.258026 0.583663 0.184899
O O11 0.000000 0.557467 0.242552
O O12 0.500000 0.169858 0.655043
O O13 0.763318 0.185847 0.582743
O O14 0.764087 0.149896 0.719314
O O15 0.500000 0.294722 0.500000
O O16 0.250000 0.250000 0.500000
O O17 0.000000 0.130704 0.190509
#
# Coordination Sequence:
#
# PCOD8269550 Si02
#       6
#    16  16  16  16   8  16
#     4  10  21  39  64  93 122 149 179 221 275 338
#     4   8  13  24  46  72  96 128 174 227 280 327
#     4   9  18  32  51  77 110 150 196 242 287 339
#     4  10  19  35  54  73 100 139 186 232 278 329
#     4  12  24  36  50  72 101 136 181 232 288 340
#     4  11  22  36  57  85 116 153 191 231 283 337
#
# _framework density 19.195924000000002
#
# number of rings (size 3 to 8) (size 9 to 14) (size 15 to 20)
#    0.000    2.182    0.909    4.636    0.000    2.545 
#    0.000    5.455    0.000    0.545    0.000    6.364 
#    0.000    0.000    0.000    0.000    0.000    0.000 
#
# Total GULP energy -545107.811423 kJ/mol
# GULP energy per Si atom -12388.813896 kJ/mol
# Density = 1.915223 g / cm^3
# Si number density = 19.195924 Si / 1000 Ang^3
#
#
#
# Elastic Constant Matrix: (Units=GPa)
#
#
# Indices 1 2 3 4 5 6 
#
# 1 132.7594 73.1885 30.7264 0.0000 0.0000 0.0000
# 2 73.1885 142.6602 34.2048 0.0000 0.0000 0.0000
# 3 30.7264 34.2048 38.7560 0.0000 0.0000 0.0000
# 4 0.0000 0.0000 0.0000 -749.0070 0.0000 0.0000
# 5 0.0000 0.0000 0.0000 0.0000 25.4920 0.0000
# 6 0.0000 0.0000 0.0000 0.0000 0.0000 18.8429
#
#
#
# Elastic Compliance Matrix: (Units=1/GPa)
#
#
# Indices 1 2 3 4 5 6 
#
# 1 0.011170 -0.004575 -0.004818 0.000000 0.000000 0.000000
# 2 -0.004575 0.010765 -0.005874 0.000000 0.000000 0.000000
# 3 -0.004818 -0.005874 0.034806 0.000000 0.000000 0.000000
# 4 0.000000 0.000000 0.000000 -0.001335 0.000000 0.000000
# 5 0.000000 0.000000 0.000000 0.000000 0.039228 0.000000
# 6 0.000000 0.000000 0.000000 0.000000 0.000000 0.053070
#
#
# Mechanical properties :
#
#
# Convention : Reuss Voigt Hill
#
# Bulk Modulus (GPa) = 38.15666 65.60169 51.87917
# Shear Modulus (GPa) = 26.74185 -129.19735 -51.22775
#
# Velocity S-wave (km/s) = 3.73648 -8.21284 -5.17153
# Velocity P-wave (km/s) = 6.20771 7.46226 2.92828
#
# Compressibility (1/GPa) = 0.02620774
#
# Stress axis : x y z
#
# Youngs Moduli (GPa) = 89.52780 92.89193 28.73084
#
# Poissons Ratio (x) = 0.42501 0.13841
# Poissons Ratio (y) = 0.40962 0.16875
# Poissons Ratio (z) = 0.43130 0.54561
#
# Static dielectric constant tensor:
#      x y z
#    x 3.767620 0.000000 0.000000 
#    y 0.000000 3.696630 0.000000 
#    z 0.000000 0.000000 3.346000 
# 
# 
# High freq. dielectric constant tensor:
#      x y z
#    x 1.727910 0.000000 0.000000 
#    y 0.000000 1.758230 0.000000 
#    z 0.000000 0.000000 1.723680 
# 
# From -- ./inp_files/50446.got.cif
#   From: 2010.03.12/outbox.cif.g09.slc.cpg/sg65_26_cif.got.tgz:50446.got - 2010.04.10 20:52:16.
