data_PCOD8269794
_publ_section_title
;
Structure prediction by ZEFSAII (Michael W. Deem and Ramdas Pophale) SiO2 
 PCOD8269794
Probable space group: C M M M
;
_chemical_formula_sum "Si O2"
_cell_formula_units_Z 104
_cell_length_a 25.463800
_cell_length_b 16.872737
_cell_length_c 14.148693
_cell_angle_alpha 90.000000
_cell_angle_beta 90.000000
_cell_angle_gamma 90.000000
_cell_volume 6078.901061
_symmetry_space_group_name_H-M "C M M M"
_symmetry_group_IT_number 65
_symmetry_cell_setting 'orthorhombic'
loop_
_space_group_symop_operation_xyz
x,y,z
-x,-y,z
x,-y,-z
-x,y,-z
-x,-y,-z
x,y,-z
-x,y,z
x,-y,z
1/2+x,1/2+y,z
1/2-x,1/2-y,z
1/2+x,1/2-y,-z
1/2-x,1/2+y,-z
1/2-x,1/2-y,-z
1/2+x,1/2+y,-z
1/2-x,1/2+y,z
1/2+x,1/2-y,z
loop_
_atom_site_type_symbol
_atom_site_label
_atom_site_fract_x
_atom_site_fract_y
_atom_site_fract_z
Si Si1 0.871857 0.237659 0.888273
Si Si2 0.137472 0.093096 0.390522
Si Si3 0.938812 0.852866 0.767200
Si Si4 0.697483 0.587693 0.109329
Si Si5 0.285143 0.170831 0.795080
Si Si6 0.248514 0.342365 0.398263
Si Si7 0.561276 0.500000 0.895209
O O1 0.925048 0.228097 0.825916
O O2 0.841515 0.157017 0.859463
O O3 0.839659 0.313461 0.849918
O O4 0.883030 0.246445 0.000000
O O5 0.125523 0.111311 0.500000
O O6 0.093819 0.139409 0.329709
O O7 0.195065 0.125018 0.362749
O O8 0.134467 0.000000 0.368862
O O9 0.922213 0.922944 0.837953
O O10 0.000000 0.853758 0.740444
O O11 0.675095 0.500000 0.137529
O O12 0.754775 0.599640 0.154429
O O13 0.708055 0.594451 0.000000
O O14 0.250000 0.250000 0.797067
O O15 0.293650 0.142479 0.685732
O O16 0.233261 0.382795 0.500000
O O17 0.250000 0.250000 0.417040
O O18 0.500000 0.500000 0.912829
O O19 0.589219 0.500000 0.000000
#
# Coordination Sequence:
#
# PCOD8269794 Si02
#       7
#    16  16  16  16  16  16   8
#     4  10  20  31  44  62  87 118 151 184 221 268
#     4  10  20  33  48  66  89 119 156 193 227 267
#     4  11  21  32  45  61  83 115 153 194 233 264
#     4   9  17  27  41  62  85 110 141 175 214 263
#     4   9  16  28  44  61  84 113 140 175 219 265
#     4   9  17  29  45  64  84 109 143 181 221 266
#     4   9  18  30  41  55  77 105 138 180 225 261
#
# _framework density 17.108356000000001
#
# number of rings (size 3 to 8) (size 9 to 14) (size 15 to 20)
#    0.000    2.385    0.769    3.692    1.077    4.923 
#    0.000    0.769    0.000    0.000    0.000    0.000 
#    0.000    0.615    0.000    3.538    0.000    2.000 
#
# Total GULP energy -644289.902935 kJ/mol
# GULP energy per Si atom -12390.190441 kJ/mol
# Density = 1.706942 g / cm^3
# Si number density = 17.108356 Si / 1000 Ang^3
#
#
#
# Elastic Constant Matrix: (Units=GPa)
#
#
# Indices 1 2 3 4 5 6 
#
# 1 50.1191 15.1581 41.8865 0.0000 0.0000 0.0000
# 2 15.1581 15.8100 15.8842 0.0000 0.0000 0.0000
# 3 41.8865 15.8842 96.9488 0.0000 0.0000 0.0000
# 4 0.0000 0.0000 0.0000 16.5936 0.0000 0.0000
# 5 0.0000 0.0000 0.0000 0.0000 24.8336 0.0000
# 6 0.0000 0.0000 0.0000 0.0000 0.0000 22.9438
#
#
#
# Elastic Compliance Matrix: (Units=1/GPa)
#
#
# Indices 1 2 3 4 5 6 
#
# 1 0.037297 -0.023425 -0.012276 0.000000 0.000000 0.000000
# 2 -0.023425 0.090427 -0.004695 0.000000 0.000000 0.000000
# 3 -0.012276 -0.004695 0.016388 0.000000 0.000000 0.000000
# 4 0.000000 0.000000 0.000000 0.060264 0.000000 0.000000
# 5 0.000000 0.000000 0.000000 0.000000 0.040268 0.000000
# 6 0.000000 0.000000 0.000000 0.000000 0.000000 0.043585
#
#
# Mechanical properties :
#
#
# Convention : Reuss Voigt Hill
#
# Bulk Modulus (GPa) = 15.79293 34.30395 25.04844
# Shear Modulus (GPa) = 12.81635 18.87081 15.84358
#
# Velocity S-wave (km/s) = 2.73999 3.32477 3.04645
# Velocity P-wave (km/s) = 4.38876 5.90198 5.20070
#
# Compressibility (1/GPa) = 0.06331946
#
# Stress axis : x y z
#
# Youngs Moduli (GPa) = 26.81209 11.05865 61.02134
#
# Poissons Ratio (x) = 0.25905 0.74909
# Poissons Ratio (y) = 0.62808 0.28649
# Poissons Ratio (z) = 0.32914 0.05192
#
# Static dielectric constant tensor:
#      x y z
#    x 3.052730 0.000000 0.000000 
#    y 0.000000 3.186170 0.000000 
#    z 0.000000 0.000000 3.569990 
# 
# 
# High freq. dielectric constant tensor:
#      x y z
#    x 1.626770 0.000000 0.000000 
#    y 0.000000 1.615000 0.000000 
#    z 0.000000 0.000000 1.688160 
# 
# From -- ./inp_files/47199.got.cif
#   From: 2010.03.12/outbox.cif.g09.slc.cpg/sg65_24_cif.got.tgz:47199.got - 2010.04.10 20:52:16.
