data_PCOD8269858
_publ_section_title
;
Structure prediction by ZEFSAII (Michael W. Deem and Ramdas Pophale) SiO2 
 PCOD8269858
Probable space group: C M M M
;
_chemical_formula_sum "Si O2"
_cell_formula_units_Z 120
_cell_length_a 19.087934
_cell_length_b 15.219200
_cell_length_c 23.899950
_cell_angle_alpha 90.000000
_cell_angle_beta 90.000000
_cell_angle_gamma 90.000000
_cell_volume 6943.009210
_symmetry_space_group_name_H-M "C M M M"
_symmetry_group_IT_number 65
_symmetry_cell_setting 'orthorhombic'
loop_
_space_group_symop_operation_xyz
x,y,z
-x,-y,z
x,-y,-z
-x,y,-z
-x,-y,-z
x,y,-z
-x,y,z
x,-y,z
1/2+x,1/2+y,z
1/2-x,1/2-y,z
1/2+x,1/2-y,-z
1/2-x,1/2+y,-z
1/2-x,1/2-y,-z
1/2+x,1/2+y,-z
1/2-x,1/2+y,z
1/2+x,1/2-y,z
loop_
_atom_site_type_symbol
_atom_site_label
_atom_site_fract_x
_atom_site_fract_y
_atom_site_fract_z
Si Si1 0.418284 0.099911 0.855286
Si Si2 0.417193 0.190134 0.434897
Si Si3 0.831771 0.399923 0.254407
Si Si4 0.917075 0.250603 0.062122
Si Si5 0.831292 0.247893 0.661202
Si Si6 0.329888 0.600071 0.747576
Si Si7 0.418476 0.399597 0.144729
Si Si8 0.581951 0.000000 0.435879
O O1 0.500000 0.115148 0.843213
O O2 0.378159 0.124344 0.798886
O O3 0.390797 0.163448 0.904436
O O4 0.402835 0.000000 0.873989
O O5 0.398165 0.205707 0.500000
O O6 0.500000 0.201097 0.426252
O O7 0.375861 0.258513 0.396013
O O8 0.390170 0.093402 0.412771
O O9 0.845995 0.500000 0.274471
O O10 0.852790 0.334413 0.303961
O O11 0.751230 0.386457 0.236677
O O12 0.893588 0.161873 0.093773
O O13 0.000000 0.253414 0.057058
O O14 0.883442 0.250941 0.000000
O O15 0.750000 0.250000 0.645047
O O16 0.850949 0.161088 0.695805
O O17 0.346020 0.500000 0.730086
O O18 0.375281 0.628358 0.800811
O O19 0.500000 0.385066 0.158652
O O20 0.402893 0.500000 0.127350
O O21 0.500000 0.000000 0.427344
O O22 0.601863 0.000000 0.500000
#
# Coordination Sequence:
#
# PCOD8269858 Si02
#       8
#    16  16  16  16  16  16  16   8
#     4   9  17  29  45  66  91 119 153 188 221 270
#     4   9  18  32  50  72  99 130 160 191 232 280
#     4   9  18  31  47  68  95 123 150 185 235 285
#     4   9  17  28  43  65  92 119 147 185 231 274
#     4  10  20  31  47  72  96 125 158 195 233 278
#     4   9  18  33  49  66  92 123 155 192 235 281
#     4   9  17  29  47  68  86 110 149 194 235 275
#     4   7  12  26  46  68  94 122 151 181 218 272
#
# _framework density 17.283571999999999
#
# number of rings (size 3 to 8) (size 9 to 14) (size 15 to 20)
#    0.000    3.000    0.000    1.600    0.933    1.867 
#    0.000    2.667    0.000    2.000    0.000    4.667 
#    0.000    0.000    0.000    0.000    0.000    0.000 
#
# Total GULP energy -743699.726405 kJ/mol
# GULP energy per Si atom -12394.995440 kJ/mol
# Density = 1.724423 g / cm^3
# Si number density = 17.283572 Si / 1000 Ang^3
#
#
#
# Elastic Constant Matrix: (Units=GPa)
#
#
# Indices 1 2 3 4 5 6 
#
# 1 43.2652 34.4344 52.6043 0.0000 0.0000 0.0000
# 2 34.4344 97.3991 73.0837 0.0000 0.0000 0.0000
# 3 52.6043 73.0837 133.5767 0.0000 0.0000 0.0000
# 4 0.0000 0.0000 0.0000 25.7042 0.0000 0.0000
# 5 0.0000 0.0000 0.0000 0.0000 5.4443 0.0000
# 6 0.0000 0.0000 0.0000 0.0000 0.0000 17.9647
#
#
#
# Elastic Compliance Matrix: (Units=1/GPa)
#
#
# Indices 1 2 3 4 5 6 
#
# 1 0.045470 -0.004477 -0.015457 0.000000 0.000000 0.000000
# 2 -0.004477 0.017859 -0.008008 0.000000 0.000000 0.000000
# 3 -0.015457 -0.008008 0.017955 0.000000 0.000000 0.000000
# 4 0.000000 0.000000 0.000000 0.038904 0.000000 0.000000
# 5 0.000000 0.000000 0.000000 0.000000 0.183679 0.000000
# 6 0.000000 0.000000 0.000000 0.000000 0.000000 0.055665
#
#
# Mechanical properties :
#
#
# Convention : Reuss Voigt Hill
#
# Bulk Modulus (GPa) = 39.37090 66.05396 52.71243
# Shear Modulus (GPa) = 11.79571 17.43054 14.61312
#
# Velocity S-wave (km/s) = 2.61527 3.17914 2.91089
# Velocity P-wave (km/s) = 5.65229 7.19560 6.47012
#
# Compressibility (1/GPa) = 0.02539947
#
# Stress axis : x y z
#
# Youngs Moduli (GPa) = 21.99231 55.99571 55.69513
#
# Poissons Ratio (x) = 0.25070 0.86090
# Poissons Ratio (y) = 0.09846 0.44599
# Poissons Ratio (z) = 0.33994 0.44840
#
# Static dielectric constant tensor:
#      x y z
#    x 2.985370 0.000000 0.000000 
#    y 0.000000 3.440970 0.000000 
#    z 0.000000 0.000000 3.157400 
# 
# 
# High freq. dielectric constant tensor:
#      x y z
#    x 1.641350 0.000000 0.000000 
#    y 0.000000 1.675300 0.000000 
#    z 0.000000 0.000000 1.657200 
# 
# From -- ./inp_files/71280.got.cif
#   From: 2010.03.12/outbox.cif.g09.slc.cpg/sg65_36_cif.got.tgz:71280.got - 2010.04.10 20:52:16.
