data_PCOD8269385
_publ_section_title
;
Structure prediction by ZEFSAII (Michael W. Deem and Ramdas Pophale) SiO2 
 PCOD8269385
Probable space group: C M M M
;
_chemical_formula_sum "Si O2"
_cell_formula_units_Z 88
_cell_length_a 28.769025
_cell_length_b 9.352053
_cell_length_c 17.475166
_cell_angle_alpha 90.000000
_cell_angle_beta 90.000000
_cell_angle_gamma 90.000000
_cell_volume 4701.683741
_symmetry_space_group_name_H-M "C M M M"
_symmetry_group_IT_number 65
_symmetry_cell_setting 'orthorhombic'
loop_
_space_group_symop_operation_xyz
x,y,z
-x,-y,z
x,-y,-z
-x,y,-z
-x,-y,-z
x,y,-z
-x,y,z
x,-y,z
1/2+x,1/2+y,z
1/2-x,1/2-y,z
1/2+x,1/2-y,-z
1/2-x,1/2+y,-z
1/2-x,1/2-y,-z
1/2+x,1/2+y,-z
1/2-x,1/2+y,z
1/2+x,1/2-y,z
loop_
_atom_site_type_symbol
_atom_site_label
_atom_site_fract_x
_atom_site_fract_y
_atom_site_fract_z
Si Si1 0.702071 0.167681 0.276883
Si Si2 0.362484 0.835297 0.413775
Si Si3 0.550862 0.330762 0.914668
Si Si4 0.949157 0.839237 0.590984
Si Si5 0.297174 0.335962 0.000000
Si Si6 0.645817 0.332256 0.847976
O O1 0.750000 0.250000 0.267741
O O2 0.682785 0.193248 0.362405
O O3 0.665398 0.233082 0.218382
O O4 0.709550 0.000000 0.259614
O O5 0.351075 0.781568 0.500000
O O6 0.407115 0.755994 0.377036
O O7 0.376246 0.000000 0.414137
O O8 0.500000 0.284118 0.882091
O O9 0.553740 0.500000 0.921865
O O10 0.592307 0.281346 0.858887
O O11 0.557587 0.266267 0.000000
O O12 0.948297 0.834577 0.500000
O O13 0.000000 0.784197 0.619507
O O14 0.941252 0.000000 0.620795
O O15 0.250000 0.250000 0.000000
O O16 0.326984 0.297928 0.925682
O O17 0.282704 0.500000 0.000000
O O18 0.649826 0.500000 0.826209
#
# Coordination Sequence:
#
# PCOD8269385 Si02
#       6
#    16  16  16  16   8  16
#     4  11  24  40  56  76 103 136 175 222 277 327
#     4   9  19  36  56  77 102 135 178 224 270 325
#     4   8  13  25  50  82 111 139 174 215 254 296
#     4   8  14  26  47  77 109 136 165 206 255 306
#     4  10  20  32  49  75 103 135 176 218 255 300
#     4  10  19  34  55  80 110 141 176 215 259 309
#
# _framework density 18.716698999999998
#
# number of rings (size 3 to 8) (size 9 to 14) (size 15 to 20)
#    0.000    2.727    0.909    2.182    0.000    4.364 
#    0.000    2.727    0.000    3.818    0.000    1.273 
#    0.000    0.000    0.000    0.000    0.000    0.000 
#
# Total GULP energy -545356.272460 kJ/mol
# GULP energy per Si atom -12394.460738 kJ/mol
# Density = 1.867410 g / cm^3
# Si number density = 18.716699 Si / 1000 Ang^3
#
#
#
# Elastic Constant Matrix: (Units=GPa)
#
#
# Indices 1 2 3 4 5 6 
#
# 1 164.2544 57.5568 53.3089 0.0000 0.0000 0.0000
# 2 57.5568 64.3863 38.9257 0.0000 0.0000 0.0000
# 3 53.3089 38.9257 77.0503 0.0000 0.0000 0.0000
# 4 0.0000 0.0000 0.0000 22.3932 0.0000 0.0000
# 5 0.0000 0.0000 0.0000 0.0000 26.6738 0.0000
# 6 0.0000 0.0000 0.0000 0.0000 0.0000 15.7655
#
#
#
# Elastic Compliance Matrix: (Units=1/GPa)
#
#
# Indices 1 2 3 4 5 6 
#
# 1 0.009399 -0.006436 -0.003251 0.000000 0.000000 0.000000
# 2 -0.006436 0.026768 -0.009070 0.000000 0.000000 0.000000
# 3 -0.003251 -0.009070 0.019810 0.000000 0.000000 0.000000
# 4 0.000000 0.000000 0.000000 0.044656 0.000000 0.000000
# 5 0.000000 0.000000 0.000000 0.000000 0.037490 0.000000
# 6 0.000000 0.000000 0.000000 0.000000 0.000000 0.063430
#
#
# Mechanical properties :
#
#
# Convention : Reuss Voigt Hill
#
# Bulk Modulus (GPa) = 54.16544 67.25265 60.70904
# Shear Modulus (GPa) = 20.38967 23.35980 21.87473
#
# Velocity S-wave (km/s) = 3.30416 3.53664 3.42238
# Velocity P-wave (km/s) = 6.59993 7.25858 6.93708
#
# Compressibility (1/GPa) = 0.01846196
#
# Stress axis : x y z
#
# Youngs Moduli (GPa) = 106.39928 37.35761 50.47919
#
# Poissons Ratio (x) = 0.24044 0.16411
# Poissons Ratio (y) = 0.68480 0.45786
# Poissons Ratio (z) = 0.34591 0.33885
#
# Static dielectric constant tensor:
#      x y z
#    x 3.834510 0.000000 0.000000 
#    y 0.000000 3.266840 0.000000 
#    z 0.000000 0.000000 3.434720 
# 
# 
# High freq. dielectric constant tensor:
#      x y z
#    x 1.742090 0.000000 0.000000 
#    y 0.000000 1.699230 0.000000 
#    z 0.000000 0.000000 1.707450 
# 
# From -- ./inp_files/58026.got.cif
#   From: 2010.03.12/outbox.cif.g09.slc.cpg/sg65_30_cif.got.tgz:58026.got - 2010.04.10 20:52:16.
