data_PCOD8269820
_publ_section_title
;
Structure prediction by ZEFSAII (Michael W. Deem and Ramdas Pophale) SiO2 
 PCOD8269820
Probable space group: C M M M
;
_chemical_formula_sum "Si O2"
_cell_formula_units_Z 104
_cell_length_a 27.066498
_cell_length_b 9.212520
_cell_length_c 26.660855
_cell_angle_alpha 90.000000
_cell_angle_beta 90.000000
_cell_angle_gamma 90.000000
_cell_volume 6647.901635
_symmetry_space_group_name_H-M "C M M M"
_symmetry_group_IT_number 65
_symmetry_cell_setting 'orthorhombic'
loop_
_space_group_symop_operation_xyz
x,y,z
-x,-y,z
x,-y,-z
-x,y,-z
-x,-y,-z
x,y,-z
-x,y,z
x,-y,z
1/2+x,1/2+y,z
1/2-x,1/2-y,z
1/2+x,1/2-y,-z
1/2-x,1/2+y,-z
1/2-x,1/2-y,-z
1/2+x,1/2+y,-z
1/2-x,1/2+y,z
1/2+x,1/2-y,z
loop_
_atom_site_type_symbol
_atom_site_label
_atom_site_fract_x
_atom_site_fract_y
_atom_site_fract_z
Si Si1 0.556655 0.331539 0.942523
Si Si2 0.800591 0.167709 0.500000
Si Si3 0.801597 0.169322 0.392075
Si Si4 0.298730 0.169878 0.797679
Si Si5 0.602129 0.831199 0.854322
Si Si6 0.555039 0.666783 0.765714
Si Si7 0.849048 0.830922 0.290737
O O1 0.500000 0.289530 0.930885
O O2 0.565364 0.500000 0.931021
O O3 0.593551 0.238066 0.908646
O O4 0.569434 0.295954 0.000000
O O5 0.750000 0.250000 0.500000
O O6 0.827214 0.206485 0.446723
O O7 0.787324 0.000000 0.500000
O O8 0.750000 0.250000 0.384566
O O9 0.839726 0.214764 0.348414
O O10 0.789484 0.000000 0.388238
O O11 0.250000 0.250000 0.818124
O O12 0.341573 0.199270 0.838139
O O13 0.313220 0.236585 0.744032
O O14 0.288418 0.000000 0.790508
O O15 0.564526 0.762241 0.814651
O O16 0.590374 0.000000 0.856996
O O17 0.500000 0.699183 0.745235
O O18 0.560666 0.500000 0.782367
O O19 0.593772 0.704909 0.721624
O O20 0.837176 0.000000 0.281228
#
# Coordination Sequence:
#
# PCOD8269820 Si02
#       7
#    16   8  16  16  16  16  16
#     4   9  18  32  49  69  92 117 144 172 204 246
#     4   8  14  24  36  52  75 103 133 165 204 248
#     4   9  16  25  38  56  79 106 135 168 206 248
#     4  10  20  32  45  63  87 114 143 174 208 247
#     4  10  20  31  45  67  91 113 139 173 211 248
#     4   9  17  29  44  61  83 112 143 172 204 247
#     4   9  17  28  42  61  83 109 141 174 209 248
#
# _framework density 15.644034
#
# number of rings (size 3 to 8) (size 9 to 14) (size 15 to 20)
#    0.000    2.769    0.000    2.308    0.000    6.462 
#    0.000    0.769    0.000    0.462    0.000    0.538 
#    0.000    4.308    0.000    0.000    0.000   41.615 
#
# Total GULP energy -644517.056911 kJ/mol
# GULP energy per Si atom -12394.558787 kJ/mol
# Density = 1.560843 g / cm^3
# Si number density = 15.644034 Si / 1000 Ang^3
#
#
#
# Elastic Constant Matrix: (Units=GPa)
#
#
# Indices 1 2 3 4 5 6 
#
# 1 89.4379 41.2866 58.0127 0.0000 0.0000 0.0000
# 2 41.2866 62.7338 50.6372 0.0000 0.0000 0.0000
# 3 58.0127 50.6372 134.4138 0.0000 0.0000 0.0000
# 4 0.0000 0.0000 0.0000 18.7256 0.0000 0.0000
# 5 0.0000 0.0000 0.0000 0.0000 20.3557 0.0000
# 6 0.0000 0.0000 0.0000 0.0000 0.0000 21.4158
#
#
#
# Elastic Compliance Matrix: (Units=1/GPa)
#
#
# Indices 1 2 3 4 5 6 
#
# 1 0.017937 -0.007984 -0.004734 0.000000 0.000000 0.000000
# 2 -0.007984 0.026459 -0.006522 0.000000 0.000000 0.000000
# 3 -0.004734 -0.006522 0.011940 0.000000 0.000000 0.000000
# 4 0.000000 0.000000 0.000000 0.053403 0.000000 0.000000
# 5 0.000000 0.000000 0.000000 0.000000 0.049126 0.000000
# 6 0.000000 0.000000 0.000000 0.000000 0.000000 0.046694
#
#
# Mechanical properties :
#
#
# Convention : Reuss Voigt Hill
#
# Bulk Modulus (GPa) = 56.00160 65.16206 60.58183
# Shear Modulus (GPa) = 20.00071 21.20935 20.60503
#
# Velocity S-wave (km/s) = 3.57947 3.68604 3.63315
# Velocity P-wave (km/s) = 7.27727 7.73688 7.51059
#
# Compressibility (1/GPa) = 0.01785663
#
# Stress axis : x y z
#
# Youngs Moduli (GPa) = 55.75086 37.79416 83.75274
#
# Poissons Ratio (x) = 0.30174 0.39648
# Poissons Ratio (y) = 0.44510 0.54625
# Poissons Ratio (z) = 0.26392 0.24650
#
# Static dielectric constant tensor:
#      x y z
#    x 2.875830 0.000000 0.000000 
#    y 0.000000 3.009510 0.000000 
#    z 0.000000 0.000000 3.223960 
# 
# 
# High freq. dielectric constant tensor:
#      x y z
#    x 1.575690 0.000000 0.000000 
#    y 0.000000 1.605860 0.000000 
#    z 0.000000 0.000000 1.598210 
# 
# From -- ./inp_files/76030.got.cif
#   From: 2010.03.12/outbox.cif.g09.slc.cpg/sg65_39_cif.got.tgz:76030.got - 2010.04.10 20:52:16.
