data_PCOD8269290
_publ_section_title
;
Structure prediction by ZEFSAII (Michael W. Deem and Ramdas Pophale) SiO2 
 PCOD8269290
Probable space group: C M M M
;
_chemical_formula_sum "Si O2"
_cell_formula_units_Z 88
_cell_length_a 24.075699
_cell_length_b 22.677607
_cell_length_c 9.454707
_cell_angle_alpha 90.000000
_cell_angle_beta 90.000000
_cell_angle_gamma 90.000000
_cell_volume 5162.073744
_symmetry_space_group_name_H-M "C M M M"
_symmetry_group_IT_number 65
_symmetry_cell_setting 'orthorhombic'
loop_
_space_group_symop_operation_xyz
x,y,z
-x,-y,z
x,-y,-z
-x,y,-z
-x,-y,-z
x,y,-z
-x,y,z
x,-y,z
1/2+x,1/2+y,z
1/2-x,1/2-y,z
1/2+x,1/2-y,-z
1/2-x,1/2+y,-z
1/2-x,1/2-y,-z
1/2+x,1/2+y,-z
1/2-x,1/2+y,z
1/2+x,1/2-y,z
loop_
_atom_site_type_symbol
_atom_site_label
_atom_site_fract_x
_atom_site_fract_y
_atom_site_fract_z
Si Si1 0.436633 0.338227 0.334887
Si Si2 0.847119 0.067194 0.334587
Si Si3 0.379050 0.895637 0.164848
Si Si4 0.065630 0.500000 0.335468
Si Si5 0.063930 0.725271 0.163011
Si Si6 0.242086 0.568017 0.838679
O O1 0.430872 0.325066 0.500000
O O2 0.500000 0.353144 0.292929
O O3 0.399748 0.393933 0.288454
O O4 0.415004 0.280538 0.253895
O O5 0.835701 0.071791 0.500000
O O6 0.792159 0.091553 0.257767
O O7 0.859785 0.000000 0.288339
O O8 0.400272 0.831159 0.206755
O O9 0.313395 0.895692 0.196299
O O10 0.410394 0.942205 0.261605
O O11 0.390989 0.910547 0.000000
O O12 0.082857 0.500000 0.500000
O O13 0.000000 0.500000 0.316396
O O14 0.000000 0.710664 0.196734
O O15 0.072636 0.741679 0.000000
O O16 0.228646 0.500000 0.805678
O O17 0.260543 0.576929 0.000000
#
# Coordination Sequence:
#
# PCOD8269290 Si02
#       6
#    16  16  16   8  16  16
#     4   9  18  33  52  73  99 130 161 198 247 300
#     4   9  18  32  51  75 100 127 161 200 245 299
#     4  10  19  34  53  72  96 132 174 210 247 292
#     4  11  23  33  45  73 107 133 164 211 258 295
#     4   9  18  32  51  73  96 127 167 207 247 293
#     4   9  17  31  50  72  97 127 164 205 247 291
#
# _framework density 17.047412000000001
#
# number of rings (size 3 to 8) (size 9 to 14) (size 15 to 20)
#    0.000    2.636    0.909    0.818    0.000    4.000 
#    0.000    4.545    0.000    5.455    0.000    5.091 
#    0.000    0.000    0.000    0.000    0.000    0.000 
#
# Total GULP energy -545681.990835 kJ/mol
# GULP energy per Si atom -12401.863428 kJ/mol
# Density = 1.700861 g / cm^3
# Si number density = 17.047412 Si / 1000 Ang^3
#
#
#
# Elastic Constant Matrix: (Units=GPa)
#
#
# Indices 1 2 3 4 5 6 
#
# 1 114.8493 80.8731 55.8980 0.0000 0.0000 0.0000
# 2 80.8731 120.3206 58.5617 0.0000 0.0000 0.0000
# 3 55.8980 58.5617 64.1177 0.0000 0.0000 0.0000
# 4 0.0000 0.0000 0.0000 29.2151 0.0000 0.0000
# 5 0.0000 0.0000 0.0000 0.0000 29.4162 0.0000
# 6 0.0000 0.0000 0.0000 0.0000 0.0000 13.9481
#
#
#
# Elastic Compliance Matrix: (Units=1/GPa)
#
#
# Indices 1 2 3 4 5 6 
#
# 1 0.018935 -0.008448 -0.008791 0.000000 0.000000 0.000000
# 2 -0.008448 0.018732 -0.009744 0.000000 0.000000 0.000000
# 3 -0.008791 -0.009744 0.032160 0.000000 0.000000 0.000000
# 4 0.000000 0.000000 0.000000 0.034229 0.000000 0.000000
# 5 0.000000 0.000000 0.000000 0.000000 0.033995 0.000000
# 6 0.000000 0.000000 0.000000 0.000000 0.000000 0.071694
#
#
# Mechanical properties :
#
#
# Convention : Reuss Voigt Hill
#
# Bulk Modulus (GPa) = 63.04984 76.66146 69.85565
# Shear Modulus (GPa) = 18.58754 21.44622 20.01688
#
# Velocity S-wave (km/s) = 3.30562 3.55072 3.43036
# Velocity P-wave (km/s) = 7.18573 7.86622 7.53366
#
# Compressibility (1/GPa) = 0.01586047
#
# Stress axis : x y z
#
# Youngs Moduli (GPa) = 52.81317 53.38517 31.09453
#
# Poissons Ratio (x) = 0.45100 0.27336
# Poissons Ratio (y) = 0.44617 0.30297
# Poissons Ratio (z) = 0.46430 0.52017
#
# Static dielectric constant tensor:
#      x y z
#    x 3.257190 0.000000 0.000000 
#    y 0.000000 3.182470 0.000000 
#    z 0.000000 0.000000 3.192320 
# 
# 
# High freq. dielectric constant tensor:
#      x y z
#    x 1.658210 0.000000 0.000000 
#    y 0.000000 1.647720 0.000000 
#    z 0.000000 0.000000 1.655830 
# 
# From -- ./inp_files/11825.got.cif
#   From: 2010.03.12/outbox.cif.g09.slc.cpg/sg65_6_cif.got.tgz:11825.got - 2010.04.10 20:52:16.
