data_PCOD8269786
_publ_section_title
;
Structure prediction by ZEFSAII (Michael W. Deem and Ramdas Pophale) SiO2 
 PCOD8269786
Probable space group: C M M M
;
_chemical_formula_sum "Si O2"
_cell_formula_units_Z 104
_cell_length_a 27.472485
_cell_length_b 9.081604
_cell_length_c 27.547846
_cell_angle_alpha 90.000000
_cell_angle_beta 90.000000
_cell_angle_gamma 90.000000
_cell_volume 6873.028617
_symmetry_space_group_name_H-M "C M M M"
_symmetry_group_IT_number 65
_symmetry_cell_setting 'orthorhombic'
loop_
_space_group_symop_operation_xyz
x,y,z
-x,-y,z
x,-y,-z
-x,y,-z
-x,-y,-z
x,y,-z
-x,y,z
x,-y,z
1/2+x,1/2+y,z
1/2-x,1/2-y,z
1/2+x,1/2-y,-z
1/2-x,1/2+y,-z
1/2-x,1/2-y,-z
1/2+x,1/2+y,-z
1/2-x,1/2+y,z
1/2+x,1/2-y,z
loop_
_atom_site_type_symbol
_atom_site_label
_atom_site_fract_x
_atom_site_fract_y
_atom_site_fract_z
Si Si1 0.138038 0.328091 0.867318
Si Si2 0.500000 0.173451 0.555121
Si Si3 0.301418 0.172064 0.771557
Si Si4 0.553529 0.664650 0.630747
Si Si5 0.055906 0.828907 0.814996
Si Si6 0.384772 0.672502 0.279844
Si Si7 0.200340 0.829629 0.056575
O O1 0.134332 0.500000 0.878615
O O2 0.175146 0.293702 0.823676
O O3 0.084790 0.266864 0.854527
O O4 0.155969 0.243997 0.915043
O O5 0.500000 0.230482 0.500000
O O6 0.451201 0.234383 0.582307
O O7 0.500000 0.000000 0.557844
O O8 0.250000 0.250000 0.768870
O O9 0.335554 0.237151 0.729248
O O10 0.294713 0.000000 0.762501
O O11 0.500000 0.660449 0.656336
O O12 0.568765 0.500000 0.614770
O O13 0.592586 0.727394 0.669065
O O14 0.075775 0.792991 0.761548
O O15 0.000000 0.780610 0.817328
O O16 0.062865 0.000000 0.827683
O O17 0.372372 0.500000 0.281348
O O18 0.250000 0.750000 0.071928
O O19 0.205257 0.000000 0.071018
O O20 0.189349 0.808746 0.000000
#
# Coordination Sequence:
#
# PCOD8269786 Si02
#       7
#    16   8  16  16  16  16  16
#     4  10  20  32  47  67  91 118 147 179 217 261
#     4   9  17  27  39  59  89 123 155 187 224 261
#     4  10  20  31  43  62  88 118 150 181 216 258
#     4   8  15  26  42  62  85 115 149 183 218 259
#     4   9  17  29  47  67  89 118 150 182 216 258
#     4   9  16  28  45  64  87 115 149 184 220 261
#     4  10  20  33  50  71  92 113 140 176 219 267
#
# _framework density 15.131612000000001
#
# number of rings (size 3 to 8) (size 9 to 14) (size 15 to 20)
#    0.462    2.231    0.000    2.308    0.000    7.385 
#    0.000    0.000    0.000    0.462    0.000    3.231 
#    0.000    0.615    0.000    2.000    0.000    2.923 
#
# Total GULP energy -644657.021187 kJ/mol
# GULP energy per Si atom -12397.250407 kJ/mol
# Density = 1.509717 g / cm^3
# Si number density = 15.131612 Si / 1000 Ang^3
#
#
#
# Elastic Constant Matrix: (Units=GPa)
#
#
# Indices 1 2 3 4 5 6 
#
# 1 106.1166 52.6851 45.6140 0.0000 0.0000 0.0000
# 2 52.6851 82.7756 48.7242 0.0000 0.0000 0.0000
# 3 45.6140 48.7242 77.8725 0.0000 0.0000 0.0000
# 4 0.0000 0.0000 0.0000 23.1705 0.0000 0.0000
# 5 0.0000 0.0000 0.0000 0.0000 21.0627 0.0000
# 6 0.0000 0.0000 0.0000 0.0000 0.0000 26.5589
#
#
#
# Elastic Compliance Matrix: (Units=1/GPa)
#
#
# Indices 1 2 3 4 5 6 
#
# 1 0.014652 -0.006766 -0.004349 0.000000 0.000000 0.000000
# 2 -0.006766 0.022248 -0.009958 0.000000 0.000000 0.000000
# 3 -0.004349 -0.009958 0.021620 0.000000 0.000000 0.000000
# 4 0.000000 0.000000 0.000000 0.043158 0.000000 0.000000
# 5 0.000000 0.000000 0.000000 0.000000 0.047477 0.000000
# 6 0.000000 0.000000 0.000000 0.000000 0.000000 0.037652
#
#
# Mechanical properties :
#
#
# Convention : Reuss Voigt Hill
#
# Bulk Modulus (GPa) = 61.06919 62.31234 61.69077
# Shear Modulus (GPa) = 21.33000 22.14118 21.73559
#
# Velocity S-wave (km/s) = 3.75858 3.82938 3.79415
# Velocity P-wave (km/s) = 7.69949 7.79884 7.74932
#
# Compressibility (1/GPa) = 0.01637487
#
# Stress axis : x y z
#
# Youngs Moduli (GPa) = 68.24914 44.94689 46.25444
#
# Poissons Ratio (x) = 0.30410 0.20117
# Poissons Ratio (y) = 0.46175 0.46059
# Poissons Ratio (z) = 0.29684 0.44757
#
# Static dielectric constant tensor:
#      x y z
#    x 2.811420 0.000000 0.000000 
#    y 0.000000 2.944390 0.000000 
#    z 0.000000 0.000000 2.778410 
# 
# 
# High freq. dielectric constant tensor:
#      x y z
#    x 1.562930 0.000000 0.000000 
#    y 0.000000 1.588570 0.000000 
#    z 0.000000 0.000000 1.557030 
# 
# From -- ./inp_files/78460.got.cif
#   From: 2010.03.12/outbox.cif.g09.slc.cpg/sg65_40_cif.got.tgz:78460.got - 2010.04.10 20:52:16.
