data_PCOD8269719
_publ_section_title
;
Structure prediction by ZEFSAII (Michael W. Deem and Ramdas Pophale) SiO2 
 PCOD8269719
Probable space group: C M M M
;
_chemical_formula_sum "Si O2"
_cell_formula_units_Z 104
_cell_length_a 26.776371
_cell_length_b 9.199749
_cell_length_c 26.874214
_cell_angle_alpha 90.000000
_cell_angle_beta 90.000000
_cell_angle_gamma 90.000000
_cell_volume 6620.083486
_symmetry_space_group_name_H-M "C M M M"
_symmetry_group_IT_number 65
_symmetry_cell_setting 'orthorhombic'
loop_
_space_group_symop_operation_xyz
x,y,z
-x,-y,z
x,-y,-z
-x,y,-z
-x,-y,-z
x,y,-z
-x,y,z
x,-y,z
1/2+x,1/2+y,z
1/2-x,1/2-y,z
1/2+x,1/2-y,-z
1/2-x,1/2+y,-z
1/2-x,1/2-y,-z
1/2+x,1/2+y,-z
1/2-x,1/2+y,z
1/2+x,1/2-y,z
loop_
_atom_site_type_symbol
_atom_site_label
_atom_site_fract_x
_atom_site_fract_y
_atom_site_fract_z
Si Si1 0.697800 0.669575 0.000000
Si Si2 0.943977 0.172413 0.552566
Si Si3 0.798595 0.330414 0.193742
Si Si4 0.154026 0.169098 0.104363
Si Si5 0.555400 0.666615 0.842194
Si Si6 0.400384 0.168895 0.247258
Si Si7 0.440958 0.330622 0.660323
O O1 0.750000 0.750000 0.000000
O O2 0.665241 0.714616 0.047874
O O3 0.709712 0.500000 0.000000
O O4 0.916986 0.222459 0.500000
O O5 0.920493 0.221883 0.605484
O O6 0.000000 0.233843 0.550768
O O7 0.945974 0.000000 0.554200
O O8 0.787668 0.500000 0.186821
O O9 0.750000 0.250000 0.215617
O O10 0.811022 0.263995 0.139892
O O11 0.843178 0.301313 0.232293
O O12 0.095784 0.204813 0.115234
O O13 0.165936 0.000000 0.114035
O O14 0.500000 0.696739 0.863884
O O15 0.561254 0.500000 0.825245
O O16 0.562804 0.762553 0.793268
O O17 0.409520 0.238668 0.300670
O O18 0.412722 0.000000 0.249989
O O19 0.500000 0.299622 0.665358
O O20 0.429989 0.500000 0.669342
#
# Coordination Sequence:
#
# PCOD8269719 Si02
#       7
#     8  16  16  16  16  16  16
#     4  10  20  32  47  67  89 111 136 170 213 256
#     4   7  10  18  33  53  77 106 141 178 209 235
#     4  10  20  33  48  65  84 108 138 171 210 254
#     4   9  18  32  48  67  90 113 138 169 205 247
#     4   9  17  30  47  64  84 113 146 175 203 239
#     4  10  20  30  41  61  87 112 139 172 210 252
#     4   9  16  25  39  60  85 114 147 178 206 239
#
# _framework density 15.709771
#
# number of rings (size 3 to 8) (size 9 to 14) (size 15 to 20)
#    0.000    2.923    0.000    3.231    0.000    6.154 
#    0.000    0.385    0.000    2.769    0.000    2.154 
#    0.000    6.154    0.000    1.385    0.000    2.154 
#
# Total GULP energy -644362.908584 kJ/mol
# GULP energy per Si atom -12391.594396 kJ/mol
# Density = 1.567402 g / cm^3
# Si number density = 15.709771 Si / 1000 Ang^3
#
#
#
# Elastic Constant Matrix: (Units=GPa)
#
#
# Indices 1 2 3 4 5 6 
#
# 1 84.1953 38.7644 51.9810 0.0000 0.0000 0.0000
# 2 38.7644 61.9271 50.3444 0.0000 0.0000 0.0000
# 3 51.9810 50.3444 149.5056 0.0000 0.0000 0.0000
# 4 0.0000 0.0000 0.0000 11.4464 0.0000 0.0000
# 5 0.0000 0.0000 0.0000 0.0000 15.2474 0.0000
# 6 0.0000 0.0000 0.0000 0.0000 0.0000 21.2880
#
#
#
# Elastic Compliance Matrix: (Units=1/GPa)
#
#
# Indices 1 2 3 4 5 6 
#
# 1 0.017834 -0.008431 -0.003362 0.000000 0.000000 0.000000
# 2 -0.008431 0.026220 -0.005898 0.000000 0.000000 0.000000
# 3 -0.003362 -0.005898 0.009844 0.000000 0.000000 0.000000
# 4 0.000000 0.000000 0.000000 0.087364 0.000000 0.000000
# 5 0.000000 0.000000 0.000000 0.000000 0.065585 0.000000
# 6 0.000000 0.000000 0.000000 0.000000 0.000000 0.046975
#
#
# Mechanical properties :
#
#
# Convention : Reuss Voigt Hill
#
# Bulk Modulus (GPa) = 54.00438 64.20085 59.10261
# Shear Modulus (GPa) = 16.92762 19.89892 18.41327
#
# Velocity S-wave (km/s) = 3.28612 3.56288 3.42729
# Velocity P-wave (km/s) = 6.98921 7.60796 7.30514
#
# Compressibility (1/GPa) = 0.01851702
#
# Stress axis : x y z
#
# Youngs Moduli (GPa) = 56.07202 38.13839 101.58778
#
# Poissons Ratio (x) = 0.32153 0.34152
# Poissons Ratio (y) = 0.47272 0.59918
# Poissons Ratio (z) = 0.18850 0.22495
#
# Static dielectric constant tensor:
#      x y z
#    x 2.903890 0.000000 0.000000 
#    y 0.000000 2.907050 0.000000 
#    z 0.000000 0.000000 3.264560 
# 
# 
# High freq. dielectric constant tensor:
#      x y z
#    x 1.575900 0.000000 0.000000 
#    y 0.000000 1.592890 0.000000 
#    z 0.000000 0.000000 1.603910 
# 
# From -- ./inp_files/71799.got.cif
#   From: 2010.03.12/outbox.cif.g09.slc.cpg/sg65_36_cif.got.tgz:71799.got - 2010.04.10 20:52:16.
