data_PCOD8269601
_publ_section_title
;
Structure prediction by ZEFSAII (Michael W. Deem and Ramdas Pophale) SiO2 
 PCOD8269601
Probable space group: C M M M
;
_chemical_formula_sum "Si O2"
_cell_formula_units_Z 84
_cell_length_a 11.121064
_cell_length_b 34.375504
_cell_length_c 11.833257
_cell_angle_alpha 90.000000
_cell_angle_beta 90.000000
_cell_angle_gamma 90.000000
_cell_volume 4523.761615
_symmetry_space_group_name_H-M "C M M M"
_symmetry_group_IT_number 65
_symmetry_cell_setting 'orthorhombic'
loop_
_space_group_symop_operation_xyz
x,y,z
-x,-y,z
x,-y,-z
-x,y,-z
-x,-y,-z
x,y,-z
-x,y,z
x,-y,z
1/2+x,1/2+y,z
1/2-x,1/2-y,z
1/2+x,1/2-y,-z
1/2-x,1/2+y,-z
1/2-x,1/2-y,-z
1/2+x,1/2+y,-z
1/2-x,1/2+y,z
1/2+x,1/2-y,z
loop_
_atom_site_type_symbol
_atom_site_label
_atom_site_fract_x
_atom_site_fract_y
_atom_site_fract_z
Si Si1 0.139585 0.500000 0.125363
Si Si2 0.000000 0.956846 0.740167
Si Si3 0.242303 0.573018 0.747272
Si Si4 0.362594 0.855546 0.127906
Si Si5 0.500000 0.566484 0.500000
Si Si6 0.360914 0.221337 0.267111
Si Si7 0.363546 0.820460 0.500000
Si Si8 0.248361 0.596147 0.500000
O O1 0.171165 0.461719 0.195098
O O2 0.000000 0.500000 0.106083
O O3 0.201090 0.500000 0.000000
O O4 0.882537 0.933053 0.775148
O O5 0.000000 0.962480 0.605483
O O6 0.000000 0.000000 0.795234
O O7 0.214040 0.614737 0.798854
O O8 0.205654 0.573722 0.613983
O O9 0.500000 0.869472 0.133660
O O10 0.348817 0.812522 0.175889
O O11 0.314735 0.855647 0.000000
O O12 0.391345 0.596711 0.500000
O O13 0.500000 0.238548 0.260865
O O14 0.250000 0.250000 0.238122
O O15 0.335133 0.205451 0.391706
O O16 0.500000 0.835181 0.500000
O O17 0.285527 0.859025 0.500000
#
# Coordination Sequence:
#
# PCOD8269601 Si02
#       8
#     8   8  16  16   4  16   8   8
#     4  11  24  40  58  81 112 150 196 243 284 334
#     4  10  19  36  56  80 116 154 186 234 286 346
#     4  11  21  38  60  85 115 150 193 237 289 345
#     4  10  21  39  62  83 112 155 198 239 289 345
#     4   8  19  32  54  82 112 150 192 226 274 352
#     4  10  21  39  61  89 119 154 191 238 294 355
#     4  10  19  35  58  84 120 151 183 233 296 351
#     4  10  20  35  58  89 113 146 188 237 288 342
#
# _framework density 18.568617
#
# number of rings (size 3 to 8) (size 9 to 14) (size 15 to 20)
#    0.000    1.810    2.857    1.571    0.000    3.048 
#    3.429    2.857    0.000    0.000    0.000    0.000 
#    0.000    0.000    0.000    0.000    0.000    0.000 
#
# Total GULP energy -520573.116989 kJ/mol
# GULP energy per Si atom -12394.598024 kJ/mol
# Density = 1.852635 g / cm^3
# Si number density = 18.568617 Si / 1000 Ang^3
#
#
#
# Elastic Constant Matrix: (Units=GPa)
#
#
# Indices 1 2 3 4 5 6 
#
# 1 100.4753 58.6474 41.3922 0.0000 0.0000 0.0000
# 2 58.6474 96.3833 42.3455 0.0000 0.0000 0.0000
# 3 41.3922 42.3455 134.3272 0.0000 0.0000 0.0000
# 4 0.0000 0.0000 0.0000 17.8096 0.0000 0.0000
# 5 0.0000 0.0000 0.0000 0.0000 19.6342 0.0000
# 6 0.0000 0.0000 0.0000 0.0000 0.0000 35.8778
#
#
#
# Elastic Compliance Matrix: (Units=1/GPa)
#
#
# Indices 1 2 3 4 5 6 
#
# 1 0.015954 -0.008761 -0.002154 0.000000 0.000000 0.000000
# 2 -0.008761 0.016855 -0.002613 0.000000 0.000000 0.000000
# 3 -0.002154 -0.002613 0.008932 0.000000 0.000000 0.000000
# 4 0.000000 0.000000 0.000000 0.056149 0.000000 0.000000
# 5 0.000000 0.000000 0.000000 0.000000 0.050932 0.000000
# 6 0.000000 0.000000 0.000000 0.000000 0.000000 0.027872
#
#
# Mechanical properties :
#
#
# Convention : Reuss Voigt Hill
#
# Bulk Modulus (GPa) = 68.10709 68.43958 68.27333
# Shear Modulus (GPa) = 23.96394 27.25104 25.60749
#
# Velocity S-wave (km/s) = 3.59634 3.83506 3.71762
# Velocity P-wave (km/s) = 7.34868 7.51984 7.43475
#
# Compressibility (1/GPa) = 0.01468276
#
# Stress axis : x y z
#
# Youngs Moduli (GPa) = 62.67962 59.33110 111.95436
#
# Poissons Ratio (x) = 0.51982 0.24118
# Poissons Ratio (y) = 0.54916 0.29259
# Poissons Ratio (z) = 0.13503 0.15506
#
# Static dielectric constant tensor:
#      x y z
#    x 3.570810 0.000000 0.000000 
#    y 0.000000 3.215240 0.000000 
#    z 0.000000 0.000000 3.669120 
# 
# 
# High freq. dielectric constant tensor:
#      x y z
#    x 1.719450 0.000000 0.000000 
#    y 0.000000 1.711960 0.000000 
#    z 0.000000 0.000000 1.732960 
# 
# From -- ./inp_files/23068.got.cif
#   From: 2010.03.12/outbox.cif.g09.slc.cpg/sg65_12_cif.got.tgz:23068.got - 2010.04.10 20:52:16.
