data_PCOD8269232
_publ_section_title
;
Structure prediction by ZEFSAII (Michael W. Deem and Ramdas Pophale) SiO2 
 PCOD8269232
Probable space group: C M M M
;
_chemical_formula_sum "Si O2"
_cell_formula_units_Z 72
_cell_length_a 14.570465
_cell_length_b 13.742686
_cell_length_c 17.713728
_cell_angle_alpha 90.000000
_cell_angle_beta 90.000000
_cell_angle_gamma 90.000000
_cell_volume 3546.949517
_symmetry_space_group_name_H-M "C M M M"
_symmetry_group_IT_number 65
_symmetry_cell_setting 'orthorhombic'
loop_
_space_group_symop_operation_xyz
x,y,z
-x,-y,z
x,-y,-z
-x,y,-z
-x,-y,-z
x,y,-z
-x,y,z
x,-y,z
1/2+x,1/2+y,z
1/2-x,1/2-y,z
1/2+x,1/2-y,-z
1/2-x,1/2+y,-z
1/2-x,1/2-y,-z
1/2+x,1/2+y,-z
1/2-x,1/2+y,z
1/2+x,1/2-y,z
loop_
_atom_site_type_symbol
_atom_site_label
_atom_site_fract_x
_atom_site_fract_y
_atom_site_fract_z
Si Si1 0.000000 0.613156 0.589222
Si Si2 0.350686 0.774818 0.680865
Si Si3 0.897039 0.891521 0.784144
Si Si4 0.727213 0.385876 0.082718
Si Si5 0.397064 0.113929 0.825837
O O1 0.910522 0.671176 0.617588
O O2 0.000000 0.500000 0.617437
O O3 0.000000 0.616158 0.500000
O O4 0.250000 0.750000 0.648108
O O5 0.394145 0.672776 0.708296
O O6 0.344829 0.845650 0.752702
O O7 0.838006 0.841485 0.851853
O O8 0.000000 0.897307 0.814534
O O9 0.860014 0.000000 0.764662
O O10 0.708528 0.500000 0.080683
O O11 0.833794 0.362618 0.101650
O O12 0.705931 0.340780 0.000000
O O13 0.500000 0.159635 0.834491
O O14 0.406514 0.000000 0.814278
#
# Coordination Sequence:
#
# PCOD8269232 Si02
#       5
#     8  16  16  16  16
#     4  11  26  48  73 103 136 165 197 249 319 386
#     4  12  22  37  67  96 125 161 212 257 307 376
#     4  10  20  35  56  84 118 162 214 261 312 371
#     4   9  18  32  51  81 122 164 213 276 331 370
#     4  10  19  33  56  85 118 163 217 266 320 381
#
# _framework density 20.299132
#
# number of rings (size 3 to 8) (size 9 to 14) (size 15 to 20)
#    0.000    1.667    4.444    0.667    0.000    2.222 
#    0.000    6.667    0.000    4.000    0.000    0.000 
#    0.000    0.000    0.000    0.000    0.000    0.000 
#
# Total GULP energy -446167.992019 kJ/mol
# GULP energy per Si atom -12393.555334 kJ/mol
# Density = 2.025293 g / cm^3
# Si number density = 20.299132 Si / 1000 Ang^3
#
#
#
# Elastic Constant Matrix: (Units=GPa)
#
#
# Indices 1 2 3 4 5 6 
#
# 1 143.8748 30.0902 42.7392 0.0000 0.0000 0.0000
# 2 30.0902 88.6244 39.7009 0.0000 0.0000 0.0000
# 3 42.7392 39.7009 95.6096 0.0000 0.0000 0.0000
# 4 0.0000 0.0000 0.0000 10.0539 0.0000 0.0000
# 5 0.0000 0.0000 0.0000 0.0000 20.2489 0.0000
# 6 0.0000 0.0000 0.0000 0.0000 0.0000 21.1827
#
#
#
# Elastic Compliance Matrix: (Units=1/GPa)
#
#
# Indices 1 2 3 4 5 6 
#
# 1 0.008153 -0.001395 -0.003065 0.000000 0.000000 0.000000
# 2 -0.001395 0.014101 -0.005232 0.000000 0.000000 0.000000
# 3 -0.003065 -0.005232 0.014002 0.000000 0.000000 0.000000
# 4 0.000000 0.000000 0.000000 0.099464 0.000000 0.000000
# 5 0.000000 0.000000 0.000000 0.000000 0.049385 0.000000
# 6 0.000000 0.000000 0.000000 0.000000 0.000000 0.047208
#
#
# Mechanical properties :
#
#
# Convention : Reuss Voigt Hill
#
# Bulk Modulus (GPa) = 59.27060 61.46326 60.36693
# Shear Modulus (GPa) = 19.43101 24.66899 22.05000
#
# Velocity S-wave (km/s) = 3.09728 3.48986 3.29941
# Velocity P-wave (km/s) = 6.48481 6.82520 6.65718
#
# Compressibility (1/GPa) = 0.01687177
#
# Stress axis : x y z
#
# Youngs Moduli (GPa) = 122.65770 70.91789 71.41944
#
# Poissons Ratio (x) = 0.09893 0.21891
# Poissons Ratio (y) = 0.17110 0.37364
# Poissons Ratio (z) = 0.37597 0.37102
#
# Static dielectric constant tensor:
#      x y z
#    x 3.960040 0.000000 0.000000 
#    y 0.000000 3.879980 0.000000 
#    z 0.000000 0.000000 3.390810 
# 
# 
# High freq. dielectric constant tensor:
#      x y z
#    x 1.803200 0.000000 0.000000 
#    y 0.000000 1.810840 0.000000 
#    z 0.000000 0.000000 1.748680 
# 
# From -- ./inp_files/52726.got.cif
#   From: 2010.03.12/outbox.cif.g09.slc.cpg/sg65_27_cif.got.tgz:52726.got - 2010.04.10 20:52:16.
