data_PCOD8269842
_publ_section_title
;
Structure prediction by ZEFSAII (Michael W. Deem and Ramdas Pophale) SiO2 
 PCOD8269842
Probable space group: C M M M
;
_chemical_formula_sum "Si O2"
_cell_formula_units_Z 88
_cell_length_a 19.934666
_cell_length_b 27.269084
_cell_length_c 9.384813
_cell_angle_alpha 90.000000
_cell_angle_beta 90.000000
_cell_angle_gamma 90.000000
_cell_volume 5101.585113
_symmetry_space_group_name_H-M "C M M M"
_symmetry_group_IT_number 65
_symmetry_cell_setting 'orthorhombic'
loop_
_space_group_symop_operation_xyz
x,y,z
-x,-y,z
x,-y,-z
-x,y,-z
-x,-y,-z
x,y,-z
-x,y,z
x,-y,z
1/2+x,1/2+y,z
1/2-x,1/2-y,z
1/2+x,1/2-y,-z
1/2-x,1/2+y,-z
1/2-x,1/2-y,-z
1/2+x,1/2+y,-z
1/2-x,1/2+y,z
1/2+x,1/2-y,z
loop_
_atom_site_type_symbol
_atom_site_label
_atom_site_fract_x
_atom_site_fract_y
_atom_site_fract_z
Si Si1 0.127494 0.171740 0.165196
Si Si2 0.354977 0.943842 0.330484
Si Si3 0.874252 0.284479 0.836341
Si Si4 0.000000 0.442063 0.344308
Si Si5 0.270741 0.867230 0.164222
Si Si6 0.500000 0.668846 0.338488
Si Si7 0.000000 0.285419 0.660559
O O1 0.142487 0.228397 0.202970
O O2 0.193082 0.140388 0.203273
O O3 0.066517 0.149855 0.258202
O O4 0.107951 0.166564 0.000000
O O5 0.353736 0.937103 0.500000
O O6 0.429221 0.927649 0.268808
O O7 0.298080 0.910930 0.260382
O O8 0.339756 0.000000 0.289138
O O9 0.808613 0.316326 0.803885
O O10 0.934307 0.305691 0.739806
O O11 0.897008 0.288749 0.000000
O O12 0.000000 0.500000 0.364448
O O13 0.000000 0.417195 0.500000
O O14 0.279585 0.882177 0.000000
O O15 0.500000 0.648966 0.500000
O O16 0.500000 0.727141 0.333028
O O17 0.000000 0.305377 0.500000
#
# Coordination Sequence:
#
# PCOD8269842 Si02
#       7
#    16  16  16   8  16   8   8
#     4   9  17  31  49  67  91 125 158 186 224 276
#     4   9  18  33  51  69  91 122 158 193 232 278
#     4   9  17  30  46  64  91 126 160 192 226 268
#     4   7  12  27  49  66  82 113 157 194 221 260
#     4  10  20  31  46  70  95 120 154 194 233 272
#     4   9  17  29  46  68  92 118 153 195 229 263
#     4   9  17  28  42  63  91 124 161 196 229 264
#
# _framework density 17.249541000000001
#
# number of rings (size 3 to 8) (size 9 to 14) (size 15 to 20)
#    0.000    3.000    0.000    2.182    0.000    6.909 
#    0.000    2.273    0.000    7.091    0.000    0.636 
#    0.000    5.091    0.000    0.000    0.000    0.000 
#
# Total GULP energy -545378.076096 kJ/mol
# GULP energy per Si atom -12394.956275 kJ/mol
# Density = 1.721028 g / cm^3
# Si number density = 17.249541 Si / 1000 Ang^3
#
#
#
# Elastic Constant Matrix: (Units=GPa)
#
#
# Indices 1 2 3 4 5 6 
#
# 1 146.1734 47.9688 65.8675 0.0000 0.0000 0.0000
# 2 47.9688 59.1148 32.4154 0.0000 0.0000 0.0000
# 3 65.8675 32.4154 74.3583 0.0000 0.0000 0.0000
# 4 0.0000 0.0000 0.0000 21.5831 0.0000 0.0000
# 5 0.0000 0.0000 0.0000 0.0000 26.1880 0.0000
# 6 0.0000 0.0000 0.0000 0.0000 0.0000 13.3483
#
#
#
# Elastic Compliance Matrix: (Units=1/GPa)
#
#
# Indices 1 2 3 4 5 6 
#
# 1 0.012565 -0.005378 -0.008786 0.000000 0.000000 0.000000
# 2 -0.005378 0.024532 -0.005930 0.000000 0.000000 0.000000
# 3 -0.008786 -0.005930 0.023816 0.000000 0.000000 0.000000
# 4 0.000000 0.000000 0.000000 0.046332 0.000000 0.000000
# 5 0.000000 0.000000 0.000000 0.000000 0.038185 0.000000
# 6 0.000000 0.000000 0.000000 0.000000 0.000000 0.074916
#
#
# Mechanical properties :
#
#
# Convention : Reuss Voigt Hill
#
# Bulk Modulus (GPa) = 48.25126 63.57221 55.91174
# Shear Modulus (GPa) = 18.69546 21.11687 19.90616
#
# Velocity S-wave (km/s) = 3.29572 3.50265 3.40076
# Velocity P-wave (km/s) = 6.52040 7.30017 6.92127
#
# Compressibility (1/GPa) = 0.02072485
#
# Stress axis : x y z
#
# Youngs Moduli (GPa) = 79.58533 40.76245 41.98833
#
# Poissons Ratio (x) = 0.21924 0.36890
# Poissons Ratio (y) = 0.42804 0.24900
# Poissons Ratio (z) = 0.69922 0.24173
#
# Static dielectric constant tensor:
#      x y z
#    x 3.353140 0.000000 0.000000 
#    y 0.000000 2.837480 0.000000 
#    z 0.000000 0.000000 3.129560 
# 
# 
# High freq. dielectric constant tensor:
#      x y z
#    x 1.671440 0.000000 0.000000 
#    y 0.000000 1.627240 0.000000 
#    z 0.000000 0.000000 1.653060 
# 
# From -- ./inp_files/10201.got.cif
#   From: 2010.03.12/outbox.cif.g09.slc.cpg/sg65_6_cif.got.tgz:10201.got - 2010.04.10 20:52:16.
