data_PCOD8269802
_publ_section_title
;
Structure prediction by ZEFSAII (Michael W. Deem and Ramdas Pophale) SiO2 
 PCOD8269802
Probable space group: C M M M
;
_chemical_formula_sum "Si O2"
_cell_formula_units_Z 104
_cell_length_a 27.903403
_cell_length_b 8.202548
_cell_length_c 27.601451
_cell_angle_alpha 90.000000
_cell_angle_beta 90.000000
_cell_angle_gamma 90.000000
_cell_volume 6317.392572
_symmetry_space_group_name_H-M "C M M M"
_symmetry_group_IT_number 65
_symmetry_cell_setting 'orthorhombic'
loop_
_space_group_symop_operation_xyz
x,y,z
-x,-y,z
x,-y,-z
-x,y,-z
-x,-y,-z
x,y,-z
-x,y,z
x,-y,z
1/2+x,1/2+y,z
1/2-x,1/2-y,z
1/2+x,1/2-y,-z
1/2-x,1/2+y,-z
1/2-x,1/2-y,-z
1/2+x,1/2+y,-z
1/2-x,1/2+y,z
1/2+x,1/2-y,z
loop_
_atom_site_type_symbol
_atom_site_label
_atom_site_fract_x
_atom_site_fract_y
_atom_site_fract_z
Si Si1 0.056236 0.811786 0.383166
Si Si2 0.640339 0.809548 0.857816
Si Si3 0.609362 0.690434 0.284210
Si Si4 0.056586 0.500000 0.446053
Si Si5 0.802823 0.310817 0.766183
Si Si6 0.198353 0.192045 0.945273
Si Si7 0.552705 0.308445 0.807555
O O1 0.086390 0.768364 0.335657
O O2 0.072634 0.671100 0.420935
O O3 0.000000 0.796423 0.371128
O O4 0.066909 0.000000 0.400967
O O5 0.675525 0.734172 0.816216
O O6 0.658054 0.767833 0.911324
O O7 0.587122 0.736036 0.852341
O O8 0.636645 0.000000 0.850732
O O9 0.615581 0.500000 0.276922
O O10 0.662207 0.768881 0.278900
O O11 0.575016 0.763234 0.242266
O O12 0.078943 0.500000 0.500000
O O13 0.000000 0.500000 0.448854
O O14 0.799005 0.500000 0.773520
O O15 0.750000 0.250000 0.754466
O O16 0.250000 0.250000 0.926407
O O17 0.195553 0.000000 0.942444
O O18 0.189577 0.255331 0.000000
O O19 0.500000 0.230908 0.815720
O O20 0.547619 0.500000 0.803002
#
# Coordination Sequence:
#
# PCOD8269802 Si02
#       7
#    16  16  16   8  16  16  16
#     4   9  17  29  46  68  95 129 164 199 239 282
#     4  10  20  32  47  68  93 122 154 185 227 274
#     4   9  17  29  46  67  92 123 157 194 230 274
#     4   9  18  30  44  66  96 130 166 202 241 283
#     4  10  20  31  44  64  92 125 155 186 225 274
#     4  10  20  33  50  71  92 115 146 186 230 277
#     4   9  17  30  48  68  92 123 157 191 228 271
#
# _framework density 16.462486999999999
#
# number of rings (size 3 to 8) (size 9 to 14) (size 15 to 20)
#    0.000    2.538    0.000    2.308    1.077    6.462 
#    0.000    1.538    0.000    0.462    0.000    3.231 
#    0.000    0.615    0.308    0.000    0.000    0.000 
#
# Total GULP energy -644559.420772 kJ/mol
# GULP energy per Si atom -12395.373476 kJ/mol
# Density = 1.642502 g / cm^3
# Si number density = 16.462487 Si / 1000 Ang^3
#
#
#
# Elastic Constant Matrix: (Units=GPa)
#
#
# Indices 1 2 3 4 5 6 
#
# 1 126.3594 30.7220 55.4656 0.0000 0.0000 0.0000
# 2 30.7220 53.4621 31.7093 0.0000 0.0000 0.0000
# 3 55.4656 31.7093 91.5779 0.0000 0.0000 0.0000
# 4 0.0000 0.0000 0.0000 24.3488 0.0000 0.0000
# 5 0.0000 0.0000 0.0000 0.0000 -14.9244 0.0000
# 6 0.0000 0.0000 0.0000 0.0000 0.0000 22.4076
#
#
#
# Elastic Compliance Matrix: (Units=1/GPa)
#
#
# Indices 1 2 3 4 5 6 
#
# 1 0.011155 -0.003024 -0.005709 0.000000 0.000000 0.000000
# 2 -0.003024 0.024359 -0.006603 0.000000 0.000000 0.000000
# 3 -0.005709 -0.006603 0.016664 0.000000 0.000000 0.000000
# 4 0.000000 0.000000 0.000000 0.041070 0.000000 0.000000
# 5 0.000000 0.000000 0.000000 0.000000 -0.067004 0.000000
# 6 0.000000 0.000000 0.000000 0.000000 0.000000 0.044628
#
#
# Mechanical properties :
#
#
# Convention : Reuss Voigt Hill
#
# Bulk Modulus (GPa) = 46.49939 56.35480 51.42710
# Shear Modulus (GPa) = 45.99310 16.59989 31.29650
#
# Velocity S-wave (km/s) = 5.29139 3.17889 4.36487
# Velocity P-wave (km/s) = 8.10177 6.91233 7.53057
#
# Compressibility (1/GPa) = 0.02150566
#
# Stress axis : x y z
#
# Youngs Moduli (GPa) = 89.64358 41.05284 60.01030
#
# Poissons Ratio (x) = 0.12415 0.34261
# Poissons Ratio (y) = 0.27109 0.39623
# Poissons Ratio (z) = 0.51180 0.27106
#
# Static dielectric constant tensor:
#      x y z
#    x -0.715410 0.000000 0.000000 
#    y 0.000000 3.153870 0.000000 
#    z 0.000000 0.000000 3.096670 
# 
# 
# High freq. dielectric constant tensor:
#      x y z
#    x 1.617230 0.000000 0.000000 
#    y 0.000000 1.642640 0.000000 
#    z 0.000000 0.000000 1.609730 
# 
# From -- ./inp_files/71812.got.cif
#   From: 2010.03.12/outbox.cif.g09.slc.cpg/sg65_36_cif.got.tgz:71812.got - 2010.04.10 20:52:16.
