data_PCOD8269329
_publ_section_title
;
Structure prediction by ZEFSAII (Michael W. Deem and Ramdas Pophale) SiO2 
 PCOD8269329
Probable space group: C M M M
;
_chemical_formula_sum "Si O2"
_cell_formula_units_Z 96
_cell_length_a 9.203442
_cell_length_b 28.776825
_cell_length_c 20.297325
_cell_angle_alpha 90.000000
_cell_angle_beta 90.000000
_cell_angle_gamma 90.000000
_cell_volume 5375.662086
_symmetry_space_group_name_H-M "C M M M"
_symmetry_group_IT_number 65
_symmetry_cell_setting 'orthorhombic'
loop_
_space_group_symop_operation_xyz
x,y,z
-x,-y,z
x,-y,-z
-x,y,-z
-x,-y,-z
x,y,-z
-x,y,z
x,-y,z
1/2+x,1/2+y,z
1/2-x,1/2-y,z
1/2+x,1/2-y,-z
1/2-x,1/2+y,-z
1/2-x,1/2-y,-z
1/2+x,1/2+y,-z
1/2-x,1/2+y,z
1/2+x,1/2-y,z
loop_
_atom_site_type_symbol
_atom_site_label
_atom_site_fract_x
_atom_site_fract_y
_atom_site_fract_z
Si Si1 0.333211 0.446533 0.576177
Si Si2 0.334590 0.616298 0.073608
Si Si3 0.171514 0.395354 0.312605
Si Si4 0.667956 0.794838 0.729844
Si Si5 0.669736 0.553404 0.805310
Si Si6 0.670439 0.204173 0.117795
O O1 0.298593 0.437319 0.500000
O O2 0.500000 0.434269 0.592204
O O3 0.302681 0.500000 0.594425
O O4 0.227633 0.414109 0.617912
O O5 0.500000 0.632404 0.087554
O O6 0.287888 0.576798 0.125302
O O7 0.229439 0.660243 0.078429
O O8 0.319787 0.595360 0.000000
O O9 0.214044 0.340999 0.309475
O O10 0.242781 0.422947 0.253050
O O11 0.000000 0.402197 0.307246
O O12 0.500000 0.783875 0.721678
O O13 0.750000 0.750000 0.700580
O O14 0.709430 0.803199 0.805749
O O15 0.500000 0.558653 0.789512
O O16 0.716482 0.500000 0.810047
O O17 0.500000 0.209252 0.105196
O O18 0.750000 0.250000 0.090572
#
# Coordination Sequence:
#
# PCOD8269329 Si02
#       6
#    16  16  16  16  16  16
#     4   9  19  36  56  80 112 148 184 218 254 303
#     4  10  21  36  53  74 101 135 176 221 269 318
#     4  11  21  34  54  83 113 139 172 217 265 311
#     4   9  19  33  51  77 106 135 170 213 260 309
#     4  10  21  36  54  76 102 136 178 220 263 313
#     4  10  19  34  54  76 103 134 170 214 265 320
#
# _framework density 17.858264999999999
#
# number of rings (size 3 to 8) (size 9 to 14) (size 15 to 20)
#    0.000    2.167    1.667    2.000    0.000    6.000 
#    0.000    2.500    0.000    0.500    0.000    2.333 
#    0.000    0.000    0.000    0.000    0.000    0.000 
#
# Total GULP energy -595316.369573 kJ/mol
# GULP energy per Si atom -12402.424366 kJ/mol
# Density = 1.781762 g / cm^3
# Si number density = 17.858265 Si / 1000 Ang^3
#
#
#
# Elastic Constant Matrix: (Units=GPa)
#
#
# Indices 1 2 3 4 5 6 
#
# 1 70.6495 60.7609 42.2731 0.0000 0.0000 0.0000
# 2 60.7609 138.0921 62.9958 0.0000 0.0000 0.0000
# 3 42.2731 62.9958 91.6028 0.0000 0.0000 0.0000
# 4 0.0000 0.0000 0.0000 23.4891 0.0000 0.0000
# 5 0.0000 0.0000 0.0000 0.0000 21.1661 0.0000
# 6 0.0000 0.0000 0.0000 0.0000 0.0000 32.3673
#
#
#
# Elastic Compliance Matrix: (Units=1/GPa)
#
#
# Indices 1 2 3 4 5 6 
#
# 1 0.024664 -0.008247 -0.005710 0.000000 0.000000 0.000000
# 2 -0.008247 0.013310 -0.005347 0.000000 0.000000 0.000000
# 3 -0.005710 -0.005347 0.017229 0.000000 0.000000 0.000000
# 4 0.000000 0.000000 0.000000 0.042573 0.000000 0.000000
# 5 0.000000 0.000000 0.000000 0.000000 0.047245 0.000000
# 6 0.000000 0.000000 0.000000 0.000000 0.000000 0.030895
#
#
# Mechanical properties :
#
#
# Convention : Reuss Voigt Hill
#
# Bulk Modulus (GPa) = 60.26498 70.26712 65.26605
# Shear Modulus (GPa) = 22.72133 24.35880 23.54006
#
# Velocity S-wave (km/s) = 3.57082 3.69725 3.63459
# Velocity P-wave (km/s) = 7.12885 7.59334 7.36476
#
# Compressibility (1/GPa) = 0.01659338
#
# Stress axis : x y z
#
# Youngs Moduli (GPa) = 40.54471 75.13329 58.04102
#
# Poissons Ratio (x) = 0.61965 0.33143
# Poissons Ratio (y) = 0.33438 0.31035
# Poissons Ratio (z) = 0.23152 0.40175
#
# Static dielectric constant tensor:
#      x y z
#    x 3.299270 0.000000 0.000000 
#    y 0.000000 3.404890 0.000000 
#    z 0.000000 0.000000 3.197810 
# 
# 
# High freq. dielectric constant tensor:
#      x y z
#    x 1.692040 0.000000 0.000000 
#    y 0.000000 1.692540 0.000000 
#    z 0.000000 0.000000 1.678880 
# 
# From -- ./inp_files/60162.got.cif
#   From: 2010.03.12/outbox.cif.g09.slc.cpg/sg65_31_cif.got.tgz:60162.got - 2010.04.10 20:52:16.
