data_PCOD8269424
_publ_section_title
;
Structure prediction by ZEFSAII (Michael W. Deem and Ramdas Pophale) SiO2 
 PCOD8269424
Probable space group: C M M M
;
_chemical_formula_sum "Si O2"
_cell_formula_units_Z 88
_cell_length_a 8.656312
_cell_length_b 19.347922
_cell_length_c 27.644426
_cell_angle_alpha 90.000000
_cell_angle_beta 90.000000
_cell_angle_gamma 90.000000
_cell_volume 4629.934063
_symmetry_space_group_name_H-M "C M M M"
_symmetry_group_IT_number 65
_symmetry_cell_setting 'orthorhombic'
loop_
_space_group_symop_operation_xyz
x,y,z
-x,-y,z
x,-y,-z
-x,y,-z
-x,-y,-z
x,y,-z
-x,y,z
x,-y,z
1/2+x,1/2+y,z
1/2-x,1/2-y,z
1/2+x,1/2-y,-z
1/2-x,1/2+y,-z
1/2-x,1/2-y,-z
1/2+x,1/2+y,-z
1/2-x,1/2+y,z
1/2+x,1/2-y,z
loop_
_atom_site_type_symbol
_atom_site_label
_atom_site_fract_x
_atom_site_fract_y
_atom_site_fract_z
Si Si1 0.821836 0.080961 0.266651
Si Si2 0.819125 0.177466 0.555913
Si Si3 0.816548 0.922261 0.000000
Si Si4 0.318605 0.823095 0.811764
Si Si5 0.677798 0.080470 0.633299
Si Si6 0.183381 0.824131 0.914607
O O1 0.716831 0.119443 0.227884
O O2 0.773650 0.105683 0.320096
O O3 0.000000 0.099687 0.258044
O O4 0.789402 0.000000 0.260552
O O5 0.779530 0.164069 0.500000
O O6 0.750000 0.250000 0.573436
O O7 0.739375 0.117079 0.585626
O O8 0.000000 0.177619 0.565873
O O9 0.758438 0.881629 0.047478
O O10 0.000000 0.925616 0.000000
O O11 0.747293 0.000000 0.000000
O O12 0.500000 0.814940 0.819023
O O13 0.250000 0.750000 0.794459
O O14 0.243696 0.846849 0.862188
O O15 0.500000 0.099047 0.642316
O O16 0.703044 0.000000 0.624159
O O17 0.250000 0.750000 0.930231
O O18 0.000000 0.818743 0.913575
#
# Coordination Sequence:
#
# PCOD8269424 Si02
#       6
#    16  16   8  16  16  16
#     4  10  21  38  59  82 110 144 181 222 271 325
#     4  10  21  37  57  81 110 144 183 227 274 324
#     4   9  19  34  53  79 108 139 178 222 266 317
#     4  11  22  37  57  82 112 143 182 227 271 322
#     4  10  21  37  57  82 112 145 182 224 270 322
#     4  10  19  34  56  79 106 141 180 221 268 320
#
# _framework density 19.00675
#
# number of rings (size 3 to 8) (size 9 to 14) (size 15 to 20)
#    0.000    1.909    0.000    5.182    0.000    5.091 
#    0.000    8.636    0.000    3.818    0.000    0.000 
#    0.000    0.000    0.000    0.000    0.000    0.000 
#
# Total GULP energy -545794.581861 kJ/mol
# GULP energy per Si atom -12404.422315 kJ/mol
# Density = 1.896349 g / cm^3
# Si number density = 19.006750 Si / 1000 Ang^3
#
#
#
# Elastic Constant Matrix: (Units=GPa)
#
#
# Indices 1 2 3 4 5 6 
#
# 1 89.9971 42.6765 36.8346 0.0000 0.0000 0.0000
# 2 42.6765 91.4123 71.2286 0.0000 0.0000 0.0000
# 3 36.8346 71.2286 108.8679 0.0000 0.0000 0.0000
# 4 0.0000 0.0000 0.0000 40.9732 0.0000 0.0000
# 5 0.0000 0.0000 0.0000 0.0000 30.4730 0.0000
# 6 0.0000 0.0000 0.0000 0.0000 0.0000 31.8203
#
#
#
# Elastic Compliance Matrix: (Units=1/GPa)
#
#
# Indices 1 2 3 4 5 6 
#
# 1 0.014320 -0.005937 -0.000961 0.000000 0.000000 0.000000
# 2 -0.005937 0.024778 -0.014203 0.000000 0.000000 0.000000
# 3 -0.000961 -0.014203 0.018803 0.000000 0.000000 0.000000
# 4 0.000000 0.000000 0.000000 0.024406 0.000000 0.000000
# 5 0.000000 0.000000 0.000000 0.000000 0.032816 0.000000
# 6 0.000000 0.000000 0.000000 0.000000 0.000000 0.031426
#
#
# Mechanical properties :
#
#
# Convention : Reuss Voigt Hill
#
# Bulk Modulus (GPa) = 63.69347 65.75074 64.72211
# Shear Modulus (GPa) = 25.77552 29.95582 27.86567
#
# Velocity S-wave (km/s) = 3.68655 3.97427 3.83311
# Velocity P-wave (km/s) = 7.19059 7.46514 7.32915
#
# Compressibility (1/GPa) = 0.01570020
#
# Stress axis : x y z
#
# Youngs Moduli (GPa) = 69.83300 40.35892 53.18349
#
# Poissons Ratio (x) = 0.23959 0.05110
# Poissons Ratio (y) = 0.41457 0.75534
# Poissons Ratio (z) = 0.06710 0.57320
#
# Static dielectric constant tensor:
#      x y z
#    x 3.538370 0.000000 0.000000 
#    y 0.000000 3.485260 0.000000 
#    z 0.000000 0.000000 3.547050 
# 
# 
# High freq. dielectric constant tensor:
#      x y z
#    x 1.747830 0.000000 0.000000 
#    y 0.000000 1.736150 0.000000 
#    z 0.000000 0.000000 1.746480 
# 
# From -- ./inp_files/67583.got.cif
#   From: 2010.03.12/outbox.cif.g09.slc.cpg/sg65_34_cif.got.tgz:67583.got - 2010.04.10 20:52:16.
