data_PCOD8269103
_publ_section_title
;
Structure prediction by ZEFSAII (Michael W. Deem and Ramdas Pophale) SiO2 
 PCOD8269103
Probable space group: C M M M
;
_chemical_formula_sum "Si O2"
_cell_formula_units_Z 96
_cell_length_a 28.783030
_cell_length_b 9.088771
_cell_length_c 20.145534
_cell_angle_alpha 90.000000
_cell_angle_beta 90.000000
_cell_angle_gamma 90.000000
_cell_volume 5270.119406
_symmetry_space_group_name_H-M "C M M M"
_symmetry_group_IT_number 65
_symmetry_cell_setting 'orthorhombic'
loop_
_space_group_symop_operation_xyz
x,y,z
-x,-y,z
x,-y,-z
-x,y,-z
-x,-y,-z
x,y,-z
-x,y,z
x,-y,z
1/2+x,1/2+y,z
1/2-x,1/2-y,z
1/2+x,1/2-y,-z
1/2-x,1/2+y,-z
1/2-x,1/2-y,-z
1/2+x,1/2+y,-z
1/2-x,1/2+y,z
1/2+x,1/2-y,z
loop_
_atom_site_type_symbol
_atom_site_label
_atom_site_fract_x
_atom_site_fract_y
_atom_site_fract_z
Si Si1 0.888518 0.326223 0.683905
Si Si2 0.703441 0.327777 0.282460
Si Si3 0.553986 0.667380 0.423692
Si Si4 0.053000 0.672740 0.811051
Si Si5 0.393289 0.327957 0.924264
Si Si6 0.295684 0.329731 0.127634
O O1 0.880252 0.500000 0.684826
O O2 0.839608 0.243494 0.679339
O O3 0.917447 0.283177 0.619267
O O4 0.916198 0.272771 0.749248
O O5 0.706077 0.500000 0.298256
O O6 0.750000 0.250000 0.309034
O O7 0.697116 0.295132 0.204844
O O8 0.568052 0.690649 0.500000
O O9 0.500000 0.701537 0.413277
O O10 0.565146 0.500000 0.401780
O O11 0.057930 0.500000 0.821013
O O12 0.069388 0.748252 0.878577
O O13 0.000000 0.718722 0.796844
O O14 0.395267 0.500000 0.907830
O O15 0.341142 0.269480 0.910155
O O16 0.406609 0.294003 0.000000
O O17 0.288025 0.500000 0.113491
O O18 0.250000 0.250000 0.099479
#
# Coordination Sequence:
#
# PCOD8269103 Si02
#       6
#    16  16  16  16  16  16
#     4  11  21  34  56  84 113 144 181 224 271 319
#     4  10  19  33  54  80 110 142 179 222 271 322
#     4   9  19  36  57  83 116 152 187 222 265 319
#     4  10  22  38  54  75 104 137 177 224 270 318
#     4  10  21  37  54  74 102 136 176 222 272 326
#     4   9  18  32  51  75 103 133 169 214 266 320
#
# _framework density 18.215906
#
# number of rings (size 3 to 8) (size 9 to 14) (size 15 to 20)
#    0.000    2.167    1.667    2.000    0.000    4.667 
#    0.000    2.500    0.000    0.500    0.000    0.000 
#    0.000    0.000    0.000    0.000    0.000    0.000 
#
# Total GULP energy -595369.103522 kJ/mol
# GULP energy per Si atom -12403.522990 kJ/mol
# Density = 1.817445 g / cm^3
# Si number density = 18.215906 Si / 1000 Ang^3
#
#
#
# Elastic Constant Matrix: (Units=GPa)
#
#
# Indices 1 2 3 4 5 6 
#
# 1 120.4211 50.8054 48.7711 0.0000 0.0000 0.0000
# 2 50.8054 63.6649 35.7609 0.0000 0.0000 0.0000
# 3 48.7711 35.7609 75.7240 0.0000 0.0000 0.0000
# 4 0.0000 0.0000 0.0000 28.6230 0.0000 0.0000
# 5 0.0000 0.0000 0.0000 0.0000 29.4307 0.0000
# 6 0.0000 0.0000 0.0000 0.0000 0.0000 36.0078
#
#
#
# Elastic Compliance Matrix: (Units=1/GPa)
#
#
# Indices 1 2 3 4 5 6 
#
# 1 0.013789 -0.008187 -0.005015 0.000000 0.000000 0.000000
# 2 -0.008187 0.026239 -0.007118 0.000000 0.000000 0.000000
# 3 -0.005015 -0.007118 0.019797 0.000000 0.000000 0.000000
# 4 0.000000 0.000000 0.000000 0.034937 0.000000 0.000000
# 5 0.000000 0.000000 0.000000 0.000000 0.033978 0.000000
# 6 0.000000 0.000000 0.000000 0.000000 0.000000 0.027772
#
#
# Mechanical properties :
#
#
# Convention : Reuss Voigt Hill
#
# Bulk Modulus (GPa) = 52.12392 58.94276 55.53334
# Shear Modulus (GPa) = 24.56413 27.11048 25.83731
#
# Velocity S-wave (km/s) = 3.67618 3.86202 3.77024
# Velocity P-wave (km/s) = 6.83342 7.23291 7.03600
#
# Compressibility (1/GPa) = 0.01918505
#
# Stress axis : x y z
#
# Youngs Moduli (GPa) = 72.51951 38.11089 50.51169
#
# Poissons Ratio (x) = 0.31202 0.25331
# Poissons Ratio (y) = 0.59374 0.35956
# Poissons Ratio (z) = 0.36367 0.27129
#
# Static dielectric constant tensor:
#      x y z
#    x 3.442780 0.000000 0.000000 
#    y 0.000000 3.289120 0.000000 
#    z 0.000000 0.000000 3.162300 
# 
# 
# High freq. dielectric constant tensor:
#      x y z
#    x 1.713560 0.000000 0.000000 
#    y 0.000000 1.704300 0.000000 
#    z 0.000000 0.000000 1.687120 
# 
# From -- ./inp_files/60172.got.cif
#   From: 2010.03.12/outbox.cif.g09.slc.cpg/sg65_31_cif.got.tgz:60172.got - 2010.04.10 20:52:16.
