data_PCOD8269097
_publ_section_title
;
Structure prediction by ZEFSAII (Michael W. Deem and Ramdas Pophale) SiO2 
 PCOD8269097
Probable space group: C M M M
;
_chemical_formula_sum "Si O2"
_cell_formula_units_Z 88
_cell_length_a 19.255548
_cell_length_b 9.703751
_cell_length_c 26.370992
_cell_angle_alpha 90.000000
_cell_angle_beta 90.000000
_cell_angle_gamma 90.000000
_cell_volume 4927.447364
_symmetry_space_group_name_H-M "C M M M"
_symmetry_group_IT_number 65
_symmetry_cell_setting 'orthorhombic'
loop_
_space_group_symop_operation_xyz
x,y,z
-x,-y,z
x,-y,-z
-x,y,-z
-x,-y,-z
x,y,-z
-x,y,z
x,-y,z
1/2+x,1/2+y,z
1/2-x,1/2-y,z
1/2+x,1/2-y,-z
1/2-x,1/2+y,-z
1/2-x,1/2-y,-z
1/2+x,1/2+y,-z
1/2-x,1/2+y,z
1/2+x,1/2-y,z
loop_
_atom_site_type_symbol
_atom_site_label
_atom_site_fract_x
_atom_site_fract_y
_atom_site_fract_z
Si Si1 0.418218 0.661877 0.889764
Si Si2 0.917956 0.150679 0.000000
Si Si3 0.683961 0.159689 0.294271
Si Si4 0.917603 0.000000 0.442558
Si Si5 0.581990 0.753305 0.376504
Si Si6 0.582252 0.000000 0.555556
Si Si7 0.817291 0.338598 0.175541
O O1 0.500000 0.677054 0.881212
O O2 0.397118 0.500000 0.882537
O O3 0.382188 0.764620 0.850662
O O4 0.396066 0.719014 0.946290
O O5 0.000000 0.134966 0.000000
O O6 0.883942 0.000000 0.000000
O O7 0.750000 0.250000 0.310194
O O8 0.618291 0.227977 0.322320
O O9 0.668688 0.172211 0.235026
O O10 0.695395 0.000000 0.309632
O O11 0.891431 0.124537 0.408366
O O12 0.886083 0.000000 0.500000
O O13 0.000000 0.000000 0.448081
O O14 0.500000 0.751809 0.365920
O O15 0.608235 0.871344 0.413349
O O16 0.500000 0.000000 0.550037
O O17 0.616762 0.000000 0.500000
O O18 0.809564 0.500000 0.159275
O O19 0.750000 0.250000 0.159691
#
# Coordination Sequence:
#
# PCOD8269097 Si02
#       7
#    16   8  16   8  16   8  16
#     4   9  17  32  55  83 111 141 177 217 261 311
#     4   7  12  26  50  77 108 143 175 209 256 311
#     4  10  22  38  56  75 101 138 174 214 264 315
#     4   9  18  32  51  79 111 137 163 204 257 304
#     4  10  19  33  54  80 105 132 170 212 253 300
#     4   9  16  28  51  79 103 129 165 208 251 300
#     4  10  21  37  55  75 103 140 181 223 268 317
#
# _framework density 17.859145999999999
#
# number of rings (size 3 to 8) (size 9 to 14) (size 15 to 20)
#    0.000    2.636    0.909    2.182    1.273    4.000 
#    0.000    2.727    0.000    4.909    0.000    0.000 
#    0.000    0.000    0.000    0.000    0.000    0.000 
#
# Total GULP energy -545100.793343 kJ/mol
# GULP energy per Si atom -12388.654394 kJ/mol
# Density = 1.781850 g / cm^3
# Si number density = 17.859146 Si / 1000 Ang^3
#
#
#
# Elastic Constant Matrix: (Units=GPa)
#
#
# Indices 1 2 3 4 5 6 
#
# 1 62.6741 47.8114 49.0138 0.0000 0.0000 0.0000
# 2 47.8114 142.9067 57.3192 0.0000 0.0000 0.0000
# 3 49.0138 57.3192 88.0941 0.0000 0.0000 0.0000
# 4 0.0000 0.0000 0.0000 34.1869 0.0000 0.0000
# 5 0.0000 0.0000 0.0000 0.0000 8.0078 0.0000
# 6 0.0000 0.0000 0.0000 0.0000 0.0000 29.5661
#
#
#
# Elastic Compliance Matrix: (Units=1/GPa)
#
#
# Indices 1 2 3 4 5 6 
#
# 1 0.030299 -0.004567 -0.013886 0.000000 0.000000 0.000000
# 2 -0.004567 0.010157 -0.004068 0.000000 0.000000 0.000000
# 3 -0.013886 -0.004068 0.021724 0.000000 0.000000 0.000000
# 4 0.000000 0.000000 0.000000 0.029251 0.000000 0.000000
# 5 0.000000 0.000000 0.000000 0.000000 0.124879 0.000000
# 6 0.000000 0.000000 0.000000 0.000000 0.000000 0.033822
#
#
# Mechanical properties :
#
#
# Convention : Reuss Voigt Hill
#
# Bulk Modulus (GPa) = 58.34890 66.88488 62.61689
# Shear Modulus (GPa) = 16.61747 23.65418 20.13583
#
# Velocity S-wave (km/s) = 3.05368 3.64330 3.36144
# Velocity P-wave (km/s) = 6.72130 7.43174 7.08543
#
# Compressibility (1/GPa) = 0.01713828
#
# Stress axis : x y z
#
# Youngs Moduli (GPa) = 33.00390 98.45257 46.03177
#
# Poissons Ratio (x) = 0.44967 0.63921
# Poissons Ratio (y) = 0.15074 0.18724
# Poissons Ratio (z) = 0.45830 0.40047
#
# Static dielectric constant tensor:
#      x y z
#    x 2.938150 0.000000 0.000000 
#    y 0.000000 3.450900 0.000000 
#    z 0.000000 0.000000 3.503540 
# 
# 
# High freq. dielectric constant tensor:
#      x y z
#    x 1.656030 0.000000 0.000000 
#    y 0.000000 1.694610 0.000000 
#    z 0.000000 0.000000 1.702460 
# 
# From -- ./inp_files/71099.got.cif
#   From: 2010.03.12/outbox.cif.g09.slc.cpg/sg65_36_cif.got.tgz:71099.got - 2010.04.10 20:52:16.
