data_PCOD8269260
_publ_section_title
;
Structure prediction by ZEFSAII (Michael W. Deem and Ramdas Pophale) SiO2 
 PCOD8269260
Probable space group: C M M M
;
_chemical_formula_sum "Si O2"
_cell_formula_units_Z 88
_cell_length_a 22.275197
_cell_length_b 21.226365
_cell_length_c 9.887784
_cell_angle_alpha 90.000000
_cell_angle_beta 90.000000
_cell_angle_gamma 90.000000
_cell_volume 4675.156487
_symmetry_space_group_name_H-M "C M M M"
_symmetry_group_IT_number 65
_symmetry_cell_setting 'orthorhombic'
loop_
_space_group_symop_operation_xyz
x,y,z
-x,-y,z
x,-y,-z
-x,y,-z
-x,-y,-z
x,y,-z
-x,y,z
x,-y,z
1/2+x,1/2+y,z
1/2-x,1/2-y,z
1/2+x,1/2-y,-z
1/2-x,1/2+y,-z
1/2-x,1/2-y,-z
1/2+x,1/2+y,-z
1/2-x,1/2+y,z
1/2+x,1/2-y,z
loop_
_atom_site_type_symbol
_atom_site_label
_atom_site_fract_x
_atom_site_fract_y
_atom_site_fract_z
Si Si1 0.567248 0.074328 0.500000
Si Si2 0.569794 0.925247 0.000000
Si Si3 0.242903 0.175843 0.660898
Si Si4 0.863546 0.875165 0.155323
Si Si5 0.130300 0.363378 0.746471
Si Si6 0.067305 0.751140 0.846530
Si Si7 0.568018 0.500000 0.839977
O O1 0.500000 0.100388 0.500000
O O2 0.600697 0.099592 0.372464
O O3 0.568504 0.000000 0.500000
O O4 0.608532 0.901027 0.875821
O O5 0.500000 0.900562 0.000000
O O6 0.568807 0.000000 0.000000
O O7 0.236285 0.164163 0.500000
O O8 0.250000 0.250000 0.691782
O O9 0.187386 0.146108 0.740691
O O10 0.298669 0.137570 0.723143
O O11 0.915904 0.823865 0.160708
O O12 0.893961 0.939416 0.207767
O O13 0.838964 0.881159 0.000000
O O14 0.109338 0.290642 0.750576
O O15 0.000000 0.743819 0.793550
O O16 0.073716 0.725679 0.000000
O O17 0.500000 0.500000 0.778473
O O18 0.562166 0.500000 0.000000
#
# Coordination Sequence:
#
# PCOD8269260 Si02
#       7
#     8   8  16  16  16  16   8
#     4  11  24  42  61  84 118 155 200 249 301 369
#     4  11  24  42  63  90 124 157 192 247 313 365
#     4  11  24  43  60  83 125 165 203 252 306 361
#     4  10  21  37  63  94 120 162 206 248 305 362
#     4  12  22  39  60  89 116 158 204 245 306 363
#     4  10  19  33  58  92 122 147 194 256 311 364
#     4   9  18  38  65  97 133 163 198 251 314 373
#
# _framework density 18.822900000000001
#
# number of rings (size 3 to 8) (size 9 to 14) (size 15 to 20)
#    0.000    1.364    3.636    2.727    1.273    4.000 
#    3.273    0.455    0.000    2.182    0.000    0.000 
#    0.000    0.000    0.000    0.000    0.000    0.000 
#
# Total GULP energy -545495.231556 kJ/mol
# GULP energy per Si atom -12397.618899 kJ/mol
# Density = 1.878006 g / cm^3
# Si number density = 18.822900 Si / 1000 Ang^3
#
#
#
# Elastic Constant Matrix: (Units=GPa)
#
#
# Indices 1 2 3 4 5 6 
#
# 1 136.4012 49.4333 60.2214 0.0000 0.0000 0.0000
# 2 49.4333 95.1757 34.3352 0.0000 0.0000 0.0000
# 3 60.2214 34.3352 106.1223 0.0000 0.0000 0.0000
# 4 0.0000 0.0000 0.0000 24.0280 0.0000 0.0000
# 5 0.0000 0.0000 0.0000 0.0000 18.3886 0.0000
# 6 0.0000 0.0000 0.0000 0.0000 0.0000 -29.6380
#
#
#
# Elastic Compliance Matrix: (Units=1/GPa)
#
#
# Indices 1 2 3 4 5 6 
#
# 1 0.010922 -0.003891 -0.004939 0.000000 0.000000 0.000000
# 2 -0.003891 0.013282 -0.002089 0.000000 0.000000 0.000000
# 3 -0.004939 -0.002089 0.012902 0.000000 0.000000 0.000000
# 4 0.000000 0.000000 0.000000 0.041618 0.000000 0.000000
# 5 0.000000 0.000000 0.000000 0.000000 0.054381 0.000000
# 6 0.000000 0.000000 0.000000 0.000000 0.000000 -0.033740
#
#
# Mechanical properties :
#
#
# Convention : Reuss Voigt Hill
#
# Bulk Modulus (GPa) = 65.50075 69.51989 67.51032
# Shear Modulus (GPa) = 39.59088 15.46968 27.53028
#
# Velocity S-wave (km/s) = 4.59119 2.86991 3.82854
# Velocity P-wave (km/s) = 7.93595 6.92789 7.44899
#
# Compressibility (1/GPa) = 0.01526700
#
# Stress axis : x y z
#
# Youngs Moduli (GPa) = 91.55776 75.29265 77.50874
#
# Poissons Ratio (x) = 0.29297 0.38282
# Poissons Ratio (y) = 0.35625 0.16192
# Poissons Ratio (z) = 0.45221 0.15729
#
# Static dielectric constant tensor:
#      x y z
#    x 3.664360 0.000000 0.000000 
#    y 0.000000 3.627480 0.000000 
#    z 0.000000 0.000000 3.366520 
# 
# 
# High freq. dielectric constant tensor:
#      x y z
#    x 1.738450 0.000000 0.000000 
#    y 0.000000 1.742950 0.000000 
#    z 0.000000 0.000000 1.718520 
# 
# From -- ./inp_files/14076.got.cif
#   From: 2010.03.12/outbox.cif.g09.slc.cpg/sg65_8_cif.got.tgz:14076.got - 2010.04.10 20:52:16.
