data_PCOD8269475
_publ_section_title
;
Structure prediction by ZEFSAII (Michael W. Deem and Ramdas Pophale) SiO2 
 PCOD8269475
Probable space group: C M M M
;
_chemical_formula_sum "Si O2"
_cell_formula_units_Z 88
_cell_length_a 16.352542
_cell_length_b 18.219744
_cell_length_c 15.078244
_cell_angle_alpha 90.000000
_cell_angle_beta 90.000000
_cell_angle_gamma 90.000000
_cell_volume 4492.398884
_symmetry_space_group_name_H-M "C M M M"
_symmetry_group_IT_number 65
_symmetry_cell_setting 'orthorhombic'
loop_
_space_group_symop_operation_xyz
x,y,z
-x,-y,z
x,-y,-z
-x,y,-z
-x,-y,-z
x,y,-z
-x,y,z
x,-y,z
1/2+x,1/2+y,z
1/2-x,1/2-y,z
1/2+x,1/2-y,-z
1/2-x,1/2+y,-z
1/2-x,1/2-y,-z
1/2+x,1/2+y,-z
1/2-x,1/2+y,z
1/2+x,1/2-y,z
loop_
_atom_site_type_symbol
_atom_site_label
_atom_site_fract_x
_atom_site_fract_y
_atom_site_fract_z
Si Si1 0.794769 0.587405 0.338689
Si Si2 0.590466 0.085893 0.500000
Si Si3 0.908100 0.302976 0.737142
Si Si4 0.827410 0.198536 0.599691
Si Si5 0.409338 0.578736 0.895304
Si Si6 0.658899 0.272234 0.897111
O O1 0.788431 0.500000 0.322437
O O2 0.857445 0.610768 0.416400
O O3 0.840893 0.630901 0.260083
O O4 0.704540 0.619759 0.360978
O O5 0.500000 0.123225 0.500000
O O6 0.578981 0.000000 0.500000
O O7 0.890800 0.236926 0.666813
O O8 0.904592 0.272034 0.837118
O O9 0.000000 0.332651 0.720218
O O10 0.864917 0.187573 0.500000
O O11 0.750000 0.250000 0.593153
O O12 0.500000 0.595271 0.856900
O O13 0.377338 0.500000 0.857997
O O14 0.346783 0.642293 0.868561
O O15 0.415845 0.574221 0.000000
O O16 0.750000 0.250000 0.873387
O O17 0.636451 0.258790 0.000000
#
# Coordination Sequence:
#
# PCOD8269475 Si02
#       6
#    16   8  16  16  16  16
#     4  10  19  34  57  82 109 145 188 235 277 320
#     4   9  16  26  45  78 111 135 169 221 276 319
#     4  11  23  36  54  81 113 148 187 231 282 341
#     4   9  18  34  54  78 110 143 175 215 274 339
#     4   8  14  27  51  80 104 128 165 220 282 331
#     4  10  20  36  56  78 109 148 190 235 282 338
#
# _framework density 19.588643000000001
#
# number of rings (size 3 to 8) (size 9 to 14) (size 15 to 20)
#    0.000    2.455    0.909    3.273    1.273    2.545 
#    0.000    3.636    0.000    3.273    0.000    2.545 
#    0.000    0.000    0.000    0.000    0.000    0.000 
#
# Total GULP energy -545120.403807 kJ/mol
# GULP energy per Si atom -12389.100087 kJ/mol
# Density = 1.954406 g / cm^3
# Si number density = 19.588643 Si / 1000 Ang^3
#
#
#
# Elastic Constant Matrix: (Units=GPa)
#
#
# Indices 1 2 3 4 5 6 
#
# 1 59.9116 37.9439 15.1800 0.0000 0.0000 0.0000
# 2 37.9439 136.4775 27.9969 0.0000 0.0000 0.0000
# 3 15.1800 27.9969 68.5049 0.0000 0.0000 0.0000
# 4 0.0000 0.0000 0.0000 19.6687 0.0000 0.0000
# 5 0.0000 0.0000 0.0000 0.0000 18.2802 0.0000
# 6 0.0000 0.0000 0.0000 0.0000 0.0000 29.0709
#
#
#
# Elastic Compliance Matrix: (Units=1/GPa)
#
#
# Indices 1 2 3 4 5 6 
#
# 1 0.020622 -0.005235 -0.002430 0.000000 0.000000 0.000000
# 2 -0.005235 0.009327 -0.002652 0.000000 0.000000 0.000000
# 3 -0.002430 -0.002652 0.016220 0.000000 0.000000 0.000000
# 4 0.000000 0.000000 0.000000 0.050842 0.000000 0.000000
# 5 0.000000 0.000000 0.000000 0.000000 0.054704 0.000000
# 6 0.000000 0.000000 0.000000 0.000000 0.000000 0.034399
#
#
# Mechanical properties :
#
#
# Convention : Reuss Voigt Hill
#
# Bulk Modulus (GPa) = 39.16187 47.45951 43.31069
# Shear Modulus (GPa) = 23.22782 25.65551 24.44166
#
# Velocity S-wave (km/s) = 3.44725 3.62292 3.53618
# Velocity P-wave (km/s) = 5.99001 6.46386 6.23144
#
# Compressibility (1/GPa) = 0.02553504
#
# Stress axis : x y z
#
# Youngs Moduli (GPa) = 48.49074 107.22001 61.65343
#
# Poissons Ratio (x) = 0.56130 0.14983
# Poissons Ratio (y) = 0.25385 0.16348
# Poissons Ratio (z) = 0.11785 0.28431
#
# Static dielectric constant tensor:
#      x y z
#    x 4.486750 0.000000 0.000000 
#    y 0.000000 3.927070 0.000000 
#    z 0.000000 0.000000 3.665280 
# 
# 
# High freq. dielectric constant tensor:
#      x y z
#    x 1.742020 0.000000 0.000000 
#    y 0.000000 1.760540 0.000000 
#    z 0.000000 0.000000 1.748840 
# 
# From -- ./inp_files/42527.got.cif
#   From: 2010.03.12/outbox.cif.g09.slc.cpg/sg65_22_cif.got.tgz:42527.got - 2010.04.10 20:52:16.
