data_PCOD8269362
_publ_section_title
;
Structure prediction by ZEFSAII (Michael W. Deem and Ramdas Pophale) SiO2 
 PCOD8269362
Probable space group: C M M M
;
_chemical_formula_sum "Si O2"
_cell_formula_units_Z 104
_cell_length_a 7.958813
_cell_length_b 29.145032
_cell_length_c 24.926392
_cell_angle_alpha 90.000000
_cell_angle_beta 90.000000
_cell_angle_gamma 90.000000
_cell_volume 5781.922388
_symmetry_space_group_name_H-M "C M M M"
_symmetry_group_IT_number 65
_symmetry_cell_setting 'orthorhombic'
loop_
_space_group_symop_operation_xyz
x,y,z
-x,-y,z
x,-y,-z
-x,y,-z
-x,-y,-z
x,y,-z
-x,y,z
x,-y,z
1/2+x,1/2+y,z
1/2-x,1/2-y,z
1/2+x,1/2-y,-z
1/2-x,1/2+y,-z
1/2-x,1/2-y,-z
1/2+x,1/2+y,-z
1/2-x,1/2+y,z
1/2+x,1/2-y,z
loop_
_atom_site_type_symbol
_atom_site_label
_atom_site_fract_x
_atom_site_fract_y
_atom_site_fract_z
Si Si1 0.000000 0.945736 0.440272
Si Si2 0.697423 0.798486 0.775413
Si Si3 0.307156 0.607566 0.940183
Si Si4 0.193823 0.446046 0.366166
Si Si5 0.693521 0.949508 0.842116
Si Si6 0.300796 0.105065 0.741300
Si Si7 0.697861 0.799006 0.896756
O O1 0.826596 0.929999 0.411463
O O2 0.000000 0.924265 0.500000
O O3 0.000000 0.000000 0.443605
O O4 0.500000 0.800932 0.777700
O O5 0.750000 0.750000 0.748343
O O6 0.767020 0.842213 0.741865
O O7 0.768625 0.801592 0.835897
O O8 0.500000 0.593960 0.934131
O O9 0.204953 0.578021 0.897466
O O10 0.285648 0.661704 0.931144
O O11 0.242167 0.595577 0.000000
O O12 0.208303 0.500000 0.354576
O O13 0.254319 0.419683 0.313077
O O14 0.000000 0.433759 0.382548
O O15 0.500000 0.955892 0.828276
O O16 0.777413 0.921620 0.792674
O O17 0.778093 0.000000 0.847079
O O18 0.500000 0.105171 0.746015
O O19 0.500000 0.806594 0.899047
O O20 0.750000 0.750000 0.921793
#
# Coordination Sequence:
#
# PCOD8269362 Si02
#       7
#     8  16  16  16  16  16  16
#     4   9  18  32  48  72 110 148 185 223 251 291
#     4   9  17  30  48  71 100 129 157 194 247 305
#     4  11  24  39  52  69  96 127 162 206 255 307
#     4   9  17  30  49  74 106 144 180 216 259 300
#     4  10  20  36  57  76  94 123 165 208 256 310
#     4   9  16  31  52  74 102 133 162 205 255 304
#     4  10  19  34  55  76  97 122 157 198 247 307
#
# _framework density 17.987096999999999
#
# number of rings (size 3 to 8) (size 9 to 14) (size 15 to 20)
#    0.000    2.385    1.538    1.385    0.000    4.923 
#    2.769    3.077    0.000    0.000    0.000    0.000 
#    0.000    0.615    0.308    0.000    0.000    0.000 
#
# Total GULP energy -644556.350187 kJ/mol
# GULP energy per Si atom -12395.314427 kJ/mol
# Density = 1.794616 g / cm^3
# Si number density = 17.987097 Si / 1000 Ang^3
#
#
#
# Elastic Constant Matrix: (Units=GPa)
#
#
# Indices 1 2 3 4 5 6 
#
# 1 46.2917 15.2149 35.2456 0.0000 0.0000 0.0000
# 2 15.2149 118.9363 56.2153 0.0000 0.0000 0.0000
# 3 35.2456 56.2153 124.4822 0.0000 0.0000 0.0000
# 4 0.0000 0.0000 0.0000 13.2002 0.0000 0.0000
# 5 0.0000 0.0000 0.0000 0.0000 17.5792 0.0000
# 6 0.0000 0.0000 0.0000 0.0000 0.0000 20.0366
#
#
#
# Elastic Compliance Matrix: (Units=1/GPa)
#
#
# Indices 1 2 3 4 5 6 
#
# 1 0.027543 0.000207 -0.007892 0.000000 0.000000 0.000000
# 2 0.000207 0.010691 -0.004887 0.000000 0.000000 0.000000
# 3 -0.007892 -0.004887 0.012474 0.000000 0.000000 0.000000
# 4 0.000000 0.000000 0.000000 0.075756 0.000000 0.000000
# 5 0.000000 0.000000 0.000000 0.000000 0.056886 0.000000
# 6 0.000000 0.000000 0.000000 0.000000 0.000000 0.049909
#
#
# Mechanical properties :
#
#
# Convention : Reuss Voigt Hill
#
# Bulk Modulus (GPa) = 39.11585 55.89577 47.50581
# Shear Modulus (GPa) = 18.73195 22.36549 20.54872
#
# Velocity S-wave (km/s) = 3.23059 3.53004 3.38363
# Velocity P-wave (km/s) = 5.97574 6.91071 6.46016
#
# Compressibility (1/GPa) = 0.02556509
#
# Stress axis : x y z
#
# Youngs Moduli (GPa) = 36.30707 93.53622 80.16395
#
# Poissons Ratio (x) = -0.01932 0.63263
# Poissons Ratio (y) = -0.00750 0.39172
# Poissons Ratio (z) = 0.28653 0.45707
#
# Static dielectric constant tensor:
#      x y z
#    x 3.177320 0.000000 0.000000 
#    y 0.000000 3.870320 0.000000 
#    z 0.000000 0.000000 3.257020 
# 
# 
# High freq. dielectric constant tensor:
#      x y z
#    x 1.687560 0.000000 0.000000 
#    y 0.000000 1.692710 0.000000 
#    z 0.000000 0.000000 1.662230 
# 
# From -- ./inp_files/60857.got.cif
#   From: 2010.03.12/outbox.cif.g09.slc.cpg/sg65_31_cif.got.tgz:60857.got - 2010.04.10 20:52:16.
