data_PCOD8269294
_publ_section_title
;
Structure prediction by ZEFSAII (Michael W. Deem and Ramdas Pophale) SiO2 
 PCOD8269294
Probable space group: C M M M
;
_chemical_formula_sum "Si O2"
_cell_formula_units_Z 112
_cell_length_a 14.993265
_cell_length_b 29.669949
_cell_length_c 13.484724
_cell_angle_alpha 90.000000
_cell_angle_beta 90.000000
_cell_angle_gamma 90.000000
_cell_volume 5998.671487
_symmetry_space_group_name_H-M "C M M M"
_symmetry_group_IT_number 65
_symmetry_cell_setting 'orthorhombic'
loop_
_space_group_symop_operation_xyz
x,y,z
-x,-y,z
x,-y,-z
-x,y,-z
-x,-y,-z
x,y,-z
-x,y,z
x,-y,z
1/2+x,1/2+y,z
1/2-x,1/2-y,z
1/2+x,1/2-y,-z
1/2-x,1/2+y,-z
1/2-x,1/2-y,-z
1/2+x,1/2+y,-z
1/2-x,1/2+y,z
1/2+x,1/2-y,z
loop_
_atom_site_type_symbol
_atom_site_label
_atom_site_fract_x
_atom_site_fract_y
_atom_site_fract_z
Si Si1 0.902895 0.117205 0.884070
Si Si2 0.764946 0.802451 0.609058
Si Si3 0.760521 0.050090 0.887387
Si Si4 0.396634 0.707251 0.217194
Si Si5 0.399632 0.049141 0.747298
Si Si6 0.896132 0.297068 0.888541
Si Si7 0.102582 0.647069 0.702338
O O1 0.829158 0.084612 0.834231
O O2 0.881763 0.169545 0.866447
O O3 0.000000 0.105415 0.838004
O O4 0.904770 0.107804 0.000000
O O5 0.794596 0.820046 0.500000
O O6 0.750000 0.750000 0.604616
O O7 0.842974 0.811304 0.687771
O O8 0.670853 0.825991 0.634365
O O9 0.663655 0.052669 0.840823
O O10 0.801340 0.000000 0.877367
O O11 0.746129 0.064425 0.000000
O O12 0.500000 0.713262 0.247980
O O13 0.356840 0.753477 0.170582
O O14 0.500000 0.051592 0.788668
O O15 0.382829 0.093545 0.680188
O O16 0.384598 0.000000 0.692433
O O17 0.877979 0.340762 0.819000
O O18 0.000000 0.288084 0.902696
O O19 0.854009 0.303116 0.000000
O O20 0.000000 0.660929 0.676357
#
# Coordination Sequence:
#
# PCOD8269294 Si02
#       7
#    16  16  16  16  16  16  16
#     4   9  17  29  48  73 100 134 171 207 251 302
#     4  11  23  37  54  77 103 132 171 214 258 314
#     4   9  17  28  42  64  98 137 175 215 255 299
#     4  10  19  34  53  73 102 136 170 211 255 301
#     4   9  18  32  51  73  98 133 175 218 264 311
#     4   9  17  30  49  73 102 137 173 208 248 296
#     4  10  20  36  55  76 106 140 174 216 264 310
#
# _framework density 18.670801000000001
#
# number of rings (size 3 to 8) (size 9 to 14) (size 15 to 20)
#    0.000    2.429    1.429    1.286    0.000    3.429 
#    0.000    7.857    0.000    0.429    0.000    2.000 
#    0.000    0.000    0.000   12.286    0.000    0.286 
#
# Total GULP energy -693818.039556 kJ/mol
# GULP energy per Si atom -12389.607849 kJ/mol
# Density = 1.862831 g / cm^3
# Si number density = 18.670801 Si / 1000 Ang^3
#
#
#
# Elastic Constant Matrix: (Units=GPa)
#
#
# Indices 1 2 3 4 5 6 
#
# 1 65.5632 40.7281 23.3435 0.0000 0.0000 0.0000
# 2 40.7281 118.2924 17.0083 0.0000 0.0000 0.0000
# 3 23.3435 17.0083 62.6779 0.0000 0.0000 0.0000
# 4 0.0000 0.0000 0.0000 265.9088 0.0000 0.0000
# 5 0.0000 0.0000 0.0000 0.0000 17.6731 0.0000
# 6 0.0000 0.0000 0.0000 0.0000 0.0000 25.6222
#
#
#
# Elastic Compliance Matrix: (Units=1/GPa)
#
#
# Indices 1 2 3 4 5 6 
#
# 1 0.021522 -0.006512 -0.006249 0.000000 0.000000 0.000000
# 2 -0.006512 0.010767 -0.000497 0.000000 0.000000 0.000000
# 3 -0.006249 -0.000497 0.018417 0.000000 0.000000 0.000000
# 4 0.000000 0.000000 0.000000 0.003761 0.000000 0.000000
# 5 0.000000 0.000000 0.000000 0.000000 0.056583 0.000000
# 6 0.000000 0.000000 0.000000 0.000000 0.000000 0.039029
#
#
# Mechanical properties :
#
#
# Convention : Reuss Voigt Hill
#
# Bulk Modulus (GPa) = 41.33586 45.41035 43.37311
# Shear Modulus (GPa) = 27.07732 72.87106 49.97419
#
# Velocity S-wave (km/s) = 3.81235 6.25413 5.17920
# Velocity P-wave (km/s) = 6.44717 8.74795 7.68416
#
# Compressibility (1/GPa) = 0.02419207
#
# Stress axis : x y z
#
# Youngs Moduli (GPa) = 46.46324 92.87637 54.29895
#
# Poissons Ratio (x) = 0.60478 0.33930
# Poissons Ratio (y) = 0.30256 0.02696
# Poissons Ratio (z) = 0.29033 0.04612
#
# Static dielectric constant tensor:
#      x y z
#    x 3.573240 0.000000 0.000000 
#    y 0.000000 3.743110 0.000000 
#    z 0.000000 0.000000 3.284160 
# 
# 
# High freq. dielectric constant tensor:
#      x y z
#    x 1.725760 0.000000 0.000000 
#    y 0.000000 1.732650 0.000000 
#    z 0.000000 0.000000 1.676950 
# 
# From -- ./inp_files/25562.got.cif
#   From: 2010.03.12/outbox.cif.g09.slc.cpg/sg65_13_cif.got.tgz:25562.got - 2010.04.10 20:52:16.
