data_PCOD8269361
_publ_section_title
;
Structure prediction by ZEFSAII (Michael W. Deem and Ramdas Pophale) SiO2 
 PCOD8269361
Probable space group: C M M M
;
_chemical_formula_sum "Si O2"
_cell_formula_units_Z 104
_cell_length_a 9.097744
_cell_length_b 28.996728
_cell_length_c 24.747441
_cell_angle_alpha 90.000000
_cell_angle_beta 90.000000
_cell_angle_gamma 90.000000
_cell_volume 6528.493926
_symmetry_space_group_name_H-M "C M M M"
_symmetry_group_IT_number 65
_symmetry_cell_setting 'orthorhombic'
loop_
_space_group_symop_operation_xyz
x,y,z
-x,-y,z
x,-y,-z
-x,y,-z
-x,-y,-z
x,y,-z
-x,y,z
x,-y,z
1/2+x,1/2+y,z
1/2-x,1/2-y,z
1/2+x,1/2-y,-z
1/2-x,1/2+y,-z
1/2-x,1/2-y,-z
1/2+x,1/2+y,-z
1/2-x,1/2+y,z
1/2+x,1/2-y,z
loop_
_atom_site_type_symbol
_atom_site_label
_atom_site_fract_x
_atom_site_fract_y
_atom_site_fract_z
Si Si1 0.663850 0.949190 0.145558
Si Si2 0.828509 0.296307 0.405661
Si Si3 0.173260 0.000000 0.061626
Si Si4 0.324815 0.106509 0.245406
Si Si5 0.671631 0.945986 0.648682
Si Si6 0.168338 0.887075 0.561394
Si Si7 0.830800 0.704919 0.279052
O O1 0.500000 0.932398 0.128980
O O2 0.763379 0.953844 0.091319
O O3 0.736783 0.914881 0.189451
O O4 0.654114 0.000000 0.173137
O O5 0.750000 0.250000 0.426716
O O6 0.756295 0.339376 0.435127
O O7 0.801951 0.302511 0.342126
O O8 0.000000 0.293734 0.420219
O O9 0.000000 0.000000 0.066156
O O10 0.227181 0.000000 0.000000
O O11 0.500000 0.103102 0.245017
O O12 0.266903 0.078076 0.296998
O O13 0.270714 0.159384 0.248848
O O14 0.500000 0.934627 0.640229
O O15 0.759591 0.926422 0.597903
O O16 0.701423 0.000000 0.653264
O O17 0.176611 0.904893 0.500000
O O18 0.000000 0.878825 0.579398
O O19 0.750000 0.750000 0.256331
O O20 0.000000 0.712475 0.266326
#
# Coordination Sequence:
#
# PCOD8269361 Si02
#       7
#    16  16   8  16  16  16  16
#     4   8  15  26  45  69  93 126 165 199 228 266
#     4  10  19  34  55  76  96 119 150 191 237 294
#     4   9  17  29  43  63 101 143 170 197 234 269
#     4   9  15  29  50  72  96 122 153 193 239 281
#     4  10  20  35  56  75  91 118 156 196 242 295
#     4  11  24  39  52  68  93 123 155 194 242 294
#     4   9  17  29  47  69  95 122 150 184 230 286
#
# _framework density 15.930168
#
# number of rings (size 3 to 8) (size 9 to 14) (size 15 to 20)
#    0.462    2.077    1.538    1.385    0.000    5.231 
#    0.000    3.077    0.000    0.000    0.000    0.000 
#    0.000    0.615    0.000    1.385    0.000    2.462 
#
# Total GULP energy -644579.474552 kJ/mol
# GULP energy per Si atom -12395.759126 kJ/mol
# Density = 1.589391 g / cm^3
# Si number density = 15.930168 Si / 1000 Ang^3
#
#
#
# Elastic Constant Matrix: (Units=GPa)
#
#
# Indices 1 2 3 4 5 6 
#
# 1 64.8396 36.9153 42.5741 0.0000 0.0000 0.0000
# 2 36.9153 101.1921 55.9093 0.0000 0.0000 0.0000
# 3 42.5741 55.9093 102.2657 0.0000 0.0000 0.0000
# 4 0.0000 0.0000 0.0000 18.6413 0.0000 0.0000
# 5 0.0000 0.0000 0.0000 0.0000 17.9290 0.0000
# 6 0.0000 0.0000 0.0000 0.0000 0.0000 25.7653
#
#
#
# Elastic Compliance Matrix: (Units=1/GPa)
#
#
# Indices 1 2 3 4 5 6 
#
# 1 0.022481 -0.004342 -0.006986 0.000000 0.000000 0.000000
# 2 -0.004342 0.014998 -0.006392 0.000000 0.000000 0.000000
# 3 -0.006986 -0.006392 0.016181 0.000000 0.000000 0.000000
# 4 0.000000 0.000000 0.000000 0.053644 0.000000 0.000000
# 5 0.000000 0.000000 0.000000 0.000000 0.055776 0.000000
# 6 0.000000 0.000000 0.000000 0.000000 0.000000 0.038812
#
#
# Mechanical properties :
#
#
# Convention : Reuss Voigt Hill
#
# Bulk Modulus (GPa) = 54.87917 59.89943 57.38930
# Shear Modulus (GPa) = 20.54202 21.32703 20.93453
#
# Velocity S-wave (km/s) = 3.59486 3.66291 3.62904
# Velocity P-wave (km/s) = 7.19412 7.45467 7.32555
#
# Compressibility (1/GPa) = 0.01822185
#
# Stress axis : x y z
#
# Youngs Moduli (GPa) = 44.48146 66.67748 61.80084
#
# Poissons Ratio (x) = 0.28949 0.43171
# Poissons Ratio (y) = 0.19313 0.39502
# Poissons Ratio (z) = 0.31073 0.42619
#
# Static dielectric constant tensor:
#      x y z
#    x 2.944830 0.000000 0.000000 
#    y 0.000000 3.069540 0.000000 
#    z 0.000000 0.000000 2.858910 
# 
# 
# High freq. dielectric constant tensor:
#      x y z
#    x 1.602750 0.000000 0.000000 
#    y 0.000000 1.607190 0.000000 
#    z 0.000000 0.000000 1.583180 
# 
# From -- ./inp_files/73780.got.cif
#   From: 2010.03.12/outbox.cif.g09.slc.cpg/sg65_37_cif.got.tgz:73780.got - 2010.04.10 20:52:16.
