data_PCOD8269378
_publ_section_title
;
Structure prediction by ZEFSAII (Michael W. Deem and Ramdas Pophale) SiO2 
 PCOD8269378
Probable space group: C M M M
;
_chemical_formula_sum "Si O2"
_cell_formula_units_Z 72
_cell_length_a 29.061944
_cell_length_b 9.185689
_cell_length_c 14.404313
_cell_angle_alpha 90.000000
_cell_angle_beta 90.000000
_cell_angle_gamma 90.000000
_cell_volume 3845.288675
_symmetry_space_group_name_H-M "C M M M"
_symmetry_group_IT_number 65
_symmetry_cell_setting 'orthorhombic'
loop_
_space_group_symop_operation_xyz
x,y,z
-x,-y,z
x,-y,-z
-x,y,-z
-x,-y,-z
x,y,-z
-x,y,z
x,-y,z
1/2+x,1/2+y,z
1/2-x,1/2-y,z
1/2+x,1/2-y,-z
1/2-x,1/2+y,-z
1/2-x,1/2-y,-z
1/2+x,1/2+y,-z
1/2-x,1/2+y,z
1/2+x,1/2-y,z
loop_
_atom_site_type_symbol
_atom_site_label
_atom_site_fract_x
_atom_site_fract_y
_atom_site_fract_z
Si Si1 0.880946 0.672808 0.862024
Si Si2 0.445716 0.328344 0.000000
Si Si3 0.288818 0.344760 0.393015
Si Si4 0.613781 0.327203 0.667329
Si Si5 0.051477 0.172949 0.500000
Si Si6 0.700160 0.170096 0.000000
O O1 0.888842 0.500000 0.866443
O O2 0.884958 0.730677 0.758504
O O3 0.831438 0.711220 0.909848
O O4 0.923211 0.753471 0.910927
O O5 0.435053 0.500000 0.000000
O O6 0.500000 0.298214 0.000000
O O7 0.275644 0.361934 0.500000
O O8 0.286937 0.500000 0.342031
O O9 0.250000 0.250000 0.341600
O O10 0.339578 0.282348 0.384736
O O11 0.609425 0.500000 0.689389
O O12 0.574696 0.273012 0.595775
O O13 0.000000 0.233859 0.500000
O O14 0.054200 0.000000 0.500000
O O15 0.750000 0.250000 0.000000
O O16 0.711661 0.000000 0.000000
#
# Coordination Sequence:
#
# PCOD8269378 Si02
#       6
#    16   8  16  16   8   8
#     4  10  22  38  56  84 118 149 181 224 281 341
#     4  10  21  39  63  87 108 136 180 228 274 331
#     4   9  17  30  48  71 101 138 180 225 271 317
#     4  10  19  34  55  79 109 145 187 234 277 324
#     4   9  18  34  56  79 105 141 187 237 282 323
#     4   9  20  38  58  80 111 148 186 224 271 332
#
# _framework density 18.724212999999999
#
# number of rings (size 3 to 8) (size 9 to 14) (size 15 to 20)
#    0.000    2.444    1.111    1.667    0.000    6.222 
#    0.000    7.222    0.000    0.667    0.000    0.000 
#    0.000    0.000    0.000    0.000    0.000    0.000 
#
# Total GULP energy -446002.161306 kJ/mol
# GULP energy per Si atom -12388.948925 kJ/mol
# Density = 1.868160 g / cm^3
# Si number density = 18.724213 Si / 1000 Ang^3
#
#
#
# Elastic Constant Matrix: (Units=GPa)
#
#
# Indices 1 2 3 4 5 6 
#
# 1 173.0510 70.1743 61.1970 0.0000 0.0000 0.0000
# 2 70.1743 85.0512 51.4659 0.0000 0.0000 0.0000
# 3 61.1970 51.4659 112.2995 0.0000 0.0000 0.0000
# 4 0.0000 0.0000 0.0000 32.0625 0.0000 0.0000
# 5 0.0000 0.0000 0.0000 0.0000 288.2067 0.0000
# 6 0.0000 0.0000 0.0000 0.0000 0.0000 29.5325
#
#
#
# Elastic Compliance Matrix: (Units=1/GPa)
#
#
# Indices 1 2 3 4 5 6 
#
# 1 0.009023 -0.006184 -0.002083 0.000000 0.000000 0.000000
# 2 -0.006184 0.020508 -0.006029 0.000000 0.000000 0.000000
# 3 -0.002083 -0.006029 0.012803 0.000000 0.000000 0.000000
# 4 0.000000 0.000000 0.000000 0.031189 0.000000 0.000000
# 5 0.000000 0.000000 0.000000 0.000000 0.003470 0.000000
# 6 0.000000 0.000000 0.000000 0.000000 0.000000 0.033861
#
#
# Mechanical properties :
#
#
# Convention : Reuss Voigt Hill
#
# Bulk Modulus (GPa) = 72.76793 81.78623 77.27708
# Shear Modulus (GPa) = 34.71591 82.46465 58.59028
#
# Velocity S-wave (km/s) = 4.31056 6.64359 5.59992
# Velocity P-wave (km/s) = 7.98260 10.13035 9.11992
#
# Compressibility (1/GPa) = 0.01374232
#
# Stress axis : x y z
#
# Youngs Moduli (GPa) = 110.82724 48.76078 78.10895
#
# Poissons Ratio (x) = 0.30156 0.16269
# Poissons Ratio (y) = 0.68540 0.47089
# Poissons Ratio (z) = 0.23083 0.29396
#
# Static dielectric constant tensor:
#      x y z
#    x 3.637980 0.000000 0.000000 
#    y 0.000000 3.612970 0.000000 
#    z 0.000000 0.000000 3.159530 
# 
# 
# High freq. dielectric constant tensor:
#      x y z
#    x 1.734730 0.000000 0.000000 
#    y 0.000000 1.715060 0.000000 
#    z 0.000000 0.000000 1.719000 
# 
# From -- ./inp_files/46543.got.cif
#   From: 2010.03.12/outbox.cif.g09.slc.cpg/sg65_24_cif.got.tgz:46543.got - 2010.04.10 20:52:16.
