data_PCOD8269309
_publ_section_title
;
Structure prediction by ZEFSAII (Michael W. Deem and Ramdas Pophale) SiO2 
 PCOD8269309
Probable space group: C M M M
;
_chemical_formula_sum "Si O2"
_cell_formula_units_Z 88
_cell_length_a 18.141633
_cell_length_b 28.931113
_cell_length_c 8.843360
_cell_angle_alpha 90.000000
_cell_angle_beta 90.000000
_cell_angle_gamma 90.000000
_cell_volume 4641.505009
_symmetry_space_group_name_H-M "C M M M"
_symmetry_group_IT_number 65
_symmetry_cell_setting 'orthorhombic'
loop_
_space_group_symop_operation_xyz
x,y,z
-x,-y,z
x,-y,-z
-x,y,-z
-x,-y,-z
x,y,-z
-x,y,z
x,-y,z
1/2+x,1/2+y,z
1/2-x,1/2-y,z
1/2+x,1/2-y,-z
1/2-x,1/2+y,-z
1/2-x,1/2-y,-z
1/2+x,1/2+y,-z
1/2-x,1/2+y,z
1/2+x,1/2-y,z
loop_
_atom_site_type_symbol
_atom_site_label
_atom_site_fract_x
_atom_site_fract_y
_atom_site_fract_z
Si Si1 0.413159 0.204822 0.830051
Si Si2 0.581835 0.448261 0.679837
Si Si3 0.206508 0.881059 0.679700
Si Si4 0.676134 0.721041 0.672526
Si Si5 0.000000 0.553279 0.821477
Si Si6 0.128820 0.388133 0.677653
O O1 0.500000 0.205248 0.827956
O O2 0.386232 0.254475 0.771769
O O3 0.384936 0.164975 0.719178
O O4 0.383871 0.195815 0.000000
O O5 0.586700 0.447925 0.500000
O O6 0.500000 0.431739 0.730613
O O7 0.596597 0.500000 0.740263
O O8 0.644147 0.414754 0.748958
O O9 0.202741 0.879239 0.500000
O O10 0.191343 0.829624 0.742054
O O11 0.287280 0.899848 0.727060
O O12 0.648242 0.717903 0.500000
O O13 0.750000 0.750000 0.684282
O O14 0.926364 0.577465 0.761492
O O15 0.000000 0.500000 0.769474
O O16 0.000000 0.558409 0.000000
O O17 0.116452 0.394180 0.500000
#
# Coordination Sequence:
#
# PCOD8269309 Si02
#       6
#    16  16  16  16   8  16
#     4  11  23  37  54  78 110 148 190 229 277 341
#     4   8  14  26  45  70 103 140 173 211 269 335
#     4   9  18  31  50  79 111 141 179 233 282 330
#     4  10  19  34  53  77 109 142 183 230 277 326
#     4  11  25  43  59  81 117 153 191 243 294 345
#     4  11  21  36  59  83 109 144 190 238 284 337
#
# _framework density 18.959368999999999
#
# number of rings (size 3 to 8) (size 9 to 14) (size 15 to 20)
#    0.000    2.091    2.727    1.909    0.000    3.636 
#    0.000    3.636    0.000    0.000    0.000    0.000 
#    0.000    0.000    0.000   18.000    0.000   15.636 
#
# Total GULP energy -545551.356791 kJ/mol
# GULP energy per Si atom -12398.894473 kJ/mol
# Density = 1.891622 g / cm^3
# Si number density = 18.959369 Si / 1000 Ang^3
#
#
#
# Elastic Constant Matrix: (Units=GPa)
#
#
# Indices 1 2 3 4 5 6 
#
# 1 141.0386 84.8522 30.6917 0.0000 0.0000 0.0000
# 2 84.8522 138.6583 22.8587 0.0000 0.0000 0.0000
# 3 30.6917 22.8587 42.0240 0.0000 0.0000 0.0000
# 4 0.0000 0.0000 0.0000 -36.6426 0.0000 0.0000
# 5 0.0000 0.0000 0.0000 0.0000 13.6433 0.0000
# 6 0.0000 0.0000 0.0000 0.0000 0.0000 39.3321
#
#
#
# Elastic Compliance Matrix: (Units=1/GPa)
#
#
# Indices 1 2 3 4 5 6 
#
# 1 0.012222 -0.006599 -0.005336 0.000000 0.000000 0.000000
# 2 -0.006599 0.011486 -0.001428 0.000000 0.000000 0.000000
# 3 -0.005336 -0.001428 0.028470 0.000000 0.000000 0.000000
# 4 0.000000 0.000000 0.000000 -0.027291 0.000000 0.000000
# 5 0.000000 0.000000 0.000000 0.000000 0.073296 0.000000
# 6 0.000000 0.000000 0.000000 0.000000 0.000000 0.025425
#
#
# Mechanical properties :
#
#
# Convention : Reuss Voigt Hill
#
# Bulk Modulus (GPa) = 39.29218 66.50291 52.89755
# Shear Modulus (GPa) = 31.48246 15.48779 23.48513
#
# Velocity S-wave (km/s) = 4.07937 2.86124 3.52335
# Velocity P-wave (km/s) = 6.55422 6.78736 6.67181
#
# Compressibility (1/GPa) = 0.02545035
#
# Stress axis : x y z
#
# Youngs Moduli (GPa) = 81.82017 87.06296 35.12479
#
# Poissons Ratio (x) = 0.57457 0.18744
# Poissons Ratio (y) = 0.53997 0.05015
# Poissons Ratio (z) = 0.43662 0.12431
#
# Static dielectric constant tensor:
#      x y z
#    x 3.714370 0.000000 0.000000 
#    y 0.000000 3.962940 0.000000 
#    z 0.000000 0.000000 3.234000 
# 
# 
# High freq. dielectric constant tensor:
#      x y z
#    x 1.748100 0.000000 0.000000 
#    y 0.000000 1.737840 0.000000 
#    z 0.000000 0.000000 1.701170 
# 
# From -- ./inp_files/10087.got.cif
#   From: 2010.03.12/outbox.cif.g09.slc.cpg/sg65_6_cif.got.tgz:10087.got - 2010.04.10 20:52:16.
