data_PCOD8269932
_publ_section_title
;
Structure prediction by ZEFSAII (Michael W. Deem and Ramdas Pophale) SiO2 
 PCOD8269932
Probable space group: C M M M
;
_chemical_formula_sum "Si O2"
_cell_formula_units_Z 104
_cell_length_a 9.073634
_cell_length_b 26.599953
_cell_length_c 22.681665
_cell_angle_alpha 90.000000
_cell_angle_beta 90.000000
_cell_angle_gamma 90.000000
_cell_volume 5474.406698
_symmetry_space_group_name_H-M "C M M M"
_symmetry_group_IT_number 65
_symmetry_cell_setting 'orthorhombic'
loop_
_space_group_symop_operation_xyz
x,y,z
-x,-y,z
x,-y,-z
-x,y,-z
-x,-y,-z
x,y,-z
-x,y,z
x,-y,z
1/2+x,1/2+y,z
1/2-x,1/2-y,z
1/2+x,1/2-y,-z
1/2-x,1/2+y,-z
1/2-x,1/2-y,-z
1/2+x,1/2+y,-z
1/2-x,1/2+y,z
1/2+x,1/2-y,z
loop_
_atom_site_type_symbol
_atom_site_label
_atom_site_fract_x
_atom_site_fract_y
_atom_site_fract_z
Si Si1 0.331240 0.000000 0.429865
Si Si2 0.827012 0.372992 0.137596
Si Si3 0.325204 0.802717 0.374868
Si Si4 0.337344 0.558603 0.065130
Si Si5 0.168856 0.101190 0.569951
Si Si6 0.328368 0.199255 0.760767
Si Si7 0.161507 0.204214 0.931129
O O1 0.248713 0.050339 0.406269
O O2 0.500000 0.000000 0.406431
O O3 0.329557 0.000000 0.500000
O O4 0.763601 0.427907 0.122657
O O5 0.774000 0.347798 0.199105
O O6 0.756637 0.344757 0.081587
O O7 0.000000 0.373210 0.134043
O O8 0.500000 0.799458 0.387465
O O9 0.250000 0.750000 0.394748
O O10 0.255786 0.849143 0.409976
O O11 0.289710 0.813404 0.306568
O O12 0.500000 0.583736 0.071542
O O13 0.355513 0.500000 0.068547
O O14 0.272642 0.573417 0.000000
O O15 0.170743 0.100727 0.500000
O O16 0.000000 0.102237 0.593257
O O17 0.500000 0.208446 0.769387
O O18 0.250000 0.250000 0.781759
O O19 0.250000 0.250000 0.901362
O O20 0.000000 0.201871 0.901651
O O21 0.145533 0.212371 0.000000
#
# Coordination Sequence:
#
# PCOD8269932 Si02
#       7
#     8  16  16  16  16  16  16
#     4   9  17  31  53  81 111 145 183 219 260 313
#     4  11  21  32  50  75 100 126 162 205 251 303
#     4  10  20  36  56  77 106 143 185 228 273 326
#     4   9  19  36  55  74  98 129 166 209 258 311
#     4  10  20  34  54  82 115 147 181 225 274 323
#     4   9  20  36  53  75 102 134 173 214 257 304
#     4  10  20  32  45  65  96 129 159 194 239 290
#
# _framework density 18.997492999999999
#
# number of rings (size 3 to 8) (size 9 to 14) (size 15 to 20)
#    0.000    2.231    0.000    3.462    0.000    8.615 
#    0.000    0.769    1.692    0.000    0.000    0.000 
#    0.000    0.000    0.000    0.000    0.000    0.000 
#
# Total GULP energy -644396.384015 kJ/mol
# GULP energy per Si atom -12392.238154 kJ/mol
# Density = 1.895425 g / cm^3
# Si number density = 18.997493 Si / 1000 Ang^3
#
#
#
# Elastic Constant Matrix: (Units=GPa)
#
#
# Indices 1 2 3 4 5 6 
#
# 1 100.2008 52.7809 27.5884 0.0000 0.0000 0.0000
# 2 52.7809 105.7616 26.3989 0.0000 0.0000 0.0000
# 3 27.5884 26.3989 37.6299 0.0000 0.0000 0.0000
# 4 0.0000 0.0000 0.0000 26.3581 0.0000 0.0000
# 5 0.0000 0.0000 0.0000 0.0000 -12.2093 0.0000
# 6 0.0000 0.0000 0.0000 0.0000 0.0000 35.9693
#
#
#
# Elastic Compliance Matrix: (Units=1/GPa)
#
#
# Indices 1 2 3 4 5 6 
#
# 1 0.014888 -0.005704 -0.006913 0.000000 0.000000 0.000000
# 2 -0.005704 0.013648 -0.005392 0.000000 0.000000 0.000000
# 3 -0.006913 -0.005392 0.035426 0.000000 0.000000 0.000000
# 4 0.000000 0.000000 0.000000 0.037939 0.000000 0.000000
# 5 0.000000 0.000000 0.000000 0.000000 -0.081905 0.000000
# 6 0.000000 0.000000 0.000000 0.000000 0.000000 0.027802
#
#
# Mechanical properties :
#
#
# Convention : Reuss Voigt Hill
#
# Bulk Modulus (GPa) = 35.78859 50.79209 43.29034
# Shear Modulus (GPa) = 53.68673 19.14522 36.41598
#
# Velocity S-wave (km/s) = 5.32177 3.17799 4.38297
# Velocity P-wave (km/s) = 7.52603 6.34511 6.96066
#
# Compressibility (1/GPa) = 0.02794187
#
# Stress axis : x y z
#
# Youngs Moduli (GPa) = 67.16703 73.27061 28.22770
#
# Poissons Ratio (x) = 0.41797 0.19515
# Poissons Ratio (y) = 0.38315 0.15222
# Poissons Ratio (z) = 0.46436 0.39511
#
# Static dielectric constant tensor:
#      x y z
#    x 3.219110 0.000000 0.000000 
#    y 0.000000 4.162280 0.000000 
#    z 0.000000 0.000000 3.328750 
# 
# 
# High freq. dielectric constant tensor:
#      x y z
#    x 1.749780 0.000000 0.000000 
#    y 0.000000 1.742450 0.000000 
#    z 0.000000 0.000000 1.708380 
# 
# From -- ./inp_files/65904.got.cif
#   From: 2010.03.12/outbox.cif.g09.slc.cpg/sg65_33_cif.got.tgz:65904.got - 2010.04.10 20:52:16.
