data_PCOD8269211
_publ_section_title
;
Structure prediction by ZEFSAII (Michael W. Deem and Ramdas Pophale) SiO2 
 PCOD8269211
Probable space group: C M M M
;
_chemical_formula_sum "Si O2"
_cell_formula_units_Z 72
_cell_length_a 16.393325
_cell_length_b 24.400645
_cell_length_c 9.150520
_cell_angle_alpha 90.000000
_cell_angle_beta 90.000000
_cell_angle_gamma 90.000000
_cell_volume 3660.278493
_symmetry_space_group_name_H-M "C M M M"
_symmetry_group_IT_number 65
_symmetry_cell_setting 'orthorhombic'
loop_
_space_group_symop_operation_xyz
x,y,z
-x,-y,z
x,-y,-z
-x,y,-z
-x,-y,-z
x,y,-z
-x,y,z
x,-y,z
1/2+x,1/2+y,z
1/2-x,1/2-y,z
1/2+x,1/2-y,-z
1/2-x,1/2+y,-z
1/2-x,1/2-y,-z
1/2+x,1/2+y,-z
1/2-x,1/2+y,z
1/2+x,1/2-y,z
loop_
_atom_site_type_symbol
_atom_site_label
_atom_site_fract_x
_atom_site_fract_y
_atom_site_fract_z
Si Si1 0.158284 0.061791 0.165795
Si Si2 0.694417 0.103140 0.669544
Si Si3 0.500000 0.407168 0.672114
Si Si4 0.335401 0.226909 0.670014
Si Si5 0.500000 0.280457 0.672492
Si Si6 0.090493 0.500000 0.326607
O O1 0.223027 0.102538 0.237900
O O2 0.077014 0.063321 0.259337
O O3 0.192892 0.000000 0.171212
O O4 0.141043 0.080468 0.000000
O O5 0.716786 0.094072 0.500000
O O6 0.653854 0.162054 0.695351
O O7 0.634922 0.055286 0.727388
O O8 0.500000 0.416609 0.500000
O O9 0.500000 0.343676 0.714517
O O10 0.333306 0.242248 0.500000
O O11 0.250000 0.250000 0.739169
O O12 0.416717 0.254341 0.740146
O O13 0.500000 0.270031 0.500000
O O14 0.085832 0.500000 0.500000
O O15 0.000000 0.500000 0.258593
#
# Coordination Sequence:
#
# PCOD8269211 Si02
#       6
#    16  16   8  16   8   8
#     4  11  23  38  55  78 112 149 184 224 276 329
#     4  10  19  33  56  81 110 144 183 227 270 325
#     4  11  22  36  59  84 109 142 184 230 273 324
#     4   9  17  29  48  77 109 139 175 222 275 324
#     4   9  18  32  52  82 114 140 175 226 283 332
#     4   9  18  30  49  82 113 136 171 225 280 319
#
# _framework density 19.670634
#
# number of rings (size 3 to 8) (size 9 to 14) (size 15 to 20)
#    0.000    2.111    1.111    2.667    1.556    6.222 
#    0.000    0.000    0.000    8.667    0.000    0.000 
#    0.000    0.000    0.000    0.000    0.000    0.000 
#
# Total GULP energy -446376.399813 kJ/mol
# GULP energy per Si atom -12399.344439 kJ/mol
# Density = 1.962586 g / cm^3
# Si number density = 19.670634 Si / 1000 Ang^3
#
#
#
# Elastic Constant Matrix: (Units=GPa)
#
#
# Indices 1 2 3 4 5 6 
#
# 1 133.1785 36.5838 21.4295 0.0000 0.0000 0.0000
# 2 36.5838 94.8506 21.1044 0.0000 0.0000 0.0000
# 3 21.4295 21.1044 60.0107 0.0000 0.0000 0.0000
# 4 0.0000 0.0000 0.0000 11.1517 0.0000 0.0000
# 5 0.0000 0.0000 0.0000 0.0000 -15.5520 0.0000
# 6 0.0000 0.0000 0.0000 0.0000 0.0000 287.2562
#
#
#
# Elastic Compliance Matrix: (Units=1/GPa)
#
#
# Indices 1 2 3 4 5 6 
#
# 1 0.008630 -0.002867 -0.002073 0.000000 0.000000 0.000000
# 2 -0.002867 0.012391 -0.003334 0.000000 0.000000 0.000000
# 3 -0.002073 -0.003334 0.018576 0.000000 0.000000 0.000000
# 4 0.000000 0.000000 0.000000 0.089673 0.000000 0.000000
# 5 0.000000 0.000000 0.000000 0.000000 -0.064300 0.000000
# 6 0.000000 0.000000 0.000000 0.000000 0.000000 0.003481
#
#
# Mechanical properties :
#
#
# Convention : Reuss Voigt Hill
#
# Bulk Modulus (GPa) = 43.38675 49.58613 46.48644
# Shear Modulus (GPa) = 53.94816 70.49932 62.22374
#
# Velocity S-wave (km/s) = 5.24264 5.99314 5.63041
# Velocity P-wave (km/s) = 7.66495 8.55296 8.12111
#
# Compressibility (1/GPa) = 0.02304851
#
# Stress axis : x y z
#
# Youngs Moduli (GPa) = 115.87527 80.70687 53.83171
#
# Poissons Ratio (x) = 0.23141 0.11161
# Poissons Ratio (y) = 0.33224 0.17945
# Poissons Ratio (z) = 0.24025 0.26904
#
# Static dielectric constant tensor:
#      x y z
#    x 3.962370 0.000000 0.000000 
#    y 0.000000 3.584420 0.000000 
#    z 0.000000 0.000000 3.095070 
# 
# 
# High freq. dielectric constant tensor:
#      x y z
#    x 1.777930 0.000000 0.000000 
#    y 0.000000 1.777430 0.000000 
#    z 0.000000 0.000000 1.708890 
# 
# From -- ./inp_files/7369.got.cif
#   From: 2010.03.12/outbox.cif.g09.slc.cpg/sg65_4_cif.got.tgz:7369.got - 2010.04.10 20:52:16.
