data_PCOD8269276
_publ_section_title
;
Structure prediction by ZEFSAII (Michael W. Deem and Ramdas Pophale) SiO2 
 PCOD8269276
Probable space group: C M M M
;
_chemical_formula_sum "Si O2"
_cell_formula_units_Z 88
_cell_length_a 13.803662
_cell_length_b 29.123365
_cell_length_c 12.781423
_cell_angle_alpha 90.000000
_cell_angle_beta 90.000000
_cell_angle_gamma 90.000000
_cell_volume 5138.248188
_symmetry_space_group_name_H-M "C M M M"
_symmetry_group_IT_number 65
_symmetry_cell_setting 'orthorhombic'
loop_
_space_group_symop_operation_xyz
x,y,z
-x,-y,z
x,-y,-z
-x,y,-z
-x,-y,-z
x,y,-z
-x,y,z
x,-y,z
1/2+x,1/2+y,z
1/2-x,1/2-y,z
1/2+x,1/2-y,-z
1/2-x,1/2+y,-z
1/2-x,1/2-y,-z
1/2+x,1/2+y,-z
1/2-x,1/2+y,z
1/2+x,1/2-y,z
loop_
_atom_site_type_symbol
_atom_site_label
_atom_site_fract_x
_atom_site_fract_y
_atom_site_fract_z
Si Si1 0.283331 0.500000 0.120830
Si Si2 0.390115 0.000000 0.721952
Si Si3 0.388310 0.405595 0.877514
Si Si4 0.105828 0.756995 0.000000
Si Si5 0.750000 0.750000 0.172052
Si Si6 0.107343 0.648676 0.000000
Si Si7 0.888829 0.404063 0.380239
Si Si8 0.777439 0.650138 0.791390
O O1 0.181784 0.500000 0.180528
O O2 0.346717 0.544293 0.149935
O O3 0.254794 0.500000 0.000000
O O4 0.370776 0.043296 0.648430
O O5 0.500000 0.000000 0.766098
O O6 0.500000 0.404144 0.843324
O O7 0.331854 0.367478 0.809188
O O8 0.376615 0.394244 0.000000
O O9 0.164530 0.772333 0.898071
O O10 0.096893 0.702789 0.000000
O O11 0.000000 0.780694 0.000000
O O12 0.784024 0.705021 0.235046
O O13 0.163128 0.633929 0.105276
O O14 0.000000 0.626024 0.000000
O O15 0.858759 0.396553 0.500000
O O16 0.821718 0.371944 0.311001
O O17 0.000000 0.390027 0.361082
#
# Coordination Sequence:
#
# PCOD8269276 Si02
#       8
#     8   8  16   8   8   8  16  16
#     4  10  19  34  51  78 114 142 169 206 261 317
#     4  10  19  34  57  84 108 131 166 213 264 320
#     4  10  20  33  51  75 106 145 183 215 248 300
#     4   8  15  29  46  67 101 140 174 211 259 311
#     4   9  20  30  45  74 106 138 177 221 258 306
#     4   9  17  29  48  75 107 139 167 210 268 325
#     4  10  21  37  58  81 104 134 172 213 263 325
#     4  11  19  34  51  77 108 141 178 218 263 312
#
# _framework density 17.126459000000001
#
# number of rings (size 3 to 8) (size 9 to 14) (size 15 to 20)
#    0.000    2.182    2.727    1.636    0.000    3.818 
#    0.000    0.455    0.000    0.545    0.000    1.273 
#    0.000    0.000    0.000    0.000    0.000    0.000 
#
# Total GULP energy -545500.777310 kJ/mol
# GULP energy per Si atom -12397.744939 kJ/mol
# Density = 1.708748 g / cm^3
# Si number density = 17.126459 Si / 1000 Ang^3
#
#
#
# Elastic Constant Matrix: (Units=GPa)
#
#
# Indices 1 2 3 4 5 6 
#
# 1 124.3453 41.9143 57.6570 0.0000 0.0000 0.0000
# 2 41.9143 103.3427 46.8438 0.0000 0.0000 0.0000
# 3 57.6570 46.8438 90.0440 0.0000 0.0000 0.0000
# 4 0.0000 0.0000 0.0000 3.3566 0.0000 0.0000
# 5 0.0000 0.0000 0.0000 0.0000 19.5562 0.0000
# 6 0.0000 0.0000 0.0000 0.0000 0.0000 20.5990
#
#
#
# Elastic Compliance Matrix: (Units=1/GPa)
#
#
# Indices 1 2 3 4 5 6 
#
# 1 0.011679 -0.001763 -0.006561 0.000000 0.000000 0.000000
# 2 -0.001763 0.012929 -0.005597 0.000000 0.000000 0.000000
# 3 -0.006561 -0.005597 0.018219 0.000000 0.000000 0.000000
# 4 0.000000 0.000000 0.000000 0.297922 0.000000 0.000000
# 5 0.000000 0.000000 0.000000 0.000000 0.051135 0.000000
# 6 0.000000 0.000000 0.000000 0.000000 0.000000 0.048546
#
#
# Mechanical properties :
#
#
# Convention : Reuss Voigt Hill
#
# Bulk Modulus (GPa) = 66.73758 67.84025 67.28892
# Shear Modulus (GPa) = 10.56490 20.12347 15.34418
#
# Velocity S-wave (km/s) = 2.48639 3.43154 2.99646
# Velocity P-wave (km/s) = 6.87714 7.44298 7.16565
#
# Compressibility (1/GPa) = 0.01498406
#
# Stress axis : x y z
#
# Youngs Moduli (GPa) = 85.62742 77.34799 54.88864
#
# Poissons Ratio (x) = 0.13633 0.36013
# Poissons Ratio (y) = 0.15093 0.30722
# Poissons Ratio (z) = 0.56180 0.43294
#
# Static dielectric constant tensor:
#      x y z
#    x 3.512460 0.000000 0.000000 
#    y 0.000000 3.192340 0.000000 
#    z 0.000000 0.000000 2.880840 
# 
# 
# High freq. dielectric constant tensor:
#      x y z
#    x 1.667270 0.000000 0.000000 
#    y 0.000000 1.667750 0.000000 
#    z 0.000000 0.000000 1.618020 
# 
# From -- ./inp_files/25254.got.cif
#   From: 2010.03.12/outbox.cif.g09.slc.cpg/sg65_13_cif.got.tgz:25254.got - 2010.04.10 20:52:16.
