data_PCOD8269228
_publ_section_title
;
Structure prediction by ZEFSAII (Michael W. Deem and Ramdas Pophale) SiO2 
 PCOD8269228
Probable space group: C M M M
;
_chemical_formula_sum "Si O2"
_cell_formula_units_Z 64
_cell_length_a 10.825261
_cell_length_b 33.127935
_cell_length_c 8.259925
_cell_angle_alpha 90.000000
_cell_angle_beta 90.000000
_cell_angle_gamma 90.000000
_cell_volume 2962.162267
_symmetry_space_group_name_H-M "C M M M"
_symmetry_group_IT_number 65
_symmetry_cell_setting 'orthorhombic'
loop_
_space_group_symop_operation_xyz
x,y,z
-x,-y,z
x,-y,-z
-x,y,-z
-x,-y,-z
x,y,-z
-x,y,z
x,-y,z
1/2+x,1/2+y,z
1/2-x,1/2-y,z
1/2+x,1/2-y,-z
1/2-x,1/2+y,-z
1/2-x,1/2-y,-z
1/2+x,1/2+y,-z
1/2-x,1/2+y,z
1/2+x,1/2-y,z
loop_
_atom_site_type_symbol
_atom_site_label
_atom_site_fract_x
_atom_site_fract_y
_atom_site_fract_z
Si Si1 0.500000 0.454988 0.189470
Si Si2 0.858693 0.500000 0.175782
Si Si3 0.766488 0.667627 0.688593
Si Si4 0.000000 0.195982 0.686539
Si Si5 0.247508 0.580992 0.191991
Si Si6 0.000000 0.716127 0.186703
O O1 0.500000 0.500000 0.270111
O O2 0.612887 0.427391 0.243473
O O3 0.500000 0.461789 0.000000
O O4 0.823926 0.458264 0.263963
O O5 0.000000 0.500000 0.142166
O O6 0.787616 0.500000 0.000000
O O7 0.772563 0.678612 0.500000
O O8 0.628980 0.678071 0.761178
O O9 0.797594 0.620711 0.716366
O O10 0.874319 0.691998 0.777687
O O11 0.000000 0.243850 0.706290
O O12 0.000000 0.184096 0.500000
O O13 0.225722 0.586748 0.000000
O O14 0.000000 0.728578 0.000000
#
# Coordination Sequence:
#
# PCOD8269228 Si02
#       6
#     8   8  16   8  16   8
#     4   9  15  28  51  80 111 149 201 254 303 352
#     4   9  18  31  50  78 113 155 201 251 302 350
#     4  11  24  42  64  92 129 168 205 249 307 374
#     4  10  23  45  69  92 125 168 204 241 306 380
#     4  10  19  33  56  84 116 156 206 257 302 353
#     4  12  26  43  67  97 125 156 203 260 312 365
#
# _framework density 21.605840000000001
#
# number of rings (size 3 to 8) (size 9 to 14) (size 15 to 20)
#    0.000    1.750    1.250    3.375    1.750    5.000 
#    0.000    0.625    0.000    1.500    0.000    0.000 
#    0.000    0.000    0.000    0.000    0.000    0.000 
#
# Total GULP energy -396577.622530 kJ/mol
# GULP energy per Si atom -12393.050704 kJ/mol
# Density = 2.155666 g / cm^3
# Si number density = 21.605840 Si / 1000 Ang^3
#
#
#
# Elastic Constant Matrix: (Units=GPa)
#
#
# Indices 1 2 3 4 5 6 
#
# 1 132.8251 41.5515 12.8016 0.0000 0.0000 0.0000
# 2 41.5515 144.9250 -3.3026 0.0000 0.0000 0.0000
# 3 12.8016 -3.3026 32.9114 0.0000 0.0000 0.0000
# 4 0.0000 0.0000 0.0000 22.0800 0.0000 0.0000
# 5 0.0000 0.0000 0.0000 0.0000 14.1346 0.0000
# 6 0.0000 0.0000 0.0000 0.0000 0.0000 19.5773
#
#
#
# Elastic Compliance Matrix: (Units=1/GPa)
#
#
# Indices 1 2 3 4 5 6 
#
# 1 0.008684 -0.002573 -0.003636 0.000000 0.000000 0.000000
# 2 -0.002573 0.007678 0.001771 0.000000 0.000000 0.000000
# 3 -0.003636 0.001771 0.031977 0.000000 0.000000 0.000000
# 4 0.000000 0.000000 0.000000 0.045290 0.000000 0.000000
# 5 0.000000 0.000000 0.000000 0.000000 0.070748 0.000000
# 6 0.000000 0.000000 0.000000 0.000000 0.000000 0.051080
#
#
# Mechanical properties :
#
#
# Convention : Reuss Voigt Hill
#
# Bulk Modulus (GPa) = 25.33967 45.86248 35.60108
# Shear Modulus (GPa) = 21.05389 28.46579 24.75984
#
# Velocity S-wave (km/s) = 3.12501 3.63368 3.38890
# Velocity P-wave (km/s) = 4.97740 6.23521 5.64147
#
# Compressibility (1/GPa) = 0.03946381
#
# Stress axis : x y z
#
# Youngs Moduli (GPa) = 115.15533 130.24091 31.27282
#
# Poissons Ratio (x) = 0.33506 0.11371
# Poissons Ratio (y) = 0.29625 -0.05539
# Poissons Ratio (z) = 0.41870 -0.23068
#
# Static dielectric constant tensor:
#      x y z
#    x 3.840780 0.000000 0.000000 
#    y 0.000000 3.993980 0.000000 
#    z 0.000000 0.000000 3.406070 
# 
# 
# High freq. dielectric constant tensor:
#      x y z
#    x 1.863180 0.000000 0.000000 
#    y 0.000000 1.865040 0.000000 
#    z 0.000000 0.000000 1.800820 
# 
# From -- ./inp_files/5048.got.cif
#   From: 2010.03.12/outbox.cif.g09.slc.cpg/sg65_3_cif.got.tgz:5048.got - 2010.04.10 20:52:16.
