data_PCOD8269745
_publ_section_title
;
Structure prediction by ZEFSAII (Michael W. Deem and Ramdas Pophale) SiO2 
 PCOD8269745
Probable space group: C M M M
;
_chemical_formula_sum "Si O2"
_cell_formula_units_Z 80
_cell_length_a 18.213542
_cell_length_b 10.142701
_cell_length_c 23.507168
_cell_angle_alpha 90.000000
_cell_angle_beta 90.000000
_cell_angle_gamma 90.000000
_cell_volume 4342.585177
_symmetry_space_group_name_H-M "C M M M"
_symmetry_group_IT_number 65
_symmetry_cell_setting 'orthorhombic'
loop_
_space_group_symop_operation_xyz
x,y,z
-x,-y,z
x,-y,-z
-x,y,-z
-x,-y,-z
x,y,-z
-x,y,z
x,-y,z
1/2+x,1/2+y,z
1/2-x,1/2-y,z
1/2+x,1/2-y,-z
1/2-x,1/2+y,-z
1/2-x,1/2-y,-z
1/2+x,1/2+y,-z
1/2-x,1/2+y,z
1/2+x,1/2-y,z
loop_
_atom_site_type_symbol
_atom_site_label
_atom_site_fract_x
_atom_site_fract_y
_atom_site_fract_z
Si Si1 0.161885 0.757773 0.111502
Si Si2 0.587285 0.000000 0.067239
Si Si3 0.819549 0.154459 0.769298
Si Si4 0.183962 0.151583 0.564683
Si Si5 0.188347 0.859321 0.000000
Si Si6 0.419324 0.655095 0.334565
O O1 0.250000 0.750000 0.113022
O O2 0.122450 0.619887 0.101710
O O3 0.137153 0.823606 0.170979
O O4 0.138796 0.846782 0.056890
O O5 0.500000 0.000000 0.074547
O O6 0.608338 0.000000 0.000000
O O7 0.750000 0.250000 0.766262
O O8 0.872192 0.203749 0.718971
O O9 0.796929 0.000000 0.763129
O O10 0.156183 0.167640 0.500000
O O11 0.250000 0.250000 0.577862
O O12 0.118315 0.194796 0.606001
O O13 0.208804 0.000000 0.576376
O O14 0.250000 0.750000 0.000000
O O15 0.228634 0.000000 0.000000
O O16 0.500000 0.721390 0.332734
O O17 0.427666 0.500000 0.330581
#
# Coordination Sequence:
#
# PCOD8269745 Si02
#       6
#    16   8  16  16   8  16
#     4  10  22  33  60  84 113 140 194 230 281 331
#     4  11  24  42  60  88 121 155 182 228 297 358
#     4  10  21  35  56  82 111 144 186 233 283 330
#     4   9  17  30  52  81 109 140 178 223 273 322
#     4  10  20  30  52  83 115 137 177 233 283 327
#     4   9  18  33  52  76 108 146 185 226 273 325
#
# _framework density 18.422205000000002
#
# number of rings (size 3 to 8) (size 9 to 14) (size 15 to 20)
#    0.000    2.300    1.000    1.200   11.200    1.200 
#    0.000    2.000    0.000    4.200    0.000    2.800 
#    0.000    0.000    0.000    0.000    0.000    0.000 
#
# Total GULP energy -495639.714334 kJ/mol
# GULP energy per Si atom -12390.992858 kJ/mol
# Density = 1.838028 g / cm^3
# Si number density = 18.422205 Si / 1000 Ang^3
#
#
#
# Elastic Constant Matrix: (Units=GPa)
#
#
# Indices 1 2 3 4 5 6 
#
# 1 103.0869 46.0004 70.1168 0.0000 0.0000 0.0000
# 2 46.0004 104.1146 41.6652 0.0000 0.0000 0.0000
# 3 70.1168 41.6652 165.0301 0.0000 0.0000 0.0000
# 4 0.0000 0.0000 0.0000 22.4255 0.0000 0.0000
# 5 0.0000 0.0000 0.0000 0.0000 -5.4066 0.0000
# 6 0.0000 0.0000 0.0000 0.0000 0.0000 19.2484
#
#
#
# Elastic Compliance Matrix: (Units=1/GPa)
#
#
# Indices 1 2 3 4 5 6 
#
# 1 0.015446 -0.004670 -0.005384 0.000000 0.000000 0.000000
# 2 -0.004670 0.012096 -0.001070 0.000000 0.000000 0.000000
# 3 -0.005384 -0.001070 0.008617 0.000000 0.000000 0.000000
# 4 0.000000 0.000000 0.000000 0.044592 0.000000 0.000000
# 5 0.000000 0.000000 0.000000 0.000000 -0.184958 0.000000
# 6 0.000000 0.000000 0.000000 0.000000 0.000000 0.051952
#
#
# Mechanical properties :
#
#
# Convention : Reuss Voigt Hill
#
# Bulk Modulus (GPa) = 71.87775 76.42184 74.14980
# Shear Modulus (GPa) = -197.08679 21.55005 -87.76837
#
# Velocity S-wave (km/s) = -10.35449 3.42393 -6.90986
# Velocity P-wave (km/s) = 10.19080 7.56337 4.82948
#
# Compressibility (1/GPa) = 0.01391251
#
# Stress axis : x y z
#
# Youngs Moduli (GPa) = 64.74044 82.67009 116.05028
#
# Poissons Ratio (x) = 0.38608 0.62477
# Poissons Ratio (y) = 0.30234 0.12415
# Poissons Ratio (z) = 0.34854 0.08844
#
# Static dielectric constant tensor:
#      x y z
#    x 3.287820 0.000000 0.000000 
#    y 0.000000 3.240660 0.000000 
#    z 0.000000 0.000000 4.325020 
# 
# 
# High freq. dielectric constant tensor:
#      x y z
#    x 1.682070 0.000000 0.000000 
#    y 0.000000 1.699710 0.000000 
#    z 0.000000 0.000000 1.739880 
# 
# From -- ./inp_files/70855.got.cif
#   From: 2010.03.12/outbox.cif.g09.slc.cpg/sg65_36_cif.got.tgz:70855.got - 2010.04.10 20:52:16.
