data_PCOD8269526
_publ_section_title
;
Structure prediction by ZEFSAII (Michael W. Deem and Ramdas Pophale) SiO2 
 PCOD8269526
Probable space group: C M M M
;
_chemical_formula_sum "Si O2"
_cell_formula_units_Z 64
_cell_length_a 10.873885
_cell_length_b 15.521984
_cell_length_c 17.765743
_cell_angle_alpha 90.000000
_cell_angle_beta 90.000000
_cell_angle_gamma 90.000000
_cell_volume 2998.577945
_symmetry_space_group_name_H-M "C M M M"
_symmetry_group_IT_number 65
_symmetry_cell_setting 'orthorhombic'
loop_
_space_group_symop_operation_xyz
x,y,z
-x,-y,z
x,-y,-z
-x,y,-z
-x,-y,-z
x,y,-z
-x,y,z
x,-y,z
1/2+x,1/2+y,z
1/2-x,1/2-y,z
1/2+x,1/2-y,-z
1/2-x,1/2+y,-z
1/2-x,1/2-y,-z
1/2+x,1/2+y,-z
1/2-x,1/2+y,z
1/2+x,1/2-y,z
loop_
_atom_site_type_symbol
_atom_site_label
_atom_site_fract_x
_atom_site_fract_y
_atom_site_fract_z
Si Si1 0.500000 0.897867 0.415509
Si Si2 0.500000 0.099067 0.082265
Si Si3 0.860039 0.000000 0.918310
Si Si4 0.749770 0.102535 0.666982
Si Si5 0.500000 0.602109 0.415460
Si Si6 0.760873 0.347859 0.836081
O O1 0.500000 0.860382 0.500000
O O2 0.625751 0.865948 0.375514
O O3 0.500000 0.000000 0.417366
O O4 0.389897 0.120377 0.136127
O O5 0.500000 0.000000 0.064136
O O6 0.500000 0.146903 0.000000
O O7 0.837510 0.912437 0.872292
O O8 0.000000 0.000000 0.938269
O O9 0.788291 0.000000 0.000000
O O10 0.750497 0.148980 0.746728
O O11 0.874332 0.133734 0.624843
O O12 0.749039 0.000000 0.677329
O O13 0.500000 0.500000 0.417574
O O14 0.500000 0.639657 0.500000
O O15 0.750000 0.250000 0.864396
#
# Coordination Sequence:
#
# PCOD8269526 Si02
#       6
#     8   8   8  16   8  16
#     4   9  17  31  56  90 122 163 217 270 322 382
#     4  11  23  44  69  92 127 169 216 275 331 392
#     4  11  26  47  69  95 132 172 215 271 335 397
#     4  10  19  34  59  85 127 170 213 267 325 385
#     4   9  18  31  55  91 123 166 221 267 315 385
#     4  12  26  42  68  99 134 172 223 271 331 394
#
# _framework density 21.343451000000002
#
# number of rings (size 3 to 8) (size 9 to 14) (size 15 to 20)
#    0.000    1.500    2.500    2.250    3.500    6.000 
#    0.000    0.000    0.000    4.500    0.000    0.000 
#    0.000    0.000    0.000    0.000    0.000    0.000 
#
# Total GULP energy -396628.377025 kJ/mol
# GULP energy per Si atom -12394.636782 kJ/mol
# Density = 2.129487 g / cm^3
# Si number density = 21.343451 Si / 1000 Ang^3
#
#
#
# Elastic Constant Matrix: (Units=GPa)
#
#
# Indices 1 2 3 4 5 6 
#
# 1 167.8907 19.3211 69.5481 0.0000 0.0000 0.0000
# 2 19.3211 97.4199 33.1007 0.0000 0.0000 0.0000
# 3 69.5481 33.1007 176.1004 0.0000 0.0000 0.0000
# 4 0.0000 0.0000 0.0000 1.0936 0.0000 0.0000
# 5 0.0000 0.0000 0.0000 0.0000 42.6085 0.0000
# 6 0.0000 0.0000 0.0000 0.0000 0.0000 -5.5436
#
#
#
# Elastic Compliance Matrix: (Units=1/GPa)
#
#
# Indices 1 2 3 4 5 6 
#
# 1 0.007143 -0.000489 -0.002729 0.000000 0.000000 0.000000
# 2 -0.000489 0.010999 -0.001874 0.000000 0.000000 0.000000
# 3 -0.002729 -0.001874 0.007109 0.000000 0.000000 0.000000
# 4 0.000000 0.000000 0.000000 0.914442 0.000000 0.000000
# 5 0.000000 0.000000 0.000000 0.000000 0.023469 0.000000
# 6 0.000000 0.000000 0.000000 0.000000 0.000000 -0.180387
#
#
# Mechanical properties :
#
#
# Convention : Reuss Voigt Hill
#
# Bulk Modulus (GPa) = 66.37770 76.15006 71.26388
# Shear Modulus (GPa) = 6.26581 28.92776 17.59679
#
# Velocity S-wave (km/s) = 1.71525 3.68550 2.87445
# Velocity P-wave (km/s) = 5.92369 7.33937 6.66920
#
# Compressibility (1/GPa) = 0.01506530
#
# Stress axis : x y z
#
# Youngs Moduli (GPa) = 139.99564 90.92008 140.67393
#
# Poissons Ratio (x) = 0.04450 0.38391
# Poissons Ratio (y) = 0.06852 0.26363
# Poissons Ratio (z) = 0.38206 0.17039
#
# Static dielectric constant tensor:
#      x y z
#    x 3.884190 0.000000 0.000000 
#    y 0.000000 3.318190 0.000000 
#    z 0.000000 0.000000 4.042440 
# 
# 
# High freq. dielectric constant tensor:
#      x y z
#    x 1.851000 0.000000 0.000000 
#    y 0.000000 1.810220 0.000000 
#    z 0.000000 0.000000 1.855650 
# 
# From -- ./inp_files/50990.got.cif
#   From: 2010.03.12/outbox.cif.g09.slc.cpg/sg65_26_cif.got.tgz:50990.got - 2010.04.10 20:52:16.
