data_PCOD8269363
_publ_section_title
;
Structure prediction by ZEFSAII (Michael W. Deem and Ramdas Pophale) SiO2 
 PCOD8269363
Probable space group: C M M M
;
_chemical_formula_sum "Si O2"
_cell_formula_units_Z 104
_cell_length_a 9.217711
_cell_length_b 27.997145
_cell_length_c 21.483929
_cell_angle_alpha 90.000000
_cell_angle_beta 90.000000
_cell_angle_gamma 90.000000
_cell_volume 5544.348779
_symmetry_space_group_name_H-M "C M M M"
_symmetry_group_IT_number 65
_symmetry_cell_setting 'orthorhombic'
loop_
_space_group_symop_operation_xyz
x,y,z
-x,-y,z
x,-y,-z
-x,y,-z
-x,-y,-z
x,y,-z
-x,y,z
x,-y,z
1/2+x,1/2+y,z
1/2-x,1/2-y,z
1/2+x,1/2-y,-z
1/2-x,1/2+y,-z
1/2-x,1/2-y,-z
1/2+x,1/2+y,-z
1/2-x,1/2+y,z
1/2+x,1/2-y,z
loop_
_atom_site_type_symbol
_atom_site_label
_atom_site_fract_x
_atom_site_fract_y
_atom_site_fract_z
Si Si1 0.666989 0.615316 0.885030
Si Si2 0.671785 0.447404 0.000000
Si Si3 0.328738 0.298760 0.323452
Si Si4 0.831986 0.702836 0.928022
Si Si5 0.164611 0.894587 0.256014
Si Si6 0.330305 0.053107 0.358015
Si Si7 0.169482 0.353370 0.428252
O O1 0.500000 0.629764 0.898355
O O2 0.724656 0.578785 0.937309
O O3 0.768055 0.661257 0.886169
O O4 0.684616 0.593346 0.816631
O O5 0.741841 0.500000 0.000000
O O6 0.500000 0.451033 0.000000
O O7 0.500000 0.289372 0.330140
O O8 0.250000 0.250000 0.302236
O O9 0.293363 0.339593 0.272128
O O10 0.264838 0.315794 0.389718
O O11 0.750000 0.750000 0.907046
O O12 0.000000 0.709710 0.913641
O O13 0.801779 0.690881 0.000000
O O14 0.261253 0.932528 0.292303
O O15 0.000000 0.902930 0.277252
O O16 0.500000 0.052599 0.346821
O O17 0.287870 0.092057 0.410326
O O18 0.276729 0.000000 0.378294
O O19 0.207743 0.345710 0.500000
O O20 0.000000 0.344008 0.414548
#
# Coordination Sequence:
#
# PCOD8269363 Si02
#       7
#    16   8  16  16  16  16  16
#     4  10  19  34  55  77 103 135 173 217 263 309
#     4   9  18  32  52  77 102 131 168 211 258 309
#     4  10  20  35  53  74 103 137 175 214 256 303
#     4  10  20  33  51  75 103 133 166 202 250 308
#     4   9  20  35  52  76 103 135 175 218 260 307
#     4   9  18  33  53  77 105 137 173 214 260 307
#     4   9  18  33  53  78 107 138 173 212 255 303
#
# _framework density 18.757839000000001
#
# number of rings (size 3 to 8) (size 9 to 14) (size 15 to 20)
#    0.000    2.538    0.769    0.923    0.000    4.308 
#    0.000    4.615    0.000    0.923    0.000    4.308 
#    0.000    0.000    0.000    0.000    0.000    0.000 
#
# Total GULP energy -644788.224968 kJ/mol
# GULP energy per Si atom -12399.773557 kJ/mol
# Density = 1.871515 g / cm^3
# Si number density = 18.757839 Si / 1000 Ang^3
#
#
#
# Elastic Constant Matrix: (Units=GPa)
#
#
# Indices 1 2 3 4 5 6 
#
# 1 50.5299 25.9367 17.7527 0.0000 0.0000 0.0000
# 2 25.9367 84.2136 19.0705 0.0000 0.0000 0.0000
# 3 17.7527 19.0705 87.9685 0.0000 0.0000 0.0000
# 4 0.0000 0.0000 0.0000 11.6455 0.0000 0.0000
# 5 0.0000 0.0000 0.0000 0.0000 25.5413 0.0000
# 6 0.0000 0.0000 0.0000 0.0000 0.0000 25.8473
#
#
#
# Elastic Compliance Matrix: (Units=1/GPa)
#
#
# Indices 1 2 3 4 5 6 
#
# 1 0.024477 -0.006751 -0.003476 0.000000 0.000000 0.000000
# 2 -0.006751 0.014350 -0.001748 0.000000 0.000000 0.000000
# 3 -0.003476 -0.001748 0.012448 0.000000 0.000000 0.000000
# 4 0.000000 0.000000 0.000000 0.085870 0.000000 0.000000
# 5 0.000000 0.000000 0.000000 0.000000 0.039152 0.000000
# 6 0.000000 0.000000 0.000000 0.000000 0.000000 0.038689
#
#
# Mechanical properties :
#
#
# Convention : Reuss Voigt Hill
#
# Bulk Modulus (GPa) = 36.59867 38.69241 37.64554
# Shear Modulus (GPa) = 20.15755 23.27027 21.71391
#
# Velocity S-wave (km/s) = 3.28170 3.52598 3.40603
# Velocity P-wave (km/s) = 5.82348 6.10318 5.96497
#
# Compressibility (1/GPa) = 0.02732339
#
# Stress axis : x y z
#
# Youngs Moduli (GPa) = 40.85470 69.68713 80.33272
#
# Poissons Ratio (x) = 0.47049 0.27924
# Poissons Ratio (y) = 0.27583 0.14045
# Poissons Ratio (z) = 0.14201 0.12184
#
# Static dielectric constant tensor:
#      x y z
#    x 3.347090 0.000000 0.000000 
#    y 0.000000 3.599860 0.000000 
#    z 0.000000 0.000000 3.337850 
# 
# 
# High freq. dielectric constant tensor:
#      x y z
#    x 1.718710 0.000000 0.000000 
#    y 0.000000 1.728620 0.000000 
#    z 0.000000 0.000000 1.720310 
# 
# From -- ./inp_files/65860.got.cif
#   From: 2010.03.12/outbox.cif.g09.slc.cpg/sg65_33_cif.got.tgz:65860.got - 2010.04.10 20:52:16.
