data_PCOD8269728
_publ_section_title
;
Structure prediction by ZEFSAII (Michael W. Deem and Ramdas Pophale) SiO2 
 PCOD8269728
Probable space group: C M M M
;
_chemical_formula_sum "Si O2"
_cell_formula_units_Z 88
_cell_length_a 7.957661
_cell_length_b 27.510402
_cell_length_c 23.152815
_cell_angle_alpha 90.000000
_cell_angle_beta 90.000000
_cell_angle_gamma 90.000000
_cell_volume 5068.578444
_symmetry_space_group_name_H-M "C M M M"
_symmetry_group_IT_number 65
_symmetry_cell_setting 'orthorhombic'
loop_
_space_group_symop_operation_xyz
x,y,z
-x,-y,z
x,-y,-z
-x,y,-z
-x,-y,-z
x,y,-z
-x,y,z
x,-y,z
1/2+x,1/2+y,z
1/2-x,1/2-y,z
1/2+x,1/2-y,-z
1/2-x,1/2+y,-z
1/2-x,1/2-y,-z
1/2+x,1/2+y,-z
1/2-x,1/2+y,z
1/2+x,1/2-y,z
loop_
_atom_site_type_symbol
_atom_site_label
_atom_site_fract_x
_atom_site_fract_y
_atom_site_fract_z
Si Si1 0.803010 0.696748 0.324895
Si Si2 0.196519 0.398754 0.734739
Si Si3 0.807128 0.945850 0.622426
Si Si4 0.193385 0.352602 0.437047
Si Si5 0.500000 0.442486 0.935676
Si Si6 0.692877 0.942974 0.856494
O O1 0.750000 0.750000 0.304459
O O2 0.747105 0.657339 0.276698
O O3 0.722945 0.681862 0.387523
O O4 0.000000 0.694780 0.332176
O O5 0.291190 0.433766 0.690324
O O6 0.243537 0.413234 0.799544
O O7 0.000000 0.405548 0.723312
O O8 0.705084 0.908577 0.582698
O O9 0.000000 0.942587 0.604191
O O10 0.736548 0.000000 0.611470
O O11 0.280961 0.344770 0.500000
O O12 0.000000 0.339202 0.443458
O O13 0.500000 0.500000 0.939336
O O14 0.327470 0.425581 0.904391
O O15 0.500000 0.419790 0.000000
O O16 0.500000 0.931382 0.876136
O O17 0.711408 0.000000 0.843224
#
# Coordination Sequence:
#
# PCOD8269728 Si02
#       6
#    16  16  16  16   8  16
#     4   9  18  32  48  67  90 114 142 185 240 287
#     4   9  18  32  48  66  91 122 154 192 228 277
#     4  10  20  30  43  66  92 116 144 185 236 279
#     4   9  19  35  50  62  81 114 154 188 223 277
#     4   9  18  30  44  68 104 140 171 203 231 265
#     4   9  17  29  47  70  97 134 171 201 235 274
#
# _framework density 17.361871000000001
#
# number of rings (size 3 to 8) (size 9 to 14) (size 15 to 20)
#    0.000    2.818    0.000    2.182    1.273    6.545 
#    0.000    3.636    0.000    0.000    0.000    0.000 
#    0.000    0.727    0.364    0.000    0.000    0.000 
#
# Total GULP energy -545288.371416 kJ/mol
# GULP energy per Si atom -12392.917532 kJ/mol
# Density = 1.732235 g / cm^3
# Si number density = 17.361871 Si / 1000 Ang^3
#
#
#
# Elastic Constant Matrix: (Units=GPa)
#
#
# Indices 1 2 3 4 5 6 
#
# 1 46.8758 8.7814 38.9171 0.0000 0.0000 0.0000
# 2 8.7814 79.1424 31.7725 0.0000 0.0000 0.0000
# 3 38.9171 31.7725 121.3306 0.0000 0.0000 0.0000
# 4 0.0000 0.0000 0.0000 -11.7998 0.0000 0.0000
# 5 0.0000 0.0000 0.0000 0.0000 19.3260 0.0000
# 6 0.0000 0.0000 0.0000 0.0000 0.0000 19.9038
#
#
#
# Elastic Compliance Matrix: (Units=1/GPa)
#
#
# Indices 1 2 3 4 5 6 
#
# 1 0.029099 0.000579 -0.009485 0.000000 0.000000 0.000000
# 2 0.000579 0.014131 -0.003886 0.000000 0.000000 0.000000
# 3 -0.009485 -0.003886 0.012302 0.000000 0.000000 0.000000
# 4 0.000000 0.000000 0.000000 -0.084747 0.000000 0.000000
# 5 0.000000 0.000000 0.000000 0.000000 0.051744 0.000000
# 6 0.000000 0.000000 0.000000 0.000000 0.000000 0.050242
#
#
# Mechanical properties :
#
#
# Convention : Reuss Voigt Hill
#
# Bulk Modulus (GPa) = 33.39130 45.14339 39.26735
# Shear Modulus (GPa) = 46.15141 16.67785 31.41463
#
# Velocity S-wave (km/s) = 5.16137 3.10272 4.25832
# Velocity P-wave (km/s) = 7.40230 6.23648 6.84426
#
# Compressibility (1/GPa) = 0.02994792
#
# Stress axis : x y z
#
# Youngs Moduli (GPa) = 34.36499 70.76450 81.28694
#
# Poissons Ratio (x) = -0.04099 0.77104
# Poissons Ratio (y) = -0.01991 0.31591
# Poissons Ratio (z) = 0.32596 0.27501
#
# Static dielectric constant tensor:
#      x y z
#    x 3.177940 0.000000 0.000000 
#    y 0.000000 4.778780 0.000000 
#    z 0.000000 0.000000 3.301580 
# 
# 
# High freq. dielectric constant tensor:
#      x y z
#    x 1.668590 0.000000 0.000000 
#    y 0.000000 1.645890 0.000000 
#    z 0.000000 0.000000 1.649970 
# 
# From -- ./inp_files/59784.got.cif
#   From: 2010.03.12/outbox.cif.g09.slc.cpg/sg65_30_cif.got.tgz:59784.got - 2010.04.10 20:52:16.
