data_PCOD8269808
_publ_section_title
;
Structure prediction by ZEFSAII (Michael W. Deem and Ramdas Pophale) SiO2 
 PCOD8269808
Probable space group: C M M M
;
_chemical_formula_sum "Si O2"
_cell_formula_units_Z 104
_cell_length_a 9.199540
_cell_length_b 27.039500
_cell_length_c 24.244839
_cell_angle_alpha 90.000000
_cell_angle_beta 90.000000
_cell_angle_gamma 90.000000
_cell_volume 6030.927021
_symmetry_space_group_name_H-M "C M M M"
_symmetry_group_IT_number 65
_symmetry_cell_setting 'orthorhombic'
loop_
_space_group_symop_operation_xyz
x,y,z
-x,-y,z
x,-y,-z
-x,y,-z
-x,-y,-z
x,y,-z
-x,y,z
x,-y,z
1/2+x,1/2+y,z
1/2-x,1/2-y,z
1/2+x,1/2-y,-z
1/2-x,1/2+y,-z
1/2-x,1/2-y,-z
1/2+x,1/2+y,-z
1/2-x,1/2+y,z
1/2+x,1/2-y,z
loop_
_atom_site_type_symbol
_atom_site_label
_atom_site_fract_x
_atom_site_fract_y
_atom_site_fract_z
Si Si1 0.667035 0.056840 0.267388
Si Si2 0.169999 0.608039 0.564284
Si Si3 0.170694 0.863659 0.336271
Si Si4 0.672207 0.555405 0.939626
Si Si5 0.667719 0.700285 0.766255
Si Si6 0.828679 0.500000 0.559895
Si Si7 0.828266 0.102796 0.828860
O O1 0.500000 0.074807 0.265164
O O2 0.754383 0.087758 0.312208
O O3 0.740945 0.063493 0.207791
O O4 0.675613 0.000000 0.285594
O O5 0.212369 0.615016 0.500000
O O6 0.261147 0.645920 0.602776
O O7 0.213306 0.552649 0.587188
O O8 0.000000 0.618475 0.572500
O O9 0.204435 0.817524 0.296005
O O10 0.000000 0.872988 0.340924
O O11 0.500000 0.553629 0.940962
O O12 0.730854 0.500000 0.926942
O O13 0.721843 0.593674 0.892083
O O14 0.730132 0.573039 0.000000
O O15 0.500000 0.712502 0.772150
O O16 0.750000 0.750000 0.781123
O O17 0.713944 0.658238 0.810277
O O18 0.754306 0.500000 0.500000
O O19 0.000000 0.500000 0.552066
O O20 0.000000 0.093695 0.820006
#
# Coordination Sequence:
#
# PCOD8269808 Si02
#       7
#    16  16  16  16  16   8  16
#     4  10  20  31  44  65  94 128 162 193 230 281
#     4   9  17  30  48  69  95 128 161 190 224 272
#     4  10  21  34  48  70  96 120 152 195 242 286
#     4   8  13  22  41  71 103 134 165 193 224 268
#     4   9  19  34  51  70  90 116 152 197 250 298
#     4   7  12  24  41  61  87 121 157 185 206 241
#     4   9  17  30  48  71  97 123 157 201 244 280
#
# _framework density 17.244446
#
# number of rings (size 3 to 8) (size 9 to 14) (size 15 to 20)
#    0.000    3.000    0.000    3.692    1.077    5.231 
#    0.000    0.000    0.000    2.769    0.000    2.154 
#    0.000    0.000    0.000    0.000    0.000    0.308 
#
# Total GULP energy -644267.060938 kJ/mol
# GULP energy per Si atom -12389.751172 kJ/mol
# Density = 1.720520 g / cm^3
# Si number density = 17.244446 Si / 1000 Ang^3
#
#
#
# Elastic Constant Matrix: (Units=GPa)
#
#
# Indices 1 2 3 4 5 6 
#
# 1 54.6054 29.9690 36.6233 0.0000 0.0000 0.0000
# 2 29.9690 73.1319 40.8796 0.0000 0.0000 0.0000
# 3 36.6233 40.8796 120.8288 0.0000 0.0000 0.0000
# 4 0.0000 0.0000 0.0000 15.1129 0.0000 0.0000
# 5 0.0000 0.0000 0.0000 0.0000 12.9476 0.0000
# 6 0.0000 0.0000 0.0000 0.0000 0.0000 24.5925
#
#
#
# Elastic Compliance Matrix: (Units=1/GPa)
#
#
# Indices 1 2 3 4 5 6 
#
# 1 0.026114 -0.007741 -0.005296 0.000000 0.000000 0.000000
# 2 -0.007741 0.019158 -0.004135 0.000000 0.000000 0.000000
# 3 -0.005296 -0.004135 0.011281 0.000000 0.000000 0.000000
# 4 0.000000 0.000000 0.000000 0.066169 0.000000 0.000000
# 5 0.000000 0.000000 0.000000 0.000000 0.077234 0.000000
# 6 0.000000 0.000000 0.000000 0.000000 0.000000 0.040663
#
#
# Mechanical properties :
#
#
# Convention : Reuss Voigt Hill
#
# Bulk Modulus (GPa) = 45.03011 51.50109 48.26560
# Shear Modulus (GPa) = 17.70762 19.93688 18.82225
#
# Velocity S-wave (km/s) = 3.20794 3.40388 3.30736
# Velocity P-wave (km/s) = 6.31591 6.73637 6.52953
#
# Compressibility (1/GPa) = 0.02220736
#
# Stress axis : x y z
#
# Youngs Moduli (GPa) = 38.29423 52.19862 88.64833
#
# Poissons Ratio (x) = 0.40405 0.46950
# Poissons Ratio (y) = 0.29642 0.36659
# Poissons Ratio (z) = 0.20281 0.21586
#
# Static dielectric constant tensor:
#      x y z
#    x 3.034270 0.000000 0.000000 
#    y 0.000000 2.995320 0.000000 
#    z 0.000000 0.000000 3.563570 
# 
# 
# High freq. dielectric constant tensor:
#      x y z
#    x 1.644510 0.000000 0.000000 
#    y 0.000000 1.634300 0.000000 
#    z 0.000000 0.000000 1.670250 
# 
# From -- ./inp_files/68249.got.cif
#   From: 2010.03.12/outbox.cif.g09.slc.cpg/sg65_35_cif.got.tgz:68249.got - 2010.04.10 20:52:16.
