data_PCOD8269277
_publ_section_title
;
Structure prediction by ZEFSAII (Michael W. Deem and Ramdas Pophale) SiO2 
 PCOD8269277
Probable space group: C M M M
;
_chemical_formula_sum "Si O2"
_cell_formula_units_Z 104
_cell_length_a 9.780960
_cell_length_b 21.674454
_cell_length_c 28.265336
_cell_angle_alpha 90.000000
_cell_angle_beta 90.000000
_cell_angle_gamma 90.000000
_cell_volume 5992.165520
_symmetry_space_group_name_H-M "C M M M"
_symmetry_group_IT_number 65
_symmetry_cell_setting 'orthorhombic'
loop_
_space_group_symop_operation_xyz
x,y,z
-x,-y,z
x,-y,-z
-x,y,-z
-x,-y,-z
x,y,-z
-x,y,z
x,-y,z
1/2+x,1/2+y,z
1/2-x,1/2-y,z
1/2+x,1/2-y,-z
1/2-x,1/2+y,-z
1/2-x,1/2-y,-z
1/2+x,1/2+y,-z
1/2-x,1/2+y,z
1/2+x,1/2-y,z
loop_
_atom_site_type_symbol
_atom_site_label
_atom_site_fract_x
_atom_site_fract_y
_atom_site_fract_z
Si Si1 0.250000 0.750000 0.131038
Si Si2 0.842581 0.869356 0.818440
Si Si3 0.852275 0.332555 0.948454
Si Si4 0.155279 0.426754 0.364604
Si Si5 0.159302 0.072373 0.723331
Si Si6 0.660599 0.430218 0.911764
Si Si7 0.153190 0.926610 0.552935
O O1 0.178470 0.798393 0.166276
O O2 0.147820 0.715996 0.094848
O O3 0.780406 0.888095 0.767666
O O4 0.784982 0.914841 0.858974
O O5 0.000000 0.883799 0.812605
O O6 0.735704 0.384390 0.947250
O O7 0.000000 0.365387 0.945274
O O8 0.837036 0.299462 0.000000
O O9 0.148923 0.500000 0.367207
O O10 0.244789 0.406143 0.319660
O O11 0.233498 0.400009 0.410863
O O12 0.000000 0.400095 0.362074
O O13 0.000000 0.086998 0.711470
O O14 0.176522 0.000000 0.734496
O O15 0.500000 0.417074 0.916088
O O16 0.697043 0.500000 0.924995
O O17 0.191495 0.904259 0.500000
O O18 0.000000 0.903422 0.566430
O O19 0.153811 0.000000 0.555268
#
# Coordination Sequence:
#
# PCOD8269277 Si02
#       7
#     8  16  16  16  16  16  16
#     4  10  19  34  52  70  92 116 147 186 226 268
#     4   9  17  30  49  69  87 112 147 185 223 265
#     4  10  21  35  51  72  97 124 151 181 221 268
#     4   9  16  24  34  52  80 111 143 180 220 261
#     4   9  16  27  44  63  83 110 144 180 219 263
#     4   9  18  33  52  73  96 121 151 186 222 263
#     4   8  13  21  33  49  71 104 147 188 221 255
#
# _framework density 17.355995
#
# number of rings (size 3 to 8) (size 9 to 14) (size 15 to 20)
#    0.000    2.923    0.000    2.077    0.000    5.538 
#    0.000    6.923    0.000    3.692    0.000    0.000 
#    0.000    0.000    0.000    0.692    0.000    6.923 
#
# Total GULP energy -644213.258224 kJ/mol
# GULP energy per Si atom -12388.716504 kJ/mol
# Density = 1.731649 g / cm^3
# Si number density = 17.355995 Si / 1000 Ang^3
#
#
#
# Elastic Constant Matrix: (Units=GPa)
#
#
# Indices 1 2 3 4 5 6 
#
# 1 93.4437 26.4900 61.3872 0.0000 0.0000 0.0000
# 2 26.4900 56.9525 30.5506 0.0000 0.0000 0.0000
# 3 61.3872 30.5506 136.3214 0.0000 0.0000 0.0000
# 4 0.0000 0.0000 0.0000 13.5271 0.0000 0.0000
# 5 0.0000 0.0000 0.0000 0.0000 5.0544 0.0000
# 6 0.0000 0.0000 0.0000 0.0000 0.0000 15.9409
#
#
#
# Elastic Compliance Matrix: (Units=1/GPa)
#
#
# Indices 1 2 3 4 5 6 
#
# 1 0.015983 -0.004062 -0.006287 0.000000 0.000000 0.000000
# 2 -0.004062 0.020990 -0.002875 0.000000 0.000000 0.000000
# 3 -0.006287 -0.002875 0.010811 0.000000 0.000000 0.000000
# 4 0.000000 0.000000 0.000000 0.073926 0.000000 0.000000
# 5 0.000000 0.000000 0.000000 0.000000 0.197848 0.000000
# 6 0.000000 0.000000 0.000000 0.000000 0.000000 0.062732
#
#
# Mechanical properties :
#
#
# Convention : Reuss Voigt Hill
#
# Bulk Modulus (GPa) = 46.86774 58.17481 52.52127
# Shear Modulus (GPa) = 12.02358 18.12381 15.07369
#
# Velocity S-wave (km/s) = 2.63489 3.23497 2.95023
# Velocity P-wave (km/s) = 6.02655 6.89527 6.47549
#
# Compressibility (1/GPa) = 0.02133664
#
# Stress axis : x y z
#
# Youngs Moduli (GPa) = 62.56473 47.64209 92.49705
#
# Poissons Ratio (x) = 0.19350 0.58156
# Poissons Ratio (y) = 0.25411 0.26593
# Poissons Ratio (z) = 0.39336 0.13697
#
# Static dielectric constant tensor:
#      x y z
#    x 3.299760 0.000000 0.000000 
#    y 0.000000 2.808580 0.000000 
#    z 0.000000 0.000000 3.482760 
# 
# 
# High freq. dielectric constant tensor:
#      x y z
#    x 1.665070 0.000000 0.000000 
#    y 0.000000 1.613220 0.000000 
#    z 0.000000 0.000000 1.679220 
# 
# From -- ./inp_files/77044.got.cif
#   From: 2010.03.12/outbox.cif.g09.slc.cpg/sg65_39_cif.got.tgz:77044.got - 2010.04.10 20:52:16.
