data_PCOD8269990
_publ_section_title
;
Structure prediction by ZEFSAII (Michael W. Deem and Ramdas Pophale) SiO2 
 PCOD8269990
Probable space group: C M M M
;
_chemical_formula_sum "Si O2"
_cell_formula_units_Z 80
_cell_length_a 28.569306
_cell_length_b 13.510125
_cell_length_c 11.887111
_cell_angle_alpha 90.000000
_cell_angle_beta 90.000000
_cell_angle_gamma 90.000000
_cell_volume 4588.126423
_symmetry_space_group_name_H-M "C M M M"
_symmetry_group_IT_number 65
_symmetry_cell_setting 'orthorhombic'
loop_
_space_group_symop_operation_xyz
x,y,z
-x,-y,z
x,-y,-z
-x,y,-z
-x,-y,-z
x,y,-z
-x,y,z
x,-y,z
1/2+x,1/2+y,z
1/2-x,1/2-y,z
1/2+x,1/2-y,-z
1/2-x,1/2+y,-z
1/2-x,1/2-y,-z
1/2+x,1/2+y,-z
1/2-x,1/2+y,z
1/2+x,1/2-y,z
loop_
_atom_site_type_symbol
_atom_site_label
_atom_site_fract_x
_atom_site_fract_y
_atom_site_fract_z
Si Si1 0.807553 0.615926 0.269638
Si Si2 0.759332 0.614903 0.500000
Si Si3 0.946420 0.113535 0.869471
Si Si4 0.345249 0.381027 0.500000
Si Si5 0.279999 0.617014 0.125640
Si Si6 0.365068 0.702316 0.735633
O O1 0.819920 0.500000 0.259689
O O2 0.787415 0.646294 0.390376
O O3 0.769790 0.651945 0.176787
O O4 0.854750 0.679912 0.256433
O O5 0.749792 0.500000 0.500000
O O6 0.707767 0.663108 0.500000
O O7 0.913910 0.185601 0.797930
O O8 0.000000 0.138588 0.840469
O O9 0.935061 0.000000 0.838831
O O10 0.936141 0.132173 0.000000
O O11 0.347802 0.500000 0.500000
O O12 0.371127 0.337973 0.390648
O O13 0.279116 0.500000 0.121508
O O14 0.322783 0.645188 0.204825
O O15 0.285702 0.661367 0.000000
#
# Coordination Sequence:
#
# PCOD8269990 Si02
#       6
#    16   8  16   8  16  16
#     4  10  21  34  47  69 102 139 176 211 242 283
#     4   9  17  33  49  64 100 143 175 205 239 283
#     4   9  19  37  59  80 101 126 161 208 260 315
#     4  11  21  31  49  79 108 133 168 211 252 299
#     4  10  20  32  46  69 101 132 165 207 253 301
#     4  12  21  31  53  75  99 135 172 206 250 303
#
# _framework density 17.436312000000001
#
# number of rings (size 3 to 8) (size 9 to 14) (size 15 to 20)
#    0.000    1.800    2.000    4.200    0.000    4.800 
#    0.000    0.500    0.000    2.400    0.000    1.400 
#    0.000    4.000    0.000    0.000    0.000    0.000 
#
# Total GULP energy -496025.313929 kJ/mol
# GULP energy per Si atom -12400.632848 kJ/mol
# Density = 1.739663 g / cm^3
# Si number density = 17.436312 Si / 1000 Ang^3
#
#
#
# Elastic Constant Matrix: (Units=GPa)
#
#
# Indices 1 2 3 4 5 6 
#
# 1 96.0818 51.2721 47.4898 0.0000 0.0000 0.0000
# 2 51.2721 64.6778 40.4821 0.0000 0.0000 0.0000
# 3 47.4898 40.4821 118.5066 0.0000 0.0000 0.0000
# 4 0.0000 0.0000 0.0000 17.1392 0.0000 0.0000
# 5 0.0000 0.0000 0.0000 0.0000 28.6088 0.0000
# 6 0.0000 0.0000 0.0000 0.0000 0.0000 27.5972
#
#
#
# Elastic Compliance Matrix: (Units=1/GPa)
#
#
# Indices 1 2 3 4 5 6 
#
# 1 0.018907 -0.013032 -0.003125 0.000000 0.000000 0.000000
# 2 -0.013032 0.028649 -0.004564 0.000000 0.000000 0.000000
# 3 -0.003125 -0.004564 0.011250 0.000000 0.000000 0.000000
# 4 0.000000 0.000000 0.000000 0.058346 0.000000 0.000000
# 5 0.000000 0.000000 0.000000 0.000000 0.034954 0.000000
# 6 0.000000 0.000000 0.000000 0.000000 0.000000 0.036236
#
#
# Mechanical properties :
#
#
# Convention : Reuss Voigt Hill
#
# Bulk Modulus (GPa) = 57.59282 61.97270 59.78276
# Shear Modulus (GPa) = 21.22509 24.00384 22.61447
#
# Velocity S-wave (km/s) = 3.49276 3.71436 3.60526
# Velocity P-wave (km/s) = 7.02623 7.34947 7.18967
#
# Compressibility (1/GPa) = 0.01736328
#
# Stress axis : x y z
#
# Youngs Moduli (GPa) = 52.89178 34.90540 88.89156
#
# Poissons Ratio (x) = 0.45489 0.27776
# Poissons Ratio (y) = 0.68929 0.40571
# Poissons Ratio (z) = 0.16527 0.15931
#
# Static dielectric constant tensor:
#      x y z
#    x 2.934620 0.000000 0.000000 
#    y 0.000000 3.229870 0.000000 
#    z 0.000000 0.000000 3.432120 
# 
# 
# High freq. dielectric constant tensor:
#      x y z
#    x 1.632150 0.000000 0.000000 
#    y 0.000000 1.674890 0.000000 
#    z 0.000000 0.000000 1.689110 
# 
# From -- ./inp_files/24661.got.cif
#   From: 2010.03.12/outbox.cif.g09.slc.cpg/sg65_13_cif.got.tgz:24661.got - 2010.04.10 20:52:16.
