data_PCOD8269027
_publ_section_title
;
Structure prediction by ZEFSAII (Michael W. Deem and Ramdas Pophale) SiO2 
 PCOD8269027
Probable space group: C M M M
;
_chemical_formula_sum "Si O2"
_cell_formula_units_Z 80
_cell_length_a 23.453645
_cell_length_b 20.499765
_cell_length_c 9.531460
_cell_angle_alpha 90.000000
_cell_angle_beta 90.000000
_cell_angle_gamma 90.000000
_cell_volume 4582.670789
_symmetry_space_group_name_H-M "C M M M"
_symmetry_group_IT_number 65
_symmetry_cell_setting 'orthorhombic'
loop_
_space_group_symop_operation_xyz
x,y,z
-x,-y,z
x,-y,-z
-x,y,-z
-x,-y,-z
x,y,-z
-x,y,z
x,-y,z
1/2+x,1/2+y,z
1/2-x,1/2-y,z
1/2+x,1/2-y,-z
1/2-x,1/2+y,-z
1/2-x,1/2-y,-z
1/2+x,1/2+y,-z
1/2-x,1/2+y,z
1/2+x,1/2-y,z
loop_
_atom_site_type_symbol
_atom_site_label
_atom_site_fract_x
_atom_site_fract_y
_atom_site_fract_z
Si Si1 0.500000 0.927207 0.263664
Si Si2 0.795221 0.192733 0.337637
Si Si3 0.607993 0.246903 0.838927
Si Si4 0.275929 0.071346 0.658426
Si Si5 0.877365 0.598200 0.152716
Si Si6 0.500000 0.216722 0.657567
O O1 0.556776 0.921799 0.170659
O O2 0.500000 0.862690 0.361560
O O3 0.500000 0.000000 0.337556
O O4 0.815574 0.187503 0.500000
O O5 0.750000 0.250000 0.320555
O O6 0.848190 0.203942 0.234825
O O7 0.767101 0.125440 0.281793
O O8 0.633897 0.175024 0.838514
O O9 0.552321 0.245544 0.743566
O O10 0.595156 0.269110 0.000000
O O11 0.291061 0.091403 0.500000
O O12 0.336586 0.065504 0.734563
O O13 0.246431 0.000000 0.666925
O O14 0.859034 0.572707 0.000000
O O15 0.500000 0.245255 0.500000
#
# Coordination Sequence:
#
# PCOD8269027 Si02
#       6
#     8  16  16  16  16   8
#     4  10  21  33  45  67  97 134 177 219 257 296
#     4  10  19  33  54  76 100 134 175 212 252 305
#     4  10  20  34  53  77 103 131 169 215 258 298
#     4  10  21  35  50  72 103 134 167 212 260 303
#     4  10  20  33  49  68  95 133 176 218 257 299
#     4  10  21  36  54  74 101 133 169 212 257 304
#
# _framework density 17.457068
#
# number of rings (size 3 to 8) (size 9 to 14) (size 15 to 20)
#    0.000    2.000    2.000    1.800    0.000    9.000 
#    0.000    0.000    0.000    0.000    0.000    0.700 
#    0.000    5.600    0.000    0.000    0.000    0.000 
#
# Total GULP energy -495694.872818 kJ/mol
# GULP energy per Si atom -12392.371820 kJ/mol
# Density = 1.741734 g / cm^3
# Si number density = 17.457068 Si / 1000 Ang^3
#
#
#
# Elastic Constant Matrix: (Units=GPa)
#
#
# Indices 1 2 3 4 5 6 
#
# 1 103.0551 57.2722 62.5875 0.0000 0.0000 0.0000
# 2 57.2722 93.3632 34.7812 0.0000 0.0000 0.0000
# 3 62.5875 34.7812 118.0790 0.0000 0.0000 0.0000
# 4 0.0000 0.0000 0.0000 8.3423 0.0000 0.0000
# 5 0.0000 0.0000 0.0000 0.0000 340.7796 0.0000
# 6 0.0000 0.0000 0.0000 0.0000 0.0000 15.1917
#
#
#
# Elastic Compliance Matrix: (Units=1/GPa)
#
#
# Indices 1 2 3 4 5 6 
#
# 1 0.019329 -0.009032 -0.007585 0.000000 0.000000 0.000000
# 2 -0.009032 0.016251 0.000000 0.000000 0.000000 0.000000
# 3 -0.007585 0.000000 0.012489 0.000000 0.000000 0.000000
# 4 0.000000 0.000000 0.000000 0.119870 0.000000 0.000000
# 5 0.000000 0.000000 0.000000 0.000000 0.002934 0.000000
# 6 0.000000 0.000000 0.000000 0.000000 0.000000 0.065825
#
#
# Mechanical properties :
#
#
# Convention : Reuss Voigt Hill
#
# Bulk Modulus (GPa) = 67.39985 69.30880 68.35433
# Shear Modulus (GPa) = 18.18984 83.51982 50.85483
#
# Velocity S-wave (km/s) = 3.23147 6.92437 5.40320
# Velocity P-wave (km/s) = 7.25368 10.18419 8.84120
#
# Compressibility (1/GPa) = 0.01483683
#
# Stress axis : x y z
#
# Youngs Moduli (GPa) = 51.73453 61.53455 80.06825
#
# Poissons Ratio (x) = 0.55575 0.60733
# Poissons Ratio (y) = 0.46724 -0.00002
# Poissons Ratio (z) = 0.39242 -0.00002
#
# Static dielectric constant tensor:
#      x y z
#    x 3.088450 0.000000 0.000000 
#    y 0.000000 3.270440 0.000000 
#    z 0.000000 0.000000 3.271860 
# 
# 
# High freq. dielectric constant tensor:
#      x y z
#    x 1.657640 0.000000 0.000000 
#    y 0.000000 1.657040 0.000000 
#    z 0.000000 0.000000 1.678010 
# 
# From -- ./inp_files/13874.got.cif
#   From: 2010.03.12/outbox.cif.g09.slc.cpg/sg65_7_cif.got.tgz:13874.got - 2010.04.10 20:52:16.
