data_PCOD8269835
_publ_section_title
;
Structure prediction by ZEFSAII (Michael W. Deem and Ramdas Pophale) SiO2 
 PCOD8269835
Probable space group: C M M M
;
_chemical_formula_sum "Si O2"
_cell_formula_units_Z 88
_cell_length_a 28.475478
_cell_length_b 9.799060
_cell_length_c 20.443833
_cell_angle_alpha 90.000000
_cell_angle_beta 90.000000
_cell_angle_gamma 90.000000
_cell_volume 5704.502366
_symmetry_space_group_name_H-M "C M M M"
_symmetry_group_IT_number 65
_symmetry_cell_setting 'orthorhombic'
loop_
_space_group_symop_operation_xyz
x,y,z
-x,-y,z
x,-y,-z
-x,y,-z
-x,-y,-z
x,y,-z
-x,y,z
x,-y,z
1/2+x,1/2+y,z
1/2-x,1/2-y,z
1/2+x,1/2-y,-z
1/2-x,1/2+y,-z
1/2-x,1/2-y,-z
1/2+x,1/2+y,-z
1/2-x,1/2+y,z
1/2+x,1/2-y,z
loop_
_atom_site_type_symbol
_atom_site_label
_atom_site_fract_x
_atom_site_fract_y
_atom_site_fract_z
Si Si1 0.445038 0.842775 0.687374
Si Si2 0.792310 0.651072 0.000000
Si Si3 0.605097 0.840263 0.819545
Si Si4 0.204958 0.344622 0.142389
Si Si5 0.554717 0.656832 0.924894
Si Si6 0.444208 0.346843 0.572398
O O1 0.500000 0.815837 0.697907
O O2 0.419057 0.793135 0.752557
O O3 0.424293 0.756652 0.626645
O O4 0.434487 0.000000 0.671955
O O5 0.750000 0.750000 0.000000
O O6 0.818436 0.675372 0.069213
O O7 0.770987 0.500000 0.000000
O O8 0.660974 0.810608 0.810889
O O9 0.584275 0.755191 0.879031
O O10 0.595849 0.000000 0.833677
O O11 0.222206 0.500000 0.152447
O O12 0.250000 0.250000 0.156589
O O13 0.500000 0.684959 0.912900
O O14 0.566892 0.500000 0.908316
O O15 0.567976 0.688798 0.000000
O O16 0.425726 0.304978 0.500000
O O17 0.500000 0.340183 0.572307
O O18 0.427369 0.500000 0.589476
#
# Coordination Sequence:
#
# PCOD8269835 Si02
#       6
#    16   8  16  16  16  16
#     4   9  17  28  41  61  90 119 146 175 208 249
#     4   8  14  26  42  58  75  96 125 165 214 261
#     4  10  20  31  46  66  88 114 146 183 221 264
#     4   9  18  31  46  63  84 108 138 179 224 270
#     4   9  19  34  47  61  84 113 147 186 223 259
#     4   8  14  25  41  61  85 114 147 178 206 240
#
# _framework density 15.426410000000001
#
# number of rings (size 3 to 8) (size 9 to 14) (size 15 to 20)
#    0.000    3.091    0.000    1.636    1.273    3.273 
#    0.000    4.545    0.000    0.000    0.000    0.000 
#    0.000    0.727    0.000    1.636    0.000    2.909 
#
# Total GULP energy -545169.888285 kJ/mol
# GULP energy per Si atom -12390.224734 kJ/mol
# Density = 1.539130 g / cm^3
# Si number density = 15.426410 Si / 1000 Ang^3
#
#
#
# Elastic Constant Matrix: (Units=GPa)
#
#
# Indices 1 2 3 4 5 6 
#
# 1 56.1085 39.7877 46.1817 0.0000 0.0000 0.0000
# 2 39.7877 76.8536 62.8696 0.0000 0.0000 0.0000
# 3 46.1817 62.8696 102.8279 0.0000 0.0000 0.0000
# 4 0.0000 0.0000 0.0000 27.5148 0.0000 0.0000
# 5 0.0000 0.0000 0.0000 0.0000 5.3163 0.0000
# 6 0.0000 0.0000 0.0000 0.0000 0.0000 19.3919
#
#
#
# Elastic Compliance Matrix: (Units=1/GPa)
#
#
# Indices 1 2 3 4 5 6 
#
# 1 0.031354 -0.009429 -0.008317 0.000000 0.000000 0.000000
# 2 -0.009429 0.028867 -0.013415 0.000000 0.000000 0.000000
# 3 -0.008317 -0.013415 0.021662 0.000000 0.000000 0.000000
# 4 0.000000 0.000000 0.000000 0.036344 0.000000 0.000000
# 5 0.000000 0.000000 0.000000 0.000000 0.188102 0.000000
# 6 0.000000 0.000000 0.000000 0.000000 0.000000 0.051568
#
#
# Mechanical properties :
#
#
# Convention : Reuss Voigt Hill
#
# Bulk Modulus (GPa) = 51.11848 59.27421 55.19635
# Shear Modulus (GPa) = 11.71676 16.24133 13.97905
#
# Velocity S-wave (km/s) = 2.75894 3.24825 3.01354
# Velocity P-wave (km/s) = 6.58467 7.25089 6.92580
#
# Compressibility (1/GPa) = 0.01956240
#
# Stress axis : x y z
#
# Youngs Moduli (GPa) = 31.89369 34.64165 46.16340
#
# Poissons Ratio (x) = 0.32663 0.38394
# Poissons Ratio (y) = 0.30072 0.61928
# Poissons Ratio (z) = 0.26526 0.46471
#
# Static dielectric constant tensor:
#      x y z
#    x 2.567840 0.000000 0.000000 
#    y 0.000000 3.038120 0.000000 
#    z 0.000000 0.000000 2.787000 
# 
# 
# High freq. dielectric constant tensor:
#      x y z
#    x 1.552800 0.000000 0.000000 
#    y 0.000000 1.598550 0.000000 
#    z 0.000000 0.000000 1.582120 
# 
# From -- ./inp_files/60671.got.cif
#   From: 2010.03.12/outbox.cif.g09.slc.cpg/sg65_31_cif.got.tgz:60671.got - 2010.04.10 20:52:16.
