data_PCOD8269095
_publ_section_title
;
Structure prediction by ZEFSAII (Michael W. Deem and Ramdas Pophale) SiO2 
 PCOD8269095
Probable space group: C M M M
;
_chemical_formula_sum "Si O2"
_cell_formula_units_Z 88
_cell_length_a 14.805082
_cell_length_b 22.062639
_cell_length_c 13.648560
_cell_angle_alpha 90.000000
_cell_angle_beta 90.000000
_cell_angle_gamma 90.000000
_cell_volume 4458.154440
_symmetry_space_group_name_H-M "C M M M"
_symmetry_group_IT_number 65
_symmetry_cell_setting 'orthorhombic'
loop_
_space_group_symop_operation_xyz
x,y,z
-x,-y,z
x,-y,-z
-x,y,-z
-x,-y,-z
x,y,-z
-x,y,z
x,-y,z
1/2+x,1/2+y,z
1/2-x,1/2-y,z
1/2+x,1/2-y,-z
1/2-x,1/2+y,-z
1/2-x,1/2-y,-z
1/2+x,1/2+y,-z
1/2-x,1/2+y,z
1/2+x,1/2-y,z
loop_
_atom_site_type_symbol
_atom_site_label
_atom_site_fract_x
_atom_site_fract_y
_atom_site_fract_z
Si Si1 0.645309 0.243774 0.889151
Si Si2 0.096323 0.657208 0.279187
Si Si3 0.351334 0.268655 0.388689
Si Si4 0.278441 0.928815 0.809022
Si Si5 0.600315 0.642139 0.217096
Si Si6 0.395240 0.071480 0.000000
O O1 0.750000 0.250000 0.862090
O O2 0.601597 0.192990 0.822797
O O3 0.599523 0.308491 0.869429
O O4 0.628839 0.223095 0.000000
O O5 0.096226 0.706222 0.366677
O O6 0.174487 0.606090 0.282758
O O7 0.000000 0.623095 0.283296
O O8 0.369047 0.288960 0.500000
O O9 0.250000 0.250000 0.366064
O O10 0.379145 0.324695 0.320359
O O11 0.173603 0.909005 0.811348
O O12 0.335372 0.908729 0.905497
O O13 0.282438 0.000000 0.790718
O O14 0.500000 0.612494 0.222673
O O15 0.500000 0.096931 0.000000
O O16 0.402667 0.000000 0.000000
#
# Coordination Sequence:
#
# PCOD8269095 Si02
#       6
#    16  16  16  16  16   8
#     4  10  19  33  54  79 112 147 179 229 289 343
#     4  11  21  34  56  85 113 144 185 232 294 356
#     4  10  19  37  64  90 118 149 185 240 303 359
#     4  11  23  40  56  79 117 156 201 250 280 329
#     4  11  22  37  58  85 116 153 195 237 292 352
#     4   9  20  38  59  80 105 151 207 247 284 327
#
# _framework density 19.73911
#
# number of rings (size 3 to 8) (size 9 to 14) (size 15 to 20)
#    0.000    1.545    3.636    3.818    2.545    4.364 
#    0.000    0.000    0.000    3.818    0.000    2.545 
#    0.000    0.000    0.000    0.000    0.000    0.000 
#
# Total GULP energy -545291.150417 kJ/mol
# GULP energy per Si atom -12392.980691 kJ/mol
# Density = 1.969418 g / cm^3
# Si number density = 19.739110 Si / 1000 Ang^3
#
#
#
# Elastic Constant Matrix: (Units=GPa)
#
#
# Indices 1 2 3 4 5 6 
#
# 1 167.2163 29.4648 24.1911 0.0000 0.0000 0.0000
# 2 29.4648 73.4798 1.2281 0.0000 0.0000 0.0000
# 3 24.1911 1.2281 65.5343 0.0000 0.0000 0.0000
# 4 0.0000 0.0000 0.0000 13.0505 0.0000 0.0000
# 5 0.0000 0.0000 0.0000 0.0000 22.3171 0.0000
# 6 0.0000 0.0000 0.0000 0.0000 0.0000 18.3018
#
#
#
# Elastic Compliance Matrix: (Units=1/GPa)
#
#
# Indices 1 2 3 4 5 6 
#
# 1 0.006811 -0.002690 -0.002464 0.000000 0.000000 0.000000
# 2 -0.002690 0.014676 0.000718 0.000000 0.000000 0.000000
# 3 -0.002464 0.000718 0.016155 0.000000 0.000000 0.000000
# 4 0.000000 0.000000 0.000000 0.076626 0.000000 0.000000
# 5 0.000000 0.000000 0.000000 0.000000 0.044809 0.000000
# 6 0.000000 0.000000 0.000000 0.000000 0.000000 0.054639
#
#
# Mechanical properties :
#
#
# Convention : Reuss Voigt Hill
#
# Bulk Modulus (GPa) = 34.75796 46.22207 40.49001
# Shear Modulus (GPa) = 21.53534 27.49030 24.51282
#
# Velocity S-wave (km/s) = 3.30661 3.73591 3.52780
# Velocity P-wave (km/s) = 5.67672 6.48666 6.09516
#
# Compressibility (1/GPa) = 0.02877039
#
# Stress axis : x y z
#
# Youngs Moduli (GPa) = 146.82853 68.13947 61.89970
#
# Poissons Ratio (x) = 0.18328 0.15250
# Poissons Ratio (y) = 0.39495 -0.04444
# Poissons Ratio (z) = 0.36174 -0.04892
#
# Static dielectric constant tensor:
#      x y z
#    x 3.993150 0.000000 0.000000 
#    y 0.000000 3.514430 0.000000 
#    z 0.000000 0.000000 3.483020 
# 
# 
# High freq. dielectric constant tensor:
#      x y z
#    x 1.790750 0.000000 0.000000 
#    y 0.000000 1.741340 0.000000 
#    z 0.000000 0.000000 1.746740 
# 
# From -- ./inp_files/40189.got.cif
#   From: 2010.03.12/outbox.cif.g09.slc.cpg/sg65_21_cif.got.tgz:40189.got - 2010.04.10 20:52:16.
