data_PCOD8269357
_publ_section_title
;
Structure prediction by ZEFSAII (Michael W. Deem and Ramdas Pophale) SiO2 
 PCOD8269357
Probable space group: C M M M
;
_chemical_formula_sum "Si O2"
_cell_formula_units_Z 120
_cell_length_a 9.427383
_cell_length_b 27.537417
_cell_length_c 26.054687
_cell_angle_alpha 90.000000
_cell_angle_beta 90.000000
_cell_angle_gamma 90.000000
_cell_volume 6763.947260
_symmetry_space_group_name_H-M "C M M M"
_symmetry_group_IT_number 65
_symmetry_cell_setting 'orthorhombic'
loop_
_space_group_symop_operation_xyz
x,y,z
-x,-y,z
x,-y,-z
-x,y,-z
-x,-y,-z
x,y,-z
-x,y,z
x,-y,z
1/2+x,1/2+y,z
1/2-x,1/2-y,z
1/2+x,1/2-y,-z
1/2-x,1/2+y,-z
1/2-x,1/2-y,-z
1/2+x,1/2+y,-z
1/2-x,1/2+y,z
1/2+x,1/2-y,z
loop_
_atom_site_type_symbol
_atom_site_label
_atom_site_fract_x
_atom_site_fract_y
_atom_site_fract_z
Si Si1 0.833705 0.052718 0.500000
Si Si2 0.842567 0.116843 0.711089
Si Si3 0.840826 0.556515 0.220969
Si Si4 0.162924 0.555415 0.060334
Si Si5 0.657911 0.379078 0.408357
Si Si6 0.663617 0.699701 0.212356
Si Si7 0.832228 0.889356 0.860210
Si Si8 0.660204 0.205135 0.440032
O O1 0.788591 0.079162 0.447150
O O2 0.000000 0.045835 0.500000
O O3 0.758876 0.000000 0.500000
O O4 0.720352 0.080305 0.727682
O O5 0.849260 0.107647 0.650755
O O6 0.806548 0.170930 0.733689
O O7 0.000000 0.104187 0.733725
O O8 0.844027 0.500000 0.230164
O O9 0.733966 0.569123 0.175498
O O10 0.000000 0.576072 0.209940
O O11 0.209557 0.500000 0.075429
O O12 0.258833 0.598379 0.085281
O O13 0.000000 0.562832 0.077719
O O14 0.178621 0.562503 0.000000
O O15 0.500000 0.361372 0.426402
O O16 0.778763 0.339402 0.409523
O O17 0.500000 0.714714 0.208336
O O18 0.750000 0.750000 0.209963
O O19 0.704117 0.663751 0.164348
O O20 0.000000 0.895981 0.865504
O O21 0.678458 0.195439 0.500000
O O22 0.500000 0.214441 0.423744
O O23 0.750000 0.250000 0.420891
#
# Coordination Sequence:
#
# PCOD8269357 Si02
#       8
#     8  16  16  16  16  16  16  16
#     4   9  18  32  52  77 100 129 172 211 244 295
#     4   9  20  35  51  75 103 131 165 209 259 309
#     4  10  20  33  50  73 101 134 172 212 255 308
#     4   9  18  32  50  76 112 150 185 220 259 308
#     4  10  19  34  55  76 102 133 166 208 254 304
#     4   9  19  35  52  73 100 129 168 213 261 314
#     4  10  20  33  51  77 106 136 175 222 265 312
#     4  10  20  33  51  74  99 126 158 194 240 296
#
# _framework density 17.741119000000001
#
# number of rings (size 3 to 8) (size 9 to 14) (size 15 to 20)
#    0.000    2.467    0.667    2.800    0.000    8.000 
#    0.000    3.333    0.000    1.200    0.000    0.000 
#    0.000    0.000    0.000    0.000    0.000    0.000 
#
# Total GULP energy -743347.925821 kJ/mol
# GULP energy per Si atom -12389.132097 kJ/mol
# Density = 1.770074 g / cm^3
# Si number density = 17.741119 Si / 1000 Ang^3
#
#
#
# Elastic Constant Matrix: (Units=GPa)
#
#
# Indices 1 2 3 4 5 6 
#
# 1 96.8471 49.2957 40.1173 0.0000 0.0000 0.0000
# 2 49.2957 84.7378 48.2914 0.0000 0.0000 0.0000
# 3 40.1173 48.2914 86.0428 0.0000 0.0000 0.0000
# 4 0.0000 0.0000 0.0000 22.0659 0.0000 0.0000
# 5 0.0000 0.0000 0.0000 0.0000 22.6173 0.0000
# 6 0.0000 0.0000 0.0000 0.0000 0.0000 -40.7986
#
#
#
# Elastic Compliance Matrix: (Units=1/GPa)
#
#
# Indices 1 2 3 4 5 6 
#
# 1 0.015221 -0.007072 -0.003127 0.000000 0.000000 0.000000
# 2 -0.007072 0.020637 -0.008285 0.000000 0.000000 0.000000
# 3 -0.003127 -0.008285 0.017730 0.000000 0.000000 0.000000
# 4 0.000000 0.000000 0.000000 0.045319 0.000000 0.000000
# 5 0.000000 0.000000 0.000000 0.000000 0.044214 0.000000
# 6 0.000000 0.000000 0.000000 0.000000 0.000000 -0.024511
#
#
# Mechanical properties :
#
#
# Convention : Reuss Voigt Hill
#
# Bulk Modulus (GPa) = 60.17355 60.33738 60.25547
# Shear Modulus (GPa) = 31.03296 9.43848 20.23572
#
# Velocity S-wave (km/s) = 4.18689 2.30904 3.38096
# Velocity P-wave (km/s) = 7.57394 6.41815 7.01987
#
# Compressibility (1/GPa) = 0.01661860
#
# Stress axis : x y z
#
# Youngs Moduli (GPa) = 65.69910 48.45676 56.40110
#
# Poissons Ratio (x) = 0.34271 0.17639
# Poissons Ratio (y) = 0.46465 0.46728
# Poissons Ratio (z) = 0.20546 0.40146
#
# Static dielectric constant tensor:
#      x y z
#    x 3.558240 0.000000 0.000000 
#    y 0.000000 3.481280 0.000000 
#    z 0.000000 0.000000 3.392660 
# 
# 
# High freq. dielectric constant tensor:
#      x y z
#    x 1.689230 0.000000 0.000000 
#    y 0.000000 1.670440 0.000000 
#    z 0.000000 0.000000 1.680180 
# 
# From -- ./inp_files/74009.got.cif
#   From: 2010.03.12/outbox.cif.g09.slc.cpg/sg65_38_cif.got.tgz:74009.got - 2010.04.10 20:52:16.
