data_PCOD8269608
_publ_section_title
;
Structure prediction by ZEFSAII (Michael W. Deem and Ramdas Pophale) SiO2 
 PCOD8269608
Probable space group: C M M M
;
_chemical_formula_sum "Si O2"
_cell_formula_units_Z 80
_cell_length_a 25.832026
_cell_length_b 9.033894
_cell_length_c 18.132667
_cell_angle_alpha 90.000000
_cell_angle_beta 90.000000
_cell_angle_gamma 90.000000
_cell_volume 4231.507798
_symmetry_space_group_name_H-M "C M M M"
_symmetry_group_IT_number 65
_symmetry_cell_setting 'orthorhombic'
loop_
_space_group_symop_operation_xyz
x,y,z
-x,-y,z
x,-y,-z
-x,y,-z
-x,-y,-z
x,y,-z
-x,y,z
x,-y,z
1/2+x,1/2+y,z
1/2-x,1/2-y,z
1/2+x,1/2-y,-z
1/2-x,1/2+y,-z
1/2-x,1/2-y,-z
1/2+x,1/2+y,-z
1/2-x,1/2+y,z
1/2+x,1/2-y,z
loop_
_atom_site_type_symbol
_atom_site_label
_atom_site_fract_x
_atom_site_fract_y
_atom_site_fract_z
Si Si1 0.698277 0.327147 0.341803
Si Si2 0.000000 0.675585 0.330226
Si Si3 0.407949 0.328944 0.413533
Si Si4 0.198008 0.174343 0.827126
Si Si5 0.900091 0.824034 0.082788
Si Si6 0.500000 0.675931 0.827808
O O1 0.707787 0.500000 0.349126
O O2 0.750000 0.250000 0.372610
O O3 0.649329 0.276456 0.390150
O O4 0.687504 0.280321 0.257431
O O5 0.949183 0.727762 0.372883
O O6 0.000000 0.744021 0.249713
O O7 0.000000 0.500000 0.325219
O O8 0.414822 0.306704 0.500000
O O9 0.416817 0.500000 0.390582
O O10 0.250000 0.250000 0.857112
O O11 0.150657 0.235964 0.875571
O O12 0.204207 0.000000 0.835881
O O13 0.950302 0.769558 0.126682
O O14 0.899533 0.000000 0.080456
O O15 0.901320 0.759121 0.000000
O O16 0.500000 0.500000 0.815008
#
# Coordination Sequence:
#
# PCOD8269608 Si02
#       6
#    16   8  16  16  16   8
#     4   9  18  33  53  78 107 141 180 219 260 308
#     4  12  25  38  55  80 109 140 177 222 270 320
#     4  10  21  38  59  81 107 141 180 220 265 320
#     4   9  17  30  48  71 102 137 173 212 251 298
#     4   9  17  30  52  81 106 130 169 220 265 306
#     4  10  19  35  59  80 101 133 173 216 264 320
#
# _framework density 18.905791000000001
#
# number of rings (size 3 to 8) (size 9 to 14) (size 15 to 20)
#    0.000    2.400    0.000    2.700    0.000    7.600 
#    0.000    5.000    0.000    2.400    0.000    0.000 
#    0.000    0.000    0.000    0.000    0.000    0.000 
#
# Total GULP energy -496080.436183 kJ/mol
# GULP energy per Si atom -12402.010905 kJ/mol
# Density = 1.886276 g / cm^3
# Si number density = 18.905791 Si / 1000 Ang^3
#
#
#
# Elastic Constant Matrix: (Units=GPa)
#
#
# Indices 1 2 3 4 5 6 
#
# 1 152.0795 43.2101 57.6708 0.0000 0.0000 0.0000
# 2 43.2101 45.9324 34.2981 0.0000 0.0000 0.0000
# 3 57.6708 34.2981 96.4179 0.0000 0.0000 0.0000
# 4 0.0000 0.0000 0.0000 12.7853 0.0000 0.0000
# 5 0.0000 0.0000 0.0000 0.0000 23.4697 0.0000
# 6 0.0000 0.0000 0.0000 0.0000 0.0000 31.6078
#
#
#
# Elastic Compliance Matrix: (Units=1/GPa)
#
#
# Indices 1 2 3 4 5 6 
#
# 1 0.009774 -0.006576 -0.003507 0.000000 0.000000 0.000000
# 2 -0.006576 0.034070 -0.008186 0.000000 0.000000 0.000000
# 3 -0.003507 -0.008186 0.015381 0.000000 0.000000 0.000000
# 4 0.000000 0.000000 0.000000 0.078215 0.000000 0.000000
# 5 0.000000 0.000000 0.000000 0.000000 0.042608 0.000000
# 6 0.000000 0.000000 0.000000 0.000000 0.000000 0.031638
#
#
# Mechanical properties :
#
#
# Convention : Reuss Voigt Hill
#
# Bulk Modulus (GPa) = 44.07819 62.75419 53.41619
# Shear Modulus (GPa) = 19.54761 24.18927 21.86844
#
# Velocity S-wave (km/s) = 3.21899 3.58084 3.40473
# Velocity P-wave (km/s) = 6.09764 7.09660 6.61600
#
# Compressibility (1/GPa) = 0.02268696
#
# Stress axis : x y z
#
# Youngs Moduli (GPa) = 102.31501 29.35136 65.01496
#
# Poissons Ratio (x) = 0.19301 0.22799
# Poissons Ratio (y) = 0.67281 0.53223
# Poissons Ratio (z) = 0.35880 0.24028
#
# Static dielectric constant tensor:
#      x y z
#    x 3.732850 0.000000 0.000000 
#    y 0.000000 3.142050 0.000000 
#    z 0.000000 0.000000 3.589910 
# 
# 
# High freq. dielectric constant tensor:
#      x y z
#    x 1.752810 0.000000 0.000000 
#    y 0.000000 1.697810 0.000000 
#    z 0.000000 0.000000 1.739890 
# 
# From -- ./inp_files/57316.got.cif
#   From: 2010.03.12/outbox.cif.g09.slc.cpg/sg65_29_cif.got.tgz:57316.got - 2010.04.10 20:52:16.
