data_PCOD8269341
_publ_section_title
;
Structure prediction by ZEFSAII (Michael W. Deem and Ramdas Pophale) SiO2 
 PCOD8269341
Probable space group: C M M M
;
_chemical_formula_sum "Si O2"
_cell_formula_units_Z 64
_cell_length_a 14.928534
_cell_length_b 26.117109
_cell_length_c 8.729152
_cell_angle_alpha 90.000000
_cell_angle_beta 90.000000
_cell_angle_gamma 90.000000
_cell_volume 3403.410380
_symmetry_space_group_name_H-M "C M M M"
_symmetry_group_IT_number 65
_symmetry_cell_setting 'orthorhombic'
loop_
_space_group_symop_operation_xyz
x,y,z
-x,-y,z
x,-y,-z
-x,y,-z
-x,-y,-z
x,y,-z
-x,y,z
x,-y,z
1/2+x,1/2+y,z
1/2-x,1/2-y,z
1/2+x,1/2-y,-z
1/2-x,1/2+y,-z
1/2-x,1/2-y,-z
1/2+x,1/2+y,-z
1/2-x,1/2+y,z
1/2+x,1/2-y,z
loop_
_atom_site_type_symbol
_atom_site_label
_atom_site_fract_x
_atom_site_fract_y
_atom_site_fract_z
Si Si1 0.500000 0.443983 0.819353
Si Si2 0.639333 0.638399 0.818390
Si Si3 0.500000 0.176563 0.181403
Si Si4 0.101750 0.500000 0.817203
Si Si5 0.500000 0.712515 0.680185
Si Si6 0.666896 0.108455 0.181705
O O1 0.500000 0.500000 0.740789
O O2 0.411921 0.413207 0.767858
O O3 0.500000 0.450396 0.000000
O O4 0.590752 0.687096 0.744464
O O5 0.740460 0.632606 0.756003
O O6 0.635862 0.646363 0.000000
O O7 0.500000 0.228942 0.272048
O O8 0.586573 0.144809 0.234747
O O9 0.500000 0.186711 0.000000
O O10 0.151925 0.449198 0.754552
O O11 0.000000 0.500000 0.756151
O O12 0.100885 0.500000 0.000000
O O13 0.500000 0.706989 0.500000
O O14 0.670792 0.105390 0.000000
#
# Coordination Sequence:
#
# PCOD8269341 Si02
#       6
#     8  16   8   8   8  16
#     4   8  14  24  42  71 102 129 162 205 246 286
#     4   9  18  33  52  77 107 137 171 211 257 308
#     4  10  19  34  54  78 107 138 173 212 258 309
#     4   9  14  24  44  79 122 145 159 200 256 305
#     4  11  23  39  55  71  96 135 180 228 273 307
#     4   9  17  28  49  81 113 142 169 203 253 310
#
# _framework density 18.804667999999999
#
# number of rings (size 3 to 8) (size 9 to 14) (size 15 to 20)
#    0.000    2.750    1.250    1.875    1.750    1.000 
#    0.000    6.250    0.000    6.000    0.000    3.500 
#    0.000    0.000    0.000    0.000    0.000    0.000 
#
# Total GULP energy -396690.007568 kJ/mol
# GULP energy per Si atom -12396.562736 kJ/mol
# Density = 1.876187 g / cm^3
# Si number density = 18.804668 Si / 1000 Ang^3
#
#
#
# Elastic Constant Matrix: (Units=GPa)
#
#
# Indices 1 2 3 4 5 6 
#
# 1 192.9367 88.0869 27.1797 0.0000 0.0000 0.0000
# 2 88.0869 161.6037 27.9374 0.0000 0.0000 0.0000
# 3 27.1797 27.9374 34.0682 0.0000 0.0000 0.0000
# 4 0.0000 0.0000 0.0000 -2.9145 0.0000 0.0000
# 5 0.0000 0.0000 0.0000 0.0000 1.8470 0.0000
# 6 0.0000 0.0000 0.0000 0.0000 0.0000 13.9568
#
#
#
# Elastic Compliance Matrix: (Units=1/GPa)
#
#
# Indices 1 2 3 4 5 6 
#
# 1 0.007141 -0.003388 -0.002919 0.000000 0.000000 0.000000
# 2 -0.003388 0.008817 -0.004528 0.000000 0.000000 0.000000
# 3 -0.002919 -0.004528 0.035395 0.000000 0.000000 0.000000
# 4 0.000000 0.000000 0.000000 -0.343108 0.000000 0.000000
# 5 0.000000 0.000000 0.000000 0.000000 0.541431 0.000000
# 6 0.000000 0.000000 0.000000 0.000000 0.000000 0.071650
#
#
# Mechanical properties :
#
#
# Convention : Reuss Voigt Hill
#
# Bulk Modulus (GPa) = 33.68836 75.00184 54.34510
# Shear Modulus (GPa) = 14.16877 18.93816 16.55346
#
# Velocity S-wave (km/s) = 2.74792 3.17692 2.97018
# Velocity P-wave (km/s) = 5.29357 7.30947 6.38163
#
# Compressibility (1/GPa) = 0.02968384
#
# Stress axis : x y z
#
# Youngs Moduli (GPa) = 140.03695 113.41289 28.25288
#
# Poissons Ratio (x) = 0.38422 0.08247
# Poissons Ratio (y) = 0.47441 0.12792
# Poissons Ratio (z) = 0.40876 0.51351
#
# Static dielectric constant tensor:
#      x y z
#    x 3.856580 0.000000 0.000000 
#    y 0.000000 3.613560 0.000000 
#    z 0.000000 0.000000 2.807050 
# 
# 
# High freq. dielectric constant tensor:
#      x y z
#    x 1.740820 0.000000 0.000000 
#    y 0.000000 1.740630 0.000000 
#    z 0.000000 0.000000 1.664360 
# 
# From -- ./inp_files/7124.got.cif
#   From: 2010.03.12/outbox.cif.g09.slc.cpg/sg65_4_cif.got.tgz:7124.got - 2010.04.10 20:52:16.
