data_PCOD8269655
_publ_section_title
;
Structure prediction by ZEFSAII (Michael W. Deem and Ramdas Pophale) SiO2 
 PCOD8269655
Probable space group: C M M M
;
_chemical_formula_sum "Si O2"
_cell_formula_units_Z 120
_cell_length_a 16.431009
_cell_length_b 17.322618
_cell_length_c 23.059575
_cell_angle_alpha 90.000000
_cell_angle_beta 90.000000
_cell_angle_gamma 90.000000
_cell_volume 6563.402841
_symmetry_space_group_name_H-M "C M M M"
_symmetry_group_IT_number 65
_symmetry_cell_setting 'orthorhombic'
loop_
_space_group_symop_operation_xyz
x,y,z
-x,-y,z
x,-y,-z
-x,y,-z
-x,-y,-z
x,y,-z
-x,y,z
x,-y,z
1/2+x,1/2+y,z
1/2-x,1/2-y,z
1/2+x,1/2-y,-z
1/2-x,1/2+y,-z
1/2-x,1/2-y,-z
1/2+x,1/2+y,-z
1/2-x,1/2+y,z
1/2+x,1/2-y,z
loop_
_atom_site_type_symbol
_atom_site_label
_atom_site_fract_x
_atom_site_fract_y
_atom_site_fract_z
Si Si1 0.405999 0.170664 0.433020
Si Si2 0.138353 0.181215 0.371273
Si Si3 0.660066 0.218371 0.733178
Si Si4 0.410398 0.658534 0.067286
Si Si5 0.838192 0.287698 0.862253
Si Si6 0.741807 0.911080 0.066066
Si Si7 0.500000 0.591371 0.433220
Si Si8 0.802265 0.410516 0.650958
O O1 0.396138 0.153589 0.500000
O O2 0.500000 0.183097 0.415298
O O3 0.355334 0.247225 0.415773
O O4 0.368255 0.096461 0.400568
O O5 0.113091 0.219776 0.308719
O O6 0.076190 0.119442 0.396320
O O7 0.222055 0.135413 0.367852
O O8 0.750000 0.250000 0.739243
O O9 0.623169 0.209544 0.797525
O O10 0.659731 0.131959 0.706917
O O11 0.500000 0.622601 0.082266
O O12 0.401932 0.739490 0.100280
O O13 0.336409 0.601872 0.085448
O O14 0.405193 0.677776 0.000000
O O15 0.750000 0.250000 0.863040
O O16 0.823833 0.371013 0.891613
O O17 0.721834 0.000000 0.070960
O O18 0.730278 0.880980 0.000000
O O19 0.500000 0.500000 0.435202
O O20 0.500000 0.623702 0.500000
O O21 0.784011 0.500000 0.664707
#
# Coordination Sequence:
#
# PCOD8269655 Si02
#       8
#    16  16  16  16  16  16   8  16
#     4  10  20  35  55  75  98 133 172 207 247 300
#     4  10  19  36  55  76 104 135 172 211 255 313
#     4   8  17  33  53  73  93 131 177 215 258 306
#     4   9  17  29  46  71 104 138 170 213 263 308
#     4   9  16  30  50  73  94 127 178 222 251 294
#     4   9  17  28  46  74 105 137 171 211 263 316
#     4  11  22  34  54  84 113 141 172 211 261 313
#     4  10  21  35  52  76 105 133 165 210 262 312
#
# _framework density 18.283197999999999
#
# number of rings (size 3 to 8) (size 9 to 14) (size 15 to 20)
#    0.000    2.600    0.667    2.400    0.000    4.533 
#    1.200    2.000    0.000    1.200    0.000    1.867 
#    0.000    0.000    0.000    0.000    0.000    0.000 
#
# Total GULP energy -743451.964701 kJ/mol
# GULP energy per Si atom -12390.866078 kJ/mol
# Density = 1.824159 g / cm^3
# Si number density = 18.283198 Si / 1000 Ang^3
#
#
#
# Elastic Constant Matrix: (Units=GPa)
#
#
# Indices 1 2 3 4 5 6 
#
# 1 23.0501 18.6528 26.0544 0.0000 0.0000 0.0000
# 2 18.6528 88.8656 32.4200 0.0000 0.0000 0.0000
# 3 26.0544 32.4200 93.5153 0.0000 0.0000 0.0000
# 4 0.0000 0.0000 0.0000 17.9960 0.0000 0.0000
# 5 0.0000 0.0000 0.0000 0.0000 12.5639 0.0000
# 6 0.0000 0.0000 0.0000 0.0000 0.0000 10.2796
#
#
#
# Elastic Compliance Matrix: (Units=1/GPa)
#
#
# Indices 1 2 3 4 5 6 
#
# 1 0.068499 -0.008489 -0.016141 0.000000 0.000000 0.000000
# 2 -0.008489 0.013934 -0.002466 0.000000 0.000000 0.000000
# 3 -0.016141 -0.002466 0.016045 0.000000 0.000000 0.000000
# 4 0.000000 0.000000 0.000000 0.055568 0.000000 0.000000
# 5 0.000000 0.000000 0.000000 0.000000 0.079593 0.000000
# 6 0.000000 0.000000 0.000000 0.000000 0.000000 0.097280
#
#
# Mechanical properties :
#
#
# Convention : Reuss Voigt Hill
#
# Bulk Modulus (GPa) = 22.58046 39.96504 31.27275
# Shear Modulus (GPa) = 12.50395 16.72149 14.61272
#
# Velocity S-wave (km/s) = 2.61799 3.02749 2.83016
# Velocity P-wave (km/s) = 4.63850 5.84185 5.27461
#
# Compressibility (1/GPa) = 0.04428608
#
# Stress axis : x y z
#
# Youngs Moduli (GPa) = 14.59882 71.76539 62.32314
#
# Poissons Ratio (x) = 0.60922 1.00599
# Poissons Ratio (y) = 0.12393 0.15366
# Poissons Ratio (z) = 0.23565 0.17695
#
# Static dielectric constant tensor:
#      x y z
#    x 3.376490 0.000000 0.000000 
#    y 0.000000 3.244840 0.000000 
#    z 0.000000 0.000000 3.709320 
# 
# 
# High freq. dielectric constant tensor:
#      x y z
#    x 1.691470 0.000000 0.000000 
#    y 0.000000 1.695790 0.000000 
#    z 0.000000 0.000000 1.709280 
# 
# From -- ./inp_files/64017.got.cif
#   From: 2010.03.12/outbox.cif.g09.slc.cpg/sg65_33_cif.got.tgz:64017.got - 2010.04.10 20:52:16.
