data_PCOD8269481
_publ_section_title
;
Structure prediction by ZEFSAII (Michael W. Deem and Ramdas Pophale) SiO2 
 PCOD8269481
Probable space group: C M M M
;
_chemical_formula_sum "Si O2"
_cell_formula_units_Z 64
_cell_length_a 8.736327
_cell_length_b 18.079378
_cell_length_c 20.795195
_cell_angle_alpha 90.000000
_cell_angle_beta 90.000000
_cell_angle_gamma 90.000000
_cell_volume 3284.546113
_symmetry_space_group_name_H-M "C M M M"
_symmetry_group_IT_number 65
_symmetry_cell_setting 'orthorhombic'
loop_
_space_group_symop_operation_xyz
x,y,z
-x,-y,z
x,-y,-z
-x,y,-z
-x,-y,-z
x,y,-z
-x,y,z
x,-y,z
1/2+x,1/2+y,z
1/2-x,1/2-y,z
1/2+x,1/2-y,-z
1/2-x,1/2+y,-z
1/2-x,1/2-y,-z
1/2+x,1/2+y,-z
1/2-x,1/2+y,z
1/2+x,1/2-y,z
loop_
_atom_site_type_symbol
_atom_site_label
_atom_site_fract_x
_atom_site_fract_y
_atom_site_fract_z
Si Si1 0.819170 0.330678 0.624683
Si Si2 0.676423 0.828338 0.000000
Si Si3 0.182190 0.583072 0.500000
Si Si4 0.181207 0.668067 0.860461
Si Si5 0.177481 0.086574 0.256645
O O1 0.750000 0.250000 0.623821
O O2 0.755758 0.375220 0.563083
O O3 0.771937 0.372513 0.688747
O O4 0.000000 0.324040 0.622422
O O5 0.750000 0.750000 0.000000
O O6 0.718902 0.866933 0.931829
O O7 0.500000 0.811529 0.000000
O O8 0.248901 0.500000 0.500000
O O9 0.000000 0.581070 0.500000
O O10 0.250000 0.750000 0.852259
O O11 0.261427 0.612273 0.812086
O O12 0.000000 0.671719 0.847240
O O13 0.000000 0.107181 0.263358
O O14 0.206683 0.000000 0.263621
#
# Coordination Sequence:
#
# PCOD8269481 Si02
#       5
#    16   8   8  16  16
#     4  11  22  38  61  86 114 147 185 228 273 324
#     4   8  16  30  51  80 109 139 177 223 271 322
#     4   9  19  36  59  87 116 147 184 225 270 322
#     4  10  19  34  57  83 111 143 182 226 274 328
#     4  11  24  40  56  78 110 146 186 231 278 329
#
# _framework density 19.485188000000001
#
# number of rings (size 3 to 8) (size 9 to 14) (size 15 to 20)
#    0.000    1.875    0.000    4.125    0.000    4.000 
#    0.000    2.500    0.000    8.250    0.000    0.000 
#    0.000    0.000    0.000    0.000    0.000    0.000 
#
# Total GULP energy -396681.451460 kJ/mol
# GULP energy per Si atom -12396.295358 kJ/mol
# Density = 1.944084 g / cm^3
# Si number density = 19.485188 Si / 1000 Ang^3
#
#
#
# Elastic Constant Matrix: (Units=GPa)
#
#
# Indices 1 2 3 4 5 6 
#
# 1 63.2400 41.6163 35.8815 0.0000 0.0000 0.0000
# 2 41.6163 106.6251 65.2438 0.0000 0.0000 0.0000
# 3 35.8815 65.2438 164.9700 0.0000 0.0000 0.0000
# 4 0.0000 0.0000 0.0000 11.1476 0.0000 0.0000
# 5 0.0000 0.0000 0.0000 0.0000 -5.7785 0.0000
# 6 0.0000 0.0000 0.0000 0.0000 0.0000 -3.2556
#
#
#
# Elastic Compliance Matrix: (Units=1/GPa)
#
#
# Indices 1 2 3 4 5 6 
#
# 1 0.021678 -0.007356 -0.001806 0.000000 0.000000 0.000000
# 2 -0.007356 0.014869 -0.004281 0.000000 0.000000 0.000000
# 3 -0.001806 -0.004281 0.008147 0.000000 0.000000 0.000000
# 4 0.000000 0.000000 0.000000 0.089705 0.000000 0.000000
# 5 0.000000 0.000000 0.000000 0.000000 -0.173055 0.000000
# 6 0.000000 0.000000 0.000000 0.000000 0.000000 -0.307164
#
#
# Mechanical properties :
#
#
# Convention : Reuss Voigt Hill
#
# Bulk Modulus (GPa) = 56.14932 68.92424 62.53678
# Shear Modulus (GPa) = -15.97458 13.22893 -1.37283
#
# Velocity S-wave (km/s) = -2.86638 2.60844 -0.84028
# Velocity P-wave (km/s) = 4.23369 6.67243 5.58773
#
# Compressibility (1/GPa) = 0.01780965
#
# Stress axis : x y z
#
# Youngs Moduli (GPa) = 46.12924 67.25365 122.73859
#
# Poissons Ratio (x) = 0.49473 0.22164
# Poissons Ratio (y) = 0.33933 0.52539
# Poissons Ratio (z) = 0.08330 0.28788
#
# Static dielectric constant tensor:
#      x y z
#    x 3.586620 0.000000 0.000000 
#    y 0.000000 3.414520 0.000000 
#    z 0.000000 0.000000 4.094390 
# 
# 
# High freq. dielectric constant tensor:
#      x y z
#    x 1.759860 0.000000 0.000000 
#    y 0.000000 1.745420 0.000000 
#    z 0.000000 0.000000 1.786630 
# 
# From -- ./inp_files/58796.got.cif
#   From: 2010.03.12/outbox.cif.g09.slc.cpg/sg65_30_cif.got.tgz:58796.got - 2010.04.10 20:52:16.
