data_PCOD8269968
_publ_section_title
;
Structure prediction by ZEFSAII (Michael W. Deem and Ramdas Pophale) SiO2 
 PCOD8269968
Probable space group: C M M M
;
_chemical_formula_sum "Si O2"
_cell_formula_units_Z 80
_cell_length_a 9.474912
_cell_length_b 18.533949
_cell_length_c 25.955915
_cell_angle_alpha 90.000000
_cell_angle_beta 90.000000
_cell_angle_gamma 90.000000
_cell_volume 4558.054272
_symmetry_space_group_name_H-M "C M M M"
_symmetry_group_IT_number 65
_symmetry_cell_setting 'orthorhombic'
loop_
_space_group_symop_operation_xyz
x,y,z
-x,-y,z
x,-y,-z
-x,y,-z
-x,-y,-z
x,y,-z
-x,y,z
x,-y,z
1/2+x,1/2+y,z
1/2-x,1/2-y,z
1/2+x,1/2-y,-z
1/2-x,1/2+y,-z
1/2-x,1/2-y,-z
1/2+x,1/2+y,-z
1/2-x,1/2+y,z
1/2+x,1/2-y,z
loop_
_atom_site_type_symbol
_atom_site_label
_atom_site_fract_x
_atom_site_fract_y
_atom_site_fract_z
Si Si1 0.831122 0.919113 0.389495
Si Si2 0.664178 0.917088 0.098070
Si Si3 0.165935 0.323741 0.000000
Si Si4 0.337059 0.417014 0.196394
Si Si5 0.833516 0.823426 0.294997
Si Si6 0.154422 0.914415 0.500000
O O1 0.777860 0.864907 0.345680
O O2 0.769811 0.892804 0.445751
O O3 0.000000 0.920103 0.391882
O O4 0.776984 0.000000 0.376606
O O5 0.500000 0.908047 0.110120
O O6 0.748025 0.888960 0.147835
O O7 0.702148 0.000000 0.085508
O O8 0.711077 0.869439 0.049751
O O9 0.250000 0.250000 0.000000
O O10 0.000000 0.307408 0.000000
O O11 0.500000 0.406436 0.182341
O O12 0.302084 0.500000 0.208951
O O13 0.293653 0.371428 0.245960
O O14 0.750000 0.750000 0.290270
O O15 0.000000 0.808311 0.297899
O O16 0.000000 0.877976 0.500000
O O17 0.137566 0.000000 0.500000
#
# Coordination Sequence:
#
# PCOD8269968 Si02
#       6
#    16  16   8  16  16   8
#     4   8  13  24  44  67  89 116 153 195 234 271
#     4   9  18  34  55  75  95 122 156 193 232 274
#     4  10  21  35  51  73 101 130 158 188 226 274
#     4   9  18  33  52  72  92 118 156 198 235 271
#     4  10  20  32  46  66  95 127 155 187 230 279
#     4   7  10  18  37  66  91 109 142 195 240 268
#
# _framework density 17.551348000000001
#
# number of rings (size 3 to 8) (size 9 to 14) (size 15 to 20)
#    0.000    3.100    0.000    2.100    0.000    6.000 
#    0.000    4.500    0.000    4.800    0.000    0.000 
#    0.000    2.400    0.000    0.000    0.000    0.000 
#
# Total GULP energy -495772.862820 kJ/mol
# GULP energy per Si atom -12394.321570 kJ/mol
# Density = 1.751140 g / cm^3
# Si number density = 17.551348 Si / 1000 Ang^3
#
#
#
# Elastic Constant Matrix: (Units=GPa)
#
#
# Indices 1 2 3 4 5 6 
#
# 1 32.0188 39.4717 54.7558 0.0000 0.0000 0.0000
# 2 39.4717 99.3268 89.3072 0.0000 0.0000 0.0000
# 3 54.7558 89.3072 195.9844 0.0000 0.0000 0.0000
# 4 0.0000 0.0000 0.0000 5.8295 0.0000 0.0000
# 5 0.0000 0.0000 0.0000 0.0000 15.7406 0.0000
# 6 0.0000 0.0000 0.0000 0.0000 0.0000 26.5577
#
#
#
# Elastic Compliance Matrix: (Units=1/GPa)
#
#
# Indices 1 2 3 4 5 6 
#
# 1 0.076192 -0.018870 -0.012689 0.000000 0.000000 0.000000
# 2 -0.018870 0.021729 -0.004630 0.000000 0.000000 0.000000
# 3 -0.012689 -0.004630 0.010757 0.000000 0.000000 0.000000
# 4 0.000000 0.000000 0.000000 0.171542 0.000000 0.000000
# 5 0.000000 0.000000 0.000000 0.000000 0.063530 0.000000
# 6 0.000000 0.000000 0.000000 0.000000 0.000000 0.037654
#
#
# Mechanical properties :
#
#
# Convention : Reuss Voigt Hill
#
# Bulk Modulus (GPa) = 27.54607 77.15550 52.35079
# Shear Modulus (GPa) = 10.73235 19.21191 14.97213
#
# Velocity S-wave (km/s) = 2.47550 3.31208 2.92387
# Velocity P-wave (km/s) = 4.88870 7.66041 6.42578
#
# Compressibility (1/GPa) = 0.03630282
#
# Stress axis : x y z
#
# Youngs Moduli (GPa) = 13.12466 46.02138 92.96095
#
# Poissons Ratio (x) = 0.86840 1.17956
# Poissons Ratio (y) = 0.24766 0.43038
# Poissons Ratio (z) = 0.16654 0.21306
#
# Static dielectric constant tensor:
#      x y z
#    x 2.900580 0.000000 0.000000 
#    y 0.000000 3.122960 0.000000 
#    z 0.000000 0.000000 3.694340 
# 
# 
# High freq. dielectric constant tensor:
#      x y z
#    x 1.636420 0.000000 0.000000 
#    y 0.000000 1.663840 0.000000 
#    z 0.000000 0.000000 1.700990 
# 
# From -- ./inp_files/72915.got.cif
#   From: 2010.03.12/outbox.cif.g09.slc.cpg/sg65_37_cif.got.tgz:72915.got - 2010.04.10 20:52:16.
