data_PCOD8269749
_publ_section_title
;
Structure prediction by ZEFSAII (Michael W. Deem and Ramdas Pophale) SiO2 
 PCOD8269749
Probable space group: C M M M
;
_chemical_formula_sum "Si O2"
_cell_formula_units_Z 80
_cell_length_a 9.390193
_cell_length_b 29.715735
_cell_length_c 20.274270
_cell_angle_alpha 90.000000
_cell_angle_beta 90.000000
_cell_angle_gamma 90.000000
_cell_volume 5657.261073
_symmetry_space_group_name_H-M "C M M M"
_symmetry_group_IT_number 65
_symmetry_cell_setting 'orthorhombic'
loop_
_space_group_symop_operation_xyz
x,y,z
-x,-y,z
x,-y,-z
-x,y,-z
-x,-y,-z
x,y,-z
-x,y,z
x,-y,z
1/2+x,1/2+y,z
1/2-x,1/2-y,z
1/2+x,1/2-y,-z
1/2-x,1/2+y,-z
1/2-x,1/2-y,-z
1/2+x,1/2+y,-z
1/2-x,1/2+y,z
1/2+x,1/2-y,z
loop_
_atom_site_type_symbol
_atom_site_label
_atom_site_fract_x
_atom_site_fract_y
_atom_site_fract_z
Si Si1 0.340123 0.446480 0.073111
Si Si2 0.656996 0.790171 0.578300
Si Si3 0.335689 0.553165 0.320949
Si Si4 0.839398 0.553611 0.194560
Si Si5 0.334213 0.890490 0.576999
O O1 0.500000 0.429094 0.088117
O O2 0.339800 0.500000 0.076195
O O3 0.232127 0.426944 0.127745
O O4 0.291571 0.430488 0.000000
O O5 0.651574 0.785717 0.500000
O O6 0.500000 0.784211 0.607977
O O7 0.750000 0.750000 0.609656
O O8 0.714750 0.839807 0.596569
O O9 0.500000 0.567764 0.315079
O O10 0.321010 0.500000 0.328522
O O11 0.252519 0.570750 0.256456
O O12 0.265023 0.574813 0.385010
O O13 0.840550 0.500000 0.192841
O O14 0.000000 0.572497 0.199952
O O15 0.309809 0.899217 0.500000
O O16 0.500000 0.897888 0.595069
#
# Coordination Sequence:
#
# PCOD8269749 Si02
#       5
#    16  16  16  16  16
#     4   8  13  21  33  49  69  91 114 144 183 222
#     4   8  14  25  41  60  79  96 114 140 178 225
#     4  10  20  31  41  53  71  97 130 166 199 230
#     4   9  16  25  37  51  67  90 121 155 189 225
#     4   9  18  31  44  58  76  97 123 156 193 232
#
# _framework density 14.141118000000001
#
# number of rings (size 3 to 8) (size 9 to 14) (size 15 to 20)
#    0.000    3.200    0.000    3.000    0.000    5.600 
#    0.000    6.000    0.000    0.000    0.000    0.000 
#    0.000    0.000    0.000    0.000    0.000    1.000 
#
# Total GULP energy -495743.294835 kJ/mol
# GULP energy per Si atom -12393.582371 kJ/mol
# Density = 1.410893 g / cm^3
# Si number density = 14.141118 Si / 1000 Ang^3
#
#
#
# Elastic Constant Matrix: (Units=GPa)
#
#
# Indices 1 2 3 4 5 6 
#
# 1 111.0933 31.1989 62.3374 0.0000 0.0000 0.0000
# 2 31.1989 27.1112 26.1682 0.0000 0.0000 0.0000
# 3 62.3374 26.1682 81.2935 0.0000 0.0000 0.0000
# 4 0.0000 0.0000 0.0000 0.3379 0.0000 0.0000
# 5 0.0000 0.0000 0.0000 0.0000 26.9056 0.0000
# 6 0.0000 0.0000 0.0000 0.0000 0.0000 19.2995
#
#
#
# Elastic Compliance Matrix: (Units=1/GPa)
#
#
# Indices 1 2 3 4 5 6 
#
# 1 0.017649 -0.010514 -0.010149 0.000000 0.000000 0.000000
# 2 -0.010514 0.059775 -0.011179 0.000000 0.000000 0.000000
# 3 -0.010149 -0.011179 0.023682 0.000000 0.000000 0.000000
# 4 0.000000 0.000000 0.000000 2.959027 0.000000 0.000000
# 5 0.000000 0.000000 0.000000 0.000000 0.037167 0.000000
# 6 0.000000 0.000000 0.000000 0.000000 0.000000 0.051815
#
#
# Mechanical properties :
#
#
# Convention : Reuss Voigt Hill
#
# Bulk Modulus (GPa) = 26.72263 50.98967 38.85615
# Shear Modulus (GPa) = 1.55026 15.96151 8.75588
#
# Velocity S-wave (km/s) = 1.04817 3.36330 2.49103
# Velocity P-wave (km/s) = 4.51697 7.15671 5.98421
#
# Compressibility (1/GPa) = 0.03742147
#
# Stress axis : x y z
#
# Youngs Moduli (GPa) = 56.65987 16.72952 42.22569
#
# Poissons Ratio (x) = 0.17589 0.42856
# Poissons Ratio (y) = 0.59572 0.47204
# Poissons Ratio (z) = 0.57506 0.18702
#
# Static dielectric constant tensor:
#      x y z
#    x 3.019660 0.000000 0.000000 
#    y 0.000000 2.444000 0.000000 
#    z 0.000000 0.000000 2.749640 
# 
# 
# High freq. dielectric constant tensor:
#      x y z
#    x 1.551250 0.000000 0.000000 
#    y 0.000000 1.483740 0.000000 
#    z 0.000000 0.000000 1.524750 
# 
# From -- ./inp_files/50143.got.cif
#   From: 2010.03.12/outbox.cif.g09.slc.cpg/sg65_26_cif.got.tgz:50143.got - 2010.04.10 20:52:16.
