data_PCOD8269974
_publ_section_title
;
Structure prediction by ZEFSAII (Michael W. Deem and Ramdas Pophale) SiO2 
 PCOD8269974
Probable space group: C M M M
;
_chemical_formula_sum "Si O2"
_cell_formula_units_Z 104
_cell_length_a 18.210984
_cell_length_b 9.851881
_cell_length_c 33.391544
_cell_angle_alpha 90.000000
_cell_angle_beta 90.000000
_cell_angle_gamma 90.000000
_cell_volume 5990.858627
_symmetry_space_group_name_H-M "C M M M"
_symmetry_group_IT_number 65
_symmetry_cell_setting 'orthorhombic'
loop_
_space_group_symop_operation_xyz
x,y,z
-x,-y,z
x,-y,-z
-x,y,-z
-x,-y,-z
x,y,-z
-x,y,z
x,-y,z
1/2+x,1/2+y,z
1/2-x,1/2-y,z
1/2+x,1/2-y,-z
1/2-x,1/2+y,-z
1/2-x,1/2-y,-z
1/2+x,1/2+y,-z
1/2-x,1/2+y,z
1/2+x,1/2-y,z
loop_
_atom_site_type_symbol
_atom_site_label
_atom_site_fract_x
_atom_site_fract_y
_atom_site_fract_z
Si Si1 0.918215 0.839108 0.544504
Si Si2 0.087234 0.347447 0.763857
Si Si3 0.587247 0.152193 0.852503
Si Si4 0.914918 0.156313 0.077682
Si Si5 0.084899 0.154619 0.694974
Si Si6 0.178690 0.157794 0.000000
Si Si7 0.320428 0.341292 0.382926
O O1 0.892175 0.794146 0.500000
O O2 0.860807 0.785297 0.577228
O O3 0.000000 0.780820 0.553016
O O4 0.922094 0.000000 0.547555
O O5 0.112566 0.500000 0.753235
O O6 0.116555 0.307025 0.808195
O O7 0.119462 0.246326 0.730395
O O8 0.000000 0.337490 0.763993
O O9 0.500000 0.158395 0.852078
O O10 0.617887 0.255868 0.885631
O O11 0.613631 0.000000 0.863324
O O12 0.869796 0.194565 0.038405
O O13 0.000000 0.190466 0.069154
O O14 0.905032 0.000000 0.089587
O O15 0.125882 0.184799 0.653945
O O16 0.000000 0.189766 0.687330
O O17 0.095039 0.000000 0.708757
O O18 0.250000 0.250000 0.000000
O O19 0.201672 0.000000 0.000000
O O20 0.298946 0.500000 0.386587
O O21 0.250000 0.250000 0.375967
#
# Coordination Sequence:
#
# PCOD8269974 Si02
#       7
#    16  16  16  16  16   8  16
#     4   8  14  27  49  73  93 117 153 193 229 269
#     4   8  14  25  42  66  95 122 147 181 228 277
#     4   8  14  25  42  67  97 122 145 180 227 275
#     4   9  17  30  49  71  94 121 153 189 228 270
#     4   9  17  29  46  67  90 118 154 194 229 263
#     4  10  21  35  49  67  93 124 156 190 228 270
#     4  10  20  32  46  67  95 124 154 190 231 273
#
# _framework density 17.359781000000002
#
# number of rings (size 3 to 8) (size 9 to 14) (size 15 to 20)
#    0.000    3.231    0.000    2.077    0.000    4.923 
#    0.000    3.077    0.000    4.615    0.000    1.077 
#    0.000    0.000    0.000    0.000    0.000    0.000 
#
# Total GULP energy -644545.401486 kJ/mol
# GULP energy per Si atom -12395.103875 kJ/mol
# Density = 1.732027 g / cm^3
# Si number density = 17.359781 Si / 1000 Ang^3
#
#
#
# Elastic Constant Matrix: (Units=GPa)
#
#
# Indices 1 2 3 4 5 6 
#
# 1 56.1271 42.2160 48.8647 0.0000 0.0000 0.0000
# 2 42.2160 80.0366 82.0948 0.0000 0.0000 0.0000
# 3 48.8647 82.0948 158.7633 0.0000 0.0000 0.0000
# 4 0.0000 0.0000 0.0000 23.6959 0.0000 0.0000
# 5 0.0000 0.0000 0.0000 0.0000 0.6956 0.0000
# 6 0.0000 0.0000 0.0000 0.0000 0.0000 20.9498
#
#
#
# Elastic Compliance Matrix: (Units=1/GPa)
#
#
# Indices 1 2 3 4 5 6 
#
# 1 0.029900 -0.013483 -0.002231 0.000000 0.000000 0.000000
# 2 -0.013483 0.032685 -0.012751 0.000000 0.000000 0.000000
# 3 -0.002231 -0.012751 0.013579 0.000000 0.000000 0.000000
# 4 0.000000 0.000000 0.000000 0.042201 0.000000 0.000000
# 5 0.000000 0.000000 0.000000 0.000000 1.437567 0.000000
# 6 0.000000 0.000000 0.000000 0.000000 0.000000 0.047733
#
#
# Mechanical properties :
#
#
# Convention : Reuss Voigt Hill
#
# Bulk Modulus (GPa) = 51.99123 71.25310 61.62217
# Shear Modulus (GPa) = 2.99939 17.18502 10.09220
#
# Velocity S-wave (km/s) = 1.31588 3.14973 2.41375
# Velocity P-wave (km/s) = 5.68533 7.37305 6.58349
#
# Compressibility (1/GPa) = 0.01923401
#
# Stress axis : x y z
#
# Youngs Moduli (GPa) = 33.44474 30.59489 73.64342
#
# Poissons Ratio (x) = 0.41250 0.16430
# Poissons Ratio (y) = 0.45093 0.93906
# Poissons Ratio (z) = 0.07461 0.39013
#
# Static dielectric constant tensor:
#      x y z
#    x 2.912790 0.000000 0.000000 
#    y 0.000000 3.184010 0.000000 
#    z 0.000000 0.000000 3.625690 
# 
# 
# High freq. dielectric constant tensor:
#      x y z
#    x 1.631760 0.000000 0.000000 
#    y 0.000000 1.652800 0.000000 
#    z 0.000000 0.000000 1.686590 
# 
# From -- ./inp_files/77665.got.cif
#   From: 2010.03.12/outbox.cif.g09.slc.cpg/sg65_39_cif.got.tgz:77665.got - 2010.04.10 20:52:16.
