data_PCOD8269750
_publ_section_title
;
Structure prediction by ZEFSAII (Michael W. Deem and Ramdas Pophale) SiO2 
 PCOD8269750
Probable space group: C M M M
;
_chemical_formula_sum "Si O2"
_cell_formula_units_Z 88
_cell_length_a 9.167642
_cell_length_b 30.073657
_cell_length_c 22.962819
_cell_angle_alpha 90.000000
_cell_angle_beta 90.000000
_cell_angle_gamma 90.000000
_cell_volume 6330.953013
_symmetry_space_group_name_H-M "C M M M"
_symmetry_group_IT_number 65
_symmetry_cell_setting 'orthorhombic'
loop_
_space_group_symop_operation_xyz
x,y,z
-x,-y,z
x,-y,-z
-x,y,-z
-x,-y,-z
x,y,-z
-x,y,z
x,-y,z
1/2+x,1/2+y,z
1/2-x,1/2-y,z
1/2+x,1/2-y,-z
1/2-x,1/2+y,-z
1/2-x,1/2-y,-z
1/2+x,1/2+y,-z
1/2-x,1/2+y,z
1/2+x,1/2-y,z
loop_
_atom_site_type_symbol
_atom_site_label
_atom_site_fract_x
_atom_site_fract_y
_atom_site_fract_z
Si Si1 0.669145 0.447804 0.340712
Si Si2 0.165340 0.552986 0.000000
Si Si3 0.665369 0.553021 0.886704
Si Si4 0.665104 0.947077 0.226109
Si Si5 0.160582 0.290884 0.430905
Si Si6 0.670761 0.110516 0.432312
O O1 0.500000 0.435940 0.333339
O O2 0.693318 0.500000 0.349133
O O3 0.753624 0.430019 0.283874
O O4 0.733465 0.424379 0.397314
O O5 0.249594 0.571019 0.056726
O O6 0.163646 0.500000 0.000000
O O7 0.000000 0.571346 0.000000
O O8 0.500000 0.571282 0.887247
O O9 0.664120 0.500000 0.886435
O O10 0.748382 0.571497 0.829835
O O11 0.500000 0.928580 0.225440
O O12 0.664584 0.000000 0.224478
O O13 0.153680 0.286130 0.500000
O O14 0.250000 0.250000 0.403100
O O15 0.224631 0.339568 0.415463
O O16 0.000000 0.286983 0.404139
O O17 0.699012 0.101100 0.500000
O O18 0.500000 0.104846 0.417674
#
# Coordination Sequence:
#
# PCOD8269750 Si02
#       6
#    16   8  16  16  16  16
#     4  10  20  31  41  54  72  94 123 159 194 225
#     4   9  15  21  29  43  63  85 109 137 172 215
#     4   9  15  22  32  46  64  84 107 139 179 217
#     4   9  16  26  39  51  63  84 115 148 182 220
#     4   8  14  25  41  60  79  96 114 138 171 214
#     4   9  18  31  44  58  76  97 121 149 183 225
#
# _framework density 13.899960999999999
#
# number of rings (size 3 to 8) (size 9 to 14) (size 15 to 20)
#    0.000    3.000    0.000    3.000    0.000    8.000 
#    0.000    3.636    0.000    0.000    0.000    0.000 
#    0.000    0.000    0.000    0.000    0.000    0.000 
#
# Total GULP energy -545405.945274 kJ/mol
# GULP energy per Si atom -12395.589665 kJ/mol
# Density = 1.386832 g / cm^3
# Si number density = 13.899961 Si / 1000 Ang^3
#
#
#
# Elastic Constant Matrix: (Units=GPa)
#
#
# Indices 1 2 3 4 5 6 
#
# 1 120.0577 31.7305 61.4952 0.0000 0.0000 0.0000
# 2 31.7305 30.2649 29.7300 0.0000 0.0000 0.0000
# 3 61.4952 29.7300 88.2903 0.0000 0.0000 0.0000
# 4 0.0000 0.0000 0.0000 0.1925 0.0000 0.0000
# 5 0.0000 0.0000 0.0000 0.0000 27.9436 0.0000
# 6 0.0000 0.0000 0.0000 0.0000 0.0000 16.7257
#
#
#
# Elastic Compliance Matrix: (Units=1/GPa)
#
#
# Indices 1 2 3 4 5 6 
#
# 1 0.014040 -0.007641 -0.007206 0.000000 0.000000 0.000000
# 2 -0.007641 0.053532 -0.012704 0.000000 0.000000 0.000000
# 3 -0.007206 -0.012704 0.020623 0.000000 0.000000 0.000000
# 4 0.000000 0.000000 0.000000 5.194995 0.000000 0.000000
# 5 0.000000 0.000000 0.000000 0.000000 0.035786 0.000000
# 6 0.000000 0.000000 0.000000 0.000000 0.000000 0.059788
#
#
# Mechanical properties :
#
#
# Convention : Reuss Voigt Hill
#
# Bulk Modulus (GPa) = 30.21762 53.83603 42.02682
# Shear Modulus (GPa) = 0.91829 16.68285 8.80057
#
# Velocity S-wave (km/s) = 0.81368 3.46816 2.51895
# Velocity P-wave (km/s) = 4.76123 7.40626 6.22583
#
# Compressibility (1/GPa) = 0.03309328
#
# Stress axis : x y z
#
# Youngs Moduli (GPa) = 71.22615 18.68045 48.48974
#
# Poissons Ratio (x) = 0.14274 0.34941
# Poissons Ratio (y) = 0.54425 0.61600
# Poissons Ratio (z) = 0.51324 0.23731
#
# Static dielectric constant tensor:
#      x y z
#    x 2.979920 0.000000 0.000000 
#    y 0.000000 2.358670 0.000000 
#    z 0.000000 0.000000 2.707240 
# 
# 
# High freq. dielectric constant tensor:
#      x y z
#    x 1.546750 0.000000 0.000000 
#    y 0.000000 1.465240 0.000000 
#    z 0.000000 0.000000 1.519330 
# 
# From -- ./inp_files/68407.got.cif
#   From: 2010.03.12/outbox.cif.g09.slc.cpg/sg65_35_cif.got.tgz:68407.got - 2010.04.10 20:52:16.
