data_PCOD8269772
_publ_section_title
;
Structure prediction by ZEFSAII (Michael W. Deem and Ramdas Pophale) SiO2 
 PCOD8269772
Probable space group: C M M M
;
_chemical_formula_sum "Si O2"
_cell_formula_units_Z 72
_cell_length_a 30.122411
_cell_length_b 9.257862
_cell_length_c 17.534911
_cell_angle_alpha 90.000000
_cell_angle_beta 90.000000
_cell_angle_gamma 90.000000
_cell_volume 4889.945273
_symmetry_space_group_name_H-M "C M M M"
_symmetry_group_IT_number 65
_symmetry_cell_setting 'orthorhombic'
loop_
_space_group_symop_operation_xyz
x,y,z
-x,-y,z
x,-y,-z
-x,y,-z
-x,-y,-z
x,y,-z
-x,y,z
x,-y,z
1/2+x,1/2+y,z
1/2-x,1/2-y,z
1/2+x,1/2-y,-z
1/2-x,1/2+y,-z
1/2-x,1/2-y,-z
1/2+x,1/2+y,-z
1/2-x,1/2+y,z
1/2+x,1/2-y,z
loop_
_atom_site_type_symbol
_atom_site_label
_atom_site_fract_x
_atom_site_fract_y
_atom_site_fract_z
Si Si1 0.052730 0.840113 0.858372
Si Si2 0.553056 0.161138 0.000000
Si Si3 0.051792 0.168053 0.312003
Si Si4 0.120754 0.332750 0.410317
Si Si5 0.707496 0.663773 0.409226
O O1 0.072132 0.736372 0.923775
O O2 0.066529 0.787734 0.773874
O O3 0.000000 0.845065 0.862912
O O4 0.071748 0.000000 0.873680
O O5 0.500000 0.165014 0.000000
O O6 0.571630 0.000000 0.000000
O O7 0.077397 0.268996 0.370614
O O8 0.000000 0.198016 0.324423
O O9 0.062654 0.000000 0.327097
O O10 0.114319 0.312165 0.500000
O O11 0.126830 0.500000 0.388762
O O12 0.163609 0.245762 0.380459
O O13 0.709055 0.662129 0.500000
O O14 0.707699 0.500000 0.377401
O O15 0.750000 0.750000 0.376899
#
# Coordination Sequence:
#
# PCOD8269772 Si02
#       5
#    16   8  16  16  16
#     4   8  14  25  39  53  71  97 128 161 198 239
#     4   9  15  21  33  55  77  95 120 155 194 237
#     4   9  18  31  44  57  75 104 142 178 209 240
#     4  10  20  31  42  58  80 106 137 171 207 246
#     4   9  16  27  44  63  81 100 124 158 201 247
#
# _framework density 14.724091
#
# number of rings (size 3 to 8) (size 9 to 14) (size 15 to 20)
#    0.000    3.000    0.000    3.000    0.000    7.111 
#    0.000    4.444    0.000    0.000    0.000    0.000 
#    0.000    0.000    0.000    1.000    0.000   13.222 
#
# Total GULP energy -446267.989543 kJ/mol
# GULP energy per Si atom -12396.333043 kJ/mol
# Density = 1.469058 g / cm^3
# Si number density = 14.724091 Si / 1000 Ang^3
#
#
#
# Elastic Constant Matrix: (Units=GPa)
#
#
# Indices 1 2 3 4 5 6 
#
# 1 60.4483 51.4896 33.0349 0.0000 0.0000 0.0000
# 2 51.4896 125.4072 49.6520 0.0000 0.0000 0.0000
# 3 33.0349 49.6520 52.5961 0.0000 0.0000 0.0000
# 4 0.0000 0.0000 0.0000 20.1435 0.0000 0.0000
# 5 0.0000 0.0000 0.0000 0.0000 0.4038 0.0000
# 6 0.0000 0.0000 0.0000 0.0000 0.0000 24.3896
#
#
#
# Elastic Compliance Matrix: (Units=1/GPa)
#
#
# Indices 1 2 3 4 5 6 
#
# 1 0.029027 -0.007505 -0.011147 0.000000 0.000000 0.000000
# 2 -0.007505 0.014673 -0.009139 0.000000 0.000000 0.000000
# 3 -0.011147 -0.009139 0.034641 0.000000 0.000000 0.000000
# 4 0.000000 0.000000 0.000000 0.049644 0.000000 0.000000
# 5 0.000000 0.000000 0.000000 0.000000 2.476589 0.000000
# 6 0.000000 0.000000 0.000000 0.000000 0.000000 0.041001
#
#
# Mechanical properties :
#
#
# Convention : Reuss Voigt Hill
#
# Bulk Modulus (GPa) = 43.93406 56.31163 50.12285
# Shear Modulus (GPa) = 1.84587 15.93905 8.89246
#
# Velocity S-wave (km/s) = 1.12088 3.29373 2.46018
# Velocity P-wave (km/s) = 5.61944 7.26584 6.49502
#
# Compressibility (1/GPa) = 0.02276138
#
# Stress axis : x y z
#
# Youngs Moduli (GPa) = 34.45032 68.15025 28.86727
#
# Poissons Ratio (x) = 0.51144 0.32179
# Poissons Ratio (y) = 0.25853 0.26381
# Poissons Ratio (z) = 0.38402 0.62280
#
# Static dielectric constant tensor:
#      x y z
#    x 2.567370 0.000000 0.000000 
#    y 0.000000 3.056440 0.000000 
#    z 0.000000 0.000000 2.767470 
# 
# 
# High freq. dielectric constant tensor:
#      x y z
#    x 1.521240 0.000000 0.000000 
#    y 0.000000 1.577110 0.000000 
#    z 0.000000 0.000000 1.538420 
# 
# From -- ./inp_files/47475.got.cif
#   From: 2010.03.12/outbox.cif.g09.slc.cpg/sg65_24_cif.got.tgz:47475.got - 2010.04.10 20:52:16.
