data_PCOD8269675
_publ_section_title
;
Structure prediction by ZEFSAII (Michael W. Deem and Ramdas Pophale) SiO2 
 PCOD8269675
Probable space group: C M M M
;
_chemical_formula_sum "Si O2"
_cell_formula_units_Z 88
_cell_length_a 20.169567
_cell_length_b 24.942059
_cell_length_c 9.333672
_cell_angle_alpha 90.000000
_cell_angle_beta 90.000000
_cell_angle_gamma 90.000000
_cell_volume 4695.495321
_symmetry_space_group_name_H-M "C M M M"
_symmetry_group_IT_number 65
_symmetry_cell_setting 'orthorhombic'
loop_
_space_group_symop_operation_xyz
x,y,z
-x,-y,z
x,-y,-z
-x,y,-z
-x,-y,-z
x,y,-z
-x,y,z
x,-y,z
1/2+x,1/2+y,z
1/2-x,1/2-y,z
1/2+x,1/2-y,-z
1/2-x,1/2+y,-z
1/2-x,1/2-y,-z
1/2+x,1/2+y,-z
1/2-x,1/2+y,z
1/2+x,1/2-y,z
loop_
_atom_site_type_symbol
_atom_site_label
_atom_site_fract_x
_atom_site_fract_y
_atom_site_fract_z
Si Si1 0.611634 0.152571 0.339392
Si Si2 0.741044 0.691762 0.661219
Si Si3 0.000000 0.708505 0.161942
Si Si4 0.576242 0.500000 0.668762
Si Si5 0.878024 0.883334 0.670788
Si Si6 0.500000 0.334920 0.836870
Si Si7 0.424832 0.938891 0.158179
O O1 0.582866 0.154293 0.500000
O O2 0.687320 0.167198 0.334985
O O3 0.566841 0.190012 0.240336
O O4 0.613939 0.092440 0.279835
O O5 0.716017 0.703386 0.500000
O O6 0.750000 0.750000 0.740641
O O7 0.688806 0.647967 0.725299
O O8 0.000000 0.771620 0.161128
O O9 0.000000 0.685801 0.000000
O O10 0.500000 0.500000 0.731916
O O11 0.569177 0.500000 0.500000
O O12 0.617839 0.553359 0.716206
O O13 0.886678 0.878426 0.500000
O O14 0.936528 0.853750 0.750844
O O15 0.500000 0.357352 0.000000
O O16 0.500000 0.917356 0.156168
O O17 0.422447 0.000000 0.204101
O O18 0.393538 0.930518 0.000000
#
# Coordination Sequence:
#
# PCOD8269675 Si02
#       7
#    16  16   8   8  16   8  16
#     4  11  21  34  55  85 112 137 182 239 284 322
#     4   9  19  35  54  80 113 146 183 229 283 338
#     4  11  23  37  53  77 111 150 186 222 275 344
#     4   9  16  30  56  90 112 135 186 229 265 342
#     4  10  19  36  60  81 109 150 187 225 279 346
#     4  11  23  36  54  84 113 138 182 235 277 328
#     4   9  18  34  55  76 104 146 184 214 263 332
#
# _framework density 18.741368000000001
#
# number of rings (size 3 to 8) (size 9 to 14) (size 15 to 20)
#    0.000    2.091    1.818    2.727    0.000    3.273 
#    1.636    3.636    0.000    4.909    0.000    0.000 
#    0.000    0.000    0.000    0.000    0.000    0.000 
#
# Total GULP energy -545143.592525 kJ/mol
# GULP energy per Si atom -12389.627103 kJ/mol
# Density = 1.869871 g / cm^3
# Si number density = 18.741368 Si / 1000 Ang^3
#
#
#
# Elastic Constant Matrix: (Units=GPa)
#
#
# Indices 1 2 3 4 5 6 
#
# 1 92.7900 56.6005 36.0458 0.0000 0.0000 0.0000
# 2 56.6005 130.4022 42.6421 0.0000 0.0000 0.0000
# 3 36.0458 42.6421 84.4474 0.0000 0.0000 0.0000
# 4 0.0000 0.0000 0.0000 23.6773 0.0000 0.0000
# 5 0.0000 0.0000 0.0000 0.0000 35.7081 0.0000
# 6 0.0000 0.0000 0.0000 0.0000 0.0000 32.6368
#
#
#
# Elastic Compliance Matrix: (Units=1/GPa)
#
#
# Indices 1 2 3 4 5 6 
#
# 1 0.015659 -0.005523 -0.003895 0.000000 0.000000 0.000000
# 2 -0.005523 0.011133 -0.003264 0.000000 0.000000 0.000000
# 3 -0.003895 -0.003264 0.015153 0.000000 0.000000 0.000000
# 4 0.000000 0.000000 0.000000 0.042235 0.000000 0.000000
# 5 0.000000 0.000000 0.000000 0.000000 0.028005 0.000000
# 6 0.000000 0.000000 0.000000 0.000000 0.000000 0.030640
#
#
# Mechanical properties :
#
#
# Convention : Reuss Voigt Hill
#
# Bulk Modulus (GPa) = 60.31334 64.24625 62.27980
# Shear Modulus (GPa) = 28.78256 29.89452 29.33854
#
# Velocity S-wave (km/s) = 3.92315 3.99821 3.96086
# Velocity P-wave (km/s) = 7.26452 7.46118 7.36351
#
# Compressibility (1/GPa) = 0.01658008
#
# Stress axis : x y z
#
# Youngs Moduli (GPa) = 63.86053 89.82068 65.99518
#
# Poissons Ratio (x) = 0.49609 0.25706
# Poissons Ratio (y) = 0.35271 0.21543
# Poissons Ratio (z) = 0.24874 0.29320
#
# Static dielectric constant tensor:
#      x y z
#    x 3.377580 0.000000 0.000000 
#    y 0.000000 3.857020 0.000000 
#    z 0.000000 0.000000 3.402920 
# 
# 
# High freq. dielectric constant tensor:
#      x y z
#    x 1.716860 0.000000 0.000000 
#    y 0.000000 1.749450 0.000000 
#    z 0.000000 0.000000 1.700870 
# 
# From -- ./inp_files/11884.got.cif
#   From: 2010.03.12/outbox.cif.g09.slc.cpg/sg65_6_cif.got.tgz:11884.got - 2010.04.10 20:52:16.
