data_PCOD8269881
_publ_section_title
;
Structure prediction by ZEFSAII (Michael W. Deem and Ramdas Pophale) SiO2 
 PCOD8269881
Probable space group: C M M M
;
_chemical_formula_sum "Si O2"
_cell_formula_units_Z 96
_cell_length_a 20.728782
_cell_length_b 17.570008
_cell_length_c 20.003657
_cell_angle_alpha 90.000000
_cell_angle_beta 90.000000
_cell_angle_gamma 90.000000
_cell_volume 7285.429209
_symmetry_space_group_name_H-M "C M M M"
_symmetry_group_IT_number 65
_symmetry_cell_setting 'orthorhombic'
loop_
_space_group_symop_operation_xyz
x,y,z
-x,-y,z
x,-y,-z
-x,y,-z
-x,-y,-z
x,y,-z
-x,y,z
x,-y,z
1/2+x,1/2+y,z
1/2-x,1/2-y,z
1/2+x,1/2-y,-z
1/2-x,1/2+y,-z
1/2-x,1/2-y,-z
1/2+x,1/2+y,-z
1/2-x,1/2+y,z
1/2+x,1/2-y,z
loop_
_atom_site_type_symbol
_atom_site_label
_atom_site_fract_x
_atom_site_fract_y
_atom_site_fract_z
Si Si1 0.000000 0.148867 0.920576
Si Si2 0.245119 0.839797 0.076088
Si Si3 0.423252 0.585549 0.429210
Si Si4 0.373976 0.588947 0.851596
Si Si5 0.500000 0.177484 0.079617
Si Si6 0.123076 0.413909 0.079559
Si Si7 0.927797 0.909183 0.713210
O O1 0.062642 0.105753 0.894356
O O2 0.000000 0.235933 0.894886
O O3 0.000000 0.145521 0.000000
O O4 0.250000 0.750000 0.079575
O O5 0.185920 0.864817 0.120946
O O6 0.310391 0.876925 0.105073
O O7 0.233003 0.866940 0.000000
O O8 0.401995 0.626690 0.500000
O O9 0.500000 0.583814 0.425013
O O10 0.396329 0.500000 0.432802
O O11 0.399773 0.623044 0.358509
O O12 0.358718 0.500000 0.856260
O O13 0.383110 0.616149 0.774800
O O14 0.436705 0.134894 0.108093
O O15 0.500000 0.174826 0.000000
O O16 0.117670 0.500000 0.106573
O O17 0.121265 0.412394 0.000000
O O18 0.000000 0.877788 0.726708
O O19 0.930655 0.000000 0.708769
#
# Coordination Sequence:
#
# PCOD8269881 Si02
#       7
#     8  16  16  16   8  16  16
#     4  11  21  29  37  51  72  99 129 155 181 215
#     4  10  20  32  42  52  69  93 122 159 199 232
#     4   7   9  14  27  46  67  93 121 145 171 203
#     4  11  20  29  40  54  73  99 127 155 184 219
#     4   9  17  29  43  57  71  86 107 143 192 236
#     4   9  16  27  43  59  70  82 107 147 193 236
#     4   8  13  22  33  48  73  99 122 148 177 206
#
# _framework density 13.176985999999999
#
# number of rings (size 3 to 8) (size 9 to 14) (size 15 to 20)
#    0.000    2.833    0.833    4.000    0.000    6.000 
#    0.000    0.000    0.000    0.000    0.000    0.000 
#    0.000    0.667    0.000    0.000    0.000    0.000 
#
# Total GULP energy -594651.316251 kJ/mol
# GULP energy per Si atom -12388.569089 kJ/mol
# Density = 1.314700 g / cm^3
# Si number density = 13.176986 Si / 1000 Ang^3
#
#
#
# Elastic Constant Matrix: (Units=GPa)
#
#
# Indices 1 2 3 4 5 6 
#
# 1 74.6932 9.9797 36.8347 0.0000 0.0000 0.0000
# 2 9.9797 30.2862 17.6173 0.0000 0.0000 0.0000
# 3 36.8347 17.6173 95.0977 0.0000 0.0000 0.0000
# 4 0.0000 0.0000 0.0000 4.2481 0.0000 0.0000
# 5 0.0000 0.0000 0.0000 0.0000 7.3506 0.0000
# 6 0.0000 0.0000 0.0000 0.0000 0.0000 19.9753
#
#
#
# Elastic Compliance Matrix: (Units=1/GPa)
#
#
# Indices 1 2 3 4 5 6 
#
# 1 0.016651 -0.001945 -0.006089 0.000000 0.000000 0.000000
# 2 -0.001945 0.037233 -0.006144 0.000000 0.000000 0.000000
# 3 -0.006089 -0.006144 0.014012 0.000000 0.000000 0.000000
# 4 0.000000 0.000000 0.000000 0.235400 0.000000 0.000000
# 5 0.000000 0.000000 0.000000 0.000000 0.136043 0.000000
# 6 0.000000 0.000000 0.000000 0.000000 0.000000 0.050062
#
#
# Mechanical properties :
#
#
# Convention : Reuss Voigt Hill
#
# Bulk Modulus (GPa) = 25.29087 36.54894 30.91991
# Shear Modulus (GPa) = 9.41731 15.35784 12.38758
#
# Velocity S-wave (km/s) = 2.67625 3.41765 3.06942
# Velocity P-wave (km/s) = 5.36513 6.58566 6.00648
#
# Compressibility (1/GPa) = 0.03953996
#
# Stress axis : x y z
#
# Youngs Moduli (GPa) = 60.05727 26.85771 71.36560
#
# Poissons Ratio (x) = 0.05223 0.43456
# Poissons Ratio (y) = 0.11679 0.43850
# Poissons Ratio (z) = 0.36570 0.16503
#
# Static dielectric constant tensor:
#      x y z
#    x 2.810410 0.000000 0.000000 
#    y 0.000000 2.488050 0.000000 
#    z 0.000000 0.000000 2.876110 
# 
# 
# High freq. dielectric constant tensor:
#      x y z
#    x 1.485770 0.000000 0.000000 
#    y 0.000000 1.475390 0.000000 
#    z 0.000000 0.000000 1.479350 
# 
# From -- ./inp_files/63887.got.cif
#   From: 2010.03.12/outbox.cif.g09.slc.cpg/sg65_32_cif.got.tgz:63887.got - 2010.04.10 20:52:16.
