data_PCOD8269927
_publ_section_title
;
Structure prediction by ZEFSAII (Michael W. Deem and Ramdas Pophale) SiO2 
 PCOD8269927
Probable space group: C M M M
;
_chemical_formula_sum "Si O2"
_cell_formula_units_Z 104
_cell_length_a 8.766807
_cell_length_b 26.955934
_cell_length_c 23.714900
_cell_angle_alpha 90.000000
_cell_angle_beta 90.000000
_cell_angle_gamma 90.000000
_cell_volume 5604.245190
_symmetry_space_group_name_H-M "C M M M"
_symmetry_group_IT_number 65
_symmetry_cell_setting 'orthorhombic'
loop_
_space_group_symop_operation_xyz
x,y,z
-x,-y,z
x,-y,-z
-x,y,-z
-x,-y,-z
x,y,-z
-x,y,z
x,-y,z
1/2+x,1/2+y,z
1/2-x,1/2-y,z
1/2+x,1/2-y,-z
1/2-x,1/2+y,-z
1/2-x,1/2-y,-z
1/2+x,1/2+y,-z
1/2-x,1/2+y,z
1/2+x,1/2-y,z
loop_
_atom_site_type_symbol
_atom_site_label
_atom_site_fract_x
_atom_site_fract_y
_atom_site_fract_z
Si Si1 0.320288 0.601616 0.435069
Si Si2 0.820890 0.198424 0.239772
Si Si3 0.326793 0.698989 0.939508
Si Si4 0.174207 0.500000 0.566775
Si Si5 0.179742 0.198478 0.630854
Si Si6 0.181500 0.444486 0.937407
Si Si7 0.322716 0.865175 0.148749
O O1 0.272176 0.607962 0.500000
O O2 0.500000 0.597121 0.427598
O O3 0.250249 0.550641 0.409413
O O4 0.257424 0.650420 0.402805
O O5 0.750000 0.250000 0.216190
O O6 0.771315 0.190944 0.304396
O O7 0.762479 0.149602 0.206528
O O8 0.000000 0.202567 0.232811
O O9 0.500000 0.701951 0.914740
O O10 0.250000 0.750000 0.953349
O O11 0.207176 0.677645 0.895616
O O12 0.331194 0.670211 0.000000
O O13 0.195238 0.500000 0.500000
O O14 0.000000 0.500000 0.586033
O O15 0.250000 0.250000 0.607150
O O16 0.000000 0.202713 0.623324
O O17 0.239825 0.500000 0.927612
O O18 0.246507 0.413303 0.884067
O O19 0.000000 0.441198 0.935950
O O20 0.236465 0.426375 0.000000
O O21 0.500000 0.871243 0.162851
#
# Coordination Sequence:
#
# PCOD8269927 Si02
#       7
#    16  16  16   8  16  16  16
#     4   9  17  31  52  77 105 138 175 213 258 315
#     4  10  20  35  52  70  96 129 167 204 241 289
#     4  10  20  32  45  64  93 124 151 184 229 281
#     4   9  17  29  47  75 107 137 171 211 254 297
#     4   9  19  34  52  74 101 136 173 213 259 309
#     4   8  15  29  49  72  95 119 150 190 237 289
#     4  11  20  30  49  73  94 120 156 197 240 284
#
# _framework density 18.557361
#
# number of rings (size 3 to 8) (size 9 to 14) (size 15 to 20)
#    0.000    2.538    0.000    3.000    0.000    4.000 
#    0.000    0.000    1.692    1.846    0.000    5.385 
#    0.000    0.000    0.000    0.000    0.000    0.000 
#
# Total GULP energy -644207.933339 kJ/mol
# GULP energy per Si atom -12388.614103 kJ/mol
# Density = 1.851512 g / cm^3
# Si number density = 18.557361 Si / 1000 Ang^3
#
#
#
# Elastic Constant Matrix: (Units=GPa)
#
#
# Indices 1 2 3 4 5 6 
#
# 1 43.3943 34.5107 21.6434 0.0000 0.0000 0.0000
# 2 34.5107 151.3980 62.2049 0.0000 0.0000 0.0000
# 3 21.6434 62.2049 73.6031 0.0000 0.0000 0.0000
# 4 0.0000 0.0000 0.0000 33.7379 0.0000 0.0000
# 5 0.0000 0.0000 0.0000 0.0000 40.3975 0.0000
# 6 0.0000 0.0000 0.0000 0.0000 0.0000 23.1260
#
#
#
# Elastic Compliance Matrix: (Units=1/GPa)
#
#
# Indices 1 2 3 4 5 6 
#
# 1 0.029097 -0.004775 -0.004520 0.000000 0.000000 0.000000
# 2 -0.004775 0.010902 -0.007810 0.000000 0.000000 0.000000
# 3 -0.004520 -0.007810 0.021516 0.000000 0.000000 0.000000
# 4 0.000000 0.000000 0.000000 0.029640 0.000000 0.000000
# 5 0.000000 0.000000 0.000000 0.000000 0.024754 0.000000
# 6 0.000000 0.000000 0.000000 0.000000 0.000000 0.043241
#
#
# Mechanical properties :
#
#
# Convention : Reuss Voigt Hill
#
# Bulk Modulus (GPa) = 36.62423 56.12370 46.37397
# Shear Modulus (GPa) = 24.69583 29.45469 27.07526
#
# Velocity S-wave (km/s) = 3.65195 3.98832 3.82383
# Velocity P-wave (km/s) = 6.12869 7.17760 6.67378
#
# Compressibility (1/GPa) = 0.02730433
#
# Stress axis : x y z
#
# Youngs Moduli (GPa) = 34.36820 91.72224 46.47683
#
# Poissons Ratio (x) = 0.43800 0.21009
# Poissons Ratio (y) = 0.16412 0.36298
# Poissons Ratio (z) = 0.15535 0.71635
#
# Static dielectric constant tensor:
#      x y z
#    x 3.216270 0.000000 0.000000 
#    y 0.000000 3.643780 0.000000 
#    z 0.000000 0.000000 3.419690 
# 
# 
# High freq. dielectric constant tensor:
#      x y z
#    x 1.705650 0.000000 0.000000 
#    y 0.000000 1.717770 0.000000 
#    z 0.000000 0.000000 1.701870 
# 
# From -- ./inp_files/68145.got.cif
#   From: 2010.03.12/outbox.cif.g09.slc.cpg/sg65_35_cif.got.tgz:68145.got - 2010.04.10 20:52:16.
