data_PCOD8269545
_publ_section_title
;
Structure prediction by ZEFSAII (Michael W. Deem and Ramdas Pophale) SiO2 
 PCOD8269545
Probable space group: C M M M
;
_chemical_formula_sum "Si O2"
_cell_formula_units_Z 80
_cell_length_a 17.647123
_cell_length_b 17.595494
_cell_length_c 14.251284
_cell_angle_alpha 90.000000
_cell_angle_beta 90.000000
_cell_angle_gamma 90.000000
_cell_volume 4425.164012
_symmetry_space_group_name_H-M "C M M M"
_symmetry_group_IT_number 65
_symmetry_cell_setting 'orthorhombic'
loop_
_space_group_symop_operation_xyz
x,y,z
-x,-y,z
x,-y,-z
-x,y,-z
-x,-y,-z
x,y,-z
-x,y,z
x,-y,z
1/2+x,1/2+y,z
1/2-x,1/2-y,z
1/2+x,1/2-y,-z
1/2-x,1/2+y,-z
1/2-x,1/2-y,-z
1/2+x,1/2+y,-z
1/2-x,1/2+y,z
1/2+x,1/2-y,z
loop_
_atom_site_type_symbol
_atom_site_label
_atom_site_fract_x
_atom_site_fract_y
_atom_site_fract_z
Si Si1 0.915521 0.000000 0.388200
Si Si2 0.841542 0.412684 0.610880
Si Si3 0.918045 0.500000 0.889717
Si Si4 0.412912 0.776748 0.295509
Si Si5 0.175475 0.143600 0.610506
Si Si6 0.910167 0.661857 0.103177
O O1 0.874689 0.925253 0.349647
O O2 0.912372 0.000000 0.500000
O O3 0.000000 0.000000 0.348544
O O4 0.854454 0.411553 0.500000
O O5 0.846008 0.500000 0.647429
O O6 0.905160 0.361259 0.660534
O O7 0.761360 0.374767 0.637345
O O8 0.874209 0.420688 0.866228
O O9 0.000000 0.500000 0.838069
O O10 0.931383 0.500000 0.000000
O O11 0.500000 0.750301 0.310947
O O12 0.353284 0.720783 0.343103
O O13 0.391355 0.777728 0.184554
O O14 0.165569 0.153757 0.500000
O O15 0.000000 0.649669 0.097219
O O16 0.879964 0.688842 0.000000
#
# Coordination Sequence:
#
# PCOD8269545 Si02
#       6
#     8  16   8  16  16  16
#     4   9  16  28  51  76  96 122 165 225 265 276
#     4  10  21  37  53  69  98 144 182 201 238 307
#     4   7  10  20  39  58  81 119 160 191 220 268
#     4  11  22  31  49  81 108 130 163 211 262 302
#     4  10  19  35  53  71  99 136 176 211 251 303
#     4   8  15  28  45  68  99 132 165 202 249 302
#
# _framework density 18.078426
#
# number of rings (size 3 to 8) (size 9 to 14) (size 15 to 20)
#    0.000    2.600    1.000    3.000    1.400    4.400 
#    0.000    1.000    0.000    2.400    0.000    0.700 
#    0.000    4.000    0.000    0.000    0.000    0.000 
#
# Total GULP energy -495619.934075 kJ/mol
# GULP energy per Si atom -12390.498352 kJ/mol
# Density = 1.803728 g / cm^3
# Si number density = 18.078426 Si / 1000 Ang^3
#
#
#
# Elastic Constant Matrix: (Units=GPa)
#
#
# Indices 1 2 3 4 5 6 
#
# 1 34.2431 12.0382 11.7478 0.0000 0.0000 0.0000
# 2 12.0382 90.2685 26.2114 0.0000 0.0000 0.0000
# 3 11.7478 26.2114 38.3213 0.0000 0.0000 0.0000
# 4 0.0000 0.0000 0.0000 14.5706 0.0000 0.0000
# 5 0.0000 0.0000 0.0000 0.0000 8.9258 0.0000
# 6 0.0000 0.0000 0.0000 0.0000 0.0000 29.9541
#
#
#
# Elastic Compliance Matrix: (Units=1/GPa)
#
#
# Indices 1 2 3 4 5 6 
#
# 1 0.032873 -0.001819 -0.008833 0.000000 0.000000 0.000000
# 2 -0.001819 0.013924 -0.008966 0.000000 0.000000 0.000000
# 3 -0.008833 -0.008966 0.034936 0.000000 0.000000 0.000000
# 4 0.000000 0.000000 0.000000 0.068631 0.000000 0.000000
# 5 0.000000 0.000000 0.000000 0.000000 0.112034 0.000000
# 6 0.000000 0.000000 0.000000 0.000000 0.000000 0.033384
#
#
# Mechanical properties :
#
#
# Convention : Reuss Voigt Hill
#
# Bulk Modulus (GPa) = 23.53182 29.20307 26.36745
# Shear Modulus (GPa) = 14.31900 18.21246 16.26573
#
# Velocity S-wave (km/s) = 2.81739 3.17742 3.00281
# Velocity P-wave (km/s) = 4.86090 5.44518 5.16131
#
# Compressibility (1/GPa) = 0.04249566
#
# Stress axis : x y z
#
# Youngs Moduli (GPa) = 30.42014 71.81730 28.62367
#
# Poissons Ratio (x) = 0.13063 0.25285
# Poissons Ratio (y) = 0.05533 0.25665
# Poissons Ratio (z) = 0.26872 0.64394
#
# Static dielectric constant tensor:
#      x y z
#    x 3.066810 0.000000 0.000000 
#    y 0.000000 3.473180 0.000000 
#    z 0.000000 0.000000 3.273900 
# 
# 
# High freq. dielectric constant tensor:
#      x y z
#    x 1.669090 0.000000 0.000000 
#    y 0.000000 1.703560 0.000000 
#    z 0.000000 0.000000 1.678330 
# 
# From -- ./inp_files/42377.got.cif
#   From: 2010.03.12/outbox.cif.g09.slc.cpg/sg65_22_cif.got.tgz:42377.got - 2010.04.10 20:52:16.
