data_PCOD8269101
_publ_section_title
;
Structure prediction by ZEFSAII (Michael W. Deem and Ramdas Pophale) SiO2 
 PCOD8269101
Probable space group: C M M M
;
_chemical_formula_sum "Si O2"
_cell_formula_units_Z 120
_cell_length_a 26.209099
_cell_length_b 8.959076
_cell_length_c 27.237194
_cell_angle_alpha 90.000000
_cell_angle_beta 90.000000
_cell_angle_gamma 90.000000
_cell_volume 6395.546725
_symmetry_space_group_name_H-M "C M M M"
_symmetry_group_IT_number 65
_symmetry_cell_setting 'orthorhombic'
loop_
_space_group_symop_operation_xyz
x,y,z
-x,-y,z
x,-y,-z
-x,y,-z
-x,-y,-z
x,y,-z
-x,y,z
x,-y,z
1/2+x,1/2+y,z
1/2-x,1/2-y,z
1/2+x,1/2-y,-z
1/2-x,1/2+y,-z
1/2-x,1/2-y,-z
1/2+x,1/2+y,-z
1/2-x,1/2+y,z
1/2+x,1/2-y,z
loop_
_atom_site_type_symbol
_atom_site_label
_atom_site_fract_x
_atom_site_fract_y
_atom_site_fract_z
Si Si1 0.500000 0.822876 0.554739
Si Si2 0.848006 0.824797 0.053588
Si Si3 0.441112 0.673769 0.291233
Si Si4 0.801859 0.324414 0.556076
Si Si5 0.901871 0.677238 0.614793
Si Si6 0.556963 0.172252 0.908197
Si Si7 0.601846 0.826173 0.803256
Si Si8 0.697616 0.677450 0.845576
O O1 0.500000 0.755081 0.500000
O O2 0.550743 0.766539 0.582018
O O3 0.500000 0.000000 0.552197
O O4 0.905021 0.762566 0.057318
O O5 0.813412 0.764987 0.098482
O O6 0.852308 0.000000 0.058326
O O7 0.825236 0.778495 0.000000
O O8 0.500000 0.700531 0.305651
O O9 0.428824 0.500000 0.284180
O O10 0.404768 0.741055 0.333099
O O11 0.429963 0.760541 0.241402
O O12 0.812291 0.274415 0.500000
O O13 0.794799 0.500000 0.559620
O O14 0.750000 0.250000 0.576273
O O15 0.849593 0.271735 0.588756
O O16 0.903795 0.500000 0.622739
O O17 0.500000 0.227618 0.919809
O O18 0.567643 0.200697 0.851018
O O19 0.563884 0.000000 0.921327
O O20 0.654780 0.737279 0.808688
O O21 0.613702 0.000000 0.794541
O O22 0.700749 0.500000 0.842229
O O23 0.750000 0.750000 0.828039
#
# Coordination Sequence:
#
# PCOD8269101 Si02
#       8
#     8  16  16  16  16  16  16  16
#     4   9  16  28  51  81 109 139 179 229 276 319
#     4   9  19  34  50  72 104 140 176 213 256 311
#     4  11  23  37  54  79 113 146 176 216 270 329
#     4   9  18  33  54  80 108 141 183 227 269 316
#     4  10  19  33  54  80 109 143 185 227 270 324
#     4   9  18  32  50  74 102 132 170 217 264 313
#     4  10  20  36  58  80 102 134 178 223 268 320
#     4  10  20  36  57  80 107 137 173 219 269 319
#
# _framework density 18.763055999999999
#
# number of rings (size 3 to 8) (size 9 to 14) (size 15 to 20)
#    0.000    2.333    0.667    2.000    0.000    5.600 
#    0.000    2.000    0.000    3.200    0.000    0.000 
#    0.000    0.000    0.000    0.000    0.000    0.000 
#
# Total GULP energy -744042.213411 kJ/mol
# GULP energy per Si atom -12400.703557 kJ/mol
# Density = 1.872035 g / cm^3
# Si number density = 18.763056 Si / 1000 Ang^3
#
#
#
# Elastic Constant Matrix: (Units=GPa)
#
#
# Indices 1 2 3 4 5 6 
#
# 1 96.7923 21.3219 19.2496 0.0000 0.0000 0.0000
# 2 21.3219 46.3614 28.3620 0.0000 0.0000 0.0000
# 3 19.2496 28.3620 68.0137 0.0000 0.0000 0.0000
# 4 0.0000 0.0000 0.0000 25.8497 0.0000 0.0000
# 5 0.0000 0.0000 0.0000 0.0000 17.5428 0.0000
# 6 0.0000 0.0000 0.0000 0.0000 0.0000 32.0649
#
#
#
# Elastic Compliance Matrix: (Units=1/GPa)
#
#
# Indices 1 2 3 4 5 6 
#
# 1 0.011597 -0.004465 -0.001421 0.000000 0.000000 0.000000
# 2 -0.004465 0.030675 -0.011528 0.000000 0.000000 0.000000
# 3 -0.001421 -0.011528 0.019912 0.000000 0.000000 0.000000
# 4 0.000000 0.000000 0.000000 0.038685 0.000000 0.000000
# 5 0.000000 0.000000 0.000000 0.000000 0.057004 0.000000
# 6 0.000000 0.000000 0.000000 0.000000 0.000000 0.031187
#
#
# Mechanical properties :
#
#
# Convention : Reuss Voigt Hill
#
# Bulk Modulus (GPa) = 36.55201 38.78161 37.66681
# Shear Modulus (GPa) = 21.45857 24.57371 23.01614
#
# Velocity S-wave (km/s) = 3.38547 3.62288 3.50619
# Velocity P-wave (km/s) = 5.89958 6.18178 6.04233
#
# Compressibility (1/GPa) = 0.02735828
#
# Stress axis : x y z
#
# Youngs Moduli (GPa) = 86.22604 32.59933 50.22020
#
# Poissons Ratio (x) = 0.14555 0.07134
# Poissons Ratio (y) = 0.38497 0.57895
# Poissons Ratio (z) = 0.12249 0.37581
#
# Static dielectric constant tensor:
#      x y z
#    x 3.492620 0.000000 0.000000 
#    y 0.000000 3.317510 0.000000 
#    z 0.000000 0.000000 3.485650 
# 
# 
# High freq. dielectric constant tensor:
#      x y z
#    x 1.728520 0.000000 0.000000 
#    y 0.000000 1.719830 0.000000 
#    z 0.000000 0.000000 1.724420 
# 
# From -- ./inp_files/76180.got.cif
#   From: 2010.03.12/outbox.cif.g09.slc.cpg/sg65_39_cif.got.tgz:76180.got - 2010.04.10 20:52:16.
