data_PCOD8269505
_publ_section_title
;
Structure prediction by ZEFSAII (Michael W. Deem and Ramdas Pophale) SiO2 
 PCOD8269505
Probable space group: C M M M
;
_chemical_formula_sum "Si O2"
_cell_formula_units_Z 88
_cell_length_a 18.158107
_cell_length_b 28.375790
_cell_length_c 8.685519
_cell_angle_alpha 90.000000
_cell_angle_beta 90.000000
_cell_angle_gamma 90.000000
_cell_volume 4475.219146
_symmetry_space_group_name_H-M "C M M M"
_symmetry_group_IT_number 65
_symmetry_cell_setting 'orthorhombic'
loop_
_space_group_symop_operation_xyz
x,y,z
-x,-y,z
x,-y,-z
-x,y,-z
-x,-y,-z
x,y,-z
-x,y,z
x,-y,z
1/2+x,1/2+y,z
1/2-x,1/2-y,z
1/2+x,1/2-y,-z
1/2-x,1/2+y,-z
1/2-x,1/2-y,-z
1/2+x,1/2+y,-z
1/2-x,1/2+y,z
1/2+x,1/2-y,z
loop_
_atom_site_type_symbol
_atom_site_label
_atom_site_fract_x
_atom_site_fract_y
_atom_site_fract_z
Si Si1 0.137513 0.390258 0.180903
Si Si2 0.916900 0.055285 0.824222
Si Si3 0.313619 0.282674 0.680565
Si Si4 0.000000 0.445687 0.318088
Si Si5 0.209421 0.113181 0.680567
Si Si6 0.083095 0.702497 0.680360
O O1 0.073368 0.421035 0.256466
O O2 0.217789 0.407608 0.236896
O O3 0.131051 0.335573 0.228379
O O4 0.130989 0.396315 0.000000
O O5 0.859988 0.080120 0.711115
O O6 0.000000 0.071185 0.781776
O O7 0.908760 0.000000 0.799977
O O8 0.899046 0.069083 0.000000
O O9 0.300285 0.287753 0.500000
O O10 0.250000 0.250000 0.753277
O O11 0.311257 0.335173 0.750068
O O12 0.390096 0.255708 0.716598
O O13 0.000000 0.500000 0.265237
O O14 0.000000 0.440520 0.500000
O O15 0.225422 0.114739 0.500000
O O16 0.091191 0.691250 0.500000
O O17 0.000000 0.698429 0.737906
#
# Coordination Sequence:
#
# PCOD8269505 Si02
#       6
#    16  16  16   8  16  16
#     4  12  24  38  59  87 121 158 198 243 301 363
#     4   9  20  41  65  87 118 159 196 237 302 373
#     4   9  17  32  54  82 114 152 196 240 288 339
#     4  11  25  45  67  89 115 151 201 257 308 359
#     4  11  22  37  62  92 123 157 204 254 295 349
#     4  10  19  34  58  82 111 155 205 246 287 347
#
# _framework density 19.66384
#
# number of rings (size 3 to 8) (size 9 to 14) (size 15 to 20)
#    0.000    1.727    2.727    3.000    0.000    2.909 
#    0.000    5.455    0.000    0.000    0.000    0.000 
#    0.000    0.000    0.000    0.000    0.000    0.000 
#
# Total GULP energy -545588.518944 kJ/mol
# GULP energy per Si atom -12399.739067 kJ/mol
# Density = 1.961908 g / cm^3
# Si number density = 19.663840 Si / 1000 Ang^3
#
#
#
# Elastic Constant Matrix: (Units=GPa)
#
#
# Indices 1 2 3 4 5 6 
#
# 1 131.1027 51.2605 32.9085 0.0000 0.0000 0.0000
# 2 51.2605 89.3321 31.0935 0.0000 0.0000 0.0000
# 3 32.9085 31.0935 63.5146 0.0000 0.0000 0.0000
# 4 0.0000 0.0000 0.0000 10.2194 0.0000 0.0000
# 5 0.0000 0.0000 0.0000 0.0000 30.9209 0.0000
# 6 0.0000 0.0000 0.0000 0.0000 0.0000 32.6609
#
#
#
# Elastic Compliance Matrix: (Units=1/GPa)
#
#
# Indices 1 2 3 4 5 6 
#
# 1 0.010269 -0.004871 -0.002936 0.000000 0.000000 0.000000
# 2 -0.004871 0.015803 -0.005213 0.000000 0.000000 0.000000
# 3 -0.002936 -0.005213 0.019818 0.000000 0.000000 0.000000
# 4 0.000000 0.000000 0.000000 0.097853 0.000000 0.000000
# 5 0.000000 0.000000 0.000000 0.000000 0.032341 0.000000
# 6 0.000000 0.000000 0.000000 0.000000 0.000000 0.030618
#
#
# Mechanical properties :
#
#
# Convention : Reuss Voigt Hill
#
# Bulk Modulus (GPa) = 50.37628 57.16384 53.77006
# Shear Modulus (GPa) = 20.88917 26.00603 23.44760
#
# Velocity S-wave (km/s) = 3.26285 3.64061 3.45689
# Velocity P-wave (km/s) = 6.31421 6.84147 6.58312
#
# Compressibility (1/GPa) = 0.01985061
#
# Stress axis : x y z
#
# Youngs Moduli (GPa) = 97.38048 63.27722 50.45969
#
# Poissons Ratio (x) = 0.30819 0.14816
# Poissons Ratio (y) = 0.47429 0.26305
# Poissons Ratio (z) = 0.28593 0.32987
#
# Static dielectric constant tensor:
#      x y z
#    x 3.701840 0.000000 0.000000 
#    y 0.000000 3.663390 0.000000 
#    z 0.000000 0.000000 3.339030 
# 
# 
# High freq. dielectric constant tensor:
#      x y z
#    x 1.779420 0.000000 0.000000 
#    y 0.000000 1.764290 0.000000 
#    z 0.000000 0.000000 1.743570 
# 
# From -- ./inp_files/10092.got.cif
#   From: 2010.03.12/outbox.cif.g09.slc.cpg/sg65_6_cif.got.tgz:10092.got - 2010.04.10 20:52:16.
