data_PCOD8269069
_publ_section_title
;
Structure prediction by ZEFSAII (Michael W. Deem and Ramdas Pophale) SiO2 
 PCOD8269069
Probable space group: C M M M
;
_chemical_formula_sum "Si O2"
_cell_formula_units_Z 72
_cell_length_a 16.291347
_cell_length_b 24.580121
_cell_length_c 9.759186
_cell_angle_alpha 90.000000
_cell_angle_beta 90.000000
_cell_angle_gamma 90.000000
_cell_volume 3908.000457
_symmetry_space_group_name_H-M "C M M M"
_symmetry_group_IT_number 65
_symmetry_cell_setting 'orthorhombic'
loop_
_space_group_symop_operation_xyz
x,y,z
-x,-y,z
x,-y,-z
-x,y,-z
-x,-y,-z
x,y,-z
-x,y,z
x,-y,z
1/2+x,1/2+y,z
1/2-x,1/2-y,z
1/2+x,1/2-y,-z
1/2-x,1/2+y,-z
1/2-x,1/2-y,-z
1/2+x,1/2+y,-z
1/2-x,1/2+y,z
1/2+x,1/2-y,z
loop_
_atom_site_type_symbol
_atom_site_label
_atom_site_fract_x
_atom_site_fract_y
_atom_site_fract_z
Si Si1 0.171861 0.061857 0.155512
Si Si2 0.694913 0.103114 0.659616
Si Si3 0.500000 0.387184 0.846665
Si Si4 0.335082 0.225584 0.659910
Si Si5 0.500000 0.283366 0.664098
Si Si6 0.091223 0.500000 0.337436
O O1 0.220776 0.101336 0.256826
O O2 0.076612 0.073534 0.173612
O O3 0.189098 0.000000 0.198786
O O4 0.200713 0.072617 0.000000
O O5 0.715670 0.095867 0.500000
O O6 0.654602 0.161476 0.689266
O O7 0.635889 0.054901 0.713490
O O8 0.500000 0.342331 0.729757
O O9 0.500000 0.361048 0.000000
O O10 0.331806 0.237967 0.500000
O O11 0.250000 0.250000 0.724914
O O12 0.417648 0.253236 0.719136
O O13 0.500000 0.287837 0.500000
O O14 0.086844 0.500000 0.500000
O O15 0.000000 0.500000 0.274282
#
# Coordination Sequence:
#
# PCOD8269069 Si02
#       6
#    16  16   8  16   8   8
#     4  10  20  35  54  76 105 139 175 213 261 316
#     4  10  19  33  54  78 106 136 174 217 258 309
#     4  10  21  36  54  76 103 139 177 216 261 314
#     4   9  18  31  49  75 104 133 167 210 259 307
#     4  10  20  35  55  78 104 137 175 217 264 308
#     4   9  18  30  49  78 105 132 166 211 261 305
#
# _framework density 18.423743000000002
#
# number of rings (size 3 to 8) (size 9 to 14) (size 15 to 20)
#    0.000    2.333    1.111    1.667    1.556    4.000 
#    0.000    1.111    0.000    7.333    0.000    0.000 
#    0.000    0.000    0.000    0.000    0.000    0.000 
#
# Total GULP energy -446336.471045 kJ/mol
# GULP energy per Si atom -12398.235307 kJ/mol
# Density = 1.838181 g / cm^3
# Si number density = 18.423743 Si / 1000 Ang^3
#
#
#
# Elastic Constant Matrix: (Units=GPa)
#
#
# Indices 1 2 3 4 5 6 
#
# 1 116.3097 27.9252 23.8400 0.0000 0.0000 0.0000
# 2 27.9252 85.3511 22.4305 0.0000 0.0000 0.0000
# 3 23.8400 22.4305 39.3103 0.0000 0.0000 0.0000
# 4 0.0000 0.0000 0.0000 18.0385 0.0000 0.0000
# 5 0.0000 0.0000 0.0000 0.0000 19.3577 0.0000
# 6 0.0000 0.0000 0.0000 0.0000 0.0000 19.0296
#
#
#
# Elastic Compliance Matrix: (Units=1/GPa)
#
#
# Indices 1 2 3 4 5 6 
#
# 1 0.010099 -0.001993 -0.004987 0.000000 0.000000 0.000000
# 2 -0.001993 0.014177 -0.006880 0.000000 0.000000 0.000000
# 3 -0.004987 -0.006880 0.032389 0.000000 0.000000 0.000000
# 4 0.000000 0.000000 0.000000 0.055437 0.000000 0.000000
# 5 0.000000 0.000000 0.000000 0.000000 0.051659 0.000000
# 6 0.000000 0.000000 0.000000 0.000000 0.000000 0.052550
#
#
# Mechanical properties :
#
#
# Convention : Reuss Voigt Hill
#
# Bulk Modulus (GPa) = 34.55085 43.26248 38.90667
# Shear Modulus (GPa) = 19.71000 22.40354 21.05677
#
# Velocity S-wave (km/s) = 3.27435 3.49092 3.38437
# Velocity P-wave (km/s) = 5.75233 6.30727 6.03618
#
# Compressibility (1/GPa) = 0.02894285
#
# Stress axis : x y z
#
# Youngs Moduli (GPa) = 99.02460 70.53834 30.87489
#
# Poissons Ratio (x) = 0.14062 0.15397
# Poissons Ratio (y) = 0.19740 0.21243
# Poissons Ratio (z) = 0.49382 0.48532
#
# Static dielectric constant tensor:
#      x y z
#    x 3.634800 0.000000 0.000000 
#    y 0.000000 3.386230 0.000000 
#    z 0.000000 0.000000 3.034600 
# 
# 
# High freq. dielectric constant tensor:
#      x y z
#    x 1.725550 0.000000 0.000000 
#    y 0.000000 1.722910 0.000000 
#    z 0.000000 0.000000 1.671070 
# 
# From -- ./inp_files/7368.got.cif
#   From: 2010.03.12/outbox.cif.g09.slc.cpg/sg65_4_cif.got.tgz:7368.got - 2010.04.10 20:52:16.
