data_PCOD8269144
_publ_section_title
;
Structure prediction by ZEFSAII (Michael W. Deem and Ramdas Pophale) SiO2 
 PCOD8269144
Probable space group: C M M M
;
_chemical_formula_sum "Si O2"
_cell_formula_units_Z 80
_cell_length_a 8.919464
_cell_length_b 18.248932
_cell_length_c 26.239068
_cell_angle_alpha 90.000000
_cell_angle_beta 90.000000
_cell_angle_gamma 90.000000
_cell_volume 4270.951256
_symmetry_space_group_name_H-M "C M M M"
_symmetry_group_IT_number 65
_symmetry_cell_setting 'orthorhombic'
loop_
_space_group_symop_operation_xyz
x,y,z
-x,-y,z
x,-y,-z
-x,y,-z
-x,-y,-z
x,y,-z
-x,y,z
x,-y,z
1/2+x,1/2+y,z
1/2-x,1/2-y,z
1/2+x,1/2-y,-z
1/2-x,1/2+y,-z
1/2-x,1/2-y,-z
1/2+x,1/2+y,-z
1/2-x,1/2+y,z
1/2+x,1/2-y,z
loop_
_atom_site_type_symbol
_atom_site_label
_atom_site_fract_x
_atom_site_fract_y
_atom_site_fract_z
Si Si1 0.671367 0.413526 0.000000
Si Si2 0.675633 0.085152 0.591171
Si Si3 0.824296 0.328666 0.689584
Si Si4 0.173537 0.326876 0.799417
Si Si5 0.822530 0.829403 0.500000
Si Si6 0.177154 0.329800 0.090119
O O1 0.753140 0.384915 0.949926
O O2 0.683237 0.500000 0.000000
O O3 0.500000 0.386506 0.000000
O O4 0.500000 0.098992 0.580904
O O5 0.726890 0.114448 0.646470
O O6 0.772087 0.126967 0.549627
O O7 0.715123 0.000000 0.588383
O O8 0.750000 0.250000 0.680687
O O9 0.781583 0.364990 0.745321
O O10 0.000000 0.314925 0.685751
O O11 0.250000 0.250000 0.799826
O O12 0.213471 0.365468 0.853504
O O13 0.000000 0.310301 0.798952
O O14 0.750000 0.750000 0.500000
O O15 0.000000 0.820835 0.500000
O O16 0.250000 0.250000 0.083711
O O17 0.000000 0.322532 0.080692
#
# Coordination Sequence:
#
# PCOD8269144 Si02
#       6
#     8  16  16  16   8  16
#     4  11  24  39  52  69  99 137 174 215 264 315
#     4  10  21  37  56  79 110 145 177 212 257 308
#     4   9  17  31  52  78 106 137 173 211 253 301
#     4   8  15  28  48  76 105 132 166 209 254 299
#     4  12  25  40  59  81 105 135 175 222 267 312
#     4  10  19  33  55  80 105 134 171 214 258 307
#
# _framework density 18.731190000000002
#
# number of rings (size 3 to 8) (size 9 to 14) (size 15 to 20)
#    0.000    2.300    0.000    3.000    0.000    5.600 
#    0.000    1.000    0.000    3.600    0.000    0.000 
#    0.000    0.000    0.000    0.000    0.000    0.000 
#
# Total GULP energy -495559.207280 kJ/mol
# GULP energy per Si atom -12388.980182 kJ/mol
# Density = 1.868856 g / cm^3
# Si number density = 18.731190 Si / 1000 Ang^3
#
#
#
# Elastic Constant Matrix: (Units=GPa)
#
#
# Indices 1 2 3 4 5 6 
#
# 1 79.8350 45.3376 69.9248 0.0000 0.0000 0.0000
# 2 45.3376 91.2316 71.5274 0.0000 0.0000 0.0000
# 3 69.9248 71.5274 203.1638 0.0000 0.0000 0.0000
# 4 0.0000 0.0000 0.0000 -12.1609 0.0000 0.0000
# 5 0.0000 0.0000 0.0000 0.0000 54.1127 0.0000
# 6 0.0000 0.0000 0.0000 0.0000 0.0000 23.6359
#
#
#
# Elastic Compliance Matrix: (Units=1/GPa)
#
#
# Indices 1 2 3 4 5 6 
#
# 1 0.020297 -0.006367 -0.004744 0.000000 0.000000 0.000000
# 2 -0.006367 0.017138 -0.003842 0.000000 0.000000 0.000000
# 3 -0.004744 -0.003842 0.007908 0.000000 0.000000 0.000000
# 4 0.000000 0.000000 0.000000 -0.082231 0.000000 0.000000
# 5 0.000000 0.000000 0.000000 0.000000 0.018480 0.000000
# 6 0.000000 0.000000 0.000000 0.000000 0.000000 0.042308
#
#
# Mechanical properties :
#
#
# Convention : Reuss Voigt Hill
#
# Bulk Modulus (GPa) = 64.78618 83.09000 73.93809
# Shear Modulus (GPa) = 84.81564 25.61359 55.21462
#
# Velocity S-wave (km/s) = 6.73637 3.70189 5.43520
# Velocity P-wave (km/s) = 9.75538 7.92007 8.88524
#
# Compressibility (1/GPa) = 0.01543539
#
# Stress axis : x y z
#
# Youngs Moduli (GPa) = 49.26870 58.35136 126.45944
#
# Poissons Ratio (x) = 0.37153 0.59994
# Poissons Ratio (y) = 0.31370 0.48588
# Poissons Ratio (z) = 0.23374 0.22420
#
# Static dielectric constant tensor:
#      x y z
#    x 3.503680 0.000000 0.000000 
#    y 0.000000 3.137380 0.000000 
#    z 0.000000 0.000000 4.448840 
# 
# 
# High freq. dielectric constant tensor:
#      x y z
#    x 1.728640 0.000000 0.000000 
#    y 0.000000 1.691740 0.000000 
#    z 0.000000 0.000000 1.762280 
# 
# From -- ./inp_files/72878.got.cif
#   From: 2010.03.12/outbox.cif.g09.slc.cpg/sg65_37_cif.got.tgz:72878.got - 2010.04.10 20:52:16.
