data_PCOD8269126
_publ_section_title
;
Structure prediction by ZEFSAII (Michael W. Deem and Ramdas Pophale) SiO2 
 PCOD8269126
Probable space group: C M M M
;
_chemical_formula_sum "Si O2"
_cell_formula_units_Z 104
_cell_length_a 29.566792
_cell_length_b 8.842869
_cell_length_c 20.704069
_cell_angle_alpha 90.000000
_cell_angle_beta 90.000000
_cell_angle_gamma 90.000000
_cell_volume 5413.187917
_symmetry_space_group_name_H-M "C M M M"
_symmetry_group_IT_number 65
_symmetry_cell_setting 'orthorhombic'
loop_
_space_group_symop_operation_xyz
x,y,z
-x,-y,z
x,-y,-z
-x,y,-z
-x,-y,-z
x,y,-z
-x,y,z
x,-y,z
1/2+x,1/2+y,z
1/2-x,1/2-y,z
1/2+x,1/2-y,-z
1/2-x,1/2+y,-z
1/2-x,1/2-y,-z
1/2+x,1/2+y,-z
1/2-x,1/2+y,z
1/2+x,1/2-y,z
loop_
_atom_site_type_symbol
_atom_site_label
_atom_site_fract_x
_atom_site_fract_y
_atom_site_fract_z
Si Si1 0.202806 0.177791 0.330883
Si Si2 0.549935 0.321197 0.266531
Si Si3 0.549227 0.319923 0.876775
Si Si4 0.859239 0.179935 0.070260
Si Si5 0.391806 0.320618 0.383465
Si Si6 0.796952 0.820781 0.815452
Si Si7 0.947254 0.320715 0.500000
O O1 0.250000 0.250000 0.354928
O O2 0.161622 0.223285 0.379161
O O3 0.190395 0.230171 0.257611
O O4 0.210033 0.000000 0.331883
O O5 0.500000 0.271677 0.290168
O O6 0.553591 0.500000 0.263727
O O7 0.559437 0.256265 0.195186
O O8 0.586754 0.260522 0.316705
O O9 0.500000 0.261291 0.900937
O O10 0.548411 0.500000 0.873807
O O11 0.588830 0.263196 0.923788
O O12 0.831736 0.245044 0.131300
O O13 0.857318 0.000000 0.072826
O O14 0.841058 0.236637 0.000000
O O15 0.397510 0.500000 0.393081
O O16 0.418988 0.237784 0.439286
O O17 0.750000 0.750000 0.836469
O O18 0.794250 0.000000 0.819483
O O19 0.946989 0.500000 0.500000
O O20 0.000000 0.262953 0.500000
#
# Coordination Sequence:
#
# PCOD8269126 Si02
#       7
#    16  16  16  16  16  16   8
#     4   9  18  32  52  77 101 126 161 206 252 294
#     4   8  13  22  40  66  90 112 146 197 248 284
#     4   8  13  21  34  56  87 118 149 191 243 292
#     4   9  16  24  35  54  84 124 163 195 233 284
#     4  10  19  33  55  78  98 127 169 208 239 280
#     4   9  17  30  47  68  96 126 157 198 245 288
#     4  11  25  41  54  75 110 143 164 187 230 285
#
# _framework density 19.212337999999999
#
# number of rings (size 3 to 8) (size 9 to 14) (size 15 to 20)
#    0.000    3.000    0.000    2.538    0.000    6.154 
#    0.000    1.923    0.000    0.000    0.000    0.000 
#    0.000    0.615    0.000    1.385    0.000    1.538 
#
# Total GULP energy -644181.283546 kJ/mol
# GULP energy per Si atom -12388.101607 kJ/mol
# Density = 1.916861 g / cm^3
# Si number density = 19.212338 Si / 1000 Ang^3
#
#
#
# Elastic Constant Matrix: (Units=GPa)
#
#
# Indices 1 2 3 4 5 6 
#
# 1 146.6630 24.6713 64.6208 0.0000 0.0000 0.0000
# 2 24.6713 16.9174 17.0133 0.0000 0.0000 0.0000
# 3 64.6208 17.0133 82.7649 0.0000 0.0000 0.0000
# 4 0.0000 0.0000 0.0000 9.3316 0.0000 0.0000
# 5 0.0000 0.0000 0.0000 0.0000 31.2214 0.0000
# 6 0.0000 0.0000 0.0000 0.0000 0.0000 20.7252
#
#
#
# Elastic Compliance Matrix: (Units=1/GPa)
#
#
# Indices 1 2 3 4 5 6 
#
# 1 0.011555 -0.009805 -0.007006 0.000000 0.000000 0.000000
# 2 -0.009805 0.082835 -0.009372 0.000000 0.000000 0.000000
# 3 -0.007006 -0.009372 0.019479 0.000000 0.000000 0.000000
# 4 0.000000 0.000000 0.000000 0.107163 0.000000 0.000000
# 5 0.000000 0.000000 0.000000 0.000000 0.032029 0.000000
# 6 0.000000 0.000000 0.000000 0.000000 0.000000 0.048250
#
#
# Mechanical properties :
#
#
# Convention : Reuss Voigt Hill
#
# Bulk Modulus (GPa) = 16.25956 50.99515 33.62736
# Shear Modulus (GPa) = 13.36261 21.59163 17.47712
#
# Velocity S-wave (km/s) = 2.64014 3.35601 3.01937
# Velocity P-wave (km/s) = 4.21607 6.45117 5.44944
#
# Compressibility (1/GPa) = 0.06150227
#
# Stress axis : x y z
#
# Youngs Moduli (GPa) = 86.54544 12.07220 51.33679
#
# Poissons Ratio (x) = 0.11837 0.35967
# Poissons Ratio (y) = 0.84856 0.48115
# Poissons Ratio (z) = 0.60634 0.11315
#
# Static dielectric constant tensor:
#      x y z
#    x 3.803890 0.000000 0.000000 
#    y 0.000000 2.909410 0.000000 
#    z 0.000000 0.000000 3.801920 
# 
# 
# High freq. dielectric constant tensor:
#      x y z
#    x 1.761090 0.000000 0.000000 
#    y 0.000000 1.679530 0.000000 
#    z 0.000000 0.000000 1.743060 
# 
# From -- ./inp_files/66414.got.cif
#   From: 2010.03.12/outbox.cif.g09.slc.cpg/sg65_34_cif.got.tgz:66414.got - 2010.04.10 20:52:16.
