data_PCOD8269964
_publ_section_title
;
Structure prediction by ZEFSAII (Michael W. Deem and Ramdas Pophale) SiO2 
 PCOD8269964
Probable space group: C M M M
;
_chemical_formula_sum "Si O2"
_cell_formula_units_Z 88
_cell_length_a 18.864738
_cell_length_b 9.555131
_cell_length_c 28.368968
_cell_angle_alpha 90.000000
_cell_angle_beta 90.000000
_cell_angle_gamma 90.000000
_cell_volume 5113.649543
_symmetry_space_group_name_H-M "C M M M"
_symmetry_group_IT_number 65
_symmetry_cell_setting 'orthorhombic'
loop_
_space_group_symop_operation_xyz
x,y,z
-x,-y,z
x,-y,-z
-x,y,-z
-x,-y,-z
x,y,-z
-x,y,z
x,-y,z
1/2+x,1/2+y,z
1/2-x,1/2-y,z
1/2+x,1/2-y,-z
1/2-x,1/2+y,-z
1/2-x,1/2-y,-z
1/2+x,1/2+y,-z
1/2-x,1/2+y,z
1/2+x,1/2-y,z
loop_
_atom_site_type_symbol
_atom_site_label
_atom_site_fract_x
_atom_site_fract_y
_atom_site_fract_z
Si Si1 0.420399 0.332571 0.398767
Si Si2 0.081532 0.838057 0.774817
Si Si3 0.916127 0.847277 0.500000
Si Si4 0.418487 0.161518 0.863132
Si Si5 0.822141 0.835040 0.685926
Si Si6 0.181742 0.661986 0.053150
O O1 0.500000 0.279396 0.386145
O O2 0.421733 0.500000 0.400938
O O3 0.395557 0.271500 0.450391
O O4 0.364778 0.280833 0.359883
O O5 0.110448 0.750687 0.819230
O O6 0.129308 0.798298 0.730452
O O7 0.000000 0.799522 0.762899
O O8 0.088772 0.000000 0.787905
O O9 0.000000 0.866003 0.500000
O O10 0.879641 0.000000 0.500000
O O11 0.500000 0.195908 0.872220
O O12 0.379845 0.206005 0.911105
O O13 0.405508 0.000000 0.850744
O O14 0.750000 0.750000 0.689899
O O15 0.805698 0.000000 0.683118
O O16 0.201852 0.500000 0.058307
O O17 0.250000 0.750000 0.067047
O O18 0.156027 0.696153 0.000000
#
# Coordination Sequence:
#
# PCOD8269964 Si02
#       6
#    16  16   8  16  16  16
#     4   8  13  24  44  67  89 115 150 190 227 263
#     4   9  18  33  51  68  87 116 154 191 226 265
#     4   7  10  18  37  66  91 109 140 189 232 260
#     4   9  18  32  50  72  95 118 147 186 230 271
#     4  10  20  32  46  66  93 122 151 185 225 270
#     4   9  18  32  49  69  94 124 155 185 219 263
#
# _framework density 17.208843999999999
#
# number of rings (size 3 to 8) (size 9 to 14) (size 15 to 20)
#    0.000    3.182    0.000    1.636    0.000    4.727 
#    0.000    5.909    0.000    1.636    0.000    5.091 
#    0.000    2.182    0.000    0.000    0.000    0.000 
#
# Total GULP energy -545323.021317 kJ/mol
# GULP energy per Si atom -12393.705030 kJ/mol
# Density = 1.716968 g / cm^3
# Si number density = 17.208844 Si / 1000 Ang^3
#
#
#
# Elastic Constant Matrix: (Units=GPa)
#
#
# Indices 1 2 3 4 5 6 
#
# 1 92.6002 39.7113 82.5594 0.0000 0.0000 0.0000
# 2 39.7113 35.8763 53.3373 0.0000 0.0000 0.0000
# 3 82.5594 53.3373 167.7562 0.0000 0.0000 0.0000
# 4 0.0000 0.0000 0.0000 16.5567 0.0000 0.0000
# 5 0.0000 0.0000 0.0000 0.0000 11.0504 0.0000
# 6 0.0000 0.0000 0.0000 0.0000 0.0000 25.2303
#
#
#
# Elastic Compliance Matrix: (Units=1/GPa)
#
#
# Indices 1 2 3 4 5 6 
#
# 1 0.023590 -0.016787 -0.006272 0.000000 0.000000 0.000000
# 2 -0.016787 0.064805 -0.012343 0.000000 0.000000 0.000000
# 3 -0.006272 -0.012343 0.012972 0.000000 0.000000 0.000000
# 4 0.000000 0.000000 0.000000 0.060399 0.000000 0.000000
# 5 0.000000 0.000000 0.000000 0.000000 0.090494 0.000000
# 6 0.000000 0.000000 0.000000 0.000000 0.000000 0.039635
#
#
# Mechanical properties :
#
#
# Convention : Reuss Voigt Hill
#
# Bulk Modulus (GPa) = 32.71902 71.93876 52.32889
# Shear Modulus (GPa) = 13.40883 18.60912 16.00897
#
# Velocity S-wave (km/s) = 2.79441 3.29199 3.05335
# Velocity P-wave (km/s) = 5.42824 7.50624 6.55017
#
# Compressibility (1/GPa) = 0.03056327
#
# Stress axis : x y z
#
# Youngs Moduli (GPa) = 42.39004 15.43086 77.08686
#
# Poissons Ratio (x) = 0.25904 0.48353
# Poissons Ratio (y) = 0.71160 0.95149
# Poissons Ratio (z) = 0.26589 0.19046
#
# Static dielectric constant tensor:
#      x y z
#    x 3.091000 0.000000 0.000000 
#    y 0.000000 2.922340 0.000000 
#    z 0.000000 0.000000 3.627310 
# 
# 
# High freq. dielectric constant tensor:
#      x y z
#    x 1.648290 0.000000 0.000000 
#    y 0.000000 1.627800 0.000000 
#    z 0.000000 0.000000 1.683670 
# 
# From -- ./inp_files/74259.got.cif
#   From: 2010.03.12/outbox.cif.g09.slc.cpg/sg65_38_cif.got.tgz:74259.got - 2010.04.10 20:52:16.
