data_PCOD8269141
_publ_section_title
;
Structure prediction by ZEFSAII (Michael W. Deem and Ramdas Pophale) SiO2 
 PCOD8269141
Probable space group: C M M M
;
_chemical_formula_sum "Si O2"
_cell_formula_units_Z 88
_cell_length_a 8.635550
_cell_length_b 15.579368
_cell_length_c 32.351292
_cell_angle_alpha 90.000000
_cell_angle_beta 90.000000
_cell_angle_gamma 90.000000
_cell_volume 4352.426728
_symmetry_space_group_name_H-M "C M M M"
_symmetry_group_IT_number 65
_symmetry_cell_setting 'orthorhombic'
loop_
_space_group_symop_operation_xyz
x,y,z
-x,-y,z
x,-y,-z
-x,y,-z
-x,-y,-z
x,y,-z
-x,y,z
x,-y,z
1/2+x,1/2+y,z
1/2-x,1/2-y,z
1/2+x,1/2-y,-z
1/2-x,1/2+y,-z
1/2-x,1/2-y,-z
1/2+x,1/2+y,-z
1/2-x,1/2+y,z
1/2+x,1/2-y,z
loop_
_atom_site_type_symbol
_atom_site_label
_atom_site_fract_x
_atom_site_fract_y
_atom_site_fract_z
Si Si1 0.182770 0.345335 0.628047
Si Si2 0.682454 0.657708 0.080400
Si Si3 0.815761 0.500000 0.315443
Si Si4 0.166404 0.595082 0.000000
Si Si5 0.316392 0.844136 0.166490
Si Si6 0.818736 0.843782 0.544603
Si Si7 0.815989 0.500000 0.777400
O O1 0.250000 0.250000 0.636100
O O2 0.243337 0.412835 0.662309
O O3 0.235440 0.386853 0.583942
O O4 0.000000 0.337317 0.628855
O O5 0.500000 0.659436 0.086605
O O6 0.750000 0.750000 0.071624
O O7 0.758301 0.620777 0.122214
O O8 0.728202 0.605137 0.040275
O O9 0.748802 0.500000 0.269009
O O10 0.000000 0.500000 0.315634
O O11 0.108323 0.500000 0.000000
O O12 0.000000 0.648360 0.000000
O O13 0.500000 0.837057 0.165647
O O14 0.250000 0.750000 0.177128
O O15 0.257371 0.913393 0.200031
O O16 0.789390 0.891051 0.500000
O O17 0.750000 0.750000 0.540903
O O18 0.000000 0.838650 0.554107
O O19 0.000000 0.500000 0.777131
#
# Coordination Sequence:
#
# PCOD8269141 Si02
#       7
#    16  16   8   8  16  16   8
#     4  10  19  33  55  79 108 144 183 226 274 326
#     4  11  22  38  59  83 114 149 186 229 276 326
#     4   9  20  38  56  80 110 145 184 224 274 340
#     4  11  24  39  56  81 115 153 192 229 270 325
#     4  10  20  37  61  88 114 148 188 231 282 336
#     4   9  16  27  46  73 105 141 181 223 269 321
#     4   9  20  38  61  83 111 147 184 226 281 342
#
# _framework density 20.218605
#
# number of rings (size 3 to 8) (size 9 to 14) (size 15 to 20)
#    0.000    2.091    0.000    6.000    1.273    2.545 
#    0.000    3.636    0.000   10.364    0.000    0.000 
#    0.000    0.000    0.000    0.000    0.000    0.000 
#
# Total GULP energy -545175.435645 kJ/mol
# GULP energy per Si atom -12390.350810 kJ/mol
# Density = 2.017259 g / cm^3
# Si number density = 20.218605 Si / 1000 Ang^3
#
#
#
# Elastic Constant Matrix: (Units=GPa)
#
#
# Indices 1 2 3 4 5 6 
#
# 1 96.6708 37.0979 38.8483 0.0000 0.0000 0.0000
# 2 37.0979 102.3293 88.8997 0.0000 0.0000 0.0000
# 3 38.8483 88.8997 193.9770 0.0000 0.0000 0.0000
# 4 0.0000 0.0000 0.0000 28.1272 0.0000 0.0000
# 5 0.0000 0.0000 0.0000 0.0000 31.3351 0.0000
# 6 0.0000 0.0000 0.0000 0.0000 0.0000 20.4293
#
#
#
# Elastic Compliance Matrix: (Units=1/GPa)
#
#
# Indices 1 2 3 4 5 6 
#
# 1 0.012071 -0.003781 -0.000684 0.000000 0.000000 0.000000
# 2 -0.003781 0.017422 -0.007227 0.000000 0.000000 0.000000
# 3 -0.000684 -0.007227 0.008605 0.000000 0.000000 0.000000
# 4 0.000000 0.000000 0.000000 0.035553 0.000000 0.000000
# 5 0.000000 0.000000 0.000000 0.000000 0.031913 0.000000
# 6 0.000000 0.000000 0.000000 0.000000 0.000000 0.048949
#
#
# Mechanical properties :
#
#
# Convention : Reuss Voigt Hill
#
# Bulk Modulus (GPa) = 67.97598 80.29655 74.13627
# Shear Modulus (GPa) = 27.35202 31.18706 29.26954
#
# Velocity S-wave (km/s) = 3.68205 3.93172 3.80893
# Velocity P-wave (km/s) = 7.19515 7.77249 7.48939
#
# Compressibility (1/GPa) = 0.01471108
#
# Stress axis : x y z
#
# Youngs Moduli (GPa) = 82.84629 57.39882 116.21791
#
# Poissons Ratio (x) = 0.21705 0.07954
# Poissons Ratio (y) = 0.31328 0.83993
# Poissons Ratio (z) = 0.05670 0.41483
#
# Static dielectric constant tensor:
#      x y z
#    x 3.599600 0.000000 0.000000 
#    y 0.000000 3.606790 0.000000 
#    z 0.000000 0.000000 4.406430 
# 
# 
# High freq. dielectric constant tensor:
#      x y z
#    x 1.787690 0.000000 0.000000 
#    y 0.000000 1.772470 0.000000 
#    z 0.000000 0.000000 1.799830 
# 
# From -- ./inp_files/76717.got.cif
#   From: 2010.03.12/outbox.cif.g09.slc.cpg/sg65_39_cif.got.tgz:76717.got - 2010.04.10 20:52:16.
