data_PCOD8269639
_publ_section_title
;
Structure prediction by ZEFSAII (Michael W. Deem and Ramdas Pophale) SiO2 
 PCOD8269639
Probable space group: C M M M
;
_chemical_formula_sum "Si O2"
_cell_formula_units_Z 96
_cell_length_a 22.506773
_cell_length_b 15.501714
_cell_length_c 14.446815
_cell_angle_alpha 90.000000
_cell_angle_beta 90.000000
_cell_angle_gamma 90.000000
_cell_volume 5040.400689
_symmetry_space_group_name_H-M "C M M M"
_symmetry_group_IT_number 65
_symmetry_cell_setting 'orthorhombic'
loop_
_space_group_symop_operation_xyz
x,y,z
-x,-y,z
x,-y,-z
-x,y,-z
-x,-y,-z
x,y,-z
-x,y,z
x,-y,z
1/2+x,1/2+y,z
1/2-x,1/2-y,z
1/2+x,1/2-y,-z
1/2-x,1/2+y,-z
1/2-x,1/2-y,-z
1/2+x,1/2+y,-z
1/2-x,1/2+y,z
1/2+x,1/2-y,z
loop_
_atom_site_type_symbol
_atom_site_label
_atom_site_fract_x
_atom_site_fract_y
_atom_site_fract_z
Si Si1 0.111628 0.401661 0.607062
Si Si2 0.566612 0.852832 0.895006
Si Si3 0.345204 0.591792 0.733501
Si Si4 0.434393 0.254616 0.725348
Si Si5 0.848973 0.500000 0.108247
Si Si6 0.754447 0.651737 0.393592
Si Si7 0.209131 0.000000 0.890360
O O1 0.094653 0.387693 0.500000
O O2 0.095809 0.500000 0.637614
O O3 0.075608 0.331798 0.665930
O O4 0.180884 0.386505 0.622766
O O5 0.500000 0.893753 0.888914
O O6 0.569627 0.766823 0.833985
O O7 0.616695 0.916450 0.852272
O O8 0.581685 0.826169 0.000000
O O9 0.378077 0.500000 0.712784
O O10 0.387542 0.670319 0.707735
O O11 0.288995 0.594580 0.666788
O O12 0.319808 0.585194 0.840315
O O13 0.500000 0.289597 0.700828
O O14 0.779598 0.500000 0.130660
O O15 0.861980 0.500000 0.000000
O O16 0.734670 0.645301 0.500000
O O17 0.750000 0.750000 0.358762
O O18 0.195608 0.000000 0.000000
#
# Coordination Sequence:
#
# PCOD8269639 Si02
#       7
#    16  16  16  16   8  16   8
#     4  10  22  39  61  90 125 161 194 236 293 363
#     4   9  19  34  53  81 117 156 197 241 289 349
#     4  10  23  39  61  85 115 160 198 255 302 358
#     4  11  24  39  59  85 114 155 208 255 298 352
#     4   9  17  32  55  82 115 150 185 230 289 357
#     4  10  19  35  62  93 123 155 195 243 298 360
#     4   9  22  39  58  90 122 155 197 253 315 366
#
# _framework density 19.046105000000001
#
# number of rings (size 3 to 8) (size 9 to 14) (size 15 to 20)
#    0.500    1.667    1.667    0.750    3.500    3.667 
#    0.000    0.833    0.000    4.000    0.000    2.333 
#    0.000    0.000    0.000    0.000    0.000    0.000 
#
# Total GULP energy -594783.451652 kJ/mol
# GULP energy per Si atom -12391.321909 kJ/mol
# Density = 1.900276 g / cm^3
# Si number density = 19.046105 Si / 1000 Ang^3
#
#
#
# Elastic Constant Matrix: (Units=GPa)
#
#
# Indices 1 2 3 4 5 6 
#
# 1 77.9506 32.8441 30.9243 0.0000 0.0000 0.0000
# 2 32.8441 90.1814 28.7837 0.0000 0.0000 0.0000
# 3 30.9243 28.7837 68.3449 0.0000 0.0000 0.0000
# 4 0.0000 0.0000 0.0000 26.8588 0.0000 0.0000
# 5 0.0000 0.0000 0.0000 0.0000 21.0175 0.0000
# 6 0.0000 0.0000 0.0000 0.0000 0.0000 16.9205
#
#
#
# Elastic Compliance Matrix: (Units=1/GPa)
#
#
# Indices 1 2 3 4 5 6 
#
# 1 0.016971 -0.004309 -0.005864 0.000000 0.000000 0.000000
# 2 -0.004309 0.013905 -0.003906 0.000000 0.000000 0.000000
# 3 -0.005864 -0.003906 0.018930 0.000000 0.000000 0.000000
# 4 0.000000 0.000000 0.000000 0.037232 0.000000 0.000000
# 5 0.000000 0.000000 0.000000 0.000000 0.047579 0.000000
# 6 0.000000 0.000000 0.000000 0.000000 0.000000 0.059100
#
#
# Mechanical properties :
#
#
# Convention : Reuss Voigt Hill
#
# Bulk Modulus (GPa) = 46.19611 46.84236 46.51924
# Shear Modulus (GPa) = 21.82536 22.55433 22.18985
#
# Velocity S-wave (km/s) = 3.38882 3.44495 3.41700
# Velocity P-wave (km/s) = 6.29442 6.36169 6.32814
#
# Compressibility (1/GPa) = 0.02164684
#
# Stress axis : x y z
#
# Youngs Moduli (GPa) = 58.92552 71.91685 52.82579
#
# Poissons Ratio (x) = 0.30989 0.30977
# Poissons Ratio (y) = 0.25391 0.20636
# Poissons Ratio (z) = 0.34554 0.28093
#
# Static dielectric constant tensor:
#      x y z
#    x 3.352100 0.000000 0.000000 
#    y 0.000000 3.348870 0.000000 
#    z 0.000000 0.000000 3.523250 
# 
# 
# High freq. dielectric constant tensor:
#      x y z
#    x 1.733820 0.000000 0.000000 
#    y 0.000000 1.726100 0.000000 
#    z 0.000000 0.000000 1.744320 
# 
# From -- ./inp_files/45657.got.cif
#   From: 2010.03.12/outbox.cif.g09.slc.cpg/sg65_23_cif.got.tgz:45657.got - 2010.04.10 20:52:16.
