data_PCOD8269789
_publ_section_title
;
Structure prediction by ZEFSAII (Michael W. Deem and Ramdas Pophale) SiO2 
 PCOD8269789
Probable space group: C M M M
;
_chemical_formula_sum "Si O2"
_cell_formula_units_Z 72
_cell_length_a 9.089949
_cell_length_b 28.124081
_cell_length_c 18.048179
_cell_angle_alpha 90.000000
_cell_angle_beta 90.000000
_cell_angle_gamma 90.000000
_cell_volume 4613.953106
_symmetry_space_group_name_H-M "C M M M"
_symmetry_group_IT_number 65
_symmetry_cell_setting 'orthorhombic'
loop_
_space_group_symop_operation_xyz
x,y,z
-x,-y,z
x,-y,-z
-x,y,-z
-x,-y,-z
x,y,-z
-x,y,z
x,-y,z
1/2+x,1/2+y,z
1/2-x,1/2-y,z
1/2+x,1/2-y,-z
1/2-x,1/2+y,-z
1/2-x,1/2-y,-z
1/2+x,1/2+y,-z
1/2-x,1/2+y,z
1/2+x,1/2-y,z
loop_
_atom_site_type_symbol
_atom_site_label
_atom_site_fract_x
_atom_site_fract_y
_atom_site_fract_z
Si Si1 0.667021 0.556235 0.500000
Si Si2 0.664799 0.056408 0.918498
Si Si3 0.671102 0.796360 0.584316
Si Si4 0.826467 0.601758 0.361849
Si Si5 0.169653 0.056139 0.224975
O O1 0.667777 0.500000 0.500000
O O2 0.500000 0.575644 0.500000
O O3 0.749261 0.573487 0.427250
O O4 0.500000 0.074889 0.900399
O O5 0.777980 0.074201 0.855925
O O6 0.663974 0.000000 0.919671
O O7 0.714500 0.075193 0.000000
O O8 0.724154 0.805760 0.500000
O O9 0.500000 0.785761 0.586536
O O10 0.750000 0.750000 0.618227
O O11 0.711987 0.842404 0.632586
O O12 0.768004 0.583322 0.284086
O O13 0.000000 0.592875 0.368198
O O14 0.000000 0.069880 0.235547
O O15 0.194405 0.000000 0.234667
#
# Coordination Sequence:
#
# PCOD8269789 Si02
#       5
#     8  16  16  16  16
#     4  11  23  35  46  63  88 119 156 193 226 263
#     4   8  14  26  44  64  86 116 154 190 225 267
#     4   9  18  33  50  69  88 108 142 186 232 279
#     4  11  21  34  49  66  89 118 154 190 225 270
#     4  10  20  31  43  64  94 125 157 191 227 266
#
# _framework density 15.604839999999999
#
# number of rings (size 3 to 8) (size 9 to 14) (size 15 to 20)
#    0.000    2.333    1.111    3.000    0.000    7.111 
#    0.000    2.222    0.000    0.000    0.000    0.000 
#    0.000    0.889    0.000    2.889    0.000    3.556 
#
# Total GULP energy -446331.906646 kJ/mol
# GULP energy per Si atom -12398.108518 kJ/mol
# Density = 1.556932 g / cm^3
# Si number density = 15.604840 Si / 1000 Ang^3
#
#
#
# Elastic Constant Matrix: (Units=GPa)
#
#
# Indices 1 2 3 4 5 6 
#
# 1 91.6466 46.6306 51.9408 0.0000 0.0000 0.0000
# 2 46.6306 65.0544 40.0773 0.0000 0.0000 0.0000
# 3 51.9408 40.0773 108.1106 0.0000 0.0000 0.0000
# 4 0.0000 0.0000 0.0000 -9.9479 0.0000 0.0000
# 5 0.0000 0.0000 0.0000 0.0000 21.3742 0.0000
# 6 0.0000 0.0000 0.0000 0.0000 0.0000 23.4909
#
#
#
# Elastic Compliance Matrix: (Units=1/GPa)
#
#
# Indices 1 2 3 4 5 6 
#
# 1 0.019319 -0.010536 -0.005376 0.000000 0.000000 0.000000
# 2 -0.010536 0.025667 -0.004453 0.000000 0.000000 0.000000
# 3 -0.005376 -0.004453 0.013483 0.000000 0.000000 0.000000
# 4 0.000000 0.000000 0.000000 -0.100524 0.000000 0.000000
# 5 0.000000 0.000000 0.000000 0.000000 0.046785 0.000000
# 6 0.000000 0.000000 0.000000 0.000000 0.000000 0.042570
#
#
# Mechanical properties :
#
#
# Convention : Reuss Voigt Hill
#
# Bulk Modulus (GPa) = 56.37054 60.23432 58.30243
# Shear Modulus (GPa) = 53.22306 15.39429 34.30867
#
# Velocity S-wave (km/s) = 5.84644 3.14428 4.69400
# Velocity P-wave (km/s) = 9.04304 7.20177 8.17442
#
# Compressibility (1/GPa) = 0.01773976
#
# Stress axis : x y z
#
# Youngs Moduli (GPa) = 51.76235 38.96024 74.16519
#
# Poissons Ratio (x) = 0.41048 0.39871
# Poissons Ratio (y) = 0.54536 0.33027
# Poissons Ratio (z) = 0.27827 0.17349
#
# Static dielectric constant tensor:
#      x y z
#    x 3.138800 0.000000 0.000000 
#    y 0.000000 2.793540 0.000000 
#    z 0.000000 0.000000 3.415440 
# 
# 
# High freq. dielectric constant tensor:
#      x y z
#    x 1.611240 0.000000 0.000000 
#    y 0.000000 1.562120 0.000000 
#    z 0.000000 0.000000 1.593340 
# 
# From -- ./inp_files/49715.got.cif
#   From: 2010.03.12/outbox.cif.g09.slc.cpg/sg65_25_cif.got.tgz:49715.got - 2010.04.10 20:52:16.
