data_PCOD8269154
_publ_section_title
;
Structure prediction by ZEFSAII (Michael W. Deem and Ramdas Pophale) SiO2 
 PCOD8269154
Probable space group: C M M M
;
_chemical_formula_sum "Si O2"
_cell_formula_units_Z 104
_cell_length_a 21.817653
_cell_length_b 27.940129
_cell_length_c 9.170217
_cell_angle_alpha 90.000000
_cell_angle_beta 90.000000
_cell_angle_gamma 90.000000
_cell_volume 5590.054601
_symmetry_space_group_name_H-M "C M M M"
_symmetry_group_IT_number 65
_symmetry_cell_setting 'orthorhombic'
loop_
_space_group_symop_operation_xyz
x,y,z
-x,-y,z
x,-y,-z
-x,y,-z
-x,-y,-z
x,y,-z
-x,y,z
x,-y,z
1/2+x,1/2+y,z
1/2-x,1/2-y,z
1/2+x,1/2-y,-z
1/2-x,1/2+y,-z
1/2-x,1/2-y,-z
1/2+x,1/2+y,-z
1/2-x,1/2+y,z
1/2+x,1/2-y,z
loop_
_atom_site_type_symbol
_atom_site_label
_atom_site_fract_x
_atom_site_fract_y
_atom_site_fract_z
Si Si1 0.500000 0.552998 0.326481
Si Si2 0.847684 0.385259 0.830539
Si Si3 0.068449 0.300639 0.172979
Si Si4 0.928640 0.552546 0.658689
Si Si5 0.380193 0.393351 0.328162
Si Si6 0.070199 0.192646 0.829114
Si Si7 0.755895 0.944765 0.672397
O O1 0.500000 0.500000 0.260391
O O2 0.500000 0.551267 0.500000
O O3 0.560347 0.579183 0.268687
O O4 0.874479 0.333926 0.774556
O O5 0.904497 0.419869 0.799134
O O6 0.790953 0.406378 0.740460
O O7 0.830160 0.384402 0.000000
O O8 0.083583 0.246771 0.223391
O O9 0.000000 0.315650 0.233292
O O10 0.064671 0.303384 0.000000
O O11 0.912133 0.576156 0.500000
O O12 0.898424 0.500000 0.660589
O O13 0.000000 0.548197 0.677372
O O14 0.381670 0.385295 0.500000
O O15 0.381189 0.341267 0.253032
O O16 0.322380 0.425286 0.281436
O O17 0.000000 0.179111 0.789089
O O18 0.081620 0.187473 0.000000
O O19 0.747092 0.943636 0.500000
O O20 0.748314 0.000000 0.728585
#
# Coordination Sequence:
#
# PCOD8269154 Si02
#       7
#     8  16  16  16  16  16  16
#     4   9  16  28  51  81 107 129 161 209 260 309
#     4  11  21  33  52  76 101 134 179 227 265 297
#     4   8  16  32  53  77 105 137 173 213 259 314
#     4   9  18  32  49  70  99 134 169 209 264 326
#     4  10  19  33  55  81 105 132 172 219 259 303
#     4   9  17  32  55  80 107 138 167 202 261 325
#     4  10  22  39  55  72 102 145 182 210 255 320
#
# _framework density 18.604469000000002
#
# number of rings (size 3 to 8) (size 9 to 14) (size 15 to 20)
#    0.000    2.538    0.769    3.231    0.000    5.846 
#    0.000    3.077    0.000    8.308    0.000    0.000 
#    0.000    0.000    0.000    0.000    0.000    0.000 
#
# Total GULP energy -644251.552600 kJ/mol
# GULP energy per Si atom -12389.452935 kJ/mol
# Density = 1.856212 g / cm^3
# Si number density = 18.604469 Si / 1000 Ang^3
#
#
#
# Elastic Constant Matrix: (Units=GPa)
#
#
# Indices 1 2 3 4 5 6 
#
# 1 106.2403 76.4590 27.5006 0.0000 0.0000 0.0000
# 2 76.4590 131.7317 32.2970 0.0000 0.0000 0.0000
# 3 27.5006 32.2970 27.1249 0.0000 0.0000 0.0000
# 4 0.0000 0.0000 0.0000 28.0683 0.0000 0.0000
# 5 0.0000 0.0000 0.0000 0.0000 26.4865 0.0000
# 6 0.0000 0.0000 0.0000 0.0000 0.0000 47.9555
#
#
#
# Elastic Compliance Matrix: (Units=1/GPa)
#
#
# Indices 1 2 3 4 5 6 
#
# 1 0.017280 -0.008098 -0.007877 0.000000 0.000000 0.000000
# 2 -0.008098 0.014516 -0.009074 0.000000 0.000000 0.000000
# 3 -0.007877 -0.009074 0.055656 0.000000 0.000000 0.000000
# 4 0.000000 0.000000 0.000000 0.035627 0.000000 0.000000
# 5 0.000000 0.000000 0.000000 0.000000 0.037755 0.000000
# 6 0.000000 0.000000 0.000000 0.000000 0.000000 0.020853
#
#
# Mechanical properties :
#
#
# Convention : Reuss Voigt Hill
#
# Bulk Modulus (GPa) = 26.77037 59.73445 43.25241
# Shear Modulus (GPa) = 20.47210 29.09144 24.78177
#
# Velocity S-wave (km/s) = 3.32081 3.95863 3.65366
# Velocity P-wave (km/s) = 5.39668 7.28503 6.41076
#
# Compressibility (1/GPa) = 0.03735474
#
# Stress axis : x y z
#
# Youngs Moduli (GPa) = 57.87168 68.88901 17.96760
#
# Poissons Ratio (x) = 0.55788 0.14152
# Poissons Ratio (y) = 0.46866 0.16303
# Poissons Ratio (z) = 0.45583 0.62507
#
# Static dielectric constant tensor:
#      x y z
#    x 3.492510 0.000000 0.000000 
#    y 0.000000 3.688770 0.000000 
#    z 0.000000 0.000000 3.127390 
# 
# 
# High freq. dielectric constant tensor:
#      x y z
#    x 1.716020 0.000000 0.000000 
#    y 0.000000 1.728120 0.000000 
#    z 0.000000 0.000000 1.690680 
# 
# From -- ./inp_files/12814.got.cif
#   From: 2010.03.12/outbox.cif.g09.slc.cpg/sg65_7_cif.got.tgz:12814.got - 2010.04.10 20:52:16.
