data_PCOD8269051
_publ_section_title
;
Structure prediction by ZEFSAII (Michael W. Deem and Ramdas Pophale) SiO2 
 PCOD8269051
Probable space group: C M M M
;
_chemical_formula_sum "Si O2"
_cell_formula_units_Z 104
_cell_length_a 19.720248
_cell_length_b 9.077870
_cell_length_c 32.663400
_cell_angle_alpha 90.000000
_cell_angle_beta 90.000000
_cell_angle_gamma 90.000000
_cell_volume 5847.331567
_symmetry_space_group_name_H-M "C M M M"
_symmetry_group_IT_number 65
_symmetry_cell_setting 'orthorhombic'
loop_
_space_group_symop_operation_xyz
x,y,z
-x,-y,z
x,-y,-z
-x,y,-z
-x,-y,-z
x,y,-z
-x,y,z
x,-y,z
1/2+x,1/2+y,z
1/2-x,1/2-y,z
1/2+x,1/2-y,-z
1/2-x,1/2+y,-z
1/2-x,1/2-y,-z
1/2+x,1/2+y,-z
1/2-x,1/2+y,z
1/2+x,1/2-y,z
loop_
_atom_site_type_symbol
_atom_site_label
_atom_site_fract_x
_atom_site_fract_y
_atom_site_fract_z
Si Si1 0.818565 0.327046 0.396433
Si Si2 0.422279 0.829842 0.235331
Si Si3 0.317680 0.172196 0.696561
Si Si4 0.676716 0.826277 0.088999
Si Si5 0.921151 0.827851 0.152425
Si Si6 0.921208 0.168286 0.453117
Si Si7 0.818921 0.667585 0.000000
O O1 0.808459 0.500000 0.400698
O O2 0.750000 0.250000 0.411934
O O3 0.834898 0.279535 0.349784
O O4 0.880645 0.277948 0.424273
O O5 0.500000 0.802779 0.247277
O O6 0.379354 0.778825 0.274538
O O7 0.400450 0.730408 0.197076
O O8 0.408874 0.000000 0.223917
O O9 0.250000 0.250000 0.712642
O O10 0.304515 0.000000 0.699108
O O11 0.750000 0.750000 0.094216
O O12 0.622978 0.757891 0.119577
O O13 0.685000 0.000000 0.097695
O O14 0.644255 0.796504 0.043289
O O15 0.000000 0.794520 0.143627
O O16 0.904828 0.000000 0.150037
O O17 0.901266 0.199926 0.500000
O O18 0.000000 0.200265 0.446074
O O19 0.903814 0.000000 0.441755
O O20 0.750000 0.750000 0.000000
O O21 0.797268 0.500000 0.000000
#
# Coordination Sequence:
#
# PCOD8269051 Si02
#       7
#    16  16  16  16  16  16   8
#     4  10  20  34  53  77 105 136 170 208 251 300
#     4   9  18  34  54  73  96 130 169 206 249 300
#     4   9  19  34  52  75 102 131 163 204 251 298
#     4  10  19  33  54  78 103 132 168 208 252 301
#     4  10  21  36  52  73 103 136 171 211 252 296
#     4   9  19  36  55  75 102 135 170 210 255 301
#     4   8  16  30  49  74 101 129 163 205 249 296
#
# _framework density 17.785889999999998
#
# number of rings (size 3 to 8) (size 9 to 14) (size 15 to 20)
#    0.000    2.615    0.000    1.846    0.000    4.923 
#    0.000    4.231    0.000    4.154    0.000    0.000 
#    0.000    0.000    0.000    0.000    0.000    0.000 
#
# Total GULP energy -644659.312940 kJ/mol
# GULP energy per Si atom -12397.294480 kJ/mol
# Density = 1.774541 g / cm^3
# Si number density = 17.785890 Si / 1000 Ang^3
#
#
#
# Elastic Constant Matrix: (Units=GPa)
#
#
# Indices 1 2 3 4 5 6 
#
# 1 88.2434 50.2112 74.5900 0.0000 0.0000 0.0000
# 2 50.2112 80.2735 57.0236 0.0000 0.0000 0.0000
# 3 74.5900 57.0236 117.7781 0.0000 0.0000 0.0000
# 4 0.0000 0.0000 0.0000 25.7202 0.0000 0.0000
# 5 0.0000 0.0000 0.0000 0.0000 59.9571 0.0000
# 6 0.0000 0.0000 0.0000 0.0000 0.0000 33.0840
#
#
#
# Elastic Compliance Matrix: (Units=1/GPa)
#
#
# Indices 1 2 3 4 5 6 
#
# 1 0.026859 -0.007190 -0.013529 0.000000 0.000000 0.000000
# 2 -0.007190 0.020913 -0.005572 0.000000 0.000000 0.000000
# 3 -0.013529 -0.005572 0.019756 0.000000 0.000000 0.000000
# 4 0.000000 0.000000 0.000000 0.038880 0.000000 0.000000
# 5 0.000000 0.000000 0.000000 0.000000 0.016679 0.000000
# 6 0.000000 0.000000 0.000000 0.000000 0.000000 0.030226
#
#
# Mechanical properties :
#
#
# Convention : Reuss Voigt Hill
#
# Bulk Modulus (GPa) = 66.90416 72.21606 69.56011
# Shear Modulus (GPa) = 23.71058 30.71695 27.21376
#
# Velocity S-wave (km/s) = 3.65514 4.16028 3.91586
# Velocity P-wave (km/s) = 7.45060 7.98551 7.72269
#
# Compressibility (1/GPa) = 0.01494675
#
# Stress axis : x y z
#
# Youngs Moduli (GPa) = 37.23119 47.81801 50.61684
#
# Poissons Ratio (x) = 0.34380 0.68480
# Poissons Ratio (y) = 0.26769 0.28202
# Poissons Ratio (z) = 0.50371 0.26643
#
# Static dielectric constant tensor:
#      x y z
#    x 3.177130 0.000000 0.000000 
#    y 0.000000 3.349390 0.000000 
#    z 0.000000 0.000000 5.660760 
# 
# 
# High freq. dielectric constant tensor:
#      x y z
#    x 1.675760 0.000000 0.000000 
#    y 0.000000 1.694650 0.000000 
#    z 0.000000 0.000000 1.696700 
# 
# From -- ./inp_files/75488.got.cif
#   From: 2010.03.12/outbox.cif.g09.slc.cpg/sg65_38_cif.got.tgz:75488.got - 2010.04.10 20:52:16.
