data_PCOD8269631
_publ_section_title
;
Structure prediction by ZEFSAII (Michael W. Deem and Ramdas Pophale) SiO2 
 PCOD8269631
Probable space group: C M M M
;
_chemical_formula_sum "Si O2"
_cell_formula_units_Z 88
_cell_length_a 28.796481
_cell_length_b 18.938852
_cell_length_c 7.873857
_cell_angle_alpha 90.000000
_cell_angle_beta 90.000000
_cell_angle_gamma 90.000000
_cell_volume 4294.183437
_symmetry_space_group_name_H-M "C M M M"
_symmetry_group_IT_number 65
_symmetry_cell_setting 'orthorhombic'
loop_
_space_group_symop_operation_xyz
x,y,z
-x,-y,z
x,-y,-z
-x,y,-z
-x,-y,-z
x,y,-z
-x,y,z
x,-y,z
1/2+x,1/2+y,z
1/2-x,1/2-y,z
1/2+x,1/2-y,-z
1/2-x,1/2+y,-z
1/2-x,1/2-y,-z
1/2+x,1/2+y,-z
1/2-x,1/2+y,z
1/2+x,1/2-y,z
loop_
_atom_site_type_symbol
_atom_site_label
_atom_site_fract_x
_atom_site_fract_y
_atom_site_fract_z
Si Si1 0.396111 0.847578 0.189068
Si Si2 0.877862 0.196870 0.305879
Si Si3 0.445212 0.079700 0.500000
Si Si4 0.195609 0.580126 0.700790
Si Si5 0.224988 0.819270 0.700900
Si Si6 0.947186 0.080382 0.800965
O O1 0.398070 0.762938 0.203049
O O2 0.428896 0.882403 0.329056
O O3 0.343584 0.873807 0.209390
O O4 0.413898 0.867902 0.000000
O O5 0.872311 0.221332 0.500000
O O6 0.827617 0.174409 0.229551
O O7 0.912587 0.131190 0.298284
O O8 0.500000 0.079921 0.500000
O O9 0.425153 0.000000 0.500000
O O10 0.187269 0.584974 0.500000
O O11 0.193549 0.500000 0.765953
O O12 0.245601 0.611714 0.754096
O O13 0.223523 0.813068 0.500000
O O14 0.250000 0.750000 0.777648
O O15 0.000000 0.099061 0.749778
O O16 0.935953 0.000000 0.748234
O O17 0.939943 0.090932 0.000000
#
# Coordination Sequence:
#
# PCOD8269631 Si02
#       6
#    16  16   8  16  16  16
#     4  12  24  41  66  96 129 166 211 261 317 383
#     4  11  21  37  63  93 127 166 214 266 317 375
#     4  11  26  48  70  93 125 163 207 264 327 386
#     4  10  19  35  60  88 122 165 212 261 314 374
#     4   9  17  32  56  84 119 163 206 253 310 369
#     4   9  20  40  62  85 120 166 211 257 316 383
#
# _framework density 20.492837000000002
#
# number of rings (size 3 to 8) (size 9 to 14) (size 15 to 20)
#    0.000    1.727    3.636    1.636    0.000    4.000 
#    0.000    6.364    0.000    0.000    0.000    0.000 
#    0.000    0.000    0.000    0.000    0.000    0.000 
#
# Total GULP energy -545644.272075 kJ/mol
# GULP energy per Si atom -12401.006184 kJ/mol
# Density = 2.044619 g / cm^3
# Si number density = 20.492837 Si / 1000 Ang^3
#
#
#
# Elastic Constant Matrix: (Units=GPa)
#
#
# Indices 1 2 3 4 5 6 
#
# 1 114.3901 60.9033 27.7110 0.0000 0.0000 0.0000
# 2 60.9033 133.3900 26.7534 0.0000 0.0000 0.0000
# 3 27.7110 26.7534 86.5997 0.0000 0.0000 0.0000
# 4 0.0000 0.0000 0.0000 19.7550 0.0000 0.0000
# 5 0.0000 0.0000 0.0000 0.0000 4.1889 0.0000
# 6 0.0000 0.0000 0.0000 0.0000 0.0000 40.8346
#
#
#
# Elastic Compliance Matrix: (Units=1/GPa)
#
#
# Indices 1 2 3 4 5 6 
#
# 1 0.011958 -0.005002 -0.002281 0.000000 0.000000 0.000000
# 2 -0.005002 0.010085 -0.001515 0.000000 0.000000 0.000000
# 3 -0.002281 -0.001515 0.012745 0.000000 0.000000 0.000000
# 4 0.000000 0.000000 0.000000 0.050620 0.000000 0.000000
# 5 0.000000 0.000000 0.000000 0.000000 0.238726 0.000000
# 6 0.000000 0.000000 0.000000 0.000000 0.000000 0.024489
#
#
# Mechanical properties :
#
#
# Convention : Reuss Voigt Hill
#
# Bulk Modulus (GPa) = 58.16807 62.79060 60.47934
# Shear Modulus (GPa) = 13.44269 27.55651 20.49960
#
# Velocity S-wave (km/s) = 2.56397 3.67098 3.16623
# Velocity P-wave (km/s) = 6.10012 6.97674 6.55310
#
# Compressibility (1/GPa) = 0.01719156
#
# Stress axis : x y z
#
# Youngs Moduli (GPa) = 83.62684 99.16159 78.46058
#
# Poissons Ratio (x) = 0.49603 0.17897
# Poissons Ratio (y) = 0.41832 0.11885
# Poissons Ratio (z) = 0.19076 0.15021
#
# Static dielectric constant tensor:
#      x y z
#    x 3.762620 0.000000 0.000000 
#    y 0.000000 3.793770 0.000000 
#    z 0.000000 0.000000 3.497020 
# 
# 
# High freq. dielectric constant tensor:
#      x y z
#    x 1.800140 0.000000 0.000000 
#    y 0.000000 1.805730 0.000000 
#    z 0.000000 0.000000 1.784090 
# 
# From -- ./inp_files/18293.got.cif
#   From: 2010.03.12/outbox.cif.g09.slc.cpg/sg65_10_cif.got.tgz:18293.got - 2010.04.10 20:52:16.
