data_PCOD8269993
_publ_section_title
;
Structure prediction by ZEFSAII (Michael W. Deem and Ramdas Pophale) SiO2 
 PCOD8269993
Probable space group: C M M M
;
_chemical_formula_sum "Si O2"
_cell_formula_units_Z 80
_cell_length_a 25.218876
_cell_length_b 14.993549
_cell_length_c 12.855461
_cell_angle_alpha 90.000000
_cell_angle_beta 90.000000
_cell_angle_gamma 90.000000
_cell_volume 4860.912737
_symmetry_space_group_name_H-M "C M M M"
_symmetry_group_IT_number 65
_symmetry_cell_setting 'orthorhombic'
loop_
_space_group_symop_operation_xyz
x,y,z
-x,-y,z
x,-y,-z
-x,y,-z
-x,-y,-z
x,y,-z
-x,y,z
x,-y,z
1/2+x,1/2+y,z
1/2-x,1/2-y,z
1/2+x,1/2-y,-z
1/2-x,1/2+y,-z
1/2-x,1/2-y,-z
1/2+x,1/2+y,-z
1/2-x,1/2+y,z
1/2+x,1/2-y,z
loop_
_atom_site_type_symbol
_atom_site_label
_atom_site_fract_x
_atom_site_fract_y
_atom_site_fract_z
Si Si1 0.395689 0.397986 0.769586
Si Si2 0.000000 0.893908 0.116038
Si Si3 0.639809 0.249405 0.623324
Si Si4 0.788017 0.101571 0.118833
Si Si5 0.940659 0.599696 0.623558
Si Si6 0.250000 0.750000 0.266129
O O1 0.402354 0.500000 0.733237
O O2 0.448630 0.359917 0.822381
O O3 0.382935 0.342025 0.666665
O O4 0.349982 0.387821 0.855543
O O5 0.000000 0.000000 0.108539
O O6 0.000000 0.852914 0.000000
O O7 0.639041 0.255209 0.500000
O O8 0.602914 0.169034 0.666403
O O9 0.699528 0.234472 0.661060
O O10 0.753410 0.163032 0.193956
O O11 0.769501 0.000000 0.136934
O O12 0.779058 0.130833 0.000000
O O13 0.939572 0.600917 0.500000
O O14 0.926439 0.500000 0.663596
O O15 0.000000 0.626198 0.661950
#
# Coordination Sequence:
#
# PCOD8269993 Si02
#       6
#    16   8  16  16  16   8
#     4   9  18  30  45  69  97 126 160 190 226 285
#     4   9  16  28  47  69  94 121 151 193 239 279
#     4  10  20  32  47  66  96 132 162 195 238 283
#     4   9  17  31  50  69  92 122 155 197 246 287
#     4   8  15  29  48  67  85 111 154 203 243 276
#     4  10  20  32  46  70  96 124 162 202 234 288
#
# _framework density 16.457815
#
# number of rings (size 3 to 8) (size 9 to 14) (size 15 to 20)
#    0.000    2.900    0.000    1.800    1.400    3.600 
#    0.000    0.000    0.000    5.400    0.000    0.000 
#    0.000    0.800    0.000    0.000    0.000    0.000 
#
# Total GULP energy -495922.108883 kJ/mol
# GULP energy per Si atom -12398.052722 kJ/mol
# Density = 1.642036 g / cm^3
# Si number density = 16.457815 Si / 1000 Ang^3
#
#
#
# Elastic Constant Matrix: (Units=GPa)
#
#
# Indices 1 2 3 4 5 6 
#
# 1 118.1545 58.1319 49.9854 0.0000 0.0000 0.0000
# 2 58.1319 89.6409 45.9021 0.0000 0.0000 0.0000
# 3 49.9854 45.9021 87.1173 0.0000 0.0000 0.0000
# 4 0.0000 0.0000 0.0000 17.3447 0.0000 0.0000
# 5 0.0000 0.0000 0.0000 0.0000 14.1811 0.0000
# 6 0.0000 0.0000 0.0000 0.0000 0.0000 28.1856
#
#
#
# Elastic Compliance Matrix: (Units=1/GPa)
#
#
# Indices 1 2 3 4 5 6 
#
# 1 0.013508 -0.006561 -0.004293 0.000000 0.000000 0.000000
# 2 -0.006561 0.018465 -0.005964 0.000000 0.000000 0.000000
# 3 -0.004293 -0.005964 0.017085 0.000000 0.000000 0.000000
# 4 0.000000 0.000000 0.000000 0.057654 0.000000 0.000000
# 5 0.000000 0.000000 0.000000 0.000000 0.070517 0.000000
# 6 0.000000 0.000000 0.000000 0.000000 0.000000 0.035479
#
#
# Mechanical properties :
#
#
# Convention : Reuss Voigt Hill
#
# Bulk Modulus (GPa) = 64.85322 66.99461 65.92391
# Shear Modulus (GPa) = 19.88184 21.33516 20.60850
#
# Velocity S-wave (km/s) = 3.47947 3.60440 3.54248
# Velocity P-wave (km/s) = 7.45879 7.62348 7.54159
#
# Compressibility (1/GPa) = 0.01541944
#
# Stress axis : x y z
#
# Youngs Moduli (GPa) = 74.03022 54.15691 58.53168
#
# Poissons Ratio (x) = 0.35535 0.25129
# Poissons Ratio (y) = 0.48575 0.34910
# Poissons Ratio (z) = 0.31783 0.32301
#
# Static dielectric constant tensor:
#      x y z
#    x 3.218920 0.000000 0.000000 
#    y 0.000000 3.210080 0.000000 
#    z 0.000000 0.000000 2.877250 
# 
# 
# High freq. dielectric constant tensor:
#      x y z
#    x 1.639080 0.000000 0.000000 
#    y 0.000000 1.627970 0.000000 
#    z 0.000000 0.000000 1.613800 
# 
# From -- ./inp_files/25031.got.cif
#   From: 2010.03.12/outbox.cif.g09.slc.cpg/sg65_13_cif.got.tgz:25031.got - 2010.04.10 20:52:16.
