data_PCOD8269679
_publ_section_title
;
Structure prediction by ZEFSAII (Michael W. Deem and Ramdas Pophale) SiO2 
 PCOD8269679
Probable space group: C M M M
;
_chemical_formula_sum "Si O2"
_cell_formula_units_Z 104
_cell_length_a 23.300136
_cell_length_b 30.130896
_cell_length_c 7.739810
_cell_angle_alpha 90.000000
_cell_angle_beta 90.000000
_cell_angle_gamma 90.000000
_cell_volume 5433.764373
_symmetry_space_group_name_H-M "C M M M"
_symmetry_group_IT_number 65
_symmetry_cell_setting 'orthorhombic'
loop_
_space_group_symop_operation_xyz
x,y,z
-x,-y,z
x,-y,-z
-x,y,-z
-x,-y,-z
x,y,-z
-x,y,z
x,-y,z
1/2+x,1/2+y,z
1/2-x,1/2-y,z
1/2+x,1/2-y,-z
1/2-x,1/2+y,-z
1/2-x,1/2-y,-z
1/2+x,1/2+y,-z
1/2-x,1/2+y,z
1/2+x,1/2-y,z
loop_
_atom_site_type_symbol
_atom_site_label
_atom_site_fract_x
_atom_site_fract_y
_atom_site_fract_z
Si Si1 0.832736 0.152329 0.195104
Si Si2 0.932232 0.000000 0.312191
Si Si3 0.836063 0.551785 0.500000
Si Si4 0.566107 0.875704 0.500000
Si Si5 0.186639 0.752657 0.305332
Si Si6 0.434981 0.595077 0.706117
Si Si7 0.277714 0.100519 0.801531
Si Si8 0.623851 0.829778 0.808345
O O1 0.833943 0.196597 0.308311
O O2 0.895400 0.131330 0.205959
O O3 0.785346 0.116683 0.258223
O O4 0.818244 0.166274 0.000000
O O5 0.916026 0.953685 0.218007
O O6 0.902215 0.000000 0.500000
O O7 0.000000 0.000000 0.340332
O O8 0.852343 0.500000 0.500000
O O9 0.894910 0.580087 0.500000
O O10 0.798916 0.562062 0.672094
O O11 0.500000 0.890898 0.500000
O O12 0.577167 0.845438 0.668831
O O13 0.189928 0.734326 0.500000
O O14 0.250000 0.750000 0.219258
O O15 0.140543 0.722037 0.206845
O O16 0.428241 0.595274 0.500000
O O17 0.500000 0.606296 0.759955
O O18 0.317930 0.143097 0.779359
O O19 0.278274 0.082745 0.000000
O O20 0.598264 0.838055 0.000000
#
# Coordination Sequence:
#
# PCOD8269679 Si02
#       8
#    16   8   8   8  16  16  16  16
#     4  11  22  34  51  79 113 150 188 231 284 341
#     4   7  12  28  53  73  89 121 173 225 269 312
#     4  10  22  39  63  89 115 156 195 232 296 355
#     4  10  22  41  62  88 121 152 195 247 289 346
#     4  11  21  32  57  88 115 146 187 239 286 339
#     4   9  18  34  54  75 102 139 185 236 283 326
#     4   9  20  36  56  84 119 151 184 232 288 347
#     4  10  19  36  60  86 117 153 190 233 291 345
#
# _framework density 19.139583999999999
#
# number of rings (size 3 to 8) (size 9 to 14) (size 15 to 20)
#    0.000    2.231    2.308    1.846    2.154    1.692 
#    1.385    1.154    0.000    3.231    0.000    4.308 
#    0.000    0.000    0.000    0.000    0.000    0.000 
#
# Total GULP energy -644618.474081 kJ/mol
# GULP energy per Si atom -12396.509117 kJ/mol
# Density = 1.909602 g / cm^3
# Si number density = 19.139584 Si / 1000 Ang^3
#
#
#
# Elastic Constant Matrix: (Units=GPa)
#
#
# Indices 1 2 3 4 5 6 
#
# 1 93.5250 47.8445 29.8222 0.0000 0.0000 0.0000
# 2 47.8445 118.7155 32.6301 0.0000 0.0000 0.0000
# 3 29.8222 32.6301 92.1718 0.0000 0.0000 0.0000
# 4 0.0000 0.0000 0.0000 12.8877 0.0000 0.0000
# 5 0.0000 0.0000 0.0000 0.0000 18.5439 0.0000
# 6 0.0000 0.0000 0.0000 0.0000 0.0000 25.2165
#
#
#
# Elastic Compliance Matrix: (Units=1/GPa)
#
#
# Indices 1 2 3 4 5 6 
#
# 1 0.014104 -0.004907 -0.002826 0.000000 0.000000 0.000000
# 2 -0.004907 0.011039 -0.002320 0.000000 0.000000 0.000000
# 3 -0.002826 -0.002320 0.012585 0.000000 0.000000 0.000000
# 4 0.000000 0.000000 0.000000 0.077593 0.000000 0.000000
# 5 0.000000 0.000000 0.000000 0.000000 0.053926 0.000000
# 6 0.000000 0.000000 0.000000 0.000000 0.000000 0.039657
#
#
# Mechanical properties :
#
#
# Convention : Reuss Voigt Hill
#
# Bulk Modulus (GPa) = 56.75120 58.33397 57.54259
# Shear Modulus (GPa) = 21.28705 24.27067 22.77886
#
# Velocity S-wave (km/s) = 3.33858 3.56488 3.45359
# Velocity P-wave (km/s) = 6.67661 6.89122 6.78476
#
# Compressibility (1/GPa) = 0.01762077
#
# Stress axis : x y z
#
# Youngs Moduli (GPa) = 70.90224 90.58808 79.45943
#
# Poissons Ratio (x) = 0.44455 0.22456
# Poissons Ratio (y) = 0.34794 0.18436
# Poissons Ratio (z) = 0.20037 0.21018
#
# Static dielectric constant tensor:
#      x y z
#    x 3.229850 0.000000 0.000000 
#    y 0.000000 3.399380 0.000000 
#    z 0.000000 0.000000 3.510280 
# 
# 
# High freq. dielectric constant tensor:
#      x y z
#    x 1.716680 0.000000 0.000000 
#    y 0.000000 1.734290 0.000000 
#    z 0.000000 0.000000 1.746620 
# 
# From -- ./inp_files/14834.got.cif
#   From: 2010.03.12/outbox.cif.g09.slc.cpg/sg65_8_cif.got.tgz:14834.got - 2010.04.10 20:52:16.
