data_PCOD8269839
_publ_section_title
;
Structure prediction by ZEFSAII (Michael W. Deem and Ramdas Pophale) SiO2 
 PCOD8269839
Probable space group: C M M M
;
_chemical_formula_sum "Si O2"
_cell_formula_units_Z 112
_cell_length_a 12.928328
_cell_length_b 34.478998
_cell_length_c 14.344286
_cell_angle_alpha 90.000000
_cell_angle_beta 90.000000
_cell_angle_gamma 90.000000
_cell_volume 6394.048613
_symmetry_space_group_name_H-M "C M M M"
_symmetry_group_IT_number 65
_symmetry_cell_setting 'orthorhombic'
loop_
_space_group_symop_operation_xyz
x,y,z
-x,-y,z
x,-y,-z
-x,y,-z
-x,-y,-z
x,y,-z
-x,y,z
x,-y,z
1/2+x,1/2+y,z
1/2-x,1/2-y,z
1/2+x,1/2-y,-z
1/2-x,1/2+y,-z
1/2-x,1/2-y,-z
1/2+x,1/2+y,-z
1/2-x,1/2+y,z
1/2+x,1/2-y,z
loop_
_atom_site_type_symbol
_atom_site_label
_atom_site_fract_x
_atom_site_fract_y
_atom_site_fract_z
Si Si1 0.379809 0.955064 0.749888
Si Si2 0.243115 0.913774 0.893740
Si Si3 0.114228 0.659658 0.898741
Si Si4 0.217464 0.396741 0.607631
Si Si5 0.378313 0.366956 0.752861
Si Si6 0.114824 0.683506 0.395264
Si Si7 0.258743 0.206247 0.764754
O O1 0.500000 0.943775 0.770230
O O2 0.305415 0.947490 0.839558
O O3 0.335489 0.932674 0.659965
O O4 0.371532 0.000000 0.725159
O O5 0.319403 0.878297 0.894275
O O6 0.142969 0.897580 0.837388
O O7 0.213556 0.926780 0.000000
O O8 0.145260 0.690303 0.822289
O O9 0.000000 0.645396 0.876789
O O10 0.124097 0.679659 0.000000
O O11 0.243646 0.407638 0.500000
O O12 0.322160 0.382996 0.660030
O O13 0.134700 0.362335 0.612626
O O14 0.500000 0.364968 0.734344
O O15 0.339692 0.322727 0.776960
O O16 0.124035 0.698264 0.500000
O O17 0.202443 0.707596 0.341449
O O18 0.000000 0.691800 0.356347
O O19 0.250000 0.250000 0.801333
#
# Coordination Sequence:
#
# PCOD8269839 Si02
#       7
#    16  16  16  16  16  16  16
#     4  10  20  31  47  78 114 138 156 186 236 301
#     4   9  18  33  52  72  97 130 166 204 242 283
#     4   9  17  30  49  70  90 118 158 196 230 277
#     4   9  18  33  52  72  97 130 166 204 242 283
#     4   9  19  34  51  73  97 125 170 219 252 283
#     4   9  17  30  49  70  90 118 158 196 230 277
#     4  10  20  31  46  68  99 129 153 190 245 300
#
# _framework density 17.516289
#
# number of rings (size 3 to 8) (size 9 to 14) (size 15 to 20)
#    0.000    2.714    0.000    2.143    0.000    4.571 
#    0.000    1.429    0.000    6.857    0.000    8.000 
#    0.000    0.000    0.000    0.000    0.000    0.000 
#
# Total GULP energy -693859.104286 kJ/mol
# GULP energy per Si atom -12390.341148 kJ/mol
# Density = 1.747642 g / cm^3
# Si number density = 17.516289 Si / 1000 Ang^3
#
#
#
# Elastic Constant Matrix: (Units=GPa)
#
#
# Indices 1 2 3 4 5 6 
#
# 1 83.2000 12.7223 13.1964 0.0000 0.0000 0.0000
# 2 12.7223 58.2813 10.0332 0.0000 0.0000 0.0000
# 3 13.1964 10.0332 77.9880 0.0000 0.0000 0.0000
# 4 0.0000 0.0000 0.0000 -2.3388 0.0000 0.0000
# 5 0.0000 0.0000 0.0000 0.0000 22.2647 0.0000
# 6 0.0000 0.0000 0.0000 0.0000 0.0000 5.5385
#
#
#
# Elastic Compliance Matrix: (Units=1/GPa)
#
#
# Indices 1 2 3 4 5 6 
#
# 1 0.012685 -0.002454 -0.001831 0.000000 0.000000 0.000000
# 2 -0.002454 0.018021 -0.001903 0.000000 0.000000 0.000000
# 3 -0.001831 -0.001903 0.013377 0.000000 0.000000 0.000000
# 4 0.000000 0.000000 0.000000 -0.427577 0.000000 0.000000
# 5 0.000000 0.000000 0.000000 0.000000 0.044914 0.000000
# 6 0.000000 0.000000 0.000000 0.000000 0.000000 0.180554
#
#
# Mechanical properties :
#
#
# Convention : Reuss Voigt Hill
#
# Bulk Modulus (GPa) = 31.53799 32.37479 31.95639
# Shear Modulus (GPa) = -37.01473 17.32739 -9.84367
#
# Velocity S-wave (km/s) = -4.60190 3.14859 -2.37317
# Velocity P-wave (km/s) = 3.19259 5.63391 3.28241
#
# Compressibility (1/GPa) = 0.03170779
#
# Stress axis : x y z
#
# Youngs Moduli (GPa) = 78.83440 55.48939 74.75447
#
# Poissons Ratio (x) = 0.13616 0.13685
# Poissons Ratio (y) = 0.19345 0.14228
# Poissons Ratio (z) = 0.14432 0.10561
#
# Static dielectric constant tensor:
#      x y z
#    x 3.208830 0.000000 0.000000 
#    y 0.000000 3.128760 0.000000 
#    z 0.000000 0.000000 3.960920 
# 
# 
# High freq. dielectric constant tensor:
#      x y z
#    x 1.663670 0.000000 0.000000 
#    y 0.000000 1.654550 0.000000 
#    z 0.000000 0.000000 1.688140 
# 
# From -- ./inp_files/39009.got.cif
#   From: 2010.03.12/outbox.cif.g09.slc.cpg/sg65_20_cif.got.tgz:39009.got - 2010.04.10 20:52:16.
