data_PCOD8269444
_publ_section_title
;
Structure prediction by ZEFSAII (Michael W. Deem and Ramdas Pophale) SiO2 
 PCOD8269444
Probable space group: C M M M
;
_chemical_formula_sum "Si O2"
_cell_formula_units_Z 96
_cell_length_a 23.339115
_cell_length_b 25.403390
_cell_length_c 8.851782
_cell_angle_alpha 90.000000
_cell_angle_beta 90.000000
_cell_angle_gamma 90.000000
_cell_volume 5248.156404
_symmetry_space_group_name_H-M "C M M M"
_symmetry_group_IT_number 65
_symmetry_cell_setting 'orthorhombic'
loop_
_space_group_symop_operation_xyz
x,y,z
-x,-y,z
x,-y,-z
-x,y,-z
-x,-y,-z
x,y,-z
-x,y,z
x,-y,z
1/2+x,1/2+y,z
1/2-x,1/2-y,z
1/2+x,1/2-y,-z
1/2-x,1/2+y,-z
1/2-x,1/2-y,-z
1/2+x,1/2+y,-z
1/2-x,1/2+y,z
1/2+x,1/2-y,z
loop_
_atom_site_type_symbol
_atom_site_label
_atom_site_fract_x
_atom_site_fract_y
_atom_site_fract_z
Si Si1 0.935984 0.000000 0.320244
Si Si2 0.633376 0.600199 0.678497
Si Si3 0.565326 0.196032 0.323529
Si Si4 0.629584 0.101960 0.175911
Si Si5 0.745116 0.439151 0.174665
Si Si6 0.934863 0.193428 0.178019
Si Si7 0.564291 0.000000 0.179751
O O1 0.903780 0.051408 0.258751
O O2 0.936511 0.000000 0.500000
O O3 0.000000 0.000000 0.253897
O O4 0.629097 0.604976 0.500000
O O5 0.698710 0.591027 0.725300
O O6 0.609463 0.653113 0.750105
O O7 0.573337 0.206138 0.500000
O O8 0.500000 0.178881 0.285500
O O9 0.609620 0.152139 0.269605
O O10 0.581478 0.249131 0.236997
O O11 0.696361 0.092009 0.203084
O O12 0.595642 0.051753 0.241067
O O13 0.615717 0.111151 0.000000
O O14 0.751535 0.500000 0.225645
O O15 0.727133 0.436480 0.000000
O O16 0.000000 0.178882 0.225909
O O17 0.927447 0.192565 0.000000
O O18 0.500000 0.000000 0.242142
O O19 0.567148 0.000000 0.000000
#
# Coordination Sequence:
#
# PCOD8269444 Si02
#       7
#     8  16  16  16  16  16   8
#     4   9  18  31  49  77 111 143 176 217 268 327
#     4  11  21  35  56  82 113 149 188 227 275 334
#     4  10  21  37  57  83 115 149 183 226 282 337
#     4  10  19  34  56  82 110 147 191 232 276 327
#     4  10  20  36  56  79 112 151 191 234 277 324
#     4  10  21  38  60  85 112 145 185 229 279 333
#     4   9  16  27  49  81 111 139 178 227 276 327
#
# _framework density 18.292138000000001
#
# number of rings (size 3 to 8) (size 9 to 14) (size 15 to 20)
#    0.000    2.000    1.667    2.500    0.000    4.000 
#    0.000    1.250    0.000    8.500    0.000    0.000 
#    0.000    0.000    0.000    0.000    0.000    0.000 
#
# Total GULP energy -595363.092998 kJ/mol
# GULP energy per Si atom -12403.397771 kJ/mol
# Density = 1.825050 g / cm^3
# Si number density = 18.292138 Si / 1000 Ang^3
#
#
#
# Elastic Constant Matrix: (Units=GPa)
#
#
# Indices 1 2 3 4 5 6 
#
# 1 103.4823 62.1833 36.8411 0.0000 0.0000 0.0000
# 2 62.1833 122.9426 42.5126 0.0000 0.0000 0.0000
# 3 36.8411 42.5126 60.3549 0.0000 0.0000 0.0000
# 4 0.0000 0.0000 0.0000 25.7222 0.0000 0.0000
# 5 0.0000 0.0000 0.0000 0.0000 28.4164 0.0000
# 6 0.0000 0.0000 0.0000 0.0000 0.0000 28.7809
#
#
#
# Elastic Compliance Matrix: (Units=1/GPa)
#
#
# Indices 1 2 3 4 5 6 
#
# 1 0.014953 -0.005826 -0.005024 0.000000 0.000000 0.000000
# 2 -0.005826 0.013023 -0.005617 0.000000 0.000000 0.000000
# 3 -0.005024 -0.005617 0.023592 0.000000 0.000000 0.000000
# 4 0.000000 0.000000 0.000000 0.038877 0.000000 0.000000
# 5 0.000000 0.000000 0.000000 0.000000 0.035191 0.000000
# 6 0.000000 0.000000 0.000000 0.000000 0.000000 0.034745
#
#
# Mechanical properties :
#
#
# Convention : Reuss Voigt Hill
#
# Bulk Modulus (GPa) = 53.66424 63.31708 58.49066
# Shear Modulus (GPa) = 25.05960 26.26677 25.66319
#
# Velocity S-wave (km/s) = 3.70532 3.79352 3.74968
# Velocity P-wave (km/s) = 6.90702 7.34011 7.12685
#
# Compressibility (1/GPa) = 0.01863438
#
# Stress axis : x y z
#
# Youngs Moduli (GPa) = 66.87721 76.78855 42.38807
#
# Poissons Ratio (x) = 0.44736 0.21295
# Poissons Ratio (y) = 0.38961 0.23809
# Poissons Ratio (z) = 0.33597 0.43131
#
# Static dielectric constant tensor:
#      x y z
#    x 3.386700 0.000000 0.000000 
#    y 0.000000 3.375960 0.000000 
#    z 0.000000 0.000000 3.204710 
# 
# 
# High freq. dielectric constant tensor:
#      x y z
#    x 1.710450 0.000000 0.000000 
#    y 0.000000 1.713170 0.000000 
#    z 0.000000 0.000000 1.697340 
# 
# From -- ./inp_files/14341.got.cif
#   From: 2010.03.12/outbox.cif.g09.slc.cpg/sg65_8_cif.got.tgz:14341.got - 2010.04.10 20:52:16.
