data_PCOD8269566
_publ_section_title
;
Structure prediction by ZEFSAII (Michael W. Deem and Ramdas Pophale) SiO2 
 PCOD8269566
Probable space group: C M M M
;
_chemical_formula_sum "Si O2"
_cell_formula_units_Z 72
_cell_length_a 16.884850
_cell_length_b 16.505254
_cell_length_c 13.782065
_cell_angle_alpha 90.000000
_cell_angle_beta 90.000000
_cell_angle_gamma 90.000000
_cell_volume 3840.906302
_symmetry_space_group_name_H-M "C M M M"
_symmetry_group_IT_number 65
_symmetry_cell_setting 'orthorhombic'
loop_
_space_group_symop_operation_xyz
x,y,z
-x,-y,z
x,-y,-z
-x,y,-z
-x,-y,-z
x,y,-z
-x,y,z
x,-y,z
1/2+x,1/2+y,z
1/2-x,1/2-y,z
1/2+x,1/2-y,-z
1/2-x,1/2+y,-z
1/2-x,1/2-y,-z
1/2+x,1/2+y,-z
1/2-x,1/2+y,z
1/2+x,1/2-y,z
loop_
_atom_site_type_symbol
_atom_site_label
_atom_site_fract_x
_atom_site_fract_y
_atom_site_fract_z
Si Si1 0.272828 0.842675 0.393380
Si Si2 0.174655 0.141779 0.215047
Si Si3 0.674564 0.905941 0.888627
Si Si4 0.592181 0.500000 0.891096
Si Si5 0.591146 0.809925 0.741534
O O1 0.270492 0.884518 0.500000
O O2 0.250000 0.750000 0.403486
O O3 0.209617 0.885182 0.320704
O O4 0.361974 0.846547 0.350818
O O5 0.249733 0.147828 0.142923
O O6 0.113985 0.077694 0.171979
O O7 0.129596 0.226324 0.222217
O O8 0.598374 0.874859 0.828839
O O9 0.692948 0.000000 0.865988
O O10 0.654917 0.891398 0.000000
O O11 0.500000 0.500000 0.907252
O O12 0.632327 0.500000 0.000000
O O13 0.500000 0.797102 0.712696
#
# Coordination Sequence:
#
# PCOD8269566 Si02
#       5
#    16  16  16   8  16
#     4   8  16  33  57  80 101 135 181 223 269 325
#     4  10  19  35  56  78 108 143 184 229 269 324
#     4  10  20  35  55  75 100 143 192 229 268 323
#     4  11  22  34  53  81 114 151 185 223 275 327
#     4  10  21  34  52  81 113 141 174 225 282 330
#
# _framework density 18.745577000000001
#
# number of rings (size 3 to 8) (size 9 to 14) (size 15 to 20)
#    0.000    2.333    1.111    3.333    0.000    4.000 
#    0.000    1.667    0.000    2.667    0.000    3.111 
#    0.000    0.000    0.000    0.000    0.000    0.000 
#
# Total GULP energy -446182.402475 kJ/mol
# GULP energy per Si atom -12393.955624 kJ/mol
# Density = 1.870291 g / cm^3
# Si number density = 18.745577 Si / 1000 Ang^3
#
#
#
# Elastic Constant Matrix: (Units=GPa)
#
#
# Indices 1 2 3 4 5 6 
#
# 1 104.9725 24.8403 49.7177 0.0000 0.0000 0.0000
# 2 24.8403 38.2823 48.3677 0.0000 0.0000 0.0000
# 3 49.7177 48.3677 161.7441 0.0000 0.0000 0.0000
# 4 0.0000 0.0000 0.0000 3.2498 0.0000 0.0000
# 5 0.0000 0.0000 0.0000 0.0000 18.2122 0.0000
# 6 0.0000 0.0000 0.0000 0.0000 0.0000 20.1235
#
#
#
# Elastic Compliance Matrix: (Units=1/GPa)
#
#
# Indices 1 2 3 4 5 6 
#
# 1 0.011694 -0.004896 -0.002130 0.000000 0.000000 0.000000
# 2 -0.004896 0.044034 -0.011663 0.000000 0.000000 0.000000
# 3 -0.002130 -0.011663 0.010325 0.000000 0.000000 0.000000
# 4 0.000000 0.000000 0.000000 0.307715 0.000000 0.000000
# 5 0.000000 0.000000 0.000000 0.000000 0.054908 0.000000
# 6 0.000000 0.000000 0.000000 0.000000 0.000000 0.049693
#
#
# Mechanical properties :
#
#
# Convention : Reuss Voigt Hill
#
# Bulk Modulus (GPa) = 34.87448 61.20562 48.04005
# Shear Modulus (GPa) = 9.51824 20.45529 14.98677
#
# Velocity S-wave (km/s) = 2.25580 3.30692 2.83058
# Velocity P-wave (km/s) = 5.04275 6.87769 6.03042
#
# Compressibility (1/GPa) = 0.02867426
#
# Stress axis : x y z
#
# Youngs Moduli (GPa) = 85.51437 22.70954 96.85120
#
# Poissons Ratio (x) = 0.11119 0.20633
# Poissons Ratio (y) = 0.41870 1.12957
# Poissons Ratio (z) = 0.18218 0.26486
#
# Static dielectric constant tensor:
#      x y z
#    x 3.338020 0.000000 0.000000 
#    y 0.000000 3.402530 0.000000 
#    z 0.000000 0.000000 3.917550 
# 
# 
# High freq. dielectric constant tensor:
#      x y z
#    x 1.717640 0.000000 0.000000 
#    y 0.000000 1.713070 0.000000 
#    z 0.000000 0.000000 1.732340 
# 
# From -- ./inp_files/42122.got.cif
#   From: 2010.03.12/outbox.cif.g09.slc.cpg/sg65_22_cif.got.tgz:42122.got - 2010.04.10 20:52:16.
