data_PCOD8269465
_publ_section_title
;
Structure prediction by ZEFSAII (Michael W. Deem and Ramdas Pophale) SiO2 
 PCOD8269465
Probable space group: C M M M
;
_chemical_formula_sum "Si O2"
_cell_formula_units_Z 72
_cell_length_a 19.026442
_cell_length_b 8.659294
_cell_length_c 22.808621
_cell_angle_alpha 90.000000
_cell_angle_beta 90.000000
_cell_angle_gamma 90.000000
_cell_volume 3757.847013
_symmetry_space_group_name_H-M "C M M M"
_symmetry_group_IT_number 65
_symmetry_cell_setting 'orthorhombic'
loop_
_space_group_symop_operation_xyz
x,y,z
-x,-y,z
x,-y,-z
-x,y,-z
-x,-y,-z
x,y,-z
-x,y,z
x,-y,z
1/2+x,1/2+y,z
1/2-x,1/2-y,z
1/2+x,1/2-y,-z
1/2-x,1/2+y,-z
1/2-x,1/2-y,-z
1/2+x,1/2+y,-z
1/2-x,1/2+y,z
1/2+x,1/2-y,z
loop_
_atom_site_type_symbol
_atom_site_label
_atom_site_fract_x
_atom_site_fract_y
_atom_site_fract_z
Si Si1 0.823237 0.318286 0.065436
Si Si2 0.674771 0.183480 0.394340
Si Si3 0.824820 0.818221 0.730230
Si Si4 0.921427 0.316571 0.500000
Si Si5 0.081447 0.319336 0.828761
O O1 0.814950 0.500000 0.064221
O O2 0.750000 0.250000 0.088693
O O3 0.885030 0.267952 0.109295
O O4 0.840843 0.255517 0.000000
O O5 0.750000 0.250000 0.412882
O O6 0.650857 0.246853 0.331443
O O7 0.618519 0.241791 0.441977
O O8 0.679612 0.000000 0.391648
O O9 0.750000 0.750000 0.750568
O O10 0.883965 0.778431 0.777204
O O11 0.816667 0.000000 0.723333
O O12 0.924000 0.500000 0.500000
O O13 0.000000 0.246952 0.500000
O O14 0.093915 0.500000 0.816587
O O15 0.000000 0.276910 0.831640
#
# Coordination Sequence:
#
# PCOD8269465 Si02
#       5
#    16  16  16   8  16
#     4   9  18  33  54  79 105 136 176 220 264 312
#     4  10  19  34  57  81 106 137 175 218 263 312
#     4  11  22  37  57  80 107 139 180 225 268 315
#     4   9  19  34  53  79 108 139 174 212 258 313
#     4  10  21  36  54  78 109 144 179 217 266 320
#
# _framework density 19.159908000000001
#
# number of rings (size 3 to 8) (size 9 to 14) (size 15 to 20)
#    0.000    2.111    0.000    5.000    0.000    4.444 
#    0.000    6.111    0.000    4.667    0.000    4.667 
#    0.000    0.000    0.000    0.000    0.000    0.000 
#
# Total GULP energy -446478.831463 kJ/mol
# GULP energy per Si atom -12402.189763 kJ/mol
# Density = 1.911630 g / cm^3
# Si number density = 19.159908 Si / 1000 Ang^3
#
#
#
# Elastic Constant Matrix: (Units=GPa)
#
#
# Indices 1 2 3 4 5 6 
#
# 1 146.9291 39.7857 97.5236 0.0000 0.0000 0.0000
# 2 39.7857 74.3455 42.4551 0.0000 0.0000 0.0000
# 3 97.5236 42.4551 140.3740 0.0000 0.0000 0.0000
# 4 0.0000 0.0000 0.0000 15.8311 0.0000 0.0000
# 5 0.0000 0.0000 0.0000 0.0000 -20.6785 0.0000
# 6 0.0000 0.0000 0.0000 0.0000 0.0000 26.9514
#
#
#
# Elastic Compliance Matrix: (Units=1/GPa)
#
#
# Indices 1 2 3 4 5 6 
#
# 1 0.012911 -0.002160 -0.008316 0.000000 0.000000 0.000000
# 2 -0.002160 0.016620 -0.003526 0.000000 0.000000 0.000000
# 3 -0.008316 -0.003526 0.013968 0.000000 0.000000 0.000000
# 4 0.000000 0.000000 0.000000 0.063167 0.000000 0.000000
# 5 0.000000 0.000000 0.000000 0.000000 -0.048359 0.000000
# 6 0.000000 0.000000 0.000000 0.000000 0.000000 0.037104
#
#
# Mechanical properties :
#
#
# Convention : Reuss Voigt Hill
#
# Bulk Modulus (GPa) = 64.54061 80.13083 72.33572
# Shear Modulus (GPa) = 38.88624 16.54640 27.71632
#
# Velocity S-wave (km/s) = 4.50995 2.94189 3.80752
# Velocity P-wave (km/s) = 7.80243 7.31112 7.56077
#
# Compressibility (1/GPa) = 0.01549412
#
# Stress axis : x y z
#
# Youngs Moduli (GPa) = 77.45379 60.16784 71.59221
#
# Poissons Ratio (x) = 0.12997 0.59539
# Poissons Ratio (y) = 0.16731 0.25243
# Poissons Ratio (z) = 0.64414 0.21215
#
# Static dielectric constant tensor:
#      x y z
#    x 3.520980 0.000000 0.000000 
#    y 0.000000 3.371890 0.000000 
#    z 0.000000 0.000000 3.786700 
# 
# 
# High freq. dielectric constant tensor:
#      x y z
#    x 1.740520 0.000000 0.000000 
#    y 0.000000 1.734760 0.000000 
#    z 0.000000 0.000000 1.759480 
# 
# From -- ./inp_files/66984.got.cif
#   From: 2010.03.12/outbox.cif.g09.slc.cpg/sg65_34_cif.got.tgz:66984.got - 2010.04.10 20:52:16.
