data_PCOD8269564
_publ_section_title
;
Structure prediction by ZEFSAII (Michael W. Deem and Ramdas Pophale) SiO2 
 PCOD8269564
Probable space group: C M M M
;
_chemical_formula_sum "Si O2"
_cell_formula_units_Z 88
_cell_length_a 27.775187
_cell_length_b 18.681746
_cell_length_c 9.304422
_cell_angle_alpha 90.000000
_cell_angle_beta 90.000000
_cell_angle_gamma 90.000000
_cell_volume 4827.962121
_symmetry_space_group_name_H-M "C M M M"
_symmetry_group_IT_number 65
_symmetry_cell_setting 'orthorhombic'
loop_
_space_group_symop_operation_xyz
x,y,z
-x,-y,z
x,-y,-z
-x,y,-z
-x,-y,-z
x,y,-z
-x,y,z
x,-y,z
1/2+x,1/2+y,z
1/2-x,1/2-y,z
1/2+x,1/2-y,-z
1/2-x,1/2+y,-z
1/2-x,1/2-y,-z
1/2+x,1/2+y,-z
1/2-x,1/2+y,z
1/2+x,1/2-y,z
loop_
_atom_site_type_symbol
_atom_site_label
_atom_site_fract_x
_atom_site_fract_y
_atom_site_fract_z
Si Si1 0.000000 0.084395 0.166647
Si Si2 0.715118 0.914838 0.339927
Si Si3 0.376132 0.084347 0.834487
Si Si4 0.085497 0.841171 0.331806
Si Si5 0.679945 0.420470 0.670503
Si Si6 0.444294 0.182924 0.665620
O O1 0.047044 0.115566 0.240962
O O2 0.000000 0.000000 0.187826
O O3 0.000000 0.106384 0.000000
O O4 0.706087 0.883452 0.500000
O O5 0.673014 0.886184 0.236943
O O6 0.767606 0.891156 0.278247
O O7 0.714621 0.000000 0.346540
O O8 0.422102 0.120680 0.761971
O O9 0.381780 0.000000 0.811862
O O10 0.374551 0.105837 0.000000
O O11 0.076328 0.857304 0.500000
O O12 0.138230 0.866533 0.279762
O O13 0.082190 0.757224 0.299777
O O14 0.681986 0.425837 0.500000
O O15 0.669609 0.500000 0.733822
O O16 0.437777 0.161255 0.500000
O O17 0.500000 0.191606 0.706161
#
# Coordination Sequence:
#
# PCOD8269564 Si02
#       6
#     8  16  16  16  16  16
#     4  11  23  35  49  75 110 145 182 221 261 306
#     4   8  14  28  51  78 106 134 166 209 260 307
#     4  10  21  36  55  79 103 132 173 214 258 319
#     4  10  19  35  56  78 104 138 181 223 260 306
#     4   8  14  26  50  82 108 133 171 217 260 299
#     4  10  21  37  55  77 104 135 173 217 268 320
#
# _framework density 18.227153000000001
#
# number of rings (size 3 to 8) (size 9 to 14) (size 15 to 20)
#    0.000    2.636    0.909    2.455    0.000    4.000 
#    0.000    3.636    0.000    8.727    0.000    0.000 
#    0.000    0.000    0.000    0.000    0.000    0.000 
#
# Total GULP energy -545524.605865 kJ/mol
# GULP energy per Si atom -12398.286497 kJ/mol
# Density = 1.818567 g / cm^3
# Si number density = 18.227153 Si / 1000 Ang^3
#
#
#
# Elastic Constant Matrix: (Units=GPa)
#
#
# Indices 1 2 3 4 5 6 
#
# 1 132.1406 55.0184 56.8409 0.0000 0.0000 0.0000
# 2 55.0184 55.9131 42.5672 0.0000 0.0000 0.0000
# 3 56.8409 42.5672 84.1158 0.0000 0.0000 0.0000
# 4 0.0000 0.0000 0.0000 21.2624 0.0000 0.0000
# 5 0.0000 0.0000 0.0000 0.0000 0.1795 0.0000
# 6 0.0000 0.0000 0.0000 0.0000 0.0000 -2.2777
#
#
#
# Elastic Compliance Matrix: (Units=1/GPa)
#
#
# Indices 1 2 3 4 5 6 
#
# 1 0.013573 -0.010367 -0.003925 0.000000 0.000000 0.000000
# 2 -0.010367 0.037012 -0.011725 0.000000 0.000000 0.000000
# 3 -0.003925 -0.011725 0.020474 0.000000 0.000000 0.000000
# 4 0.000000 0.000000 0.000000 0.047031 0.000000 0.000000
# 5 0.000000 0.000000 0.000000 0.000000 5.570762 0.000000
# 6 0.000000 0.000000 0.000000 0.000000 0.000000 -0.439041
#
#
# Mechanical properties :
#
#
# Convention : Reuss Voigt Hill
#
# Bulk Modulus (GPa) = 52.56277 64.55805 58.56041
# Shear Modulus (GPa) = 0.94194 11.68236 6.31215
#
# Velocity S-wave (km/s) = 0.71965 2.53441 1.86295
# Velocity P-wave (km/s) = 5.43974 6.63776 6.06838
#
# Compressibility (1/GPa) = 0.01902487
#
# Stress axis : x y z
#
# Youngs Moduli (GPa) = 73.67733 27.01814 48.84185
#
# Poissons Ratio (x) = 0.28010 0.19172
# Poissons Ratio (y) = 0.76382 0.57265
# Poissons Ratio (z) = 0.28921 0.31678
#
# Static dielectric constant tensor:
#      x y z
#    x 3.869910 0.000000 0.000000 
#    y 0.000000 3.161620 0.000000 
#    z 0.000000 0.000000 3.220880 
# 
# 
# High freq. dielectric constant tensor:
#      x y z
#    x 1.722550 0.000000 0.000000 
#    y 0.000000 1.684940 0.000000 
#    z 0.000000 0.000000 1.682170 
# 
# From -- ./inp_files/18270.got.cif
#   From: 2010.03.12/outbox.cif.g09.slc.cpg/sg65_10_cif.got.tgz:18270.got - 2010.04.10 20:52:16.
