data_PCOD8269705
_publ_section_title
;
Structure prediction by ZEFSAII (Michael W. Deem and Ramdas Pophale) SiO2 
 PCOD8269705
Probable space group: C M M M
;
_chemical_formula_sum "Si O2"
_cell_formula_units_Z 104
_cell_length_a 26.597769
_cell_length_b 9.704304
_cell_length_c 24.553013
_cell_angle_alpha 90.000000
_cell_angle_beta 90.000000
_cell_angle_gamma 90.000000
_cell_volume 6337.447820
_symmetry_space_group_name_H-M "C M M M"
_symmetry_group_IT_number 65
_symmetry_cell_setting 'orthorhombic'
loop_
_space_group_symop_operation_xyz
x,y,z
-x,-y,z
x,-y,-z
-x,y,-z
-x,-y,-z
x,y,-z
-x,y,z
x,-y,z
1/2+x,1/2+y,z
1/2-x,1/2-y,z
1/2+x,1/2-y,-z
1/2-x,1/2+y,-z
1/2-x,1/2-y,-z
1/2+x,1/2+y,-z
1/2-x,1/2+y,z
1/2+x,1/2-y,z
loop_
_atom_site_type_symbol
_atom_site_label
_atom_site_fract_x
_atom_site_fract_y
_atom_site_fract_z
Si Si1 0.904660 0.838150 0.252291
Si Si2 0.440164 0.654310 0.560790
Si Si3 0.291635 0.349718 0.750514
Si Si4 0.404763 0.336260 0.871483
Si Si5 0.705820 0.345786 0.119969
Si Si6 0.000000 0.164391 0.061672
Si Si7 0.441924 0.153245 0.345445
O O1 0.847074 0.807117 0.268411
O O2 0.915128 0.789895 0.190427
O O3 0.937892 0.741594 0.290317
O O4 0.918078 0.000000 0.260050
O O5 0.422969 0.698086 0.500000
O O6 0.500000 0.653656 0.564451
O O7 0.420360 0.500000 0.574237
O O8 0.416912 0.762025 0.604348
O O9 0.278497 0.500000 0.727796
O O10 0.250000 0.250000 0.724857
O O11 0.289413 0.351046 0.815430
O O12 0.402500 0.500000 0.872619
O O13 0.350064 0.284747 0.893582
O O14 0.449792 0.278088 0.908950
O O15 0.712358 0.500000 0.095780
O O16 0.750000 0.250000 0.094862
O O17 0.000000 0.000000 0.064001
O O18 0.000000 0.218838 0.000000
O O19 0.500000 0.133735 0.358315
O O20 0.417269 0.000000 0.340093
#
# Coordination Sequence:
#
# PCOD8269705 Si02
#       7
#    16  16  16  16  16   8  16
#     4   9  17  28  42  60  83 112 144 173 207 258
#     4   8  14  26  43  59  75 103 146 185 214 250
#     4   8  14  24  38  57  79 104 134 167 204 250
#     4   8  15  26  40  61  85 111 143 179 219 263
#     4   8  13  23  39  60  85 107 133 169 209 258
#     4   9  16  26  42  64  87 111 144 187 228 259
#     4  10  20  29  37  56  87 117 144 177 216 253
#
# _framework density 16.410391000000001
#
# number of rings (size 3 to 8) (size 9 to 14) (size 15 to 20)
#    0.000    3.462    0.000    2.769    1.077    1.846 
#    0.000    3.846    0.000    0.462    0.000    0.000 
#    0.000    4.923    0.000    2.000    0.000    2.462 
#
# Total GULP energy -644290.768491 kJ/mol
# GULP energy per Si atom -12390.207086 kJ/mol
# Density = 1.637304 g / cm^3
# Si number density = 16.410391 Si / 1000 Ang^3
#
#
#
# Elastic Constant Matrix: (Units=GPa)
#
#
# Indices 1 2 3 4 5 6 
#
# 1 78.0509 33.9247 36.0578 0.0000 0.0000 0.0000
# 2 33.9247 74.6925 41.8788 0.0000 0.0000 0.0000
# 3 36.0578 41.8788 81.8505 0.0000 0.0000 0.0000
# 4 0.0000 0.0000 0.0000 9.6635 0.0000 0.0000
# 5 0.0000 0.0000 0.0000 0.0000 2.3431 0.0000
# 6 0.0000 0.0000 0.0000 0.0000 0.0000 21.6149
#
#
#
# Elastic Compliance Matrix: (Units=1/GPa)
#
#
# Indices 1 2 3 4 5 6 
#
# 1 0.017340 -0.005038 -0.005061 0.000000 0.000000 0.000000
# 2 -0.005038 0.020238 -0.008135 0.000000 0.000000 0.000000
# 3 -0.005061 -0.008135 0.018609 0.000000 0.000000 0.000000
# 4 0.000000 0.000000 0.000000 0.103482 0.000000 0.000000
# 5 0.000000 0.000000 0.000000 0.000000 0.426782 0.000000
# 6 0.000000 0.000000 0.000000 0.000000 0.000000 0.046264
#
#
# Mechanical properties :
#
#
# Convention : Reuss Voigt Hill
#
# Bulk Modulus (GPa) = 50.71408 50.92405 50.81907
# Shear Modulus (GPa) = 7.39911 14.90647 11.15279
#
# Velocity S-wave (km/s) = 2.12570 3.01716 2.60978
# Velocity P-wave (km/s) = 6.08239 6.57546 6.33373
#
# Compressibility (1/GPa) = 0.01971839
#
# Stress axis : x y z
#
# Youngs Moduli (GPa) = 57.66999 49.41265 53.73625
#
# Poissons Ratio (x) = 0.24894 0.27197
# Poissons Ratio (y) = 0.29054 0.43716
# Poissons Ratio (z) = 0.29188 0.40198
#
# Static dielectric constant tensor:
#      x y z
#    x 3.135220 0.000000 0.000000 
#    y 0.000000 3.199030 0.000000 
#    z 0.000000 0.000000 2.900820 
# 
# 
# High freq. dielectric constant tensor:
#      x y z
#    x 1.609490 0.000000 0.000000 
#    y 0.000000 1.610130 0.000000 
#    z 0.000000 0.000000 1.600590 
# 
# From -- ./inp_files/76051.got.cif
#   From: 2010.03.12/outbox.cif.g09.slc.cpg/sg65_39_cif.got.tgz:76051.got - 2010.04.10 20:52:16.
