data_PCOD8269396
_publ_section_title
;
Structure prediction by ZEFSAII (Michael W. Deem and Ramdas Pophale) SiO2 
 PCOD8269396
Probable space group: C M M M
;
_chemical_formula_sum "Si O2"
_cell_formula_units_Z 88
_cell_length_a 9.093107
_cell_length_b 28.427435
_cell_length_c 17.837179
_cell_angle_alpha 90.000000
_cell_angle_beta 90.000000
_cell_angle_gamma 90.000000
_cell_volume 4610.798543
_symmetry_space_group_name_H-M "C M M M"
_symmetry_group_IT_number 65
_symmetry_cell_setting 'orthorhombic'
loop_
_space_group_symop_operation_xyz
x,y,z
-x,-y,z
x,-y,-z
-x,y,-z
-x,-y,-z
x,y,-z
-x,y,z
x,-y,z
1/2+x,1/2+y,z
1/2-x,1/2-y,z
1/2+x,1/2-y,-z
1/2-x,1/2+y,-z
1/2-x,1/2-y,-z
1/2+x,1/2+y,-z
1/2-x,1/2+y,z
1/2+x,1/2-y,z
loop_
_atom_site_type_symbol
_atom_site_label
_atom_site_fract_x
_atom_site_fract_y
_atom_site_fract_z
Si Si1 0.670143 0.445596 0.775705
Si Si2 0.172395 0.055011 0.500000
Si Si3 0.170309 0.704349 0.315092
Si Si4 0.832903 0.115474 0.915947
Si Si5 0.826935 0.703286 0.143746
Si Si6 0.172840 0.602141 0.639737
O O1 0.500000 0.438032 0.753039
O O2 0.712954 0.500000 0.774088
O O3 0.703858 0.426583 0.858822
O O4 0.773695 0.418333 0.718339
O O5 0.241780 0.077506 0.426794
O O6 0.000000 0.065029 0.500000
O O7 0.207597 0.000000 0.500000
O O8 0.250000 0.750000 0.350138
O O9 0.222330 0.695417 0.229870
O O10 0.207192 0.657927 0.363225
O O11 0.000000 0.716054 0.317076
O O12 0.725409 0.159156 0.904166
O O13 0.000000 0.132952 0.903779
O O14 0.809706 0.095809 0.000000
O O15 0.750000 0.750000 0.111596
O O16 0.000000 0.708808 0.134996
O O17 0.000000 0.592499 0.631578
#
# Coordination Sequence:
#
# PCOD8269396 Si02
#       6
#    16   8  16  16  16  16
#     4  10  21  37  58  83 111 148 193 239 288 343
#     4  11  25  43  62  89 122 155 194 237 282 333
#     4   9  19  34  56  86 116 147 187 231 276 334
#     4  10  21  36  54  79 112 150 193 240 289 341
#     4  10  19  34  55  81 112 147 188 235 286 340
#     4  11  22  39  62  90 120 151 189 234 285 340
#
# _framework density 19.085632
#
# number of rings (size 3 to 8) (size 9 to 14) (size 15 to 20)
#    0.000    1.909    1.818    1.909    0.000    6.545 
#    0.000    2.273    0.000    0.000    0.000    2.545 
#    0.000    0.000    0.000    0.000    0.000    0.000 
#
# Total GULP energy -545725.623850 kJ/mol
# GULP energy per Si atom -12402.855088 kJ/mol
# Density = 1.904219 g / cm^3
# Si number density = 19.085632 Si / 1000 Ang^3
#
#
#
# Elastic Constant Matrix: (Units=GPa)
#
#
# Indices 1 2 3 4 5 6 
#
# 1 81.6018 65.9060 50.9682 0.0000 0.0000 0.0000
# 2 65.9060 134.4680 54.5021 0.0000 0.0000 0.0000
# 3 50.9682 54.5021 104.0933 0.0000 0.0000 0.0000
# 4 0.0000 0.0000 0.0000 2.7793 0.0000 0.0000
# 5 0.0000 0.0000 0.0000 0.0000 69.1072 0.0000
# 6 0.0000 0.0000 0.0000 0.0000 0.0000 32.3619
#
#
#
# Elastic Compliance Matrix: (Units=1/GPa)
#
#
# Indices 1 2 3 4 5 6 
#
# 1 0.023739 -0.008789 -0.007022 0.000000 0.000000 0.000000
# 2 -0.008789 0.012694 -0.002343 0.000000 0.000000 0.000000
# 3 -0.007022 -0.002343 0.014272 0.000000 0.000000 0.000000
# 4 0.000000 0.000000 0.000000 0.359807 0.000000 0.000000
# 5 0.000000 0.000000 0.000000 0.000000 0.014470 0.000000
# 6 0.000000 0.000000 0.000000 0.000000 0.000000 0.030901
#
#
# Mechanical properties :
#
#
# Convention : Reuss Voigt Hill
#
# Bulk Modulus (GPa) = 69.45809 73.65730 71.55770
# Shear Modulus (GPa) = 10.06059 30.76878 20.41469
#
# Velocity S-wave (km/s) = 2.29842 4.01951 3.27408
# Velocity P-wave (km/s) = 6.59663 7.76007 7.20188
#
# Compressibility (1/GPa) = 0.01439717
#
# Stress axis : x y z
#
# Youngs Moduli (GPa) = 42.12526 78.77697 70.06899
#
# Poissons Ratio (x) = 0.69237 0.49200
# Poissons Ratio (y) = 0.37024 0.16418
# Poissons Ratio (z) = 0.29579 0.18458
#
# Static dielectric constant tensor:
#      x y z
#    x 3.490550 0.000000 0.000000 
#    y 0.000000 3.604670 0.000000 
#    z 0.000000 0.000000 3.455930 
# 
# 
# High freq. dielectric constant tensor:
#      x y z
#    x 1.744810 0.000000 0.000000 
#    y 0.000000 1.749390 0.000000 
#    z 0.000000 0.000000 1.731070 
# 
# From -- ./inp_files/50464.got.cif
#   From: 2010.03.12/outbox.cif.g09.slc.cpg/sg65_26_cif.got.tgz:50464.got - 2010.04.10 20:52:16.
