data_PCOD8269551
_publ_section_title
;
Structure prediction by ZEFSAII (Michael W. Deem and Ramdas Pophale) SiO2 
 PCOD8269551
Probable space group: C M M M
;
_chemical_formula_sum "Si O2"
_cell_formula_units_Z 72
_cell_length_a 26.603454
_cell_length_b 7.620276
_cell_length_c 21.079341
_cell_angle_alpha 90.000000
_cell_angle_beta 90.000000
_cell_angle_gamma 90.000000
_cell_volume 4273.323359
_symmetry_space_group_name_H-M "C M M M"
_symmetry_group_IT_number 65
_symmetry_cell_setting 'orthorhombic'
loop_
_space_group_symop_operation_xyz
x,y,z
-x,-y,z
x,-y,-z
-x,y,-z
-x,-y,-z
x,y,-z
-x,y,z
x,-y,z
1/2+x,1/2+y,z
1/2-x,1/2-y,z
1/2+x,1/2-y,-z
1/2-x,1/2+y,-z
1/2-x,1/2-y,-z
1/2+x,1/2+y,-z
1/2-x,1/2+y,z
1/2+x,1/2-y,z
loop_
_atom_site_type_symbol
_atom_site_label
_atom_site_fract_x
_atom_site_fract_y
_atom_site_fract_z
Si Si1 0.055787 0.202436 0.133831
Si Si2 0.556483 0.000000 0.349472
Si Si3 0.555820 0.795571 0.000000
Si Si4 0.694834 0.701126 0.659784
Si Si5 0.653822 0.000000 0.425523
Si Si6 0.098455 0.203886 0.735981
O O1 0.090388 0.270851 0.191583
O O2 0.000000 0.292724 0.135330
O O3 0.048382 0.000000 0.144817
O O4 0.082896 0.236519 0.065538
O O5 0.563859 0.823746 0.308443
O O6 0.500000 0.000000 0.376564
O O7 0.594842 0.000000 0.408313
O O8 0.500000 0.709094 0.000000
O O9 0.552338 0.000000 0.000000
O O10 0.692383 0.500000 0.636077
O O11 0.750000 0.750000 0.685224
O O12 0.680448 0.825535 0.601174
O O13 0.656872 0.733255 0.718418
O O14 0.660717 0.000000 0.500000
O O15 0.082951 0.000000 0.726183
#
# Coordination Sequence:
#
# PCOD8269551 Si02
#       6
#    16   8   8  16   8  16
#     4   9  16  27  42  61  88 124 160 193 233 281
#     4  10  20  33  52  73  98 132 163 200 239 277
#     4   9  17  25  35  57  90 123 156 195 234 276
#     4  10  19  35  54  75 101 126 155 200 249 292
#     4  10  22  37  52  76 103 129 163 194 234 295
#     4   9  19  32  49  72  98 126 164 204 242 289
#
# _framework density 16.848713
#
# number of rings (size 3 to 8) (size 9 to 14) (size 15 to 20)
#    0.000    2.556    1.111    1.000    1.556    3.778 
#    0.000    0.000    0.000    0.000    0.000    7.000 
#    0.000    0.000    0.000    0.000    0.000    0.000 
#
# Total GULP energy -446124.139902 kJ/mol
# GULP energy per Si atom -12392.337219 kJ/mol
# Density = 1.681036 g / cm^3
# Si number density = 16.848713 Si / 1000 Ang^3
#
#
#
# Elastic Constant Matrix: (Units=GPa)
#
#
# Indices 1 2 3 4 5 6 
#
# 1 102.0407 30.3017 48.7287 0.0000 0.0000 0.0000
# 2 30.3017 79.7876 33.1837 0.0000 0.0000 0.0000
# 3 48.7287 33.1837 133.5716 0.0000 0.0000 0.0000
# 4 0.0000 0.0000 0.0000 20.1133 0.0000 0.0000
# 5 0.0000 0.0000 0.0000 0.0000 18.1973 0.0000
# 6 0.0000 0.0000 0.0000 0.0000 0.0000 16.3085
#
#
#
# Elastic Compliance Matrix: (Units=1/GPa)
#
#
# Indices 1 2 3 4 5 6 
#
# 1 0.012557 -0.003194 -0.003788 0.000000 0.000000 0.000000
# 2 -0.003194 0.014790 -0.002509 0.000000 0.000000 0.000000
# 3 -0.003788 -0.002509 0.009492 0.000000 0.000000 0.000000
# 4 0.000000 0.000000 0.000000 0.049718 0.000000 0.000000
# 5 0.000000 0.000000 0.000000 0.000000 0.054953 0.000000
# 6 0.000000 0.000000 0.000000 0.000000 0.000000 0.061318
#
#
# Mechanical properties :
#
#
# Convention : Reuss Voigt Hill
#
# Bulk Modulus (GPa) = 55.99817 59.98090 57.98953
# Shear Modulus (GPa) = 21.95279 24.46953 23.21116
#
# Velocity S-wave (km/s) = 3.61354 3.81505 3.71566
# Velocity P-wave (km/s) = 7.12167 7.42180 7.27328
#
# Compressibility (1/GPa) = 0.01785773
#
# Stress axis : x y z
#
# Youngs Moduli (GPa) = 79.63601 67.61440 105.35470
#
# Poissons Ratio (x) = 0.21594 0.39904
# Poissons Ratio (y) = 0.25433 0.26435
# Poissons Ratio (z) = 0.30163 0.16966
#
# Static dielectric constant tensor:
#      x y z
#    x 3.167360 0.000000 0.000000 
#    y 0.000000 3.308990 0.000000 
#    z 0.000000 0.000000 3.457280 
# 
# 
# High freq. dielectric constant tensor:
#      x y z
#    x 1.615990 0.000000 0.000000 
#    y 0.000000 1.665500 0.000000 
#    z 0.000000 0.000000 1.639890 
# 
# From -- ./inp_files/59571.got.cif
#   From: 2010.03.12/outbox.cif.g09.slc.cpg/sg65_30_cif.got.tgz:59571.got - 2010.04.10 20:52:16.
