data_PCOD8269880
_publ_section_title
;
Structure prediction by ZEFSAII (Michael W. Deem and Ramdas Pophale) SiO2 
 PCOD8269880
Probable space group: C M M M
;
_chemical_formula_sum "Si O2"
_cell_formula_units_Z 96
_cell_length_a 28.760520
_cell_length_b 16.922800
_cell_length_c 10.449397
_cell_angle_alpha 90.000000
_cell_angle_beta 90.000000
_cell_angle_gamma 90.000000
_cell_volume 5085.810631
_symmetry_space_group_name_H-M "C M M M"
_symmetry_group_IT_number 65
_symmetry_cell_setting 'orthorhombic'
loop_
_space_group_symop_operation_xyz
x,y,z
-x,-y,z
x,-y,-z
-x,y,-z
-x,-y,-z
x,y,-z
-x,y,z
x,-y,z
1/2+x,1/2+y,z
1/2-x,1/2-y,z
1/2+x,1/2-y,-z
1/2-x,1/2+y,-z
1/2-x,1/2-y,-z
1/2+x,1/2+y,-z
1/2-x,1/2+y,z
1/2+x,1/2-y,z
loop_
_atom_site_type_symbol
_atom_site_label
_atom_site_fract_x
_atom_site_fract_y
_atom_site_fract_z
Si Si1 0.134006 0.090666 0.351169
Si Si2 0.816762 0.408389 0.749512
Si Si3 0.053217 0.715696 0.000000
Si Si4 0.366719 0.093832 0.500000
Si Si5 0.867594 0.594425 0.000000
Si Si6 0.947456 0.294967 0.500000
Si Si7 0.731091 0.662055 0.353093
Si Si8 0.446405 0.688551 0.255840
O O1 0.121472 0.099934 0.500000
O O2 0.177335 0.148159 0.314513
O O3 0.088758 0.114799 0.268450
O O4 0.146888 0.000000 0.318657
O O5 0.827145 0.500000 0.750655
O O6 0.840876 0.370350 0.624216
O O7 0.838741 0.373268 0.878394
O O8 0.761765 0.392739 0.740305
O O9 0.082179 0.634871 0.000000
O O10 0.064718 0.767386 0.875796
O O11 0.000000 0.688055 0.000000
O O12 0.419090 0.124093 0.500000
O O13 0.366951 0.000000 0.500000
O O14 0.874534 0.500000 0.000000
O O15 0.935519 0.245799 0.373855
O O16 0.000000 0.323536 0.500000
O O17 0.737765 0.634893 0.500000
O O18 0.750000 0.750000 0.331469
O O19 0.500000 0.658656 0.259661
#
# Coordination Sequence:
#
# PCOD8269880 Si02
#       8
#    16  16   8   8   8   8  16  16
#     4  10  21  36  58  88 120 151 190 243 291 341
#     4  10  20  36  54  78 113 147 185 233 280 335
#     4  10  22  39  60  83 116 155 191 239 291 349
#     4  10  20  31  54  79 104 149 189 228 282 338
#     4  10  22  37  58  85 114 155 195 236 290 340
#     4  10  20  33  54  79 112 143 179 239 289 339
#     4  10  21  33  55  88 116 150 188 232 283 342
#     4  10  21  38  59  85 113 149 189 237 300 348
#
# _framework density 18.876045999999999
#
# number of rings (size 3 to 8) (size 9 to 14) (size 15 to 20)
#    0.000    2.000    1.667    1.500    4.667    1.333 
#    0.000    2.500    0.000    7.500    0.000    0.000 
#    0.000    0.000    0.000    0.000    0.000    0.000 
#
# Total GULP energy -595161.040475 kJ/mol
# GULP energy per Si atom -12399.188343 kJ/mol
# Density = 1.883308 g / cm^3
# Si number density = 18.876046 Si / 1000 Ang^3
#
#
#
# Elastic Constant Matrix: (Units=GPa)
#
#
# Indices 1 2 3 4 5 6 
#
# 1 133.2118 55.0623 50.3786 0.0000 0.0000 0.0000
# 2 55.0623 54.2884 32.8927 0.0000 0.0000 0.0000
# 3 50.3786 32.8927 131.0115 0.0000 0.0000 0.0000
# 4 0.0000 0.0000 0.0000 10.8558 0.0000 0.0000
# 5 0.0000 0.0000 0.0000 0.0000 3.2215 0.0000
# 6 0.0000 0.0000 0.0000 0.0000 0.0000 39.9734
#
#
#
# Elastic Compliance Matrix: (Units=1/GPa)
#
#
# Indices 1 2 3 4 5 6 
#
# 1 0.013377 -0.012326 -0.002049 0.000000 0.000000 0.000000
# 2 -0.012326 0.033082 -0.003566 0.000000 0.000000 0.000000
# 3 -0.002049 -0.003566 0.009316 0.000000 0.000000 0.000000
# 4 0.000000 0.000000 0.000000 0.092117 0.000000 0.000000
# 5 0.000000 0.000000 0.000000 0.000000 0.310412 0.000000
# 6 0.000000 0.000000 0.000000 0.000000 0.000000 0.025017
#
#
# Mechanical properties :
#
#
# Convention : Reuss Voigt Hill
#
# Bulk Modulus (GPa) = 50.26915 66.13100 58.20008
# Shear Modulus (GPa) = 9.50871 22.82201 16.16536
#
# Velocity S-wave (km/s) = 2.24686 3.48091 2.92960
# Velocity P-wave (km/s) = 5.78102 7.16003 6.50716
#
# Compressibility (1/GPa) = 0.01989291
#
# Stress axis : x y z
#
# Youngs Moduli (GPa) = 74.75772 30.22775 107.33915
#
# Poissons Ratio (x) = 0.37258 0.21996
# Poissons Ratio (y) = 0.92144 0.38279
# Poissons Ratio (z) = 0.15319 0.10780
#
# Static dielectric constant tensor:
#      x y z
#    x 3.513760 0.000000 0.000000 
#    y 0.000000 3.198110 0.000000 
#    z 0.000000 0.000000 3.640740 
# 
# 
# High freq. dielectric constant tensor:
#      x y z
#    x 1.742480 0.000000 0.000000 
#    y 0.000000 1.715830 0.000000 
#    z 0.000000 0.000000 1.725150 
# 
# From -- ./inp_files/30889.got.cif
#   From: 2010.03.12/outbox.cif.g09.slc.cpg/sg65_16_cif.got.tgz:30889.got - 2010.04.10 20:52:16.
