data_PCOD8269147
_publ_section_title
;
Structure prediction by ZEFSAII (Michael W. Deem and Ramdas Pophale) SiO2 
 PCOD8269147
Probable space group: C M M M
;
_chemical_formula_sum "Si O2"
_cell_formula_units_Z 72
_cell_length_a 16.078415
_cell_length_b 16.519039
_cell_length_c 13.773125
_cell_angle_alpha 90.000000
_cell_angle_beta 90.000000
_cell_angle_gamma 90.000000
_cell_volume 3658.141510
_symmetry_space_group_name_H-M "C M M M"
_symmetry_group_IT_number 65
_symmetry_cell_setting 'orthorhombic'
loop_
_space_group_symop_operation_xyz
x,y,z
-x,-y,z
x,-y,-z
-x,y,-z
-x,-y,-z
x,y,-z
-x,y,z
x,-y,z
1/2+x,1/2+y,z
1/2-x,1/2-y,z
1/2+x,1/2-y,-z
1/2-x,1/2+y,-z
1/2-x,1/2-y,-z
1/2+x,1/2+y,-z
1/2-x,1/2+y,z
1/2+x,1/2-y,z
loop_
_atom_site_type_symbol
_atom_site_label
_atom_site_fract_x
_atom_site_fract_y
_atom_site_fract_z
Si Si1 0.658401 0.908522 0.717302
Si Si2 0.000000 0.597233 0.390427
Si Si3 0.595653 0.404836 0.767867
Si Si4 0.754869 0.845357 0.892162
Si Si5 0.701976 0.667741 0.612472
O O1 0.579295 0.866283 0.666405
O O2 0.680260 0.870903 0.821234
O O3 0.734767 0.903786 0.641495
O O4 0.634790 0.000000 0.737410
O O5 0.000000 0.500000 0.394256
O O6 0.000000 0.631861 0.500000
O O7 0.500000 0.387362 0.796372
O O8 0.608827 0.500000 0.745188
O O9 0.655819 0.378004 0.855515
O O10 0.618339 0.349512 0.673694
O O11 0.750000 0.750000 0.896309
O O12 0.740557 0.881446 0.000000
O O13 0.678618 0.667254 0.500000
O O14 0.750000 0.750000 0.644235
#
# Coordination Sequence:
#
# PCOD8269147 Si02
#       5
#    16   8  16  16  16
#     4  10  19  33  55  80 106 141 182 227 273 318
#     4   9  18  32  51  79 111 139 173 216 264 318
#     4  10  21  36  57  85 112 142 183 233 285 335
#     4  10  21  39  58  79 108 144 185 227 278 336
#     4  10  20  35  52  76 111 149 188 225 269 329
#
# _framework density 19.682126
#
# number of rings (size 3 to 8) (size 9 to 14) (size 15 to 20)
#    0.000    2.111    0.000    6.000    0.000    5.333 
#    8.000    2.778    0.000    2.000    0.000    0.000 
#    0.000    0.000    0.000    0.000    0.000    0.000 
#
# Total GULP energy -446197.453963 kJ/mol
# GULP energy per Si atom -12394.373721 kJ/mol
# Density = 1.963733 g / cm^3
# Si number density = 19.682126 Si / 1000 Ang^3
#
#
#
# Elastic Constant Matrix: (Units=GPa)
#
#
# Indices 1 2 3 4 5 6 
#
# 1 132.9271 21.9643 73.7446 0.0000 0.0000 0.0000
# 2 21.9643 64.3274 35.7216 0.0000 0.0000 0.0000
# 3 73.7446 35.7216 172.4709 0.0000 0.0000 0.0000
# 4 0.0000 0.0000 0.0000 24.9657 0.0000 0.0000
# 5 0.0000 0.0000 0.0000 0.0000 18.7348 0.0000
# 6 0.0000 0.0000 0.0000 0.0000 0.0000 23.8979
#
#
#
# Elastic Compliance Matrix: (Units=1/GPa)
#
#
# Indices 1 2 3 4 5 6 
#
# 1 0.009939 -0.001168 -0.004008 0.000000 0.000000 0.000000
# 2 -0.001168 0.017703 -0.003167 0.000000 0.000000 0.000000
# 3 -0.004008 -0.003167 0.008168 0.000000 0.000000 0.000000
# 4 0.000000 0.000000 0.000000 0.040055 0.000000 0.000000
# 5 0.000000 0.000000 0.000000 0.000000 0.053377 0.000000
# 6 0.000000 0.000000 0.000000 0.000000 0.000000 0.041845
#
#
# Mechanical properties :
#
#
# Convention : Reuss Voigt Hill
#
# Bulk Modulus (GPa) = 52.29074 70.28741 61.28907
# Shear Modulus (GPa) = 25.75361 29.40600 27.57981
#
# Velocity S-wave (km/s) = 3.62121 3.86948 3.74740
# Velocity P-wave (km/s) = 6.64150 7.46677 7.06619
#
# Compressibility (1/GPa) = 0.01912385
#
# Stress axis : x y z
#
# Youngs Moduli (GPa) = 100.60929 56.48735 122.43277
#
# Poissons Ratio (x) = 0.06599 0.49070
# Poissons Ratio (y) = 0.11753 0.38776
# Poissons Ratio (z) = 0.40324 0.17890
#
# Static dielectric constant tensor:
#      x y z
#    x 3.779450 0.000000 0.000000 
#    y 0.000000 3.566240 0.000000 
#    z 0.000000 0.000000 3.816730 
# 
# 
# High freq. dielectric constant tensor:
#      x y z
#    x 1.759880 0.000000 0.000000 
#    y 0.000000 1.764560 0.000000 
#    z 0.000000 0.000000 1.766130 
# 
# From -- ./inp_files/39795.got.cif
#   From: 2010.03.12/outbox.cif.g09.slc.cpg/sg65_20_cif.got.tgz:39795.got - 2010.04.10 20:52:16.
