data_PCOD8269885
_publ_section_title
;
Structure prediction by ZEFSAII (Michael W. Deem and Ramdas Pophale) SiO2 
 PCOD8269885
Probable space group: C M M M
;
_chemical_formula_sum "Si O2"
_cell_formula_units_Z 100
_cell_length_a 28.102380
_cell_length_b 28.353200
_cell_length_c 8.993698
_cell_angle_alpha 90.000000
_cell_angle_beta 90.000000
_cell_angle_gamma 90.000000
_cell_volume 7166.110220
_symmetry_space_group_name_H-M "C M M M"
_symmetry_group_IT_number 65
_symmetry_cell_setting 'orthorhombic'
loop_
_space_group_symop_operation_xyz
x,y,z
-x,-y,z
x,-y,-z
-x,y,-z
-x,-y,-z
x,y,-z
-x,y,z
x,-y,z
1/2+x,1/2+y,z
1/2-x,1/2-y,z
1/2+x,1/2-y,-z
1/2-x,1/2+y,-z
1/2-x,1/2-y,-z
1/2+x,1/2+y,-z
1/2-x,1/2+y,z
1/2+x,1/2-y,z
loop_
_atom_site_type_symbol
_atom_site_label
_atom_site_fract_x
_atom_site_fract_y
_atom_site_fract_z
Si Si1 0.396054 0.000000 0.179781
Si Si2 0.417372 0.844688 0.336601
Si Si3 0.355800 0.221685 0.167151
Si Si4 0.500000 0.106836 0.160557
Si Si5 0.726368 0.143791 0.832319
Si Si6 0.338544 0.919911 0.664690
Si Si7 0.790992 0.788781 0.667555
Si Si8 0.500000 0.000000 0.204956
O O1 0.365367 0.955028 0.224460
O O2 0.446361 0.000000 0.276615
O O3 0.406519 0.000000 0.000000
O O4 0.437766 0.831217 0.500000
O O5 0.403880 0.797446 0.246229
O O6 0.454001 0.877588 0.250197
O O7 0.369532 0.873645 0.358108
O O8 0.315373 0.182084 0.165886
O O9 0.337752 0.268035 0.253073
O O10 0.369217 0.236331 0.000000
O O11 0.500000 0.050768 0.124709
O O12 0.500000 0.132024 0.000000
O O13 0.710379 0.096869 0.742517
O O14 0.773241 0.164967 0.754589
O O15 0.739514 0.129021 0.000000
O O16 0.328593 0.942104 0.500000
O O17 0.804409 0.803196 0.500000
O O18 0.750000 0.750000 0.667853
#
# Coordination Sequence:
#
# PCOD8269885 Si02
#       8
#     8  16  16   8  16  16  16   4
#     4  12  22  35  48  59  72  93 122 159 202 246
#     4  10  20  32  43  57  74  93 117 150 191 233
#     4   9  16  26  40  57  75  96 118 141 170 214
#     4  12  22  35  48  59  72  93 122 159 202 246
#     4   9  16  26  40  57  75  96 118 141 170 214
#     4  10  20  32  43  57  74  93 117 150 191 233
#     4   9  15  23  37  57  79  99 115 137 167 206
#     4  12  25  36  49  62  73  88 121 166 209 252
#
# _framework density 13.954572000000001
#
# number of rings (size 3 to 8) (size 9 to 14) (size 15 to 20)
#    0.000    2.080    1.600    3.600    0.000    7.040 
#    0.000    1.600    0.000    0.000    0.000    0.000 
#    0.000    0.000    0.000    0.000    0.000    0.000 
#
# Total GULP energy -619424.086473 kJ/mol
# GULP energy per Si atom -12388.481729 kJ/mol
# Density = 1.392281 g / cm^3
# Si number density = 13.954572 Si / 1000 Ang^3
#
#
#
# Elastic Constant Matrix: (Units=GPa)
#
#
# Indices 1 2 3 4 5 6 
#
# 1 43.6075 39.0501 36.5970 0.0000 0.0000 0.0000
# 2 39.0501 48.6086 34.0025 0.0000 0.0000 0.0000
# 3 36.5970 34.0025 129.4816 0.0000 0.0000 0.0000
# 4 0.0000 0.0000 0.0000 16.3472 0.0000 0.0000
# 5 0.0000 0.0000 0.0000 0.0000 12.3966 0.0000
# 6 0.0000 0.0000 0.0000 0.0000 0.0000 30.0357
#
#
#
# Elastic Compliance Matrix: (Units=1/GPa)
#
#
# Indices 1 2 3 4 5 6 
#
# 1 0.087555 -0.064960 -0.007688 0.000000 0.000000 0.000000
# 2 -0.064960 0.073398 -0.000914 0.000000 0.000000 0.000000
# 3 -0.007688 -0.000914 0.010136 0.000000 0.000000 0.000000
# 4 0.000000 0.000000 0.000000 0.061173 0.000000 0.000000
# 5 0.000000 0.000000 0.000000 0.000000 0.080667 0.000000
# 6 0.000000 0.000000 0.000000 0.000000 0.000000 0.033294
#
#
# Mechanical properties :
#
#
# Convention : Reuss Voigt Hill
#
# Bulk Modulus (GPa) = 41.72791 48.99964 45.36378
# Shear Modulus (GPa) = 9.97338 19.22577 14.59958
#
# Velocity S-wave (km/s) = 2.67629 3.71582 3.23804
# Velocity P-wave (km/s) = 6.28631 7.32118 6.82339
#
# Compressibility (1/GPa) = 0.02396477
#
# Stress axis : x y z
#
# Youngs Moduli (GPa) = 11.42144 13.62437 98.65710
#
# Poissons Ratio (x) = 0.88504 0.75846
# Poissons Ratio (y) = 0.74193 0.09020
# Poissons Ratio (z) = 0.08781 0.01246
#
# Static dielectric constant tensor:
#      x y z
#    x 2.516760 0.000000 0.000000 
#    y 0.000000 2.528040 0.000000 
#    z 0.000000 0.000000 3.045690 
# 
# 
# High freq. dielectric constant tensor:
#      x y z
#    x 1.487520 0.000000 0.000000 
#    y 0.000000 1.490380 0.000000 
#    z 0.000000 0.000000 1.554590 
# 
# From -- ./inp_files/19084.got.cif
#   From: 2010.03.12/outbox.cif.g09.slc.cpg/sg65_10_cif.got.tgz:19084.got - 2010.04.10 20:52:16.
