data_PCOD8269871
_publ_section_title
;
Structure prediction by ZEFSAII (Michael W. Deem and Ramdas Pophale) SiO2 
 PCOD8269871
Probable space group: C M M M
;
_chemical_formula_sum "Si O2"
_cell_formula_units_Z 88
_cell_length_a 28.021087
_cell_length_b 17.838426
_cell_length_c 9.235157
_cell_angle_alpha 90.000000
_cell_angle_beta 90.000000
_cell_angle_gamma 90.000000
_cell_volume 4616.212499
_symmetry_space_group_name_H-M "C M M M"
_symmetry_group_IT_number 65
_symmetry_cell_setting 'orthorhombic'
loop_
_space_group_symop_operation_xyz
x,y,z
-x,-y,z
x,-y,-z
-x,y,-z
-x,-y,-z
x,y,-z
-x,y,z
x,-y,z
1/2+x,1/2+y,z
1/2-x,1/2-y,z
1/2+x,1/2-y,-z
1/2-x,1/2+y,-z
1/2-x,1/2-y,-z
1/2+x,1/2+y,-z
1/2-x,1/2+y,z
1/2+x,1/2-y,z
loop_
_atom_site_type_symbol
_atom_site_label
_atom_site_fract_x
_atom_site_fract_y
_atom_site_fract_z
Si Si1 0.948275 0.082865 0.171844
Si Si2 0.135533 0.183245 0.827404
Si Si3 0.600391 0.153766 0.828954
Si Si4 0.818714 0.413642 0.343628
Si Si5 0.500000 0.913285 0.172269
Si Si6 0.213312 0.086651 0.328895
O O1 0.907934 0.135058 0.235856
O O2 0.000000 0.114747 0.218232
O O3 0.941096 0.000000 0.236015
O O4 0.944710 0.080416 0.000000
O O5 0.120944 0.266354 0.775899
O O6 0.182123 0.148731 0.754107
O O7 0.141631 0.179269 0.000000
O O8 0.639193 0.095526 0.771417
O O9 0.547366 0.131119 0.770631
O O10 0.598829 0.149751 0.000000
O O11 0.831832 0.376270 0.500000
O O12 0.810698 0.500000 0.371400
O O13 0.766922 0.385603 0.288615
O O14 0.500000 0.000000 0.228550
O O15 0.500000 0.913800 0.000000
O O16 0.204286 0.092488 0.500000
O O17 0.203198 0.000000 0.277625
#
# Coordination Sequence:
#
# PCOD8269871 Si02
#       6
#    16  16  16  16   8  16
#     4   8  14  25  43  67  95 130 170 209 249 294
#     4  10  20  31  48  77 110 139 170 213 258 307
#     4  10  21  34  52  80 110 140 171 211 264 316
#     4   9  19  37  58  77  99 132 177 222 262 311
#     4   9  18  34  55  77 104 139 176 212 257 313
#     4   9  19  36  56  76 101 138 179 216 259 311
#
# _framework density 19.063248000000002
#
# number of rings (size 3 to 8) (size 9 to 14) (size 15 to 20)
#    0.000    2.818    0.000    2.727    1.273    4.364 
#    0.000    5.909    0.000    2.182    0.000    2.545 
#    0.000    0.000    0.000    0.000    0.000    0.000 
#
# Total GULP energy -545078.188356 kJ/mol
# GULP energy per Si atom -12388.140644 kJ/mol
# Density = 1.901986 g / cm^3
# Si number density = 19.063248 Si / 1000 Ang^3
#
#
#
# Elastic Constant Matrix: (Units=GPa)
#
#
# Indices 1 2 3 4 5 6 
#
# 1 164.8530 62.7698 32.3654 0.0000 0.0000 0.0000
# 2 62.7698 73.9703 24.6865 0.0000 0.0000 0.0000
# 3 32.3654 24.6865 19.5301 0.0000 0.0000 0.0000
# 4 0.0000 0.0000 0.0000 20.4115 0.0000 0.0000
# 5 0.0000 0.0000 0.0000 0.0000 0.2539 0.0000
# 6 0.0000 0.0000 0.0000 0.0000 0.0000 -37.8998
#
#
#
# Elastic Compliance Matrix: (Units=1/GPa)
#
#
# Indices 1 2 3 4 5 6 
#
# 1 0.009996 -0.005109 -0.010107 0.000000 0.000000 0.000000
# 2 -0.005109 0.025995 -0.024391 0.000000 0.000000 0.000000
# 3 -0.010107 -0.024391 0.098782 0.000000 0.000000 0.000000
# 4 0.000000 0.000000 0.000000 0.048992 0.000000 0.000000
# 5 0.000000 0.000000 0.000000 0.000000 3.938365 0.000000
# 6 0.000000 0.000000 0.000000 0.000000 0.000000 -0.026385
#
#
# Mechanical properties :
#
#
# Convention : Reuss Voigt Hill
#
# Bulk Modulus (GPa) = 17.99884 55.33299 36.66591
# Shear Modulus (GPa) = 1.19233 5.78857 3.49045
#
# Velocity S-wave (km/s) = 0.79172 1.74445 1.35461
# Velocity P-wave (km/s) = 3.20903 5.75730 4.66071
#
# Compressibility (1/GPa) = 0.05555915
#
# Stress axis : x y z
#
# Youngs Moduli (GPa) = 100.04383 38.46962 10.12327
#
# Poissons Ratio (x) = 0.19655 0.10231
# Poissons Ratio (y) = 0.51114 0.24691
# Poissons Ratio (z) = 1.01112 0.93830
#
# Static dielectric constant tensor:
#      x y z
#    x 3.778090 0.000000 0.000000 
#    y 0.000000 3.621780 0.000000 
#    z 0.000000 0.000000 3.016640 
# 
# 
# High freq. dielectric constant tensor:
#      x y z
#    x 1.758280 0.000000 0.000000 
#    y 0.000000 1.738330 0.000000 
#    z 0.000000 0.000000 1.696650 
# 
# From -- ./inp_files/18350.got.cif
#   From: 2010.03.12/outbox.cif.g09.slc.cpg/sg65_10_cif.got.tgz:18350.got - 2010.04.10 20:52:16.
