data_PCOD8269718
_publ_section_title
;
Structure prediction by ZEFSAII (Michael W. Deem and Ramdas Pophale) SiO2 
 PCOD8269718
Probable space group: C M M M
;
_chemical_formula_sum "Si O2"
_cell_formula_units_Z 72
_cell_length_a 17.037082
_cell_length_b 28.850670
_cell_length_c 9.287754
_cell_angle_alpha 90.000000
_cell_angle_beta 90.000000
_cell_angle_gamma 90.000000
_cell_volume 4565.221153
_symmetry_space_group_name_H-M "C M M M"
_symmetry_group_IT_number 65
_symmetry_cell_setting 'orthorhombic'
loop_
_space_group_symop_operation_xyz
x,y,z
-x,-y,z
x,-y,-z
-x,y,-z
-x,-y,-z
x,y,-z
-x,y,z
x,-y,z
1/2+x,1/2+y,z
1/2-x,1/2-y,z
1/2+x,1/2-y,-z
1/2-x,1/2+y,-z
1/2-x,1/2-y,-z
1/2+x,1/2+y,-z
1/2-x,1/2+y,z
1/2+x,1/2-y,z
loop_
_atom_site_type_symbol
_atom_site_label
_atom_site_fract_x
_atom_site_fract_y
_atom_site_fract_z
Si Si1 0.785998 0.646156 0.332783
Si Si2 0.671640 0.280240 0.659637
Si Si3 0.000000 0.445367 0.159224
Si Si4 0.090841 0.293293 0.832814
Si Si5 0.150880 0.551690 0.334040
O O1 0.802956 0.657941 0.500000
O O2 0.701521 0.668510 0.289127
O O3 0.857745 0.667315 0.242705
O O4 0.781572 0.590352 0.308174
O O5 0.633903 0.282504 0.500000
O O6 0.750000 0.250000 0.657946
O O7 0.608936 0.257922 0.768134
O O8 0.923002 0.429902 0.244156
O O9 0.000000 0.500000 0.144884
O O10 0.000000 0.422240 0.000000
O O11 0.000000 0.305415 0.807287
O O12 0.112466 0.291861 0.000000
O O13 0.125059 0.550227 0.500000
O O14 0.179343 0.500000 0.285616
#
# Coordination Sequence:
#
# PCOD8269718 Si02
#       5
#    16  16   8  16  16
#     4   9  18  30  44  61  81 108 140 170 201 241
#     4   8  15  29  45  60  79 104 134 166 203 245
#     4   9  17  27  37  51  75 105 135 171 207 231
#     4  10  20  30  41  61  85 107 135 169 203 243
#     4   9  17  29  43  58  78 106 139 171 202 237
#
# _framework density 15.771414999999999
#
# number of rings (size 3 to 8) (size 9 to 14) (size 15 to 20)
#    0.000    3.000    0.000    2.333    1.556    8.000 
#    0.000    0.000    0.000    0.000    0.000    0.000 
#    0.000    0.889    0.000   11.111    0.000    1.778 
#
# Total GULP energy -446042.485870 kJ/mol
# GULP energy per Si atom -12390.069052 kJ/mol
# Density = 1.573552 g / cm^3
# Si number density = 15.771415 Si / 1000 Ang^3
#
#
#
# Elastic Constant Matrix: (Units=GPa)
#
#
# Indices 1 2 3 4 5 6 
#
# 1 22.3707 21.5482 19.3783 0.0000 0.0000 0.0000
# 2 21.5482 102.1415 27.4164 0.0000 0.0000 0.0000
# 3 19.3783 27.4164 67.1659 0.0000 0.0000 0.0000
# 4 0.0000 0.0000 0.0000 11.3527 0.0000 0.0000
# 5 0.0000 0.0000 0.0000 0.0000 18.7340 0.0000
# 6 0.0000 0.0000 0.0000 0.0000 0.0000 23.1599
#
#
#
# Elastic Compliance Matrix: (Units=1/GPa)
#
#
# Indices 1 2 3 4 5 6 
#
# 1 0.067867 -0.010177 -0.015426 0.000000 0.000000 0.000000
# 2 -0.010177 0.012521 -0.002175 0.000000 0.000000 0.000000
# 3 -0.015426 -0.002175 0.020227 0.000000 0.000000 0.000000
# 4 0.000000 0.000000 0.000000 0.088085 0.000000 0.000000
# 5 0.000000 0.000000 0.000000 0.000000 0.053379 0.000000
# 6 0.000000 0.000000 0.000000 0.000000 0.000000 0.043178
#
#
# Mechanical properties :
#
#
# Convention : Reuss Voigt Hill
#
# Bulk Modulus (GPa) = 22.19324 36.48489 29.33907
# Shear Modulus (GPa) = 14.05158 18.87169 16.46163
#
# Velocity S-wave (km/s) = 2.98812 3.46291 3.23424
# Velocity P-wave (km/s) = 5.09976 6.25881 5.70878
#
# Compressibility (1/GPa) = 0.04505877
#
# Stress axis : x y z
#
# Youngs Moduli (GPa) = 14.73472 79.86559 49.43893
#
# Poissons Ratio (x) = 0.81278 0.76267
# Poissons Ratio (y) = 0.14995 0.10752
# Poissons Ratio (z) = 0.22730 0.17369
#
# Static dielectric constant tensor:
#      x y z
#    x 2.785730 0.000000 0.000000 
#    y 0.000000 3.389760 0.000000 
#    z 0.000000 0.000000 3.147990 
# 
# 
# High freq. dielectric constant tensor:
#      x y z
#    x 1.550460 0.000000 0.000000 
#    y 0.000000 1.605560 0.000000 
#    z 0.000000 0.000000 1.610200 
# 
# From -- ./inp_files/12001.got.cif
#   From: 2010.03.12/outbox.cif.g09.slc.cpg/sg65_7_cif.got.tgz:12001.got - 2010.04.10 20:52:16.
