data_PCOD8269386
_publ_section_title
;
Structure prediction by ZEFSAII (Michael W. Deem and Ramdas Pophale) SiO2 
 PCOD8269386
Probable space group: C M M M
;
_chemical_formula_sum "Si O2"
_cell_formula_units_Z 96
_cell_length_a 28.933868
_cell_length_b 8.887022
_cell_length_c 20.366201
_cell_angle_alpha 90.000000
_cell_angle_beta 90.000000
_cell_angle_gamma 90.000000
_cell_volume 5236.881861
_symmetry_space_group_name_H-M "C M M M"
_symmetry_group_IT_number 65
_symmetry_cell_setting 'orthorhombic'
loop_
_space_group_symop_operation_xyz
x,y,z
-x,-y,z
x,-y,-z
-x,y,-z
-x,-y,-z
x,y,-z
-x,y,z
x,-y,z
1/2+x,1/2+y,z
1/2-x,1/2-y,z
1/2+x,1/2-y,-z
1/2-x,1/2+y,-z
1/2-x,1/2-y,-z
1/2+x,1/2+y,-z
1/2-x,1/2+y,z
1/2+x,1/2-y,z
loop_
_atom_site_type_symbol
_atom_site_label
_atom_site_fract_x
_atom_site_fract_y
_atom_site_fract_z
Si Si1 0.891638 0.821129 0.572425
Si Si2 0.109886 0.676886 0.185382
Si Si3 0.703576 0.675568 0.629164
Si Si4 0.702811 0.676601 0.781626
Si Si5 0.946642 0.822517 0.697428
Si Si6 0.946449 0.828052 0.075594
O O1 0.905651 0.760764 0.500000
O O2 0.840704 0.759403 0.590615
O O3 0.928983 0.766831 0.626029
O O4 0.890012 0.000000 0.572553
O O5 0.115403 0.500000 0.193263
O O6 0.160156 0.751449 0.179753
O O7 0.081851 0.739555 0.246983
O O8 0.083282 0.714179 0.118543
O O9 0.708839 0.500000 0.618054
O O10 0.750000 0.750000 0.600882
O O11 0.696372 0.715584 0.705216
O O12 0.704243 0.500000 0.795043
O O13 0.750000 0.750000 0.808429
O O14 0.000000 0.778413 0.703983
O O15 0.938588 0.000000 0.706088
O O16 0.000000 0.791573 0.087513
O O17 0.936136 0.000000 0.096568
O O18 0.933172 0.802579 0.000000
#
# Coordination Sequence:
#
# PCOD8269386 Si02
#       6
#    16  16  16  16  16  16
#     4   9  17  31  50  73 101 133 173 224 279 330
#     4  12  23  34  54  83 114 147 182 221 268 318
#     4   9  17  30  49  72 100 131 166 213 268 323
#     4  10  19  34  55  80 110 141 179 224 272 322
#     4  10  20  35  54  75 101 137 182 231 280 327
#     4   9  19  37  60  85 114 149 186 223 268 321
#
# _framework density 18.331520000000001
#
# number of rings (size 3 to 8) (size 9 to 14) (size 15 to 20)
#    0.000    2.167    1.667    3.000    0.000    4.333 
#    0.000    2.500    0.000    2.000    0.000    1.167 
#    0.000    0.000    0.000    0.000    0.000    0.000 
#
# Total GULP energy -595239.245964 kJ/mol
# GULP energy per Si atom -12400.817624 kJ/mol
# Density = 1.828980 g / cm^3
# Si number density = 18.331520 Si / 1000 Ang^3
#
#
#
# Elastic Constant Matrix: (Units=GPa)
#
#
# Indices 1 2 3 4 5 6 
#
# 1 125.3959 50.1059 54.3894 0.0000 0.0000 0.0000
# 2 50.1059 61.8233 32.8115 0.0000 0.0000 0.0000
# 3 54.3894 32.8115 88.6683 0.0000 0.0000 0.0000
# 4 0.0000 0.0000 0.0000 12.4217 0.0000 0.0000
# 5 0.0000 0.0000 0.0000 0.0000 29.4615 0.0000
# 6 0.0000 0.0000 0.0000 0.0000 0.0000 30.1263
#
#
#
# Elastic Compliance Matrix: (Units=1/GPa)
#
#
# Indices 1 2 3 4 5 6 
#
# 1 0.013524 -0.008161 -0.005276 0.000000 0.000000 0.000000
# 2 -0.008161 0.025053 -0.004265 0.000000 0.000000 0.000000
# 3 -0.005276 -0.004265 0.016092 0.000000 0.000000 0.000000
# 4 0.000000 0.000000 0.000000 0.080504 0.000000 0.000000
# 5 0.000000 0.000000 0.000000 0.000000 0.033943 0.000000
# 6 0.000000 0.000000 0.000000 0.000000 0.000000 0.033194
#
#
# Mechanical properties :
#
#
# Convention : Reuss Voigt Hill
#
# Bulk Modulus (GPa) = 51.90430 61.16681 56.53555
# Shear Modulus (GPa) = 20.48055 23.64061 22.06058
#
# Velocity S-wave (km/s) = 3.34613 3.59502 3.47280
# Velocity P-wave (km/s) = 6.58061 7.11840 6.85478
#
# Compressibility (1/GPa) = 0.01926623
#
# Stress axis : x y z
#
# Youngs Moduli (GPa) = 73.94291 39.91596 62.14126
#
# Poissons Ratio (x) = 0.32574 0.32784
# Poissons Ratio (y) = 0.60343 0.26502
# Poissons Ratio (z) = 0.39011 0.17024
#
# Static dielectric constant tensor:
#      x y z
#    x 3.576380 0.000000 0.000000 
#    y 0.000000 3.165060 0.000000 
#    z 0.000000 0.000000 3.352610 
# 
# 
# High freq. dielectric constant tensor:
#      x y z
#    x 1.720130 0.000000 0.000000 
#    y 0.000000 1.688320 0.000000 
#    z 0.000000 0.000000 1.697510 
# 
# From -- ./inp_files/60227.got.cif
#   From: 2010.03.12/outbox.cif.g09.slc.cpg/sg65_31_cif.got.tgz:60227.got - 2010.04.10 20:52:16.
