data_PCOD8269208
_publ_section_title
;
Structure prediction by ZEFSAII (Michael W. Deem and Ramdas Pophale) SiO2 
 PCOD8269208
Probable space group: C M M M
;
_chemical_formula_sum "Si O2"
_cell_formula_units_Z 104
_cell_length_a 25.218782
_cell_length_b 24.145031
_cell_length_c 9.142021
_cell_angle_alpha 90.000000
_cell_angle_beta 90.000000
_cell_angle_gamma 90.000000
_cell_volume 5566.652220
_symmetry_space_group_name_H-M "C M M M"
_symmetry_group_IT_number 65
_symmetry_cell_setting 'orthorhombic'
loop_
_space_group_symop_operation_xyz
x,y,z
-x,-y,z
x,-y,-z
-x,y,-z
-x,-y,-z
x,y,-z
-x,y,z
x,-y,z
1/2+x,1/2+y,z
1/2-x,1/2-y,z
1/2+x,1/2-y,-z
1/2-x,1/2+y,-z
1/2-x,1/2-y,-z
1/2+x,1/2+y,-z
1/2-x,1/2+y,z
1/2+x,1/2-y,z
loop_
_atom_site_type_symbol
_atom_site_label
_atom_site_fract_x
_atom_site_fract_y
_atom_site_fract_z
Si Si1 0.811225 0.242726 0.839348
Si Si2 0.439229 0.892084 0.171037
Si Si3 0.562656 0.000000 0.661909
Si Si4 0.738169 0.936212 0.329182
Si Si5 0.164798 0.881441 0.826830
Si Si6 0.558389 0.437602 0.173628
Si Si7 0.152321 0.344899 0.671030
O O1 0.750000 0.250000 0.866352
O O2 0.825772 0.181882 0.779863
O O3 0.825337 0.285249 0.711710
O O4 0.838620 0.253203 0.000000
O O5 0.500000 0.878353 0.208655
O O6 0.402546 0.844915 0.238254
O O7 0.418200 0.947185 0.249571
O O8 0.430680 0.899253 0.000000
O O9 0.500000 0.000000 0.648067
O O10 0.588969 0.000000 0.500000
O O11 0.749075 0.927792 0.500000
O O12 0.791891 0.921382 0.245208
O O13 0.691285 0.894655 0.278187
O O14 0.722083 0.000000 0.294180
O O15 0.106168 0.898772 0.769179
O O16 0.170321 0.888776 0.000000
O O17 0.500000 0.416360 0.227718
O O18 0.567800 0.500000 0.231592
O O19 0.558947 0.437708 0.000000
O O20 0.140318 0.348457 0.500000
#
# Coordination Sequence:
#
# PCOD8269208 Si02
#       7
#    16  16   8  16  16  16  16
#     4  10  20  36  55  77 109 143 181 231 276 321
#     4  10  21  37  56  79 108 141 180 227 277 327
#     4   9  17  31  53  79 107 141 179 217 262 321
#     4  10  22  37  52  77 112 143 173 220 278 331
#     4  10  19  33  56  81 105 141 184 224 268 326
#     4   8  14  26  47  78 112 139 169 215 265 315
#     4  11  23  37  57  80 106 144 186 228 278 339
#
# _framework density 18.682683999999998
#
# number of rings (size 3 to 8) (size 9 to 14) (size 15 to 20)
#    0.000    2.231    1.538    2.077    1.077    4.308 
#    0.000    0.769    0.000    3.231    0.000    2.154 
#    0.000    0.000    0.000    0.000    0.000    0.000 
#
# Total GULP energy -644575.170539 kJ/mol
# GULP energy per Si atom -12395.676357 kJ/mol
# Density = 1.864016 g / cm^3
# Si number density = 18.682684 Si / 1000 Ang^3
#
#
#
# Elastic Constant Matrix: (Units=GPa)
#
#
# Indices 1 2 3 4 5 6 
#
# 1 111.4844 51.6244 38.4581 0.0000 0.0000 0.0000
# 2 51.6244 113.8966 27.7420 0.0000 0.0000 0.0000
# 3 38.4581 27.7420 58.9846 0.0000 0.0000 0.0000
# 4 0.0000 0.0000 0.0000 29.5282 0.0000 0.0000
# 5 0.0000 0.0000 0.0000 0.0000 35.0533 0.0000
# 6 0.0000 0.0000 0.0000 0.0000 0.0000 29.0995
#
#
#
# Elastic Compliance Matrix: (Units=1/GPa)
#
#
# Indices 1 2 3 4 5 6 
#
# 1 0.013288 -0.004419 -0.006585 0.000000 0.000000 0.000000
# 2 -0.004419 0.011385 -0.002474 0.000000 0.000000 0.000000
# 3 -0.006585 -0.002474 0.022411 0.000000 0.000000 0.000000
# 4 0.000000 0.000000 0.000000 0.033866 0.000000 0.000000
# 5 0.000000 0.000000 0.000000 0.000000 0.028528 0.000000
# 6 0.000000 0.000000 0.000000 0.000000 0.000000 0.034365
#
#
# Mechanical properties :
#
#
# Convention : Reuss Voigt Hill
#
# Bulk Modulus (GPa) = 49.68211 57.77940 53.73075
# Shear Modulus (GPa) = 28.16781 29.83894 29.00338
#
# Velocity S-wave (km/s) = 3.88712 4.00076 3.94435
# Velocity P-wave (km/s) = 6.84080 7.23432 7.04031
#
# Compressibility (1/GPa) = 0.02012797
#
# Stress axis : x y z
#
# Youngs Moduli (GPa) = 75.25731 87.83288 44.62143
#
# Poissons Ratio (x) = 0.38811 0.29385
# Poissons Ratio (y) = 0.33254 0.11038
# Poissons Ratio (z) = 0.49560 0.21728
#
# Static dielectric constant tensor:
#      x y z
#    x 3.578430 0.000000 0.000000 
#    y 0.000000 3.435520 0.000000 
#    z 0.000000 0.000000 3.271740 
# 
# 
# High freq. dielectric constant tensor:
#      x y z
#    x 1.726980 0.000000 0.000000 
#    y 0.000000 1.717710 0.000000 
#    z 0.000000 0.000000 1.709300 
# 
# From -- ./inp_files/16477.got.cif
#   From: 2010.03.12/outbox.cif.g09.slc.cpg/sg65_9_cif.got.tgz:16477.got - 2010.04.10 20:52:16.
