data_PCOD8269729
_publ_section_title
;
Structure prediction by ZEFSAII (Michael W. Deem and Ramdas Pophale) SiO2 
 PCOD8269729
Probable space group: C M M M
;
_chemical_formula_sum "Si O2"
_cell_formula_units_Z 112
_cell_length_a 28.931672
_cell_length_b 13.764396
_cell_length_c 15.050627
_cell_angle_alpha 90.000000
_cell_angle_beta 90.000000
_cell_angle_gamma 90.000000
_cell_volume 5993.565893
_symmetry_space_group_name_H-M "C M M M"
_symmetry_group_IT_number 65
_symmetry_cell_setting 'orthorhombic'
loop_
_space_group_symop_operation_xyz
x,y,z
-x,-y,z
x,-y,-z
-x,y,-z
-x,-y,-z
x,y,-z
-x,y,z
x,-y,z
1/2+x,1/2+y,z
1/2-x,1/2-y,z
1/2+x,1/2-y,-z
1/2-x,1/2+y,-z
1/2-x,1/2-y,-z
1/2+x,1/2+y,-z
1/2-x,1/2+y,z
1/2+x,1/2-y,z
loop_
_atom_site_type_symbol
_atom_site_label
_atom_site_fract_x
_atom_site_fract_y
_atom_site_fract_z
Si Si1 0.593520 0.887292 0.099379
Si Si2 0.809438 0.689995 0.098537
Si Si3 0.718180 0.608423 0.850313
Si Si4 0.628810 0.217465 0.395731
Si Si5 0.947435 0.387873 0.282341
Si Si6 0.282144 0.107404 0.602680
Si Si7 0.315930 0.390740 0.344641
O O1 0.639183 0.831152 0.131736
O O2 0.556232 0.865362 0.176336
O O3 0.605623 0.000000 0.095383
O O4 0.576766 0.853259 0.000000
O O5 0.772447 0.637652 0.164022
O O6 0.803238 0.806700 0.089364
O O7 0.802316 0.645743 0.000000
O O8 0.714505 0.500000 0.892742
O O9 0.689057 0.610325 0.760602
O O10 0.619759 0.199010 0.500000
O O11 0.584412 0.181585 0.341644
O O12 0.674740 0.165366 0.355828
O O13 0.639188 0.331022 0.377195
O O14 0.933865 0.500000 0.301162
O O15 0.000000 0.367369 0.310544
O O16 0.293445 0.098817 0.500000
O O17 0.231630 0.156116 0.615916
O O18 0.280257 0.000000 0.647384
O O19 0.322940 0.500000 0.380964
#
# Coordination Sequence:
#
# PCOD8269729 Si02
#       7
#    16  16  16  16  16  16  16
#     4   9  18  33  54  79 106 136 171 212 260 315
#     4  10  20  31  46  70 100 138 180 219 259 309
#     4  10  20  30  43  67 100 140 179 216 257 300
#     4  11  22  35  54  76 103 143 181 217 266 318
#     4  10  22  38  57  82 108 135 171 218 271 326
#     4   9  18  31  47  72 103 134 170 208 251 304
#     4  10  21  33  49  75 104 137 177 220 260 302
#
# _framework density 18.686706000000001
#
# number of rings (size 3 to 8) (size 9 to 14) (size 15 to 20)
#    0.000    2.143    0.000    3.429    6.000    5.143 
#    0.000    2.143    0.000    0.429    0.000    1.000 
#    0.000    0.000    0.000   12.286    0.000    0.286 
#
# Total GULP energy -694021.951267 kJ/mol
# GULP energy per Si atom -12393.249130 kJ/mol
# Density = 1.864417 g / cm^3
# Si number density = 18.686706 Si / 1000 Ang^3
#
#
#
# Elastic Constant Matrix: (Units=GPa)
#
#
# Indices 1 2 3 4 5 6 
#
# 1 99.9406 43.3704 35.9151 0.0000 0.0000 0.0000
# 2 43.3704 79.8521 24.8997 0.0000 0.0000 0.0000
# 3 35.9151 24.8997 68.8729 0.0000 0.0000 0.0000
# 4 0.0000 0.0000 0.0000 21.4288 0.0000 0.0000
# 5 0.0000 0.0000 0.0000 0.0000 22.6680 0.0000
# 6 0.0000 0.0000 0.0000 0.0000 0.0000 24.3547
#
#
#
# Elastic Compliance Matrix: (Units=1/GPa)
#
#
# Indices 1 2 3 4 5 6 
#
# 1 0.014667 -0.006290 -0.005374 0.000000 0.000000 0.000000
# 2 -0.006290 0.016812 -0.002798 0.000000 0.000000 0.000000
# 3 -0.005374 -0.002798 0.018334 0.000000 0.000000 0.000000
# 4 0.000000 0.000000 0.000000 0.046666 0.000000 0.000000
# 5 0.000000 0.000000 0.000000 0.000000 0.044115 0.000000
# 6 0.000000 0.000000 0.000000 0.000000 0.000000 0.041060
#
#
# Mechanical properties :
#
#
# Convention : Reuss Voigt Hill
#
# Bulk Modulus (GPa) = 47.87505 50.78176 49.32841
# Shear Modulus (GPa) = 22.98414 23.32232 23.15323
#
# Velocity S-wave (km/s) = 3.51090 3.53664 3.52379
# Velocity P-wave (km/s) = 6.48928 6.62657 6.55828
#
# Compressibility (1/GPa) = 0.02088771
#
# Stress axis : x y z
#
# Youngs Moduli (GPa) = 68.18016 59.48102 54.54492
#
# Poissons Ratio (x) = 0.37416 0.29314
# Poissons Ratio (y) = 0.42888 0.15261
# Poissons Ratio (z) = 0.36642 0.16642
#
# Static dielectric constant tensor:
#      x y z
#    x 3.110840 0.000000 0.000000 
#    y 0.000000 3.556590 0.000000 
#    z 0.000000 0.000000 3.362690 
# 
# 
# High freq. dielectric constant tensor:
#      x y z
#    x 1.685890 0.000000 0.000000 
#    y 0.000000 1.718550 0.000000 
#    z 0.000000 0.000000 1.729220 
# 
# From -- ./inp_files/47021.got.cif
#   From: 2010.03.12/outbox.cif.g09.slc.cpg/sg65_24_cif.got.tgz:47021.got - 2010.04.10 20:52:16.
