data_PCOD8269187
_publ_section_title
;
Structure prediction by ZEFSAII (Michael W. Deem and Ramdas Pophale) SiO2 
 PCOD8269187
Probable space group: C M M M
;
_chemical_formula_sum "Si O2"
_cell_formula_units_Z 80
_cell_length_a 22.136868
_cell_length_b 8.381825
_cell_length_c 22.216029
_cell_angle_alpha 90.000000
_cell_angle_beta 90.000000
_cell_angle_gamma 90.000000
_cell_volume 4122.125389
_symmetry_space_group_name_H-M "C M M M"
_symmetry_group_IT_number 65
_symmetry_cell_setting 'orthorhombic'
loop_
_space_group_symop_operation_xyz
x,y,z
-x,-y,z
x,-y,-z
-x,y,-z
-x,-y,-z
x,y,-z
-x,y,z
x,-y,z
1/2+x,1/2+y,z
1/2-x,1/2-y,z
1/2+x,1/2-y,-z
1/2-x,1/2+y,-z
1/2-x,1/2-y,-z
1/2+x,1/2+y,-z
1/2-x,1/2+y,z
1/2+x,1/2-y,z
loop_
_atom_site_type_symbol
_atom_site_label
_atom_site_fract_x
_atom_site_fract_y
_atom_site_fract_z
Si Si1 0.000000 0.310963 0.429513
Si Si2 0.879541 0.813421 0.618605
Si Si3 0.815886 0.188454 0.500000
Si Si4 0.312796 0.814619 0.728541
Si Si5 0.067380 0.810633 0.068621
Si Si6 0.683762 0.313574 0.859340
O O1 0.052142 0.222749 0.394435
O O2 0.000000 0.500000 0.419770
O O3 0.000000 0.266964 0.500000
O O4 0.845113 0.742202 0.560561
O O5 0.862867 0.717295 0.678504
O O6 0.866777 0.000000 0.628613
O O7 0.750000 0.250000 0.500000
O O8 0.822022 0.000000 0.500000
O O9 0.250000 0.750000 0.701408
O O10 0.328088 0.721924 0.789537
O O11 0.308045 0.000000 0.744040
O O12 0.125280 0.739768 0.105381
O O13 0.000000 0.752383 0.091572
O O14 0.068605 0.000000 0.073394
O O15 0.075681 0.754517 0.000000
O O16 0.685670 0.500000 0.870898
O O17 0.750000 0.250000 0.880562
#
# Coordination Sequence:
#
# PCOD8269187 Si02
#       6
#     8  16   8  16  16  16
#     4  11  23  39  59  83 111 145 180 223 276 329
#     4  11  22  39  59  81 108 144 184 226 275 332
#     4  10  22  35  54  81 107 134 172 220 273 326
#     4  11  22  38  58  81 111 146 184 229 279 333
#     4   8  15  30  53  81 112 146 187 233 277 326
#     4  10  19  33  55  82 113 148 187 230 281 336
#
# _framework density 19.407464000000001
#
# number of rings (size 3 to 8) (size 9 to 14) (size 15 to 20)
#    0.000    1.900    1.000    5.700    0.000    4.000 
#    1.800    0.000    0.000    3.600    0.000    5.600 
#    0.000    0.000    0.000    0.000    0.000    0.000 
#
# Total GULP energy -495756.400160 kJ/mol
# GULP energy per Si atom -12393.910004 kJ/mol
# Density = 1.936329 g / cm^3
# Si number density = 19.407464 Si / 1000 Ang^3
#
#
#
# Elastic Constant Matrix: (Units=GPa)
#
#
# Indices 1 2 3 4 5 6 
#
# 1 175.6575 11.7268 75.9987 0.0000 0.0000 0.0000
# 2 11.7268 39.1771 7.3136 0.0000 0.0000 0.0000
# 3 75.9987 7.3136 93.4088 0.0000 0.0000 0.0000
# 4 0.0000 0.0000 0.0000 -7.9174 0.0000 0.0000
# 5 0.0000 0.0000 0.0000 0.0000 10.6124 0.0000
# 6 0.0000 0.0000 0.0000 0.0000 0.0000 29.9418
#
#
#
# Elastic Compliance Matrix: (Units=1/GPa)
#
#
# Indices 1 2 3 4 5 6 
#
# 1 0.008853 -0.001325 -0.007099 0.000000 0.000000 0.000000
# 2 -0.001325 0.026102 -0.000966 0.000000 0.000000 0.000000
# 3 -0.007099 -0.000966 0.016557 0.000000 0.000000 0.000000
# 4 0.000000 0.000000 0.000000 -0.126304 0.000000 0.000000
# 5 0.000000 0.000000 0.000000 0.000000 0.094229 0.000000
# 6 0.000000 0.000000 0.000000 0.000000 0.000000 0.033398
#
#
# Mechanical properties :
#
#
# Convention : Reuss Voigt Hill
#
# Bulk Modulus (GPa) = 30.55056 55.36907 42.95981
# Shear Modulus (GPa) = 60.58797 20.74099 40.66448
#
# Velocity S-wave (km/s) = 5.59345 3.27266 4.58241
# Velocity P-wave (km/s) = 7.58231 6.54768 7.08391
#
# Compressibility (1/GPa) = 0.03273263
#
# Stress axis : x y z
#
# Youngs Moduli (GPa) = 112.95965 38.31130 60.39713
#
# Poissons Ratio (x) = 0.05075 0.42876
# Poissons Ratio (y) = 0.14963 0.05834
# Poissons Ratio (z) = 0.80190 0.03701
#
# Static dielectric constant tensor:
#      x y z
#    x 4.020000 0.000000 0.000000 
#    y 0.000000 3.383190 0.000000 
#    z 0.000000 0.000000 3.349650 
# 
# 
# High freq. dielectric constant tensor:
#      x y z
#    x 1.769580 0.000000 0.000000 
#    y 0.000000 1.740100 0.000000 
#    z 0.000000 0.000000 1.750150 
# 
# From -- ./inp_files/70804.got.cif
#   From: 2010.03.12/outbox.cif.g09.slc.cpg/sg65_36_cif.got.tgz:70804.got - 2010.04.10 20:52:16.
