data_PCOD8269278
_publ_section_title
;
Structure prediction by ZEFSAII (Michael W. Deem and Ramdas Pophale) SiO2 
 PCOD8269278
Probable space group: C M M M
;
_chemical_formula_sum "Si O2"
_cell_formula_units_Z 104
_cell_length_a 19.852494
_cell_length_b 32.399240
_cell_length_c 9.045339
_cell_angle_alpha 90.000000
_cell_angle_beta 90.000000
_cell_angle_gamma 90.000000
_cell_volume 5818.013763
_symmetry_space_group_name_H-M "C M M M"
_symmetry_group_IT_number 65
_symmetry_cell_setting 'orthorhombic'
loop_
_space_group_symop_operation_xyz
x,y,z
-x,-y,z
x,-y,-z
-x,y,-z
-x,-y,-z
x,y,-z
-x,y,z
x,-y,z
1/2+x,1/2+y,z
1/2-x,1/2-y,z
1/2+x,1/2-y,-z
1/2-x,1/2+y,-z
1/2-x,1/2-y,-z
1/2+x,1/2+y,-z
1/2-x,1/2+y,z
1/2+x,1/2-y,z
loop_
_atom_site_type_symbol
_atom_site_label
_atom_site_fract_x
_atom_site_fract_y
_atom_site_fract_z
Si Si1 0.292827 0.953899 0.169504
Si Si2 0.077119 0.220171 0.825983
Si Si3 0.667207 0.652691 0.675075
Si Si4 0.423546 0.500000 0.660350
Si Si5 0.640152 0.571350 0.169960
Si Si6 0.076681 0.694736 0.669729
Si Si7 0.183929 0.627805 0.673110
O O1 0.213516 0.948088 0.187931
O O2 0.329772 0.917213 0.256727
O O3 0.311638 0.000000 0.229449
O O4 0.314775 0.950275 0.000000
O O5 0.132316 0.192672 0.743742
O O6 0.090989 0.266587 0.774047
O O7 0.000000 0.207329 0.785201
O O8 0.089192 0.217131 0.000000
O O9 0.658791 0.654290 0.500000
O O10 0.629389 0.613334 0.740573
O O11 0.745785 0.649167 0.722787
O O12 0.500000 0.500000 0.618447
O O13 0.384349 0.500000 0.500000
O O14 0.410778 0.539841 0.758482
O O15 0.621657 0.579524 0.000000
O O16 0.093059 0.706926 0.500000
O O17 0.123927 0.657579 0.724409
O O18 0.000000 0.679514 0.685514
O O19 0.184289 0.620417 0.500000
#
# Coordination Sequence:
#
# PCOD8269278 Si02
#       7
#    16  16  16   8  16  16  16
#     4   9  17  31  51  75 101 130 164 203 250 301
#     4  10  21  36  53  74 100 134 177 216 253 304
#     4  10  20  34  52  76 105 134 167 212 261 306
#     4  11  23  35  47  67  95 129 170 211 254 305
#     4  10  19  34  52  70  95 128 167 211 256 299
#     4   9  18  35  57  77 102 136 170 207 253 306
#     4   9  19  33  51  80 107 131 169 211 255 304
#
# _framework density 17.875516000000001
#
# number of rings (size 3 to 8) (size 9 to 14) (size 15 to 20)
#    0.000    2.385    0.769    1.615    0.000    4.923 
#    0.000    3.077    0.000    0.462    0.000    3.231 
#    0.000    0.000    0.000    0.000    0.000    0.000 
#
# Total GULP energy -644701.287540 kJ/mol
# GULP energy per Si atom -12398.101683 kJ/mol
# Density = 1.783483 g / cm^3
# Si number density = 17.875516 Si / 1000 Ang^3
#
#
#
# Elastic Constant Matrix: (Units=GPa)
#
#
# Indices 1 2 3 4 5 6 
#
# 1 71.0104 66.9519 39.9103 0.0000 0.0000 0.0000
# 2 66.9519 142.2378 58.9451 0.0000 0.0000 0.0000
# 3 39.9103 58.9451 79.7638 0.0000 0.0000 0.0000
# 4 0.0000 0.0000 0.0000 39.2123 0.0000 0.0000
# 5 0.0000 0.0000 0.0000 0.0000 19.5986 0.0000
# 6 0.0000 0.0000 0.0000 0.0000 0.0000 -67.9962
#
#
#
# Elastic Compliance Matrix: (Units=1/GPa)
#
#
# Indices 1 2 3 4 5 6 
#
# 1 0.027158 -0.010309 -0.005970 0.000000 0.000000 0.000000
# 2 -0.010309 0.014047 -0.005223 0.000000 0.000000 0.000000
# 3 -0.005970 -0.005223 0.019384 0.000000 0.000000 0.000000
# 4 0.000000 0.000000 0.000000 0.025502 0.000000 0.000000
# 5 0.000000 0.000000 0.000000 0.000000 0.051024 0.000000
# 6 0.000000 0.000000 0.000000 0.000000 0.000000 -0.014707
#
#
# Mechanical properties :
#
#
# Convention : Reuss Voigt Hill
#
# Bulk Modulus (GPa) = 56.86682 69.40296 63.13489
# Shear Modulus (GPa) = 29.19291 6.64324 17.91808
#
# Velocity S-wave (km/s) = 4.04558 1.92989 3.16947
# Velocity P-wave (km/s) = 7.32830 6.62389 6.98498
#
# Compressibility (1/GPa) = 0.01758495
#
# Stress axis : x y z
#
# Youngs Moduli (GPa) = 36.82170 71.18739 51.58961
#
# Poissons Ratio (x) = 0.73389 0.30800
# Poissons Ratio (y) = 0.37960 0.26944
# Poissons Ratio (z) = 0.21983 0.37179
#
# Static dielectric constant tensor:
#      x y z
#    x 3.185200 0.000000 0.000000 
#    y 0.000000 3.306260 0.000000 
#    z 0.000000 0.000000 3.358550 
# 
# 
# High freq. dielectric constant tensor:
#      x y z
#    x 1.666270 0.000000 0.000000 
#    y 0.000000 1.697120 0.000000 
#    z 0.000000 0.000000 1.699580 
# 
# From -- ./inp_files/12845.got.cif
#   From: 2010.03.12/outbox.cif.g09.slc.cpg/sg65_7_cif.got.tgz:12845.got - 2010.04.10 20:52:16.
