data_PCOD8269540
_publ_section_title
;
Structure prediction by ZEFSAII (Michael W. Deem and Ramdas Pophale) SiO2 
 PCOD8269540
Probable space group: C M M M
;
_chemical_formula_sum "Si O2"
_cell_formula_units_Z 66
_cell_length_a 14.656795
_cell_length_b 19.182924
_cell_length_c 11.762694
_cell_angle_alpha 90.000000
_cell_angle_beta 90.000000
_cell_angle_gamma 90.000000
_cell_volume 3307.201216
_symmetry_space_group_name_H-M "C M M M"
_symmetry_group_IT_number 65
_symmetry_cell_setting 'orthorhombic'
loop_
_space_group_symop_operation_xyz
x,y,z
-x,-y,z
x,-y,-z
-x,y,-z
-x,-y,-z
x,y,-z
-x,y,z
x,-y,z
1/2+x,1/2+y,z
1/2-x,1/2-y,z
1/2+x,1/2-y,-z
1/2-x,1/2+y,-z
1/2-x,1/2-y,-z
1/2+x,1/2+y,-z
1/2-x,1/2+y,z
1/2+x,1/2-y,z
loop_
_atom_site_type_symbol
_atom_site_label
_atom_site_fract_x
_atom_site_fract_y
_atom_site_fract_z
Si Si1 0.893382 0.826941 0.368814
Si Si2 0.394592 0.187237 0.759920
Si Si3 0.104683 0.750155 0.000000
Si Si4 0.255270 0.421866 0.756180
Si Si5 0.827752 0.902226 0.000000
Si Si6 0.500000 0.500000 0.000000
O O1 0.865161 0.827296 0.500000
O O2 0.865146 0.752828 0.316487
O O3 0.843886 0.889042 0.303212
O O4 0.000000 0.840762 0.350687
O O5 0.500000 0.167910 0.740427
O O6 0.334641 0.121464 0.722320
O O7 0.372685 0.203859 0.890629
O O8 0.165831 0.818638 0.000000
O O9 0.000000 0.773855 0.000000
O O10 0.242308 0.500000 0.709028
O O11 0.270189 0.425004 0.890667
O O12 0.925652 0.938298 0.000000
#
# Coordination Sequence:
#
# PCOD8269540 Si02
#       6
#    16  16   8  16   8   2
#     4  10  23  42  64  89 117 153 199 251 304 355
#     4  10  22  40  63  88 118 156 202 252 292 343
#     4  10  19  34  61  89 113 152 202 240 285 342
#     4  12  25  38  59  90 125 161 197 238 297 364
#     4  12  23  35  57  91 127 160 194 235 299 360
#     4  12  24  36  56  88 140 176 174 248 308 378
#
# _framework density 19.956451000000001
#
# number of rings (size 3 to 8) (size 9 to 14) (size 15 to 20)
#    0.000    1.212    4.242    1.455    1.697    4.364 
#    0.000    1.212    0.000    3.636    0.000    5.091 
#    0.000    0.000    0.000    0.000    0.000    0.000 
#
# Total GULP energy -408861.051012 kJ/mol
# GULP energy per Si atom -12389.728819 kJ/mol
# Density = 1.991103 g / cm^3
# Si number density = 19.956451 Si / 1000 Ang^3
#
#
#
# Elastic Constant Matrix: (Units=GPa)
#
#
# Indices 1 2 3 4 5 6 
#
# 1 75.9286 65.6875 24.9350 0.0000 0.0000 0.0000
# 2 65.6875 167.7925 41.1621 0.0000 0.0000 0.0000
# 3 24.9350 41.1621 112.0077 0.0000 0.0000 0.0000
# 4 0.0000 0.0000 0.0000 0.1488 0.0000 0.0000
# 5 0.0000 0.0000 0.0000 0.0000 11.7412 0.0000
# 6 0.0000 0.0000 0.0000 0.0000 0.0000 -6.3633
#
#
#
# Elastic Compliance Matrix: (Units=1/GPa)
#
#
# Indices 1 2 3 4 5 6 
#
# 1 0.020223 -0.007487 -0.001750 0.000000 0.000000 0.000000
# 2 -0.007487 0.009322 -0.001759 0.000000 0.000000 0.000000
# 3 -0.001750 -0.001759 0.009964 0.000000 0.000000 0.000000
# 4 0.000000 0.000000 0.000000 6.720233 0.000000 0.000000
# 5 0.000000 0.000000 0.000000 0.000000 0.085170 0.000000
# 6 0.000000 0.000000 0.000000 0.000000 0.000000 -0.157150
#
#
# Mechanical properties :
#
#
# Convention : Reuss Voigt Hill
#
# Bulk Modulus (GPa) = 57.09255 68.81090 62.95172
# Shear Modulus (GPa) = 0.74454 16.03495 8.38974
#
# Velocity S-wave (km/s) = 0.61147 2.83768 2.05260
# Velocity P-wave (km/s) = 5.40085 6.72993 6.10169
#
# Compressibility (1/GPa) = 0.01751542
#
# Stress axis : x y z
#
# Youngs Moduli (GPa) = 49.44970 107.26809 100.36043
#
# Poissons Ratio (x) = 0.80315 0.17567
# Poissons Ratio (y) = 0.37025 0.17654
# Poissons Ratio (z) = 0.08656 0.18870
#
# Static dielectric constant tensor:
#      x y z
#    x 3.597680 0.000000 0.000000 
#    y 0.000000 3.634410 0.000000 
#    z 0.000000 0.000000 3.649760 
# 
# 
# High freq. dielectric constant tensor:
#      x y z
#    x 1.786810 0.000000 0.000000 
#    y 0.000000 1.779150 0.000000 
#    z 0.000000 0.000000 1.766900 
# 
# From -- ./inp_files/24003.got.cif
#   From: 2010.03.12/outbox.cif.g09.slc.cpg/sg65_13_cif.got.tgz:24003.got - 2010.04.10 20:52:16.
