data_PCOD8269799
_publ_section_title
;
Structure prediction by ZEFSAII (Michael W. Deem and Ramdas Pophale) SiO2 
 PCOD8269799
Probable space group: C M M M
;
_chemical_formula_sum "Si O2"
_cell_formula_units_Z 80
_cell_length_a 31.415222
_cell_length_b 18.099770
_cell_length_c 9.209445
_cell_angle_alpha 90.000000
_cell_angle_beta 90.000000
_cell_angle_gamma 90.000000
_cell_volume 5236.566798
_symmetry_space_group_name_H-M "C M M M"
_symmetry_group_IT_number 65
_symmetry_cell_setting 'orthorhombic'
loop_
_space_group_symop_operation_xyz
x,y,z
-x,-y,z
x,-y,-z
-x,y,-z
-x,-y,-z
x,y,-z
-x,y,z
x,-y,z
1/2+x,1/2+y,z
1/2-x,1/2-y,z
1/2+x,1/2-y,-z
1/2-x,1/2+y,-z
1/2-x,1/2-y,-z
1/2+x,1/2+y,-z
1/2-x,1/2+y,z
1/2+x,1/2-y,z
loop_
_atom_site_type_symbol
_atom_site_label
_atom_site_fract_x
_atom_site_fract_y
_atom_site_fract_z
Si Si1 0.123427 0.152260 0.164324
Si Si2 0.206201 0.583714 0.668151
Si Si3 0.820838 0.717829 0.164389
Si Si4 0.796395 0.149347 0.669884
Si Si5 0.951356 0.085022 0.332044
O O1 0.132900 0.241120 0.166209
O O2 0.161730 0.112243 0.254802
O O3 0.077982 0.137728 0.235880
O O4 0.123516 0.121745 0.000000
O O5 0.196247 0.598101 0.500000
O O6 0.195602 0.500000 0.712742
O O7 0.176213 0.637254 0.762752
O O8 0.255830 0.598404 0.701418
O O9 0.788573 0.769696 0.257870
O O10 0.803816 0.709998 0.000000
O O11 0.805177 0.159043 0.500000
O O12 0.943506 0.103038 0.500000
O O13 0.000000 0.101604 0.289453
O O14 0.940193 0.000000 0.299160
#
# Coordination Sequence:
#
# PCOD8269799 Si02
#       5
#    16  16  16  16  16
#     4   9  19  31  45  66  89 116 151 185 219 266
#     4  10  20  31  44  64  87 114 152 191 227 267
#     4   9  19  32  45  63  87 115 149 186 224 267
#     4   9  17  30  47  63  85 118 152 190 226 259
#     4   9  18  32  49  69  92 118 149 183 219 261
#
# _framework density 15.277184999999999
#
# number of rings (size 3 to 8) (size 9 to 14) (size 15 to 20)
#    1.200    1.600    0.000    2.400    0.000    6.000 
#    0.000    3.000    0.000    0.000    0.000    0.000 
#    0.000    0.800    0.000    8.800    0.000    6.400 
#
# Total GULP energy -495609.043836 kJ/mol
# GULP energy per Si atom -12390.226096 kJ/mol
# Density = 1.524241 g / cm^3
# Si number density = 15.277185 Si / 1000 Ang^3
#
#
#
# Elastic Constant Matrix: (Units=GPa)
#
#
# Indices 1 2 3 4 5 6 
#
# 1 68.5079 34.7321 46.9918 0.0000 0.0000 0.0000
# 2 34.7321 65.5251 49.3088 0.0000 0.0000 0.0000
# 3 46.9918 49.3088 107.1367 0.0000 0.0000 0.0000
# 4 0.0000 0.0000 0.0000 18.5678 0.0000 0.0000
# 5 0.0000 0.0000 0.0000 0.0000 18.6205 0.0000
# 6 0.0000 0.0000 0.0000 0.0000 0.0000 15.1598
#
#
#
# Elastic Compliance Matrix: (Units=1/GPa)
#
#
# Indices 1 2 3 4 5 6 
#
# 1 0.022786 -0.006971 -0.006786 0.000000 0.000000 0.000000
# 2 -0.006971 0.025480 -0.008669 0.000000 0.000000 0.000000
# 3 -0.006786 -0.008669 0.016300 0.000000 0.000000 0.000000
# 4 0.000000 0.000000 0.000000 0.053857 0.000000 0.000000
# 5 0.000000 0.000000 0.000000 0.000000 0.053704 0.000000
# 6 0.000000 0.000000 0.000000 0.000000 0.000000 0.065964
#
#
# Mechanical properties :
#
#
# Convention : Reuss Voigt Hill
#
# Bulk Modulus (GPa) = 50.72684 55.91501 53.32093
# Shear Modulus (GPa) = 17.27027 17.81211 17.54119
#
# Velocity S-wave (km/s) = 3.36588 3.41827 3.39218
# Velocity P-wave (km/s) = 6.95571 7.22906 7.09370
#
# Compressibility (1/GPa) = 0.01971343
#
# Stress axis : x y z
#
# Youngs Moduli (GPa) = 43.88721 39.24581 61.34915
#
# Poissons Ratio (x) = 0.27360 0.41629
# Poissons Ratio (y) = 0.30596 0.53186
# Poissons Ratio (z) = 0.29780 0.34024
#
# Static dielectric constant tensor:
#      x y z
#    x 2.638750 0.000000 0.000000 
#    y 0.000000 2.747870 0.000000 
#    z 0.000000 0.000000 2.991270 
# 
# 
# High freq. dielectric constant tensor:
#      x y z
#    x 1.552360 0.000000 0.000000 
#    y 0.000000 1.560940 0.000000 
#    z 0.000000 0.000000 1.600510 
# 
# From -- ./inp_files/18428.got.cif
#   From: 2010.03.12/outbox.cif.g09.slc.cpg/sg65_10_cif.got.tgz:18428.got - 2010.04.10 20:52:16.
