data_PCOD8269921
_publ_section_title
;
Structure prediction by ZEFSAII (Michael W. Deem and Ramdas Pophale) SiO2 
 PCOD8269921
Probable space group: C M M M
;
_chemical_formula_sum "Si O2"
_cell_formula_units_Z 104
_cell_length_a 9.553819
_cell_length_b 29.593962
_cell_length_c 20.645022
_cell_angle_alpha 90.000000
_cell_angle_beta 90.000000
_cell_angle_gamma 90.000000
_cell_volume 5837.077654
_symmetry_space_group_name_H-M "C M M M"
_symmetry_group_IT_number 65
_symmetry_cell_setting 'orthorhombic'
loop_
_space_group_symop_operation_xyz
x,y,z
-x,-y,z
x,-y,-z
-x,y,-z
-x,-y,-z
x,y,-z
-x,y,z
x,-y,z
1/2+x,1/2+y,z
1/2-x,1/2-y,z
1/2+x,1/2-y,-z
1/2-x,1/2+y,-z
1/2-x,1/2-y,-z
1/2+x,1/2+y,-z
1/2-x,1/2+y,z
1/2+x,1/2-y,z
loop_
_atom_site_type_symbol
_atom_site_label
_atom_site_fract_x
_atom_site_fract_y
_atom_site_fract_z
Si Si1 0.836759 0.641844 0.118683
Si Si2 0.837972 0.292414 0.621710
Si Si3 0.332610 0.949986 0.171315
Si Si4 0.331012 0.202263 0.000000
Si Si5 0.162301 0.551269 0.315922
Si Si6 0.166333 0.387601 0.428952
Si Si7 0.160479 0.291801 0.229609
O O1 0.777240 0.590086 0.123506
O O2 0.776121 0.672636 0.061006
O O3 0.802036 0.664455 0.187517
O O4 0.000000 0.638410 0.105425
O O5 0.750000 0.250000 0.596379
O O6 0.790852 0.335564 0.580684
O O7 0.803951 0.303462 0.696511
O O8 0.000000 0.280714 0.611875
O O9 0.500000 0.949114 0.174532
O O10 0.273365 0.941169 0.244137
O O11 0.283326 0.000000 0.146963
O O12 0.250000 0.250000 0.000000
O O13 0.500000 0.210525 0.000000
O O14 0.184387 0.500000 0.338359
O O15 0.234277 0.582288 0.371428
O O16 0.000000 0.564092 0.311899
O O17 0.221325 0.403045 0.500000
O O18 0.000000 0.392502 0.426279
O O19 0.250000 0.250000 0.203502
O O20 0.000000 0.277824 0.220267
#
# Coordination Sequence:
#
# PCOD8269921 Si02
#       7
#    16  16  16   8  16  16  16
#     4   9  16  26  40  58  82 111 138 167 204 241
#     4   9  17  28  41  57  77 103 135 169 204 241
#     4   8  13  22  37  56  78 105 136 167 201 243
#     4  10  20  32  45  63  89 117 144 172 203 242
#     4   8  13  21  34  53  77 105 135 165 199 243
#     4   9  16  24  34  50  74 104 135 165 200 243
#     4   9  16  26  41  59  79 103 133 169 205 241
#
# _framework density 17.817135
#
# number of rings (size 3 to 8) (size 9 to 14) (size 15 to 20)
#    0.000    3.231    0.000    2.308    0.000    4.308 
#    0.000    1.923    0.000    2.308    0.000    0.000 
#    0.000    3.692    0.000   16.308    0.000   18.308 
#
# Total GULP energy -644256.664458 kJ/mol
# GULP energy per Si atom -12389.551240 kJ/mol
# Density = 1.777658 g / cm^3
# Si number density = 17.817135 Si / 1000 Ang^3
#
#
#
# Elastic Constant Matrix: (Units=GPa)
#
#
# Indices 1 2 3 4 5 6 
#
# 1 13.8685 17.8824 9.6101 0.0000 0.0000 0.0000
# 2 17.8824 129.2434 59.8572 0.0000 0.0000 0.0000
# 3 9.6101 59.8572 77.7000 0.0000 0.0000 0.0000
# 4 0.0000 0.0000 0.0000 22.8575 0.0000 0.0000
# 5 0.0000 0.0000 0.0000 0.0000 8.4561 0.0000
# 6 0.0000 0.0000 0.0000 0.0000 0.0000 16.3990
#
#
#
# Elastic Compliance Matrix: (Units=1/GPa)
#
#
# Indices 1 2 3 4 5 6 
#
# 1 0.088036 -0.011097 -0.002340 0.000000 0.000000 0.000000
# 2 -0.011097 0.013428 -0.008972 0.000000 0.000000 0.000000
# 3 -0.002340 -0.008972 0.020071 0.000000 0.000000 0.000000
# 4 0.000000 0.000000 0.000000 0.043749 0.000000 0.000000
# 5 0.000000 0.000000 0.000000 0.000000 0.118258 0.000000
# 6 0.000000 0.000000 0.000000 0.000000 0.000000 0.060979
#
#
# Mechanical properties :
#
#
# Convention : Reuss Voigt Hill
#
# Bulk Modulus (GPa) = 13.03483 43.94570 28.49026
# Shear Modulus (GPa) = 12.05076 18.44001 15.24538
#
# Velocity S-wave (km/s) = 2.60351 3.22057 2.92834
# Velocity P-wave (km/s) = 4.04592 6.20869 5.24010
#
# Compressibility (1/GPa) = 0.07671754
#
# Stress axis : x y z
#
# Youngs Moduli (GPa) = 11.35899 74.47138 49.82323
#
# Poissons Ratio (x) = 0.82643 0.11656
# Poissons Ratio (y) = 0.12605 0.44701
# Poissons Ratio (z) = 0.02657 0.66815
#
# Static dielectric constant tensor:
#      x y z
#    x 2.656180 0.000000 0.000000 
#    y 0.000000 3.594510 0.000000 
#    z 0.000000 0.000000 3.474150 
# 
# 
# High freq. dielectric constant tensor:
#      x y z
#    x 1.603000 0.000000 0.000000 
#    y 0.000000 1.702460 0.000000 
#    z 0.000000 0.000000 1.689620 
# 
# From -- ./inp_files/69322.got.cif
#   From: 2010.03.12/outbox.cif.g09.slc.cpg/sg65_35_cif.got.tgz:69322.got - 2010.04.10 20:52:16.
