data_PCOD8269047
_publ_section_title
;
Structure prediction by ZEFSAII (Michael W. Deem and Ramdas Pophale) SiO2 
 PCOD8269047
Probable space group: C M M M
;
_chemical_formula_sum "Si O2"
_cell_formula_units_Z 104
_cell_length_a 19.962944
_cell_length_b 9.022850
_cell_length_c 32.965366
_cell_angle_alpha 90.000000
_cell_angle_beta 90.000000
_cell_angle_gamma 90.000000
_cell_volume 5937.809058
_symmetry_space_group_name_H-M "C M M M"
_symmetry_group_IT_number 65
_symmetry_cell_setting 'orthorhombic'
loop_
_space_group_symop_operation_xyz
x,y,z
-x,-y,z
x,-y,-z
-x,y,-z
-x,-y,-z
x,y,-z
-x,y,z
x,-y,z
1/2+x,1/2+y,z
1/2-x,1/2-y,z
1/2+x,1/2-y,-z
1/2-x,1/2+y,-z
1/2-x,1/2-y,-z
1/2+x,1/2+y,-z
1/2-x,1/2+y,z
1/2+x,1/2-y,z
loop_
_atom_site_type_symbol
_atom_site_label
_atom_site_fract_x
_atom_site_fract_y
_atom_site_fract_z
Si Si1 0.818476 0.324739 0.391471
Si Si2 0.423428 0.828581 0.233097
Si Si3 0.317968 0.173576 0.700417
Si Si4 0.677278 0.825194 0.088182
Si Si5 0.922566 0.826439 0.150009
Si Si6 0.925498 0.323924 0.454912
Si Si7 0.818604 0.669168 0.000000
O O1 0.810883 0.500000 0.395832
O O2 0.750000 0.250000 0.405552
O O3 0.836464 0.278567 0.345409
O O4 0.875738 0.259795 0.420935
O O5 0.500000 0.802198 0.246121
O O6 0.378381 0.775688 0.270707
O O7 0.403793 0.729496 0.194705
O O8 0.410579 0.000000 0.221940
O O9 0.250000 0.250000 0.715420
O O10 0.305814 0.000000 0.703099
O O11 0.750000 0.750000 0.093723
O O12 0.623920 0.758117 0.118605
O O13 0.685309 0.000000 0.096362
O O14 0.645432 0.793253 0.042924
O O15 0.000000 0.789679 0.140133
O O16 0.907948 0.000000 0.147407
O O17 0.902357 0.273579 0.500000
O O18 0.926424 0.500000 0.452543
O O19 0.000000 0.262610 0.445931
O O20 0.750000 0.750000 0.000000
O O21 0.798525 0.500000 0.000000
#
# Coordination Sequence:
#
# PCOD8269047 Si02
#       7
#    16  16  16  16  16  16   8
#     4   9  17  29  45  66  92 120 150 186 229 276
#     4   9  18  33  51  69  90 119 156 196 238 283
#     4   9  18  31  47  68  93 120 150 188 233 279
#     4  10  19  33  54  78 103 131 165 203 243 287
#     4  10  21  36  52  72 100 132 165 201 242 288
#     4   8  14  25  42  65  91 118 151 191 230 267
#     4   8  16  30  49  74 101 129 161 199 241 284
#
# _framework density 17.514878
#
# number of rings (size 3 to 8) (size 9 to 14) (size 15 to 20)
#    0.000    2.923    0.000    1.385    0.000    3.692 
#    0.000    5.000    0.000    2.769    0.000    5.385 
#    0.000    0.000    0.000    0.000    0.000    0.000 
#
# Total GULP energy -644498.135252 kJ/mol
# GULP energy per Si atom -12394.194909 kJ/mol
# Density = 1.747501 g / cm^3
# Si number density = 17.514878 Si / 1000 Ang^3
#
#
#
# Elastic Constant Matrix: (Units=GPa)
#
#
# Indices 1 2 3 4 5 6 
#
# 1 118.9436 43.0676 101.2068 0.0000 0.0000 0.0000
# 2 43.0676 49.1519 46.3068 0.0000 0.0000 0.0000
# 3 101.2068 46.3068 142.5370 0.0000 0.0000 0.0000
# 4 0.0000 0.0000 0.0000 17.9211 0.0000 0.0000
# 5 0.0000 0.0000 0.0000 0.0000 26.4443 0.0000
# 6 0.0000 0.0000 0.0000 0.0000 0.0000 27.6295
#
#
#
# Elastic Compliance Matrix: (Units=1/GPa)
#
#
# Indices 1 2 3 4 5 6 
#
# 1 0.022707 -0.006782 -0.013919 0.000000 0.000000 0.000000
# 2 -0.006782 0.031345 -0.005367 0.000000 0.000000 0.000000
# 3 -0.013919 -0.005367 0.018643 0.000000 0.000000 0.000000
# 4 0.000000 0.000000 0.000000 0.055800 0.000000 0.000000
# 5 0.000000 0.000000 0.000000 0.000000 0.037815 0.000000
# 6 0.000000 0.000000 0.000000 0.000000 0.000000 0.036193
#
#
# Mechanical properties :
#
#
# Convention : Reuss Voigt Hill
#
# Bulk Modulus (GPa) = 48.64752 76.86608 62.75680
# Shear Modulus (GPa) = 19.12102 22.40241 20.76171
#
# Velocity S-wave (km/s) = 3.30767 3.58026 3.44666
# Velocity P-wave (km/s) = 6.51329 7.81489 7.19359
#
# Compressibility (1/GPa) = 0.02055603
#
# Stress axis : x y z
#
# Youngs Moduli (GPa) = 44.03980 31.90342 53.64062
#
# Poissons Ratio (x) = 0.21638 0.74663
# Poissons Ratio (y) = 0.29870 0.28790
# Poissons Ratio (z) = 0.61300 0.17123
#
# Static dielectric constant tensor:
#      x y z
#    x 3.272980 0.000000 0.000000 
#    y 0.000000 3.132070 0.000000 
#    z 0.000000 0.000000 3.182690 
# 
# 
# High freq. dielectric constant tensor:
#      x y z
#    x 1.666750 0.000000 0.000000 
#    y 0.000000 1.662850 0.000000 
#    z 0.000000 0.000000 1.687920 
# 
# From -- ./inp_files/78193.got.cif
#   From: 2010.03.12/outbox.cif.g09.slc.cpg/sg65_40_cif.got.tgz:78193.got - 2010.04.10 20:52:16.
