data_PCOD8269635
_publ_section_title
;
Structure prediction by ZEFSAII (Michael W. Deem and Ramdas Pophale) SiO2 
 PCOD8269635
Probable space group: C M M M
;
_chemical_formula_sum "Si O2"
_cell_formula_units_Z 96
_cell_length_a 22.693215
_cell_length_b 14.435494
_cell_length_c 14.947015
_cell_angle_alpha 90.000000
_cell_angle_beta 90.000000
_cell_angle_gamma 90.000000
_cell_volume 4896.459297
_symmetry_space_group_name_H-M "C M M M"
_symmetry_group_IT_number 65
_symmetry_cell_setting 'orthorhombic'
loop_
_space_group_symop_operation_xyz
x,y,z
-x,-y,z
x,-y,-z
-x,y,-z
-x,-y,-z
x,y,-z
-x,y,z
x,-y,z
1/2+x,1/2+y,z
1/2-x,1/2-y,z
1/2+x,1/2-y,-z
1/2-x,1/2+y,-z
1/2-x,1/2-y,-z
1/2+x,1/2+y,-z
1/2-x,1/2+y,z
1/2+x,1/2-y,z
loop_
_atom_site_type_symbol
_atom_site_label
_atom_site_fract_x
_atom_site_fract_y
_atom_site_fract_z
Si Si1 0.931871 0.231230 0.251846
Si Si2 0.123647 0.896597 0.397419
Si Si3 0.253909 0.858816 0.398682
Si Si4 0.842613 0.394997 0.752419
Si Si5 0.245602 0.390384 0.098061
Si Si6 0.878518 0.892661 0.103812
O O1 0.914232 0.173107 0.338923
O O2 0.898953 0.329483 0.252506
O O3 0.920514 0.171582 0.162811
O O4 0.000000 0.255936 0.257086
O O5 0.120732 0.861795 0.500000
O O6 0.191573 0.899388 0.365043
O O7 0.097436 0.000000 0.387694
O O8 0.266720 0.890301 0.500000
O O9 0.250000 0.750000 0.389262
O O10 0.306875 0.898292 0.340000
O O11 0.863137 0.500000 0.774983
O O12 0.800113 0.352491 0.829226
O O13 0.244395 0.500000 0.095568
O O14 0.311712 0.359322 0.122696
O O15 0.227957 0.351176 0.000000
O O16 0.887150 0.000000 0.131794
O O17 0.895054 0.879522 0.000000
#
# Coordination Sequence:
#
# PCOD8269635 Si02
#       6
#    16  16  16  16  16  16
#     4  12  26  40  55  78 112 156 206 246 276 322
#     4  10  21  38  61  89 118 145 177 226 290 355
#     4  10  19  35  61  91 121 146 174 224 294 359
#     4  11  23  38  59  84 114 154 196 238 285 335
#     4   8  16  33  58  88 117 142 174 224 288 352
#     4   9  19  37  61  90 121 147 177 229 297 361
#
# _framework density 19.606003999999999
#
# number of rings (size 3 to 8) (size 9 to 14) (size 15 to 20)
#    0.000    2.000    1.667    3.000    0.000    5.333 
#    0.000    3.333    0.000    0.000    0.000    5.833 
#    0.000    0.000    0.000    0.000    0.000    0.000 
#
# Total GULP energy -595231.569295 kJ/mol
# GULP energy per Si atom -12400.657694 kJ/mol
# Density = 1.956138 g / cm^3
# Si number density = 19.606004 Si / 1000 Ang^3
#
#
#
# Elastic Constant Matrix: (Units=GPa)
#
#
# Indices 1 2 3 4 5 6 
#
# 1 124.8754 41.2836 55.1786 0.0000 0.0000 0.0000
# 2 41.2836 86.3057 29.5807 0.0000 0.0000 0.0000
# 3 55.1786 29.5807 97.1070 0.0000 0.0000 0.0000
# 4 0.0000 0.0000 0.0000 17.6716 0.0000 0.0000
# 5 0.0000 0.0000 0.0000 0.0000 12.1047 0.0000
# 6 0.0000 0.0000 0.0000 0.0000 0.0000 -10.2628
#
#
#
# Elastic Compliance Matrix: (Units=1/GPa)
#
#
# Indices 1 2 3 4 5 6 
#
# 1 0.011659 -0.003692 -0.005500 0.000000 0.000000 0.000000
# 2 -0.003692 0.014106 -0.002199 0.000000 0.000000 0.000000
# 3 -0.005500 -0.002199 0.014093 0.000000 0.000000 0.000000
# 4 0.000000 0.000000 0.000000 0.056588 0.000000 0.000000
# 5 0.000000 0.000000 0.000000 0.000000 0.082613 0.000000
# 6 0.000000 0.000000 0.000000 0.000000 0.000000 -0.097439
#
#
# Mechanical properties :
#
#
# Convention : Reuss Voigt Hill
#
# Bulk Modulus (GPa) = 58.56229 62.26377 60.41303
# Shear Modulus (GPa) = 45.41539 16.05237 30.73388
#
# Velocity S-wave (km/s) = 4.81812 2.86448 3.96356
# Velocity P-wave (km/s) = 7.80300 6.53963 7.19908
#
# Compressibility (1/GPa) = 0.01707583
#
# Stress axis : x y z
#
# Youngs Moduli (GPa) = 85.77156 70.88958 70.95584
#
# Poissons Ratio (x) = 0.26171 0.39028
# Poissons Ratio (y) = 0.31665 0.15606
# Poissons Ratio (z) = 0.47177 0.15591
#
# Static dielectric constant tensor:
#      x y z
#    x 3.286600 0.000000 0.000000 
#    y 0.000000 3.528350 0.000000 
#    z 0.000000 0.000000 3.961520 
# 
# 
# High freq. dielectric constant tensor:
#      x y z
#    x 1.728520 0.000000 0.000000 
#    y 0.000000 1.766630 0.000000 
#    z 0.000000 0.000000 1.776090 
# 
# From -- ./inp_files/40310.got.cif
#   From: 2010.03.12/outbox.cif.g09.slc.cpg/sg65_21_cif.got.tgz:40310.got - 2010.04.10 20:52:16.
