data_PCOD8269177
_publ_section_title
;
Structure prediction by ZEFSAII (Michael W. Deem and Ramdas Pophale) SiO2 
 PCOD8269177
Probable space group: C M M M
;
_chemical_formula_sum "Si O2"
_cell_formula_units_Z 104
_cell_length_a 26.120476
_cell_length_b 9.112493
_cell_length_c 23.539945
_cell_angle_alpha 90.000000
_cell_angle_beta 90.000000
_cell_angle_gamma 90.000000
_cell_volume 5603.040201
_symmetry_space_group_name_H-M "C M M M"
_symmetry_group_IT_number 65
_symmetry_cell_setting 'orthorhombic'
loop_
_space_group_symop_operation_xyz
x,y,z
-x,-y,z
x,-y,-z
-x,y,-z
-x,-y,-z
x,y,-z
-x,y,z
x,-y,z
1/2+x,1/2+y,z
1/2-x,1/2-y,z
1/2+x,1/2-y,-z
1/2-x,1/2+y,-z
1/2-x,1/2-y,-z
1/2+x,1/2+y,-z
1/2-x,1/2+y,z
1/2+x,1/2-y,z
loop_
_atom_site_type_symbol
_atom_site_label
_atom_site_fract_x
_atom_site_fract_y
_atom_site_fract_z
Si Si1 0.441281 0.841607 0.061201
Si Si2 0.402810 0.174283 0.632796
Si Si3 0.384520 0.331748 0.859386
Si Si4 0.000000 0.674338 0.437201
Si Si5 0.197899 0.327604 0.434657
Si Si6 0.197989 0.328091 0.934887
Si Si7 0.440475 0.672508 0.256170
O O1 0.500000 0.860721 0.051336
O O2 0.433566 0.702046 0.101709
O O3 0.419410 0.000000 0.084445
O O4 0.414662 0.812258 0.000000
O O5 0.449193 0.231398 0.593770
O O6 0.349266 0.225671 0.604614
O O7 0.411023 0.246332 0.693575
O O8 0.404084 0.000000 0.639470
O O9 0.367020 0.500000 0.862896
O O10 0.342060 0.226436 0.887279
O O11 0.403691 0.288792 0.796729
O O12 0.000000 0.500000 0.439658
O O13 0.000000 0.742003 0.500000
O O14 0.185516 0.285601 0.500000
O O15 0.206238 0.500000 0.428372
O O16 0.250000 0.250000 0.413813
O O17 0.205944 0.500000 0.927926
O O18 0.250000 0.250000 0.917953
O O19 0.182442 0.287254 0.000000
O O20 0.500000 0.726806 0.248713
O O21 0.441058 0.500000 0.267659
#
# Coordination Sequence:
#
# PCOD8269177 Si02
#       7
#    16  16  16   8  16  16  16
#     4   9  18  32  49  72 103 135 168 213 268 321
#     4  10  19  33  55  82 108 142 188 231 275 332
#     4  11  22  35  53  77 104 140 183 222 267 323
#     4   9  16  28  51  83 113 137 170 227 288 337
#     4   9  18  33  54  82 114 145 179 221 270 326
#     4  10  21  38  60  85 112 140 173 221 281 338
#     4  10  22  39  55  74 108 150 186 226 274 322
#
# _framework density 18.561351999999999
#
# number of rings (size 3 to 8) (size 9 to 14) (size 15 to 20)
#    0.000    2.231    0.769    2.769    0.000    7.692 
#    0.000    1.538    0.000    3.692    0.000    0.000 
#    0.000    0.000    0.000    0.000    0.000    0.000 
#
# Total GULP energy -644230.365594 kJ/mol
# GULP energy per Si atom -12389.045492 kJ/mol
# Density = 1.851911 g / cm^3
# Si number density = 18.561352 Si / 1000 Ang^3
#
#
#
# Elastic Constant Matrix: (Units=GPa)
#
#
# Indices 1 2 3 4 5 6 
#
# 1 141.2449 47.6449 72.8412 0.0000 0.0000 0.0000
# 2 47.6449 50.4585 51.5313 0.0000 0.0000 0.0000
# 3 72.8412 51.5313 136.7427 0.0000 0.0000 0.0000
# 4 0.0000 0.0000 0.0000 14.0122 0.0000 0.0000
# 5 0.0000 0.0000 0.0000 0.0000 30.9036 0.0000
# 6 0.0000 0.0000 0.0000 0.0000 0.0000 31.3972
#
#
#
# Elastic Compliance Matrix: (Units=1/GPa)
#
#
# Indices 1 2 3 4 5 6 
#
# 1 0.011198 -0.007286 -0.003219 0.000000 0.000000 0.000000
# 2 -0.007286 0.036958 -0.010047 0.000000 0.000000 0.000000
# 3 -0.003219 -0.010047 0.012814 0.000000 0.000000 0.000000
# 4 0.000000 0.000000 0.000000 0.071366 0.000000 0.000000
# 5 0.000000 0.000000 0.000000 0.000000 0.032359 0.000000
# 6 0.000000 0.000000 0.000000 0.000000 0.000000 0.031850
#
#
# Mechanical properties :
#
#
# Convention : Reuss Voigt Hill
#
# Bulk Modulus (GPa) = 50.33601 74.72011 62.52806
# Shear Modulus (GPa) = 20.46920 25.69118 23.08019
#
# Velocity S-wave (km/s) = 3.32443 3.72442 3.53009
# Velocity P-wave (km/s) = 6.47405 7.67060 7.09759
#
# Compressibility (1/GPa) = 0.01986649
#
# Stress axis : x y z
#
# Youngs Moduli (GPa) = 89.30412 27.05799 78.04001
#
# Poissons Ratio (x) = 0.19713 0.25124
# Poissons Ratio (y) = 0.65063 0.78403
# Poissons Ratio (z) = 0.28750 0.27184
#
# Static dielectric constant tensor:
#      x y z
#    x 3.654840 0.000000 0.000000 
#    y 0.000000 3.418700 0.000000 
#    z 0.000000 0.000000 3.437000 
# 
# 
# High freq. dielectric constant tensor:
#      x y z
#    x 1.728790 0.000000 0.000000 
#    y 0.000000 1.708540 0.000000 
#    z 0.000000 0.000000 1.713020 
# 
# From -- ./inp_files/65881.got.cif
#   From: 2010.03.12/outbox.cif.g09.slc.cpg/sg65_33_cif.got.tgz:65881.got - 2010.04.10 20:52:16.
