data_PCOD8269115
_publ_section_title
;
Structure prediction by ZEFSAII (Michael W. Deem and Ramdas Pophale) SiO2 
 PCOD8269115
Probable space group: C M M M
;
_chemical_formula_sum "Si O2"
_cell_formula_units_Z 88
_cell_length_a 28.932949
_cell_length_b 14.311218
_cell_length_c 11.500285
_cell_angle_alpha 90.000000
_cell_angle_beta 90.000000
_cell_angle_gamma 90.000000
_cell_volume 4761.874025
_symmetry_space_group_name_H-M "C M M M"
_symmetry_group_IT_number 65
_symmetry_cell_setting 'orthorhombic'
loop_
_space_group_symop_operation_xyz
x,y,z
-x,-y,z
x,-y,-z
-x,y,-z
-x,-y,-z
x,y,-z
-x,y,z
x,-y,z
1/2+x,1/2+y,z
1/2-x,1/2-y,z
1/2+x,1/2-y,-z
1/2-x,1/2+y,-z
1/2-x,1/2-y,-z
1/2+x,1/2+y,-z
1/2-x,1/2+y,z
1/2+x,1/2-y,z
loop_
_atom_site_type_symbol
_atom_site_label
_atom_site_fract_x
_atom_site_fract_y
_atom_site_fract_z
Si Si1 0.846163 0.391508 0.500000
Si Si2 0.136140 0.801044 0.862754
Si Si3 0.266526 0.000000 0.132111
Si Si4 0.948374 0.321452 0.500000
Si Si5 0.206934 0.682910 0.275970
Si Si6 0.554203 0.500000 0.627008
Si Si7 0.448494 0.304222 0.274243
Si Si8 0.841437 0.000000 0.872401
O O1 0.832302 0.500000 0.500000
O O2 0.902759 0.387035 0.500000
O O3 0.823706 0.341220 0.388744
O O4 0.176281 0.737259 0.815595
O O5 0.086135 0.762786 0.822291
O O6 0.142510 0.905341 0.809005
O O7 0.139970 0.799720 0.000000
O O8 0.279181 0.089744 0.208425
O O9 0.212786 0.000000 0.114474
O O10 0.288887 0.000000 0.000000
O O11 0.945519 0.256281 0.610898
O O12 0.000000 0.372222 0.500000
O O13 0.250000 0.750000 0.311409
O O14 0.500000 0.500000 0.606208
O O15 0.578635 0.500000 0.500000
O O16 0.568438 0.408819 0.698362
O O17 0.500000 0.302541 0.221505
O O18 0.864583 0.000000 0.000000
#
# Coordination Sequence:
#
# PCOD8269115 Si02
#       8
#     8  16   8   8  16   8  16   8
#     4  12  25  44  65  88 120 155 184 245 311 350
#     4  11  22  36  58  86 118 158 200 243 292 347
#     4  11  22  38  62  91 118 156 203 240 283 344
#     4  10  20  37  62  87 109 146 197 243 290 352
#     4  12  24  41  64  89 121 156 198 243 292 352
#     4   9  15  26  49  79 110 151 194 233 282 339
#     4  10  19  33  54  81 117 153 194 243 290 346
#     4   9  19  35  55  82 117 155 201 245 281 335
#
# _framework density 18.480118999999998
#
# number of rings (size 3 to 8) (size 9 to 14) (size 15 to 20)
#    0.000    1.364    5.455    1.364    0.000    1.273 
#    0.000    0.000    0.000    3.273    0.000    0.000 
#    0.000    5.818    0.000    0.000    0.000    0.000 
#
# Total GULP energy -545191.256124 kJ/mol
# GULP energy per Si atom -12390.710366 kJ/mol
# Density = 1.843806 g / cm^3
# Si number density = 18.480119 Si / 1000 Ang^3
#
#
#
# Elastic Constant Matrix: (Units=GPa)
#
#
# Indices 1 2 3 4 5 6 
#
# 1 122.6267 37.0467 47.8333 0.0000 0.0000 0.0000
# 2 37.0467 87.7992 31.0021 0.0000 0.0000 0.0000
# 3 47.8333 31.0021 85.3874 0.0000 0.0000 0.0000
# 4 0.0000 0.0000 0.0000 16.5345 0.0000 0.0000
# 5 0.0000 0.0000 0.0000 0.0000 45.2244 0.0000
# 6 0.0000 0.0000 0.0000 0.0000 0.0000 22.9889
#
#
#
# Elastic Compliance Matrix: (Units=1/GPa)
#
#
# Indices 1 2 3 4 5 6 
#
# 1 0.011017 -0.002832 -0.005143 0.000000 0.000000 0.000000
# 2 -0.002832 0.013793 -0.003421 0.000000 0.000000 0.000000
# 3 -0.005143 -0.003421 0.015835 0.000000 0.000000 0.000000
# 4 0.000000 0.000000 0.000000 0.060480 0.000000 0.000000
# 5 0.000000 0.000000 0.000000 0.000000 0.022112 0.000000
# 6 0.000000 0.000000 0.000000 0.000000 0.000000 0.043499
#
#
# Mechanical properties :
#
#
# Convention : Reuss Voigt Hill
#
# Bulk Modulus (GPa) = 56.01997 58.61973 57.31985
# Shear Modulus (GPa) = 25.57826 28.94496 27.26161
#
# Velocity S-wave (km/s) = 3.72438 3.96191 3.84498
# Velocity P-wave (km/s) = 6.99100 7.26074 7.12715
#
# Compressibility (1/GPa) = 0.01785078
#
# Stress axis : x y z
#
# Youngs Moduli (GPa) = 90.77117 72.50172 63.15294
#
# Poissons Ratio (x) = 0.20536 0.32480
# Poissons Ratio (y) = 0.25710 0.21605
# Poissons Ratio (z) = 0.46684 0.24804
#
# Static dielectric constant tensor:
#      x y z
#    x 3.572660 0.000000 0.000000 
#    y 0.000000 3.761050 0.000000 
#    z 0.000000 0.000000 3.355090 
# 
# 
# High freq. dielectric constant tensor:
#      x y z
#    x 1.724380 0.000000 0.000000 
#    y 0.000000 1.711060 0.000000 
#    z 0.000000 0.000000 1.713410 
# 
# From -- ./inp_files/33697.got.cif
#   From: 2010.03.12/outbox.cif.g09.slc.cpg/sg65_17_cif.got.tgz:33697.got - 2010.04.10 20:52:16.
