data_PCOD8269001
_publ_section_title
;
Structure prediction by ZEFSAII (Michael W. Deem and Ramdas Pophale) SiO2 
 PCOD8269001
Probable space group: C M M M
;
_chemical_formula_sum "Si O2"
_cell_formula_units_Z 104
_cell_length_a 27.525643
_cell_length_b 18.106224
_cell_length_c 12.011511
_cell_angle_alpha 90.000000
_cell_angle_beta 90.000000
_cell_angle_gamma 90.000000
_cell_volume 5986.362410
_symmetry_space_group_name_H-M "C M M M"
_symmetry_group_IT_number 65
_symmetry_cell_setting 'orthorhombic'
loop_
_space_group_symop_operation_xyz
x,y,z
-x,-y,z
x,-y,-z
-x,y,-z
-x,-y,-z
x,y,-z
-x,y,z
x,-y,z
1/2+x,1/2+y,z
1/2-x,1/2-y,z
1/2+x,1/2-y,-z
1/2-x,1/2+y,-z
1/2-x,1/2-y,-z
1/2+x,1/2+y,-z
1/2-x,1/2+y,z
1/2+x,1/2-y,z
loop_
_atom_site_type_symbol
_atom_site_label
_atom_site_fract_x
_atom_site_fract_y
_atom_site_fract_z
Si Si1 0.000000 0.087084 0.371541
Si Si2 0.056764 0.675497 0.214844
Si Si3 0.170500 0.175312 0.372924
Si Si4 0.143964 0.657171 0.625998
Si Si5 0.081465 0.155918 0.223803
Si Si6 0.557234 0.916841 0.000000
Si Si7 0.945350 0.086740 0.000000
Si Si8 0.761987 0.582005 0.631865
O O1 0.953676 0.120944 0.313755
O O2 0.000000 0.110911 0.500000
O O3 0.000000 0.000000 0.355853
O O4 0.092162 0.650179 0.313707
O O5 0.065298 0.761590 0.192647
O O6 0.000000 0.661020 0.245393
O O7 0.073759 0.628839 0.107985
O O8 0.158432 0.148914 0.500000
O O9 0.169775 0.263320 0.368065
O O10 0.132969 0.146228 0.282045
O O11 0.221776 0.141932 0.332080
O O12 0.131618 0.635653 0.500000
O O13 0.184617 0.603111 0.679524
O O14 0.083355 0.111701 0.109065
O O15 0.500000 0.923369 0.000000
O O16 0.579784 0.000000 0.000000
O O17 0.000000 0.120481 0.000000
O O18 0.948595 0.000000 0.000000
O O19 0.766380 0.583590 0.500000
O O20 0.747788 0.500000 0.674720
#
# Coordination Sequence:
#
# PCOD8269001 Si02
#       8
#     8  16  16  16  16   8   8  16
#     4  11  22  33  47  71 107 143 170 208 256 296
#     4  10  19  33  53  78 103 137 173 211 257 307
#     4   9  18  32  51  74 100 133 171 211 257 302
#     4   9  18  31  49  76 107 136 167 205 253 309
#     4  11  20  34  51  74 103 137 179 219 249 301
#     4   9  19  35  55  76 100 129 172 224 267 308
#     4  11  21  33  49  66  95 140 181 215 254 298
#     4   9  17  30  49  72  99 133 171 211 254 305
#
# _framework density 17.372820999999998
#
# number of rings (size 3 to 8) (size 9 to 14) (size 15 to 20)
#    0.000    2.231    1.538    1.846    0.000    5.231 
#    0.000    1.538    0.000    0.923    0.000   10.769 
#    0.000    0.000    0.000    0.000    0.000    0.000 
#
# Total GULP energy -644542.070912 kJ/mol
# GULP energy per Si atom -12395.039825 kJ/mol
# Density = 1.733328 g / cm^3
# Si number density = 17.372821 Si / 1000 Ang^3
#
#
#
# Elastic Constant Matrix: (Units=GPa)
#
#
# Indices 1 2 3 4 5 6 
#
# 1 114.0095 40.4500 49.6753 0.0000 0.0000 0.0000
# 2 40.4500 76.7511 50.7007 0.0000 0.0000 0.0000
# 3 49.6753 50.7007 100.6120 0.0000 0.0000 0.0000
# 4 0.0000 0.0000 0.0000 24.3866 0.0000 0.0000
# 5 0.0000 0.0000 0.0000 0.0000 14.4648 0.0000
# 6 0.0000 0.0000 0.0000 0.0000 0.0000 43.9287
#
#
#
# Elastic Compliance Matrix: (Units=1/GPa)
#
#
# Indices 1 2 3 4 5 6 
#
# 1 0.011787 -0.003549 -0.004031 0.000000 0.000000 0.000000
# 2 -0.003549 0.020599 -0.008628 0.000000 0.000000 0.000000
# 3 -0.004031 -0.008628 0.016277 0.000000 0.000000 0.000000
# 4 0.000000 0.000000 0.000000 0.041006 0.000000 0.000000
# 5 0.000000 0.000000 0.000000 0.000000 0.069133 0.000000
# 6 0.000000 0.000000 0.000000 0.000000 0.000000 0.022764
#
#
# Mechanical properties :
#
#
# Convention : Reuss Voigt Hill
#
# Bulk Modulus (GPa) = 61.55054 63.66941 62.60998
# Shear Modulus (GPa) = 22.78953 26.59246 24.69100
#
# Velocity S-wave (km/s) = 3.62580 3.91665 3.77403
# Velocity P-wave (km/s) = 7.28249 7.56188 7.42350
#
# Compressibility (1/GPa) = 0.01624681
#
# Stress axis : x y z
#
# Youngs Moduli (GPa) = 84.84081 48.54551 61.43525
#
# Poissons Ratio (x) = 0.17229 0.24765
# Poissons Ratio (y) = 0.30111 0.53007
# Poissons Ratio (z) = 0.34199 0.41886
#
# Static dielectric constant tensor:
#      x y z
#    x 3.330580 0.000000 0.000000 
#    y 0.000000 3.418900 0.000000 
#    z 0.000000 0.000000 3.122880 
# 
# 
# High freq. dielectric constant tensor:
#      x y z
#    x 1.664990 0.000000 0.000000 
#    y 0.000000 1.677420 0.000000 
#    z 0.000000 0.000000 1.649980 
# 
# From -- ./inp_files/32569.got.cif
#   From: 2010.03.12/outbox.cif.g09.slc.cpg/sg65_17_cif.got.tgz:32569.got - 2010.04.10 20:52:16.
