data_PCOD8269076
_publ_section_title
;
Structure prediction by ZEFSAII (Michael W. Deem and Ramdas Pophale) SiO2 
 PCOD8269076
Probable space group: C M M M
;
_chemical_formula_sum "Si O2"
_cell_formula_units_Z 88
_cell_length_a 18.112671
_cell_length_b 9.412777
_cell_length_c 28.485671
_cell_angle_alpha 90.000000
_cell_angle_beta 90.000000
_cell_angle_gamma 90.000000
_cell_volume 4856.537232
_symmetry_space_group_name_H-M "C M M M"
_symmetry_group_IT_number 65
_symmetry_cell_setting 'orthorhombic'
loop_
_space_group_symop_operation_xyz
x,y,z
-x,-y,z
x,-y,-z
-x,y,-z
-x,-y,-z
x,y,-z
-x,y,z
x,-y,z
1/2+x,1/2+y,z
1/2-x,1/2-y,z
1/2+x,1/2-y,-z
1/2-x,1/2+y,-z
1/2-x,1/2-y,-z
1/2+x,1/2+y,-z
1/2-x,1/2+y,z
1/2+x,1/2-y,z
loop_
_atom_site_type_symbol
_atom_site_label
_atom_site_fract_x
_atom_site_fract_y
_atom_site_fract_z
Si Si1 0.172738 0.166875 0.397952
Si Si2 0.586061 0.162343 0.322828
Si Si3 0.415144 0.833485 0.139131
Si Si4 0.825021 0.665713 0.770387
Si Si5 0.321658 0.659572 0.500000
Si Si6 0.912273 0.839991 0.051536
O O1 0.250000 0.250000 0.392667
O O2 0.113676 0.231018 0.362622
O O3 0.136620 0.188357 0.450478
O O4 0.185698 0.000000 0.386973
O O5 0.500000 0.187336 0.315155
O O6 0.625048 0.200796 0.274265
O O7 0.602889 0.000000 0.337790
O O8 0.500000 0.788670 0.147603
O O9 0.368587 0.781476 0.183711
O O10 0.381035 0.760078 0.092672
O O11 0.408275 0.000000 0.131429
O O12 0.806642 0.500000 0.773768
O O13 0.750000 0.750000 0.765179
O O14 0.292574 0.500000 0.500000
O O15 0.250000 0.750000 0.500000
O O16 0.000000 0.832945 0.051631
O O17 0.885201 0.000000 0.061323
O O18 0.883613 0.789597 0.000000
#
# Coordination Sequence:
#
# PCOD8269076 Si02
#       6
#    16  16  16  16   8  16
#     4  10  19  33  54  79 106 136 172 211 251 297
#     4  10  21  37  55  75 102 135 169 208 256 305
#     4   9  17  30  49  72  97 126 161 200 241 286
#     4  10  21  36  53  73  98 129 164 203 248 298
#     4   8  16  30  49  74 103 135 169 207 249 292
#     4   8  14  25  42  67  99 130 158 192 237 286
#
# _framework density 18.119907000000001
#
# number of rings (size 3 to 8) (size 9 to 14) (size 15 to 20)
#    0.000    2.727    0.000    2.182    0.000    6.545 
#    0.000    2.273    0.000    6.545    0.000    0.000 
#    0.000    0.000    0.000    0.000    0.000    0.000 
#
# Total GULP energy -545329.304083 kJ/mol
# GULP energy per Si atom -12393.847820 kJ/mol
# Density = 1.807867 g / cm^3
# Si number density = 18.119907 Si / 1000 Ang^3
#
#
#
# Elastic Constant Matrix: (Units=GPa)
#
#
# Indices 1 2 3 4 5 6 
#
# 1 82.4239 45.2151 63.5737 0.0000 0.0000 0.0000
# 2 45.2151 76.9181 76.5315 0.0000 0.0000 0.0000
# 3 63.5737 76.5315 176.0926 0.0000 0.0000 0.0000
# 4 0.0000 0.0000 0.0000 24.9904 0.0000 0.0000
# 5 0.0000 0.0000 0.0000 0.0000 85.2865 0.0000
# 6 0.0000 0.0000 0.0000 0.0000 0.0000 23.4326
#
#
#
# Elastic Compliance Matrix: (Units=1/GPa)
#
#
# Indices 1 2 3 4 5 6 
#
# 1 0.019088 -0.007689 -0.003550 0.000000 0.000000 0.000000
# 2 -0.007689 0.026003 -0.008525 0.000000 0.000000 0.000000
# 3 -0.003550 -0.008525 0.010666 0.000000 0.000000 0.000000
# 4 0.000000 0.000000 0.000000 0.040015 0.000000 0.000000
# 5 0.000000 0.000000 0.000000 0.000000 0.011725 0.000000
# 6 0.000000 0.000000 0.000000 0.000000 0.000000 0.042676
#
#
# Mechanical properties :
#
#
# Convention : Reuss Voigt Hill
#
# Bulk Modulus (GPa) = 61.61772 78.45280 70.03526
# Shear Modulus (GPa) = 25.62655 36.74951 31.18803
#
# Velocity S-wave (km/s) = 3.76477 4.50836 4.15324
# Velocity P-wave (km/s) = 7.27855 8.39588 7.85710
#
# Compressibility (1/GPa) = 0.01622910
#
# Stress axis : x y z
#
# Youngs Moduli (GPa) = 52.38869 38.45697 93.76013
#
# Poissons Ratio (x) = 0.29569 0.33281
# Poissons Ratio (y) = 0.40281 0.79934
# Poissons Ratio (z) = 0.18596 0.32786
#
# Static dielectric constant tensor:
#      x y z
#    x 2.974440 0.000000 0.000000 
#    y 0.000000 3.380040 0.000000 
#    z 0.000000 0.000000 3.992230 
# 
# 
# High freq. dielectric constant tensor:
#      x y z
#    x 1.663580 0.000000 0.000000 
#    y 0.000000 1.701340 0.000000 
#    z 0.000000 0.000000 1.724730 
# 
# From -- ./inp_files/77799.got.cif
#   From: 2010.03.12/outbox.cif.g09.slc.cpg/sg65_39_cif.got.tgz:77799.got - 2010.04.10 20:52:16.
