data_PCOD8269119
_publ_section_title
;
Structure prediction by ZEFSAII (Michael W. Deem and Ramdas Pophale) SiO2 
 PCOD8269119
Probable space group: C M M M
;
_chemical_formula_sum "Si O2"
_cell_formula_units_Z 120
_cell_length_a 18.850213
_cell_length_b 26.549011
_cell_length_c 12.889193
_cell_angle_alpha 90.000000
_cell_angle_beta 90.000000
_cell_angle_gamma 90.000000
_cell_volume 6450.454797
_symmetry_space_group_name_H-M "C M M M"
_symmetry_group_IT_number 65
_symmetry_cell_setting 'orthorhombic'
loop_
_space_group_symop_operation_xyz
x,y,z
-x,-y,z
x,-y,-z
-x,y,-z
-x,-y,-z
x,y,-z
-x,y,z
x,-y,z
1/2+x,1/2+y,z
1/2-x,1/2-y,z
1/2+x,1/2-y,-z
1/2-x,1/2+y,-z
1/2-x,1/2-y,-z
1/2+x,1/2+y,-z
1/2-x,1/2+y,z
1/2+x,1/2-y,z
loop_
_atom_site_type_symbol
_atom_site_label
_atom_site_fract_x
_atom_site_fract_y
_atom_site_fract_z
Si Si1 0.683701 0.058005 0.383834
Si Si2 0.676491 0.721133 0.760411
Si Si3 0.134055 0.608408 0.813303
Si Si4 0.075685 0.556450 0.000000
Si Si5 0.418814 0.348651 0.622047
Si Si6 0.788035 0.126105 0.879546
Si Si7 0.838873 0.058747 0.294287
Si Si8 0.578693 0.793683 0.882370
O O1 0.670100 0.078674 0.500000
O O2 0.633123 0.088191 0.304552
O O3 0.766245 0.064916 0.357975
O O4 0.661994 0.000000 0.375820
O O5 0.750000 0.750000 0.727925
O O6 0.638215 0.692066 0.665239
O O7 0.680691 0.680681 0.853110
O O8 0.625515 0.763138 0.803441
O O9 0.208955 0.632814 0.839320
O O10 0.074855 0.650531 0.833146
O O11 0.121392 0.564594 0.896418
O O12 0.053326 0.500000 0.000000
O O13 0.000000 0.587081 0.000000
O O14 0.415622 0.342912 0.500000
O O15 0.500000 0.338783 0.661357
O O16 0.398027 0.406155 0.652144
O O17 0.826865 0.079483 0.822294
O O18 0.795141 0.114616 0.000000
O O19 0.863131 0.000000 0.291362
O O20 0.500000 0.770825 0.884653
O O21 0.610048 0.795453 0.000000
#
# Coordination Sequence:
#
# PCOD8269119 Si02
#       8
#    16  16  16   8  16  16  16  16
#     4   9  18  33  53  78 110 146 185 230 279 334
#     4  11  22  37  58  84 113 148 190 238 287 348
#     4  11  19  33  52  79 108 141 184 233 283 335
#     4  11  22  34  50  73 106 144 179 226 286 346
#     4  10  22  40  60  83 114 150 192 244 296 348
#     4  10  19  33  54  84 118 148 183 233 283 333
#     4   9  19  34  55  86 119 152 189 229 282 343
#     4  11  22  36  56  81 113 150 185 229 284 341
#
# _framework density 18.603339999999999
#
# number of rings (size 3 to 8) (size 9 to 14) (size 15 to 20)
#    0.000    1.800    2.667    2.000    0.000    2.667 
#    0.000    1.333    0.000    6.000    0.000    8.400 
#    0.000    0.000    0.000    0.000    0.000    0.000 
#
# Total GULP energy -743570.976146 kJ/mol
# GULP energy per Si atom -12392.849602 kJ/mol
# Density = 1.856100 g / cm^3
# Si number density = 18.603340 Si / 1000 Ang^3
#
#
#
# Elastic Constant Matrix: (Units=GPa)
#
#
# Indices 1 2 3 4 5 6 
#
# 1 64.9621 36.6185 28.4839 0.0000 0.0000 0.0000
# 2 36.6185 101.4245 44.7561 0.0000 0.0000 0.0000
# 3 28.4839 44.7561 135.2261 0.0000 0.0000 0.0000
# 4 0.0000 0.0000 0.0000 22.7724 0.0000 0.0000
# 5 0.0000 0.0000 0.0000 0.0000 25.1106 0.0000
# 6 0.0000 0.0000 0.0000 0.0000 0.0000 20.3412
#
#
#
# Elastic Compliance Matrix: (Units=1/GPa)
#
#
# Indices 1 2 3 4 5 6 
#
# 1 0.019831 -0.006226 -0.002117 0.000000 0.000000 0.000000
# 2 -0.006226 0.013500 -0.003157 0.000000 0.000000 0.000000
# 3 -0.002117 -0.003157 0.008886 0.000000 0.000000 0.000000
# 4 0.000000 0.000000 0.000000 0.043913 0.000000 0.000000
# 5 0.000000 0.000000 0.000000 0.000000 0.039824 0.000000
# 6 0.000000 0.000000 0.000000 0.000000 0.000000 0.049161
#
#
# Mechanical properties :
#
#
# Convention : Reuss Voigt Hill
#
# Bulk Modulus (GPa) = 52.03306 57.92552 54.97929
# Shear Modulus (GPa) = 24.44749 26.42845 25.43797
#
# Velocity S-wave (km/s) = 3.62905 3.77321 3.70183
# Velocity P-wave (km/s) = 6.75207 7.08432 6.92019
#
# Compressibility (1/GPa) = 0.01921855
#
# Stress axis : x y z
#
# Youngs Moduli (GPa) = 50.42583 74.07201 112.54046
#
# Poissons Ratio (x) = 0.46116 0.23821
# Poissons Ratio (y) = 0.31394 0.35527
# Poissons Ratio (z) = 0.10673 0.23383
#
# Static dielectric constant tensor:
#      x y z
#    x 2.995440 0.000000 0.000000 
#    y 0.000000 3.461810 0.000000 
#    z 0.000000 0.000000 3.481650 
# 
# 
# High freq. dielectric constant tensor:
#      x y z
#    x 1.712070 0.000000 0.000000 
#    y 0.000000 1.726080 0.000000 
#    z 0.000000 0.000000 1.718080 
# 
# From -- ./inp_files/29668.got.cif
#   From: 2010.03.12/outbox.cif.g09.slc.cpg/sg65_15_cif.got.tgz:29668.got - 2010.04.10 20:52:16.
