data_PCOD8269522
_publ_section_title
;
Structure prediction by ZEFSAII (Michael W. Deem and Ramdas Pophale) SiO2 
 PCOD8269522
Probable space group: C M M M
;
_chemical_formula_sum "Si O2"
_cell_formula_units_Z 72
_cell_length_a 15.529330
_cell_length_b 7.943663
_cell_length_c 27.846109
_cell_angle_alpha 90.000000
_cell_angle_beta 90.000000
_cell_angle_gamma 90.000000
_cell_volume 3435.089438
_symmetry_space_group_name_H-M "C M M M"
_symmetry_group_IT_number 65
_symmetry_cell_setting 'orthorhombic'
loop_
_space_group_symop_operation_xyz
x,y,z
-x,-y,z
x,-y,-z
-x,y,-z
-x,-y,-z
x,y,-z
-x,y,z
x,-y,z
1/2+x,1/2+y,z
1/2-x,1/2-y,z
1/2+x,1/2-y,-z
1/2-x,1/2+y,-z
1/2-x,1/2-y,-z
1/2+x,1/2+y,-z
1/2-x,1/2+y,z
1/2+x,1/2-y,z
loop_
_atom_site_type_symbol
_atom_site_label
_atom_site_fract_x
_atom_site_fract_y
_atom_site_fract_z
Si Si1 0.399503 0.312097 0.616282
Si Si2 0.000000 0.299293 0.882636
Si Si3 0.602628 0.000000 0.446104
Si Si4 0.842688 0.698143 0.053638
Si Si5 0.000000 0.807277 0.224932
Si Si6 0.840958 0.693229 0.284309
O O1 0.500000 0.280313 0.625094
O O2 0.382608 0.500000 0.594999
O O3 0.354221 0.301526 0.667698
O O4 0.363183 0.169260 0.580257
O O5 0.916599 0.232977 0.911429
O O6 0.000000 0.500000 0.875769
O O7 0.000000 0.208429 0.831937
O O8 0.500000 0.000000 0.447320
O O9 0.639993 0.000000 0.500000
O O10 0.850975 0.500000 0.050530
O O11 0.750000 0.750000 0.075004
O O12 0.854013 0.775555 0.000000
O O13 0.085242 0.720123 0.245219
O O14 0.000000 0.000000 0.241092
O O15 0.840156 0.500000 0.299574
O O16 0.750000 0.750000 0.261168
#
# Coordination Sequence:
#
# PCOD8269522 Si02
#       6
#    16   8   8  16   8  16
#     4  10  19  34  58  88 122 160 203 254 308 367
#     4  10  21  38  58  82 116 162 199 243 310 372
#     4   9  18  32  54  88 124 163 207 251 307 372
#     4   9  18  34  58  86 116 153 202 251 298 360
#     4  12  26  43  61  89 126 161 205 257 317 373
#     4  12  24  41  65  93 120 157 207 259 312 375
#
# _framework density 20.960152999999998
#
# number of rings (size 3 to 8) (size 9 to 14) (size 15 to 20)
#    0.000    1.667    2.222    3.333    0.000    3.556 
#    0.000    4.444    0.000    4.000    0.000    0.000 
#    0.000    0.000    0.000    0.000    0.000    0.000 
#
# Total GULP energy -446479.539650 kJ/mol
# GULP energy per Si atom -12402.209435 kJ/mol
# Density = 2.091245 g / cm^3
# Si number density = 20.960153 Si / 1000 Ang^3
#
#
#
# Elastic Constant Matrix: (Units=GPa)
#
#
# Indices 1 2 3 4 5 6 
#
# 1 134.7379 29.5963 63.0343 0.0000 0.0000 0.0000
# 2 29.5963 111.6015 31.3518 0.0000 0.0000 0.0000
# 3 63.0343 31.3518 127.7277 0.0000 0.0000 0.0000
# 4 0.0000 0.0000 0.0000 24.6910 0.0000 0.0000
# 5 0.0000 0.0000 0.0000 0.0000 -6.2316 0.0000
# 6 0.0000 0.0000 0.0000 0.0000 0.0000 25.6191
#
#
#
# Elastic Compliance Matrix: (Units=1/GPa)
#
#
# Indices 1 2 3 4 5 6 
#
# 1 0.009832 -0.001336 -0.004524 0.000000 0.000000 0.000000
# 2 -0.001336 0.009806 -0.001747 0.000000 0.000000 0.000000
# 3 -0.004524 -0.001747 0.010491 0.000000 0.000000 0.000000
# 4 0.000000 0.000000 0.000000 0.040501 0.000000 0.000000
# 5 0.000000 0.000000 0.000000 0.000000 -0.160473 0.000000
# 6 0.000000 0.000000 0.000000 0.000000 0.000000 0.039033
#
#
# Mechanical properties :
#
#
# Convention : Reuss Voigt Hill
#
# Bulk Modulus (GPa) = 67.05728 69.11466 68.08597
# Shear Modulus (GPa) = -163.26985 25.48801 -68.89092
#
# Velocity S-wave (km/s) = -8.83541 3.49093 -5.73924
# Velocity P-wave (km/s) = 8.48668 7.02102 3.37113
#
# Compressibility (1/GPa) = 0.01491262
#
# Stress axis : x y z
#
# Youngs Moduli (GPa) = 101.71019 101.98091 95.32251
#
# Poissons Ratio (x) = 0.13629 0.43124
# Poissons Ratio (y) = 0.13593 0.16656
# Poissons Ratio (z) = 0.46014 0.17820
#
# Static dielectric constant tensor:
#      x y z
#    x 3.933910 0.000000 0.000000 
#    y 0.000000 3.809360 0.000000 
#    z 0.000000 0.000000 3.690360 
# 
# 
# High freq. dielectric constant tensor:
#      x y z
#    x 1.817490 0.000000 0.000000 
#    y 0.000000 1.826520 0.000000 
#    z 0.000000 0.000000 1.803920 
# 
# From -- ./inp_files/74682.got.cif
#   From: 2010.03.12/outbox.cif.g09.slc.cpg/sg65_38_cif.got.tgz:74682.got - 2010.04.10 20:52:16.
