data_PCOD8269476
_publ_section_title
;
Structure prediction by ZEFSAII (Michael W. Deem and Ramdas Pophale) SiO2 
 PCOD8269476
Probable space group: C M M M
;
_chemical_formula_sum "Si O2"
_cell_formula_units_Z 72
_cell_length_a 9.063396
_cell_length_b 16.258860
_cell_length_c 24.784689
_cell_angle_alpha 90.000000
_cell_angle_beta 90.000000
_cell_angle_gamma 90.000000
_cell_volume 3652.283833
_symmetry_space_group_name_H-M "C M M M"
_symmetry_group_IT_number 65
_symmetry_cell_setting 'orthorhombic'
loop_
_space_group_symop_operation_xyz
x,y,z
-x,-y,z
x,-y,-z
-x,y,-z
-x,-y,-z
x,y,-z
-x,y,z
x,-y,z
1/2+x,1/2+y,z
1/2-x,1/2-y,z
1/2+x,1/2-y,-z
1/2-x,1/2+y,-z
1/2-x,1/2-y,-z
1/2+x,1/2+y,-z
1/2-x,1/2+y,z
1/2+x,1/2-y,z
loop_
_atom_site_type_symbol
_atom_site_label
_atom_site_fract_x
_atom_site_fract_y
_atom_site_fract_z
Si Si1 0.174983 0.500000 0.061371
Si Si2 0.174850 0.591142 0.767445
Si Si3 0.337664 0.404000 0.559053
Si Si4 0.673593 0.164540 0.343853
Si Si5 0.325240 0.165195 0.878390
O O1 0.232675 0.584608 0.088997
O O2 0.000000 0.500000 0.065984
O O3 0.230762 0.500000 0.000000
O O4 0.239563 0.500000 0.778053
O O5 0.237946 0.623701 0.710705
O O6 0.221892 0.651264 0.816083
O O7 0.000000 0.585612 0.764885
O O8 0.291528 0.367720 0.500000
O O9 0.500000 0.368156 0.575492
O O10 0.352194 0.500000 0.553251
O O11 0.213869 0.387511 0.603608
O O12 0.500000 0.174515 0.339586
O O13 0.750000 0.250000 0.352179
O O14 0.500000 0.175117 0.885602
O O15 0.250000 0.250000 0.899058
#
# Coordination Sequence:
#
# PCOD8269476 Si02
#       5
#     8  16  16  16  16
#     4   9  18  34  57  83 111 151 198 231 266 330
#     4   9  17  32  54  78 104 139 181 223 271 327
#     4   9  19  37  58  77 100 132 170 214 267 325
#     4  11  22  34  51  76 106 137 175 220 267 322
#     4  10  19  34  57  82 112 148 188 233 280 330
#
# _framework density 19.713692000000002
#
# number of rings (size 3 to 8) (size 9 to 14) (size 15 to 20)
#    0.000    2.333    1.111    2.667    0.000    2.667 
#    0.000    2.778    0.000    3.333    0.000    0.000 
#    0.000    0.000    0.000    0.000    0.000    0.000 
#
# Total GULP energy -446167.368860 kJ/mol
# GULP energy per Si atom -12393.538024 kJ/mol
# Density = 1.966882 g / cm^3
# Si number density = 19.713692 Si / 1000 Ang^3
#
#
#
# Elastic Constant Matrix: (Units=GPa)
#
#
# Indices 1 2 3 4 5 6 
#
# 1 42.3329 25.0640 28.5724 0.0000 0.0000 0.0000
# 2 25.0640 116.5387 53.8299 0.0000 0.0000 0.0000
# 3 28.5724 53.8299 142.2840 0.0000 0.0000 0.0000
# 4 0.0000 0.0000 0.0000 17.4599 0.0000 0.0000
# 5 0.0000 0.0000 0.0000 0.0000 18.8138 0.0000
# 6 0.0000 0.0000 0.0000 0.0000 0.0000 16.3798
#
#
#
# Elastic Compliance Matrix: (Units=1/GPa)
#
#
# Indices 1 2 3 4 5 6 
#
# 1 0.029000 -0.004298 -0.004197 0.000000 0.000000 0.000000
# 2 -0.004298 0.011035 -0.003312 0.000000 0.000000 0.000000
# 3 -0.004197 -0.003312 0.009124 0.000000 0.000000 0.000000
# 4 0.000000 0.000000 0.000000 0.057274 0.000000 0.000000
# 5 0.000000 0.000000 0.000000 0.000000 0.053152 0.000000
# 6 0.000000 0.000000 0.000000 0.000000 0.000000 0.061051
#
#
# Mechanical properties :
#
#
# Convention : Reuss Voigt Hill
#
# Bulk Modulus (GPa) = 39.14756 57.34314 48.24535
# Shear Modulus (GPa) = 19.78113 23.44332 21.61223
#
# Velocity S-wave (km/s) = 3.17112 3.45220 3.31464
# Velocity P-wave (km/s) = 5.77141 6.71129 6.25902
#
# Compressibility (1/GPa) = 0.02554438
#
# Stress axis : x y z
#
# Youngs Moduli (GPa) = 34.48250 90.62118 109.60117
#
# Poissons Ratio (x) = 0.38951 0.46005
# Poissons Ratio (y) = 0.14821 0.36296
# Poissons Ratio (z) = 0.14474 0.30011
#
# Static dielectric constant tensor:
#      x y z
#    x 3.402430 0.000000 0.000000 
#    y 0.000000 3.640450 0.000000 
#    z 0.000000 0.000000 4.105820 
# 
# 
# High freq. dielectric constant tensor:
#      x y z
#    x 1.723380 0.000000 0.000000 
#    y 0.000000 1.773570 0.000000 
#    z 0.000000 0.000000 1.778900 
# 
# From -- ./inp_files/72494.got.cif
#   From: 2010.03.12/outbox.cif.g09.slc.cpg/sg65_37_cif.got.tgz:72494.got - 2010.04.10 20:52:16.
