data_PCOD8269054
_publ_section_title
;
Structure prediction by ZEFSAII (Michael W. Deem and Ramdas Pophale) SiO2 
 PCOD8269054
Probable space group: C M M M
;
_chemical_formula_sum "Si O2"
_cell_formula_units_Z 80
_cell_length_a 18.894928
_cell_length_b 8.990377
_cell_length_c 25.445768
_cell_angle_alpha 90.000000
_cell_angle_beta 90.000000
_cell_angle_gamma 90.000000
_cell_volume 4322.536889
_symmetry_space_group_name_H-M "C M M M"
_symmetry_group_IT_number 65
_symmetry_cell_setting 'orthorhombic'
loop_
_space_group_symop_operation_xyz
x,y,z
-x,-y,z
x,-y,-z
-x,y,-z
-x,-y,-z
x,y,-z
-x,y,z
x,-y,z
1/2+x,1/2+y,z
1/2-x,1/2-y,z
1/2+x,1/2-y,-z
1/2-x,1/2+y,-z
1/2-x,1/2-y,-z
1/2+x,1/2+y,-z
1/2-x,1/2+y,z
1/2+x,1/2-y,z
loop_
_atom_site_type_symbol
_atom_site_label
_atom_site_fract_x
_atom_site_fract_y
_atom_site_fract_z
Si Si1 0.673585 0.325225 0.386039
Si Si2 0.323098 0.670570 0.500000
Si Si3 0.581140 0.174057 0.298811
Si Si4 0.176298 0.323396 0.914806
Si Si5 0.821050 0.672663 0.204784
Si Si6 0.416502 0.673101 0.000000
O O1 0.683563 0.500000 0.376747
O O2 0.750000 0.250000 0.378712
O O3 0.639185 0.290525 0.444306
O O4 0.618083 0.263045 0.345041
O O5 0.303426 0.500000 0.500000
O O6 0.250000 0.750000 0.500000
O O7 0.500000 0.222998 0.296406
O O8 0.614862 0.218326 0.242785
O O9 0.589925 0.000000 0.310131
O O10 0.180102 0.500000 0.923837
O O11 0.250000 0.250000 0.932947
O O12 0.159660 0.280076 0.854516
O O13 0.113513 0.253165 0.948404
O O14 0.804900 0.500000 0.207343
O O15 0.750000 0.750000 0.225211
O O16 0.395252 0.500000 0.000000
O O17 0.500000 0.695295 0.000000
#
# Coordination Sequence:
#
# PCOD8269054 Si02
#       6
#    16   8  16  16  16   8
#     4  10  19  33  54  78 103 133 172 215 260 310
#     4   8  16  30  49  74 101 129 165 213 261 304
#     4  10  21  36  52  74 107 142 174 212 259 308
#     4  10  20  36  59  83 107 137 175 216 258 308
#     4   9  19  35  56  80 104 134 172 215 260 306
#     4  11  24  39  54  77 111 145 176 215 262 307
#
# _framework density 18.507650000000002
#
# number of rings (size 3 to 8) (size 9 to 14) (size 15 to 20)
#    0.000    2.300    0.000    2.400    0.000    6.000 
#    0.000    2.500    0.000    3.000    0.000    0.000 
#    0.000    0.000    0.000    0.000    0.000    0.000 
#
# Total GULP energy -495857.655594 kJ/mol
# GULP energy per Si atom -12396.441390 kJ/mol
# Density = 1.846553 g / cm^3
# Si number density = 18.507650 Si / 1000 Ang^3
#
#
#
# Elastic Constant Matrix: (Units=GPa)
#
#
# Indices 1 2 3 4 5 6 
#
# 1 127.2922 57.8308 82.2446 0.0000 0.0000 0.0000
# 2 57.8308 76.6705 58.9317 0.0000 0.0000 0.0000
# 3 82.2446 58.9317 141.6138 0.0000 0.0000 0.0000
# 4 0.0000 0.0000 0.0000 -0.5550 0.0000 0.0000
# 5 0.0000 0.0000 0.0000 0.0000 -20.1150 0.0000
# 6 0.0000 0.0000 0.0000 0.0000 0.0000 28.5637
#
#
#
# Elastic Compliance Matrix: (Units=1/GPa)
#
#
# Indices 1 2 3 4 5 6 
#
# 1 0.014526 -0.006576 -0.005700 0.000000 0.000000 0.000000
# 2 -0.006576 0.022153 -0.005400 0.000000 0.000000 0.000000
# 3 -0.005700 -0.005400 0.012619 0.000000 0.000000 0.000000
# 4 0.000000 0.000000 0.000000 -1.801912 0.000000 0.000000
# 5 0.000000 0.000000 0.000000 0.000000 -0.049714 0.000000
# 6 0.000000 0.000000 0.000000 0.000000 0.000000 0.035009
#
#
# Mechanical properties :
#
#
# Convention : Reuss Voigt Hill
#
# Bulk Modulus (GPa) = 71.69844 82.62118 77.15981
# Shear Modulus (GPa) = -2.89466 11.35004 4.22769
#
# Velocity S-wave (km/s) = -1.25197 2.47910 1.51303
# Velocity P-wave (km/s) = 6.06087 7.27552 6.69579
#
# Compressibility (1/GPa) = 0.01394730
#
# Stress axis : x y z
#
# Youngs Moduli (GPa) = 68.84181 45.13993 79.24564
#
# Poissons Ratio (x) = 0.29682 0.45169
# Poissons Ratio (y) = 0.45267 0.42794
# Poissons Ratio (z) = 0.39239 0.24376
#
# Static dielectric constant tensor:
#      x y z
#    x 3.230390 0.000000 0.000000 
#    y 0.000000 3.477780 0.000000 
#    z 0.000000 0.000000 4.125750 
# 
# 
# High freq. dielectric constant tensor:
#      x y z
#    x 1.695470 0.000000 0.000000 
#    y 0.000000 1.724620 0.000000 
#    z 0.000000 0.000000 1.739630 
# 
# From -- ./inp_files/75105.got.cif
#   From: 2010.03.12/outbox.cif.g09.slc.cpg/sg65_38_cif.got.tgz:75105.got - 2010.04.10 20:52:16.
