data_PCOD8269268
_publ_section_title
;
Structure prediction by ZEFSAII (Michael W. Deem and Ramdas Pophale) SiO2 
 PCOD8269268
Probable space group: C M M M
;
_chemical_formula_sum "Si O2"
_cell_formula_units_Z 88
_cell_length_a 19.417314
_cell_length_b 30.651974
_cell_length_c 9.305388
_cell_angle_alpha 90.000000
_cell_angle_beta 90.000000
_cell_angle_gamma 90.000000
_cell_volume 5538.371561
_symmetry_space_group_name_H-M "C M M M"
_symmetry_group_IT_number 65
_symmetry_cell_setting 'orthorhombic'
loop_
_space_group_symop_operation_xyz
x,y,z
-x,-y,z
x,-y,-z
-x,y,-z
-x,-y,-z
x,y,-z
-x,y,z
x,-y,z
1/2+x,1/2+y,z
1/2-x,1/2-y,z
1/2+x,1/2-y,-z
1/2-x,1/2+y,-z
1/2-x,1/2-y,-z
1/2+x,1/2+y,-z
1/2-x,1/2+y,z
1/2+x,1/2-y,z
loop_
_atom_site_type_symbol
_atom_site_label
_atom_site_fract_x
_atom_site_fract_y
_atom_site_fract_z
Si Si1 0.293637 0.792826 0.669757
Si Si2 0.921718 0.265670 0.168208
Si Si3 0.923707 0.819929 0.660113
Si Si4 0.294735 0.624521 0.663536
Si Si5 0.849996 0.950358 0.829333
Si Si6 0.500000 0.448729 0.155921
O O1 0.305397 0.791663 0.500000
O O2 0.250000 0.750000 0.717450
O O3 0.367211 0.795820 0.748766
O O4 0.254858 0.836862 0.718350
O O5 0.909981 0.216605 0.221565
O O6 0.000000 0.281095 0.202524
O O7 0.906373 0.267542 0.000000
O O8 0.913263 0.799166 0.500000
O O9 0.872628 0.859488 0.681648
O O10 0.000000 0.839600 0.677819
O O11 0.276693 0.612291 0.500000
O O12 0.291400 0.580795 0.759486
O O13 0.926800 0.937514 0.767154
O O14 0.831274 0.000000 0.787156
O O15 0.848924 0.944387 0.000000
O O16 0.500000 0.500000 0.129635
O O17 0.500000 0.425315 0.000000
#
# Coordination Sequence:
#
# PCOD8269268 Si02
#       6
#    16  16  16  16  16   8
#     4  10  19  34  50  66  93 127 159 190 229 279
#     4  10  20  32  47  69  94 120 155 197 234 270
#     4   9  17  30  45  61  88 126 161 192 231 276
#     4  10  20  31  46  68  90 118 157 199 235 271
#     4   9  18  32  47  63  87 120 156 193 236 282
#     4   7  12  26  45  61  81 115 155 191 229 273
#
# _framework density 15.889146
#
# number of rings (size 3 to 8) (size 9 to 14) (size 15 to 20)
#    0.000    2.636    1.818    1.636    1.273    3.273 
#    0.000    0.000    0.000    1.636    0.000    0.000 
#    0.000    0.727    0.000    8.000    0.000    5.818 
#
# Total GULP energy -545186.385011 kJ/mol
# GULP energy per Si atom -12390.599659 kJ/mol
# Density = 1.585298 g / cm^3
# Si number density = 15.889146 Si / 1000 Ang^3
#
#
#
# Elastic Constant Matrix: (Units=GPa)
#
#
# Indices 1 2 3 4 5 6 
#
# 1 71.4318 39.8181 38.0574 0.0000 0.0000 0.0000
# 2 39.8181 87.2161 36.5659 0.0000 0.0000 0.0000
# 3 38.0574 36.5659 48.5457 0.0000 0.0000 0.0000
# 4 0.0000 0.0000 0.0000 23.5530 0.0000 0.0000
# 5 0.0000 0.0000 0.0000 0.0000 22.8626 0.0000
# 6 0.0000 0.0000 0.0000 0.0000 0.0000 24.9483
#
#
#
# Elastic Compliance Matrix: (Units=1/GPa)
#
#
# Indices 1 2 3 4 5 6 
#
# 1 0.025308 -0.004730 -0.016278 0.000000 0.000000 0.000000
# 2 -0.004730 0.017642 -0.009580 0.000000 0.000000 0.000000
# 3 -0.016278 -0.009580 0.040576 0.000000 0.000000 0.000000
# 4 0.000000 0.000000 0.000000 0.042457 0.000000 0.000000
# 5 0.000000 0.000000 0.000000 0.000000 0.043740 0.000000
# 6 0.000000 0.000000 0.000000 0.000000 0.000000 0.040083
#
#
# Mechanical properties :
#
#
# Convention : Reuss Voigt Hill
#
# Bulk Modulus (GPa) = 44.74178 48.45293 46.59735
# Shear Modulus (GPa) = 17.95767 20.45626 19.20697
#
# Velocity S-wave (km/s) = 3.36547 3.59198 3.48057
# Velocity P-wave (km/s) = 6.58192 6.91112 6.74853
#
# Compressibility (1/GPa) = 0.02235047
#
# Stress axis : x y z
#
# Youngs Moduli (GPa) = 39.51251 56.68375 24.64493
#
# Poissons Ratio (x) = 0.26811 0.40117
# Poissons Ratio (y) = 0.18689 0.23610
# Poissons Ratio (z) = 0.64318 0.54304
#
# Static dielectric constant tensor:
#      x y z
#    x 3.060540 0.000000 0.000000 
#    y 0.000000 2.789820 0.000000 
#    z 0.000000 0.000000 2.974670 
# 
# 
# High freq. dielectric constant tensor:
#      x y z
#    x 1.591620 0.000000 0.000000 
#    y 0.000000 1.583340 0.000000 
#    z 0.000000 0.000000 1.602810 
# 
# From -- ./inp_files/12636.got.cif
#   From: 2010.03.12/outbox.cif.g09.slc.cpg/sg65_7_cif.got.tgz:12636.got - 2010.04.10 20:52:16.
