data_PCOD8269782
_publ_section_title
;
Structure prediction by ZEFSAII (Michael W. Deem and Ramdas Pophale) SiO2 
 PCOD8269782
Probable space group: C M M M
;
_chemical_formula_sum "Si O2"
_cell_formula_units_Z 128
_cell_length_a 18.727928
_cell_length_b 24.821974
_cell_length_c 18.601013
_cell_angle_alpha 90.000000
_cell_angle_beta 90.000000
_cell_angle_gamma 90.000000
_cell_volume 8646.943947
_symmetry_space_group_name_H-M "C M M M"
_symmetry_group_IT_number 65
_symmetry_cell_setting 'orthorhombic'
loop_
_space_group_symop_operation_xyz
x,y,z
-x,-y,z
x,-y,-z
-x,y,-z
-x,-y,-z
x,y,-z
-x,y,z
x,-y,z
1/2+x,1/2+y,z
1/2-x,1/2-y,z
1/2+x,1/2-y,-z
1/2-x,1/2+y,-z
1/2-x,1/2-y,-z
1/2+x,1/2+y,-z
1/2-x,1/2+y,z
1/2+x,1/2-y,z
loop_
_atom_site_type_symbol
_atom_site_label
_atom_site_fract_x
_atom_site_fract_y
_atom_site_fract_z
Si Si1 0.581678 0.650546 0.581551
Si Si2 0.784446 0.435672 0.079029
Si Si3 0.422571 0.063697 0.843851
Si Si4 0.284823 0.563556 0.220856
Si Si5 0.419905 0.562068 0.695658
Si Si6 0.330948 0.248700 0.585485
Si Si7 0.352665 0.936699 0.696094
Si Si8 0.083890 0.356598 0.584646
O O1 0.604021 0.637992 0.500000
O O2 0.500000 0.669900 0.586383
O O3 0.594657 0.595526 0.624002
O O4 0.629543 0.698091 0.615058
O O5 0.783121 0.500000 0.077212
O O6 0.863624 0.414579 0.100195
O O7 0.730655 0.413280 0.140636
O O8 0.763954 0.412724 0.000000
O O9 0.500000 0.088670 0.863212
O O10 0.404004 0.079013 0.762050
O O11 0.424817 0.000000 0.850190
O O12 0.276268 0.500000 0.215216
O O13 0.364545 0.581015 0.243060
O O14 0.227254 0.582559 0.280785
O O15 0.500000 0.571575 0.725474
O O16 0.407205 0.500000 0.674800
O O17 0.331639 0.249754 0.500000
O O18 0.250000 0.250000 0.615394
O O19 0.374602 0.196618 0.612059
O O20 0.380160 0.906686 0.625196
O O21 0.354810 0.000000 0.678556
O O22 0.095341 0.366042 0.500000
O O23 0.000000 0.351137 0.602860
#
# Coordination Sequence:
#
# PCOD8269782 Si02
#       8
#    16  16  16  16  16  16  16  16
#     4   9  17  29  45  62  81 105 132 167 210 251
#     4   8  13  21  34  52  73 101 137 169 195 225
#     4   8  13  21  33  50  74 104 135 165 199 238
#     4   8  15  27  40  55  79 109 136 164 199 242
#     4   9  17  28  43  63  84 107 134 164 204 252
#     4   9  18  31  45  59  76 101 134 172 213 253
#     4   9  17  28  41  57  80 112 144 171 203 241
#     4  10  20  31  43  59  79 106 142 180 210 239
#
# _framework density 14.802917000000001
#
# number of rings (size 3 to 8) (size 9 to 14) (size 15 to 20)
#    0.000    3.250    0.000    2.250    1.750    3.000 
#    0.000    3.125    0.000    2.625    0.000    2.625 
#    0.000    0.000    0.000    9.000    0.000   30.000 
#
# Total GULP energy -793062.678843 kJ/mol
# GULP energy per Si atom -12391.604357 kJ/mol
# Density = 1.476923 g / cm^3
# Si number density = 14.802917 Si / 1000 Ang^3
#
#
#
# Elastic Constant Matrix: (Units=GPa)
#
#
# Indices 1 2 3 4 5 6 
#
# 1 116.4118 40.2070 56.6989 0.0000 0.0000 0.0000
# 2 40.2070 48.0411 32.8675 0.0000 0.0000 0.0000
# 3 56.6989 32.8675 81.6750 0.0000 0.0000 0.0000
# 4 0.0000 0.0000 0.0000 1.7886 0.0000 0.0000
# 5 0.0000 0.0000 0.0000 0.0000 14.9881 0.0000
# 6 0.0000 0.0000 0.0000 0.0000 0.0000 17.9048
#
#
#
# Elastic Compliance Matrix: (Units=1/GPa)
#
#
# Indices 1 2 3 4 5 6 
#
# 1 0.014627 -0.007307 -0.007214 0.000000 0.000000 0.000000
# 2 -0.007307 0.032373 -0.007955 0.000000 0.000000 0.000000
# 3 -0.007214 -0.007955 0.020453 0.000000 0.000000 0.000000
# 4 0.000000 0.000000 0.000000 0.559083 0.000000 0.000000
# 5 0.000000 0.000000 0.000000 0.000000 0.066720 0.000000
# 6 0.000000 0.000000 0.000000 0.000000 0.000000 0.055851
#
#
# Mechanical properties :
#
#
# Convention : Reuss Voigt Hill
#
# Bulk Modulus (GPa) = 44.44103 56.18608 50.31356
# Shear Modulus (GPa) = 6.23783 14.69327 10.46555
#
# Velocity S-wave (km/s) = 2.05501 3.15396 2.66182
# Velocity P-wave (km/s) = 5.97643 7.16253 6.59619
#
# Compressibility (1/GPa) = 0.02250173
#
# Stress axis : x y z
#
# Youngs Moduli (GPa) = 68.36465 30.88962 48.89237
#
# Poissons Ratio (x) = 0.22570 0.35271
# Poissons Ratio (y) = 0.49951 0.38896
# Poissons Ratio (z) = 0.49319 0.24574
#
# Static dielectric constant tensor:
#      x y z
#    x 3.198760 0.000000 0.000000 
#    y 0.000000 2.536640 0.000000 
#    z 0.000000 0.000000 2.834160 
# 
# 
# High freq. dielectric constant tensor:
#      x y z
#    x 1.578800 0.000000 0.000000 
#    y 0.000000 1.521500 0.000000 
#    z 0.000000 0.000000 1.542430 
# 
# From -- ./inp_files/64161.got.cif
#   From: 2010.03.12/outbox.cif.g09.slc.cpg/sg65_33_cif.got.tgz:64161.got - 2010.04.10 20:52:16.
