data_PCOD8269039
_publ_section_title
;
Structure prediction by ZEFSAII (Michael W. Deem and Ramdas Pophale) SiO2 
 PCOD8269039
Probable space group: C M M M
;
_chemical_formula_sum "Si O2"
_cell_formula_units_Z 80
_cell_length_a 18.527264
_cell_length_b 20.269136
_cell_length_c 11.600926
_cell_angle_alpha 90.000000
_cell_angle_beta 90.000000
_cell_angle_gamma 90.000000
_cell_volume 4356.514693
_symmetry_space_group_name_H-M "C M M M"
_symmetry_group_IT_number 65
_symmetry_cell_setting 'orthorhombic'
loop_
_space_group_symop_operation_xyz
x,y,z
-x,-y,z
x,-y,-z
-x,y,-z
-x,-y,-z
x,y,-z
-x,y,z
x,-y,z
1/2+x,1/2+y,z
1/2-x,1/2-y,z
1/2+x,1/2-y,-z
1/2-x,1/2+y,-z
1/2-x,1/2-y,-z
1/2+x,1/2+y,-z
1/2-x,1/2+y,z
1/2+x,1/2-y,z
loop_
_atom_site_type_symbol
_atom_site_label
_atom_site_fract_x
_atom_site_fract_y
_atom_site_fract_z
Si Si1 0.785530 0.646639 0.000000
Si Si2 0.417420 0.261925 0.759617
Si Si3 0.847127 0.500000 0.372418
Si Si4 0.140987 0.788007 0.000000
Si Si5 0.665415 0.129079 0.243819
Si Si6 0.814146 0.141248 0.637149
Si Si7 0.323913 0.500000 0.374341
O O1 0.812702 0.608435 0.886464
O O2 0.816519 0.719899 0.000000
O O3 0.698384 0.651920 0.000000
O O4 0.500000 0.267320 0.721410
O O5 0.394430 0.185819 0.756541
O O6 0.370273 0.302278 0.668101
O O7 0.408270 0.292916 0.886660
O O8 0.882773 0.500000 0.500000
O O9 0.870866 0.434198 0.304358
O O10 0.761955 0.500000 0.384534
O O11 0.736433 0.157161 0.307890
O O12 0.803739 0.137235 0.500000
O O13 0.844217 0.069839 0.685935
O O14 0.360546 0.500000 0.500000
#
# Coordination Sequence:
#
# PCOD8269039 Si02
#       7
#     8  16   8   8  16  16   8
#     4   9  16  29  56  83 100 126 174 224 265 310
#     4  11  22  34  52  78 108 141 178 221 267 319
#     4   9  18  33  54  78 106 143 178 215 272 325
#     4   9  17  34  52  75 105 136 170 212 272 324
#     4  10  19  34  55  79 106 136 178 224 266 317
#     4  10  19  33  54  77 102 137 177 221 270 317
#     4   7  14  30  50  72  96 125 168 212 254 309
#
# _framework density 18.363302000000001
#
# number of rings (size 3 to 8) (size 9 to 14) (size 15 to 20)
#    0.000    2.400    2.000    2.700    0.000    3.200 
#    0.000    1.000    0.000    3.000    0.000    5.600 
#    0.000    0.000    0.000    0.000    0.000    0.000 
#
# Total GULP energy -495769.107041 kJ/mol
# GULP energy per Si atom -12394.227676 kJ/mol
# Density = 1.832151 g / cm^3
# Si number density = 18.363302 Si / 1000 Ang^3
#
#
#
# Elastic Constant Matrix: (Units=GPa)
#
#
# Indices 1 2 3 4 5 6 
#
# 1 54.0204 0.0633 5.9952 0.0000 0.0000 0.0000
# 2 0.0633 57.4081 18.9216 0.0000 0.0000 0.0000
# 3 5.9952 18.9216 101.3091 0.0000 0.0000 0.0000
# 4 0.0000 0.0000 0.0000 28.9174 0.0000 0.0000
# 5 0.0000 0.0000 0.0000 0.0000 11.5361 0.0000
# 6 0.0000 0.0000 0.0000 0.0000 0.0000 7.8761
#
#
#
# Elastic Compliance Matrix: (Units=1/GPa)
#
#
# Indices 1 2 3 4 5 6 
#
# 1 0.018641 0.000366 -0.001171 0.000000 0.000000 0.000000
# 2 0.000366 0.018569 -0.003490 0.000000 0.000000 0.000000
# 3 -0.001171 -0.003490 0.010592 0.000000 0.000000 0.000000
# 4 0.000000 0.000000 0.000000 0.034581 0.000000 0.000000
# 5 0.000000 0.000000 0.000000 0.000000 0.086685 0.000000
# 6 0.000000 0.000000 0.000000 0.000000 0.000000 0.126966
#
#
# Mechanical properties :
#
#
# Convention : Reuss Voigt Hill
#
# Bulk Modulus (GPa) = 25.50326 29.18864 27.34595
# Shear Modulus (GPa) = 15.73835 22.18309 18.96072
#
# Velocity S-wave (km/s) = 2.93073 3.47942 3.21679
# Velocity P-wave (km/s) = 5.03692 5.66316 5.35919
#
# Compressibility (1/GPa) = 0.03921068
#
# Stress axis : x y z
#
# Youngs Moduli (GPa) = 53.64489 53.85326 94.41181
#
# Poissons Ratio (x) = -0.01968 0.11059
# Poissons Ratio (y) = -0.01961 0.32948
# Poissons Ratio (z) = 0.06284 0.18794
#
# Static dielectric constant tensor:
#      x y z
#    x 2.944190 0.000000 0.000000 
#    y 0.000000 3.560140 0.000000 
#    z 0.000000 0.000000 3.558110 
# 
# 
# High freq. dielectric constant tensor:
#      x y z
#    x 1.668970 0.000000 0.000000 
#    y 0.000000 1.707670 0.000000 
#    z 0.000000 0.000000 1.716100 
# 
# From -- ./inp_files/26730.got.cif
#   From: 2010.03.12/outbox.cif.g09.slc.cpg/sg65_14_cif.got.tgz:26730.got - 2010.04.10 20:52:16.
