data_PCOD8269128
_publ_section_title
;
Structure prediction by ZEFSAII (Michael W. Deem and Ramdas Pophale) SiO2 
 PCOD8269128
Probable space group: C M M M
;
_chemical_formula_sum "Si O2"
_cell_formula_units_Z 72
_cell_length_a 8.705861
_cell_length_b 15.467293
_cell_length_c 28.148925
_cell_angle_alpha 90.000000
_cell_angle_beta 90.000000
_cell_angle_gamma 90.000000
_cell_volume 3790.424541
_symmetry_space_group_name_H-M "C M M M"
_symmetry_group_IT_number 65
_symmetry_cell_setting 'orthorhombic'
loop_
_space_group_symop_operation_xyz
x,y,z
-x,-y,z
x,-y,-z
-x,y,-z
-x,-y,-z
x,y,-z
-x,y,z
x,-y,z
1/2+x,1/2+y,z
1/2-x,1/2-y,z
1/2+x,1/2-y,-z
1/2-x,1/2+y,-z
1/2-x,1/2-y,-z
1/2+x,1/2+y,-z
1/2-x,1/2+y,z
1/2+x,1/2-y,z
loop_
_atom_site_type_symbol
_atom_site_label
_atom_site_fract_x
_atom_site_fract_y
_atom_site_fract_z
Si Si1 0.317392 0.659176 0.883906
Si Si2 0.320873 0.000000 0.715982
Si Si3 0.817537 0.000000 0.053240
Si Si4 0.681712 0.660554 0.445983
Si Si5 0.181489 0.340089 0.781634
Si Si6 0.181541 0.000000 0.386556
O O1 0.500000 0.664910 0.881827
O O2 0.250000 0.750000 0.902183
O O3 0.258754 0.585390 0.919748
O O4 0.255128 0.635923 0.831981
O O5 0.273637 0.084957 0.745131
O O6 0.500000 0.000000 0.704080
O O7 0.226786 0.000000 0.667912
O O8 0.000000 0.000000 0.051943
O O9 0.749396 0.000000 0.000000
O O10 0.735850 0.643208 0.500000
O O11 0.500000 0.665752 0.442947
O O12 0.750000 0.750000 0.426535
O O13 0.748330 0.584504 0.412912
O O14 0.250000 0.250000 0.762083
O O15 0.000000 0.331114 0.788173
O O16 0.000000 0.000000 0.391272
#
# Coordination Sequence:
#
# PCOD8269128 Si02
#       6
#    16   8   8  16  16   8
#     4  10  19  33  55  79 102 132 171 213 254 298
#     4  10  23  38  52  74 106 139 168 208 258 304
#     4   9  19  34  51  74 106 141 172 204 249 305
#     4   9  18  34  55  78 103 133 171 212 253 298
#     4  10  20  36  56  77 102 133 170 212 257 302
#     4  10  21  35  53  76 104 139 172 206 251 305
#
# _framework density 18.995234
#
# number of rings (size 3 to 8) (size 9 to 14) (size 15 to 20)
#    0.000    2.333    0.000    3.667    0.000    5.333 
#    0.000    6.111    0.000    8.000    0.000    0.000 
#    0.000    0.000    0.000    0.000    0.000    0.000 
#
# Total GULP energy -446456.715969 kJ/mol
# GULP energy per Si atom -12401.575444 kJ/mol
# Density = 1.895200 g / cm^3
# Si number density = 18.995234 Si / 1000 Ang^3
#
#
#
# Elastic Constant Matrix: (Units=GPa)
#
#
# Indices 1 2 3 4 5 6 
#
# 1 53.8367 42.8189 32.2432 0.0000 0.0000 0.0000
# 2 42.8189 192.6061 106.0911 0.0000 0.0000 0.0000
# 3 32.2432 106.0911 123.0470 0.0000 0.0000 0.0000
# 4 0.0000 0.0000 0.0000 19.3592 0.0000 0.0000
# 5 0.0000 0.0000 0.0000 0.0000 24.9470 0.0000
# 6 0.0000 0.0000 0.0000 0.0000 0.0000 26.6063
#
#
#
# Elastic Compliance Matrix: (Units=1/GPa)
#
#
# Indices 1 2 3 4 5 6 
#
# 1 0.023171 -0.003441 -0.003105 0.000000 0.000000 0.000000
# 2 -0.003441 0.010399 -0.008064 0.000000 0.000000 0.000000
# 3 -0.003105 -0.008064 0.015894 0.000000 0.000000 0.000000
# 4 0.000000 0.000000 0.000000 0.051655 0.000000 0.000000
# 5 0.000000 0.000000 0.000000 0.000000 0.040085 0.000000
# 6 0.000000 0.000000 0.000000 0.000000 0.000000 0.037585
#
#
# Mechanical properties :
#
#
# Convention : Reuss Voigt Hill
#
# Bulk Modulus (GPa) = 49.39931 81.31067 65.35499
# Shear Modulus (GPa) = 23.28222 26.73830 25.01026
#
# Velocity S-wave (km/s) = 3.50478 3.75591 3.63252
# Velocity P-wave (km/s) = 6.51464 7.85544 7.21625
#
# Compressibility (1/GPa) = 0.02024320
#
# Stress axis : x y z
#
# Youngs Moduli (GPa) = 43.15740 96.16476 62.91871
#
# Poissons Ratio (x) = 0.33090 0.19536
# Poissons Ratio (y) = 0.14850 0.50739
# Poissons Ratio (z) = 0.13400 0.77549
#
# Static dielectric constant tensor:
#      x y z
#    x 3.314730 0.000000 0.000000 
#    y 0.000000 3.815880 0.000000 
#    z 0.000000 0.000000 3.461670 
# 
# 
# High freq. dielectric constant tensor:
#      x y z
#    x 1.727010 0.000000 0.000000 
#    y 0.000000 1.756700 0.000000 
#    z 0.000000 0.000000 1.732240 
# 
# From -- ./inp_files/72635.got.cif
#   From: 2010.03.12/outbox.cif.g09.slc.cpg/sg65_37_cif.got.tgz:72635.got - 2010.04.10 20:52:16.
