data_PCOD8269423
_publ_section_title
;
Structure prediction by ZEFSAII (Michael W. Deem and Ramdas Pophale) SiO2 
 PCOD8269423
Probable space group: C M M M
;
_chemical_formula_sum "Si O2"
_cell_formula_units_Z 64
_cell_length_a 14.828843
_cell_length_b 8.583444
_cell_length_c 26.166184
_cell_angle_alpha 90.000000
_cell_angle_beta 90.000000
_cell_angle_gamma 90.000000
_cell_volume 3330.498453
_symmetry_space_group_name_H-M "C M M M"
_symmetry_group_IT_number 65
_symmetry_cell_setting 'orthorhombic'
loop_
_space_group_symop_operation_xyz
x,y,z
-x,-y,z
x,-y,-z
-x,y,-z
-x,-y,-z
x,y,-z
-x,y,z
x,-y,z
1/2+x,1/2+y,z
1/2-x,1/2-y,z
1/2+x,1/2-y,-z
1/2-x,1/2+y,-z
1/2-x,1/2-y,-z
1/2+x,1/2+y,-z
1/2-x,1/2+y,z
1/2+x,1/2-y,z
loop_
_atom_site_type_symbol
_atom_site_label
_atom_site_fract_x
_atom_site_fract_y
_atom_site_fract_z
Si Si1 0.151980 0.815596 0.240407
Si Si2 0.500000 0.182469 0.690794
Si Si3 0.500000 0.815166 0.943086
Si Si4 0.149381 0.817813 0.500000
Si Si5 0.152632 0.684776 0.867360
Si Si6 0.500000 0.684176 0.580271
O O1 0.250000 0.750000 0.252691
O O2 0.088055 0.760384 0.285494
O O3 0.116213 0.752285 0.186118
O O4 0.155434 0.000000 0.238162
O O5 0.500000 0.214067 0.630903
O O6 0.500000 0.000000 0.702099
O O7 0.412072 0.757794 0.912713
O O8 0.500000 0.000000 0.946415
O O9 0.500000 0.742057 0.000000
O O10 0.250000 0.750000 0.500000
O O11 0.090732 0.768329 0.549484
O O12 0.161827 0.000000 0.500000
O O13 0.155746 0.500000 0.862398
O O14 0.250000 0.750000 0.881128
O O15 0.500000 0.500000 0.592135
#
# Coordination Sequence:
#
# PCOD8269423 Si02
#       6
#    16   8   8   8  16   8
#     4  11  22  38  59  83 112 147 187 230 277 334
#     4  12  24  38  57  85 119 153 187 230 281 332
#     4   9  19  34  52  75 104 140 179 219 270 330
#     4   9  19  37  62  84 110 147 189 233 277 326
#     4  10  19  34  56  79 106 140 180 225 272 327
#     4   9  20  39  57  81 115 152 188 227 278 331
#
# _framework density 19.216342000000001
#
# number of rings (size 3 to 8) (size 9 to 14) (size 15 to 20)
#    0.000    1.875    0.000    7.125    0.000    3.500 
#    0.000    5.625    0.000    5.250    0.000    0.000 
#    0.000    0.000    0.000    0.000    0.000    0.000 
#
# Total GULP energy -396820.584274 kJ/mol
# GULP energy per Si atom -12400.643259 kJ/mol
# Density = 1.917260 g / cm^3
# Si number density = 19.216342 Si / 1000 Ang^3
#
#
#
# Elastic Constant Matrix: (Units=GPa)
#
#
# Indices 1 2 3 4 5 6 
#
# 1 140.0995 45.5548 87.3332 0.0000 0.0000 0.0000
# 2 45.5548 111.8774 45.0294 0.0000 0.0000 0.0000
# 3 87.3332 45.0294 153.5659 0.0000 0.0000 0.0000
# 4 0.0000 0.0000 0.0000 28.4634 0.0000 0.0000
# 5 0.0000 0.0000 0.0000 0.0000 13.6013 0.0000
# 6 0.0000 0.0000 0.0000 0.0000 0.0000 30.3531
#
#
#
# Elastic Compliance Matrix: (Units=1/GPa)
#
#
# Indices 1 2 3 4 5 6 
#
# 1 0.011574 -0.002340 -0.005896 0.000000 0.000000 0.000000
# 2 -0.002340 0.010607 -0.001780 0.000000 0.000000 0.000000
# 3 -0.005896 -0.001780 0.010387 0.000000 0.000000 0.000000
# 4 0.000000 0.000000 0.000000 0.035133 0.000000 0.000000
# 5 0.000000 0.000000 0.000000 0.000000 0.073523 0.000000
# 6 0.000000 0.000000 0.000000 0.000000 0.000000 0.032946
#
#
# Mechanical properties :
#
#
# Convention : Reuss Voigt Hill
#
# Bulk Modulus (GPa) = 79.76297 84.59753 82.18025
# Shear Modulus (GPa) = 25.20426 29.65859 27.43142
#
# Velocity S-wave (km/s) = 3.62554 3.93288 3.78233
# Velocity P-wave (km/s) = 7.68922 8.04629 7.86978
#
# Compressibility (1/GPa) = 0.01253715
#
# Stress axis : x y z
#
# Youngs Moduli (GPa) = 86.40093 94.27413 96.27556
#
# Poissons Ratio (x) = 0.22057 0.56765
# Poissons Ratio (y) = 0.20215 0.17135
# Poissons Ratio (z) = 0.50943 0.16779
#
# Static dielectric constant tensor:
#      x y z
#    x 4.903570 0.000000 0.000000 
#    y 0.000000 3.454690 0.000000 
#    z 0.000000 0.000000 3.647280 
# 
# 
# High freq. dielectric constant tensor:
#      x y z
#    x 1.759180 0.000000 0.000000 
#    y 0.000000 1.746440 0.000000 
#    z 0.000000 0.000000 1.749040 
# 
# From -- ./inp_files/69607.got.cif
#   From: 2010.03.12/outbox.cif.g09.slc.cpg/sg65_35_cif.got.tgz:69607.got - 2010.04.10 20:52:16.
