data_PCOD8269817
_publ_section_title
;
Structure prediction by ZEFSAII (Michael W. Deem and Ramdas Pophale) SiO2 
 PCOD8269817
Probable space group: C M M M
;
_chemical_formula_sum "Si O2"
_cell_formula_units_Z 88
_cell_length_a 9.183776
_cell_length_b 28.525304
_cell_length_c 21.093903
_cell_angle_alpha 90.000000
_cell_angle_beta 90.000000
_cell_angle_gamma 90.000000
_cell_volume 5525.969817
_symmetry_space_group_name_H-M "C M M M"
_symmetry_group_IT_number 65
_symmetry_cell_setting 'orthorhombic'
loop_
_space_group_symop_operation_xyz
x,y,z
-x,-y,z
x,-y,-z
-x,y,-z
-x,-y,-z
x,y,-z
-x,y,z
x,-y,z
1/2+x,1/2+y,z
1/2-x,1/2-y,z
1/2+x,1/2-y,-z
1/2-x,1/2+y,-z
1/2-x,1/2-y,-z
1/2+x,1/2+y,-z
1/2-x,1/2+y,z
1/2+x,1/2-y,z
loop_
_atom_site_type_symbol
_atom_site_label
_atom_site_fract_x
_atom_site_fract_y
_atom_site_fract_z
Si Si1 0.170937 0.200512 0.295642
Si Si2 0.837323 0.944755 0.000000
Si Si3 0.328887 0.365832 0.183076
Si Si4 0.831034 0.797229 0.071507
Si Si5 0.170539 0.554297 0.125864
Si Si6 0.331423 0.701607 0.566898
O O1 0.250000 0.250000 0.285500
O O2 0.225189 0.163221 0.244038
O O3 0.207666 0.177523 0.365452
O O4 0.000000 0.209935 0.286777
O O5 0.749512 0.928839 0.061698
O O6 0.000000 0.921661 0.000000
O O7 0.853457 0.000000 0.000000
O O8 0.500000 0.376962 0.186402
O O9 0.285209 0.337719 0.119789
O O10 0.239537 0.414628 0.182285
O O11 0.750000 0.750000 0.090987
O O12 0.000000 0.785742 0.077795
O O13 0.790058 0.813351 0.000000
O O14 0.201761 0.500000 0.141215
O O15 0.000000 0.563845 0.118618
O O16 0.294868 0.673643 0.500000
O O17 0.500000 0.713960 0.568077
O O18 0.250000 0.750000 0.564567
#
# Coordination Sequence:
#
# PCOD8269817 Si02
#       6
#    16   8  16  16  16  16
#     4   9  17  28  42  63  90 119 152 185 215 254
#     4   9  17  31  51  69  84 105 132 167 217 269
#     4  10  20  31  45  64  86 114 147 181 218 264
#     4   9  18  31  44  59  80 107 141 178 210 245
#     4  10  21  35  49  67  89 110 139 181 224 268
#     4   8  13  22  37  57  83 115 147 178 213 251
#
# _framework density 15.924806
#
# number of rings (size 3 to 8) (size 9 to 14) (size 15 to 20)
#    0.000    2.818    0.000    1.364    1.273    3.636 
#    0.000    0.000    0.000    0.000    0.000    0.000 
#    0.000    0.727    0.000    9.091    0.000    1.455 
#
# Total GULP energy -545134.626819 kJ/mol
# GULP energy per Si atom -12389.423337 kJ/mol
# Density = 1.588856 g / cm^3
# Si number density = 15.924806 Si / 1000 Ang^3
#
#
#
# Elastic Constant Matrix: (Units=GPa)
#
#
# Indices 1 2 3 4 5 6 
#
# 1 53.2182 36.4691 40.2322 0.0000 0.0000 0.0000
# 2 36.4691 70.2747 60.3856 0.0000 0.0000 0.0000
# 3 40.2322 60.3856 129.1337 0.0000 0.0000 0.0000
# 4 0.0000 0.0000 0.0000 3.0349 0.0000 0.0000
# 5 0.0000 0.0000 0.0000 0.0000 15.0187 0.0000
# 6 0.0000 0.0000 0.0000 0.0000 0.0000 24.0761
#
#
#
# Elastic Compliance Matrix: (Units=1/GPa)
#
#
# Indices 1 2 3 4 5 6 
#
# 1 0.030059 -0.012625 -0.003461 0.000000 0.000000 0.000000
# 2 -0.012625 0.029091 -0.009670 0.000000 0.000000 0.000000
# 3 -0.003461 -0.009670 0.013344 0.000000 0.000000 0.000000
# 4 0.000000 0.000000 0.000000 0.329504 0.000000 0.000000
# 5 0.000000 0.000000 0.000000 0.000000 0.066583 0.000000
# 6 0.000000 0.000000 0.000000 0.000000 0.000000 0.041535
#
#
# Mechanical properties :
#
#
# Convention : Reuss Voigt Hill
#
# Bulk Modulus (GPa) = 47.66139 58.53336 53.09738
# Shear Modulus (GPa) = 8.79317 16.12859 12.46088
#
# Velocity S-wave (km/s) = 2.35238 3.18590 2.80032
# Velocity P-wave (km/s) = 6.11328 7.09712 6.62350
#
# Compressibility (1/GPa) = 0.02098134
#
# Stress axis : x y z
#
# Youngs Moduli (GPa) = 33.26824 34.37503 74.93832
#
# Poissons Ratio (x) = 0.43397 0.25939
# Poissons Ratio (y) = 0.42000 0.72467
# Poissons Ratio (z) = 0.11515 0.33241
#
# Static dielectric constant tensor:
#      x y z
#    x 2.861340 0.000000 0.000000 
#    y 0.000000 2.767370 0.000000 
#    z 0.000000 0.000000 3.624340 
# 
# 
# High freq. dielectric constant tensor:
#      x y z
#    x 1.615880 0.000000 0.000000 
#    y 0.000000 1.572930 0.000000 
#    z 0.000000 0.000000 1.612740 
# 
# From -- ./inp_files/60301.got.cif
#   From: 2010.03.12/outbox.cif.g09.slc.cpg/sg65_31_cif.got.tgz:60301.got - 2010.04.10 20:52:16.
