data_PCOD8269084
_publ_section_title
;
Structure prediction by ZEFSAII (Michael W. Deem and Ramdas Pophale) SiO2 
 PCOD8269084
Probable space group: C M M M
;
_chemical_formula_sum "Si O2"
_cell_formula_units_Z 72
_cell_length_a 23.248002
_cell_length_b 17.619554
_cell_length_c 9.604223
_cell_angle_alpha 90.000000
_cell_angle_beta 90.000000
_cell_angle_gamma 90.000000
_cell_volume 3934.076318
_symmetry_space_group_name_H-M "C M M M"
_symmetry_group_IT_number 65
_symmetry_cell_setting 'orthorhombic'
loop_
_space_group_symop_operation_xyz
x,y,z
-x,-y,z
x,-y,-z
-x,y,-z
-x,-y,-z
x,y,-z
-x,y,z
x,-y,z
1/2+x,1/2+y,z
1/2-x,1/2-y,z
1/2+x,1/2-y,-z
1/2-x,1/2+y,-z
1/2-x,1/2-y,-z
1/2+x,1/2+y,-z
1/2-x,1/2+y,z
1/2+x,1/2-y,z
loop_
_atom_site_type_symbol
_atom_site_label
_atom_site_fract_x
_atom_site_fract_y
_atom_site_fract_z
Si Si1 0.749604 0.587329 0.840699
Si Si2 0.565961 0.724579 0.661458
Si Si3 0.128067 0.649538 0.836775
Si Si4 0.642481 0.414395 0.340142
Si Si5 0.564679 0.000000 0.165444
O O1 0.766265 0.500000 0.809044
O O2 0.804217 0.640124 0.807924
O O3 0.696796 0.615394 0.747393
O O4 0.730535 0.596720 0.000000
O O5 0.572102 0.747328 0.500000
O O6 0.500000 0.729544 0.710753
O O7 0.605284 0.778991 0.752879
O O8 0.587564 0.638756 0.687146
O O9 0.095924 0.575043 0.778658
O O10 0.115555 0.661682 0.000000
O O11 0.661708 0.411519 0.500000
O O12 0.625339 0.500000 0.295428
O O13 0.500000 0.000000 0.223022
O O14 0.567071 0.000000 0.000000
#
# Coordination Sequence:
#
# PCOD8269084 Si02
#       5
#    16  16  16  16   8
#     4   9  17  32  54  80 109 136 169 214 259 304
#     4  10  22  38  53  74 106 138 172 219 267 309
#     4  10  19  33  54  79 106 139 176 212 253 304
#     4   9  19  36  57  78 100 133 176 217 262 316
#     4   9  16  28  49  75 101 135 178 213 240 286
#
# _framework density 18.301628000000001
#
# number of rings (size 3 to 8) (size 9 to 14) (size 15 to 20)
#    0.000    2.556    1.111    0.667    0.000    4.444 
#    0.000    7.222    0.000    2.000    0.000    4.667 
#    0.000    0.000    0.000    0.000    0.000    0.000 
#
# Total GULP energy -446435.411701 kJ/mol
# GULP energy per Si atom -12400.983658 kJ/mol
# Density = 1.825997 g / cm^3
# Si number density = 18.301628 Si / 1000 Ang^3
#
#
#
# Elastic Constant Matrix: (Units=GPa)
#
#
# Indices 1 2 3 4 5 6 
#
# 1 86.5084 41.4649 41.4037 0.0000 0.0000 0.0000
# 2 41.4649 90.1067 37.4560 0.0000 0.0000 0.0000
# 3 41.4037 37.4560 53.1148 0.0000 0.0000 0.0000
# 4 0.0000 0.0000 0.0000 29.3322 0.0000 0.0000
# 5 0.0000 0.0000 0.0000 0.0000 27.5380 0.0000
# 6 0.0000 0.0000 0.0000 0.0000 0.0000 31.2968
#
#
#
# Elastic Compliance Matrix: (Units=1/GPa)
#
#
# Indices 1 2 3 4 5 6 
#
# 1 0.019279 -0.003713 -0.012409 0.000000 0.000000 0.000000
# 2 -0.003713 0.016415 -0.008682 0.000000 0.000000 0.000000
# 3 -0.012409 -0.008682 0.034623 0.000000 0.000000 0.000000
# 4 0.000000 0.000000 0.000000 0.034092 0.000000 0.000000
# 5 0.000000 0.000000 0.000000 0.000000 0.036313 0.000000
# 6 0.000000 0.000000 0.000000 0.000000 0.000000 0.031952
#
#
# Mechanical properties :
#
#
# Convention : Reuss Voigt Hill
#
# Bulk Modulus (GPa) = 48.28965 52.26433 50.27699
# Shear Modulus (GPa) = 21.81638 24.92709 23.37173
#
# Velocity S-wave (km/s) = 3.45635 3.69455 3.57743
# Velocity P-wave (km/s) = 6.50931 6.84243 6.67795
#
# Compressibility (1/GPa) = 0.02070837
#
# Stress axis : x y z
#
# Youngs Moduli (GPa) = 51.87095 60.91827 28.88283
#
# Poissons Ratio (x) = 0.22620 0.35842
# Poissons Ratio (y) = 0.19260 0.25075
# Poissons Ratio (z) = 0.64369 0.52887
#
# Static dielectric constant tensor:
#      x y z
#    x 3.420430 0.000000 0.000000 
#    y 0.000000 3.375400 0.000000 
#    z 0.000000 0.000000 3.234660 
# 
# 
# High freq. dielectric constant tensor:
#      x y z
#    x 1.712370 0.000000 0.000000 
#    y 0.000000 1.708880 0.000000 
#    z 0.000000 0.000000 1.690780 
# 
# From -- ./inp_files/7235.got.cif
#   From: 2010.03.12/outbox.cif.g09.slc.cpg/sg65_4_cif.got.tgz:7235.got - 2010.04.10 20:52:16.
