data_PCOD8269267
_publ_section_title
;
Structure prediction by ZEFSAII (Michael W. Deem and Ramdas Pophale) SiO2 
 PCOD8269267
Probable space group: C M M M
;
_chemical_formula_sum "Si O2"
_cell_formula_units_Z 72
_cell_length_a 10.429885
_cell_length_b 22.969876
_cell_length_c 15.574391
_cell_angle_alpha 90.000000
_cell_angle_beta 90.000000
_cell_angle_gamma 90.000000
_cell_volume 3731.206147
_symmetry_space_group_name_H-M "C M M M"
_symmetry_group_IT_number 65
_symmetry_cell_setting 'orthorhombic'
loop_
_space_group_symop_operation_xyz
x,y,z
-x,-y,z
x,-y,-z
-x,y,-z
-x,-y,-z
x,y,-z
-x,y,z
x,-y,z
1/2+x,1/2+y,z
1/2-x,1/2-y,z
1/2+x,1/2-y,-z
1/2-x,1/2+y,-z
1/2-x,1/2-y,-z
1/2+x,1/2+y,-z
1/2-x,1/2+y,z
1/2+x,1/2-y,z
loop_
_atom_site_type_symbol
_atom_site_label
_atom_site_fract_x
_atom_site_fract_y
_atom_site_fract_z
Si Si1 0.239881 0.000000 0.097029
Si Si2 0.861777 0.705697 0.000000
Si Si3 0.142655 0.382885 0.849541
Si Si4 0.500000 0.307003 0.602577
Si Si5 0.646098 0.500000 0.286452
Si Si6 0.000000 0.326280 0.399370
Si Si7 0.741692 0.623796 0.324677
O O1 0.327673 0.943293 0.103499
O O2 0.147478 0.000000 0.181208
O O3 0.174553 0.000000 0.000000
O O4 0.750000 0.750000 0.000000
O O5 0.848412 0.667714 0.083374
O O6 0.000000 0.737726 0.000000
O O7 0.243061 0.364267 0.776535
O O8 0.000000 0.387441 0.809309
O O9 0.500000 0.311565 0.500000
O O10 0.500000 0.240256 0.635967
O O11 0.626217 0.338057 0.638707
O O12 0.500000 0.500000 0.315464
O O13 0.714495 0.554916 0.331336
O O14 0.127075 0.360735 0.372397
O O15 0.000000 0.322044 0.500000
#
# Coordination Sequence:
#
# PCOD8269267 Si02
#       7
#     8   8  16   8   8   8  16
#     4  10  19  33  64  93 118 157 210 263 312 357
#     4  10  22  39  55  81 123 164 209 252 294 365
#     4  10  20  37  60  90 123 160 206 254 310 365
#     4  11  24  43  69  96 125 167 212 263 319 379
#     4  10  22  41  63  91 130 167 206 257 318 390
#     4  11  24  43  67  96 125 159 214 271 313 371
#     4  11  22  42  66  93 130 165 207 260 319 382
#
# _framework density 19.296710000000001
#
# number of rings (size 3 to 8) (size 9 to 14) (size 15 to 20)
#    0.000    1.556    3.333    1.667    0.000    4.667 
#    2.000    3.333    0.000    0.000    0.000    0.000 
#    0.000    0.000    0.000    0.000    0.000    0.000 
#
# Total GULP energy -446180.212850 kJ/mol
# GULP energy per Si atom -12393.894801 kJ/mol
# Density = 1.925279 g / cm^3
# Si number density = 19.296710 Si / 1000 Ang^3
#
#
#
# Elastic Constant Matrix: (Units=GPa)
#
#
# Indices 1 2 3 4 5 6 
#
# 1 160.7887 88.6392 46.0444 0.0000 0.0000 0.0000
# 2 88.6392 139.8114 46.4207 0.0000 0.0000 0.0000
# 3 46.0444 46.4207 80.8123 0.0000 0.0000 0.0000
# 4 0.0000 0.0000 0.0000 -14.3980 0.0000 0.0000
# 5 0.0000 0.0000 0.0000 0.0000 28.9451 0.0000
# 6 0.0000 0.0000 0.0000 0.0000 0.0000 20.4472
#
#
#
# Elastic Compliance Matrix: (Units=1/GPa)
#
#
# Indices 1 2 3 4 5 6 
#
# 1 0.009963 -0.005476 -0.002531 0.000000 0.000000 0.000000
# 2 -0.005476 0.011848 -0.003686 0.000000 0.000000 0.000000
# 3 -0.002531 -0.003686 0.015934 0.000000 0.000000 0.000000
# 4 0.000000 0.000000 0.000000 -0.069454 0.000000 0.000000
# 5 0.000000 0.000000 0.000000 0.000000 0.034548 0.000000
# 6 0.000000 0.000000 0.000000 0.000000 0.000000 0.048906
#
#
# Mechanical properties :
#
#
# Convention : Reuss Voigt Hill
#
# Bulk Modulus (GPa) = 69.64258 82.62456 76.13357
# Shear Modulus (GPa) = 62.56486 20.35272 41.45879
#
# Velocity S-wave (km/s) = 5.70026 3.25118 4.64021
# Velocity P-wave (km/s) = 8.91587 7.55013 8.26127
#
# Compressibility (1/GPa) = 0.01435903
#
# Stress axis : x y z
#
# Youngs Moduli (GPa) = 100.37154 84.40215 62.76040
#
# Poissons Ratio (x) = 0.46219 0.15885
# Poissons Ratio (y) = 0.54964 0.23132
# Poissons Ratio (z) = 0.25404 0.31108
#
# Static dielectric constant tensor:
#      x y z
#    x 3.729680 0.000000 0.000000 
#    y 0.000000 4.241660 0.000000 
#    z 0.000000 0.000000 3.632140 
# 
# 
# High freq. dielectric constant tensor:
#      x y z
#    x 1.753770 0.000000 0.000000 
#    y 0.000000 1.758150 0.000000 
#    z 0.000000 0.000000 1.757320 
# 
# From -- ./inp_files/36752.got.cif
#   From: 2010.03.12/outbox.cif.g09.slc.cpg/sg65_19_cif.got.tgz:36752.got - 2010.04.10 20:52:16.
