data_PCOD8269129
_publ_section_title
;
Structure prediction by ZEFSAII (Michael W. Deem and Ramdas Pophale) SiO2 
 PCOD8269129
Probable space group: C M M M
;
_chemical_formula_sum "Si O2"
_cell_formula_units_Z 88
_cell_length_a 21.592432
_cell_length_b 23.688113
_cell_length_c 9.530669
_cell_angle_alpha 90.000000
_cell_angle_beta 90.000000
_cell_angle_gamma 90.000000
_cell_volume 4874.784409
_symmetry_space_group_name_H-M "C M M M"
_symmetry_group_IT_number 65
_symmetry_cell_setting 'orthorhombic'
loop_
_space_group_symop_operation_xyz
x,y,z
-x,-y,z
x,-y,-z
-x,y,-z
-x,-y,-z
x,y,-z
-x,y,z
x,-y,z
1/2+x,1/2+y,z
1/2-x,1/2-y,z
1/2+x,1/2-y,-z
1/2-x,1/2+y,-z
1/2-x,1/2-y,-z
1/2+x,1/2+y,-z
1/2-x,1/2+y,z
1/2+x,1/2-y,z
loop_
_atom_site_type_symbol
_atom_site_label
_atom_site_fract_x
_atom_site_fract_y
_atom_site_fract_z
Si Si1 0.430453 0.933424 0.843316
Si Si2 0.432339 0.241600 0.343809
Si Si3 0.403295 0.655714 0.162989
Si Si4 0.154026 0.641136 0.333477
Si Si5 0.500000 0.436700 0.834733
Si Si6 0.237742 0.815539 0.162850
O O1 0.500000 0.913536 0.804885
O O2 0.382513 0.911947 0.727595
O O3 0.426562 0.000000 0.841046
O O4 0.413320 0.911288 0.000000
O O5 0.413235 0.261455 0.500000
O O6 0.500000 0.212512 0.345952
O O7 0.437224 0.294897 0.244258
O O8 0.382984 0.196993 0.287294
O O9 0.436866 0.597034 0.210073
O O10 0.330508 0.660639 0.196958
O O11 0.415550 0.666007 0.000000
O O12 0.160788 0.634504 0.500000
O O13 0.220587 0.644880 0.260773
O O14 0.500000 0.500000 0.766659
O O15 0.500000 0.443665 0.000000
O O16 0.250000 0.750000 0.203640
O O17 0.254390 0.824633 0.000000
#
# Coordination Sequence:
#
# PCOD8269129 Si02
#       6
#    16  16  16  16   8  16
#     4   9  19  37  59  81 107 142 184 229 274 319
#     4  10  20  32  48  75 110 141 172 217 270 323
#     4  10  19  33  55  79 102 135 178 223 274 328
#     4  11  22  34  52  79 113 149 184 221 269 331
#     4   9  18  34  57  83 107 131 172 229 278 323
#     4  10  20  34  52  77 111 145 181 226 273 329
#
# _framework density 18.052081000000001
#
# number of rings (size 3 to 8) (size 9 to 14) (size 15 to 20)
#    0.000    2.091    2.727    1.636    0.000    3.273 
#    0.000    1.818    0.000    4.364    0.000    0.000 
#    0.000    0.000    0.000    0.000    0.000    0.000 
#
# Total GULP energy -545374.526771 kJ/mol
# GULP energy per Si atom -12394.875608 kJ/mol
# Density = 1.801099 g / cm^3
# Si number density = 18.052081 Si / 1000 Ang^3
#
#
#
# Elastic Constant Matrix: (Units=GPa)
#
#
# Indices 1 2 3 4 5 6 
#
# 1 127.3160 48.6196 48.0678 0.0000 0.0000 0.0000
# 2 48.6196 76.7050 30.2764 0.0000 0.0000 0.0000
# 3 48.0678 30.2764 65.2875 0.0000 0.0000 0.0000
# 4 0.0000 0.0000 0.0000 19.7978 0.0000 0.0000
# 5 0.0000 0.0000 0.0000 0.0000 20.3993 0.0000
# 6 0.0000 0.0000 0.0000 0.0000 0.0000 20.4430
#
#
#
# Elastic Compliance Matrix: (Units=1/GPa)
#
#
# Indices 1 2 3 4 5 6 
#
# 1 0.012366 -0.005196 -0.006695 0.000000 0.000000 0.000000
# 2 -0.005196 0.018141 -0.004587 0.000000 0.000000 0.000000
# 3 -0.006695 -0.004587 0.022374 0.000000 0.000000 0.000000
# 4 0.000000 0.000000 0.000000 0.050511 0.000000 0.000000
# 5 0.000000 0.000000 0.000000 0.000000 0.049021 0.000000
# 6 0.000000 0.000000 0.000000 0.000000 0.000000 0.048916
#
#
# Mechanical properties :
#
#
# Convention : Reuss Voigt Hill
#
# Bulk Modulus (GPa) = 50.19010 58.13735 54.16373
# Shear Modulus (GPa) = 20.75315 21.61769 21.18542
#
# Velocity S-wave (km/s) = 3.39429 3.46427 3.42946
# Velocity P-wave (km/s) = 6.57457 6.94815 6.76394
#
# Compressibility (1/GPa) = 0.01992425
#
# Stress axis : x y z
#
# Youngs Moduli (GPa) = 80.86423 55.12390 44.69565
#
# Poissons Ratio (x) = 0.28641 0.29925
# Poissons Ratio (y) = 0.42015 0.20503
# Poissons Ratio (z) = 0.54141 0.25287
#
# Static dielectric constant tensor:
#      x y z
#    x 3.511250 0.000000 0.000000 
#    y 0.000000 3.228030 0.000000 
#    z 0.000000 0.000000 3.292690 
# 
# 
# High freq. dielectric constant tensor:
#      x y z
#    x 1.708210 0.000000 0.000000 
#    y 0.000000 1.676200 0.000000 
#    z 0.000000 0.000000 1.691880 
# 
# From -- ./inp_files/11747.got.cif
#   From: 2010.03.12/outbox.cif.g09.slc.cpg/sg65_6_cif.got.tgz:11747.got - 2010.04.10 20:52:16.
