data_PCOD8269930
_publ_section_title
;
Structure prediction by ZEFSAII (Michael W. Deem and Ramdas Pophale) SiO2 
 PCOD8269930
Probable space group: C M M M
;
_chemical_formula_sum "Si O2"
_cell_formula_units_Z 88
_cell_length_a 30.354293
_cell_length_b 19.574585
_cell_length_c 8.746400
_cell_angle_alpha 90.000000
_cell_angle_beta 90.000000
_cell_angle_gamma 90.000000
_cell_volume 5196.872002
_symmetry_space_group_name_H-M "C M M M"
_symmetry_group_IT_number 65
_symmetry_cell_setting 'orthorhombic'
loop_
_space_group_symop_operation_xyz
x,y,z
-x,-y,z
x,-y,-z
-x,y,-z
-x,-y,-z
x,y,-z
-x,y,z
x,-y,z
1/2+x,1/2+y,z
1/2-x,1/2-y,z
1/2+x,1/2-y,-z
1/2-x,1/2+y,-z
1/2-x,1/2-y,-z
1/2+x,1/2+y,-z
1/2-x,1/2+y,z
1/2+x,1/2-y,z
loop_
_atom_site_type_symbol
_atom_site_label
_atom_site_fract_x
_atom_site_fract_y
_atom_site_fract_z
Si Si1 0.171840 0.076445 0.674585
Si Si2 0.735524 0.075094 0.175245
Si Si3 0.706881 0.206627 0.678485
Si Si4 0.864949 0.796491 0.824930
Si Si5 0.447692 0.500000 0.329216
Si Si6 0.049051 0.861375 0.821784
O O1 0.166275 0.102567 0.500000
O O2 0.223307 0.076694 0.711898
O O3 0.148988 0.125668 0.795342
O O4 0.152028 0.000000 0.693364
O O5 0.703250 0.135459 0.229766
O O6 0.712606 0.000000 0.189132
O O7 0.749985 0.088109 0.000000
O O8 0.709174 0.191300 0.500000
O O9 0.750000 0.250000 0.731086
O O10 0.661801 0.246482 0.714690
O O11 0.917773 0.797403 0.789695
O O12 0.855139 0.776518 0.000000
O O13 0.500000 0.500000 0.320226
O O14 0.429135 0.500000 0.500000
O O15 0.430842 0.430007 0.253300
O O16 0.000000 0.843133 0.758477
O O17 0.046601 0.876813 0.000000
#
# Coordination Sequence:
#
# PCOD8269930 Si02
#       6
#    16  16  16  16   8  16
#     4  10  20  32  45  65  95 129 164 204 246 289
#     4  10  20  34  53  74  96 126 164 204 240 282
#     4  11  22  35  51  72 100 133 163 198 243 289
#     4  11  22  33  50  71  92 126 166 207 248 289
#     4   9  17  29  47  69  91 121 161 205 251 291
#     4   9  19  35  50  66  91 123 161 204 250 295
#
# _framework density 16.933261999999999
#
# number of rings (size 3 to 8) (size 9 to 14) (size 15 to 20)
#    0.000    1.909    1.818    2.455    1.273    5.455 
#    0.000    0.000    0.000    0.000    0.000    0.000 
#    0.000    0.727    0.000    8.364    0.000    2.364 
#
# Total GULP energy -545404.432776 kJ/mol
# GULP energy per Si atom -12395.555290 kJ/mol
# Density = 1.689472 g / cm^3
# Si number density = 16.933262 Si / 1000 Ang^3
#
#
#
# Elastic Constant Matrix: (Units=GPa)
#
#
# Indices 1 2 3 4 5 6 
#
# 1 61.3569 34.3765 15.3509 0.0000 0.0000 0.0000
# 2 34.3765 83.4526 26.6458 0.0000 0.0000 0.0000
# 3 15.3509 26.6458 54.7436 0.0000 0.0000 0.0000
# 4 0.0000 0.0000 0.0000 25.2628 0.0000 0.0000
# 5 0.0000 0.0000 0.0000 0.0000 16.1876 0.0000
# 6 0.0000 0.0000 0.0000 0.0000 0.0000 24.6649
#
#
#
# Elastic Compliance Matrix: (Units=1/GPa)
#
#
# Indices 1 2 3 4 5 6 
#
# 1 0.021376 -0.008159 -0.002022 0.000000 0.000000 0.000000
# 2 -0.008159 0.017302 -0.006134 0.000000 0.000000 0.000000
# 3 -0.002022 -0.006134 0.021820 0.000000 0.000000 0.000000
# 4 0.000000 0.000000 0.000000 0.039584 0.000000 0.000000
# 5 0.000000 0.000000 0.000000 0.000000 0.061776 0.000000
# 6 0.000000 0.000000 0.000000 0.000000 0.000000 0.040543
#
#
# Mechanical properties :
#
#
# Convention : Reuss Voigt Hill
#
# Bulk Modulus (GPa) = 35.88567 39.14441 37.51504
# Shear Modulus (GPa) = 20.46490 21.43505 20.94998
#
# Velocity S-wave (km/s) = 3.48021 3.56175 3.52121
# Velocity P-wave (km/s) = 6.11454 6.33102 6.22372
#
# Compressibility (1/GPa) = 0.02786628
#
# Stress axis : x y z
#
# Youngs Moduli (GPa) = 46.78233 57.79533 45.83031
#
# Poissons Ratio (x) = 0.47158 0.09269
# Poissons Ratio (y) = 0.38172 0.28111
# Poissons Ratio (z) = 0.09462 0.35450
#
# Static dielectric constant tensor:
#      x y z
#    x 3.201770 0.000000 0.000000 
#    y 0.000000 3.147220 0.000000 
#    z 0.000000 0.000000 3.187640 
# 
# 
# High freq. dielectric constant tensor:
#      x y z
#    x 1.632240 0.000000 0.000000 
#    y 0.000000 1.624820 0.000000 
#    z 0.000000 0.000000 1.665160 
# 
# From -- ./inp_files/12670.got.cif
#   From: 2010.03.12/outbox.cif.g09.slc.cpg/sg65_7_cif.got.tgz:12670.got - 2010.04.10 20:52:16.
