data_PCOD8269731
_publ_section_title
;
Structure prediction by ZEFSAII (Michael W. Deem and Ramdas Pophale) SiO2 
 PCOD8269731
Probable space group: C M M M
;
_chemical_formula_sum "Si O2"
_cell_formula_units_Z 112
_cell_length_a 35.895528
_cell_length_b 14.218423
_cell_length_c 12.963934
_cell_angle_alpha 90.000000
_cell_angle_beta 90.000000
_cell_angle_gamma 90.000000
_cell_volume 6616.504126
_symmetry_space_group_name_H-M "C M M M"
_symmetry_group_IT_number 65
_symmetry_cell_setting 'orthorhombic'
loop_
_space_group_symop_operation_xyz
x,y,z
-x,-y,z
x,-y,-z
-x,y,-z
-x,-y,-z
x,y,-z
-x,y,z
x,-y,z
1/2+x,1/2+y,z
1/2-x,1/2-y,z
1/2+x,1/2-y,-z
1/2-x,1/2+y,-z
1/2-x,1/2-y,-z
1/2+x,1/2+y,-z
1/2-x,1/2+y,z
1/2+x,1/2-y,z
loop_
_atom_site_type_symbol
_atom_site_label
_atom_site_fract_x
_atom_site_fract_y
_atom_site_fract_z
Si Si1 0.456492 0.892580 0.117925
Si Si2 0.408740 0.758563 0.739010
Si Si3 0.805125 0.392936 0.197692
Si Si4 0.844063 0.224312 0.116955
Si Si5 0.956930 0.107342 0.619734
Si Si6 0.356178 0.892785 0.382641
Si Si7 0.226536 0.891094 0.119029
O O1 0.500000 0.877917 0.137569
O O2 0.434599 0.824262 0.192508
O O3 0.445152 0.000000 0.141961
O O4 0.446290 0.867739 0.000000
O O5 0.379458 0.704223 0.811688
O O6 0.432417 0.678100 0.685451
O O7 0.388584 0.822973 0.654055
O O8 0.808728 0.500000 0.159605
O O9 0.832494 0.333878 0.123775
O O10 0.818453 0.379580 0.315805
O O11 0.762365 0.359453 0.185859
O O12 0.809488 0.163782 0.160210
O O13 0.853961 0.196706 0.000000
O O14 0.948694 0.125081 0.500000
O O15 0.000000 0.127093 0.644516
O O16 0.946764 0.000000 0.649228
O O17 0.345701 0.868503 0.500000
O O18 0.370807 0.000000 0.371995
O O19 0.217716 0.000000 0.133636
O O20 0.234803 0.865602 0.000000
#
# Coordination Sequence:
#
# PCOD8269731 Si02
#       7
#    16  16  16  16  16  16  16
#     4   9  18  32  49  71 101 134 164 193 226 271
#     4  11  19  30  50  73  97 126 159 190 232 286
#     4   9  17  29  47  67  87 119 160 195 227 268
#     4  10  20  30  43  68  99 125 150 185 229 276
#     4   9  19  36  56  75  92 115 155 205 249 284
#     4   9  18  31  46  68  98 126 152 187 233 283
#     4   9  17  30  47  65  87 117 154 194 232 269
#
# _framework density 16.927368000000001
#
# number of rings (size 3 to 8) (size 9 to 14) (size 15 to 20)
#    0.000    2.571    0.000    3.429    0.000    3.143 
#    0.000    0.000    0.000    9.000    0.000   13.000 
#    0.000    0.000    0.000    0.000    0.000    0.000 
#
# Total GULP energy -694349.838707 kJ/mol
# GULP energy per Si atom -12399.104263 kJ/mol
# Density = 1.688884 g / cm^3
# Si number density = 16.927368 Si / 1000 Ang^3
#
#
#
# Elastic Constant Matrix: (Units=GPa)
#
#
# Indices 1 2 3 4 5 6 
#
# 1 115.8221 70.3217 70.4375 0.0000 0.0000 0.0000
# 2 70.3217 87.4966 57.8741 0.0000 0.0000 0.0000
# 3 70.4375 57.8741 98.8306 0.0000 0.0000 0.0000
# 4 0.0000 0.0000 0.0000 26.1409 0.0000 0.0000
# 5 0.0000 0.0000 0.0000 0.0000 28.4870 0.0000
# 6 0.0000 0.0000 0.0000 0.0000 0.0000 29.9187
#
#
#
# Elastic Compliance Matrix: (Units=1/GPa)
#
#
# Indices 1 2 3 4 5 6 
#
# 1 0.020059 -0.010880 -0.007926 0.000000 0.000000 0.000000
# 2 -0.010880 0.024555 -0.006625 0.000000 0.000000 0.000000
# 3 -0.007926 -0.006625 0.019647 0.000000 0.000000 0.000000
# 4 0.000000 0.000000 0.000000 0.038254 0.000000 0.000000
# 5 0.000000 0.000000 0.000000 0.000000 0.035104 0.000000
# 6 0.000000 0.000000 0.000000 0.000000 0.000000 0.033424
#
#
# Mechanical properties :
#
#
# Convention : Reuss Voigt Hill
#
# Bulk Modulus (GPa) = 74.62453 77.71288 76.16870
# Shear Modulus (GPa) = 22.08760 23.81038 22.94899
#
# Velocity S-wave (km/s) = 3.61618 3.75456 3.68602
# Velocity P-wave (km/s) = 7.84962 8.05015 7.95052
#
# Compressibility (1/GPa) = 0.01340042
#
# Stress axis : x y z
#
# Youngs Moduli (GPa) = 49.85169 40.72437 50.89917
#
# Poissons Ratio (x) = 0.44307 0.40341
# Poissons Ratio (y) = 0.54237 0.33722
# Poissons Ratio (z) = 0.39510 0.26981
#
# Static dielectric constant tensor:
#      x y z
#    x 3.189400 0.000000 0.000000 
#    y 0.000000 3.180540 0.000000 
#    z 0.000000 0.000000 3.084880 
# 
# 
# High freq. dielectric constant tensor:
#      x y z
#    x 1.652700 0.000000 0.000000 
#    y 0.000000 1.654830 0.000000 
#    z 0.000000 0.000000 1.640250 
# 
# From -- ./inp_files/33959.got.cif
#   From: 2010.03.12/outbox.cif.g09.slc.cpg/sg65_17_cif.got.tgz:33959.got - 2010.04.10 20:52:16.
