data_PCOD8269973
_publ_section_title
;
Structure prediction by ZEFSAII (Michael W. Deem and Ramdas Pophale) SiO2 
 PCOD8269973
Probable space group: C M M M
;
_chemical_formula_sum "Si O2"
_cell_formula_units_Z 112
_cell_length_a 9.853831
_cell_length_b 18.653248
_cell_length_c 35.771447
_cell_angle_alpha 90.000000
_cell_angle_beta 90.000000
_cell_angle_gamma 90.000000
_cell_volume 6575.004920
_symmetry_space_group_name_H-M "C M M M"
_symmetry_group_IT_number 65
_symmetry_cell_setting 'orthorhombic'
loop_
_space_group_symop_operation_xyz
x,y,z
-x,-y,z
x,-y,-z
-x,y,-z
-x,-y,-z
x,y,-z
-x,y,z
x,-y,z
1/2+x,1/2+y,z
1/2-x,1/2-y,z
1/2+x,1/2-y,-z
1/2-x,1/2+y,-z
1/2-x,1/2-y,-z
1/2+x,1/2+y,-z
1/2-x,1/2+y,z
1/2+x,1/2-y,z
loop_
_atom_site_type_symbol
_atom_site_label
_atom_site_fract_x
_atom_site_fract_y
_atom_site_fract_z
Si Si1 0.844508 0.082833 0.609028
Si Si2 0.652124 0.085163 0.756159
Si Si3 0.347374 0.914805 0.326589
Si Si4 0.659178 0.680171 0.107743
Si Si5 0.844727 0.917276 0.821017
Si Si6 0.844402 0.815615 0.457691
Si Si7 0.839084 0.920179 0.958260
O O1 0.754407 0.116953 0.642345
O O2 0.809122 0.119383 0.569744
O O3 0.000000 0.094918 0.620599
O O4 0.809898 0.000000 0.603169
O O5 0.500000 0.110867 0.766220
O O6 0.692895 0.113830 0.714811
O O7 0.754993 0.115108 0.787254
O O8 0.658872 0.000000 0.755747
O O9 0.500000 0.890218 0.336533
O O10 0.337396 0.000000 0.326455
O O11 0.500000 0.700766 0.104563
O O12 0.750000 0.750000 0.112969
O O13 0.686051 0.627975 0.142295
O O14 0.714022 0.638541 0.071053
O O15 0.000000 0.909918 0.808393
O O16 0.808258 0.000000 0.829752
O O17 0.814406 0.841397 0.500000
O O18 0.750000 0.750000 0.446233
O O19 0.000000 0.790886 0.453342
O O20 0.000000 0.923443 0.955683
O O21 0.782263 0.000000 0.948904
O O22 0.792555 0.897360 0.000000
#
# Coordination Sequence:
#
# PCOD8269973 Si02
#       7
#    16  16  16  16  16  16  16
#     4   9  17  28  44  68  94 118 146 182 223 265
#     4   8  14  25  42  65  91 117 146 181 222 268
#     4   8  14  25  41  63  92 121 145 174 218 269
#     4  10  20  32  46  67  95 124 153 186 226 271
#     4   9  17  29  46  67  89 115 150 191 228 260
#     4   9  18  32  48  65  87 117 151 185 221 262
#     4   8  14  27  49  73  93 117 153 193 227 262
#
# _framework density 17.034209000000001
#
# number of rings (size 3 to 8) (size 9 to 14) (size 15 to 20)
#    0.000    3.286    0.000    1.714    0.000    4.000 
#    0.000    4.286    0.000    2.143    0.000    5.000 
#    0.000    0.000    0.000    0.000    0.000    0.000 
#
# Total GULP energy -694105.134644 kJ/mol
# GULP energy per Si atom -12394.734547 kJ/mol
# Density = 1.699544 g / cm^3
# Si number density = 17.034209 Si / 1000 Ang^3
#
#
#
# Elastic Constant Matrix: (Units=GPa)
#
#
# Indices 1 2 3 4 5 6 
#
# 1 75.8022 43.2099 75.2295 0.0000 0.0000 0.0000
# 2 43.2099 59.8706 54.7911 0.0000 0.0000 0.0000
# 3 75.2295 54.7911 142.7233 0.0000 0.0000 0.0000
# 4 0.0000 0.0000 0.0000 4.1089 0.0000 0.0000
# 5 0.0000 0.0000 0.0000 0.0000 23.7853 0.0000
# 6 0.0000 0.0000 0.0000 0.0000 0.0000 21.0367
#
#
#
# Elastic Compliance Matrix: (Units=1/GPa)
#
#
# Indices 1 2 3 4 5 6 
#
# 1 0.032403 -0.011956 -0.012490 0.000000 0.000000 0.000000
# 2 -0.011956 0.030160 -0.005277 0.000000 0.000000 0.000000
# 3 -0.012490 -0.005277 0.015616 0.000000 0.000000 0.000000
# 4 0.000000 0.000000 0.000000 0.243373 0.000000 0.000000
# 5 0.000000 0.000000 0.000000 0.000000 0.042043 0.000000
# 6 0.000000 0.000000 0.000000 0.000000 0.000000 0.047536
#
#
# Mechanical properties :
#
#
# Convention : Reuss Voigt Hill
#
# Bulk Modulus (GPa) = 53.37725 69.42857 61.40291
# Shear Modulus (GPa) = 10.48614 16.79722 13.64168
#
# Velocity S-wave (km/s) = 2.48381 3.14361 2.83298
# Velocity P-wave (km/s) = 6.29516 7.35005 6.84296
#
# Compressibility (1/GPa) = 0.01873457
#
# Stress axis : x y z
#
# Youngs Moduli (GPa) = 30.86158 33.15613 64.03853
#
# Poissons Ratio (x) = 0.39640 0.79983
# Poissons Ratio (y) = 0.36897 0.33791
# Poissons Ratio (z) = 0.38545 0.17495
#
# Static dielectric constant tensor:
#      x y z
#    x 3.165090 0.000000 0.000000 
#    y 0.000000 2.884810 0.000000 
#    z 0.000000 0.000000 3.548290 
# 
# 
# High freq. dielectric constant tensor:
#      x y z
#    x 1.642070 0.000000 0.000000 
#    y 0.000000 1.618960 0.000000 
#    z 0.000000 0.000000 1.671050 
# 
# From -- ./inp_files/77447.got.cif
#   From: 2010.03.12/outbox.cif.g09.slc.cpg/sg65_39_cif.got.tgz:77447.got - 2010.04.10 20:52:16.
