data_PCOD8269155
_publ_section_title
;
Structure prediction by ZEFSAII (Michael W. Deem and Ramdas Pophale) SiO2 
 PCOD8269155
Probable space group: C M M M
;
_chemical_formula_sum "Si O2"
_cell_formula_units_Z 72
_cell_length_a 9.025953
_cell_length_b 24.920917
_cell_length_c 17.124649
_cell_angle_alpha 90.000000
_cell_angle_beta 90.000000
_cell_angle_gamma 90.000000
_cell_volume 3851.933361
_symmetry_space_group_name_H-M "C M M M"
_symmetry_group_IT_number 65
_symmetry_cell_setting 'orthorhombic'
loop_
_space_group_symop_operation_xyz
x,y,z
-x,-y,z
x,-y,-z
-x,y,-z
-x,-y,-z
x,y,-z
-x,y,z
x,-y,z
1/2+x,1/2+y,z
1/2-x,1/2-y,z
1/2+x,1/2-y,-z
1/2-x,1/2+y,-z
1/2-x,1/2-y,-z
1/2+x,1/2+y,-z
1/2-x,1/2+y,z
1/2+x,1/2-y,z
loop_
_atom_site_type_symbol
_atom_site_label
_atom_site_fract_x
_atom_site_fract_y
_atom_site_fract_z
Si Si1 0.832633 0.500000 0.807126
Si Si2 0.328988 0.193710 0.088797
Si Si3 0.327308 0.393544 0.374582
Si Si4 0.834104 0.500000 0.378200
Si Si5 0.673766 0.692508 0.500000
Si Si6 0.825634 0.893133 0.194025
O O1 0.831871 0.500000 0.714513
O O2 0.746212 0.447962 0.837635
O O3 0.000000 0.500000 0.840228
O O4 0.500000 0.198919 0.113770
O O5 0.250000 0.250000 0.098786
O O6 0.245219 0.154148 0.145634
O O7 0.314984 0.172967 0.000000
O O8 0.500000 0.404913 0.385565
O O9 0.246156 0.446262 0.408362
O O10 0.277759 0.341291 0.423504
O O11 0.286764 0.382918 0.284594
O O12 0.000000 0.500000 0.411561
O O13 0.500000 0.703075 0.500000
O O14 0.750000 0.750000 0.500000
O O15 0.000000 0.895716 0.179625
#
# Coordination Sequence:
#
# PCOD8269155 Si02
#       6
#     8  16  16   8   8  16
#     4   9  17  31  51  77 109 141 172 210 257 307
#     4  10  21  37  56  78 105 137 173 215 261 308
#     4   9  19  35  54  76 104 139 174 210 257 310
#     4   9  17  30  52  80 105 131 168 215 260 302
#     4  10  22  39  54  71 101 140 178 216 259 304
#     4  10  19  33  55  81 107 137 174 214 259 311
#
# _framework density 18.691911999999999
#
# number of rings (size 3 to 8) (size 9 to 14) (size 15 to 20)
#    0.000    2.444    0.000    2.000    0.000    7.111 
#    0.000    5.000    0.000    3.333    0.000    0.000 
#    0.000    0.000    0.000    0.000    0.000    0.000 
#
# Total GULP energy -446417.282188 kJ/mol
# GULP energy per Si atom -12400.480061 kJ/mol
# Density = 1.864937 g / cm^3
# Si number density = 18.691912 Si / 1000 Ang^3
#
#
#
# Elastic Constant Matrix: (Units=GPa)
#
#
# Indices 1 2 3 4 5 6 
#
# 1 119.5184 75.3741 50.9912 0.0000 0.0000 0.0000
# 2 75.3741 152.2437 64.5411 0.0000 0.0000 0.0000
# 3 50.9912 64.5411 75.2619 0.0000 0.0000 0.0000
# 4 0.0000 0.0000 0.0000 99.5218 0.0000 0.0000
# 5 0.0000 0.0000 0.0000 0.0000 21.2247 0.0000
# 6 0.0000 0.0000 0.0000 0.0000 0.0000 44.3123
#
#
#
# Elastic Compliance Matrix: (Units=1/GPa)
#
#
# Indices 1 2 3 4 5 6 
#
# 1 0.013399 -0.004376 -0.005325 0.000000 0.000000 0.000000
# 2 -0.004376 0.011750 -0.007111 0.000000 0.000000 0.000000
# 3 -0.005325 -0.007111 0.022993 0.000000 0.000000 0.000000
# 4 0.000000 0.000000 0.000000 0.010048 0.000000 0.000000
# 5 0.000000 0.000000 0.000000 0.000000 0.047115 0.000000
# 6 0.000000 0.000000 0.000000 0.000000 0.000000 0.022567
#
#
# Mechanical properties :
#
#
# Convention : Reuss Voigt Hill
#
# Bulk Modulus (GPa) = 68.88622 80.98187 74.93405
# Shear Modulus (GPa) = 30.05999 43.41961 36.73980
#
# Velocity S-wave (km/s) = 4.01456 4.82489 4.43826
# Velocity P-wave (km/s) = 7.64346 8.62890 8.15109
#
# Compressibility (1/GPa) = 0.01451669
#
# Stress axis : x y z
#
# Youngs Moduli (GPa) = 74.63522 85.10994 43.49169
#
# Poissons Ratio (x) = 0.37244 0.23160
# Poissons Ratio (y) = 0.32660 0.30927
# Poissons Ratio (z) = 0.39744 0.60522
#
# Static dielectric constant tensor:
#      x y z
#    x 3.583880 0.000000 0.000000 
#    y 0.000000 3.486240 0.000000 
#    z 0.000000 0.000000 3.388050 
# 
# 
# High freq. dielectric constant tensor:
#      x y z
#    x 1.736030 0.000000 0.000000 
#    y 0.000000 1.730920 0.000000 
#    z 0.000000 0.000000 1.711590 
# 
# From -- ./inp_files/56488.got.cif
#   From: 2010.03.12/outbox.cif.g09.slc.cpg/sg65_29_cif.got.tgz:56488.got - 2010.04.10 20:52:16.
