data_PCOD8269417
_publ_section_title
;
Structure prediction by ZEFSAII (Michael W. Deem and Ramdas Pophale) SiO2 
 PCOD8269417
Probable space group: C M M M
;
_chemical_formula_sum "Si O2"
_cell_formula_units_Z 128
_cell_length_a 28.845875
_cell_length_b 25.622040
_cell_length_c 9.433345
_cell_angle_alpha 90.000000
_cell_angle_beta 90.000000
_cell_angle_gamma 90.000000
_cell_volume 6972.092494
_symmetry_space_group_name_H-M "C M M M"
_symmetry_group_IT_number 65
_symmetry_cell_setting 'orthorhombic'
loop_
_space_group_symop_operation_xyz
x,y,z
-x,-y,z
x,-y,-z
-x,y,-z
-x,-y,-z
x,y,-z
-x,y,z
x,-y,z
1/2+x,1/2+y,z
1/2-x,1/2-y,z
1/2+x,1/2-y,-z
1/2-x,1/2+y,-z
1/2-x,1/2-y,-z
1/2+x,1/2+y,-z
1/2-x,1/2+y,z
1/2+x,1/2-y,z
loop_
_atom_site_type_symbol
_atom_site_label
_atom_site_fract_x
_atom_site_fract_y
_atom_site_fract_z
Si Si1 0.295336 0.439447 0.161748
Si Si2 0.551960 0.848092 0.667748
Si Si3 0.889247 0.751077 0.331479
Si Si4 0.800253 0.270601 0.835126
Si Si5 0.800523 0.607759 0.164329
Si Si6 0.551264 0.349145 0.667921
Si Si7 0.116965 0.559597 0.665355
Si Si8 0.384327 0.440825 0.666177
O O1 0.284212 0.500000 0.181913
O O2 0.250769 0.407802 0.213823
O O3 0.337957 0.421468 0.257629
O O4 0.307827 0.425919 0.000000
O O5 0.548229 0.844305 0.500000
O O6 0.500000 0.844687 0.733055
O O7 0.583826 0.800584 0.722974
O O8 0.574979 0.902878 0.714964
O O9 0.881820 0.750109 0.500000
O O10 0.839522 0.757503 0.257295
O O11 0.919087 0.800199 0.278905
O O12 0.750000 0.250000 0.785583
O O13 0.805858 0.331547 0.804296
O O14 0.807840 0.257213 0.000000
O O15 0.836646 0.574031 0.252477
O O16 0.808009 0.594061 0.000000
O O17 0.547697 0.346979 0.500000
O O18 0.500000 0.346197 0.735400
O O19 0.574173 0.403551 0.716779
O O20 0.127318 0.567837 0.500000
O O21 0.102603 0.500000 0.698659
O O22 0.375180 0.435831 0.500000
O O23 0.397357 0.500000 0.709579
#
# Coordination Sequence:
#
# PCOD8269417 Si02
#       8
#    16  16  16  16  16  16  16  16
#     4   9  18  32  50  72  97 130 171 207 242 293
#     4   9  17  31  52  76 102 133 168 210 259 305
#     4  10  19  34  56  79 102 132 172 214 253 301
#     4  10  22  37  53  77 107 137 168 207 260 313
#     4  10  20  35  54  74 100 137 175 209 252 312
#     4   9  18  32  52  79 105 131 169 213 254 301
#     4  10  20  33  51  78 108 136 172 219 262 300
#     4   9  18  32  50  75 106 136 166 205 254 302
#
# _framework density 18.358908
#
# number of rings (size 3 to 8) (size 9 to 14) (size 15 to 20)
#    0.000    2.500    1.250    0.750    1.750    3.500 
#    0.000    3.750    0.000    3.750    0.000    2.625 
#    0.000    0.000    0.000    0.000    0.000    0.000 
#
# Total GULP energy -793635.875101 kJ/mol
# GULP energy per Si atom -12400.560548 kJ/mol
# Density = 1.831712 g / cm^3
# Si number density = 18.358908 Si / 1000 Ang^3
#
#
#
# Elastic Constant Matrix: (Units=GPa)
#
#
# Indices 1 2 3 4 5 6 
#
# 1 169.5507 75.4192 45.4423 0.0000 0.0000 0.0000
# 2 75.4192 108.4855 28.8708 0.0000 0.0000 0.0000
# 3 45.4423 28.8708 32.3290 0.0000 0.0000 0.0000
# 4 0.0000 0.0000 0.0000 17.0149 0.0000 0.0000
# 5 0.0000 0.0000 0.0000 0.0000 -4.5657 0.0000
# 6 0.0000 0.0000 0.0000 0.0000 0.0000 35.1546
#
#
#
# Elastic Compliance Matrix: (Units=1/GPa)
#
#
# Indices 1 2 3 4 5 6 
#
# 1 0.010989 -0.004629 -0.011312 0.000000 0.000000 0.000000
# 2 -0.004629 0.014041 -0.006033 0.000000 0.000000 0.000000
# 3 -0.011312 -0.006033 0.052220 0.000000 0.000000 0.000000
# 4 0.000000 0.000000 0.000000 0.058772 0.000000 0.000000
# 5 0.000000 0.000000 0.000000 0.000000 -0.219023 0.000000
# 6 0.000000 0.000000 0.000000 0.000000 0.000000 0.028446
#
#
# Mechanical properties :
#
#
# Convention : Reuss Voigt Hill
#
# Bulk Modulus (GPa) = 30.02795 67.75887 48.89341
# Shear Modulus (GPa) = 10105.46380 20.22961 5062.84671
#
# Velocity S-wave (km/s) = 74.27208 3.32308 52.57083
# Velocity P-wave (km/s) = 85.85752 7.19110 60.92301
#
# Compressibility (1/GPa) = 0.03330230
#
# Stress axis : x y z
#
# Youngs Moduli (GPa) = 91.00091 71.21819 19.14963
#
# Poissons Ratio (x) = 0.32967 0.21663
# Poissons Ratio (y) = 0.42124 0.11553
# Poissons Ratio (z) = 1.02944 0.42964
#
# Static dielectric constant tensor:
#      x y z
#    x 3.552630 0.000000 0.000000 
#    y 0.000000 3.532420 0.000000 
#    z 0.000000 0.000000 3.065000 
# 
# 
# High freq. dielectric constant tensor:
#      x y z
#    x 1.718630 0.000000 0.000000 
#    y 0.000000 1.723350 0.000000 
#    z 0.000000 0.000000 1.674560 
# 
# From -- ./inp_files/32948.got.cif
#   From: 2010.03.12/outbox.cif.g09.slc.cpg/sg65_17_cif.got.tgz:32948.got - 2010.04.10 20:52:16.
