data_PCOD8269547
_publ_section_title
;
Structure prediction by ZEFSAII (Michael W. Deem and Ramdas Pophale) SiO2 
 PCOD8269547
Probable space group: C M M M
;
_chemical_formula_sum "Si O2"
_cell_formula_units_Z 104
_cell_length_a 24.339284
_cell_length_b 31.007427
_cell_length_c 7.421573
_cell_angle_alpha 90.000000
_cell_angle_beta 90.000000
_cell_angle_gamma 90.000000
_cell_volume 5601.050544
_symmetry_space_group_name_H-M "C M M M"
_symmetry_group_IT_number 65
_symmetry_cell_setting 'orthorhombic'
loop_
_space_group_symop_operation_xyz
x,y,z
-x,-y,z
x,-y,-z
-x,y,-z
-x,-y,-z
x,y,-z
-x,y,z
x,-y,z
1/2+x,1/2+y,z
1/2-x,1/2-y,z
1/2+x,1/2-y,-z
1/2-x,1/2+y,-z
1/2-x,1/2-y,-z
1/2+x,1/2+y,-z
1/2-x,1/2+y,z
1/2+x,1/2-y,z
loop_
_atom_site_type_symbol
_atom_site_label
_atom_site_fract_x
_atom_site_fract_y
_atom_site_fract_z
Si Si1 0.337987 0.396777 0.785483
Si Si2 0.889398 0.262303 0.500000
Si Si3 0.437864 0.178871 0.207342
Si Si4 0.335846 0.324172 0.500000
Si Si5 0.266168 0.952287 0.210620
Si Si6 0.560417 0.547873 0.213254
Si Si7 0.784958 0.683469 0.500000
Si Si8 0.834864 0.374414 0.792034
O O1 0.338485 0.351619 0.682709
O O2 0.286761 0.425967 0.719620
O O3 0.392947 0.420332 0.716034
O O4 0.336714 0.388352 0.000000
O O5 0.921107 0.279539 0.676225
O O6 0.885931 0.210385 0.500000
O O7 0.826435 0.276976 0.500000
O O8 0.500000 0.164531 0.253132
O O9 0.398301 0.137959 0.252591
O O10 0.431964 0.192791 0.000000
O O11 0.277174 0.299572 0.500000
O O12 0.321540 0.924579 0.254859
O O13 0.270198 0.000000 0.301269
O O14 0.259295 0.958795 0.000000
O O15 0.500000 0.564394 0.274976
O O16 0.570871 0.500000 0.291568
O O17 0.563531 0.545605 0.000000
O O18 0.794035 0.654988 0.321622
O O19 0.820883 0.365242 0.000000
#
# Coordination Sequence:
#
# PCOD8269547 Si02
#       8
#    16   8  16   8  16  16   8  16
#     4  10  20  34  51  72 104 139 172 208 254 306
#     4  10  22  36  54  78 103 130 167 214 262 307
#     4   9  18  35  59  81 102 133 174 216 257 308
#     4  12  23  35  51  75 102 133 169 208 259 313
#     4   9  16  28  49  75 106 143 174 206 251 300
#     4   8  14  28  51  73  93 126 173 216 251 292
#     4  10  19  35  53  72 101 135 167 208 256 306
#     4   9  17  31  52  79 107 136 173 212 254 302
#
# _framework density 18.567945000000002
#
# number of rings (size 3 to 8) (size 9 to 14) (size 15 to 20)
#    0.000    2.615    1.538    1.385    0.000    2.462 
#    0.000    4.615    0.000    7.846    0.000    3.231 
#    0.000    3.692    0.000    0.308    0.000    0.000 
#
# Total GULP energy -644402.725314 kJ/mol
# GULP energy per Si atom -12392.360102 kJ/mol
# Density = 1.852568 g / cm^3
# Si number density = 18.567945 Si / 1000 Ang^3
#
#
#
# Elastic Constant Matrix: (Units=GPa)
#
#
# Indices 1 2 3 4 5 6 
#
# 1 138.2541 64.3799 29.5936 0.0000 0.0000 0.0000
# 2 64.3799 117.8971 32.7150 0.0000 0.0000 0.0000
# 3 29.5936 32.7150 67.4852 0.0000 0.0000 0.0000
# 4 0.0000 0.0000 0.0000 -13.7182 0.0000 0.0000
# 5 0.0000 0.0000 0.0000 0.0000 11.7814 0.0000
# 6 0.0000 0.0000 0.0000 0.0000 0.0000 19.8887
#
#
#
# Elastic Compliance Matrix: (Units=1/GPa)
#
#
# Indices 1 2 3 4 5 6 
#
# 1 0.009926 -0.004867 -0.001993 0.000000 0.000000 0.000000
# 2 -0.004867 0.012187 -0.003774 0.000000 0.000000 0.000000
# 3 -0.001993 -0.003774 0.017521 0.000000 0.000000 0.000000
# 4 0.000000 0.000000 0.000000 -0.072896 0.000000 0.000000
# 5 0.000000 0.000000 0.000000 0.000000 0.084879 0.000000
# 6 0.000000 0.000000 0.000000 0.000000 0.000000 0.050280
#
#
# Mechanical properties :
#
#
# Convention : Reuss Voigt Hill
#
# Bulk Modulus (GPa) = 54.44719 64.11263 59.27991
# Shear Modulus (GPa) = 38.67328 16.72025 27.69676
#
# Velocity S-wave (km/s) = 4.56872 3.00407 3.86637
# Velocity P-wave (km/s) = 7.56424 6.82907 7.20604
#
# Compressibility (1/GPa) = 0.01836642
#
# Stress axis : x y z
#
# Youngs Moduli (GPa) = 100.74297 82.05504 57.07285
#
# Poissons Ratio (x) = 0.39939 0.11377
# Poissons Ratio (y) = 0.49034 0.21536
# Poissons Ratio (z) = 0.20081 0.30963
#
# Static dielectric constant tensor:
#      x y z
#    x 3.653340 0.000000 0.000000 
#    y 0.000000 3.354010 0.000000 
#    z 0.000000 0.000000 3.311010 
# 
# 
# High freq. dielectric constant tensor:
#      x y z
#    x 1.719380 0.000000 0.000000 
#    y 0.000000 1.695940 0.000000 
#    z 0.000000 0.000000 1.721060 
# 
# From -- ./inp_files/12880.got.cif
#   From: 2010.03.12/outbox.cif.g09.slc.cpg/sg65_7_cif.got.tgz:12880.got - 2010.04.10 20:52:16.
