data_PCOD8269969
_publ_section_title
;
Structure prediction by ZEFSAII (Michael W. Deem and Ramdas Pophale) SiO2 
 PCOD8269969
Probable space group: C M M M
;
_chemical_formula_sum "Si O2"
_cell_formula_units_Z 88
_cell_length_a 28.203164
_cell_length_b 9.295624
_cell_length_c 20.615972
_cell_angle_alpha 90.000000
_cell_angle_beta 90.000000
_cell_angle_gamma 90.000000
_cell_volume 5404.807083
_symmetry_space_group_name_H-M "C M M M"
_symmetry_group_IT_number 65
_symmetry_cell_setting 'orthorhombic'
loop_
_space_group_symop_operation_xyz
x,y,z
-x,-y,z
x,-y,-z
-x,y,-z
-x,-y,-z
x,y,-z
-x,y,z
x,-y,z
1/2+x,1/2+y,z
1/2-x,1/2-y,z
1/2+x,1/2-y,-z
1/2-x,1/2+y,-z
1/2-x,1/2-y,-z
1/2+x,1/2+y,-z
1/2-x,1/2+y,z
1/2+x,1/2-y,z
loop_
_atom_site_type_symbol
_atom_site_label
_atom_site_fract_x
_atom_site_fract_y
_atom_site_fract_z
Si Si1 0.443765 0.664984 0.693986
Si Si2 0.797373 0.664919 0.000000
Si Si3 0.602774 0.830765 0.811819
Si Si4 0.201737 0.333951 0.140521
Si Si5 0.555907 0.663839 0.926239
Si Si6 0.443688 0.161313 0.571562
O O1 0.500000 0.680987 0.700034
O O2 0.427818 0.500000 0.697684
O O3 0.420474 0.751692 0.751802
O O4 0.424598 0.729456 0.626004
O O5 0.750000 0.750000 0.000000
O O6 0.821696 0.703491 0.069085
O O7 0.783526 0.500000 0.000000
O O8 0.659400 0.798649 0.809542
O O9 0.581145 0.774395 0.878731
O O10 0.592339 0.000000 0.807263
O O11 0.216086 0.500000 0.144156
O O12 0.250000 0.250000 0.157243
O O13 0.500000 0.682054 0.918190
O O14 0.570496 0.500000 0.908889
O O15 0.571231 0.700275 0.000000
O O16 0.425458 0.209479 0.500000
O O17 0.500000 0.162492 0.571748
O O18 0.425502 0.000000 0.587168
#
# Coordination Sequence:
#
# PCOD8269969 Si02
#       6
#    16   8  16  16  16  16
#     4  10  20  32  46  66  95 130 164 195 226 266
#     4   8  14  28  46  62  81 102 129 171 224 277
#     4  11  22  32  47  69  92 119 153 193 236 280
#     4   9  19  33  49  67  88 113 143 186 236 287
#     4   9  19  35  50  64  86 117 154 194 233 275
#     4   8  14  26  45  68  94 124 156 190 228 268
#
# _framework density 16.281801999999999
#
# number of rings (size 3 to 8) (size 9 to 14) (size 15 to 20)
#    0.000    2.727    0.000    2.727    1.273    5.818 
#    0.000    2.727    0.000    0.000    0.000    0.000 
#    0.000    0.727    0.000    2.364    0.000    2.909 
#
# Total GULP energy -545169.903849 kJ/mol
# GULP energy per Si atom -12390.225087 kJ/mol
# Density = 1.624474 g / cm^3
# Si number density = 16.281802 Si / 1000 Ang^3
#
#
#
# Elastic Constant Matrix: (Units=GPa)
#
#
# Indices 1 2 3 4 5 6 
#
# 1 40.7887 39.3144 39.6055 0.0000 0.0000 0.0000
# 2 39.3144 107.9551 73.9575 0.0000 0.0000 0.0000
# 3 39.6055 73.9575 111.9328 0.0000 0.0000 0.0000
# 4 0.0000 0.0000 0.0000 30.0698 0.0000 0.0000
# 5 0.0000 0.0000 0.0000 0.0000 3.9076 0.0000
# 6 0.0000 0.0000 0.0000 0.0000 0.0000 20.8241
#
#
#
# Elastic Compliance Matrix: (Units=1/GPa)
#
#
# Indices 1 2 3 4 5 6 
#
# 1 0.041928 -0.009328 -0.008672 0.000000 0.000000 0.000000
# 2 -0.009328 0.018999 -0.009253 0.000000 0.000000 0.000000
# 3 -0.008672 -0.009253 0.018116 0.000000 0.000000 0.000000
# 4 0.000000 0.000000 0.000000 0.033256 0.000000 0.000000
# 5 0.000000 0.000000 0.000000 0.000000 0.255908 0.000000
# 6 0.000000 0.000000 0.000000 0.000000 0.000000 0.048021
#
#
# Mechanical properties :
#
#
# Convention : Reuss Voigt Hill
#
# Bulk Modulus (GPa) = 40.75434 62.93684 51.84559
# Shear Modulus (GPa) = 10.44031 18.14692 14.29362
#
# Velocity S-wave (km/s) = 2.53499 3.34211 2.96613
# Velocity P-wave (km/s) = 5.80114 7.32336 6.60624
#
# Compressibility (1/GPa) = 0.02453727
#
# Stress axis : x y z
#
# Youngs Moduli (GPa) = 23.85033 52.63484 55.19999
#
# Poissons Ratio (x) = 0.49097 0.47871
# Poissons Ratio (y) = 0.22247 0.51074
# Poissons Ratio (z) = 0.20684 0.48701
#
# Static dielectric constant tensor:
#      x y z
#    x 2.743110 0.000000 0.000000 
#    y 0.000000 3.195050 0.000000 
#    z 0.000000 0.000000 3.112970 
# 
# 
# High freq. dielectric constant tensor:
#      x y z
#    x 1.586080 0.000000 0.000000 
#    y 0.000000 1.635860 0.000000 
#    z 0.000000 0.000000 1.621640 
# 
# From -- ./inp_files/60645.got.cif
#   From: 2010.03.12/outbox.cif.g09.slc.cpg/sg65_31_cif.got.tgz:60645.got - 2010.04.10 20:52:16.
