data_PCOD8269873
_publ_section_title
;
Structure prediction by ZEFSAII (Michael W. Deem and Ramdas Pophale) SiO2 
 PCOD8269873
Probable space group: C M M M
;
_chemical_formula_sum "Si O2"
_cell_formula_units_Z 104
_cell_length_a 18.224065
_cell_length_b 17.248368
_cell_length_c 17.699146
_cell_angle_alpha 90.000000
_cell_angle_beta 90.000000
_cell_angle_gamma 90.000000
_cell_volume 5563.467776
_symmetry_space_group_name_H-M "C M M M"
_symmetry_group_IT_number 65
_symmetry_cell_setting 'orthorhombic'
loop_
_space_group_symop_operation_xyz
x,y,z
-x,-y,z
x,-y,-z
-x,y,-z
-x,-y,-z
x,y,-z
-x,y,z
x,-y,z
1/2+x,1/2+y,z
1/2-x,1/2-y,z
1/2+x,1/2-y,-z
1/2-x,1/2+y,-z
1/2-x,1/2-y,-z
1/2+x,1/2+y,-z
1/2-x,1/2+y,z
1/2+x,1/2-y,z
loop_
_atom_site_type_symbol
_atom_site_label
_atom_site_fract_x
_atom_site_fract_y
_atom_site_fract_z
Si Si1 0.775757 0.331700 0.088839
Si Si2 0.646541 0.590119 0.163161
Si Si3 0.201787 0.326405 0.583739
Si Si4 0.500000 0.407223 0.086060
Si Si5 0.919165 0.587391 0.089879
Si Si6 0.581966 0.714715 0.410338
Si Si7 0.321464 0.408370 0.331175
O O1 0.750000 0.250000 0.125069
O O2 0.714007 0.394840 0.107082
O O3 0.854634 0.357817 0.123214
O O4 0.783806 0.323425 0.000000
O O5 0.632963 0.500000 0.169308
O O6 0.571710 0.626807 0.129025
O O7 0.666526 0.622340 0.245919
O O8 0.194532 0.364722 0.500000
O O9 0.250000 0.250000 0.576649
O O10 0.123470 0.294447 0.614658
O O11 0.238633 0.387307 0.641580
O O12 0.500000 0.500000 0.085209
O O13 0.500000 0.375719 0.000000
O O14 0.906891 0.500000 0.120137
O O15 0.000000 0.617621 0.115525
O O16 0.914672 0.586431 0.000000
O O17 0.582883 0.709383 0.500000
O O18 0.500000 0.719203 0.377516
O O19 0.619312 0.635742 0.381847
O O20 0.333849 0.500000 0.339119
#
# Coordination Sequence:
#
# PCOD8269873 Si02
#       7
#    16  16  16   8  16  16  16
#     4  10  20  33  49  74 101 124 161 214 267 313
#     4  10  21  35  52  72  98 136 175 213 256 314
#     4   8  15  30  50  72 101 138 176 204 237 300
#     4   9  18  34  54  72  91 125 176 218 253 308
#     4   8  14  27  49  73  94 119 152 192 243 304
#     4   9  18  32  52  78 106 140 178 211 249 301
#     4  10  20  31  49  76 105 135 168 214 264 306
#
# _framework density 18.693377000000002
#
# number of rings (size 3 to 8) (size 9 to 14) (size 15 to 20)
#    0.000    2.846    0.000    2.769    1.077    4.923 
#    1.385    0.769    0.000    1.385    0.000    4.308 
#    0.000    0.000    0.000    0.000    0.000    0.000 
#
# Total GULP energy -644422.906967 kJ/mol
# GULP energy per Si atom -12392.748211 kJ/mol
# Density = 1.865083 g / cm^3
# Si number density = 18.693377 Si / 1000 Ang^3
#
#
#
# Elastic Constant Matrix: (Units=GPa)
#
#
# Indices 1 2 3 4 5 6 
#
# 1 176.0950 63.2307 33.8972 0.0000 0.0000 0.0000
# 2 63.2307 52.2421 35.4826 0.0000 0.0000 0.0000
# 3 33.8972 35.4826 51.4640 0.0000 0.0000 0.0000
# 4 0.0000 0.0000 0.0000 16.6448 0.0000 0.0000
# 5 0.0000 0.0000 0.0000 0.0000 15.1687 0.0000
# 6 0.0000 0.0000 0.0000 0.0000 0.0000 27.4366
#
#
#
# Elastic Compliance Matrix: (Units=1/GPa)
#
#
# Indices 1 2 3 4 5 6 
#
# 1 0.010355 -0.014859 0.003424 0.000000 0.000000 0.000000
# 2 -0.014859 0.057321 -0.029734 0.000000 0.000000 0.000000
# 3 0.003424 -0.029734 0.037676 0.000000 0.000000 0.000000
# 4 0.000000 0.000000 0.000000 0.060079 0.000000 0.000000
# 5 0.000000 0.000000 0.000000 0.000000 0.065925 0.000000
# 6 0.000000 0.000000 0.000000 0.000000 0.000000 0.036448
#
#
# Mechanical properties :
#
#
# Convention : Reuss Voigt Hill
#
# Bulk Modulus (GPa) = 43.44970 60.55803 52.00386
# Shear Modulus (GPa) = 13.97380 21.66273 17.81827
#
# Velocity S-wave (km/s) = 2.73706 3.40787 3.09072
# Velocity P-wave (km/s) = 5.76910 6.92464 6.37311
#
# Compressibility (1/GPa) = 0.02301512
#
# Stress axis : x y z
#
# Youngs Moduli (GPa) = 96.57207 17.44562 26.54194
#
# Poissons Ratio (x) = 0.25922 -0.09088
# Poissons Ratio (y) = 1.43494 0.78920
# Poissons Ratio (z) = -0.33068 0.51873
#
# Static dielectric constant tensor:
#      x y z
#    x 4.187350 0.000000 0.000000 
#    y 0.000000 3.285900 0.000000 
#    z 0.000000 0.000000 3.306740 
# 
# 
# High freq. dielectric constant tensor:
#      x y z
#    x 1.736270 0.000000 0.000000 
#    y 0.000000 1.697850 0.000000 
#    z 0.000000 0.000000 1.699170 
# 
# From -- ./inp_files/54627.got.cif
#   From: 2010.03.12/outbox.cif.g09.slc.cpg/sg65_28_cif.got.tgz:54627.got - 2010.04.10 20:52:16.
