data_PCOD8269605
_publ_section_title
;
Structure prediction by ZEFSAII (Michael W. Deem and Ramdas Pophale) SiO2 
 PCOD8269605
Probable space group: C M M M
;
_chemical_formula_sum "Si O2"
_cell_formula_units_Z 88
_cell_length_a 9.110618
_cell_length_b 26.286771
_cell_length_c 18.911879
_cell_angle_alpha 90.000000
_cell_angle_beta 90.000000
_cell_angle_gamma 90.000000
_cell_volume 4529.181865
_symmetry_space_group_name_H-M "C M M M"
_symmetry_group_IT_number 65
_symmetry_cell_setting 'orthorhombic'
loop_
_space_group_symop_operation_xyz
x,y,z
-x,-y,z
x,-y,-z
-x,y,-z
-x,-y,-z
x,y,-z
-x,y,z
x,-y,z
1/2+x,1/2+y,z
1/2-x,1/2-y,z
1/2+x,1/2-y,-z
1/2-x,1/2+y,-z
1/2-x,1/2-y,-z
1/2+x,1/2+y,-z
1/2-x,1/2+y,z
1/2+x,1/2-y,z
loop_
_atom_site_type_symbol
_atom_site_label
_atom_site_fract_x
_atom_site_fract_y
_atom_site_fract_z
Si Si1 0.827517 0.897218 0.346998
Si Si2 0.672227 0.197635 0.417766
Si Si3 0.171744 0.398824 0.919930
Si Si4 0.664188 0.556712 0.798703
Si Si5 0.673946 0.500000 0.419807
Si Si6 0.163082 0.202434 0.916250
O O1 0.738626 0.848507 0.373013
O O2 0.797952 0.903447 0.263183
O O3 0.765766 0.948227 0.384459
O O4 0.000000 0.889501 0.363244
O O5 0.703270 0.186582 0.500000
O O6 0.500000 0.202475 0.401887
O O7 0.750000 0.250000 0.394344
O O8 0.224507 0.441210 0.864882
O O9 0.251098 0.347821 0.894675
O O10 0.000000 0.389961 0.914413
O O11 0.215689 0.414491 0.000000
O O12 0.500000 0.567112 0.827379
O O13 0.674364 0.500000 0.766210
O O14 0.500000 0.500000 0.412790
O O15 0.728764 0.500000 0.500000
O O16 0.250000 0.250000 0.883187
O O17 0.000000 0.200735 0.883534
O O18 0.154404 0.208124 0.000000
#
# Coordination Sequence:
#
# PCOD8269605 Si02
#       6
#    16  16  16  16   8  16
#     4  10  19  35  58  85 116 151 191 234 281 339
#     4  10  21  37  58  86 120 158 198 239 284 334
#     4  10  21  36  54  78 107 141 186 236 285 343
#     4  10  21  38  58  80 109 145 186 233 288 346
#     4   9  16  28  53  87 116 145 182 222 267 323
#     4   9  16  28  49  76 105 135 167 210 268 328
#
# _framework density 19.429558
#
# number of rings (size 3 to 8) (size 9 to 14) (size 15 to 20)
#    0.000    2.273    0.909    2.182    0.000    6.545 
#    0.000    3.182    0.000    6.000    0.000    0.000 
#    0.000    0.000    0.000    0.000    0.000    0.000 
#
# Total GULP energy -545568.602721 kJ/mol
# GULP energy per Si atom -12399.286425 kJ/mol
# Density = 1.938534 g / cm^3
# Si number density = 19.429558 Si / 1000 Ang^3
#
#
#
# Elastic Constant Matrix: (Units=GPa)
#
#
# Indices 1 2 3 4 5 6 
#
# 1 104.7616 57.6281 49.9949 0.0000 0.0000 0.0000
# 2 57.6281 127.8774 53.0245 0.0000 0.0000 0.0000
# 3 49.9949 53.0245 86.6360 0.0000 0.0000 0.0000
# 4 0.0000 0.0000 0.0000 28.2388 0.0000 0.0000
# 5 0.0000 0.0000 0.0000 0.0000 24.9892 0.0000
# 6 0.0000 0.0000 0.0000 0.0000 0.0000 34.8101
#
#
#
# Elastic Compliance Matrix: (Units=1/GPa)
#
#
# Indices 1 2 3 4 5 6 
#
# 1 0.014651 -0.004150 -0.005915 0.000000 0.000000 0.000000
# 2 -0.004150 0.011655 -0.004738 0.000000 0.000000 0.000000
# 3 -0.005915 -0.004738 0.017856 0.000000 0.000000 0.000000
# 4 0.000000 0.000000 0.000000 0.035412 0.000000 0.000000
# 5 0.000000 0.000000 0.000000 0.000000 0.040017 0.000000
# 6 0.000000 0.000000 0.000000 0.000000 0.000000 0.028727
#
#
# Mechanical properties :
#
#
# Convention : Reuss Voigt Hill
#
# Bulk Modulus (GPa) = 68.70223 71.17444 69.93834
# Shear Modulus (GPa) = 27.35578 28.18279 27.76929
#
# Velocity S-wave (km/s) = 3.75633 3.81269 3.78462
# Velocity P-wave (km/s) = 7.36545 7.48957 7.42777
#
# Compressibility (1/GPa) = 0.01455557
#
# Stress axis : x y z
#
# Youngs Moduli (GPa) = 68.25499 85.80020 56.00400
#
# Poissons Ratio (x) = 0.35606 0.33125
# Poissons Ratio (y) = 0.28325 0.26537
# Poissons Ratio (z) = 0.40371 0.40656
#
# Static dielectric constant tensor:
#      x y z
#    x 3.525860 0.000000 0.000000 
#    y 0.000000 3.557520 0.000000 
#    z 0.000000 0.000000 3.315080 
# 
# 
# High freq. dielectric constant tensor:
#      x y z
#    x 1.747930 0.000000 0.000000 
#    y 0.000000 1.761580 0.000000 
#    z 0.000000 0.000000 1.737460 
# 
# From -- ./inp_files/59828.got.cif
#   From: 2010.03.12/outbox.cif.g09.slc.cpg/sg65_30_cif.got.tgz:59828.got - 2010.04.10 20:52:16.
