data_PCOD8269876
_publ_section_title
;
Structure prediction by ZEFSAII (Michael W. Deem and Ramdas Pophale) SiO2 
 PCOD8269876
Probable space group: C M M M
;
_chemical_formula_sum "Si O2"
_cell_formula_units_Z 88
_cell_length_a 8.992920
_cell_length_b 24.314117
_cell_length_c 22.352452
_cell_angle_alpha 90.000000
_cell_angle_beta 90.000000
_cell_angle_gamma 90.000000
_cell_volume 4887.473359
_symmetry_space_group_name_H-M "C M M M"
_symmetry_group_IT_number 65
_symmetry_cell_setting 'orthorhombic'
loop_
_space_group_symop_operation_xyz
x,y,z
-x,-y,z
x,-y,-z
-x,y,-z
-x,-y,-z
x,y,-z
-x,y,z
x,-y,z
1/2+x,1/2+y,z
1/2-x,1/2-y,z
1/2+x,1/2-y,-z
1/2-x,1/2+y,-z
1/2-x,1/2-y,-z
1/2+x,1/2+y,-z
1/2-x,1/2+y,z
1/2+x,1/2-y,z
loop_
_atom_site_type_symbol
_atom_site_label
_atom_site_fract_x
_atom_site_fract_y
_atom_site_fract_z
Si Si1 0.828012 0.608735 0.070314
Si Si2 0.676291 0.000000 0.569474
Si Si3 0.834191 0.000000 0.070570
Si Si4 0.825491 0.193812 0.845742
Si Si5 0.174467 0.809306 0.500000
Si Si6 0.675050 0.612058 0.392454
Si Si7 0.826268 0.193145 0.289702
O O1 0.761360 0.551330 0.092096
O O2 0.733692 0.651955 0.106235
O O3 0.000000 0.611483 0.088134
O O4 0.805129 0.618680 0.000000
O O5 0.739909 0.054361 0.601467
O O6 0.500000 0.000000 0.576429
O O7 0.725082 0.000000 0.500000
O O8 0.000000 0.000000 0.099491
O O9 0.850886 0.000000 0.000000
O O10 0.750000 0.250000 0.863827
O O11 0.781472 0.177174 0.778009
O O12 0.000000 0.199774 0.852899
O O13 0.250000 0.750000 0.500000
O O14 0.224897 0.844876 0.556907
O O15 0.000000 0.798518 0.500000
O O16 0.500000 0.599482 0.396279
O O17 0.721295 0.641200 0.330210
O O18 0.750000 0.250000 0.310356
O O19 0.000000 0.204350 0.296492
#
# Coordination Sequence:
#
# PCOD8269876 Si02
#       7
#    16   8   8  16   8  16  16
#     4  10  20  34  53  78 107 139 177 222 270 320
#     4  11  23  37  54  79 108 141 179 221 266 309
#     4   9  17  31  52  77 104 135 170 210 259 314
#     4  10  20  35  54  77 106 141 179 219 267 321
#     4  10  20  31  50  79 107 134 166 206 253 302
#     4  10  20  36  56  78 105 140 177 211 257 315
#     4   9  19  35  56  80 106 138 176 218 264 315
#
# _framework density 18.005213000000001
#
# number of rings (size 3 to 8) (size 9 to 14) (size 15 to 20)
#    0.000    2.182    0.909    2.182    0.000    5.091 
#    0.000    0.909    0.000    2.182    0.000    0.000 
#    0.000    0.000    0.000    0.000    0.000    0.000 
#
# Total GULP energy -545576.410321 kJ/mol
# GULP energy per Si atom -12399.463871 kJ/mol
# Density = 1.796423 g / cm^3
# Si number density = 18.005213 Si / 1000 Ang^3
#
#
#
# Elastic Constant Matrix: (Units=GPa)
#
#
# Indices 1 2 3 4 5 6 
#
# 1 64.5646 54.5445 28.4966 0.0000 0.0000 0.0000
# 2 54.5445 157.8486 60.4686 0.0000 0.0000 0.0000
# 3 28.4966 60.4686 60.6703 0.0000 0.0000 0.0000
# 4 0.0000 0.0000 0.0000 8.9597 0.0000 0.0000
# 5 0.0000 0.0000 0.0000 0.0000 21.7572 0.0000
# 6 0.0000 0.0000 0.0000 0.0000 0.0000 37.7462
#
#
#
# Elastic Compliance Matrix: (Units=1/GPa)
#
#
# Indices 1 2 3 4 5 6 
#
# 1 0.022637 -0.006065 -0.004588 0.000000 0.000000 0.000000
# 2 -0.006065 0.011873 -0.008985 0.000000 0.000000 0.000000
# 3 -0.004588 -0.008985 0.027592 0.000000 0.000000 0.000000
# 4 0.000000 0.000000 0.000000 0.111610 0.000000 0.000000
# 5 0.000000 0.000000 0.000000 0.000000 0.045962 0.000000
# 6 0.000000 0.000000 0.000000 0.000000 0.000000 0.026493
#
#
# Mechanical properties :
#
#
# Convention : Reuss Voigt Hill
#
# Bulk Modulus (GPa) = 43.80734 63.34478 53.57606
# Shear Modulus (GPa) = 17.06194 22.99754 20.02974
#
# Velocity S-wave (km/s) = 3.08167 3.57777 3.33895
# Velocity P-wave (km/s) = 6.08650 7.23360 6.68470
#
# Compressibility (1/GPa) = 0.02282722
#
# Stress axis : x y z
#
# Youngs Moduli (GPa) = 44.17606 84.22733 36.24201
#
# Poissons Ratio (x) = 0.51080 0.16628
# Poissons Ratio (y) = 0.26791 0.32562
# Poissons Ratio (z) = 0.20268 0.75676
#
# Static dielectric constant tensor:
#      x y z
#    x 3.401470 0.000000 0.000000 
#    y 0.000000 3.353860 0.000000 
#    z 0.000000 0.000000 3.367480 
# 
# 
# High freq. dielectric constant tensor:
#      x y z
#    x 1.703770 0.000000 0.000000 
#    y 0.000000 1.703050 0.000000 
#    z 0.000000 0.000000 1.688190 
# 
# From -- ./inp_files/67674.got.cif
#   From: 2010.03.12/outbox.cif.g09.slc.cpg/sg65_34_cif.got.tgz:67674.got - 2010.04.10 20:52:16.
