data_PCOD8269539
_publ_section_title
;
Structure prediction by ZEFSAII (Michael W. Deem and Ramdas Pophale) SiO2 
 PCOD8269539
Probable space group: C M M M
;
_chemical_formula_sum "Si O2"
_cell_formula_units_Z 72
_cell_length_a 20.329038
_cell_length_b 19.900100
_cell_length_c 9.216463
_cell_angle_alpha 90.000000
_cell_angle_beta 90.000000
_cell_angle_gamma 90.000000
_cell_volume 3728.519085
_symmetry_space_group_name_H-M "C M M M"
_symmetry_group_IT_number 65
_symmetry_cell_setting 'orthorhombic'
loop_
_space_group_symop_operation_xyz
x,y,z
-x,-y,z
x,-y,-z
-x,y,-z
-x,-y,-z
x,y,-z
-x,y,z
x,-y,z
1/2+x,1/2+y,z
1/2-x,1/2-y,z
1/2+x,1/2-y,-z
1/2-x,1/2+y,-z
1/2-x,1/2-y,-z
1/2+x,1/2+y,-z
1/2-x,1/2+y,z
1/2+x,1/2-y,z
loop_
_atom_site_type_symbol
_atom_site_label
_atom_site_fract_x
_atom_site_fract_y
_atom_site_fract_z
Si Si1 0.500000 0.367357 0.327275
Si Si2 0.756033 0.329541 0.664782
Si Si3 0.577306 0.000000 0.661492
Si Si4 0.000000 0.271018 0.167494
Si Si5 0.862726 0.924861 0.671583
Si Si6 0.617855 0.869712 0.830866
O O1 0.500000 0.364758 0.500000
O O2 0.500000 0.292019 0.271288
O O3 0.565223 0.404789 0.267561
O O4 0.773592 0.352451 0.500000
O O5 0.750000 0.250000 0.668789
O O6 0.690770 0.369031 0.719722
O O7 0.811428 0.346059 0.780014
O O8 0.601481 0.064005 0.745572
O O9 0.500000 0.000000 0.653213
O O10 0.607909 0.000000 0.500000
O O11 0.064509 0.313374 0.206158
O O12 0.000000 0.248570 0.000000
O O13 0.866759 0.926182 0.500000
O O14 0.844301 0.000000 0.729323
O O15 0.618676 0.886436 0.000000
#
# Coordination Sequence:
#
# PCOD8269539 Si02
#       6
#     8  16   8   8  16  16
#     4  10  19  34  61  87 108 141 191 243 287 345
#     4  10  21  37  57  85 120 155 197 251 298 343
#     4  11  23  39  61  89 117 150 193 244 297 351
#     4  10  22  38  56  81 115 153 186 231 292 344
#     4   9  18  33  55  84 116 148 187 239 296 347
#     4  11  23  39  59  83 117 157 197 239 290 356
#
# _framework density 19.310616
#
# number of rings (size 3 to 8) (size 9 to 14) (size 15 to 20)
#    0.000    1.889    1.111    2.667    1.556    5.778 
#    0.000    1.111    0.000    2.667    0.000    0.000 
#    0.000    0.000    0.000    0.000    0.000    0.000 
#
# Total GULP energy -446362.635764 kJ/mol
# GULP energy per Si atom -12398.962105 kJ/mol
# Density = 1.926666 g / cm^3
# Si number density = 19.310616 Si / 1000 Ang^3
#
#
#
# Elastic Constant Matrix: (Units=GPa)
#
#
# Indices 1 2 3 4 5 6 
#
# 1 148.0351 62.9455 35.9452 0.0000 0.0000 0.0000
# 2 62.9455 138.8904 43.7291 0.0000 0.0000 0.0000
# 3 35.9452 43.7291 63.8352 0.0000 0.0000 0.0000
# 4 0.0000 0.0000 0.0000 -36.5937 0.0000 0.0000
# 5 0.0000 0.0000 0.0000 0.0000 29.2072 0.0000
# 6 0.0000 0.0000 0.0000 0.0000 0.0000 38.3275
#
#
#
# Elastic Compliance Matrix: (Units=1/GPa)
#
#
# Indices 1 2 3 4 5 6 
#
# 1 0.008748 -0.003077 -0.002818 0.000000 0.000000 0.000000
# 2 -0.003077 0.010262 -0.005297 0.000000 0.000000 0.000000
# 3 -0.002818 -0.005297 0.020881 0.000000 0.000000 0.000000
# 4 0.000000 0.000000 0.000000 -0.027327 0.000000 0.000000
# 5 0.000000 0.000000 0.000000 0.000000 0.034238 0.000000
# 6 0.000000 0.000000 0.000000 0.000000 0.000000 0.026091
#
#
# Mechanical properties :
#
#
# Convention : Reuss Voigt Hill
#
# Bulk Modulus (GPa) = 57.12229 70.66671 63.89450
# Shear Modulus (GPa) = 49.44953 20.06425 34.75689
#
# Velocity S-wave (km/s) = 5.06587 3.22689 4.24711
# Velocity P-wave (km/s) = 7.99139 7.11041 7.56374
#
# Compressibility (1/GPa) = 0.01750630
#
# Stress axis : x y z
#
# Youngs Moduli (GPa) = 114.31330 97.44296 47.89104
#
# Poissons Ratio (x) = 0.29987 0.13495
# Poissons Ratio (y) = 0.35179 0.25369
# Poissons Ratio (z) = 0.32211 0.51617
#
# Static dielectric constant tensor:
#      x y z
#    x 3.766760 0.000000 0.000000 
#    y 0.000000 4.994560 0.000000 
#    z 0.000000 0.000000 3.353470 
# 
# 
# High freq. dielectric constant tensor:
#      x y z
#    x 1.763180 0.000000 0.000000 
#    y 0.000000 1.766750 0.000000 
#    z 0.000000 0.000000 1.726060 
# 
# From -- ./inp_files/11333.got.cif
#   From: 2010.03.12/outbox.cif.g09.slc.cpg/sg65_6_cif.got.tgz:11333.got - 2010.04.10 20:52:16.
