data_PCOD8269760
_publ_section_title
;
Structure prediction by ZEFSAII (Michael W. Deem and Ramdas Pophale) SiO2 
 PCOD8269760
Probable space group: C M M M
;
_chemical_formula_sum "Si O2"
_cell_formula_units_Z 88
_cell_length_a 9.022657
_cell_length_b 30.038161
_cell_length_c 24.578143
_cell_angle_alpha 90.000000
_cell_angle_beta 90.000000
_cell_angle_gamma 90.000000
_cell_volume 6661.267209
_symmetry_space_group_name_H-M "C M M M"
_symmetry_group_IT_number 65
_symmetry_cell_setting 'orthorhombic'
loop_
_space_group_symop_operation_xyz
x,y,z
-x,-y,z
x,-y,-z
-x,y,-z
-x,-y,-z
x,y,-z
-x,y,z
x,-y,z
1/2+x,1/2+y,z
1/2-x,1/2-y,z
1/2+x,1/2-y,-z
1/2-x,1/2+y,-z
1/2-x,1/2-y,-z
1/2+x,1/2+y,-z
1/2-x,1/2+y,z
1/2+x,1/2-y,z
loop_
_atom_site_type_symbol
_atom_site_label
_atom_site_fract_x
_atom_site_fract_y
_atom_site_fract_z
Si Si1 0.165731 0.946970 0.251260
Si Si2 0.825200 0.000000 0.437117
Si Si3 0.172134 0.117538 0.063858
Si Si4 0.332649 0.206491 0.064772
Si Si5 0.671622 0.052234 0.142395
Si Si6 0.838419 0.549634 0.352648
O O1 0.257492 0.931266 0.198865
O O2 0.244457 0.926067 0.305202
O O3 0.000000 0.927147 0.247743
O O4 0.156979 0.000000 0.254884
O O5 0.755537 0.955351 0.409081
O O6 0.781454 0.000000 0.500000
O O7 0.000000 0.000000 0.427581
O O8 0.246756 0.162880 0.085430
O O9 0.247461 0.075665 0.092414
O O10 0.000000 0.119389 0.078762
O O11 0.198203 0.111426 0.000000
O O12 0.500000 0.205546 0.087400
O O13 0.250000 0.250000 0.088187
O O14 0.332628 0.208057 0.000000
O O15 0.500000 0.065372 0.142837
O O16 0.695464 0.000000 0.134179
O O17 0.868714 0.500000 0.330176
O O18 0.000000 0.572857 0.362552
#
# Coordination Sequence:
#
# PCOD8269760 Si02
#       6
#    16   8  16  16  16  16
#     4   9  15  24  38  51  64  82 110 144 177 211
#     4   9  15  21  29  43  63  85 108 135 172 215
#     4  10  20  32  44  58  76  96 119 147 181 222
#     4   9  16  27  44  63  80  96 114 137 169 211
#     4  10  20  31  42  55  72  94 122 153 186 223
#     4   8  14  21  31  44  60  80 104 135 170 208
#
# _framework density 13.210699
#
# number of rings (size 3 to 8) (size 9 to 14) (size 15 to 20)
#    0.545    2.273    0.000    2.727    0.000    7.636 
#    0.000    1.818    0.000    0.000    0.000    0.000 
#    0.000    0.000    0.000    0.000    0.000    0.000 
#
# Total GULP energy -545246.150434 kJ/mol
# GULP energy per Si atom -12391.957964 kJ/mol
# Density = 1.318063 g / cm^3
# Si number density = 13.210699 Si / 1000 Ang^3
#
#
#
# Elastic Constant Matrix: (Units=GPa)
#
#
# Indices 1 2 3 4 5 6 
#
# 1 133.8822 32.3070 54.5647 0.0000 0.0000 0.0000
# 2 32.3070 31.6238 26.8960 0.0000 0.0000 0.0000
# 3 54.5647 26.8960 67.1445 0.0000 0.0000 0.0000
# 4 0.0000 0.0000 0.0000 0.5440 0.0000 0.0000
# 5 0.0000 0.0000 0.0000 0.0000 21.8339 0.0000
# 6 0.0000 0.0000 0.0000 0.0000 0.0000 17.6356
#
#
#
# Elastic Compliance Matrix: (Units=1/GPa)
#
#
# Indices 1 2 3 4 5 6 
#
# 1 0.011862 -0.005945 -0.007258 0.000000 0.000000 0.000000
# 2 -0.005945 0.050941 -0.015574 0.000000 0.000000 0.000000
# 3 -0.007258 -0.015574 0.027030 0.000000 0.000000 0.000000
# 4 0.000000 0.000000 0.000000 1.838203 0.000000 0.000000
# 5 0.000000 0.000000 0.000000 0.000000 0.045800 0.000000
# 6 0.000000 0.000000 0.000000 0.000000 0.000000 0.056704
#
#
# Mechanical properties :
#
#
# Convention : Reuss Voigt Hill
#
# Bulk Modulus (GPa) = 30.98055 51.13176 41.05615
# Shear Modulus (GPa) = 2.38225 15.92822 9.15523
#
# Velocity S-wave (km/s) = 1.34432 3.47609 2.63538
# Velocity P-wave (km/s) = 5.09034 7.40944 6.35655
#
# Compressibility (1/GPa) = 0.03227832
#
# Stress axis : x y z
#
# Youngs Moduli (GPa) = 84.30290 19.63049 36.99590
#
# Poissons Ratio (x) = 0.11671 0.26852
# Poissons Ratio (y) = 0.50120 0.57618
# Poissons Ratio (z) = 0.61188 0.30573
#
# Static dielectric constant tensor:
#      x y z
#    x 2.946860 0.000000 0.000000 
#    y 0.000000 2.261200 0.000000 
#    z 0.000000 0.000000 2.482400 
# 
# 
# High freq. dielectric constant tensor:
#      x y z
#    x 1.531030 0.000000 0.000000 
#    y 0.000000 1.439480 0.000000 
#    z 0.000000 0.000000 1.479760 
# 
# From -- ./inp_files/74022.got.cif
#   From: 2010.03.12/outbox.cif.g09.slc.cpg/sg65_38_cif.got.tgz:74022.got - 2010.04.10 20:52:16.
