data_PCOD8269342
_publ_section_title
;
Structure prediction by ZEFSAII (Michael W. Deem and Ramdas Pophale) SiO2 
 PCOD8269342
Probable space group: C M M M
;
_chemical_formula_sum "Si O2"
_cell_formula_units_Z 88
_cell_length_a 27.365554
_cell_length_b 18.810409
_cell_length_c 9.049285
_cell_angle_alpha 90.000000
_cell_angle_beta 90.000000
_cell_angle_gamma 90.000000
_cell_volume 4658.185181
_symmetry_space_group_name_H-M "C M M M"
_symmetry_group_IT_number 65
_symmetry_cell_setting 'orthorhombic'
loop_
_space_group_symop_operation_xyz
x,y,z
-x,-y,z
x,-y,-z
-x,y,-z
-x,-y,-z
x,y,-z
-x,y,z
x,-y,z
1/2+x,1/2+y,z
1/2-x,1/2-y,z
1/2+x,1/2-y,-z
1/2-x,1/2+y,-z
1/2-x,1/2-y,-z
1/2+x,1/2+y,-z
1/2-x,1/2+y,z
1/2+x,1/2-y,z
loop_
_atom_site_type_symbol
_atom_site_label
_atom_site_fract_x
_atom_site_fract_y
_atom_site_fract_z
Si Si1 0.121840 0.917623 0.172283
Si Si2 0.000000 0.579867 0.324325
Si Si3 0.556180 0.688508 0.669352
Si Si4 0.904092 0.658473 0.327811
Si Si5 0.816125 0.417977 0.825786
Si Si6 0.781482 0.915623 0.666174
O O1 0.074628 0.874887 0.227072
O O2 0.169713 0.887246 0.254800
O O3 0.112668 0.000000 0.209382
O O4 0.129875 0.905409 0.000000
O O5 0.951763 0.618544 0.264909
O O6 0.000000 0.500000 0.263412
O O7 0.000000 0.583287 0.500000
O O8 0.561110 0.664014 0.500000
O O9 0.500000 0.705674 0.708024
O O10 0.588773 0.758007 0.698459
O O11 0.895495 0.640737 0.500000
O O12 0.858520 0.632008 0.234271
O O13 0.826368 0.500000 0.781144
O O14 0.765928 0.389473 0.754803
O O15 0.811737 0.409554 0.000000
O O16 0.779596 0.885020 0.500000
O O17 0.782654 0.000000 0.666023
#
# Coordination Sequence:
#
# PCOD8269342 Si02
#       6
#    16   8  16  16  16  16
#     4  10  21  37  58  84 112 141 176 220 272 333
#     4   9  16  28  51  79 104 135 180 230 271 309
#     4  10  21  38  58  80 109 144 183 229 278 324
#     4  10  19  34  54  78 107 143 187 230 272 320
#     4  10  20  33  51  79 115 150 183 223 271 322
#     4   9  17  32  56  83 109 140 179 223 272 323
#
# _framework density 18.891476999999998
#
# number of rings (size 3 to 8) (size 9 to 14) (size 15 to 20)
#    0.000    2.273    0.909    2.182    0.000    6.545 
#    0.000    3.182    0.000    7.091    0.000    0.000 
#    0.000    0.000    0.000    0.000    0.000    0.000 
#
# Total GULP energy -545712.793642 kJ/mol
# GULP energy per Si atom -12402.563492 kJ/mol
# Density = 1.884848 g / cm^3
# Si number density = 18.891477 Si / 1000 Ang^3
#
#
#
# Elastic Constant Matrix: (Units=GPa)
#
#
# Indices 1 2 3 4 5 6 
#
# 1 101.6938 40.8294 50.4328 0.0000 0.0000 0.0000
# 2 40.8294 67.6205 42.1658 0.0000 0.0000 0.0000
# 3 50.4328 42.1658 94.9886 0.0000 0.0000 0.0000
# 4 0.0000 0.0000 0.0000 23.6782 0.0000 0.0000
# 5 0.0000 0.0000 0.0000 0.0000 15.4824 0.0000
# 6 0.0000 0.0000 0.0000 0.0000 0.0000 16.9762
#
#
#
# Elastic Compliance Matrix: (Units=1/GPa)
#
#
# Indices 1 2 3 4 5 6 
#
# 1 0.014714 -0.005549 -0.005349 0.000000 0.000000 0.000000
# 2 -0.005549 0.022541 -0.007060 0.000000 0.000000 0.000000
# 3 -0.005349 -0.007060 0.016502 0.000000 0.000000 0.000000
# 4 0.000000 0.000000 0.000000 0.042233 0.000000 0.000000
# 5 0.000000 0.000000 0.000000 0.000000 0.064589 0.000000
# 6 0.000000 0.000000 0.000000 0.000000 0.000000 0.058906
#
#
# Mechanical properties :
#
#
# Convention : Reuss Voigt Hill
#
# Bulk Modulus (GPa) = 56.05101 59.01767 57.53434
# Shear Modulus (GPa) = 19.13157 19.95235 19.54196
#
# Velocity S-wave (km/s) = 3.18576 3.25338 3.21975
# Velocity P-wave (km/s) = 6.57773 6.73950 6.65910
#
# Compressibility (1/GPa) = 0.01784089
#
# Stress axis : x y z
#
# Youngs Moduli (GPa) = 67.96244 44.36312 60.60046
#
# Poissons Ratio (x) = 0.24617 0.32415
# Poissons Ratio (y) = 0.37712 0.42784
# Poissons Ratio (z) = 0.36353 0.31321
#
# Static dielectric constant tensor:
#      x y z
#    x 3.555900 0.000000 0.000000 
#    y 0.000000 3.240150 0.000000 
#    z 0.000000 0.000000 3.381960 
# 
# 
# High freq. dielectric constant tensor:
#      x y z
#    x 1.744040 0.000000 0.000000 
#    y 0.000000 1.712890 0.000000 
#    z 0.000000 0.000000 1.726730 
# 
# From -- ./inp_files/11834.got.cif
#   From: 2010.03.12/outbox.cif.g09.slc.cpg/sg65_6_cif.got.tgz:11834.got - 2010.04.10 20:52:16.
