data_PCOD8269703
_publ_section_title
;
Structure prediction by ZEFSAII (Michael W. Deem and Ramdas Pophale) SiO2 
 PCOD8269703
Probable space group: C M M M
;
_chemical_formula_sum "Si O2"
_cell_formula_units_Z 104
_cell_length_a 21.571917
_cell_length_b 29.752479
_cell_length_c 8.101121
_cell_angle_alpha 90.000000
_cell_angle_beta 90.000000
_cell_angle_gamma 90.000000
_cell_volume 5199.445339
_symmetry_space_group_name_H-M "C M M M"
_symmetry_group_IT_number 65
_symmetry_cell_setting 'orthorhombic'
loop_
_space_group_symop_operation_xyz
x,y,z
-x,-y,z
x,-y,-z
-x,y,-z
-x,-y,-z
x,y,-z
-x,y,z
x,-y,z
1/2+x,1/2+y,z
1/2-x,1/2-y,z
1/2+x,1/2-y,-z
1/2-x,1/2+y,-z
1/2-x,1/2-y,-z
1/2+x,1/2+y,-z
1/2-x,1/2+y,z
1/2+x,1/2-y,z
loop_
_atom_site_type_symbol
_atom_site_label
_atom_site_fract_x
_atom_site_fract_y
_atom_site_fract_z
Si Si1 0.764340 0.368101 0.693660
Si Si2 0.427281 0.549734 0.188568
Si Si3 0.932398 0.447144 0.000000
Si Si4 0.149840 0.552040 0.309115
Si Si5 0.568992 0.276184 0.190205
Si Si6 0.810443 0.724497 0.693648
Si Si7 0.127825 0.137084 0.688356
O O1 0.755997 0.364175 0.500000
O O2 0.791565 0.417019 0.736396
O O3 0.808271 0.327329 0.757636
O O4 0.696080 0.362433 0.771311
O O5 0.500000 0.550805 0.216054
O O6 0.402066 0.500000 0.235142
O O7 0.396878 0.586375 0.306549
O O8 0.410446 0.561183 0.000000
O O9 0.900576 0.433003 0.826995
O O10 0.938575 0.500000 0.000000
O O11 0.000000 0.424226 0.000000
O O12 0.126918 0.560485 0.500000
O O13 0.169105 0.500000 0.286754
O O14 0.500000 0.266129 0.266365
O O15 0.623231 0.245768 0.265510
O O16 0.583714 0.328872 0.213593
O O17 0.566459 0.264638 0.000000
O O18 0.803243 0.726039 0.500000
O O19 0.750000 0.750000 0.770630
O O20 0.129527 0.153698 0.500000
#
# Coordination Sequence:
#
# PCOD8269703 Si02
#       7
#    16  16   8  16  16  16  16
#     4   9  19  36  57  82 111 144 184 230 285 345
#     4   9  19  36  53  72 108 153 191 233 286 339
#     4   9  18  34  56  84 113 144 193 243 280 341
#     4   9  18  35  57  82 118 157 188 232 294 350
#     4  11  24  40  57  83 119 152 188 237 291 348
#     4  10  19  38  63  84 110 146 191 241 289 343
#     4  11  21  35  57  84 111 144 192 242 286 337
#
# _framework density 20.002133000000001
#
# number of rings (size 3 to 8) (size 9 to 14) (size 15 to 20)
#    0.000    2.231    1.538    1.846    0.000    4.923 
#    4.154    4.615    0.000    2.769    0.000    0.000 
#    0.000    0.000    0.000    0.000    0.000    0.000 
#
# Total GULP energy -644364.894689 kJ/mol
# GULP energy per Si atom -12391.632590 kJ/mol
# Density = 1.995661 g / cm^3
# Si number density = 20.002133 Si / 1000 Ang^3
#
#
#
# Elastic Constant Matrix: (Units=GPa)
#
#
# Indices 1 2 3 4 5 6 
#
# 1 132.3112 57.6783 24.0966 0.0000 0.0000 0.0000
# 2 57.6783 118.5510 14.7384 0.0000 0.0000 0.0000
# 3 24.0966 14.7384 48.6703 0.0000 0.0000 0.0000
# 4 0.0000 0.0000 0.0000 21.6549 0.0000 0.0000
# 5 0.0000 0.0000 0.0000 0.0000 34.6026 0.0000
# 6 0.0000 0.0000 0.0000 0.0000 0.0000 33.8108
#
#
#
# Elastic Compliance Matrix: (Units=1/GPa)
#
#
# Indices 1 2 3 4 5 6 
#
# 1 0.010190 -0.004500 -0.003682 0.000000 0.000000 0.000000
# 2 -0.004500 0.010752 -0.001028 0.000000 0.000000 0.000000
# 3 -0.003682 -0.001028 0.022681 0.000000 0.000000 0.000000
# 4 0.000000 0.000000 0.000000 0.046179 0.000000 0.000000
# 5 0.000000 0.000000 0.000000 0.000000 0.028900 0.000000
# 6 0.000000 0.000000 0.000000 0.000000 0.000000 0.029576
#
#
# Mechanical properties :
#
#
# Convention : Reuss Voigt Hill
#
# Bulk Modulus (GPa) = 39.67881 54.72879 47.20380
# Shear Modulus (GPa) = 28.55505 31.54828 30.05166
#
# Velocity S-wave (km/s) = 3.78246 3.97576 3.88032
# Velocity P-wave (km/s) = 6.24150 6.96394 6.61259
#
# Compressibility (1/GPa) = 0.02520237
#
# Stress axis : x y z
#
# Youngs Moduli (GPa) = 98.13261 93.00254 44.08990
#
# Poissons Ratio (x) = 0.41852 0.16236
# Poissons Ratio (y) = 0.44160 0.04533
# Poissons Ratio (z) = 0.36137 0.09562
#
# Static dielectric constant tensor:
#      x y z
#    x 3.918630 0.000000 0.000000 
#    y 0.000000 8.428910 0.000000 
#    z 0.000000 0.000000 3.532860 
# 
# 
# High freq. dielectric constant tensor:
#      x y z
#    x 1.772750 0.000000 0.000000 
#    y 0.000000 1.780910 0.000000 
#    z 0.000000 0.000000 1.765830 
# 
# From -- ./inp_files/12851.got.cif
#   From: 2010.03.12/outbox.cif.g09.slc.cpg/sg65_7_cif.got.tgz:12851.got - 2010.04.10 20:52:16.
