data_PCOD8269592
_publ_section_title
;
Structure prediction by ZEFSAII (Michael W. Deem and Ramdas Pophale) SiO2 
 PCOD8269592
Probable space group: C M M M
;
_chemical_formula_sum "Si O2"
_cell_formula_units_Z 96
_cell_length_a 23.399651
_cell_length_b 25.534234
_cell_length_c 9.043192
_cell_angle_alpha 90.000000
_cell_angle_beta 90.000000
_cell_angle_gamma 90.000000
_cell_volume 5403.236359
_symmetry_space_group_name_H-M "C M M M"
_symmetry_group_IT_number 65
_symmetry_cell_setting 'orthorhombic'
loop_
_space_group_symop_operation_xyz
x,y,z
-x,-y,z
x,-y,-z
-x,y,-z
-x,-y,-z
x,y,-z
-x,y,z
x,-y,z
1/2+x,1/2+y,z
1/2-x,1/2-y,z
1/2+x,1/2-y,-z
1/2-x,1/2+y,-z
1/2-x,1/2-y,-z
1/2+x,1/2+y,-z
1/2-x,1/2+y,z
1/2+x,1/2-y,z
loop_
_atom_site_type_symbol
_atom_site_label
_atom_site_fract_x
_atom_site_fract_y
_atom_site_fract_z
Si Si1 0.066550 0.689793 0.671698
Si Si2 0.366062 0.900384 0.175337
Si Si3 0.563065 0.693021 0.675110
Si Si4 0.869836 0.906788 0.325763
Si Si5 0.756266 0.560556 0.673506
Si Si6 0.067282 0.000000 0.830406
Si Si7 0.936142 0.500000 0.175797
O O1 0.081901 0.681673 0.500000
O O2 0.105626 0.652857 0.770432
O O3 0.081114 0.748742 0.725680
O O4 0.000000 0.677285 0.699758
O O5 0.302774 0.905770 0.239680
O O6 0.403711 0.948841 0.235075
O O7 0.362569 0.900012 0.000000
O O8 0.558839 0.693297 0.500000
O O9 0.500000 0.678982 0.739208
O O10 0.609660 0.650650 0.728542
O O11 0.878243 0.914489 0.500000
O O12 0.804191 0.914513 0.281247
O O13 0.908891 0.948657 0.246240
O O14 0.767755 0.565577 0.500000
O O15 0.757731 0.500000 0.723763
O O16 0.000000 0.000000 0.811549
O O17 0.086495 0.000000 0.000000
O O18 0.000000 0.500000 0.241921
O O19 0.938012 0.500000 0.000000
#
# Coordination Sequence:
#
# PCOD8269592 Si02
#       7
#    16  16  16  16  16   8   8
#     4   9  18  34  55  80 109 138 169 214 271 319
#     4  11  21  34  53  76 103 140 180 214 258 315
#     4   8  15  30  55  83 107 133 171 220 269 314
#     4  10  19  35  58  81 102 136 185 227 262 309
#     4  10  20  35  53  76 106 137 174 222 268 310
#     4  11  23  34  47  76 116 147 170 211 272 327
#     4   9  18  31  47  70  98 123 158 211 258 299
#
# _framework density 17.767129000000001
#
# number of rings (size 3 to 8) (size 9 to 14) (size 15 to 20)
#    0.000    2.333    1.667    2.750    0.000    3.000 
#    0.000    1.667    0.000    8.000    0.000    0.000 
#    0.000    0.000    0.000    0.000    0.000    0.000 
#
# Total GULP energy -595206.228126 kJ/mol
# GULP energy per Si atom -12400.129753 kJ/mol
# Density = 1.772669 g / cm^3
# Si number density = 17.767129 Si / 1000 Ang^3
#
#
#
# Elastic Constant Matrix: (Units=GPa)
#
#
# Indices 1 2 3 4 5 6 
#
# 1 111.6812 72.8169 34.1398 0.0000 0.0000 0.0000
# 2 72.8169 140.7660 31.6123 0.0000 0.0000 0.0000
# 3 34.1398 31.6123 38.0138 0.0000 0.0000 0.0000
# 4 0.0000 0.0000 0.0000 2.9825 0.0000 0.0000
# 5 0.0000 0.0000 0.0000 0.0000 18.2037 0.0000
# 6 0.0000 0.0000 0.0000 0.0000 0.0000 18.2438
#
#
#
# Elastic Compliance Matrix: (Units=1/GPa)
#
#
# Indices 1 2 3 4 5 6 
#
# 1 0.015679 -0.006085 -0.009021 0.000000 0.000000 0.000000
# 2 -0.006085 0.011097 -0.003763 0.000000 0.000000 0.000000
# 3 -0.009021 -0.003763 0.037538 0.000000 0.000000 0.000000
# 4 0.000000 0.000000 0.000000 0.335287 0.000000 0.000000
# 5 0.000000 0.000000 0.000000 0.000000 0.054934 0.000000
# 6 0.000000 0.000000 0.000000 0.000000 0.000000 0.054813
#
#
# Mechanical properties :
#
#
# Convention : Reuss Voigt Hill
#
# Bulk Modulus (GPa) = 37.62947 63.06654 50.34800
# Shear Modulus (GPa) = 8.99371 18.01214 13.50292
#
# Velocity S-wave (km/s) = 2.25233 3.18746 2.75979
# Velocity P-wave (km/s) = 5.29048 7.00855 6.20923
#
# Compressibility (1/GPa) = 0.02657492
#
# Stress axis : x y z
#
# Youngs Moduli (GPa) = 63.77965 90.11688 26.63991
#
# Poissons Ratio (x) = 0.54833 0.24032
# Poissons Ratio (y) = 0.38808 0.10026
# Poissons Ratio (z) = 0.57536 0.33915
#
# Static dielectric constant tensor:
#      x y z
#    x 3.368210 0.000000 0.000000 
#    y 0.000000 3.555340 0.000000 
#    z 0.000000 0.000000 3.020370 
# 
# 
# High freq. dielectric constant tensor:
#      x y z
#    x 1.690390 0.000000 0.000000 
#    y 0.000000 1.692720 0.000000 
#    z 0.000000 0.000000 1.661850 
# 
# From -- ./inp_files/14372.got.cif
#   From: 2010.03.12/outbox.cif.g09.slc.cpg/sg65_8_cif.got.tgz:14372.got - 2010.04.10 20:52:16.
