data_PCOD8269572
_publ_section_title
;
Structure prediction by ZEFSAII (Michael W. Deem and Ramdas Pophale) SiO2 
 PCOD8269572
Probable space group: C M M M
;
_chemical_formula_sum "Si O2"
_cell_formula_units_Z 120
_cell_length_a 26.927033
_cell_length_b 16.675775
_cell_length_c 14.064361
_cell_angle_alpha 90.000000
_cell_angle_beta 90.000000
_cell_angle_gamma 90.000000
_cell_volume 6315.307977
_symmetry_space_group_name_H-M "C M M M"
_symmetry_group_IT_number 65
_symmetry_cell_setting 'orthorhombic'
loop_
_space_group_symop_operation_xyz
x,y,z
-x,-y,z
x,-y,-z
-x,y,-z
-x,-y,-z
x,y,-z
-x,y,z
x,-y,z
1/2+x,1/2+y,z
1/2-x,1/2-y,z
1/2+x,1/2-y,-z
1/2-x,1/2+y,-z
1/2-x,1/2-y,-z
1/2+x,1/2+y,-z
1/2-x,1/2+y,z
1/2+x,1/2-y,z
loop_
_atom_site_type_symbol
_atom_site_label
_atom_site_fract_x
_atom_site_fract_y
_atom_site_fract_z
Si Si1 0.801055 0.160355 0.390887
Si Si2 0.058131 0.000000 0.887053
Si Si3 0.055157 0.248115 0.611907
Si Si4 0.402615 0.584544 0.390996
Si Si5 0.784018 0.590454 0.728940
Si Si6 0.361523 0.781643 0.732576
Si Si7 0.616653 0.339413 0.107086
Si Si8 0.232950 0.838696 0.104813
O O1 0.796736 0.191247 0.500000
O O2 0.843045 0.091876 0.383284
O O3 0.747479 0.128367 0.358091
O O4 0.818890 0.230030 0.320026
O O5 0.087012 0.081771 0.852602
O O6 0.000000 0.000000 0.853328
O O7 0.060873 0.000000 0.000000
O O8 0.063402 0.250623 0.500000
O O9 0.068489 0.159598 0.654411
O O10 0.094201 0.307188 0.660671
O O11 0.000000 0.272430 0.641406
O O12 0.419116 0.580296 0.500000
O O13 0.418019 0.500000 0.340755
O O14 0.797218 0.500000 0.701518
O O15 0.835137 0.635222 0.756250
O O16 0.752401 0.593172 0.825260
O O17 0.387681 0.737159 0.822362
O O18 0.674856 0.355466 0.102029
O O19 0.597273 0.317836 0.000000
O O20 0.250000 0.750000 0.142162
O O21 0.256122 0.850180 0.000000
#
# Coordination Sequence:
#
# PCOD8269572 Si02
#       8
#    16   8  16  16  16  16  16  16
#     4  10  20  35  53  73 104 149 192 228 277 341
#     4   9  20  38  58  86 121 153 189 233 281 338
#     4   9  19  35  54  75 100 136 182 231 281 334
#     4   8  14  26  45  70 101 134 166 207 259 316
#     4  12  24  35  52  80 112 146 187 236 288 339
#     4  11  21  37  56  79 108 144 188 232 282 345
#     4  10  20  35  58  81 112 155 193 230 277 332
#     4  10  19  35  56  81 112 149 192 230 272 333
#
# _framework density 19.001448
#
# number of rings (size 3 to 8) (size 9 to 14) (size 15 to 20)
#    0.000    2.067    2.667    2.000    0.933    3.467 
#    4.800    1.333    0.000    0.400    0.000    0.933 
#    0.000    0.000    0.000    5.733    0.000    0.000 
#
# Total GULP energy -743342.367101 kJ/mol
# GULP energy per Si atom -12389.039452 kJ/mol
# Density = 1.895820 g / cm^3
# Si number density = 19.001448 Si / 1000 Ang^3
#
#
#
# Elastic Constant Matrix: (Units=GPa)
#
#
# Indices 1 2 3 4 5 6 
#
# 1 97.8895 39.2681 26.7497 0.0000 0.0000 0.0000
# 2 39.2681 54.2677 23.7880 0.0000 0.0000 0.0000
# 3 26.7497 23.7880 62.4890 0.0000 0.0000 0.0000
# 4 0.0000 0.0000 0.0000 14.6464 0.0000 0.0000
# 5 0.0000 0.0000 0.0000 0.0000 16.7173 0.0000
# 6 0.0000 0.0000 0.0000 0.0000 0.0000 18.8266
#
#
#
# Elastic Compliance Matrix: (Units=1/GPa)
#
#
# Indices 1 2 3 4 5 6 
#
# 1 0.014765 -0.009498 -0.002705 0.000000 0.000000 0.000000
# 2 -0.009498 0.028228 -0.006680 0.000000 0.000000 0.000000
# 3 -0.002705 -0.006680 0.019703 0.000000 0.000000 0.000000
# 4 0.000000 0.000000 0.000000 0.068276 0.000000 0.000000
# 5 0.000000 0.000000 0.000000 0.000000 0.059818 0.000000
# 6 0.000000 0.000000 0.000000 0.000000 0.000000 0.053116
#
#
# Mechanical properties :
#
#
# Convention : Reuss Voigt Hill
#
# Bulk Modulus (GPa) = 40.11073 43.80642 41.95857
# Shear Modulus (GPa) = 17.24237 18.36074 17.80156
#
# Velocity S-wave (km/s) = 3.01562 3.11188 3.06413
# Velocity P-wave (km/s) = 5.76892 6.00134 5.88627
#
# Compressibility (1/GPa) = 0.02493099
#
# Stress axis : x y z
#
# Youngs Moduli (GPa) = 67.72822 35.42556 50.75254
#
# Poissons Ratio (x) = 0.33648 0.13727
# Poissons Ratio (y) = 0.64330 0.33902
# Poissons Ratio (z) = 0.18318 0.23664
#
# Static dielectric constant tensor:
#      x y z
#    x 3.468340 0.000000 0.000000 
#    y 0.000000 3.286620 0.000000 
#    z 0.000000 0.000000 3.701910 
# 
# 
# High freq. dielectric constant tensor:
#      x y z
#    x 1.721910 0.000000 0.000000 
#    y 0.000000 1.696550 0.000000 
#    z 0.000000 0.000000 1.746960 
# 
# From -- ./inp_files/48075.got.cif
#   From: 2010.03.12/outbox.cif.g09.slc.cpg/sg65_25_cif.got.tgz:48075.got - 2010.04.10 20:52:16.
