data_PCOD8269381
_publ_section_title
;
Structure prediction by ZEFSAII (Michael W. Deem and Ramdas Pophale) SiO2 
 PCOD8269381
Probable space group: C M M M
;
_chemical_formula_sum "Si O2"
_cell_formula_units_Z 88
_cell_length_a 27.667047
_cell_length_b 19.032596
_cell_length_c 8.926477
_cell_angle_alpha 90.000000
_cell_angle_beta 90.000000
_cell_angle_gamma 90.000000
_cell_volume 4700.466125
_symmetry_space_group_name_H-M "C M M M"
_symmetry_group_IT_number 65
_symmetry_cell_setting 'orthorhombic'
loop_
_space_group_symop_operation_xyz
x,y,z
-x,-y,z
x,-y,-z
-x,y,-z
-x,-y,-z
x,y,-z
-x,y,z
x,-y,z
1/2+x,1/2+y,z
1/2-x,1/2-y,z
1/2+x,1/2-y,-z
1/2-x,1/2+y,-z
1/2-x,1/2-y,-z
1/2+x,1/2+y,-z
1/2-x,1/2+y,z
1/2+x,1/2-y,z
loop_
_atom_site_type_symbol
_atom_site_label
_atom_site_fract_x
_atom_site_fract_y
_atom_site_fract_z
Si Si1 0.624410 0.304361 0.321176
Si Si2 0.599128 0.850586 0.678147
Si Si3 0.310643 0.081245 0.172184
Si Si4 0.500000 0.079951 0.678208
Si Si5 0.268584 0.328507 0.331191
Si Si6 0.553968 0.577595 0.678159
O O1 0.624107 0.302581 0.500000
O O2 0.607798 0.228287 0.260324
O O3 0.677421 0.325956 0.263905
O O4 0.588426 0.362783 0.253794
O O5 0.600570 0.851941 0.500000
O O6 0.641578 0.900372 0.735480
O O7 0.547620 0.879476 0.737645
O O8 0.264107 0.123662 0.226714
O O9 0.298790 0.000000 0.196215
O O10 0.320284 0.099881 0.000000
O O11 0.500000 0.079241 0.500000
O O12 0.500000 0.000000 0.739811
O O13 0.267757 0.359470 0.500000
O O14 0.250000 0.250000 0.333188
O O15 0.554266 0.582174 0.500000
O O16 0.500000 0.591363 0.738474
O O17 0.571698 0.500000 0.728788
#
# Coordination Sequence:
#
# PCOD8269381 Si02
#       6
#    16  16  16   8  16  16
#     4   9  17  28  47  74 103 135 173 214 258 313
#     4  10  19  34  55  80 109 140 177 224 271 317
#     4  11  24  39  55  78 107 142 183 221 266 325
#     4   9  18  30  49  79 108 136 174 219 271 325
#     4  10  19  35  55  79 107 136 176 221 267 316
#     4   8  14  24  39  64 101 139 168 199 248 309
#
# _framework density 18.721547999999999
#
# number of rings (size 3 to 8) (size 9 to 14) (size 15 to 20)
#    0.000    2.455    1.818    1.636    1.273    3.273 
#    0.000    2.273    0.000    1.636    0.000    0.000 
#    0.000    0.000    0.000    6.000    0.000    5.091 
#
# Total GULP energy -545523.961513 kJ/mol
# GULP energy per Si atom -12398.271853 kJ/mol
# Density = 1.867894 g / cm^3
# Si number density = 18.721548 Si / 1000 Ang^3
#
#
#
# Elastic Constant Matrix: (Units=GPa)
#
#
# Indices 1 2 3 4 5 6 
#
# 1 161.8622 77.6948 18.4721 0.0000 0.0000 0.0000
# 2 77.6948 114.4091 24.8356 0.0000 0.0000 0.0000
# 3 18.4721 24.8356 19.9622 0.0000 0.0000 0.0000
# 4 0.0000 0.0000 0.0000 11.3091 0.0000 0.0000
# 5 0.0000 0.0000 0.0000 0.0000 4.2466 0.0000
# 6 0.0000 0.0000 0.0000 0.0000 0.0000 41.7807
#
#
#
# Elastic Compliance Matrix: (Units=1/GPa)
#
#
# Indices 1 2 3 4 5 6 
#
# 1 0.009181 -0.006015 -0.001012 0.000000 0.000000 0.000000
# 2 -0.006015 0.015915 -0.014235 0.000000 0.000000 0.000000
# 3 -0.001012 -0.014235 0.068741 0.000000 0.000000 0.000000
# 4 0.000000 0.000000 0.000000 0.088424 0.000000 0.000000
# 5 0.000000 0.000000 0.000000 0.000000 0.235481 0.000000
# 6 0.000000 0.000000 0.000000 0.000000 0.000000 0.023935
#
#
# Mechanical properties :
#
#
# Convention : Reuss Voigt Hill
#
# Bulk Modulus (GPa) = 19.48802 59.80429 39.64615
# Shear Modulus (GPa) = 9.97397 23.14935 16.56166
#
# Velocity S-wave (km/s) = 2.31065 3.52022 2.97750
# Velocity P-wave (km/s) = 4.18937 6.96678 5.74834
#
# Compressibility (1/GPa) = 0.05131358
#
# Stress axis : x y z
#
# Youngs Moduli (GPa) = 108.92280 62.83240 14.54732
#
# Poissons Ratio (x) = 0.37793 0.01472
# Poissons Ratio (y) = 0.65517 0.20708
# Poissons Ratio (z) = 0.11024 0.89441
#
# Static dielectric constant tensor:
#      x y z
#    x 3.635280 0.000000 0.000000 
#    y 0.000000 3.681830 0.000000 
#    z 0.000000 0.000000 2.917180 
# 
# 
# High freq. dielectric constant tensor:
#      x y z
#    x 1.741140 0.000000 0.000000 
#    y 0.000000 1.738250 0.000000 
#    z 0.000000 0.000000 1.667590 
# 
# From -- ./inp_files/10169.got.cif
#   From: 2010.03.12/outbox.cif.g09.slc.cpg/sg65_6_cif.got.tgz:10169.got - 2010.04.10 20:52:16.
