data_PCOD8269491
_publ_section_title
;
Structure prediction by ZEFSAII (Michael W. Deem and Ramdas Pophale) SiO2 
 PCOD8269491
Probable space group: C M M M
;
_chemical_formula_sum "Si O2"
_cell_formula_units_Z 72
_cell_length_a 18.421757
_cell_length_b 15.659138
_cell_length_c 13.229134
_cell_angle_alpha 90.000000
_cell_angle_beta 90.000000
_cell_angle_gamma 90.000000
_cell_volume 3816.192874
_symmetry_space_group_name_H-M "C M M M"
_symmetry_group_IT_number 65
_symmetry_cell_setting 'orthorhombic'
loop_
_space_group_symop_operation_xyz
x,y,z
-x,-y,z
x,-y,-z
-x,y,-z
-x,-y,-z
x,y,-z
-x,y,z
x,-y,z
1/2+x,1/2+y,z
1/2-x,1/2-y,z
1/2+x,1/2-y,-z
1/2-x,1/2+y,-z
1/2-x,1/2-y,-z
1/2+x,1/2+y,-z
1/2-x,1/2+y,z
1/2+x,1/2-y,z
loop_
_atom_site_type_symbol
_atom_site_label
_atom_site_fract_x
_atom_site_fract_y
_atom_site_fract_z
Si Si1 0.669417 0.660327 0.312554
Si Si2 0.915997 0.597285 0.207887
Si Si3 0.835929 0.752183 0.110914
Si Si4 0.828204 0.655586 0.384200
Si Si5 0.080122 0.000000 0.381506
O O1 0.644443 0.679500 0.197329
O O2 0.753832 0.635050 0.323877
O O3 0.655483 0.743217 0.382105
O O4 0.620555 0.583993 0.347650
O O5 0.904490 0.500000 0.171276
O O6 0.868485 0.659278 0.137420
O O7 0.891458 0.605586 0.325218
O O8 0.000000 0.623801 0.200006
O O9 0.750000 0.750000 0.107753
O O10 0.865712 0.779825 0.000000
O O11 0.824128 0.623926 0.500000
O O12 0.075273 0.000000 0.500000
O O13 0.000000 0.000000 0.333309
#
# Coordination Sequence:
#
# PCOD8269491 Si02
#       5
#    16  16  16  16   8
#     4  10  19  37  57  84 114 150 193 241 287 342
#     4  10  22  38  56  84 121 155 189 236 289 344
#     4  10  20  39  63  86 111 147 194 242 294 346
#     4  10  19  34  57  84 114 153 194 235 285 344
#     4  11  24  38  57  87 122 158 194 235 285 345
#
# _framework density 18.866972000000001
#
# number of rings (size 3 to 8) (size 9 to 14) (size 15 to 20)
#    0.000    1.889    4.444    2.667    1.556    5.333 
#    0.000    2.778    0.000    0.667    0.000    0.000 
#    0.000    0.000    0.000    0.000    0.000    0.000 
#
# Total GULP energy -446246.395083 kJ/mol
# GULP energy per Si atom -12395.733197 kJ/mol
# Density = 1.882403 g / cm^3
# Si number density = 18.866972 Si / 1000 Ang^3
#
#
#
# Elastic Constant Matrix: (Units=GPa)
#
#
# Indices 1 2 3 4 5 6 
#
# 1 114.6421 76.8409 33.8007 0.0000 0.0000 0.0000
# 2 76.8409 93.2243 28.1929 0.0000 0.0000 0.0000
# 3 33.8007 28.1929 130.8779 0.0000 0.0000 0.0000
# 4 0.0000 0.0000 0.0000 16.2722 0.0000 0.0000
# 5 0.0000 0.0000 0.0000 0.0000 440.2862 0.0000
# 6 0.0000 0.0000 0.0000 0.0000 0.0000 27.0887
#
#
#
# Elastic Compliance Matrix: (Units=1/GPa)
#
#
# Indices 1 2 3 4 5 6 
#
# 1 0.019844 -0.015838 -0.001713 0.000000 0.000000 0.000000
# 2 -0.015838 0.024116 -0.001104 0.000000 0.000000 0.000000
# 3 -0.001713 -0.001104 0.008321 0.000000 0.000000 0.000000
# 4 0.000000 0.000000 0.000000 0.061454 0.000000 0.000000
# 5 0.000000 0.000000 0.000000 0.000000 0.002271 0.000000
# 6 0.000000 0.000000 0.000000 0.000000 0.000000 0.036916
#
#
# Mechanical properties :
#
#
# Convention : Reuss Voigt Hill
#
# Bulk Modulus (GPa) = 66.80546 68.49036 67.64791
# Shear Modulus (GPa) = 25.61168 110.05675 67.83422
#
# Velocity S-wave (km/s) = 3.68841 7.64589 6.00267
# Velocity P-wave (km/s) = 7.32289 10.69237 9.16383
#
# Compressibility (1/GPa) = 0.01496884
#
# Stress axis : x y z
#
# Youngs Moduli (GPa) = 50.39356 41.46678 120.17730
#
# Poissons Ratio (x) = 0.65676 0.20588
# Poissons Ratio (y) = 0.79815 0.13273
# Poissons Ratio (z) = 0.08633 0.04580
#
# Static dielectric constant tensor:
#      x y z
#    x 3.484210 0.000000 0.000000 
#    y 0.000000 3.197360 0.000000 
#    z 0.000000 0.000000 3.951410 
# 
# 
# High freq. dielectric constant tensor:
#      x y z
#    x 1.727460 0.000000 0.000000 
#    y 0.000000 1.721230 0.000000 
#    z 0.000000 0.000000 1.734620 
# 
# From -- ./inp_files/39818.got.cif
#   From: 2010.03.12/outbox.cif.g09.slc.cpg/sg65_20_cif.got.tgz:39818.got - 2010.04.10 20:52:16.
