data_PCOD8269943
_publ_section_title
;
Structure prediction by ZEFSAII (Michael W. Deem and Ramdas Pophale) SiO2 
 PCOD8269943
Probable space group: C M M M
;
_chemical_formula_sum "Si O2"
_cell_formula_units_Z 88
_cell_length_a 8.999281
_cell_length_b 31.800521
_cell_length_c 16.575294
_cell_angle_alpha 90.000000
_cell_angle_beta 90.000000
_cell_angle_gamma 90.000000
_cell_volume 4743.547877
_symmetry_space_group_name_H-M "C M M M"
_symmetry_group_IT_number 65
_symmetry_cell_setting 'orthorhombic'
loop_
_space_group_symop_operation_xyz
x,y,z
-x,-y,z
x,-y,-z
-x,y,-z
-x,-y,-z
x,y,-z
-x,y,z
x,-y,z
1/2+x,1/2+y,z
1/2-x,1/2-y,z
1/2+x,1/2-y,-z
1/2-x,1/2+y,-z
1/2-x,1/2-y,-z
1/2+x,1/2+y,-z
1/2-x,1/2+y,z
1/2+x,1/2-y,z
loop_
_atom_site_type_symbol
_atom_site_label
_atom_site_fract_x
_atom_site_fract_y
_atom_site_fract_z
Si Si1 0.671450 0.207072 0.904744
Si Si2 0.666633 0.060533 0.410389
Si Si3 0.327192 0.545699 0.248294
Si Si4 0.667374 0.153007 0.645731
Si Si5 0.175666 0.293486 0.500000
Si Si6 0.175061 0.135558 0.194968
O O1 0.500000 0.209033 0.878158
O O2 0.750000 0.250000 0.872385
O O3 0.743774 0.163926 0.871749
O O4 0.689601 0.204514 0.000000
O O5 0.728440 0.048314 0.500000
O O6 0.500000 0.042795 0.401371
O O7 0.762532 0.041611 0.338129
O O8 0.665616 0.110216 0.403412
O O9 0.500000 0.553615 0.259826
O O10 0.295903 0.500000 0.205358
O O11 0.268067 0.586032 0.195962
O O12 0.500000 0.163409 0.677157
O O13 0.731803 0.185710 0.582179
O O14 0.783376 0.154395 0.718594
O O15 0.250000 0.250000 0.500000
O O16 0.000000 0.292411 0.500000
O O17 0.000000 0.138450 0.178962
#
# Coordination Sequence:
#
# PCOD8269943 Si02
#       6
#    16  16  16  16   8  16
#     4  10  21  38  61  88 115 140 167 205 256 314
#     4   9  16  28  47  67  89 123 171 224 273 318
#     4   9  19  34  49  70 103 141 180 221 265 313
#     4   9  17  32  49  65  92 132 175 217 263 312
#     4  10  20  32  46  64  89 126 169 215 264 309
#     4  10  20  34  55  81 107 140 179 217 262 313
#
# _framework density 18.551514999999998
#
# number of rings (size 3 to 8) (size 9 to 14) (size 15 to 20)
#    0.000    2.545    0.909    1.091    0.000    4.364 
#    0.000    3.636    0.000    0.545    0.000    3.818 
#    0.000    0.000    0.000    0.000    0.000    0.000 
#
# Total GULP energy -545089.303277 kJ/mol
# GULP energy per Si atom -12388.393256 kJ/mol
# Density = 1.850929 g / cm^3
# Si number density = 18.551515 Si / 1000 Ang^3
#
#
#
# Elastic Constant Matrix: (Units=GPa)
#
#
# Indices 1 2 3 4 5 6 
#
# 1 62.7931 43.9716 26.5672 0.0000 0.0000 0.0000
# 2 43.9716 143.3993 41.4692 0.0000 0.0000 0.0000
# 3 26.5672 41.4692 44.8935 0.0000 0.0000 0.0000
# 4 0.0000 0.0000 0.0000 32.1639 0.0000 0.0000
# 5 0.0000 0.0000 0.0000 0.0000 25.7268 0.0000
# 6 0.0000 0.0000 0.0000 0.0000 0.0000 15.9459
#
#
#
# Elastic Compliance Matrix: (Units=1/GPa)
#
#
# Indices 1 2 3 4 5 6 
#
# 1 0.023000 -0.004252 -0.009683 0.000000 0.000000 0.000000
# 2 -0.004252 0.010302 -0.006999 0.000000 0.000000 0.000000
# 3 -0.009683 -0.006999 0.034470 0.000000 0.000000 0.000000
# 4 0.000000 0.000000 0.000000 0.031091 0.000000 0.000000
# 5 0.000000 0.000000 0.000000 0.000000 0.038870 0.000000
# 6 0.000000 0.000000 0.000000 0.000000 0.000000 0.062712
#
#
# Mechanical properties :
#
#
# Convention : Reuss Voigt Hill
#
# Bulk Modulus (GPa) = 38.60589 52.78911 45.69750
# Shear Modulus (GPa) = 19.92443 24.03919 21.98181
#
# Velocity S-wave (km/s) = 3.28076 3.60364 3.44598
# Velocity P-wave (km/s) = 5.93350 6.76994 6.36548
#
# Compressibility (1/GPa) = 0.02590278
#
# Stress axis : x y z
#
# Youngs Moduli (GPa) = 43.47849 97.07220 29.01032
#
# Poissons Ratio (x) = 0.41280 0.28090
# Poissons Ratio (y) = 0.18489 0.20305
# Poissons Ratio (z) = 0.42099 0.67944
#
# Static dielectric constant tensor:
#      x y z
#    x 3.458250 0.000000 0.000000 
#    y 0.000000 3.747190 0.000000 
#    z 0.000000 0.000000 3.094970 
# 
# 
# High freq. dielectric constant tensor:
#      x y z
#    x 1.713250 0.000000 0.000000 
#    y 0.000000 1.735900 0.000000 
#    z 0.000000 0.000000 1.689740 
# 
# From -- ./inp_files/50354.got.cif
#   From: 2010.03.12/outbox.cif.g09.slc.cpg/sg65_26_cif.got.tgz:50354.got - 2010.04.10 20:52:16.
