data_PCOD8269004
_publ_section_title
;
Structure prediction by ZEFSAII (Michael W. Deem and Ramdas Pophale) SiO2 
 PCOD8269004
Probable space group: C M M M
;
_chemical_formula_sum "Si O2"
_cell_formula_units_Z 72
_cell_length_a 10.395531
_cell_length_b 19.549664
_cell_length_c 18.975979
_cell_angle_alpha 90.000000
_cell_angle_beta 90.000000
_cell_angle_gamma 90.000000
_cell_volume 3856.471858
_symmetry_space_group_name_H-M "C M M M"
_symmetry_group_IT_number 65
_symmetry_cell_setting 'orthorhombic'
loop_
_space_group_symop_operation_xyz
x,y,z
-x,-y,z
x,-y,-z
-x,y,-z
-x,-y,-z
x,y,-z
-x,y,z
x,-y,z
1/2+x,1/2+y,z
1/2-x,1/2-y,z
1/2+x,1/2-y,-z
1/2-x,1/2+y,-z
1/2-x,1/2-y,-z
1/2+x,1/2+y,-z
1/2-x,1/2+y,z
1/2+x,1/2-y,z
loop_
_atom_site_type_symbol
_atom_site_label
_atom_site_fract_x
_atom_site_fract_y
_atom_site_fract_z
Si Si1 0.500000 0.419110 0.421775
Si Si2 0.142328 0.302526 0.580812
Si Si3 0.352752 0.693016 0.081326
Si Si4 0.752118 0.579465 0.340316
Si Si5 0.852763 0.923201 0.190318
O O1 0.500000 0.500000 0.426890
O O2 0.500000 0.386117 0.500000
O O3 0.375468 0.394829 0.379951
O O4 0.172102 0.322758 0.500000
O O5 0.250000 0.250000 0.609345
O O6 0.138542 0.371388 0.628340
O O7 0.000000 0.269133 0.587474
O O8 0.500000 0.717950 0.095300
O O9 0.250000 0.750000 0.104227
O O10 0.318490 0.626363 0.126285
O O11 0.334261 0.673056 0.000000
O O12 0.784505 0.500000 0.355695
O O13 0.737664 0.592285 0.256972
O O14 0.000000 0.914629 0.215339
O O15 0.828528 0.000000 0.162794
#
# Coordination Sequence:
#
# PCOD8269004 Si02
#       5
#     8  16  16  16  16
#     4   9  16  26  46  76 101 129 170 212 255 304
#     4  10  23  40  56  76 104 139 177 222 274 323
#     4   9  18  33  54  79 106 139 177 217 261 311
#     4  10  19  33  53  78 107 138 174 218 266 317
#     4   9  17  31  51  78 111 141 172 216 265 310
#
# _framework density 18.669915
#
# number of rings (size 3 to 8) (size 9 to 14) (size 15 to 20)
#    0.000    2.556    1.111    0.667    1.556    3.111 
#    0.000    6.667    0.000    2.000    0.000    3.111 
#    0.000    0.000    0.000    0.000    0.000    0.000 
#
# Total GULP energy -446326.038363 kJ/mol
# GULP energy per Si atom -12397.945510 kJ/mol
# Density = 1.862742 g / cm^3
# Si number density = 18.669915 Si / 1000 Ang^3
#
#
#
# Elastic Constant Matrix: (Units=GPa)
#
#
# Indices 1 2 3 4 5 6 
#
# 1 84.9942 52.5122 34.8029 0.0000 0.0000 0.0000
# 2 52.5122 110.5527 62.0985 0.0000 0.0000 0.0000
# 3 34.8029 62.0985 84.5731 0.0000 0.0000 0.0000
# 4 0.0000 0.0000 0.0000 34.8783 0.0000 0.0000
# 5 0.0000 0.0000 0.0000 0.0000 21.6420 0.0000
# 6 0.0000 0.0000 0.0000 0.0000 0.0000 30.1493
#
#
#
# Elastic Compliance Matrix: (Units=1/GPa)
#
#
# Indices 1 2 3 4 5 6 
#
# 1 0.016811 -0.006977 -0.001795 0.000000 0.000000 0.000000
# 2 -0.006977 0.018290 -0.010559 0.000000 0.000000 0.000000
# 3 -0.001795 -0.010559 0.020316 0.000000 0.000000 0.000000
# 4 0.000000 0.000000 0.000000 0.028671 0.000000 0.000000
# 5 0.000000 0.000000 0.000000 0.000000 0.046206 0.000000
# 6 0.000000 0.000000 0.000000 0.000000 0.000000 0.033168
#
#
# Mechanical properties :
#
#
# Convention : Reuss Voigt Hill
#
# Bulk Modulus (GPa) = 59.68167 64.32747 62.00457
# Shear Modulus (GPa) = 24.07202 26.04770 25.05986
#
# Velocity S-wave (km/s) = 3.59464 3.73925 3.66766
# Velocity P-wave (km/s) = 7.01889 7.29195 7.15672
#
# Compressibility (1/GPa) = 0.01675556
#
# Stress axis : x y z
#
# Youngs Moduli (GPa) = 59.48444 54.67330 49.22288
#
# Poissons Ratio (x) = 0.38145 0.08836
# Poissons Ratio (y) = 0.41502 0.51974
# Poissons Ratio (z) = 0.10678 0.57729
#
# Static dielectric constant tensor:
#      x y z
#    x 3.356580 0.000000 0.000000 
#    y 0.000000 3.303310 0.000000 
#    z 0.000000 0.000000 3.343350 
# 
# 
# High freq. dielectric constant tensor:
#      x y z
#    x 1.709250 0.000000 0.000000 
#    y 0.000000 1.718370 0.000000 
#    z 0.000000 0.000000 1.717890 
# 
# From -- ./inp_files/51138.got.cif
#   From: 2010.03.12/outbox.cif.g09.slc.cpg/sg65_26_cif.got.tgz:51138.got - 2010.04.10 20:52:16.
