data_PCOD8269722
_publ_section_title
;
Structure prediction by ZEFSAII (Michael W. Deem and Ramdas Pophale) SiO2 
 PCOD8269722
Probable space group: C M M M
;
_chemical_formula_sum "Si O2"
_cell_formula_units_Z 112
_cell_length_a 12.962432
_cell_length_b 30.385425
_cell_length_c 14.446876
_cell_angle_alpha 90.000000
_cell_angle_beta 90.000000
_cell_angle_gamma 90.000000
_cell_volume 5690.176681
_symmetry_space_group_name_H-M "C M M M"
_symmetry_group_IT_number 65
_symmetry_cell_setting 'orthorhombic'
loop_
_space_group_symop_operation_xyz
x,y,z
-x,-y,z
x,-y,-z
-x,y,-z
-x,-y,-z
x,y,-z
-x,y,z
x,-y,z
1/2+x,1/2+y,z
1/2-x,1/2-y,z
1/2+x,1/2-y,-z
1/2-x,1/2+y,-z
1/2-x,1/2-y,-z
1/2+x,1/2+y,-z
1/2-x,1/2+y,z
1/2+x,1/2-y,z
loop_
_atom_site_type_symbol
_atom_site_label
_atom_site_fract_x
_atom_site_fract_y
_atom_site_fract_z
Si Si1 0.118460 0.811019 0.715507
Si Si2 0.119306 0.233322 0.900737
Si Si3 0.751896 0.888569 0.762214
Si Si4 0.878273 0.371206 0.394649
Si Si5 0.118242 0.948144 0.104825
Si Si6 0.382845 0.829645 0.892389
Si Si7 0.121386 0.272001 0.605411
O O1 0.133382 0.803714 0.824941
O O2 0.170976 0.857951 0.701757
O O3 0.171384 0.769661 0.660873
O O4 0.000000 0.815056 0.685235
O O5 0.170062 0.281018 0.875660
O O6 0.000000 0.246422 0.910910
O O7 0.160314 0.215198 0.000000
O O8 0.675341 0.904701 0.678893
O O9 0.811620 0.927208 0.814821
O O10 0.685437 0.864429 0.839303
O O11 0.840258 0.379587 0.500000
O O12 0.846515 0.321149 0.361660
O O13 0.000000 0.377749 0.390635
O O14 0.000000 0.933512 0.121282
O O15 0.129901 0.000000 0.115213
O O16 0.151224 0.933993 0.000000
O O17 0.500000 0.831730 0.853130
O O18 0.382217 0.841761 0.000000
O O19 0.153743 0.265380 0.500000
O O20 0.000000 0.268639 0.619870
#
# Coordination Sequence:
#
# PCOD8269722 Si02
#       7
#    16  16  16  16  16  16  16
#     4  10  20  30  41  65 100 132 169 221 271 307
#     4   8  15  28  41  54  86 137 176 201 242 303
#     4  12  21  30  52  82 102 126 172 227 271 310
#     4   9  19  35  53  75 107 149 192 226 257 301
#     4   9  20  41  65  85 108 138 168 202 254 325
#     4   9  18  31  45  65  97 135 171 206 250 307
#     4   8  15  30  48  64  94 144 189 220 256 302
#
# _framework density 19.683043999999999
#
# number of rings (size 3 to 8) (size 9 to 14) (size 15 to 20)
#    0.000    2.714    0.000    4.286    0.000    6.286 
#    0.000    4.286    0.000    3.429    0.000    7.000 
#    0.000    0.000    0.000    0.000    0.000    0.000 
#
# Total GULP energy -693923.968313 kJ/mol
# GULP energy per Si atom -12391.499434 kJ/mol
# Density = 1.963824 g / cm^3
# Si number density = 19.683044 Si / 1000 Ang^3
#
#
#
# Elastic Constant Matrix: (Units=GPa)
#
#
# Indices 1 2 3 4 5 6 
#
# 1 35.1895 27.1434 24.5217 0.0000 0.0000 0.0000
# 2 27.1434 43.1305 34.9960 0.0000 0.0000 0.0000
# 3 24.5217 34.9960 90.5631 0.0000 0.0000 0.0000
# 4 0.0000 0.0000 0.0000 21.0057 0.0000 0.0000
# 5 0.0000 0.0000 0.0000 0.0000 23.6321 0.0000
# 6 0.0000 0.0000 0.0000 0.0000 0.0000 24.1521
#
#
#
# Elastic Compliance Matrix: (Units=1/GPa)
#
#
# Indices 1 2 3 4 5 6 
#
# 1 0.055534 -0.033139 -0.002231 0.000000 0.000000 0.000000
# 2 -0.033139 0.053551 -0.011720 0.000000 0.000000 0.000000
# 3 -0.002231 -0.011720 0.016175 0.000000 0.000000 0.000000
# 4 0.000000 0.000000 0.000000 0.047606 0.000000 0.000000
# 5 0.000000 0.000000 0.000000 0.000000 0.042315 0.000000
# 6 0.000000 0.000000 0.000000 0.000000 0.000000 0.041404
#
#
# Mechanical properties :
#
#
# Convention : Reuss Voigt Hill
#
# Bulk Modulus (GPa) = 32.17610 38.02282 35.09946
# Shear Modulus (GPa) = 13.84559 19.23945 16.54252
#
# Velocity S-wave (km/s) = 2.65510 3.12983 2.90219
# Velocity P-wave (km/s) = 5.07760 5.69391 5.39456
#
# Compressibility (1/GPa) = 0.03107897
#
# Stress axis : x y z
#
# Youngs Moduli (GPa) = 18.00703 18.67393 61.82288
#
# Poissons Ratio (x) = 0.61883 0.13794
# Poissons Ratio (y) = 0.59673 0.72459
# Poissons Ratio (z) = 0.04018 0.21887
#
# Static dielectric constant tensor:
#      x y z
#    x 3.838510 0.000000 0.000000 
#    y 0.000000 2.993040 0.000000 
#    z 0.000000 0.000000 3.700640 
# 
# 
# High freq. dielectric constant tensor:
#      x y z
#    x 1.790960 0.000000 0.000000 
#    y 0.000000 1.694190 0.000000 
#    z 0.000000 0.000000 1.774210 
# 
# From -- ./inp_files/41368.got.cif
#   From: 2010.03.12/outbox.cif.g09.slc.cpg/sg65_21_cif.got.tgz:41368.got - 2010.04.10 20:52:16.
