data_PCOD8269503
_publ_section_title
;
Structure prediction by ZEFSAII (Michael W. Deem and Ramdas Pophale) SiO2 
 PCOD8269503
Probable space group: C M M M
;
_chemical_formula_sum "Si O2"
_cell_formula_units_Z 128
_cell_length_a 19.636370
_cell_length_b 18.319204
_cell_length_c 20.163273
_cell_angle_alpha 90.000000
_cell_angle_beta 90.000000
_cell_angle_gamma 90.000000
_cell_volume 7253.186356
_symmetry_space_group_name_H-M "C M M M"
_symmetry_group_IT_number 65
_symmetry_cell_setting 'orthorhombic'
loop_
_space_group_symop_operation_xyz
x,y,z
-x,-y,z
x,-y,-z
-x,y,-z
-x,-y,-z
x,y,-z
-x,y,z
x,-y,z
1/2+x,1/2+y,z
1/2-x,1/2-y,z
1/2+x,1/2-y,-z
1/2-x,1/2+y,-z
1/2-x,1/2-y,-z
1/2+x,1/2+y,-z
1/2-x,1/2+y,z
1/2+x,1/2-y,z
loop_
_atom_site_type_symbol
_atom_site_label
_atom_site_fract_x
_atom_site_fract_y
_atom_site_fract_z
Si Si1 0.921723 0.163433 0.424590
Si Si2 0.817928 0.290646 0.576236
Si Si3 0.324785 0.156260 0.190220
Si Si4 0.151937 0.081312 0.686847
Si Si5 0.924121 0.823883 0.072822
Si Si6 0.188037 0.582681 0.326300
Si Si7 0.423214 0.849473 0.074115
Si Si8 0.831836 0.173174 0.810420
O O1 0.913297 0.135675 0.500000
O O2 0.882346 0.238865 0.414019
O O3 0.891108 0.101259 0.377935
O O4 0.000000 0.177801 0.406444
O O5 0.805208 0.312161 0.500000
O O6 0.750000 0.250000 0.604502
O O7 0.836857 0.364151 0.615426
O O8 0.341942 0.110845 0.256300
O O9 0.369189 0.122738 0.129412
O O10 0.245010 0.148570 0.174746
O O11 0.341428 0.240987 0.202012
O O12 0.231075 0.085850 0.670814
O O13 0.134895 0.135736 0.746532
O O14 0.131213 0.000000 0.708417
O O15 0.920991 0.737088 0.073152
O O16 0.872429 0.856239 0.126064
O O17 0.000000 0.850418 0.090539
O O18 0.902991 0.852697 0.000000
O O19 0.161794 0.500000 0.338368
O O20 0.500000 0.875948 0.092294
O O21 0.403594 0.878460 0.000000
#
# Coordination Sequence:
#
# PCOD8269503 Si02
#       8
#    16  16  16  16  16  16  16  16
#     4  10  21  36  54  78 106 135 168 210 261 310
#     4  10  19  34  58  81 102 133 175 218 255 302
#     4   9  17  28  46  70  99 130 165 209 259 304
#     4  10  20  33  49  71 102 138 172 207 253 309
#     4   8  14  25  41  63  91 119 153 203 256 301
#     4  10  20  33  52  77 107 138 170 214 260 303
#     4   8  14  26  45  70  98 126 161 210 265 316
#     4   9  17  28  45  69  94 128 166 209 251 301
#
# _framework density 17.647417000000001
#
# number of rings (size 3 to 8) (size 9 to 14) (size 15 to 20)
#    0.000    2.750    1.250    1.500    1.750    1.750 
#    0.000    7.500    0.000    2.250    0.000    7.000 
#    0.000    0.000    0.000    0.000    0.000    0.000 
#
# Total GULP energy -793402.025105 kJ/mol
# GULP energy per Si atom -12396.906642 kJ/mol
# Density = 1.760725 g / cm^3
# Si number density = 17.647417 Si / 1000 Ang^3
#
#
#
# Elastic Constant Matrix: (Units=GPa)
#
#
# Indices 1 2 3 4 5 6 
#
# 1 75.7914 29.9779 59.9947 0.0000 0.0000 0.0000
# 2 29.9779 67.5944 50.1931 0.0000 0.0000 0.0000
# 3 59.9947 50.1931 122.5481 0.0000 0.0000 0.0000
# 4 0.0000 0.0000 0.0000 6.1041 0.0000 0.0000
# 5 0.0000 0.0000 0.0000 0.0000 29.5340 0.0000
# 6 0.0000 0.0000 0.0000 0.0000 0.0000 9.8061
#
#
#
# Elastic Compliance Matrix: (Units=1/GPa)
#
#
# Indices 1 2 3 4 5 6 
#
# 1 0.021834 -0.002509 -0.009662 0.000000 0.000000 0.000000
# 2 -0.002509 0.021549 -0.007597 0.000000 0.000000 0.000000
# 3 -0.009662 -0.007597 0.016002 0.000000 0.000000 0.000000
# 4 0.000000 0.000000 0.000000 0.163825 0.000000 0.000000
# 5 0.000000 0.000000 0.000000 0.000000 0.033859 0.000000
# 6 0.000000 0.000000 0.000000 0.000000 0.000000 0.101978
#
#
# Mechanical properties :
#
#
# Convention : Reuss Voigt Hill
#
# Bulk Modulus (GPa) = 50.38204 60.69615 55.53910
# Shear Modulus (GPa) = 12.33961 17.47336 14.90649
#
# Velocity S-wave (km/s) = 2.64716 3.15006 2.90950
# Velocity P-wave (km/s) = 6.16072 6.90644 6.54421
#
# Compressibility (1/GPa) = 0.01984834
#
# Stress axis : x y z
#
# Youngs Moduli (GPa) = 45.79914 46.40690 62.49313
#
# Poissons Ratio (x) = 0.11644 0.60378
# Poissons Ratio (y) = 0.11492 0.47479
# Poissons Ratio (z) = 0.44249 0.35257
#
# Static dielectric constant tensor:
#      x y z
#    x 3.283750 0.000000 0.000000 
#    y 0.000000 3.038790 0.000000 
#    z 0.000000 0.000000 3.531560 
# 
# 
# High freq. dielectric constant tensor:
#      x y z
#    x 1.668590 0.000000 0.000000 
#    y 0.000000 1.650260 0.000000 
#    z 0.000000 0.000000 1.691630 
# 
# From -- ./inp_files/64107.got.cif
#   From: 2010.03.12/outbox.cif.g09.slc.cpg/sg65_33_cif.got.tgz:64107.got - 2010.04.10 20:52:16.
