data_PCOD8269664
_publ_section_title
;
Structure prediction by ZEFSAII (Michael W. Deem and Ramdas Pophale) SiO2 
 PCOD8269664
Probable space group: C M M M
;
_chemical_formula_sum "Si O2"
_cell_formula_units_Z 88
_cell_length_a 15.328931
_cell_length_b 19.917962
_cell_length_c 14.745533
_cell_angle_alpha 90.000000
_cell_angle_beta 90.000000
_cell_angle_gamma 90.000000
_cell_volume 4502.121842
_symmetry_space_group_name_H-M "C M M M"
_symmetry_group_IT_number 65
_symmetry_cell_setting 'orthorhombic'
loop_
_space_group_symop_operation_xyz
x,y,z
-x,-y,z
x,-y,-z
-x,y,-z
-x,-y,-z
x,y,-z
-x,y,z
x,-y,z
1/2+x,1/2+y,z
1/2-x,1/2-y,z
1/2+x,1/2-y,-z
1/2-x,1/2+y,-z
1/2-x,1/2-y,-z
1/2+x,1/2+y,-z
1/2-x,1/2+y,z
1/2+x,1/2-y,z
loop_
_atom_site_type_symbol
_atom_site_label
_atom_site_fract_x
_atom_site_fract_y
_atom_site_fract_z
Si Si1 0.844227 0.926369 0.733384
Si Si2 0.844134 0.220946 0.786772
Si Si3 0.000000 0.756802 0.346523
Si Si4 0.397806 0.166315 0.898777
Si Si5 0.500000 0.113985 0.600518
Si Si6 0.849655 0.425517 0.734719
Si Si7 0.500000 0.401998 0.600807
O O1 0.854063 0.860325 0.797849
O O2 0.747154 0.921742 0.691727
O O3 0.913790 0.925910 0.652719
O O4 0.854525 0.000000 0.783735
O O5 0.750000 0.250000 0.755437
O O6 0.869771 0.256028 0.882178
O O7 0.913134 0.247158 0.713736
O O8 0.000000 0.693722 0.412661
O O9 0.000000 0.822123 0.408464
O O10 0.500000 0.156717 0.887450
O O11 0.351159 0.120913 0.823717
O O12 0.367552 0.145913 0.000000
O O13 0.500000 0.081126 0.500000
O O14 0.585363 0.093074 0.654935
O O15 0.872288 0.500000 0.769299
O O16 0.500000 0.433143 0.500000
#
# Coordination Sequence:
#
# PCOD8269664 Si02
#       7
#    16  16   8  16   8  16   8
#     4  10  22  37  59  84 115 160 197 240 303 353
#     4  11  18  36  62  83 115 154 195 238 292 351
#     4  10  19  36  58  85 115 151 194 248 297 352
#     4  11  22  38  63  92 117 153 199 243 297 352
#     4  12  22  36  59  87 120 159 198 235 292 361
#     4  11  22  40  58  84 125 160 195 242 294 352
#     4  10  22  38  59  87 114 149 208 267 304 341
#
# _framework density 19.546339
#
# number of rings (size 3 to 8) (size 9 to 14) (size 15 to 20)
#    0.000    1.273    5.455    0.818    0.000    2.909 
#    0.000    2.727    0.000    6.545    0.000    1.273 
#    0.000    0.000    0.000    0.000    0.000    0.000 
#
# Total GULP energy -545145.066774 kJ/mol
# GULP energy per Si atom -12389.660609 kJ/mol
# Density = 1.950185 g / cm^3
# Si number density = 19.546339 Si / 1000 Ang^3
#
#
#
# Elastic Constant Matrix: (Units=GPa)
#
#
# Indices 1 2 3 4 5 6 
#
# 1 131.3565 29.6038 54.9964 0.0000 0.0000 0.0000
# 2 29.6038 151.9703 49.5005 0.0000 0.0000 0.0000
# 3 54.9964 49.5005 112.9912 0.0000 0.0000 0.0000
# 4 0.0000 0.0000 0.0000 6.5326 0.0000 0.0000
# 5 0.0000 0.0000 0.0000 0.0000 6.2800 0.0000
# 6 0.0000 0.0000 0.0000 0.0000 0.0000 15.5832
#
#
#
# Elastic Compliance Matrix: (Units=1/GPa)
#
#
# Indices 1 2 3 4 5 6 
#
# 1 0.009583 -0.000405 -0.004487 0.000000 0.000000 0.000000
# 2 -0.000405 0.007693 -0.003173 0.000000 0.000000 0.000000
# 3 -0.004487 -0.003173 0.012424 0.000000 0.000000 0.000000
# 4 0.000000 0.000000 0.000000 0.153078 0.000000 0.000000
# 5 0.000000 0.000000 0.000000 0.000000 0.159236 0.000000
# 6 0.000000 0.000000 0.000000 0.000000 0.000000 0.064172
#
#
# Mechanical properties :
#
#
# Convention : Reuss Voigt Hill
#
# Bulk Modulus (GPa) = 73.69276 73.83548 73.76412
# Shear Modulus (GPa) = 11.71404 23.16031 17.43718
#
# Velocity S-wave (km/s) = 2.45071 3.44596 2.99004
# Velocity P-wave (km/s) = 6.76693 7.32731 7.05269
#
# Compressibility (1/GPa) = 0.01356985
#
# Stress axis : x y z
#
# Youngs Moduli (GPa) = 104.35494 129.99424 80.48921
#
# Poissons Ratio (x) = 0.05269 0.36113
# Poissons Ratio (y) = 0.04229 0.25538
# Poissons Ratio (z) = 0.46820 0.41245
#
# Static dielectric constant tensor:
#      x y z
#    x 3.814160 0.000000 0.000000 
#    y 0.000000 4.123560 0.000000 
#    z 0.000000 0.000000 3.229940 
# 
# 
# High freq. dielectric constant tensor:
#      x y z
#    x 1.781060 0.000000 0.000000 
#    y 0.000000 1.786510 0.000000 
#    z 0.000000 0.000000 1.712760 
# 
# From -- ./inp_files/40260.got.cif
#   From: 2010.03.12/outbox.cif.g09.slc.cpg/sg65_21_cif.got.tgz:40260.got - 2010.04.10 20:52:16.
