data_PCOD8269031
_publ_section_title
;
Structure prediction by ZEFSAII (Michael W. Deem and Ramdas Pophale) SiO2 
 PCOD8269031
Probable space group: C M M M
;
_chemical_formula_sum "Si O2"
_cell_formula_units_Z 96
_cell_length_a 19.102854
_cell_length_b 8.692294
_cell_length_c 30.408459
_cell_angle_alpha 90.000000
_cell_angle_beta 90.000000
_cell_angle_gamma 90.000000
_cell_volume 5049.252342
_symmetry_space_group_name_H-M "C M M M"
_symmetry_group_IT_number 65
_symmetry_cell_setting 'orthorhombic'
loop_
_space_group_symop_operation_xyz
x,y,z
-x,-y,z
x,-y,-z
-x,y,-z
-x,-y,-z
x,y,-z
-x,y,z
x,-y,z
1/2+x,1/2+y,z
1/2-x,1/2-y,z
1/2+x,1/2-y,-z
1/2-x,1/2+y,-z
1/2-x,1/2-y,-z
1/2+x,1/2+y,-z
1/2-x,1/2+y,z
1/2+x,1/2-y,z
loop_
_atom_site_type_symbol
_atom_site_label
_atom_site_fract_x
_atom_site_fract_y
_atom_site_fract_z
Si Si1 0.177324 0.680885 0.549137
Si Si2 0.824377 0.181455 0.701214
Si Si3 0.421873 0.182870 0.873654
Si Si4 0.418880 0.180085 0.628025
Si Si5 0.675504 0.817194 0.205275
Si Si6 0.176099 0.318061 0.049445
O O1 0.160020 0.742963 0.500000
O O2 0.186371 0.500000 0.548412
O O3 0.250000 0.750000 0.566784
O O4 0.115058 0.730158 0.581619
O O5 0.750000 0.250000 0.685730
O O6 0.884057 0.222647 0.666612
O O7 0.847763 0.251475 0.747756
O O8 0.816359 0.000000 0.705717
O O9 0.500000 0.252592 0.872784
O O10 0.381321 0.238409 0.830213
O O11 0.383019 0.244531 0.917381
O O12 0.424767 0.000000 0.874735
O O13 0.500000 0.223387 0.625715
O O14 0.407182 0.000000 0.637356
O O15 0.750000 0.750000 0.190644
O O16 0.680896 0.000000 0.208128
O O17 0.182203 0.500000 0.052279
O O18 0.250000 0.250000 0.064451
O O19 0.156565 0.264391 0.000000
#
# Coordination Sequence:
#
# PCOD8269031 Si02
#       6
#    16  16  16  16  16  16
#     4   9  18  33  54  79 105 136 175 216 256 300
#     4  11  22  37  57  79 104 134 173 218 261 308
#     4   9  18  31  48  73 102 131 165 205 249 297
#     4  10  21  36  54  78 109 143 176 212 258 309
#     4  10  19  33  54  76  99 130 168 210 255 302
#     4   9  17  30  50  74  99 129 165 205 247 292
#
# _framework density 19.012716999999999
#
# number of rings (size 3 to 8) (size 9 to 14) (size 15 to 20)
#    0.000    2.333    0.000    4.000    0.000    3.667 
#    0.000    5.833    0.000    4.000    0.000    5.833 
#    0.000    0.000    0.000    0.000    0.000    0.000 
#
# Total GULP energy -595246.185127 kJ/mol
# GULP energy per Si atom -12400.962190 kJ/mol
# Density = 1.896944 g / cm^3
# Si number density = 19.012717 Si / 1000 Ang^3
#
#
#
# Elastic Constant Matrix: (Units=GPa)
#
#
# Indices 1 2 3 4 5 6 
#
# 1 161.5140 35.1970 103.3840 0.0000 0.0000 0.0000
# 2 35.1970 56.0461 36.6782 0.0000 0.0000 0.0000
# 3 103.3840 36.6782 141.4259 0.0000 0.0000 0.0000
# 4 0.0000 0.0000 0.0000 16.1076 0.0000 0.0000
# 5 0.0000 0.0000 0.0000 0.0000 12.7763 0.0000
# 6 0.0000 0.0000 0.0000 0.0000 0.0000 26.0377
#
#
#
# Elastic Compliance Matrix: (Units=1/GPa)
#
#
# Indices 1 2 3 4 5 6 
#
# 1 0.011844 -0.002134 -0.008105 0.000000 0.000000 0.000000
# 2 -0.002134 0.021874 -0.004113 0.000000 0.000000 0.000000
# 3 -0.008105 -0.004113 0.014062 0.000000 0.000000 0.000000
# 4 0.000000 0.000000 0.000000 0.062083 0.000000 0.000000
# 5 0.000000 0.000000 0.000000 0.000000 0.078270 0.000000
# 6 0.000000 0.000000 0.000000 0.000000 0.000000 0.038406
#
#
# Mechanical properties :
#
#
# Convention : Reuss Voigt Hill
#
# Bulk Modulus (GPa) = 52.41910 78.83383 65.62646
# Shear Modulus (GPa) = 19.11299 23.23278 21.17289
#
# Velocity S-wave (km/s) = 3.17405 3.49945 3.34071
# Velocity P-wave (km/s) = 6.40805 7.60802 7.03367
#
# Compressibility (1/GPa) = 0.01907702
#
# Stress axis : x y z
#
# Youngs Moduli (GPa) = 84.42829 45.71571 71.11231
#
# Poissons Ratio (x) = 0.09757 0.57636
# Poissons Ratio (y) = 0.18019 0.29248
# Poissons Ratio (z) = 0.68428 0.18802
#
# Static dielectric constant tensor:
#      x y z
#    x 3.630550 0.000000 0.000000 
#    y 0.000000 3.274050 0.000000 
#    z 0.000000 0.000000 3.779010 
# 
# 
# High freq. dielectric constant tensor:
#      x y z
#    x 1.735080 0.000000 0.000000 
#    y 0.000000 1.719610 0.000000 
#    z 0.000000 0.000000 1.753570 
# 
# From -- ./inp_files/75387.got.cif
#   From: 2010.03.12/outbox.cif.g09.slc.cpg/sg65_38_cif.got.tgz:75387.got - 2010.04.10 20:52:16.
