data_PCOD8269870
_publ_section_title
;
Structure prediction by ZEFSAII (Michael W. Deem and Ramdas Pophale) SiO2 
 PCOD8269870
Probable space group: C M M M
;
_chemical_formula_sum "Si O2"
_cell_formula_units_Z 112
_cell_length_a 14.252997
_cell_length_b 24.670442
_cell_length_c 15.823006
_cell_angle_alpha 90.000000
_cell_angle_beta 90.000000
_cell_angle_gamma 90.000000
_cell_volume 5563.807774
_symmetry_space_group_name_H-M "C M M M"
_symmetry_group_IT_number 65
_symmetry_cell_setting 'orthorhombic'
loop_
_space_group_symop_operation_xyz
x,y,z
-x,-y,z
x,-y,-z
-x,y,-z
-x,-y,-z
x,y,-z
-x,y,z
x,-y,z
1/2+x,1/2+y,z
1/2-x,1/2-y,z
1/2+x,1/2-y,-z
1/2-x,1/2+y,-z
1/2-x,1/2-y,-z
1/2+x,1/2+y,-z
1/2-x,1/2+y,z
1/2+x,1/2-y,z
loop_
_atom_site_type_symbol
_atom_site_label
_atom_site_fract_x
_atom_site_fract_y
_atom_site_fract_z
Si Si1 0.209563 0.617471 0.405227
Si Si2 0.107540 0.273982 0.845448
Si Si3 0.291317 0.325572 0.905474
Si Si4 0.896573 0.166879 0.402373
Si Si5 0.272883 0.938911 0.096954
Si Si6 0.602140 0.062570 0.744918
Si Si7 0.106073 0.282343 0.346464
O O1 0.190405 0.594198 0.500000
O O2 0.321428 0.619136 0.386833
O O3 0.165244 0.581620 0.332590
O O4 0.170219 0.678521 0.402119
O O5 0.180694 0.309381 0.899739
O O6 0.142435 0.210727 0.845201
O O7 0.113113 0.298574 0.751700
O O8 0.000000 0.277330 0.879540
O O9 0.302572 0.390432 0.886729
O O10 0.325297 0.313071 0.000000
O O11 0.900330 0.182654 0.500000
O O12 0.861055 0.220299 0.353753
O O13 0.000000 0.147944 0.370678
O O14 0.356488 0.926915 0.162195
O O15 0.230943 0.000000 0.112422
O O16 0.310072 0.934622 0.000000
O O17 0.500000 0.091568 0.741047
O O18 0.588762 0.000000 0.729560
O O19 0.000000 0.287582 0.380192
#
# Coordination Sequence:
#
# PCOD8269870 Si02
#       7
#    16  16  16  16  16  16  16
#     4  11  22  34  54  79 108 151 190 225 275 330
#     4  10  21  34  50  76 110 148 184 225 275 330
#     4  10  21  34  53  79 105 143 186 228 282 340
#     4   9  19  34  50  73 104 136 176 225 270 313
#     4   9  19  37  60  84 110 143 186 237 289 336
#     4  10  22  38  56  81 111 143 181 226 276 333
#     4  10  20  31  48  76 106 140 179 219 266 320
#
# _framework density 20.130099999999999
#
# number of rings (size 3 to 8) (size 9 to 14) (size 15 to 20)
#    0.000    2.143    0.000    3.000    6.000    6.286 
#    0.000    3.571    0.000    0.857    0.000    6.000 
#    0.000    0.000    0.000    0.000    0.000    0.286 
#
# Total GULP energy -693951.295565 kJ/mol
# GULP energy per Si atom -12391.987421 kJ/mol
# Density = 2.008428 g / cm^3
# Si number density = 20.130100 Si / 1000 Ang^3
#
#
#
# Elastic Constant Matrix: (Units=GPa)
#
#
# Indices 1 2 3 4 5 6 
#
# 1 58.1172 7.8244 14.8772 0.0000 0.0000 0.0000
# 2 7.8244 57.8268 15.1447 0.0000 0.0000 0.0000
# 3 14.8772 15.1447 81.5577 0.0000 0.0000 0.0000
# 4 0.0000 0.0000 0.0000 33.1795 0.0000 0.0000
# 5 0.0000 0.0000 0.0000 0.0000 21.1758 0.0000
# 6 0.0000 0.0000 0.0000 0.0000 0.0000 20.0959
#
#
#
# Elastic Compliance Matrix: (Units=1/GPa)
#
#
# Indices 1 2 3 4 5 6 
#
# 1 0.018202 -0.001675 -0.003009 0.000000 0.000000 0.000000
# 2 -0.001675 0.018331 -0.003098 0.000000 0.000000 0.000000
# 3 -0.003009 -0.003098 0.013386 0.000000 0.000000 0.000000
# 4 0.000000 0.000000 0.000000 0.030139 0.000000 0.000000
# 5 0.000000 0.000000 0.000000 0.000000 0.047224 0.000000
# 6 0.000000 0.000000 0.000000 0.000000 0.000000 0.049761
#
#
# Mechanical properties :
#
#
# Convention : Reuss Voigt Hill
#
# Bulk Modulus (GPa) = 29.10878 30.35493 29.73186
# Shear Modulus (GPa) = 24.50262 25.53394 25.01828
#
# Velocity S-wave (km/s) = 3.49264 3.56539 3.52920
# Velocity P-wave (km/s) = 5.54585 5.66228 5.60437
#
# Compressibility (1/GPa) = 0.03435389
#
# Stress axis : x y z
#
# Youngs Moduli (GPa) = 54.93761 54.55210 74.70732
#
# Poissons Ratio (x) = 0.09136 0.22482
# Poissons Ratio (y) = 0.09201 0.23148
# Poissons Ratio (z) = 0.16533 0.16903
#
# Static dielectric constant tensor:
#      x y z
#    x 3.766580 0.000000 0.000000 
#    y 0.000000 3.648980 0.000000 
#    z 0.000000 0.000000 3.615910 
# 
# 
# High freq. dielectric constant tensor:
#      x y z
#    x 1.767410 0.000000 0.000000 
#    y 0.000000 1.771390 0.000000 
#    z 0.000000 0.000000 1.790790 
# 
# From -- ./inp_files/41087.got.cif
#   From: 2010.03.12/outbox.cif.g09.slc.cpg/sg65_21_cif.got.tgz:41087.got - 2010.04.10 20:52:16.
