data_PCOD8269344
_publ_section_title
;
Structure prediction by ZEFSAII (Michael W. Deem and Ramdas Pophale) SiO2 
 PCOD8269344
Probable space group: C M M M
;
_chemical_formula_sum "Si O2"
_cell_formula_units_Z 88
_cell_length_a 28.661607
_cell_length_b 8.144607
_cell_length_c 19.175344
_cell_angle_alpha 90.000000
_cell_angle_beta 90.000000
_cell_angle_gamma 90.000000
_cell_volume 4476.244844
_symmetry_space_group_name_H-M "C M M M"
_symmetry_group_IT_number 65
_symmetry_cell_setting 'orthorhombic'
loop_
_space_group_symop_operation_xyz
x,y,z
-x,-y,z
x,-y,-z
-x,y,-z
-x,-y,-z
x,y,-z
-x,y,z
x,-y,z
1/2+x,1/2+y,z
1/2-x,1/2-y,z
1/2+x,1/2-y,-z
1/2-x,1/2+y,-z
1/2-x,1/2-y,-z
1/2+x,1/2+y,-z
1/2-x,1/2+y,z
1/2+x,1/2-y,z
loop_
_atom_site_type_symbol
_atom_site_label
_atom_site_fract_x
_atom_site_fract_y
_atom_site_fract_z
Si Si1 0.053835 0.500000 0.582036
Si Si2 0.447528 0.689033 0.801673
Si Si3 0.201165 0.192423 0.300243
Si Si4 0.387634 0.187332 0.077426
Si Si5 0.297621 0.311830 0.146283
Si Si6 0.898671 0.806300 0.343750
O O1 0.060217 0.500000 0.500000
O O2 0.075859 0.672152 0.608360
O O3 0.000000 0.500000 0.604773
O O4 0.500000 0.746968 0.784305
O O5 0.445927 0.500000 0.822709
O O6 0.429515 0.787278 0.868531
O O7 0.415425 0.722302 0.735151
O O8 0.250000 0.250000 0.335613
O O9 0.196326 0.273454 0.222791
O O10 0.156274 0.240121 0.347042
O O11 0.201219 0.000000 0.293551
O O12 0.341752 0.287386 0.097289
O O13 0.372424 0.000000 0.078066
O O14 0.404149 0.241764 0.000000
O O15 0.291557 0.500000 0.160947
O O16 0.250000 0.250000 0.109544
O O17 0.908182 0.000000 0.365613
#
# Coordination Sequence:
#
# PCOD8269344 Si02
#       6
#     8  16  16  16  16  16
#     4  11  26  44  66 100 133 169 211 245 301 373
#     4  10  21  38  60  84 111 148 198 250 303 360
#     4   9  18  31  55  91 122 153 198 251 306 362
#     4  11  24  38  52  75 110 152 198 249 307 363
#     4  10  19  34  54  78 110 145 189 242 296 357
#     4  10  21  40  65  96 129 164 206 256 306 363
#
# _framework density 19.659337000000001
#
# number of rings (size 3 to 8) (size 9 to 14) (size 15 to 20)
#    0.000    1.909    1.818    1.636    2.545    4.727 
#    0.000    2.727    0.000    0.545    0.000    0.000 
#    0.000    0.000    0.000    0.000    0.000    0.000 
#
# Total GULP energy -545334.173527 kJ/mol
# GULP energy per Si atom -12393.958489 kJ/mol
# Density = 1.961459 g / cm^3
# Si number density = 19.659337 Si / 1000 Ang^3
#
#
#
# Elastic Constant Matrix: (Units=GPa)
#
#
# Indices 1 2 3 4 5 6 
#
# 1 151.1843 46.0045 41.9521 0.0000 0.0000 0.0000
# 2 46.0045 72.7550 38.7434 0.0000 0.0000 0.0000
# 3 41.9521 38.7434 71.3102 0.0000 0.0000 0.0000
# 4 0.0000 0.0000 0.0000 24.4443 0.0000 0.0000
# 5 0.0000 0.0000 0.0000 0.0000 32.4848 0.0000
# 6 0.0000 0.0000 0.0000 0.0000 0.0000 35.5137
#
#
#
# Elastic Compliance Matrix: (Units=1/GPa)
#
#
# Indices 1 2 3 4 5 6 
#
# 1 0.008614 -0.003867 -0.002967 0.000000 0.000000 0.000000
# 2 -0.003867 0.021076 -0.009176 0.000000 0.000000 0.000000
# 3 -0.002967 -0.009176 0.020754 0.000000 0.000000 0.000000
# 4 0.000000 0.000000 0.000000 0.040909 0.000000 0.000000
# 5 0.000000 0.000000 0.000000 0.000000 0.030784 0.000000
# 6 0.000000 0.000000 0.000000 0.000000 0.000000 0.028158
#
#
# Mechanical properties :
#
#
# Convention : Reuss Voigt Hill
#
# Bulk Modulus (GPa) = 54.27414 60.96106 57.61760
# Shear Modulus (GPa) = 26.53117 29.72519 28.12818
#
# Velocity S-wave (km/s) = 3.67760 3.89268 3.78667
# Velocity P-wave (km/s) = 6.76020 7.16100 6.96348
#
# Compressibility (1/GPa) = 0.01842498
#
# Stress axis : x y z
#
# Youngs Moduli (GPa) = 116.08351 47.44640 48.18351
#
# Poissons Ratio (x) = 0.18349 0.14295
# Poissons Ratio (y) = 0.44892 0.44213
# Poissons Ratio (z) = 0.34440 0.43536
#
# Static dielectric constant tensor:
#      x y z
#    x 3.753380 0.000000 0.000000 
#    y 0.000000 3.688740 0.000000 
#    z 0.000000 0.000000 3.309790 
# 
# 
# High freq. dielectric constant tensor:
#      x y z
#    x 1.780220 0.000000 0.000000 
#    y 0.000000 1.768150 0.000000 
#    z 0.000000 0.000000 1.727390 
# 
# From -- ./inp_files/57958.got.cif
#   From: 2010.03.12/outbox.cif.g09.slc.cpg/sg65_29_cif.got.tgz:57958.got - 2010.04.10 20:52:16.
