data_PCOD8269088
_publ_section_title
;
Structure prediction by ZEFSAII (Michael W. Deem and Ramdas Pophale) SiO2 
 PCOD8269088
Probable space group: C M M M
;
_chemical_formula_sum "Si O2"
_cell_formula_units_Z 88
_cell_length_a 18.908882
_cell_length_b 8.736224
_cell_length_c 28.414442
_cell_angle_alpha 90.000000
_cell_angle_beta 90.000000
_cell_angle_gamma 90.000000
_cell_volume 4693.845002
_symmetry_space_group_name_H-M "C M M M"
_symmetry_group_IT_number 65
_symmetry_cell_setting 'orthorhombic'
loop_
_space_group_symop_operation_xyz
x,y,z
-x,-y,z
x,-y,-z
-x,y,-z
-x,-y,-z
x,y,-z
-x,y,z
x,-y,z
1/2+x,1/2+y,z
1/2-x,1/2-y,z
1/2+x,1/2-y,-z
1/2-x,1/2+y,-z
1/2-x,1/2-y,-z
1/2+x,1/2+y,-z
1/2-x,1/2+y,z
1/2+x,1/2-y,z
loop_
_atom_site_type_symbol
_atom_site_label
_atom_site_fract_x
_atom_site_fract_y
_atom_site_fract_z
Si Si1 0.672859 0.180763 0.862887
Si Si2 0.082180 0.323688 0.316083
Si Si3 0.579141 0.818066 0.947734
Si Si4 0.174949 0.176490 0.500000
Si Si5 0.582202 0.678185 0.781522
Si Si6 0.172017 0.180882 0.398122
O O1 0.750000 0.250000 0.859407
O O2 0.633784 0.247785 0.909365
O O3 0.627693 0.224439 0.817635
O O4 0.679552 0.000000 0.865552
O O5 0.101311 0.500000 0.307009
O O6 0.105705 0.227282 0.270608
O O7 0.122521 0.261904 0.360982
O O8 0.000000 0.300438 0.326373
O O9 0.500000 0.756803 0.936557
O O10 0.578276 0.000000 0.945570
O O11 0.602468 0.763253 0.000000
O O12 0.250000 0.250000 0.500000
O O13 0.137533 0.218451 0.450144
O O14 0.191278 0.000000 0.500000
O O15 0.500000 0.717089 0.789868
O O16 0.598269 0.500000 0.788457
O O17 0.250000 0.250000 0.393842
O O18 0.174901 0.000000 0.388436
#
# Coordination Sequence:
#
# PCOD8269088 Si02
#       6
#    16  16  16   8  16  16
#     4  11  22  35  53  79 111 144 178 218 264 311
#     4  10  21  37  56  79 107 138 174 216 263 315
#     4   8  15  30  53  79 105 137 179 221 260 308
#     4   8  16  30  49  74 103 137 175 215 257 306
#     4  10  21  38  59  80 103 134 173 217 265 318
#     4  10  19  33  54  79 107 139 177 218 262 311
#
# _framework density 18.747955999999999
#
# number of rings (size 3 to 8) (size 9 to 14) (size 15 to 20)
#    0.000    2.364    0.000    3.273    0.000    4.727 
#    0.000    4.091    0.000    4.364    0.000    6.364 
#    0.000    0.000    0.000    0.000    0.000    0.000 
#
# Total GULP energy -545393.591150 kJ/mol
# GULP energy per Si atom -12395.308890 kJ/mol
# Density = 1.870528 g / cm^3
# Si number density = 18.747956 Si / 1000 Ang^3
#
#
#
# Elastic Constant Matrix: (Units=GPa)
#
#
# Indices 1 2 3 4 5 6 
#
# 1 76.5576 34.2776 71.1321 0.0000 0.0000 0.0000
# 2 34.2776 50.0668 29.4569 0.0000 0.0000 0.0000
# 3 71.1321 29.4569 148.4478 0.0000 0.0000 0.0000
# 4 0.0000 0.0000 0.0000 20.6374 0.0000 0.0000
# 5 0.0000 0.0000 0.0000 0.0000 90.4075 0.0000
# 6 0.0000 0.0000 0.0000 0.0000 0.0000 19.8863
#
#
#
# Elastic Compliance Matrix: (Units=1/GPa)
#
#
# Indices 1 2 3 4 5 6 
#
# 1 0.030048 -0.013700 -0.011680 0.000000 0.000000 0.000000
# 2 -0.013700 0.028860 0.000838 0.000000 0.000000 0.000000
# 3 -0.011680 0.000838 0.012167 0.000000 0.000000 0.000000
# 4 0.000000 0.000000 0.000000 0.048456 0.000000 0.000000
# 5 0.000000 0.000000 0.000000 0.000000 0.011061 0.000000
# 6 0.000000 0.000000 0.000000 0.000000 0.000000 0.050286
#
#
# Mechanical properties :
#
#
# Convention : Reuss Voigt Hill
#
# Bulk Modulus (GPa) = 45.47328 60.53394 53.00361
# Shear Modulus (GPa) = 21.07109 35.53326 28.30217
#
# Velocity S-wave (km/s) = 3.35612 4.35824 3.88959
# Velocity P-wave (km/s) = 6.27103 7.59500 6.96455
#
# Compressibility (1/GPa) = 0.02199093
#
# Stress axis : x y z
#
# Youngs Moduli (GPa) = 33.27988 34.64994 82.19193
#
# Poissons Ratio (x) = 0.47472 0.95997
# Poissons Ratio (y) = 0.45595 -0.06888
# Poissons Ratio (z) = 0.38870 -0.02904
#
# Static dielectric constant tensor:
#      x y z
#    x 3.283440 0.000000 0.000000 
#    y 0.000000 3.366390 0.000000 
#    z 0.000000 0.000000 3.951070 
# 
# 
# High freq. dielectric constant tensor:
#      x y z
#    x 1.709780 0.000000 0.000000 
#    y 0.000000 1.723130 0.000000 
#    z 0.000000 0.000000 1.749740 
# 
# From -- ./inp_files/71034.got.cif
#   From: 2010.03.12/outbox.cif.g09.slc.cpg/sg65_36_cif.got.tgz:71034.got - 2010.04.10 20:52:16.
