data_PCOD8269846
_publ_section_title
;
Structure prediction by ZEFSAII (Michael W. Deem and Ramdas Pophale) SiO2 
 PCOD8269846
Probable space group: C M M M
;
_chemical_formula_sum "Si O2"
_cell_formula_units_Z 104
_cell_length_a 8.965833
_cell_length_b 29.867285
_cell_length_c 23.106423
_cell_angle_alpha 90.000000
_cell_angle_beta 90.000000
_cell_angle_gamma 90.000000
_cell_volume 6187.555550
_symmetry_space_group_name_H-M "C M M M"
_symmetry_group_IT_number 65
_symmetry_cell_setting 'orthorhombic'
loop_
_space_group_symop_operation_xyz
x,y,z
-x,-y,z
x,-y,-z
-x,y,-z
-x,-y,-z
x,y,-z
-x,y,z
x,-y,z
1/2+x,1/2+y,z
1/2-x,1/2-y,z
1/2+x,1/2-y,-z
1/2-x,1/2+y,-z
1/2-x,1/2-y,-z
1/2+x,1/2+y,-z
1/2-x,1/2+y,z
1/2+x,1/2-y,z
loop_
_atom_site_type_symbol
_atom_site_label
_atom_site_fract_x
_atom_site_fract_y
_atom_site_fract_z
Si Si1 0.171771 0.706336 0.819851
Si Si2 0.670874 0.323794 0.065172
Si Si3 0.325927 0.111000 0.226426
Si Si4 0.665938 0.052826 0.563396
Si Si5 0.673983 0.000000 0.937466
Si Si6 0.325706 0.552523 0.677832
Si Si7 0.668421 0.581370 0.885894
O O1 0.250000 0.750000 0.792431
O O2 0.230799 0.698904 0.885295
O O3 0.197676 0.664954 0.775536
O O4 0.000000 0.717112 0.826943
O O5 0.500000 0.309017 0.074578
O O6 0.685139 0.377245 0.070666
O O7 0.724809 0.310568 0.000000
O O8 0.500000 0.099839 0.214666
O O9 0.273554 0.086694 0.284690
O O10 0.215201 0.092875 0.178485
O O11 0.715422 0.071622 0.500000
O O12 0.500000 0.071157 0.579128
O O13 0.785824 0.066315 0.612045
O O14 0.657753 0.000000 0.559697
O O15 0.718672 0.043679 0.903829
O O16 0.500000 0.000000 0.944541
O O17 0.753214 0.000000 0.000000
O O18 0.500000 0.561079 0.688554
O O19 0.285825 0.500000 0.690521
O O20 0.500000 0.563087 0.885200
#
# Coordination Sequence:
#
# PCOD8269846 Si02
#       7
#    16  16  16  16   8  16  16
#     4  10  21  36  54  74  94 120 153 192 242 295
#     4   9  18  33  52  72  93 117 146 184 234 290
#     4  10  21  36  52  71  96 126 161 199 242 290
#     4   8  14  26  44  66  95 133 173 208 243 280
#     4  11  23  35  47  65  89 119 156 195 236 285
#     4  10  20  31  46  71 102 136 173 207 241 280
#     4  10  20  34  51  68  89 118 154 197 241 284
#
# _framework density 16.807929999999999
#
# number of rings (size 3 to 8) (size 9 to 14) (size 15 to 20)
#    0.000    2.385    0.000    3.000    1.077    5.538 
#    0.000    1.538    0.000    0.000    0.000    0.000 
#    0.000    0.615    0.000    2.000    0.000    2.462 
#
# Total GULP energy -644441.213613 kJ/mol
# GULP energy per Si atom -12393.100262 kJ/mol
# Density = 1.676967 g / cm^3
# Si number density = 16.807930 Si / 1000 Ang^3
#
#
#
# Elastic Constant Matrix: (Units=GPa)
#
#
# Indices 1 2 3 4 5 6 
#
# 1 81.1807 38.7218 27.5344 0.0000 0.0000 0.0000
# 2 38.7218 77.4178 31.4026 0.0000 0.0000 0.0000
# 3 27.5344 31.4026 75.5411 0.0000 0.0000 0.0000
# 4 0.0000 0.0000 0.0000 15.7604 0.0000 0.0000
# 5 0.0000 0.0000 0.0000 0.0000 26.2467 0.0000
# 6 0.0000 0.0000 0.0000 0.0000 0.0000 30.6640
#
#
#
# Elastic Compliance Matrix: (Units=1/GPa)
#
#
# Indices 1 2 3 4 5 6 
#
# 1 0.016783 -0.007112 -0.003161 0.000000 0.000000 0.000000
# 2 -0.007112 0.018551 -0.005119 0.000000 0.000000 0.000000
# 3 -0.003161 -0.005119 0.016518 0.000000 0.000000 0.000000
# 4 0.000000 0.000000 0.000000 0.063450 0.000000 0.000000
# 5 0.000000 0.000000 0.000000 0.000000 0.038100 0.000000
# 6 0.000000 0.000000 0.000000 0.000000 0.000000 0.032612
#
#
# Mechanical properties :
#
#
# Convention : Reuss Voigt Hill
#
# Bulk Modulus (GPa) = 47.46705 47.71748 47.59227
# Shear Modulus (GPa) = 22.33946 23.63293 22.98619
#
# Velocity S-wave (km/s) = 3.64964 3.75381 3.70209
# Velocity P-wave (km/s) = 6.78690 6.87311 6.83014
#
# Compressibility (1/GPa) = 0.02106724
#
# Stress axis : x y z
#
# Youngs Moduli (GPa) = 59.58576 53.90663 60.54017
#
# Poissons Ratio (x) = 0.38338 0.19135
# Poissons Ratio (y) = 0.42377 0.30992
# Poissons Ratio (z) = 0.18833 0.27596
#
# Static dielectric constant tensor:
#      x y z
#    x 3.226930 0.000000 0.000000 
#    y 0.000000 3.086840 0.000000 
#    z 0.000000 0.000000 3.230750 
# 
# 
# High freq. dielectric constant tensor:
#      x y z
#    x 1.659580 0.000000 0.000000 
#    y 0.000000 1.623550 0.000000 
#    z 0.000000 0.000000 1.632180 
# 
# From -- ./inp_files/68492.got.cif
#   From: 2010.03.12/outbox.cif.g09.slc.cpg/sg65_35_cif.got.tgz:68492.got - 2010.04.10 20:52:16.
