data_PCOD8269502
_publ_section_title
;
Structure prediction by ZEFSAII (Michael W. Deem and Ramdas Pophale) SiO2 
 PCOD8269502
Probable space group: C M M M
;
_chemical_formula_sum "Si O2"
_cell_formula_units_Z 88
_cell_length_a 10.243114
_cell_length_b 20.461987
_cell_length_c 22.314078
_cell_angle_alpha 90.000000
_cell_angle_beta 90.000000
_cell_angle_gamma 90.000000
_cell_volume 4676.907252
_symmetry_space_group_name_H-M "C M M M"
_symmetry_group_IT_number 65
_symmetry_cell_setting 'orthorhombic'
loop_
_space_group_symop_operation_xyz
x,y,z
-x,-y,z
x,-y,-z
-x,y,-z
-x,-y,-z
x,y,-z
-x,y,z
x,-y,z
1/2+x,1/2+y,z
1/2-x,1/2-y,z
1/2+x,1/2-y,-z
1/2-x,1/2+y,-z
1/2-x,1/2-y,-z
1/2+x,1/2+y,-z
1/2-x,1/2+y,z
1/2+x,1/2-y,z
loop_
_atom_site_type_symbol
_atom_site_label
_atom_site_fract_x
_atom_site_fract_y
_atom_site_fract_z
Si Si1 0.653960 0.630846 0.065535
Si Si2 0.647964 0.301433 0.183297
Si Si3 0.145877 0.500000 0.237345
Si Si4 0.155043 0.000000 0.128800
Si Si5 0.750000 0.750000 0.358680
Si Si6 0.500000 0.706634 0.430912
Si Si7 0.000000 0.073507 0.627184
Si Si8 0.726685 0.381288 0.710673
O O1 0.500000 0.631713 0.059759
O O2 0.696115 0.682874 0.115817
O O3 0.698298 0.560284 0.087843
O O4 0.716678 0.646600 0.000000
O O5 0.500000 0.273928 0.184001
O O6 0.750000 0.250000 0.209972
O O7 0.655097 0.364707 0.226104
O O8 0.260132 0.500000 0.188690
O O9 0.159145 0.433938 0.277231
O O10 0.000000 0.500000 0.209517
O O11 0.000000 0.000000 0.144902
O O12 0.625399 0.737978 0.399900
O O13 0.779884 0.685937 0.318489
O O14 0.500000 0.726424 0.500000
O O15 0.500000 0.627678 0.425341
O O16 0.126435 0.082826 0.667569
O O17 0.000000 0.000000 0.599911
#
# Coordination Sequence:
#
# PCOD8269502 Si02
#       8
#    16  16   8   8   8   8   8  16
#     4   9  18  33  54  79 103 140 196 243 289 357
#     4  11  22  35  56  82 113 150 190 249 303 352
#     4  12  26  35  55  89 127 155 187 247 309 360
#     4  10  19  34  58  80 102 145 189 241 298 354
#     4  10  23  38  64  90 119 158 202 238 282 342
#     4  10  22  41  64  93 122 157 198 243 286 330
#     4  10  20  35  62  92 118 153 198 240 281 343
#     4  11  21  37  59  86 120 156 201 237 292 351
#
# _framework density 18.815853000000001
#
# number of rings (size 3 to 8) (size 9 to 14) (size 15 to 20)
#    0.000    1.636    4.545    0.545    2.545    2.364 
#    0.000    0.000    0.000    2.182    0.000    0.636 
#    0.000    0.000    0.000    0.000    0.000    0.000 
#
# Total GULP energy -545326.269540 kJ/mol
# GULP energy per Si atom -12393.778853 kJ/mol
# Density = 1.877303 g / cm^3
# Si number density = 18.815853 Si / 1000 Ang^3
#
#
#
# Elastic Constant Matrix: (Units=GPa)
#
#
# Indices 1 2 3 4 5 6 
#
# 1 89.6579 39.0399 33.1786 0.0000 0.0000 0.0000
# 2 39.0399 108.6957 37.2244 0.0000 0.0000 0.0000
# 3 33.1786 37.2244 110.1403 0.0000 0.0000 0.0000
# 4 0.0000 0.0000 0.0000 24.8077 0.0000 0.0000
# 5 0.0000 0.0000 0.0000 0.0000 19.5732 0.0000
# 6 0.0000 0.0000 0.0000 0.0000 0.0000 23.1091
#
#
#
# Elastic Compliance Matrix: (Units=1/GPa)
#
#
# Indices 1 2 3 4 5 6 
#
# 1 0.013965 -0.004043 -0.002840 0.000000 0.000000 0.000000
# 2 -0.004043 0.011575 -0.002694 0.000000 0.000000 0.000000
# 3 -0.002840 -0.002694 0.010845 0.000000 0.000000 0.000000
# 4 0.000000 0.000000 0.000000 0.040310 0.000000 0.000000
# 5 0.000000 0.000000 0.000000 0.000000 0.051090 0.000000
# 6 0.000000 0.000000 0.000000 0.000000 0.000000 0.043273
#
#
# Mechanical properties :
#
#
# Convention : Reuss Voigt Hill
#
# Bulk Modulus (GPa) = 58.03708 58.59772 58.31740
# Shear Modulus (GPa) = 25.51583 26.76809 26.14196
#
# Velocity S-wave (km/s) = 3.68650 3.77588 3.73145
# Velocity P-wave (km/s) = 7.00229 7.08661 7.04457
#
# Compressibility (1/GPa) = 0.01723036
#
# Stress axis : x y z
#
# Youngs Moduli (GPa) = 71.60717 86.39516 92.20440
#
# Poissons Ratio (x) = 0.34930 0.26190
# Poissons Ratio (y) = 0.28951 0.24840
# Poissons Ratio (z) = 0.20339 0.23275
#
# Static dielectric constant tensor:
#      x y z
#    x 3.180280 0.000000 0.000000 
#    y 0.000000 -9.476640 0.000000 
#    z 0.000000 0.000000 2.939310 
# 
# 
# High freq. dielectric constant tensor:
#      x y z
#    x 1.702970 0.000000 0.000000 
#    y 0.000000 1.739000 0.000000 
#    z 0.000000 0.000000 1.727870 
# 
# From -- ./inp_files/61545.got.cif
#   From: 2010.03.12/outbox.cif.g09.slc.cpg/sg65_31_cif.got.tgz:61545.got - 2010.04.10 20:52:16.
