data_PCOD8269761
_publ_section_title
;
Structure prediction by ZEFSAII (Michael W. Deem and Ramdas Pophale) SiO2 
 PCOD8269761
Probable space group: C M M M
;
_chemical_formula_sum "Si O2"
_cell_formula_units_Z 80
_cell_length_a 10.061076
_cell_length_b 29.323097
_cell_length_c 18.988172
_cell_angle_alpha 90.000000
_cell_angle_beta 90.000000
_cell_angle_gamma 90.000000
_cell_volume 5601.926723
_symmetry_space_group_name_H-M "C M M M"
_symmetry_group_IT_number 65
_symmetry_cell_setting 'orthorhombic'
loop_
_space_group_symop_operation_xyz
x,y,z
-x,-y,z
x,-y,-z
-x,y,-z
-x,-y,-z
x,y,-z
-x,y,z
x,-y,z
1/2+x,1/2+y,z
1/2-x,1/2-y,z
1/2+x,1/2-y,-z
1/2-x,1/2+y,-z
1/2-x,1/2-y,-z
1/2+x,1/2+y,-z
1/2-x,1/2+y,z
1/2+x,1/2-y,z
loop_
_atom_site_type_symbol
_atom_site_label
_atom_site_fract_x
_atom_site_fract_y
_atom_site_fract_z
Si Si1 0.500000 0.802173 0.577965
Si Si2 0.849357 0.626201 0.918681
Si Si3 0.343012 0.793141 0.812992
Si Si4 0.754704 0.304272 0.663459
Si Si5 0.500000 0.693236 0.581216
Si Si6 0.148945 0.949350 0.083614
O O1 0.500000 0.821658 0.500000
O O2 0.372907 0.822898 0.615893
O O3 0.500000 0.747583 0.578348
O O4 0.827178 0.673230 0.878219
O O5 0.753543 0.587294 0.886379
O O6 0.000000 0.608653 0.909574
O O7 0.815695 0.636177 0.000000
O O8 0.500000 0.779560 0.801302
O O9 0.250000 0.750000 0.830441
O O10 0.283203 0.818779 0.744055
O O11 0.750000 0.250000 0.662397
O O12 0.623698 0.325070 0.627227
O O13 0.500000 0.674712 0.500000
O O14 0.000000 0.935394 0.107277
O O15 0.183459 0.000000 0.112612
O O16 0.158449 0.950259 0.000000
#
# Coordination Sequence:
#
# PCOD8269761 Si02
#       6
#     8  16  16  16   8  16
#     4   9  14  22  36  52  69  91 120 157 201 237
#     4   9  18  31  44  60  81 104 137 176 209 242
#     4  10  20  31  42  55  75 107 144 180 210 238
#     4   9  16  25  36  51  71  96 126 164 199 240
#     4   9  16  24  36  54  73  91 120 161 201 239
#     4   8  14  26  44  65  86 103 122 155 200 250
#
# _framework density 14.280801
#
# number of rings (size 3 to 8) (size 9 to 14) (size 15 to 20)
#    0.000    3.000    1.000    1.200    4.200    4.000 
#    0.000    2.000    0.000    0.000    0.000    0.000 
#    0.000    0.000    0.000    0.000    0.000    6.000 
#
# Total GULP energy -495631.273197 kJ/mol
# GULP energy per Si atom -12390.781830 kJ/mol
# Density = 1.424830 g / cm^3
# Si number density = 14.280801 Si / 1000 Ang^3
#
#
#
# Elastic Constant Matrix: (Units=GPa)
#
#
# Indices 1 2 3 4 5 6 
#
# 1 124.3581 44.0408 47.8386 0.0000 0.0000 0.0000
# 2 44.0408 48.0508 28.7093 0.0000 0.0000 0.0000
# 3 47.8386 28.7093 70.7287 0.0000 0.0000 0.0000
# 4 0.0000 0.0000 0.0000 0.7577 0.0000 0.0000
# 5 0.0000 0.0000 0.0000 0.0000 21.4553 0.0000
# 6 0.0000 0.0000 0.0000 0.0000 0.0000 31.6379
#
#
#
# Elastic Compliance Matrix: (Units=1/GPa)
#
#
# Indices 1 2 3 4 5 6 
#
# 1 0.013272 -0.008979 -0.005332 0.000000 0.000000 0.000000
# 2 -0.008979 0.033549 -0.007545 0.000000 0.000000 0.000000
# 3 -0.005332 -0.007545 0.020808 0.000000 0.000000 0.000000
# 4 0.000000 0.000000 0.000000 1.319698 0.000000 0.000000
# 5 0.000000 0.000000 0.000000 0.000000 0.046609 0.000000
# 6 0.000000 0.000000 0.000000 0.000000 0.000000 0.031608
#
#
# Mechanical properties :
#
#
# Convention : Reuss Voigt Hill
#
# Bulk Modulus (GPa) = 41.81156 53.81277 47.81216
# Shear Modulus (GPa) = 3.29549 18.94011 11.11780
#
# Velocity S-wave (km/s) = 1.52074 3.64574 2.79321
# Velocity P-wave (km/s) = 5.69432 7.44887 6.62989
#
# Compressibility (1/GPa) = 0.02391683
#
# Stress axis : x y z
#
# Youngs Moduli (GPa) = 75.34445 29.80758 48.05915
#
# Poissons Ratio (x) = 0.26763 0.25627
# Poissons Ratio (y) = 0.67650 0.36259
# Poissons Ratio (z) = 0.40177 0.22489
#
# Static dielectric constant tensor:
#      x y z
#    x 3.141670 0.000000 0.000000 
#    y 0.000000 2.416930 0.000000 
#    z 0.000000 0.000000 2.797670 
# 
# 
# High freq. dielectric constant tensor:
#      x y z
#    x 1.566300 0.000000 0.000000 
#    y 0.000000 1.480820 0.000000 
#    z 0.000000 0.000000 1.534060 
# 
# From -- ./inp_files/60569.got.cif
#   From: 2010.03.12/outbox.cif.g09.slc.cpg/sg65_31_cif.got.tgz:60569.got - 2010.04.10 20:52:16.
