data_PCOD8269537
_publ_section_title
;
Structure prediction by ZEFSAII (Michael W. Deem and Ramdas Pophale) SiO2 
 PCOD8269537
Probable space group: C M M M
;
_chemical_formula_sum "Si O2"
_cell_formula_units_Z 104
_cell_length_a 21.540919
_cell_length_b 27.330796
_cell_length_c 8.892817
_cell_angle_alpha 90.000000
_cell_angle_beta 90.000000
_cell_angle_gamma 90.000000
_cell_volume 5235.472268
_symmetry_space_group_name_H-M "C M M M"
_symmetry_group_IT_number 65
_symmetry_cell_setting 'orthorhombic'
loop_
_space_group_symop_operation_xyz
x,y,z
-x,-y,z
x,-y,-z
-x,y,-z
-x,-y,-z
x,y,-z
-x,y,z
x,-y,z
1/2+x,1/2+y,z
1/2-x,1/2-y,z
1/2+x,1/2-y,-z
1/2-x,1/2+y,-z
1/2-x,1/2-y,-z
1/2+x,1/2+y,-z
1/2-x,1/2+y,z
1/2+x,1/2-y,z
loop_
_atom_site_type_symbol
_atom_site_label
_atom_site_fract_x
_atom_site_fract_y
_atom_site_fract_z
Si Si1 0.165229 0.169646 0.322724
Si Si2 0.500000 0.095646 0.676862
Si Si3 0.572941 0.598419 0.825561
Si Si4 0.926179 0.000000 0.669641
Si Si5 0.866069 0.267171 0.827068
Si Si6 0.369925 0.056623 0.675145
Si Si7 0.790045 0.363132 0.823920
Si Si8 0.000000 0.698243 0.827978
O O1 0.162630 0.165199 0.500000
O O2 0.104709 0.144414 0.253031
O O3 0.165730 0.226412 0.275872
O O4 0.226110 0.143084 0.263158
O O5 0.500000 0.090771 0.500000
O O6 0.438568 0.068896 0.739149
O O7 0.500000 0.152107 0.720135
O O8 0.500000 0.604046 0.798564
O O9 0.598667 0.548116 0.754029
O O10 0.590091 0.597934 0.000000
O O11 0.900276 0.000000 0.500000
O O12 0.000000 0.000000 0.671881
O O13 0.836847 0.319219 0.783529
O O14 0.939734 0.268744 0.795814
O O15 0.851988 0.253940 0.000000
O O16 0.364540 0.071032 0.500000
O O17 0.319887 0.086387 0.770317
O O18 0.355643 0.000000 0.701250
O O19 0.776061 0.365566 0.000000
O O20 0.000000 0.679268 0.000000
#
# Coordination Sequence:
#
# PCOD8269537 Si02
#       8
#    16   8  16   8  16  16  16   8
#     4  12  26  41  61  90 123 157 200 251 305 365
#     4  10  19  34  60  92 128 166 207 253 307 366
#     4  10  21  39  63  89 119 155 197 243 295 356
#     4   9  17  33  59  89 121 153 187 232 289 348
#     4  10  22  40  63  89 121 160 201 247 302 366
#     4  10  21  38  61  91 128 167 208 256 310 365
#     4  11  23  42  65  87 118 160 208 253 301 365
#     4  10  20  37  61  91 124 161 203 250 307 364
#
# _framework density 19.864493
#
# number of rings (size 3 to 8) (size 9 to 14) (size 15 to 20)
#    0.000    1.615    1.538    3.231    1.077    6.769 
#    1.385    0.000    0.000    1.385    0.000    0.000 
#    0.000    0.000    0.000    0.000    0.000    0.000 
#
# Total GULP energy -645093.421642 kJ/mol
# GULP energy per Si atom -12405.642724 kJ/mol
# Density = 1.981928 g / cm^3
# Si number density = 19.864493 Si / 1000 Ang^3
#
#
#
# Elastic Constant Matrix: (Units=GPa)
#
#
# Indices 1 2 3 4 5 6 
#
# 1 89.3883 39.9765 49.2003 0.0000 0.0000 0.0000
# 2 39.9765 104.3631 48.6729 0.0000 0.0000 0.0000
# 3 49.2003 48.6729 110.4465 0.0000 0.0000 0.0000
# 4 0.0000 0.0000 0.0000 39.9296 0.0000 0.0000
# 5 0.0000 0.0000 0.0000 0.0000 28.0170 0.0000
# 6 0.0000 0.0000 0.0000 0.0000 0.0000 17.3974
#
#
#
# Elastic Compliance Matrix: (Units=1/GPa)
#
#
# Indices 1 2 3 4 5 6 
#
# 1 0.015764 -0.003478 -0.005490 0.000000 0.000000 0.000000
# 2 -0.003478 0.012828 -0.004104 0.000000 0.000000 0.000000
# 3 -0.005490 -0.004104 0.013308 0.000000 0.000000 0.000000
# 4 0.000000 0.000000 0.000000 0.025044 0.000000 0.000000
# 5 0.000000 0.000000 0.000000 0.000000 0.035693 0.000000
# 6 0.000000 0.000000 0.000000 0.000000 0.000000 0.057480
#
#
# Mechanical properties :
#
#
# Convention : Reuss Voigt Hill
#
# Bulk Modulus (GPa) = 63.46321 64.43303 63.94812
# Shear Modulus (GPa) = 26.10786 28.15866 27.13326
#
# Velocity S-wave (km/s) = 3.62926 3.76910 3.69984
# Velocity P-wave (km/s) = 7.04127 7.17274 7.10731
#
# Compressibility (1/GPa) = 0.01575716
#
# Stress axis : x y z
#
# Youngs Moduli (GPa) = 63.43464 77.95297 75.14200
#
# Poissons Ratio (x) = 0.27114 0.41250
# Poissons Ratio (y) = 0.22064 0.30837
# Poissons Ratio (z) = 0.34823 0.31991
#
# Static dielectric constant tensor:
#      x y z
#    x 3.666260 0.000000 0.000000 
#    y 0.000000 3.578980 0.000000 
#    z 0.000000 0.000000 3.608970 
# 
# 
# High freq. dielectric constant tensor:
#      x y z
#    x 1.774950 0.000000 0.000000 
#    y 0.000000 1.778900 0.000000 
#    z 0.000000 0.000000 1.773730 
# 
# From -- ./inp_files/12476.got.cif
#   From: 2010.03.12/outbox.cif.g09.slc.cpg/sg65_7_cif.got.tgz:12476.got - 2010.04.10 20:52:16.
