data_PCOD8269058
_publ_section_title
;
Structure prediction by ZEFSAII (Michael W. Deem and Ramdas Pophale) SiO2 
 PCOD8269058
Probable space group: C M M M
;
_chemical_formula_sum "Si O2"
_cell_formula_units_Z 88
_cell_length_a 18.821584
_cell_length_b 9.072372
_cell_length_c 28.436541
_cell_angle_alpha 90.000000
_cell_angle_beta 90.000000
_cell_angle_gamma 90.000000
_cell_volume 4855.721702
_symmetry_space_group_name_H-M "C M M M"
_symmetry_group_IT_number 65
_symmetry_cell_setting 'orthorhombic'
loop_
_space_group_symop_operation_xyz
x,y,z
-x,-y,z
x,-y,-z
-x,y,-z
-x,-y,-z
x,y,-z
-x,y,z
x,-y,z
1/2+x,1/2+y,z
1/2-x,1/2-y,z
1/2+x,1/2-y,-z
1/2-x,1/2+y,-z
1/2-x,1/2-y,-z
1/2+x,1/2+y,-z
1/2-x,1/2+y,z
1/2+x,1/2-y,z
loop_
_atom_site_type_symbol
_atom_site_label
_atom_site_fract_x
_atom_site_fract_y
_atom_site_fract_z
Si Si1 0.083626 0.330855 0.820100
Si Si2 0.677392 0.668209 0.000000
Si Si3 0.581892 0.670517 0.273956
Si Si4 0.920596 0.175040 0.552320
Si Si5 0.325282 0.325834 0.636701
Si Si6 0.826288 0.173398 0.101949
O O1 0.107726 0.500000 0.822904
O O2 0.108165 0.266734 0.770025
O O3 0.119454 0.239435 0.861223
O O4 0.000000 0.312094 0.826267
O O5 0.750000 0.750000 0.000000
O O6 0.638674 0.704433 0.049746
O O7 0.699401 0.500000 0.000000
O O8 0.500000 0.702681 0.286413
O O9 0.593273 0.500000 0.261097
O O10 0.628177 0.718706 0.318387
O O11 0.896212 0.224588 0.500000
O O12 0.865329 0.237368 0.590513
O O13 0.000000 0.235756 0.562743
O O14 0.922756 0.000000 0.555825
O O15 0.314630 0.500000 0.633427
O O16 0.250000 0.250000 0.641077
O O17 0.750000 0.250000 0.107187
O O18 0.816988 0.000000 0.111326
#
# Coordination Sequence:
#
# PCOD8269058 Si02
#       6
#    16   8  16  16  16  16
#     4  10  21  36  53  75 103 133 167 208 254 303
#     4   8  16  30  49  74 101 131 167 205 245 292
#     4   9  18  34  54  71  90 124 169 210 246 289
#     4   8  14  27  49  74  97 125 165 207 240 277
#     4  10  20  32  48  73 102 129 159 199 247 296
#     4  10  19  33  54  78 104 134 169 208 250 297
#
# _framework density 18.122949999999999
#
# number of rings (size 3 to 8) (size 9 to 14) (size 15 to 20)
#    0.000    2.727    0.000    2.182    0.000    5.818 
#    0.000    2.273    0.000    4.364    0.000    1.273 
#    0.000    0.000    0.000    0.000    0.000    0.000 
#
# Total GULP energy -545354.272651 kJ/mol
# GULP energy per Si atom -12394.415288 kJ/mol
# Density = 1.808170 g / cm^3
# Si number density = 18.122950 Si / 1000 Ang^3
#
#
#
# Elastic Constant Matrix: (Units=GPa)
#
#
# Indices 1 2 3 4 5 6 
#
# 1 80.7200 38.9879 79.4205 0.0000 0.0000 0.0000
# 2 38.9879 68.7545 65.6738 0.0000 0.0000 0.0000
# 3 79.4205 65.6738 181.1004 0.0000 0.0000 0.0000
# 4 0.0000 0.0000 0.0000 18.3812 0.0000 0.0000
# 5 0.0000 0.0000 0.0000 0.0000 18.6991 0.0000
# 6 0.0000 0.0000 0.0000 0.0000 0.0000 29.3531
#
#
#
# Elastic Compliance Matrix: (Units=1/GPa)
#
#
# Indices 1 2 3 4 5 6 
#
# 1 0.022946 -0.005201 -0.008176 0.000000 0.000000 0.000000
# 2 -0.005201 0.023432 -0.006216 0.000000 0.000000 0.000000
# 3 -0.008176 -0.006216 0.011362 0.000000 0.000000 0.000000
# 4 0.000000 0.000000 0.000000 0.054403 0.000000 0.000000
# 5 0.000000 0.000000 0.000000 0.000000 0.053479 0.000000
# 6 0.000000 0.000000 0.000000 0.000000 0.000000 0.034068
#
#
# Mechanical properties :
#
#
# Convention : Reuss Voigt Hill
#
# Bulk Modulus (GPa) = 53.90561 77.63769 65.77165
# Shear Modulus (GPa) = 20.40313 23.05286 21.72799
#
# Velocity S-wave (km/s) = 3.35896 3.57042 3.46630
# Velocity P-wave (km/s) = 6.69720 7.74142 7.23816
#
# Compressibility (1/GPa) = 0.01855094
#
# Stress axis : x y z
#
# Youngs Moduli (GPa) = 43.58136 42.67734 88.01504
#
# Poissons Ratio (x) = 0.22199 0.71965
# Poissons Ratio (y) = 0.22669 0.54711
# Poissons Ratio (z) = 0.35634 0.26529
#
# Static dielectric constant tensor:
#      x y z
#    x 3.168640 0.000000 0.000000 
#    y 0.000000 3.227740 0.000000 
#    z 0.000000 0.000000 3.867970 
# 
# 
# High freq. dielectric constant tensor:
#      x y z
#    x 1.683290 0.000000 0.000000 
#    y 0.000000 1.685620 0.000000 
#    z 0.000000 0.000000 1.723410 
# 
# From -- ./inp_files/77878.got.cif
#   From: 2010.03.12/outbox.cif.g09.slc.cpg/sg65_39_cif.got.tgz:77878.got - 2010.04.10 20:52:16.
