data_PCOD8269266
_publ_section_title
;
Structure prediction by ZEFSAII (Michael W. Deem and Ramdas Pophale) SiO2 
 PCOD8269266
Probable space group: C M M M
;
_chemical_formula_sum "Si O2"
_cell_formula_units_Z 104
_cell_length_a 20.799658
_cell_length_b 19.576185
_cell_length_c 13.940327
_cell_angle_alpha 90.000000
_cell_angle_beta 90.000000
_cell_angle_gamma 90.000000
_cell_volume 5676.193811
_symmetry_space_group_name_H-M "C M M M"
_symmetry_group_IT_number 65
_symmetry_cell_setting 'orthorhombic'
loop_
_space_group_symop_operation_xyz
x,y,z
-x,-y,z
x,-y,-z
-x,y,-z
-x,-y,-z
x,y,-z
-x,y,z
x,-y,z
1/2+x,1/2+y,z
1/2-x,1/2-y,z
1/2+x,1/2-y,-z
1/2-x,1/2+y,-z
1/2-x,1/2-y,-z
1/2+x,1/2+y,-z
1/2-x,1/2+y,z
1/2+x,1/2-y,z
loop_
_atom_site_type_symbol
_atom_site_label
_atom_site_fract_x
_atom_site_fract_y
_atom_site_fract_z
Si Si1 0.863226 0.369873 0.214410
Si Si2 0.500000 0.421805 0.696462
Si Si3 0.575672 0.000000 0.886342
Si Si4 0.881125 0.841965 0.388494
Si Si5 0.500000 0.642053 0.106976
Si Si6 0.126217 0.230425 0.890646
Si Si7 0.575427 0.189108 0.390942
Si Si8 0.273457 0.323574 0.250956
O O1 0.890025 0.434683 0.158917
O O2 0.885669 0.303261 0.157393
O O3 0.892649 0.366888 0.321648
O O4 0.785756 0.372702 0.222923
O O5 0.500000 0.500000 0.667030
O O6 0.562526 0.388424 0.651111
O O7 0.500000 0.416177 0.812221
O O8 0.500000 0.000000 0.861477
O O9 0.586813 0.000000 0.000000
O O10 0.871774 0.856603 0.500000
O O11 0.896888 0.763421 0.365945
O O12 0.814958 0.860165 0.334002
O O13 0.438674 0.689074 0.122035
O O14 0.500000 0.608989 0.000000
O O15 0.184003 0.187857 0.843753
O O16 0.145449 0.242240 0.000000
O O17 0.592101 0.168594 0.500000
O O18 0.500000 0.191042 0.373626
O O19 0.250000 0.250000 0.290403
#
# Coordination Sequence:
#
# PCOD8269266 Si02
#       8
#    16   8   8  16   8  16  16  16
#     4  11  22  38  58  84 121 153 195 237 294 356
#     4  12  23  39  60  83 122 162 202 240 285 344
#     4  11  26  44  63  87 117 158 200 241 294 355
#     4  11  21  36  58  87 122 153 193 246 293 344
#     4  10  20  36  61  89 114 148 197 253 304 340
#     4  10  20  34  59  88 114 144 191 251 303 347
#     4  10  19  33  60  89 113 147 191 246 302 340
#     4  10  20  35  57  87 115 151 187 236 301 351
#
# _framework density 18.322137000000001
#
# number of rings (size 3 to 8) (size 9 to 14) (size 15 to 20)
#    0.000    1.462    5.385    1.154    2.154    5.077 
#    1.385    0.385    0.000    1.385    0.000    0.000 
#    0.000    0.000    0.000    0.000    0.000    0.000 
#
# Total GULP energy -644904.519485 kJ/mol
# GULP energy per Si atom -12402.009990 kJ/mol
# Density = 1.828043 g / cm^3
# Si number density = 18.322137 Si / 1000 Ang^3
#
#
#
# Elastic Constant Matrix: (Units=GPa)
#
#
# Indices 1 2 3 4 5 6 
#
# 1 132.4253 40.6374 57.5196 0.0000 0.0000 0.0000
# 2 40.6374 46.8406 49.8318 0.0000 0.0000 0.0000
# 3 57.5196 49.8318 133.2147 0.0000 0.0000 0.0000
# 4 0.0000 0.0000 0.0000 22.1098 0.0000 0.0000
# 5 0.0000 0.0000 0.0000 0.0000 313.5960 0.0000
# 6 0.0000 0.0000 0.0000 0.0000 0.0000 16.0087
#
#
#
# Elastic Compliance Matrix: (Units=1/GPa)
#
#
# Indices 1 2 3 4 5 6 
#
# 1 0.010568 -0.007166 -0.001883 0.000000 0.000000 0.000000
# 2 -0.007166 0.040320 -0.011988 0.000000 0.000000 0.000000
# 3 -0.001883 -0.011988 0.012804 0.000000 0.000000 0.000000
# 4 0.000000 0.000000 0.000000 0.045229 0.000000 0.000000
# 5 0.000000 0.000000 0.000000 0.000000 0.003189 0.000000
# 6 0.000000 0.000000 0.000000 0.000000 0.000000 0.062466
#
#
# Mechanical properties :
#
#
# Convention : Reuss Voigt Hill
#
# Bulk Modulus (GPa) = 46.25685 67.60646 56.93165
# Shear Modulus (GPa) = 22.33582 81.30901 51.82241
#
# Velocity S-wave (km/s) = 3.49529 6.66887 5.32404
# Velocity P-wave (km/s) = 6.44908 9.81210 8.30265
#
# Compressibility (1/GPa) = 0.02161842
#
# Stress axis : x y z
#
# Youngs Moduli (GPa) = 94.62436 24.80169 78.10001
#
# Poissons Ratio (x) = 0.17772 0.14703
# Poissons Ratio (y) = 0.67805 0.93630
# Poissons Ratio (z) = 0.17814 0.29733
#
# Static dielectric constant tensor:
#      x y z
#    x 3.724940 0.000000 0.000000 
#    y 0.000000 3.347170 0.000000 
#    z 0.000000 0.000000 3.667900 
# 
# 
# High freq. dielectric constant tensor:
#      x y z
#    x 1.726280 0.000000 0.000000 
#    y 0.000000 1.668770 0.000000 
#    z 0.000000 0.000000 1.729680 
# 
# From -- ./inp_files/44457.got.cif
#   From: 2010.03.12/outbox.cif.g09.slc.cpg/sg65_23_cif.got.tgz:44457.got - 2010.04.10 20:52:16.
