data_PCOD8269067
_publ_section_title
;
Structure prediction by ZEFSAII (Michael W. Deem and Ramdas Pophale) SiO2 
 PCOD8269067
Probable space group: C M M M
;
_chemical_formula_sum "Si O2"
_cell_formula_units_Z 104
_cell_length_a 9.075460
_cell_length_b 18.510754
_cell_length_c 33.302662
_cell_angle_alpha 90.000000
_cell_angle_beta 90.000000
_cell_angle_gamma 90.000000
_cell_volume 5594.634329
_symmetry_space_group_name_H-M "C M M M"
_symmetry_group_IT_number 65
_symmetry_cell_setting 'orthorhombic'
loop_
_space_group_symop_operation_xyz
x,y,z
-x,-y,z
x,-y,-z
-x,y,-z
-x,-y,-z
x,y,-z
-x,y,z
x,-y,z
1/2+x,1/2+y,z
1/2-x,1/2-y,z
1/2+x,1/2-y,-z
1/2-x,1/2+y,-z
1/2-x,1/2-y,-z
1/2+x,1/2+y,-z
1/2-x,1/2+y,z
1/2+x,1/2-y,z
loop_
_atom_site_type_symbol
_atom_site_label
_atom_site_fract_x
_atom_site_fract_y
_atom_site_fract_z
Si Si1 0.328670 0.583448 0.119092
Si Si2 0.326713 0.827474 0.412995
Si Si3 0.173880 0.672926 0.187201
Si Si4 0.668184 0.176143 0.500000
Si Si5 0.667938 0.414682 0.654792
Si Si6 0.828926 0.416903 0.265219
Si Si7 0.171173 0.177949 0.955038
O O1 0.500000 0.595276 0.129818
O O2 0.284344 0.500000 0.120667
O O3 0.228794 0.626302 0.150044
O O4 0.292421 0.611732 0.074390
O O5 0.500000 0.818043 0.404989
O O6 0.250000 0.750000 0.408733
O O7 0.295750 0.863321 0.457526
O O8 0.260471 0.882174 0.381315
O O9 0.250000 0.750000 0.187285
O O10 0.218370 0.631309 0.227645
O O11 0.000000 0.683351 0.183471
O O12 0.500000 0.198554 0.500000
O O13 0.750000 0.250000 0.500000
O O14 0.500000 0.387752 0.652501
O O15 0.680275 0.500000 0.651030
O O16 0.735450 0.388725 0.696994
O O17 0.791481 0.500000 0.254895
O O18 0.000000 0.407744 0.275863
O O19 0.250000 0.250000 0.939110
O O20 0.000000 0.195864 0.954985
O O21 0.225346 0.157286 0.000000
#
# Coordination Sequence:
#
# PCOD8269067 Si02
#       7
#    16  16  16   8  16  16  16
#     4  10  21  36  55  80 109 142 180 221 266 316
#     4  10  19  33  54  78 105 137 175 219 264 312
#     4  11  23  38  57  81 109 140 175 217 264 314
#     4   8  16  30  49  74 101 133 173 215 261 310
#     4  10  21  36  54  78 108 141 176 214 259 311
#     4   9  19  37  58  77 100 135 176 215 260 313
#     4   9  18  33  53  77 106 141 180 221 265 313
#
# _framework density 18.58924
#
# number of rings (size 3 to 8) (size 9 to 14) (size 15 to 20)
#    0.000    2.308    0.000    2.308    0.000    6.462 
#    0.000    5.000    0.000    2.308    0.000    3.231 
#    0.000    0.000    0.000    0.000    0.000    0.000 
#
# Total GULP energy -644693.399039 kJ/mol
# GULP energy per Si atom -12397.949982 kJ/mol
# Density = 1.854693 g / cm^3
# Si number density = 18.589240 Si / 1000 Ang^3
#
#
#
# Elastic Constant Matrix: (Units=GPa)
#
#
# Indices 1 2 3 4 5 6 
#
# 1 85.1167 45.3067 68.8328 0.0000 0.0000 0.0000
# 2 45.3067 91.7213 69.8784 0.0000 0.0000 0.0000
# 3 68.8328 69.8784 152.1032 0.0000 0.0000 0.0000
# 4 0.0000 0.0000 0.0000 16.5462 0.0000 0.0000
# 5 0.0000 0.0000 0.0000 0.0000 27.9961 0.0000
# 6 0.0000 0.0000 0.0000 0.0000 0.0000 23.1421
#
#
#
# Elastic Compliance Matrix: (Units=1/GPa)
#
#
# Indices 1 2 3 4 5 6 
#
# 1 0.019675 -0.004516 -0.006829 0.000000 0.000000 0.000000
# 2 -0.004516 0.017810 -0.006139 0.000000 0.000000 0.000000
# 3 -0.006829 -0.006139 0.012485 0.000000 0.000000 0.000000
# 4 0.000000 0.000000 0.000000 0.060437 0.000000 0.000000
# 5 0.000000 0.000000 0.000000 0.000000 0.035719 0.000000
# 6 0.000000 0.000000 0.000000 0.000000 0.000000 0.043211
#
#
# Mechanical properties :
#
#
# Convention : Reuss Voigt Hill
#
# Bulk Modulus (GPa) = 66.65342 77.44189 72.04765
# Shear Modulus (GPa) = 21.80501 23.19842 22.50172
#
# Velocity S-wave (km/s) = 3.42861 3.53646 3.48296
# Velocity P-wave (km/s) = 7.18384 7.64365 7.41731
#
# Compressibility (1/GPa) = 0.01500298
#
# Stress axis : x y z
#
# Youngs Moduli (GPa) = 50.82626 56.14851 80.09607
#
# Poissons Ratio (x) = 0.25356 0.54698
# Poissons Ratio (y) = 0.22953 0.49167
# Poissons Ratio (z) = 0.34709 0.34467
#
# Static dielectric constant tensor:
#      x y z
#    x 3.499170 0.000000 0.000000 
#    y 0.000000 3.284680 0.000000 
#    z 0.000000 0.000000 3.846960 
# 
# 
# High freq. dielectric constant tensor:
#      x y z
#    x 1.727090 0.000000 0.000000 
#    y 0.000000 1.705470 0.000000 
#    z 0.000000 0.000000 1.739970 
# 
# From -- ./inp_files/73368.got.cif
#   From: 2010.03.12/outbox.cif.g09.slc.cpg/sg65_37_cif.got.tgz:73368.got - 2010.04.10 20:52:16.
