data_PCOD8269988
_publ_section_title
;
Structure prediction by ZEFSAII (Michael W. Deem and Ramdas Pophale) SiO2 
 PCOD8269988
Probable space group: C M M M
;
_chemical_formula_sum "Si O2"
_cell_formula_units_Z 88
_cell_length_a 7.582969
_cell_length_b 18.432314
_cell_length_c 30.263784
_cell_angle_alpha 90.000000
_cell_angle_beta 90.000000
_cell_angle_gamma 90.000000
_cell_volume 4230.019499
_symmetry_space_group_name_H-M "C M M M"
_symmetry_group_IT_number 65
_symmetry_cell_setting 'orthorhombic'
loop_
_space_group_symop_operation_xyz
x,y,z
-x,-y,z
x,-y,-z
-x,y,-z
-x,-y,-z
x,y,-z
-x,y,z
x,-y,z
1/2+x,1/2+y,z
1/2-x,1/2-y,z
1/2+x,1/2-y,-z
1/2-x,1/2+y,-z
1/2-x,1/2-y,-z
1/2+x,1/2+y,-z
1/2-x,1/2+y,z
1/2+x,1/2-y,z
loop_
_atom_site_type_symbol
_atom_site_label
_atom_site_fract_x
_atom_site_fract_y
_atom_site_fract_z
Si Si1 0.793245 0.166715 0.131549
Si Si2 0.794225 0.580765 0.690058
Si Si3 0.500000 0.416421 0.552225
Si Si4 0.291984 0.165388 0.395265
Si Si5 0.790350 0.081787 0.048505
Si Si6 0.293634 0.580663 0.785812
O O1 0.750000 0.250000 0.133227
O O2 0.709622 0.132535 0.086932
O O3 0.709358 0.129227 0.175161
O O4 0.000000 0.153206 0.131028
O O5 0.707721 0.500000 0.685426
O O6 0.725697 0.634726 0.652115
O O7 0.747255 0.615103 0.737799
O O8 0.000000 0.572797 0.684833
O O9 0.500000 0.500000 0.568392
O O10 0.500000 0.411687 0.500000
O O11 0.678173 0.376698 0.568255
O O12 0.500000 0.151467 0.403868
O O13 0.250000 0.250000 0.397160
O O14 0.000000 0.084605 0.049148
O O15 0.725702 0.000000 0.057510
O O16 0.722720 0.107745 0.000000
O O17 0.500000 0.576179 0.793204
O O18 0.209780 0.500000 0.788120
#
# Coordination Sequence:
#
# PCOD8269988 Si02
#       6
#    16  16   8  16  16  16
#     4  10  20  32  46  69 101 131 167 212 266 325
#     4   9  19  35  57  84 115 151 193 242 293 350
#     4  11  26  46  70 100 131 171 221 267 317 379
#     4  11  23  42  65  97 133 171 213 262 320 376
#     4   8  14  27  49  72  91 119 163 214 261 309
#     4   9  18  32  51  74  99 137 184 228 274 325
#
# _framework density 20.803685999999999
#
# number of rings (size 3 to 8) (size 9 to 14) (size 15 to 20)
#    0.000    2.455    0.909    1.636    1.273    5.818 
#    0.000    4.545    0.000    1.636    0.000    1.273 
#    0.000    0.000    0.000    0.000    0.000    0.000 
#
# Total GULP energy -545384.112899 kJ/mol
# GULP energy per Si atom -12395.093475 kJ/mol
# Density = 2.075634 g / cm^3
# Si number density = 20.803686 Si / 1000 Ang^3
#
#
#
# Elastic Constant Matrix: (Units=GPa)
#
#
# Indices 1 2 3 4 5 6 
#
# 1 57.3530 23.1474 28.5575 0.0000 0.0000 0.0000
# 2 23.1474 144.4152 90.9365 0.0000 0.0000 0.0000
# 3 28.5575 90.9365 168.1941 0.0000 0.0000 0.0000
# 4 0.0000 0.0000 0.0000 23.7560 0.0000 0.0000
# 5 0.0000 0.0000 0.0000 0.0000 6.5982 0.0000
# 6 0.0000 0.0000 0.0000 0.0000 0.0000 15.9202
#
#
#
# Elastic Compliance Matrix: (Units=1/GPa)
#
#
# Indices 1 2 3 4 5 6 
#
# 1 0.019275 -0.001560 -0.002429 0.000000 0.000000 0.000000
# 2 -0.001560 0.010625 -0.005480 0.000000 0.000000 0.000000
# 3 -0.002429 -0.005480 0.009321 0.000000 0.000000 0.000000
# 4 0.000000 0.000000 0.000000 0.042095 0.000000 0.000000
# 5 0.000000 0.000000 0.000000 0.000000 0.151556 0.000000
# 6 0.000000 0.000000 0.000000 0.000000 0.000000 0.062813
#
#
# Mechanical properties :
#
#
# Convention : Reuss Voigt Hill
#
# Bulk Modulus (GPa) = 49.30229 72.80500 61.05364
# Shear Modulus (GPa) = 15.55774 24.40962 19.98368
#
# Velocity S-wave (km/s) = 2.73763 3.42911 3.10269
# Velocity P-wave (km/s) = 5.80888 7.12394 6.49975
#
# Compressibility (1/GPa) = 0.02028303
#
# Stress axis : x y z
#
# Youngs Moduli (GPa) = 51.88058 94.11770 107.28814
#
# Poissons Ratio (x) = 0.14679 0.26065
# Poissons Ratio (y) = 0.08092 0.58791
# Poissons Ratio (z) = 0.12604 0.51574
#
# Static dielectric constant tensor:
#      x y z
#    x 3.541030 0.000000 0.000000 
#    y 0.000000 3.818130 0.000000 
#    z 0.000000 0.000000 4.144860 
# 
# 
# High freq. dielectric constant tensor:
#      x y z
#    x 1.796110 0.000000 0.000000 
#    y 0.000000 1.804320 0.000000 
#    z 0.000000 0.000000 1.825810 
# 
# From -- ./inp_files/76501.got.cif
#   From: 2010.03.12/outbox.cif.g09.slc.cpg/sg65_39_cif.got.tgz:76501.got - 2010.04.10 20:52:16.
