data_PCOD8269806
_publ_section_title
;
Structure prediction by ZEFSAII (Michael W. Deem and Ramdas Pophale) SiO2 
 PCOD8269806
Probable space group: C M M M
;
_chemical_formula_sum "Si O2"
_cell_formula_units_Z 96
_cell_length_a 9.505574
_cell_length_b 26.647245
_cell_length_c 24.218421
_cell_angle_alpha 90.000000
_cell_angle_beta 90.000000
_cell_angle_gamma 90.000000
_cell_volume 6134.462084
_symmetry_space_group_name_H-M "C M M M"
_symmetry_group_IT_number 65
_symmetry_cell_setting 'orthorhombic'
loop_
_space_group_symop_operation_xyz
x,y,z
-x,-y,z
x,-y,-z
-x,y,-z
-x,-y,-z
x,y,-z
-x,y,z
x,-y,z
1/2+x,1/2+y,z
1/2-x,1/2-y,z
1/2+x,1/2-y,-z
1/2-x,1/2+y,-z
1/2-x,1/2-y,-z
1/2+x,1/2+y,-z
1/2-x,1/2+y,z
1/2+x,1/2-y,z
loop_
_atom_site_type_symbol
_atom_site_label
_atom_site_fract_x
_atom_site_fract_y
_atom_site_fract_z
Si Si1 0.837098 0.899786 0.278281
Si Si2 0.662046 0.942084 0.624640
Si Si3 0.162627 0.864161 0.562674
Si Si4 0.158468 0.559636 0.939347
Si Si5 0.839908 0.202105 0.663751
Si Si6 0.337039 0.442087 0.838136
O O1 0.739544 0.933475 0.317241
O O2 0.812936 0.841192 0.291089
O O3 0.793110 0.910166 0.215392
O O4 0.000000 0.914900 0.288616
O O5 0.500000 0.924522 0.629567
O O6 0.739469 0.911589 0.576121
O O7 0.671250 0.000000 0.608242
O O8 0.188875 0.846784 0.500000
O O9 0.202903 0.818293 0.603039
O O10 0.000000 0.879706 0.572840
O O11 0.166115 0.500000 0.938651
O O12 0.256134 0.581219 0.890749
O O13 0.000000 0.578016 0.928320
O O14 0.208942 0.578777 0.000000
O O15 0.750000 0.250000 0.680291
O O16 0.000000 0.219858 0.663992
O O17 0.500000 0.436429 0.851644
O O18 0.296465 0.500000 0.827273
#
# Coordination Sequence:
#
# PCOD8269806 Si02
#       6
#    16  16  16  16  16  16
#     4   9  18  32  47  63  86 115 146 178 212 256
#     4  10  20  31  44  65  91 116 142 175 213 248
#     4   9  19  35  51  66  85 111 143 173 204 252
#     4   8  14  24  36  52  80 118 152 178 207 243
#     4   9  18  32  49  67  86 108 135 171 215 261
#     4   9  16  25  40  62  85 112 147 182 210 237
#
# _framework density 15.649293999999999
#
# number of rings (size 3 to 8) (size 9 to 14) (size 15 to 20)
#    0.000    3.000    0.000    2.500    0.000    6.667 
#    0.000    5.000    0.000    0.000    0.000    0.000 
#    0.000    0.667    0.000    1.500    0.000    2.667 
#
# Total GULP energy -595077.994185 kJ/mol
# GULP energy per Si atom -12397.458212 kJ/mol
# Density = 1.561368 g / cm^3
# Si number density = 15.649294 Si / 1000 Ang^3
#
#
#
# Elastic Constant Matrix: (Units=GPa)
#
#
# Indices 1 2 3 4 5 6 
#
# 1 65.3656 32.6981 41.8351 0.0000 0.0000 0.0000
# 2 32.6981 59.0359 30.6741 0.0000 0.0000 0.0000
# 3 41.8351 30.6741 129.9684 0.0000 0.0000 0.0000
# 4 0.0000 0.0000 0.0000 12.3518 0.0000 0.0000
# 5 0.0000 0.0000 0.0000 0.0000 21.0342 0.0000
# 6 0.0000 0.0000 0.0000 0.0000 0.0000 24.0490
#
#
#
# Elastic Compliance Matrix: (Units=1/GPa)
#
#
# Indices 1 2 3 4 5 6 
#
# 1 0.023900 -0.010532 -0.005207 0.000000 0.000000 0.000000
# 2 -0.010532 0.023947 -0.002262 0.000000 0.000000 0.000000
# 3 -0.005207 -0.002262 0.009904 0.000000 0.000000 0.000000
# 4 0.000000 0.000000 0.000000 0.080960 0.000000 0.000000
# 5 0.000000 0.000000 0.000000 0.000000 0.047542 0.000000
# 6 0.000000 0.000000 0.000000 0.000000 0.000000 0.041582
#
#
# Mechanical properties :
#
#
# Convention : Reuss Voigt Hill
#
# Bulk Modulus (GPa) = 45.97834 51.64272 48.81053
# Shear Modulus (GPa) = 18.44436 21.43118 19.93777
#
# Velocity S-wave (km/s) = 3.43681 3.70464 3.57324
# Velocity P-wave (km/s) = 6.72258 7.16735 6.94852
#
# Compressibility (1/GPa) = 0.02174937
#
# Stress axis : x y z
#
# Youngs Moduli (GPa) = 41.84167 41.75863 100.96738
#
# Poissons Ratio (x) = 0.43978 0.52578
# Poissons Ratio (y) = 0.44066 0.22837
# Poissons Ratio (z) = 0.21789 0.09445
#
# Static dielectric constant tensor:
#      x y z
#    x 3.073380 0.000000 0.000000 
#    y 0.000000 2.627100 0.000000 
#    z 0.000000 0.000000 3.185210 
# 
# 
# High freq. dielectric constant tensor:
#      x y z
#    x 1.605170 0.000000 0.000000 
#    y 0.000000 1.559380 0.000000 
#    z 0.000000 0.000000 1.600900 
# 
# From -- ./inp_files/68039.got.cif
#   From: 2010.03.12/outbox.cif.g09.slc.cpg/sg65_35_cif.got.tgz:68039.got - 2010.04.10 20:52:16.
