data_PCOD8269957
_publ_section_title
;
Structure prediction by ZEFSAII (Michael W. Deem and Ramdas Pophale) SiO2 
 PCOD8269957
Probable space group: C M M M
;
_chemical_formula_sum "Si O2"
_cell_formula_units_Z 104
_cell_length_a 27.183105
_cell_length_b 8.803144
_cell_length_c 26.528636
_cell_angle_alpha 90.000000
_cell_angle_beta 90.000000
_cell_angle_gamma 90.000000
_cell_volume 6348.217376
_symmetry_space_group_name_H-M "C M M M"
_symmetry_group_IT_number 65
_symmetry_cell_setting 'orthorhombic'
loop_
_space_group_symop_operation_xyz
x,y,z
-x,-y,z
x,-y,-z
-x,y,-z
-x,-y,-z
x,y,-z
-x,y,z
x,-y,z
1/2+x,1/2+y,z
1/2-x,1/2-y,z
1/2+x,1/2-y,-z
1/2-x,1/2+y,-z
1/2-x,1/2-y,-z
1/2+x,1/2+y,-z
1/2-x,1/2+y,z
1/2+x,1/2-y,z
loop_
_atom_site_type_symbol
_atom_site_label
_atom_site_fract_x
_atom_site_fract_y
_atom_site_fract_z
Si Si1 0.803933 0.820650 0.153846
Si Si2 0.944707 0.819011 0.500000
Si Si3 0.802389 0.678187 0.349544
Si Si4 0.855239 0.322336 0.752793
Si Si5 0.196625 0.677809 0.054623
Si Si6 0.056290 0.823982 0.296998
Si Si7 0.891668 0.176929 0.399851
O O1 0.750000 0.750000 0.161327
O O2 0.838702 0.773211 0.199312
O O3 0.829764 0.759677 0.101980
O O4 0.798972 0.000000 0.151898
O O5 0.916255 0.759370 0.549302
O O6 0.000000 0.752613 0.500000
O O7 0.947072 0.000000 0.500000
O O8 0.797795 0.500000 0.354458
O O9 0.750000 0.750000 0.360632
O O10 0.820708 0.725824 0.293933
O O11 0.840540 0.736574 0.391280
O O12 0.851469 0.500000 0.764664
O O13 0.911343 0.278582 0.740376
O O14 0.201143 0.500000 0.066249
O O15 0.250000 0.750000 0.051189
O O16 0.169961 0.704613 0.000000
O O17 0.070296 0.790405 0.354773
O O18 0.000000 0.777070 0.288722
O O19 0.065407 0.000000 0.284051
O O20 0.879410 0.000000 0.404410
#
# Coordination Sequence:
#
# PCOD8269957 Si02
#       7
#    16   8  16  16  16  16  16
#     4  11  20  29  43  63  90 122 155 191 229 269
#     4   9  16  28  50  77  98 117 146 183 222 265
#     4  10  20  33  49  67  89 119 153 188 225 267
#     4  10  20  32  46  66  91 118 151 189 227 270
#     4   9  16  26  40  58  83 117 155 191 226 265
#     4   9  17  30  48  69  93 120 148 180 222 270
#     4   9  17  30  49  72  96 120 148 182 219 264
#
# _framework density 16.382550999999999
#
# number of rings (size 3 to 8) (size 9 to 14) (size 15 to 20)
#    0.000    2.385    0.000    4.615    0.000    6.154 
#    0.000    0.769    0.000    1.846    0.000    0.000 
#    0.000    0.615    0.000    6.462    0.000    2.769 
#
# Total GULP energy -644695.993899 kJ/mol
# GULP energy per Si atom -12397.999883 kJ/mol
# Density = 1.634526 g / cm^3
# Si number density = 16.382551 Si / 1000 Ang^3
#
#
#
# Elastic Constant Matrix: (Units=GPa)
#
#
# Indices 1 2 3 4 5 6 
#
# 1 102.0204 37.0117 55.4550 0.0000 0.0000 0.0000
# 2 37.0117 80.6673 50.8820 0.0000 0.0000 0.0000
# 3 55.4550 50.8820 132.8955 0.0000 0.0000 0.0000
# 4 0.0000 0.0000 0.0000 21.1189 0.0000 0.0000
# 5 0.0000 0.0000 0.0000 0.0000 10.1390 0.0000
# 6 0.0000 0.0000 0.0000 0.0000 0.0000 23.0180
#
#
#
# Elastic Compliance Matrix: (Units=1/GPa)
#
#
# Indices 1 2 3 4 5 6 
#
# 1 0.013367 -0.003447 -0.004258 0.000000 0.000000 0.000000
# 2 -0.003447 0.017233 -0.005159 0.000000 0.000000 0.000000
# 3 -0.004258 -0.005159 0.011277 0.000000 0.000000 0.000000
# 4 0.000000 0.000000 0.000000 0.047351 0.000000 0.000000
# 5 0.000000 0.000000 0.000000 0.000000 0.098629 0.000000
# 6 0.000000 0.000000 0.000000 0.000000 0.000000 0.043444
#
#
# Mechanical properties :
#
#
# Convention : Reuss Voigt Hill
#
# Bulk Modulus (GPa) = 61.93005 66.92009 64.42507
# Shear Modulus (GPa) = 19.05397 22.33749 20.69573
#
# Velocity S-wave (km/s) = 3.41407 3.69656 3.55812
# Velocity P-wave (km/s) = 7.30929 7.69132 7.50274
#
# Compressibility (1/GPa) = 0.01614725
#
# Stress axis : x y z
#
# Youngs Moduli (GPa) = 74.81053 58.02943 88.67704
#
# Poissons Ratio (x) = 0.20005 0.37759
# Poissons Ratio (y) = 0.25789 0.45752
# Poissons Ratio (z) = 0.31854 0.29940
#
# Static dielectric constant tensor:
#      x y z
#    x 2.918090 0.000000 0.000000 
#    y 0.000000 3.096430 0.000000 
#    z 0.000000 0.000000 3.504580 
# 
# 
# High freq. dielectric constant tensor:
#      x y z
#    x 1.598590 0.000000 0.000000 
#    y 0.000000 1.634400 0.000000 
#    z 0.000000 0.000000 1.632570 
# 
# From -- ./inp_files/71838.got.cif
#   From: 2010.03.12/outbox.cif.g09.slc.cpg/sg65_36_cif.got.tgz:71838.got - 2010.04.10 20:52:16.
