data_PCOD8269016
_publ_section_title
;
Structure prediction by ZEFSAII (Michael W. Deem and Ramdas Pophale) SiO2 
 PCOD8269016
Probable space group: C M M M
;
_chemical_formula_sum "Si O2"
_cell_formula_units_Z 120
_cell_length_a 19.623162
_cell_length_b 27.842512
_cell_length_c 12.712669
_cell_angle_alpha 90.000000
_cell_angle_beta 90.000000
_cell_angle_gamma 90.000000
_cell_volume 6945.669979
_symmetry_space_group_name_H-M "C M M M"
_symmetry_group_IT_number 65
_symmetry_cell_setting 'orthorhombic'
loop_
_space_group_symop_operation_xyz
x,y,z
-x,-y,z
x,-y,-z
-x,y,-z
-x,-y,-z
x,y,-z
-x,y,z
x,-y,z
1/2+x,1/2+y,z
1/2-x,1/2-y,z
1/2+x,1/2-y,-z
1/2-x,1/2+y,-z
1/2-x,1/2-y,-z
1/2+x,1/2+y,-z
1/2-x,1/2+y,z
1/2+x,1/2-y,z
loop_
_atom_site_type_symbol
_atom_site_label
_atom_site_fract_x
_atom_site_fract_y
_atom_site_fract_z
Si Si1 0.425728 0.324133 0.621529
Si Si2 0.173642 0.766477 0.878551
Si Si3 0.809906 0.140673 0.250515
Si Si4 0.419567 0.777588 0.287513
Si Si5 0.172324 0.359791 0.624330
Si Si6 0.000000 0.557144 0.117990
Si Si7 0.232681 0.946064 0.120368
Si Si8 0.631099 0.054437 0.759218
O O1 0.428976 0.334335 0.500000
O O2 0.500000 0.333790 0.673069
O O3 0.371315 0.361364 0.666977
O O4 0.405060 0.268814 0.640558
O O5 0.250000 0.750000 0.857340
O O6 0.169739 0.820493 0.836725
O O7 0.119564 0.731002 0.822629
O O8 0.153820 0.765765 0.000000
O O9 0.740433 0.154214 0.311581
O O10 0.809402 0.089053 0.195250
O O11 0.500000 0.786574 0.268226
O O12 0.387664 0.822774 0.348112
O O13 0.187238 0.359525 0.500000
O O14 0.148691 0.413060 0.658429
O O15 0.934995 0.575587 0.182623
O O16 0.000000 0.500000 0.110361
O O17 0.000000 0.579060 0.000000
O O18 0.311498 0.943691 0.151579
O O19 0.204106 0.000000 0.135494
O O20 0.226241 0.929273 0.000000
O O21 0.620249 0.000000 0.718000
#
# Coordination Sequence:
#
# PCOD8269016 Si02
#       8
#    16  16  16  16  16   8  16  16
#     4   9  18  33  54  77 101 131 165 205 252 301
#     4  10  19  34  54  75 102 135 164 204 259 310
#     4  10  19  33  53  80 104 131 169 211 248 305
#     4  10  21  36  51  73 104 135 174 213 253 304
#     4  11  22  34  51  72 100 139 177 217 259 296
#     4   9  16  30  51  69  89 121 164 216 267 311
#     4   9  17  31  52  76 102 131 164 205 252 301
#     4   9  19  33  48  70  98 129 172 219 262 306
#
# _framework density 17.276949999999999
#
# number of rings (size 3 to 8) (size 9 to 14) (size 15 to 20)
#    0.000    2.333    1.333    1.600    0.933    2.933 
#    0.000    2.667    0.000    4.000    0.000    1.867 
#    0.000    0.000    0.000    0.000    0.000    0.000 
#
# Total GULP energy -743918.619585 kJ/mol
# GULP energy per Si atom -12398.643660 kJ/mol
# Density = 1.723763 g / cm^3
# Si number density = 17.276950 Si / 1000 Ang^3
#
#
#
# Elastic Constant Matrix: (Units=GPa)
#
#
# Indices 1 2 3 4 5 6 
#
# 1 93.3663 37.5905 40.0580 0.0000 0.0000 0.0000
# 2 37.5905 74.2308 41.2731 0.0000 0.0000 0.0000
# 3 40.0580 41.2731 98.1217 0.0000 0.0000 0.0000
# 4 0.0000 0.0000 0.0000 23.0340 0.0000 0.0000
# 5 0.0000 0.0000 0.0000 0.0000 24.9370 0.0000
# 6 0.0000 0.0000 0.0000 0.0000 0.0000 20.5484
#
#
#
# Elastic Compliance Matrix: (Units=1/GPa)
#
#
# Indices 1 2 3 4 5 6 
#
# 1 0.014399 -0.005251 -0.003670 0.000000 0.000000 0.000000
# 2 -0.005251 0.019499 -0.006058 0.000000 0.000000 0.000000
# 3 -0.003670 -0.006058 0.014238 0.000000 0.000000 0.000000
# 4 0.000000 0.000000 0.000000 0.043414 0.000000 0.000000
# 5 0.000000 0.000000 0.000000 0.000000 0.040101 0.000000
# 6 0.000000 0.000000 0.000000 0.000000 0.000000 0.048666
#
#
# Mechanical properties :
#
#
# Convention : Reuss Voigt Hill
#
# Bulk Modulus (GPa) = 55.01159 55.95134 55.48147
# Shear Modulus (GPa) = 23.11240 23.49037 23.30138
#
# Velocity S-wave (km/s) = 3.66151 3.69133 3.67645
# Velocity P-wave (km/s) = 7.05590 7.11499 7.08551
#
# Compressibility (1/GPa) = 0.01817799
#
# Stress axis : x y z
#
# Youngs Moduli (GPa) = 69.44833 51.28414 70.23604
#
# Poissons Ratio (x) = 0.26932 0.25773
# Poissons Ratio (y) = 0.36471 0.42549
# Poissons Ratio (z) = 0.25484 0.31068
#
# Static dielectric constant tensor:
#      x y z
#    x 3.364670 0.000000 0.000000 
#    y 0.000000 3.155440 0.000000 
#    z 0.000000 0.000000 3.184540 
# 
# 
# High freq. dielectric constant tensor:
#      x y z
#    x 1.664270 0.000000 0.000000 
#    y 0.000000 1.654980 0.000000 
#    z 0.000000 0.000000 1.666480 
# 
# From -- ./inp_files/29433.got.cif
#   From: 2010.03.12/outbox.cif.g09.slc.cpg/sg65_15_cif.got.tgz:29433.got - 2010.04.10 20:52:16.
