data_PCOD8269739
_publ_section_title
;
Structure prediction by ZEFSAII (Michael W. Deem and Ramdas Pophale) SiO2 
 PCOD8269739
Probable space group: C M M M
;
_chemical_formula_sum "Si O2"
_cell_formula_units_Z 112
_cell_length_a 14.563726
_cell_length_b 28.459614
_cell_length_c 14.028878
_cell_angle_alpha 90.000000
_cell_angle_beta 90.000000
_cell_angle_gamma 90.000000
_cell_volume 5814.661581
_symmetry_space_group_name_H-M "C M M M"
_symmetry_group_IT_number 65
_symmetry_cell_setting 'orthorhombic'
loop_
_space_group_symop_operation_xyz
x,y,z
-x,-y,z
x,-y,-z
-x,y,-z
-x,-y,-z
x,y,-z
-x,y,z
x,-y,z
1/2+x,1/2+y,z
1/2-x,1/2-y,z
1/2+x,1/2-y,-z
1/2-x,1/2+y,-z
1/2-x,1/2-y,-z
1/2+x,1/2+y,-z
1/2-x,1/2+y,z
1/2+x,1/2-y,z
loop_
_atom_site_type_symbol
_atom_site_label
_atom_site_fract_x
_atom_site_fract_y
_atom_site_fract_z
Si Si1 0.604494 0.946582 0.112082
Si Si2 0.604894 0.674312 0.888325
Si Si3 0.101090 0.948461 0.612721
Si Si4 0.893223 0.229725 0.604321
Si Si5 0.105830 0.273795 0.202688
Si Si6 0.776792 0.136612 0.606921
Si Si7 0.284985 0.862120 0.802953
O O1 0.500000 0.935778 0.143731
O O2 0.673649 0.911042 0.162590
O O3 0.630520 0.000000 0.140854
O O4 0.614583 0.939787 0.000000
O O5 0.500000 0.660582 0.859419
O O6 0.623522 0.728413 0.861875
O O7 0.677645 0.641251 0.833105
O O8 0.620341 0.667552 0.000000
O O9 0.093093 0.945508 0.500000
O O10 0.171017 0.909181 0.646994
O O11 0.000000 0.939644 0.656902
O O12 0.137196 0.000000 0.644390
O O13 0.873293 0.253317 0.500000
O O14 0.857973 0.263320 0.688949
O O15 0.846046 0.179660 0.608919
O O16 0.000000 0.219394 0.619063
O O17 0.160842 0.316999 0.155339
O O18 0.000000 0.288450 0.204323
O O19 0.735385 0.129878 0.500000
O O20 0.699801 0.142299 0.688117
#
# Coordination Sequence:
#
# PCOD8269739 Si02
#       7
#    16  16  16  16  16  16  16
#     4   9  20  41  67  92 114 137 177 238 297 341
#     4  10  22  38  54  77 113 150 180 219 277 345
#     4   8  14  26  44  65  91 127 175 229 275 313
#     4   9  17  31  50  71 103 149 194 234 277 327
#     4  10  21  36  52  77 108 141 186 235 282 333
#     4  10  20  30  45  73 109 149 189 227 271 325
#     4  12  22  34  58  85 110 146 188 232 279 336
#
# _framework density 19.261654
#
# number of rings (size 3 to 8) (size 9 to 14) (size 15 to 20)
#    0.000    2.286    1.429    2.571    0.000    5.143 
#    0.000    2.857    0.000    1.714    0.000    3.000 
#    0.000    0.000    0.000    0.000    0.000    0.000 
#
# Total GULP energy -694050.473775 kJ/mol
# GULP energy per Si atom -12393.758460 kJ/mol
# Density = 1.921781 g / cm^3
# Si number density = 19.261654 Si / 1000 Ang^3
#
#
#
# Elastic Constant Matrix: (Units=GPa)
#
#
# Indices 1 2 3 4 5 6 
#
# 1 82.2058 52.3399 33.5622 0.0000 0.0000 0.0000
# 2 52.3399 101.1452 29.5188 0.0000 0.0000 0.0000
# 3 33.5622 29.5188 80.7775 0.0000 0.0000 0.0000
# 4 0.0000 0.0000 0.0000 19.5587 0.0000 0.0000
# 5 0.0000 0.0000 0.0000 0.0000 17.2169 0.0000
# 6 0.0000 0.0000 0.0000 0.0000 0.0000 24.8560
#
#
#
# Elastic Compliance Matrix: (Units=1/GPa)
#
#
# Indices 1 2 3 4 5 6 
#
# 1 0.019807 -0.008785 -0.005019 0.000000 0.000000 0.000000
# 2 -0.008785 0.014963 -0.001818 0.000000 0.000000 0.000000
# 3 -0.005019 -0.001818 0.015130 0.000000 0.000000 0.000000
# 4 0.000000 0.000000 0.000000 0.051128 0.000000 0.000000
# 5 0.000000 0.000000 0.000000 0.000000 0.058082 0.000000
# 6 0.000000 0.000000 0.000000 0.000000 0.000000 0.040232
#
#
# Mechanical properties :
#
#
# Convention : Reuss Voigt Hill
#
# Bulk Modulus (GPa) = 53.60370 54.99671 54.30021
# Shear Modulus (GPa) = 21.11440 22.24015 21.67727
#
# Velocity S-wave (km/s) = 3.31447 3.40168 3.35835
# Velocity P-wave (km/s) = 6.52206 6.63649 6.57952
#
# Compressibility (1/GPa) = 0.01865543
#
# Stress axis : x y z
#
# Youngs Moduli (GPa) = 50.48714 66.83040 66.09566
#
# Poissons Ratio (x) = 0.58709 0.33176
# Poissons Ratio (y) = 0.44352 0.12017
# Poissons Ratio (z) = 0.25341 0.12151
#
# Static dielectric constant tensor:
#      x y z
#    x 3.492310 0.000000 0.000000 
#    y 0.000000 3.605880 0.000000 
#    z 0.000000 0.000000 3.621790 
# 
# 
# High freq. dielectric constant tensor:
#      x y z
#    x 1.737130 0.000000 0.000000 
#    y 0.000000 1.741840 0.000000 
#    z 0.000000 0.000000 1.741250 
# 
# From -- ./inp_files/41111.got.cif
#   From: 2010.03.12/outbox.cif.g09.slc.cpg/sg65_21_cif.got.tgz:41111.got - 2010.04.10 20:52:16.
