data_PCOD8269585
_publ_section_title
;
Structure prediction by ZEFSAII (Michael W. Deem and Ramdas Pophale) SiO2 
 PCOD8269585
Probable space group: C M M M
;
_chemical_formula_sum "Si O2"
_cell_formula_units_Z 112
_cell_length_a 13.354161
_cell_length_b 29.154726
_cell_length_c 13.636342
_cell_angle_alpha 90.000000
_cell_angle_beta 90.000000
_cell_angle_gamma 90.000000
_cell_volume 5309.131189
_symmetry_space_group_name_H-M "C M M M"
_symmetry_group_IT_number 65
_symmetry_cell_setting 'orthorhombic'
loop_
_space_group_symop_operation_xyz
x,y,z
-x,-y,z
x,-y,-z
-x,y,-z
-x,-y,-z
x,y,-z
-x,y,z
x,-y,z
1/2+x,1/2+y,z
1/2-x,1/2-y,z
1/2+x,1/2-y,-z
1/2-x,1/2+y,-z
1/2-x,1/2-y,-z
1/2+x,1/2+y,-z
1/2-x,1/2+y,z
1/2+x,1/2-y,z
loop_
_atom_site_type_symbol
_atom_site_label
_atom_site_fract_x
_atom_site_fract_y
_atom_site_fract_z
Si Si1 0.697005 0.052257 0.887605
Si Si2 0.884836 0.638047 0.206121
Si Si3 0.883212 0.786625 0.301162
Si Si4 0.720048 0.301811 0.106493
Si Si5 0.613120 0.447985 0.770691
Si Si6 0.382209 0.807618 0.390256
Si Si7 0.880569 0.121926 0.607523
O O1 0.631357 0.084348 0.816529
O O2 0.815271 0.058351 0.864491
O O3 0.662955 0.000000 0.868167
O O4 0.679203 0.066134 0.000000
O O5 0.816138 0.667900 0.134537
O O6 0.857763 0.648722 0.320447
O O7 0.000000 0.651646 0.185574
O O8 0.865027 0.802545 0.189416
O O9 0.836487 0.737468 0.333963
O O10 0.836677 0.827257 0.368513
O O11 0.000000 0.783719 0.318299
O O12 0.750000 0.250000 0.093931
O O13 0.680023 0.319630 0.000000
O O14 0.500000 0.434454 0.801833
O O15 0.616408 0.500000 0.731009
O O16 0.656815 0.415606 0.685185
O O17 0.336441 0.813857 0.500000
O O18 0.500000 0.801073 0.400969
O O19 0.842514 0.107375 0.500000
O O20 0.000000 0.123893 0.611182
#
# Coordination Sequence:
#
# PCOD8269585 Si02
#       7
#    16  16  16  16  16  16  16
#     4  10  22  40  62  89 119 149 189 244 295 341
#     4  11  23  41  62  84 114 154 198 244 292 344
#     4  10  19  35  57  82 114 150 189 235 288 347
#     4  11  23  37  54  80 115 151 190 236 285 341
#     4   9  18  34  57  85 118 154 189 229 286 356
#     4   9  18  35  60  86 112 147 190 236 289 347
#     4   9  17  29  49  78 112 152 192 230 276 332
#
# _framework density 21.09573
#
# number of rings (size 3 to 8) (size 9 to 14) (size 15 to 20)
#    0.000    2.143    1.429    1.714    0.000    4.000 
#    0.000    9.286    0.000    5.571    0.000    2.000 
#    0.000    0.000    0.000    0.000    0.000    0.000 
#
# Total GULP energy -694126.167772 kJ/mol
# GULP energy per Si atom -12395.110139 kJ/mol
# Density = 2.104772 g / cm^3
# Si number density = 21.095730 Si / 1000 Ang^3
#
#
#
# Elastic Constant Matrix: (Units=GPa)
#
#
# Indices 1 2 3 4 5 6 
#
# 1 17.3546 24.9957 24.3388 0.0000 0.0000 0.0000
# 2 24.9957 122.9060 62.1999 0.0000 0.0000 0.0000
# 3 24.3388 62.1999 159.7523 0.0000 0.0000 0.0000
# 4 0.0000 0.0000 0.0000 32.3802 0.0000 0.0000
# 5 0.0000 0.0000 0.0000 0.0000 30.2534 0.0000
# 6 0.0000 0.0000 0.0000 0.0000 0.0000 20.5885
#
#
#
# Elastic Compliance Matrix: (Units=1/GPa)
#
#
# Indices 1 2 3 4 5 6 
#
# 1 0.089238 -0.014033 -0.008132 0.000000 0.000000 0.000000
# 2 -0.014033 0.012340 -0.002666 0.000000 0.000000 0.000000
# 3 -0.008132 -0.002666 0.008537 0.000000 0.000000 0.000000
# 4 0.000000 0.000000 0.000000 0.030883 0.000000 0.000000
# 5 0.000000 0.000000 0.000000 0.000000 0.033054 0.000000
# 6 0.000000 0.000000 0.000000 0.000000 0.000000 0.048571
#
#
# Mechanical properties :
#
#
# Convention : Reuss Voigt Hill
#
# Bulk Modulus (GPa) = 16.54224 58.12020 37.33122
# Shear Modulus (GPa) = 17.09777 29.20966 23.15372
#
# Velocity S-wave (km/s) = 2.84999 3.72509 3.31653
# Velocity P-wave (km/s) = 4.32302 6.79060 5.69213
#
# Compressibility (1/GPa) = 0.06045132
#
# Stress axis : x y z
#
# Youngs Moduli (GPa) = 11.20601 81.03926 117.13982
#
# Poissons Ratio (x) = 1.13724 0.95256
# Poissons Ratio (y) = 0.15726 0.31235
# Poissons Ratio (z) = 0.09113 0.21609
#
# Static dielectric constant tensor:
#      x y z
#    x 3.660270 0.000000 0.000000 
#    y 0.000000 4.053000 0.000000 
#    z 0.000000 0.000000 4.233980 
# 
# 
# High freq. dielectric constant tensor:
#      x y z
#    x 1.818230 0.000000 0.000000 
#    y 0.000000 1.824610 0.000000 
#    z 0.000000 0.000000 1.825690 
# 
# From -- ./inp_files/25554.got.cif
#   From: 2010.03.12/outbox.cif.g09.slc.cpg/sg65_13_cif.got.tgz:25554.got - 2010.04.10 20:52:16.
