data_PCOD8269090
_publ_section_title
;
Structure prediction by ZEFSAII (Michael W. Deem and Ramdas Pophale) SiO2 
 PCOD8269090
Probable space group: C M M M
;
_chemical_formula_sum "Si O2"
_cell_formula_units_Z 120
_cell_length_a 26.120906
_cell_length_b 9.099284
_cell_length_c 27.060761
_cell_angle_alpha 90.000000
_cell_angle_beta 90.000000
_cell_angle_gamma 90.000000
_cell_volume 6431.843403
_symmetry_space_group_name_H-M "C M M M"
_symmetry_group_IT_number 65
_symmetry_cell_setting 'orthorhombic'
loop_
_space_group_symop_operation_xyz
x,y,z
-x,-y,z
x,-y,-z
-x,y,-z
-x,-y,-z
x,y,-z
-x,y,z
x,-y,z
1/2+x,1/2+y,z
1/2-x,1/2-y,z
1/2+x,1/2-y,-z
1/2-x,1/2+y,-z
1/2-x,1/2-y,-z
1/2+x,1/2+y,-z
1/2-x,1/2+y,z
1/2+x,1/2-y,z
loop_
_atom_site_type_symbol
_atom_site_label
_atom_site_fract_x
_atom_site_fract_y
_atom_site_fract_z
Si Si1 0.500000 0.825317 0.555219
Si Si2 0.847548 0.830937 0.055911
Si Si3 0.441144 0.672849 0.291465
Si Si4 0.801494 0.327506 0.556706
Si Si5 0.901739 0.674436 0.615287
Si Si6 0.557713 0.167918 0.910479
Si Si7 0.595167 0.832955 0.803635
Si Si8 0.700372 0.829592 0.854481
O O1 0.500000 0.759897 0.500000
O O2 0.550636 0.767908 0.582766
O O3 0.500000 0.000000 0.553240
O O4 0.906053 0.775457 0.058873
O O5 0.811757 0.736969 0.091770
O O6 0.845831 0.000000 0.072516
O O7 0.827742 0.811427 0.000000
O O8 0.500000 0.720477 0.299648
O O9 0.434194 0.500000 0.296815
O O10 0.405028 0.752801 0.331065
O O11 0.422908 0.720056 0.237514
O O12 0.812724 0.283512 0.500000
O O13 0.793365 0.500000 0.562067
O O14 0.750000 0.250000 0.576196
O O15 0.849328 0.273653 0.589375
O O16 0.903410 0.500000 0.621173
O O17 0.500000 0.196124 0.928196
O O18 0.561522 0.198549 0.852040
O O19 0.574876 0.000000 0.920761
O O20 0.654543 0.803741 0.816120
O O21 0.587042 0.000000 0.785050
O O22 0.750000 0.750000 0.831887
O O23 0.711948 0.000000 0.862280
#
# Coordination Sequence:
#
# PCOD8269090 Si02
#       8
#     8  16  16  16  16  16  16  16
#     4   9  16  28  51  81 107 135 177 227 272 315
#     4  10  21  35  51  75 108 144 180 217 260 314
#     4  11  23  36  52  78 112 144 175 215 264 319
#     4   9  18  33  54  80 107 138 180 225 267 315
#     4  10  19  33  54  79 107 142 182 223 268 320
#     4   9  18  33  53  77 104 136 176 222 269 319
#     4   9  19  36  57  79 102 133 175 217 260 315
#     4  10  21  38  60  83 106 134 171 219 270 321
#
# _framework density 18.657171000000002
#
# number of rings (size 3 to 8) (size 9 to 14) (size 15 to 20)
#    0.000    2.333    0.667    2.800    0.000    8.000 
#    0.000    2.000    0.000    1.600    0.000    0.000 
#    0.000    0.000    0.000    0.000    0.000    0.000 
#
# Total GULP energy -744143.052782 kJ/mol
# GULP energy per Si atom -12402.384213 kJ/mol
# Density = 1.861471 g / cm^3
# Si number density = 18.657171 Si / 1000 Ang^3
#
#
#
# Elastic Constant Matrix: (Units=GPa)
#
#
# Indices 1 2 3 4 5 6 
#
# 1 107.8254 40.7574 26.6852 0.0000 0.0000 0.0000
# 2 40.7574 70.4820 30.6427 0.0000 0.0000 0.0000
# 3 26.6852 30.6427 67.8138 0.0000 0.0000 0.0000
# 4 0.0000 0.0000 0.0000 25.0392 0.0000 0.0000
# 5 0.0000 0.0000 0.0000 0.0000 16.8582 0.0000
# 6 0.0000 0.0000 0.0000 0.0000 0.0000 32.8975
#
#
#
# Elastic Compliance Matrix: (Units=1/GPa)
#
#
# Indices 1 2 3 4 5 6 
#
# 1 0.012080 -0.006121 -0.001988 0.000000 0.000000 0.000000
# 2 -0.006121 0.020759 -0.006971 0.000000 0.000000 0.000000
# 3 -0.001988 -0.006971 0.018678 0.000000 0.000000 0.000000
# 4 0.000000 0.000000 0.000000 0.039937 0.000000 0.000000
# 5 0.000000 0.000000 0.000000 0.000000 0.059318 0.000000
# 6 0.000000 0.000000 0.000000 0.000000 0.000000 0.030397
#
#
# Mechanical properties :
#
#
# Convention : Reuss Voigt Hill
#
# Bulk Modulus (GPa) = 46.82375 49.14354 47.98365
# Shear Modulus (GPa) = 22.88860 24.82806 23.85833
#
# Velocity S-wave (km/s) = 3.50637 3.65190 3.57988
# Velocity P-wave (km/s) = 6.44548 6.64676 6.54689
#
# Compressibility (1/GPa) = 0.02135668
#
# Stress axis : x y z
#
# Youngs Moduli (GPa) = 82.78165 48.17269 53.53764
#
# Poissons Ratio (x) = 0.29488 0.10641
# Poissons Ratio (y) = 0.50674 0.37323
# Poissons Ratio (z) = 0.16453 0.33583
#
# Static dielectric constant tensor:
#      x y z
#    x 3.562720 0.000000 0.000000 
#    y 0.000000 3.313020 0.000000 
#    z 0.000000 0.000000 3.269600 
# 
# 
# High freq. dielectric constant tensor:
#      x y z
#    x 1.728440 0.000000 0.000000 
#    y 0.000000 1.715810 0.000000 
#    z 0.000000 0.000000 1.714000 
# 
# From -- ./inp_files/76178.got.cif
#   From: 2010.03.12/outbox.cif.g09.slc.cpg/sg65_39_cif.got.tgz:76178.got - 2010.04.10 20:52:16.
