data_PCOD8269405
_publ_section_title
;
Structure prediction by ZEFSAII (Michael W. Deem and Ramdas Pophale) SiO2 
 PCOD8269405
Probable space group: C M M M
;
_chemical_formula_sum "Si O2"
_cell_formula_units_Z 104
_cell_length_a 29.297989
_cell_length_b 20.829964
_cell_length_c 9.602141
_cell_angle_alpha 90.000000
_cell_angle_beta 90.000000
_cell_angle_gamma 90.000000
_cell_volume 5859.956740
_symmetry_space_group_name_H-M "C M M M"
_symmetry_group_IT_number 65
_symmetry_cell_setting 'orthorhombic'
loop_
_space_group_symop_operation_xyz
x,y,z
-x,-y,z
x,-y,-z
-x,y,-z
-x,-y,-z
x,y,-z
-x,y,z
x,-y,z
1/2+x,1/2+y,z
1/2-x,1/2-y,z
1/2+x,1/2-y,-z
1/2-x,1/2+y,-z
1/2-x,1/2-y,-z
1/2+x,1/2+y,-z
1/2-x,1/2+y,z
1/2+x,1/2-y,z
loop_
_atom_site_type_symbol
_atom_site_label
_atom_site_fract_x
_atom_site_fract_y
_atom_site_fract_z
Si Si1 0.050833 0.203818 0.160291
Si Si2 0.296320 0.926771 0.159461
Si Si3 0.224167 0.815959 0.161506
Si Si4 0.054268 0.430292 0.000000
Si Si5 0.857656 0.651428 0.650216
Si Si6 0.450027 0.847556 0.748447
Si Si7 0.861281 0.796746 0.333044
O O1 0.047417 0.279615 0.175917
O O2 0.090665 0.178769 0.265131
O O3 0.000000 0.175058 0.197397
O O4 0.063299 0.186683 0.000000
O O5 0.255170 0.878104 0.188384
O O6 0.339280 0.903129 0.248314
O O7 0.282732 0.000000 0.200431
O O8 0.311786 0.923451 0.000000
O O9 0.250000 0.750000 0.205722
O O10 0.180747 0.832558 0.258971
O O11 0.209040 0.810868 0.000000
O O12 0.070533 0.395486 0.861981
O O13 0.077072 0.500000 0.000000
O O14 0.000000 0.432630 0.000000
O O15 0.834304 0.641769 0.500000
O O16 0.912655 0.647788 0.627191
O O17 0.849475 0.723170 0.706878
O O18 0.500000 0.866704 0.689635
O O19 0.863087 0.808305 0.500000
#
# Coordination Sequence:
#
# PCOD8269405 Si02
#       7
#    16  16  16   8  16  16  16
#     4   9  16  28  47  69  97 132 166 202 245 292
#     4  10  22  38  55  75  98 126 162 207 256 302
#     4  10  19  34  56  77  97 127 167 210 252 299
#     4   9  16  26  40  58  76  99 144 204 251 284
#     4  10  21  33  47  69  97 129 163 204 252 301
#     4   9  17  29  44  62  87 120 161 207 251 294
#     4  10  20  31  48  75 103 133 168 206 248 296
#
# _framework density 17.747572000000002
#
# number of rings (size 3 to 8) (size 9 to 14) (size 15 to 20)
#    0.000    2.385    2.308    0.462    1.077    3.077 
#    0.000    3.077    0.000    0.000    0.000    3.231 
#    0.000    0.615    0.000    7.077    0.000    2.154 
#
# Total GULP energy -644189.873831 kJ/mol
# GULP energy per Si atom -12388.266804 kJ/mol
# Density = 1.770718 g / cm^3
# Si number density = 17.747572 Si / 1000 Ang^3
#
#
#
# Elastic Constant Matrix: (Units=GPa)
#
#
# Indices 1 2 3 4 5 6 
#
# 1 118.7013 26.4474 57.6309 0.0000 0.0000 0.0000
# 2 26.4474 50.3345 16.6553 0.0000 0.0000 0.0000
# 3 57.6309 16.6553 81.4927 0.0000 0.0000 0.0000
# 4 0.0000 0.0000 0.0000 12.8732 0.0000 0.0000
# 5 0.0000 0.0000 0.0000 0.0000 23.2397 0.0000
# 6 0.0000 0.0000 0.0000 0.0000 0.0000 16.1504
#
#
#
# Elastic Compliance Matrix: (Units=1/GPa)
#
#
# Indices 1 2 3 4 5 6 
#
# 1 0.013631 -0.004261 -0.008769 0.000000 0.000000 0.000000
# 2 -0.004261 0.022640 -0.001614 0.000000 0.000000 0.000000
# 3 -0.008769 -0.001614 0.018802 0.000000 0.000000 0.000000
# 4 0.000000 0.000000 0.000000 0.077681 0.000000 0.000000
# 5 0.000000 0.000000 0.000000 0.000000 0.043030 0.000000
# 6 0.000000 0.000000 0.000000 0.000000 0.000000 0.061918
#
#
# Mechanical properties :
#
#
# Convention : Reuss Voigt Hill
#
# Bulk Modulus (GPa) = 38.78087 50.22174 44.50130
# Shear Modulus (GPa) = 18.14321 20.43897 19.29109
#
# Velocity S-wave (km/s) = 3.20080 3.39728 3.30050
# Velocity P-wave (km/s) = 5.96313 6.61422 6.29710
#
# Compressibility (1/GPa) = 0.02578591
#
# Stress axis : x y z
#
# Youngs Moduli (GPa) = 73.36022 44.16991 53.18469
#
# Poissons Ratio (x) = 0.18819 0.46639
# Poissons Ratio (y) = 0.31257 0.08584
# Poissons Ratio (z) = 0.64331 0.07129
#
# Static dielectric constant tensor:
#      x y z
#    x 3.384680 0.000000 0.000000 
#    y 0.000000 3.003860 0.000000 
#    z 0.000000 0.000000 3.222800 
# 
# 
# High freq. dielectric constant tensor:
#      x y z
#    x 1.694760 0.000000 0.000000 
#    y 0.000000 1.630830 0.000000 
#    z 0.000000 0.000000 1.684600 
# 
# From -- ./inp_files/15070.got.cif
#   From: 2010.03.12/outbox.cif.g09.slc.cpg/sg65_8_cif.got.tgz:15070.got - 2010.04.10 20:52:16.
