data_PCOD8269002
_publ_section_title
;
Structure prediction by ZEFSAII (Michael W. Deem and Ramdas Pophale) SiO2 
 PCOD8269002
Probable space group: C M M M
;
_chemical_formula_sum "Si O2"
_cell_formula_units_Z 88
_cell_length_a 9.285103
_cell_length_b 28.592564
_cell_length_c 17.964505
_cell_angle_alpha 90.000000
_cell_angle_beta 90.000000
_cell_angle_gamma 90.000000
_cell_volume 4769.304845
_symmetry_space_group_name_H-M "C M M M"
_symmetry_group_IT_number 65
_symmetry_cell_setting 'orthorhombic'
loop_
_space_group_symop_operation_xyz
x,y,z
-x,-y,z
x,-y,-z
-x,y,-z
-x,-y,-z
x,y,-z
-x,y,z
x,-y,z
1/2+x,1/2+y,z
1/2-x,1/2-y,z
1/2+x,1/2-y,-z
1/2-x,1/2+y,-z
1/2-x,1/2-y,-z
1/2+x,1/2+y,-z
1/2-x,1/2+y,z
1/2+x,1/2-y,z
loop_
_atom_site_type_symbol
_atom_site_label
_atom_site_fract_x
_atom_site_fract_y
_atom_site_fract_z
Si Si1 0.168962 0.704063 0.138782
Si Si2 0.163644 0.882717 0.916238
Si Si3 0.832204 0.053449 0.780331
Si Si4 0.171218 0.447136 0.500000
Si Si5 0.169954 0.396429 0.352069
Si Si6 0.334217 0.794647 0.688734
O O1 0.250000 0.750000 0.108992
O O2 0.228187 0.660170 0.093786
O O3 0.205027 0.696269 0.225411
O O4 0.000000 0.709471 0.123742
O O5 0.204069 0.924591 0.860546
O O6 0.000000 0.865505 0.901285
O O7 0.180363 0.902176 0.000000
O O8 0.744896 0.080467 0.717944
O O9 0.000000 0.057559 0.761127
O O10 0.780772 0.000000 0.782281
O O11 0.231667 0.500000 0.500000
O O12 0.228725 0.420485 0.427083
O O13 0.000000 0.447213 0.500000
O O14 0.208217 0.341347 0.356447
O O15 0.000000 0.403566 0.341968
O O16 0.500000 0.782343 0.679000
O O17 0.250000 0.750000 0.656135
#
# Coordination Sequence:
#
# PCOD8269002 Si02
#       6
#    16  16  16   8  16  16
#     4  10  19  33  53  78 106 138 176 218 267 318
#     4  10  21  36  53  75 105 140 178 221 267 316
#     4  10  21  36  55  79 105 137 177 220 268 319
#     4   9  18  32  54  83 111 141 177 219 264 309
#     4  10  19  35  57  82 109 140 179 219 261 311
#     4   9  18  31  51  78 106 137 173 214 258 308
#
# _framework density 18.451326000000002
#
# number of rings (size 3 to 8) (size 9 to 14) (size 15 to 20)
#    0.000    2.273    1.818    1.091    0.000    3.636 
#    0.000    2.727    0.000    1.636    0.000    2.545 
#    0.000    0.000    0.000    0.000    0.000    0.000 
#
# Total GULP energy -545677.321331 kJ/mol
# GULP energy per Si atom -12401.757303 kJ/mol
# Density = 1.840933 g / cm^3
# Si number density = 18.451326 Si / 1000 Ang^3
#
#
#
# Elastic Constant Matrix: (Units=GPa)
#
#
# Indices 1 2 3 4 5 6 
#
# 1 56.2344 49.2332 37.4725 0.0000 0.0000 0.0000
# 2 49.2332 148.2624 67.9222 0.0000 0.0000 0.0000
# 3 37.4725 67.9222 111.9743 0.0000 0.0000 0.0000
# 4 0.0000 0.0000 0.0000 20.8803 0.0000 0.0000
# 5 0.0000 0.0000 0.0000 0.0000 8.7358 0.0000
# 6 0.0000 0.0000 0.0000 0.0000 0.0000 27.9306
#
#
#
# Elastic Compliance Matrix: (Units=1/GPa)
#
#
# Indices 1 2 3 4 5 6 
#
# 1 0.026930 -0.006666 -0.004968 0.000000 0.000000 0.000000
# 2 -0.006666 0.010991 -0.004436 0.000000 0.000000 0.000000
# 3 -0.004968 -0.004436 0.013284 0.000000 0.000000 0.000000
# 4 0.000000 0.000000 0.000000 0.047892 0.000000 0.000000
# 5 0.000000 0.000000 0.000000 0.000000 0.114472 0.000000
# 6 0.000000 0.000000 0.000000 0.000000 0.000000 0.035803
#
#
# Mechanical properties :
#
#
# Convention : Reuss Voigt Hill
#
# Bulk Modulus (GPa) = 52.45693 69.52520 60.99107
# Shear Modulus (GPa) = 17.36912 22.29888 19.83400
#
# Velocity S-wave (km/s) = 3.07147 3.48016 3.28218
# Velocity P-wave (km/s) = 6.40860 7.34240 6.89133
#
# Compressibility (1/GPa) = 0.01906326
#
# Stress axis : x y z
#
# Youngs Moduli (GPa) = 37.13340 90.98625 75.27824
#
# Poissons Ratio (x) = 0.60655 0.37401
# Poissons Ratio (y) = 0.24755 0.33392
# Poissons Ratio (z) = 0.18449 0.40360
#
# Static dielectric constant tensor:
#      x y z
#    x 3.267780 0.000000 0.000000 
#    y 0.000000 3.578290 0.000000 
#    z 0.000000 0.000000 3.357570 
# 
# 
# High freq. dielectric constant tensor:
#      x y z
#    x 1.702840 0.000000 0.000000 
#    y 0.000000 1.724580 0.000000 
#    z 0.000000 0.000000 1.704900 
# 
# From -- ./inp_files/50370.got.cif
#   From: 2010.03.12/outbox.cif.g09.slc.cpg/sg65_26_cif.got.tgz:50370.got - 2010.04.10 20:52:16.
