data_PCOD8269324
_publ_section_title
;
Structure prediction by ZEFSAII (Michael W. Deem and Ramdas Pophale) SiO2 
 PCOD8269324
Probable space group: C M M M
;
_chemical_formula_sum "Si O2"
_cell_formula_units_Z 120
_cell_length_a 28.702022
_cell_length_b 8.864462
_cell_length_c 28.355978
_cell_angle_alpha 90.000000
_cell_angle_beta 90.000000
_cell_angle_gamma 90.000000
_cell_volume 7214.554298
_symmetry_space_group_name_H-M "C M M M"
_symmetry_group_IT_number 65
_symmetry_cell_setting 'orthorhombic'
loop_
_space_group_symop_operation_xyz
x,y,z
-x,-y,z
x,-y,-z
-x,y,-z
-x,-y,-z
x,y,-z
-x,y,z
x,-y,z
1/2+x,1/2+y,z
1/2-x,1/2-y,z
1/2+x,1/2-y,-z
1/2-x,1/2+y,-z
1/2-x,1/2-y,-z
1/2+x,1/2+y,-z
1/2-x,1/2+y,z
1/2+x,1/2-y,z
loop_
_atom_site_type_symbol
_atom_site_label
_atom_site_fract_x
_atom_site_fract_y
_atom_site_fract_z
Si Si1 0.055187 0.672837 0.311253
Si Si2 0.944583 0.830178 0.406221
Si Si3 0.391621 0.179021 0.052003
Si Si4 0.108399 0.821846 0.772947
Si Si5 0.055591 0.670345 0.500000
Si Si6 0.297684 0.177424 0.205158
Si Si7 0.946271 0.677427 0.142094
Si Si8 0.296916 0.823377 0.904076
O O1 0.071090 0.500000 0.305414
O O2 0.072781 0.733215 0.361720
O O3 0.077284 0.774905 0.271099
O O4 0.000000 0.688020 0.306663
O O5 0.924826 0.754539 0.453778
O O6 0.000000 0.831846 0.407916
O O7 0.925036 0.000000 0.402271
O O8 0.430786 0.228561 0.089619
O O9 0.341075 0.241844 0.067482
O O10 0.389088 0.000000 0.050561
O O11 0.404403 0.242847 0.000000
O O12 0.159199 0.748543 0.766729
O O13 0.084248 0.766500 0.820621
O O14 0.113434 0.000000 0.774625
O O15 0.074526 0.500000 0.500000
O O16 0.000000 0.671565 0.500000
O O17 0.250000 0.250000 0.224631
O O18 0.304136 0.219406 0.150411
O O19 0.296361 0.000000 0.213965
O O20 0.937293 0.500000 0.149859
O O21 0.000000 0.719667 0.148843
O O22 0.250000 0.750000 0.924559
O O23 0.292083 0.000000 0.910905
#
# Coordination Sequence:
#
# PCOD8269324 Si02
#       8
#    16  16  16  16   8  16  16  16
#     4  10  20  33  48  67  94 129 167 208 252 294
#     4   9  16  26  40  60  88 122 163 210 254 294
#     4   9  17  31  50  72  96 120 149 189 235 281
#     4  12  23  34  51  73  97 126 159 195 239 287
#     4   9  15  23  37  57  83 121 168 211 250 293
#     4  10  19  34  54  76 100 123 152 188 230 280
#     4  10  20  35  53  71  92 121 158 199 241 284
#     4   9  17  30  49  71  96 120 144 178 222 274
#
# _framework density 16.633044999999999
#
# number of rings (size 3 to 8) (size 9 to 14) (size 15 to 20)
#    0.000    2.200    1.333    3.000    0.000    6.133 
#    0.000    1.333    0.000    1.200    0.000    0.933 
#    0.000    0.000    0.000    0.600    0.000    8.467 
#
# Total GULP energy -744015.355528 kJ/mol
# GULP energy per Si atom -12400.255925 kJ/mol
# Density = 1.659519 g / cm^3
# Si number density = 16.633045 Si / 1000 Ang^3
#
#
#
# Elastic Constant Matrix: (Units=GPa)
#
#
# Indices 1 2 3 4 5 6 
#
# 1 64.0753 35.8470 25.3303 0.0000 0.0000 0.0000
# 2 35.8470 79.8742 32.6806 0.0000 0.0000 0.0000
# 3 25.3303 32.6806 90.7691 0.0000 0.0000 0.0000
# 4 0.0000 0.0000 0.0000 13.8776 0.0000 0.0000
# 5 0.0000 0.0000 0.0000 0.0000 3.0361 0.0000
# 6 0.0000 0.0000 0.0000 0.0000 0.0000 22.9474
#
#
#
# Elastic Compliance Matrix: (Units=1/GPa)
#
#
# Indices 1 2 3 4 5 6 
#
# 1 0.021497 -0.008436 -0.002962 0.000000 0.000000 0.000000
# 2 -0.008436 0.017993 -0.004124 0.000000 0.000000 0.000000
# 3 -0.002962 -0.004124 0.013328 0.000000 0.000000 0.000000
# 4 0.000000 0.000000 0.000000 0.072059 0.000000 0.000000
# 5 0.000000 0.000000 0.000000 0.000000 0.329371 0.000000
# 6 0.000000 0.000000 0.000000 0.000000 0.000000 0.043578
#
#
# Mechanical properties :
#
#
# Convention : Reuss Voigt Hill
#
# Bulk Modulus (GPa) = 45.92446 46.93713 46.43080
# Shear Modulus (GPa) = 9.32614 17.36293 13.34453
#
# Velocity S-wave (km/s) = 2.37048 3.23442 2.83555
# Velocity P-wave (km/s) = 5.92980 6.49839 6.22060
#
# Compressibility (1/GPa) = 0.02177489
#
# Stress axis : x y z
#
# Youngs Moduli (GPa) = 46.51824 55.57716 75.02823
#
# Poissons Ratio (x) = 0.46884 0.22221
# Poissons Ratio (y) = 0.39242 0.30942
# Poissons Ratio (z) = 0.13778 0.22920
#
# Static dielectric constant tensor:
#      x y z
#    x 3.024570 0.000000 0.000000 
#    y 0.000000 3.118380 0.000000 
#    z 0.000000 0.000000 3.207260 
# 
# 
# High freq. dielectric constant tensor:
#      x y z
#    x 1.610750 0.000000 0.000000 
#    y 0.000000 1.638510 0.000000 
#    z 0.000000 0.000000 1.632650 
# 
# From -- ./inp_files/76116.got.cif
#   From: 2010.03.12/outbox.cif.g09.slc.cpg/sg65_39_cif.got.tgz:76116.got - 2010.04.10 20:52:16.
