data_PCOD8269040
_publ_section_title
;
Structure prediction by ZEFSAII (Michael W. Deem and Ramdas Pophale) SiO2 
 PCOD8269040
Probable space group: C M M M
;
_chemical_formula_sum "Si O2"
_cell_formula_units_Z 64
_cell_length_a 35.883340
_cell_length_b 10.423402
_cell_length_c 8.537128
_cell_angle_alpha 90.000000
_cell_angle_beta 90.000000
_cell_angle_gamma 90.000000
_cell_volume 3193.111917
_symmetry_space_group_name_H-M "C M M M"
_symmetry_group_IT_number 65
_symmetry_cell_setting 'orthorhombic'
loop_
_space_group_symop_operation_xyz
x,y,z
-x,-y,z
x,-y,-z
-x,y,-z
-x,-y,-z
x,y,-z
-x,y,z
x,-y,z
1/2+x,1/2+y,z
1/2-x,1/2-y,z
1/2+x,1/2-y,-z
1/2-x,1/2+y,-z
1/2-x,1/2-y,-z
1/2+x,1/2+y,-z
1/2-x,1/2+y,z
1/2+x,1/2-y,z
loop_
_atom_site_type_symbol
_atom_site_label
_atom_site_fract_x
_atom_site_fract_y
_atom_site_fract_z
Si Si1 0.581739 0.500000 0.686073
Si Si2 0.292160 0.750386 0.313059
Si Si3 0.956290 0.740283 0.682551
Si Si4 0.084932 0.500000 0.181162
Si Si5 0.333835 0.000000 0.684565
Si Si6 0.334202 0.500000 0.686781
O O1 0.581175 0.500000 0.500000
O O2 0.560787 0.626817 0.746926
O O3 0.623745 0.500000 0.751743
O O4 0.292381 0.750678 0.500000
O O5 0.250000 0.750000 0.249377
O O6 0.313681 0.874262 0.245482
O O7 0.313088 0.624927 0.248225
O O8 0.946950 0.719908 0.500000
O O9 0.938935 0.624743 0.779183
O O10 0.000000 0.743645 0.713078
O O11 0.122808 0.500000 0.278186
O O12 0.095207 0.500000 0.000000
O O13 0.328802 0.000000 0.500000
O O14 0.334403 0.500000 0.500000
#
# Coordination Sequence:
#
# PCOD8269040 Si02
#       6
#     8  16  16   8   8   8
#     4   9  17  31  54  84 111 134 169 219 273 327
#     4   9  16  26  44  74 107 134 164 208 261 312
#     4  10  20  36  59  84 108 136 174 222 277 335
#     4  12  25  38  53  76 110 149 188 227 265 313
#     4  10  19  33  54  77 104 138 176 220 269 320
#     4   9  15  23  38  64 101 136 161 196 249 304
#
# _framework density 20.043144999999999
#
# number of rings (size 3 to 8) (size 9 to 14) (size 15 to 20)
#    0.000    2.250    0.000    4.125    0.000   10.500 
#    0.000    0.625    0.000    2.250    0.000    0.000 
#    0.000    0.000    0.000    0.000    0.000    0.000 
#
# Total GULP energy -396856.495588 kJ/mol
# GULP energy per Si atom -12401.765487 kJ/mol
# Density = 1.999753 g / cm^3
# Si number density = 20.043145 Si / 1000 Ang^3
#
#
#
# Elastic Constant Matrix: (Units=GPa)
#
#
# Indices 1 2 3 4 5 6 
#
# 1 147.5449 83.2093 4.9599 0.0000 0.0000 0.0000
# 2 83.2093 206.0949 14.0950 0.0000 0.0000 0.0000
# 3 4.9599 14.0950 11.1719 0.0000 0.0000 0.0000
# 4 0.0000 0.0000 0.0000 -10.8598 0.0000 0.0000
# 5 0.0000 0.0000 0.0000 0.0000 0.8409 0.0000
# 6 0.0000 0.0000 0.0000 0.0000 0.0000 49.9275
#
#
#
# Elastic Compliance Matrix: (Units=1/GPa)
#
#
# Indices 1 2 3 4 5 6 
#
# 1 0.008780 -0.003588 0.000629 0.000000 0.000000 0.000000
# 2 -0.003588 0.006776 -0.006957 0.000000 0.000000 0.000000
# 3 0.000629 -0.006957 0.098008 0.000000 0.000000 0.000000
# 4 0.000000 0.000000 0.000000 -0.092083 0.000000 0.000000
# 5 0.000000 0.000000 0.000000 0.000000 1.189170 0.000000
# 6 0.000000 0.000000 0.000000 0.000000 0.000000 0.020029
#
#
# Mechanical properties :
#
#
# Convention : Reuss Voigt Hill
#
# Bulk Modulus (GPa) = 10.66866 63.26003 36.96435
# Shear Modulus (GPa) = 3.90090 25.48488 14.69289
#
# Velocity S-wave (km/s) = 1.39659 3.56968 2.71045
# Velocity P-wave (km/s) = 2.81692 6.97285 5.31769
#
# Compressibility (1/GPa) = 0.09373249
#
# Stress axis : x y z
#
# Youngs Moduli (GPa) = 113.89739 147.56990 10.20326
#
# Poissons Ratio (x) = 0.52945 -0.00641
# Poissons Ratio (y) = 0.40864 0.07098
# Poissons Ratio (z) = -0.07160 1.02659
#
# Static dielectric constant tensor:
#      x y z
#    x 3.797340 0.000000 0.000000 
#    y 0.000000 3.990590 0.000000 
#    z 0.000000 0.000000 2.922710 
# 
# 
# High freq. dielectric constant tensor:
#      x y z
#    x 1.801740 0.000000 0.000000 
#    y 0.000000 1.805210 0.000000 
#    z 0.000000 0.000000 1.711220 
# 
# From -- ./inp_files/17848.got.cif
#   From: 2010.03.12/outbox.cif.g09.slc.cpg/sg65_9_cif.got.tgz:17848.got - 2010.04.10 20:52:16.
