data_PCOD8269989
_publ_section_title
;
Structure prediction by ZEFSAII (Michael W. Deem and Ramdas Pophale) SiO2 
 PCOD8269989
Probable space group: C M M M
;
_chemical_formula_sum "Si O2"
_cell_formula_units_Z 104
_cell_length_a 9.031800
_cell_length_b 30.204242
_cell_length_c 22.075795
_cell_angle_alpha 90.000000
_cell_angle_beta 90.000000
_cell_angle_gamma 90.000000
_cell_volume 6022.247579
_symmetry_space_group_name_H-M "C M M M"
_symmetry_group_IT_number 65
_symmetry_cell_setting 'orthorhombic'
loop_
_space_group_symop_operation_xyz
x,y,z
-x,-y,z
x,-y,-z
-x,y,-z
-x,-y,-z
x,y,-z
-x,y,z
x,-y,z
1/2+x,1/2+y,z
1/2-x,1/2-y,z
1/2+x,1/2-y,-z
1/2-x,1/2+y,-z
1/2-x,1/2-y,-z
1/2+x,1/2+y,-z
1/2-x,1/2+y,z
1/2+x,1/2-y,z
loop_
_atom_site_type_symbol
_atom_site_label
_atom_site_fract_x
_atom_site_fract_y
_atom_site_fract_z
Si Si1 0.832765 0.947434 0.500000
Si Si2 0.327411 0.947943 0.621021
Si Si3 0.173711 0.882427 0.291011
Si Si4 0.667891 0.206557 0.707022
Si Si5 0.830925 0.448523 0.930767
Si Si6 0.671519 0.619840 0.150165
Si Si7 0.166114 0.292790 0.148721
O O1 0.746402 0.930353 0.440895
O O2 0.000000 0.928501 0.500000
O O3 0.834739 0.000000 0.500000
O O4 0.500000 0.936120 0.619239
O O5 0.249474 0.923923 0.676838
O O6 0.301234 0.000000 0.629800
O O7 0.244932 0.836856 0.315546
O O8 0.207315 0.888681 0.220279
O O9 0.000000 0.881485 0.305136
O O10 0.500000 0.205263 0.682247
O O11 0.750000 0.250000 0.680805
O O12 0.668874 0.208386 0.779111
O O13 0.798957 0.500000 0.921047
O O14 0.721081 0.422722 0.887080
O O15 0.000000 0.437265 0.913627
O O16 0.799189 0.435061 0.000000
O O17 0.500000 0.628714 0.139916
O O18 0.755930 0.662854 0.124995
O O19 0.250000 0.250000 0.122338
O O20 0.000000 0.292107 0.123457
#
# Coordination Sequence:
#
# PCOD8269989 Si02
#       7
#     8  16  16  16  16  16  16
#     4   9  17  31  51  71  92 123 162 201 241 285
#     4  10  20  33  49  70  97 129 165 203 241 284
#     4  10  20  32  46  69 101 132 162 197 240 288
#     4   9  16  27  44  66  93 125 160 197 237 281
#     4   9  19  36  55  72  91 120 160 202 242 287
#     4  10  20  32  48  72 100 128 159 197 241 288
#     4   9  16  27  45  68  95 126 158 192 232 281
#
# _framework density 17.269300000000001
#
# number of rings (size 3 to 8) (size 9 to 14) (size 15 to 20)
#    0.000    2.538    0.000    3.000    0.000    8.615 
#    0.000    3.846    0.000    0.462    0.000    0.538 
#    0.000    0.000    0.000    0.000    0.000    0.000 
#
# Total GULP energy -644869.586901 kJ/mol
# GULP energy per Si atom -12401.338210 kJ/mol
# Density = 1.722999 g / cm^3
# Si number density = 17.269300 Si / 1000 Ang^3
#
#
#
# Elastic Constant Matrix: (Units=GPa)
#
#
# Indices 1 2 3 4 5 6 
#
# 1 140.6564 64.2358 49.9016 0.0000 0.0000 0.0000
# 2 64.2358 91.9179 44.2052 0.0000 0.0000 0.0000
# 3 49.9016 44.2052 52.4871 0.0000 0.0000 0.0000
# 4 0.0000 0.0000 0.0000 1.6882 0.0000 0.0000
# 5 0.0000 0.0000 0.0000 0.0000 26.2033 0.0000
# 6 0.0000 0.0000 0.0000 0.0000 0.0000 37.6808
#
#
#
# Elastic Compliance Matrix: (Units=1/GPa)
#
#
# Indices 1 2 3 4 5 6 
#
# 1 0.011877 -0.004823 -0.007230 0.000000 0.000000 0.000000
# 2 -0.004823 0.020244 -0.012464 0.000000 0.000000 0.000000
# 3 -0.007230 -0.012464 0.036424 0.000000 0.000000 0.000000
# 4 0.000000 0.000000 0.000000 0.592358 0.000000 0.000000
# 5 0.000000 0.000000 0.000000 0.000000 0.038163 0.000000
# 6 0.000000 0.000000 0.000000 0.000000 0.000000 0.026539
#
#
# Mechanical properties :
#
#
# Convention : Reuss Voigt Hill
#
# Bulk Modulus (GPa) = 51.25533 66.86072 59.05803
# Shear Modulus (GPa) = 6.40087 21.56238 13.98162
#
# Velocity S-wave (km/s) = 1.92732 3.53738 2.84847
# Velocity P-wave (km/s) = 5.89043 7.44880 6.71498
#
# Compressibility (1/GPa) = 0.01951017
#
# Stress axis : x y z
#
# Youngs Moduli (GPa) = 84.19453 49.39666 27.45464
#
# Poissons Ratio (x) = 0.23825 0.19850
# Poissons Ratio (y) = 0.40609 0.34220
# Poissons Ratio (z) = 0.60873 0.61570
#
# Static dielectric constant tensor:
#      x y z
#    x 3.399550 0.000000 0.000000 
#    y 0.000000 3.212130 0.000000 
#    z 0.000000 0.000000 2.885770 
# 
# 
# High freq. dielectric constant tensor:
#      x y z
#    x 1.685560 0.000000 0.000000 
#    y 0.000000 1.665630 0.000000 
#    z 0.000000 0.000000 1.624520 
# 
# From -- ./inp_files/66309.got.cif
#   From: 2010.03.12/outbox.cif.g09.slc.cpg/sg65_34_cif.got.tgz:66309.got - 2010.04.10 20:52:16.
