data_PCOD8269168
_publ_section_title
;
Structure prediction by ZEFSAII (Michael W. Deem and Ramdas Pophale) SiO2 
 PCOD8269168
Probable space group: C M M M
;
_chemical_formula_sum "Si O2"
_cell_formula_units_Z 80
_cell_length_a 22.242730
_cell_length_b 8.488624
_cell_length_c 22.247392
_cell_angle_alpha 90.000000
_cell_angle_beta 90.000000
_cell_angle_gamma 90.000000
_cell_volume 4200.533903
_symmetry_space_group_name_H-M "C M M M"
_symmetry_group_IT_number 65
_symmetry_cell_setting 'orthorhombic'
loop_
_space_group_symop_operation_xyz
x,y,z
-x,-y,z
x,-y,-z
-x,y,-z
-x,-y,-z
x,y,-z
-x,y,z
x,-y,z
1/2+x,1/2+y,z
1/2-x,1/2-y,z
1/2+x,1/2-y,-z
1/2-x,1/2+y,-z
1/2-x,1/2-y,-z
1/2+x,1/2+y,-z
1/2-x,1/2+y,z
1/2+x,1/2-y,z
loop_
_atom_site_type_symbol
_atom_site_label
_atom_site_fract_x
_atom_site_fract_y
_atom_site_fract_z
Si Si1 0.000000 0.184410 0.566526
Si Si2 0.877405 0.814426 0.620161
Si Si3 0.815016 0.185919 0.500000
Si Si4 0.312203 0.816247 0.729897
Si Si5 0.067154 0.186882 0.068522
Si Si6 0.684240 0.314666 0.860124
O O1 0.054772 0.233460 0.607950
O O2 0.000000 0.265136 0.500000
O O3 0.000000 0.000000 0.554152
O O4 0.843871 0.749781 0.561113
O O5 0.861210 0.717513 0.679412
O O6 0.866544 0.000000 0.630922
O O7 0.750000 0.250000 0.500000
O O8 0.820550 0.000000 0.500000
O O9 0.250000 0.750000 0.703289
O O10 0.327925 0.726077 0.790973
O O11 0.307237 0.000000 0.744265
O O12 0.125576 0.255129 0.104436
O O13 0.000000 0.243840 0.091810
O O14 0.068486 0.000000 0.073118
O O15 0.074783 0.242878 0.000000
O O16 0.687278 0.500000 0.869298
O O17 0.750000 0.250000 0.881749
#
# Coordination Sequence:
#
# PCOD8269168 Si02
#       6
#     8  16   8  16  16  16
#     4   9  16  32  57  79 101 131 168 209 254 307
#     4  10  19  34  55  78 102 132 170 212 256 309
#     4  10  20  31  49  75 101 126 161 208 257 306
#     4  11  22  37  55  75 104 139 175 217 263 311
#     4   8  15  30  53  81 111 142 179 222 262 304
#     4  10  19  33  55  81 110 142 179 220 266 317
#
# _framework density 19.045199
#
# number of rings (size 3 to 8) (size 9 to 14) (size 15 to 20)
#    0.000    2.300    1.000    4.800    0.000    2.800 
#    1.800    0.500    0.000    4.200    0.000    5.600 
#    0.000    0.000    0.000    0.000    0.000    0.000 
#
# Total GULP energy -495614.009253 kJ/mol
# GULP energy per Si atom -12390.350231 kJ/mol
# Density = 1.900185 g / cm^3
# Si number density = 19.045199 Si / 1000 Ang^3
#
#
#
# Elastic Constant Matrix: (Units=GPa)
#
#
# Indices 1 2 3 4 5 6 
#
# 1 186.4069 19.8320 80.5672 0.0000 0.0000 0.0000
# 2 19.8320 36.1573 10.3886 0.0000 0.0000 0.0000
# 3 80.5672 10.3886 95.9030 0.0000 0.0000 0.0000
# 4 0.0000 0.0000 0.0000 11.6841 0.0000 0.0000
# 5 0.0000 0.0000 0.0000 0.0000 -6.0943 0.0000
# 6 0.0000 0.0000 0.0000 0.0000 0.0000 23.3979
#
#
#
# Elastic Compliance Matrix: (Units=1/GPa)
#
#
# Indices 1 2 3 4 5 6 
#
# 1 0.008680 -0.002752 -0.006994 0.000000 0.000000 0.000000
# 2 -0.002752 0.029418 -0.000875 0.000000 0.000000 0.000000
# 3 -0.006994 -0.000875 0.016398 0.000000 0.000000 0.000000
# 4 0.000000 0.000000 0.000000 0.085587 0.000000 0.000000
# 5 0.000000 0.000000 0.000000 0.000000 -0.164088 0.000000
# 6 0.000000 0.000000 0.000000 0.000000 0.000000 0.042739
#
#
# Mechanical properties :
#
#
# Convention : Reuss Voigt Hill
#
# Bulk Modulus (GPa) = 30.07158 60.00476 45.03817
# Shear Modulus (GPa) = 97.92616 19.64284 58.78450
#
# Velocity S-wave (km/s) = 7.17840 3.21499 5.56173
# Velocity P-wave (km/s) = 9.19400 6.73472 8.05873
#
# Compressibility (1/GPa) = 0.03325399
#
# Stress axis : x y z
#
# Youngs Moduli (GPa) = 115.20312 33.99329 60.98398
#
# Poissons Ratio (x) = 0.09353 0.42653
# Poissons Ratio (y) = 0.31699 0.05337
# Poissons Ratio (z) = 0.80575 0.02975
#
# Static dielectric constant tensor:
#      x y z
#    x 3.921000 0.000000 0.000000 
#    y 0.000000 3.158610 0.000000 
#    z 0.000000 0.000000 3.446270 
# 
# 
# High freq. dielectric constant tensor:
#      x y z
#    x 1.754960 0.000000 0.000000 
#    y 0.000000 1.707320 0.000000 
#    z 0.000000 0.000000 1.737020 
# 
# From -- ./inp_files/70802.got.cif
#   From: 2010.03.12/outbox.cif.g09.slc.cpg/sg65_36_cif.got.tgz:70802.got - 2010.04.10 20:52:16.
