data_PCOD8269931
_publ_section_title
;
Structure prediction by ZEFSAII (Michael W. Deem and Ramdas Pophale) SiO2 
 PCOD8269931
Probable space group: C M M M
;
_chemical_formula_sum "Si O2"
_cell_formula_units_Z 104
_cell_length_a 27.541188
_cell_length_b 9.161316
_cell_length_c 23.705304
_cell_angle_alpha 90.000000
_cell_angle_beta 90.000000
_cell_angle_gamma 90.000000
_cell_volume 5981.168844
_symmetry_space_group_name_H-M "C M M M"
_symmetry_group_IT_number 65
_symmetry_cell_setting 'orthorhombic'
loop_
_space_group_symop_operation_xyz
x,y,z
-x,-y,z
x,-y,-z
-x,y,-z
-x,-y,-z
x,y,-z
-x,y,z
x,-y,z
1/2+x,1/2+y,z
1/2-x,1/2-y,z
1/2+x,1/2-y,-z
1/2-x,1/2+y,-z
1/2-x,1/2-y,-z
1/2+x,1/2+y,-z
1/2-x,1/2+y,z
1/2+x,1/2-y,z
loop_
_atom_site_type_symbol
_atom_site_label
_atom_site_fract_x
_atom_site_fract_y
_atom_site_fract_z
Si Si1 0.700404 0.671439 0.268017
Si Si2 0.402486 0.170804 0.065457
Si Si3 0.858606 0.828170 0.160216
Si Si4 0.500000 0.336464 0.066381
Si Si5 0.054810 0.670789 0.564744
Si Si6 0.108542 0.171829 0.340406
Si Si7 0.947012 0.826898 0.233406
O O1 0.708496 0.500000 0.271181
O O2 0.750000 0.750000 0.283485
O O3 0.684137 0.713275 0.204001
O O4 0.660627 0.719345 0.314542
O O5 0.357171 0.238008 0.101407
O O6 0.451976 0.250305 0.085321
O O7 0.408043 0.000000 0.077286
O O8 0.391160 0.201286 0.000000
O O9 0.908551 0.771543 0.188141
O O10 0.858122 0.000000 0.147034
O O11 0.500000 0.500000 0.093909
O O12 0.500000 0.351724 0.000000
O O13 0.066110 0.708409 0.500000
O O14 0.059005 0.500000 0.575860
O O15 0.096302 0.750159 0.601042
O O16 0.000000 0.723954 0.579863
O O17 0.067546 0.223455 0.296116
O O18 0.107745 0.000000 0.350777
O O19 0.000000 0.763903 0.217915
O O20 0.946054 0.000000 0.232923
#
# Coordination Sequence:
#
# PCOD8269931 Si02
#       7
#    16  16  16   8  16  16  16
#     4   9  19  35  54  77 100 123 157 203 255 304
#     4  10  20  32  45  65  96 128 158 198 244 286
#     4   9  18  31  48  71  94 120 160 198 233 292
#     4   9  17  29  45  63  85 123 169 199 224 269
#     4   9  18  31  46  69 105 144 175 202 235 278
#     4   9  17  30  49  73  98 125 164 206 243 288
#     4   8  14  25  42  65  93 122 151 189 235 278
#
# _framework density 17.387905
#
# number of rings (size 3 to 8) (size 9 to 14) (size 15 to 20)
#    0.000    3.000    0.000    3.462    1.077    4.308 
#    0.000    3.077    0.000    1.846    0.000    0.000 
#    0.000    0.000    0.000    0.000    0.000    0.000 
#
# Total GULP energy -644444.240630 kJ/mol
# GULP energy per Si atom -12393.158474 kJ/mol
# Density = 1.734833 g / cm^3
# Si number density = 17.387905 Si / 1000 Ang^3
#
#
#
# Elastic Constant Matrix: (Units=GPa)
#
#
# Indices 1 2 3 4 5 6 
#
# 1 86.6949 32.8334 38.2895 0.0000 0.0000 0.0000
# 2 32.8334 60.2725 42.8466 0.0000 0.0000 0.0000
# 3 38.2895 42.8466 92.6501 0.0000 0.0000 0.0000
# 4 0.0000 0.0000 0.0000 25.3943 0.0000 0.0000
# 5 0.0000 0.0000 0.0000 0.0000 21.5162 0.0000
# 6 0.0000 0.0000 0.0000 0.0000 0.0000 25.0091
#
#
#
# Elastic Compliance Matrix: (Units=1/GPa)
#
#
# Indices 1 2 3 4 5 6 
#
# 1 0.015334 -0.005733 -0.003686 0.000000 0.000000 0.000000
# 2 -0.005733 0.026860 -0.010053 0.000000 0.000000 0.000000
# 3 -0.003686 -0.010053 0.016965 0.000000 0.000000 0.000000
# 4 0.000000 0.000000 0.000000 0.039379 0.000000 0.000000
# 5 0.000000 0.000000 0.000000 0.000000 0.046477 0.000000
# 6 0.000000 0.000000 0.000000 0.000000 0.000000 0.039985
#
#
# Mechanical properties :
#
#
# Convention : Reuss Voigt Hill
#
# Bulk Modulus (GPa) = 49.46294 51.95073 50.70683
# Shear Modulus (GPa) = 21.67486 22.76046 22.21766
#
# Velocity S-wave (km/s) = 3.53448 3.62191 3.57846
# Velocity P-wave (km/s) = 6.72051 6.88719 6.80436
#
# Compressibility (1/GPa) = 0.02021716
#
# Stress axis : x y z
#
# Youngs Moduli (GPa) = 65.21570 37.22940 58.94356
#
# Poissons Ratio (x) = 0.21343 0.21725
# Poissons Ratio (y) = 0.37388 0.59253
# Poissons Ratio (z) = 0.24037 0.37425
#
# Static dielectric constant tensor:
#      x y z
#    x 3.238280 0.000000 0.000000 
#    y 0.000000 2.984680 0.000000 
#    z 0.000000 0.000000 3.265300 
# 
# 
# High freq. dielectric constant tensor:
#      x y z
#    x 1.644920 0.000000 0.000000 
#    y 0.000000 1.654240 0.000000 
#    z 0.000000 0.000000 1.673360 
# 
# From -- ./inp_files/71859.got.cif
#   From: 2010.03.12/outbox.cif.g09.slc.cpg/sg65_36_cif.got.tgz:71859.got - 2010.04.10 20:52:16.
