data_PCOD8269834
_publ_section_title
;
Structure prediction by ZEFSAII (Michael W. Deem and Ramdas Pophale) SiO2 
 PCOD8269834
Probable space group: C M M M
;
_chemical_formula_sum "Si O2"
_cell_formula_units_Z 120
_cell_length_a 27.575754
_cell_length_b 14.693737
_cell_length_c 19.492809
_cell_angle_alpha 90.000000
_cell_angle_beta 90.000000
_cell_angle_gamma 90.000000
_cell_volume 7898.308371
_symmetry_space_group_name_H-M "C M M M"
_symmetry_group_IT_number 65
_symmetry_cell_setting 'orthorhombic'
loop_
_space_group_symop_operation_xyz
x,y,z
-x,-y,z
x,-y,-z
-x,y,-z
-x,-y,-z
x,y,-z
-x,y,z
x,-y,z
1/2+x,1/2+y,z
1/2-x,1/2-y,z
1/2+x,1/2-y,-z
1/2-x,1/2+y,-z
1/2-x,1/2-y,-z
1/2+x,1/2+y,-z
1/2-x,1/2+y,z
1/2+x,1/2-y,z
loop_
_atom_site_type_symbol
_atom_site_label
_atom_site_fract_x
_atom_site_fract_y
_atom_site_fract_z
Si Si1 0.174279 0.393111 0.328141
Si Si2 0.000000 0.396639 0.418724
Si Si3 0.192068 0.244396 0.923047
Si Si4 0.797061 0.100031 0.181772
Si Si5 0.129346 0.100670 0.420277
Si Si6 0.817992 0.400713 0.827357
Si Si7 0.782077 0.893548 0.327656
Si Si8 0.095812 0.706617 0.580846
O O1 0.168897 0.500000 0.345378
O O2 0.162149 0.373994 0.248137
O O3 0.228541 0.354963 0.344360
O O4 0.139641 0.336290 0.377198
O O5 0.046810 0.341234 0.392808
O O6 0.000000 0.500000 0.388979
O O7 0.000000 0.400650 0.500000
O O8 0.250000 0.250000 0.924599
O O9 0.177113 0.157419 0.877859
O O10 0.166329 0.330298 0.886380
O O11 0.171312 0.235530 0.000000
O O12 0.739681 0.095935 0.173038
O O13 0.805425 0.146251 0.256897
O O14 0.820444 0.000000 0.176566
O O15 0.138887 0.094094 0.500000
O O16 0.181519 0.126036 0.389157
O O17 0.092418 0.183890 0.404137
O O18 0.110864 0.000000 0.393804
O O19 0.838595 0.500000 0.847676
O O20 0.774272 0.000000 0.312323
O O21 0.104345 0.688951 0.500000
#
# Coordination Sequence:
#
# PCOD8269834 Si02
#       8
#    16   8  16  16  16  16  16  16
#     4   9  17  28  42  61  83 109 143 179 212 252
#     4   9  18  34  51  65  85 107 129 169 221 264
#     4   9  16  23  33  50  69  96 135 173 207 238
#     4   8  14  24  36  50  70 100 136 169 204 243
#     4   9  18  31  43  59  86 114 141 174 205 239
#     4   8  15  26  36  49  72 100 132 170 207 241
#     4   8  15  27  41  57  81 115 146 172 209 248
#     4  10  20  31  46  66  83 107 142 175 215 260
#
# _framework density 15.193127
#
# number of rings (size 3 to 8) (size 9 to 14) (size 15 to 20)
#    0.000    3.267    0.000    2.000    1.867    2.400 
#    0.000    5.667    0.000    2.000    0.000    0.000 
#    0.000    0.000    0.000    0.600    0.000    6.933 
#
# Total GULP energy -743336.881274 kJ/mol
# GULP energy per Si atom -12388.948021 kJ/mol
# Density = 1.515855 g / cm^3
# Si number density = 15.193127 Si / 1000 Ang^3
#
#
#
# Elastic Constant Matrix: (Units=GPa)
#
#
# Indices 1 2 3 4 5 6 
#
# 1 47.0955 41.1960 25.7459 0.0000 0.0000 0.0000
# 2 41.1960 106.0754 48.5880 0.0000 0.0000 0.0000
# 3 25.7459 48.5880 59.4134 0.0000 0.0000 0.0000
# 4 0.0000 0.0000 0.0000 24.3596 0.0000 0.0000
# 5 0.0000 0.0000 0.0000 0.0000 2.1380 0.0000
# 6 0.0000 0.0000 0.0000 0.0000 0.0000 16.2000
#
#
#
# Elastic Compliance Matrix: (Units=1/GPa)
#
#
# Indices 1 2 3 4 5 6 
#
# 1 0.033530 -0.010180 -0.006205 0.000000 0.000000 0.000000
# 2 -0.010180 0.018164 -0.010443 0.000000 0.000000 0.000000
# 3 -0.006205 -0.010443 0.028061 0.000000 0.000000 0.000000
# 4 0.000000 0.000000 0.000000 0.041052 0.000000 0.000000
# 5 0.000000 0.000000 0.000000 0.000000 0.467730 0.000000
# 6 0.000000 0.000000 0.000000 0.000000 0.000000 0.061728
#
#
# Mechanical properties :
#
#
# Convention : Reuss Voigt Hill
#
# Bulk Modulus (GPa) = 38.31571 49.29377 43.80474
# Shear Modulus (GPa) = 7.01636 15.00982 11.01309
#
# Velocity S-wave (km/s) = 2.15131 3.14655 2.69527
# Velocity P-wave (km/s) = 5.60756 6.76138 6.21132
#
# Compressibility (1/GPa) = 0.02609895
#
# Stress axis : x y z
#
# Youngs Moduli (GPa) = 29.82404 55.05274 35.63726
#
# Poissons Ratio (x) = 0.56043 0.22112
# Poissons Ratio (y) = 0.30360 0.37218
# Poissons Ratio (z) = 0.18505 0.57494
#
# Static dielectric constant tensor:
#      x y z
#    x 2.433790 0.000000 0.000000 
#    y 0.000000 3.366230 0.000000 
#    z 0.000000 0.000000 2.970190 
# 
# 
# High freq. dielectric constant tensor:
#      x y z
#    x 1.506460 0.000000 0.000000 
#    y 0.000000 1.600640 0.000000 
#    z 0.000000 0.000000 1.573840 
# 
# From -- ./inp_files/66113.got.cif
#   From: 2010.03.12/outbox.cif.g09.slc.cpg/sg65_34_cif.got.tgz:66113.got - 2010.04.10 20:52:16.
