data_PCOD8269746
_publ_section_title
;
Structure prediction by ZEFSAII (Michael W. Deem and Ramdas Pophale) SiO2 
 PCOD8269746
Probable space group: C M M M
;
_chemical_formula_sum "Si O2"
_cell_formula_units_Z 104
_cell_length_a 17.983510
_cell_length_b 25.651548
_cell_length_c 11.881479
_cell_angle_alpha 90.000000
_cell_angle_beta 90.000000
_cell_angle_gamma 90.000000
_cell_volume 5480.984125
_symmetry_space_group_name_H-M "C M M M"
_symmetry_group_IT_number 65
_symmetry_cell_setting 'orthorhombic'
loop_
_space_group_symop_operation_xyz
x,y,z
-x,-y,z
x,-y,-z
-x,y,-z
-x,-y,-z
x,y,-z
-x,y,z
x,-y,z
1/2+x,1/2+y,z
1/2-x,1/2-y,z
1/2+x,1/2-y,-z
1/2-x,1/2+y,-z
1/2-x,1/2-y,-z
1/2+x,1/2+y,-z
1/2-x,1/2+y,z
1/2+x,1/2-y,z
loop_
_atom_site_type_symbol
_atom_site_label
_atom_site_fract_x
_atom_site_fract_y
_atom_site_fract_z
Si Si1 0.297777 0.182150 0.500000
Si Si2 0.828313 0.604925 0.314794
Si Si3 0.577737 0.941812 0.500000
Si Si4 0.668511 0.733462 0.130957
Si Si5 0.914634 0.339169 0.130480
Si Si6 0.363758 0.295829 0.500000
Si Si7 0.673816 0.439642 0.634176
Si Si8 0.584468 0.344372 0.283070
O O1 0.328985 0.158093 0.385860
O O2 0.326609 0.239960 0.500000
O O3 0.209836 0.168235 0.500000
O O4 0.877616 0.565356 0.385246
O O5 0.864203 0.618333 0.194508
O O6 0.747929 0.578627 0.300704
O O7 0.500000 0.908571 0.500000
O O8 0.552706 0.000000 0.500000
O O9 0.750000 0.750000 0.177991
O O10 0.611559 0.780261 0.154372
O O11 0.639635 0.680842 0.190897
O O12 0.674917 0.719582 0.000000
O O13 0.000000 0.343548 0.169939
O O14 0.905564 0.352833 0.000000
O O15 0.413479 0.306684 0.608592
O O16 0.683085 0.432843 0.500000
O O17 0.655902 0.500000 0.663498
O O18 0.608050 0.403053 0.682133
O O19 0.500000 0.346377 0.237200
#
# Coordination Sequence:
#
# PCOD8269746 Si02
#       8
#     8  16   8  16  16   8  16  16
#     4  10  20  30  54  77 110 146 182 226 282 334
#     4  11  18  35  56  82 105 147 190 235 281 348
#     4  10  20  32  51  80 109 137 179 237 292 341
#     4  10  22  39  61  87 117 156 201 239 277 335
#     4  10  21  36  55  83 120 157 189 226 278 343
#     4  11  21  34  49  82 117 153 177 222 284 347
#     4  11  22  39  61  83 111 148 195 248 300 350
#     4  12  23  37  58  84 119 155 195 239 287 346
#
# _framework density 18.974695000000001
#
# number of rings (size 3 to 8) (size 9 to 14) (size 15 to 20)
#    0.000    1.308    3.846    3.462    2.154    1.231 
#    0.000    4.615    0.000    3.231    0.000    6.462 
#    0.000    0.000    0.000    0.000    0.000    0.000 
#
# Total GULP energy -644648.887235 kJ/mol
# GULP energy per Si atom -12397.093985 kJ/mol
# Density = 1.893151 g / cm^3
# Si number density = 18.974695 Si / 1000 Ang^3
#
#
#
# Elastic Constant Matrix: (Units=GPa)
#
#
# Indices 1 2 3 4 5 6 
#
# 1 126.4578 43.1097 33.0828 0.0000 0.0000 0.0000
# 2 43.1097 95.1378 35.8974 0.0000 0.0000 0.0000
# 3 33.0828 35.8974 73.4803 0.0000 0.0000 0.0000
# 4 0.0000 0.0000 0.0000 24.5143 0.0000 0.0000
# 5 0.0000 0.0000 0.0000 0.0000 15.1967 0.0000
# 6 0.0000 0.0000 0.0000 0.0000 0.0000 20.5446
#
#
#
# Elastic Compliance Matrix: (Units=1/GPa)
#
#
# Indices 1 2 3 4 5 6 
#
# 1 0.009784 -0.003398 -0.002745 0.000000 0.000000 0.000000
# 2 -0.003398 0.014066 -0.005342 0.000000 0.000000 0.000000
# 3 -0.002745 -0.005342 0.017455 0.000000 0.000000 0.000000
# 4 0.000000 0.000000 0.000000 0.040793 0.000000 0.000000
# 5 0.000000 0.000000 0.000000 0.000000 0.065804 0.000000
# 6 0.000000 0.000000 0.000000 0.000000 0.000000 0.048675
#
#
# Mechanical properties :
#
#
# Convention : Reuss Voigt Hill
#
# Bulk Modulus (GPa) = 54.53947 57.69507 56.11727
# Shear Modulus (GPa) = 22.15738 24.25018 23.20378
#
# Velocity S-wave (km/s) = 3.42092 3.57883 3.50076
# Velocity P-wave (km/s) = 6.66403 6.89563 6.78082
#
# Compressibility (1/GPa) = 0.01833534
#
# Stress axis : x y z
#
# Youngs Moduli (GPa) = 102.20522 71.09168 57.29065
#
# Poissons Ratio (x) = 0.24155 0.15728
# Poissons Ratio (y) = 0.34726 0.30605
# Poissons Ratio (z) = 0.28058 0.37978
#
# Static dielectric constant tensor:
#      x y z
#    x 3.626470 0.000000 0.000000 
#    y 0.000000 3.385860 0.000000 
#    z 0.000000 0.000000 3.300830 
# 
# 
# High freq. dielectric constant tensor:
#      x y z
#    x 1.748680 0.000000 0.000000 
#    y 0.000000 1.728810 0.000000 
#    z 0.000000 0.000000 1.719420 
# 
# From -- ./inp_files/27532.got.cif
#   From: 2010.03.12/outbox.cif.g09.slc.cpg/sg65_14_cif.got.tgz:27532.got - 2010.04.10 20:52:16.
