data_PCOD8269607
_publ_section_title
;
Structure prediction by ZEFSAII (Michael W. Deem and Ramdas Pophale) SiO2 
 PCOD8269607
Probable space group: C M M M
;
_chemical_formula_sum "Si O2"
_cell_formula_units_Z 60
_cell_length_a 14.351721
_cell_length_b 20.110253
_cell_length_c 10.897553
_cell_angle_alpha 90.000000
_cell_angle_beta 90.000000
_cell_angle_gamma 90.000000
_cell_volume 3145.216224
_symmetry_space_group_name_H-M "C M M M"
_symmetry_group_IT_number 65
_symmetry_cell_setting 'orthorhombic'
loop_
_space_group_symop_operation_xyz
x,y,z
-x,-y,z
x,-y,-z
-x,y,-z
-x,-y,-z
x,y,-z
-x,y,z
x,-y,z
1/2+x,1/2+y,z
1/2-x,1/2-y,z
1/2+x,1/2-y,-z
1/2-x,1/2+y,-z
1/2-x,1/2-y,-z
1/2+x,1/2+y,-z
1/2-x,1/2+y,z
1/2+x,1/2-y,z
loop_
_atom_site_type_symbol
_atom_site_label
_atom_site_fract_x
_atom_site_fract_y
_atom_site_fract_z
Si Si1 0.500000 0.816597 0.000000
Si Si2 0.343194 0.925631 0.000000
Si Si3 0.000000 0.619535 0.641555
Si Si4 0.318431 0.308476 0.641184
Si Si5 0.500000 0.740539 0.252652
Si Si6 0.198571 0.574424 0.732246
O O1 0.412615 0.864477 0.000000
O O2 0.500000 0.768493 0.116038
O O3 0.280585 0.918625 0.122312
O O4 0.390237 0.000000 0.000000
O O5 0.909795 0.590848 0.709387
O O6 0.000000 0.597798 0.500000
O O7 0.000000 0.699258 0.649746
O O8 0.347185 0.299619 0.500000
O O9 0.250000 0.250000 0.684337
O O10 0.409882 0.305397 0.725462
O O11 0.266945 0.378423 0.657153
O O12 0.218929 0.500000 0.686093
#
# Coordination Sequence:
#
# PCOD8269607 Si02
#       6
#     4   8   8  16   8  16
#     4  12  19  36  60  88 121 152 198 250 292 356
#     4  10  19  35  58  86 125 158 187 238 305 365
#     4  12  21  35  58  86 121 150 191 248 303 357
#     4  11  22  39  60  84 121 160 198 247 300 357
#     4  12  24  38  59  90 116 156 203 245 292 354
#     4  11  23  38  60  90 121 157 199 245 301 358
#
# _framework density 19.076589999999999
#
# number of rings (size 3 to 8) (size 9 to 14) (size 15 to 20)
#    0.000    0.800    5.333    2.600    0.000    5.867 
#    0.000    3.333    0.000    1.600    0.000    3.733 
#    0.000    0.000    0.000    0.000    0.000    0.000 
#
# Total GULP energy -372073.502589 kJ/mol
# GULP energy per Si atom -12402.450086 kJ/mol
# Density = 1.903317 g / cm^3
# Si number density = 19.076590 Si / 1000 Ang^3
#
#
#
# Elastic Constant Matrix: (Units=GPa)
#
#
# Indices 1 2 3 4 5 6 
#
# 1 107.5862 56.3394 30.9022 0.0000 0.0000 0.0000
# 2 56.3394 118.2030 18.3602 0.0000 0.0000 0.0000
# 3 30.9022 18.3602 96.6076 0.0000 0.0000 0.0000
# 4 0.0000 0.0000 0.0000 28.6658 0.0000 0.0000
# 5 0.0000 0.0000 0.0000 0.0000 24.6135 0.0000
# 6 0.0000 0.0000 0.0000 0.0000 0.0000 28.8455
#
#
#
# Elastic Compliance Matrix: (Units=1/GPa)
#
#
# Indices 1 2 3 4 5 6 
#
# 1 0.013245 -0.005827 -0.003129 0.000000 0.000000 0.000000
# 2 -0.005827 0.011281 -0.000280 0.000000 0.000000 0.000000
# 3 -0.003129 -0.000280 0.011405 0.000000 0.000000 0.000000
# 4 0.000000 0.000000 0.000000 0.034885 0.000000 0.000000
# 5 0.000000 0.000000 0.000000 0.000000 0.040628 0.000000
# 6 0.000000 0.000000 0.000000 0.000000 0.000000 0.034667
#
#
# Mechanical properties :
#
#
# Convention : Reuss Voigt Hill
#
# Bulk Modulus (GPa) = 57.27823 59.28892 58.28357
# Shear Modulus (GPa) = 29.34202 30.87794 30.10998
#
# Velocity S-wave (km/s) = 3.92614 4.02758 3.97718
# Velocity P-wave (km/s) = 7.11641 7.26467 7.19092
#
# Compressibility (1/GPa) = 0.01745864
#
# Stress axis : x y z
#
# Youngs Moduli (GPa) = 75.49940 88.64575 87.67798
#
# Poissons Ratio (x) = 0.51654 0.27438
# Poissons Ratio (y) = 0.43993 0.02455
# Poissons Ratio (z) = 0.23626 0.02482
#
# Static dielectric constant tensor:
#      x y z
#    x 3.252400 0.000000 0.000000 
#    y 0.000000 3.502710 0.000000 
#    z 0.000000 0.000000 3.624420 
# 
# 
# High freq. dielectric constant tensor:
#      x y z
#    x 1.711580 0.000000 0.000000 
#    y 0.000000 1.740650 0.000000 
#    z 0.000000 0.000000 1.755740 
# 
# From -- ./inp_files/21982.got.cif
#   From: 2010.03.12/outbox.cif.g09.slc.cpg/sg65_11_cif.got.tgz:21982.got - 2010.04.10 20:52:16.
