data_PCOD8269568
_publ_section_title
;
Structure prediction by ZEFSAII (Michael W. Deem and Ramdas Pophale) SiO2 
 PCOD8269568
Probable space group: C M M M
;
_chemical_formula_sum "Si O2"
_cell_formula_units_Z 96
_cell_length_a 17.701059
_cell_length_b 24.020443
_cell_length_c 12.245736
_cell_angle_alpha 90.000000
_cell_angle_beta 90.000000
_cell_angle_gamma 90.000000
_cell_volume 5206.731166
_symmetry_space_group_name_H-M "C M M M"
_symmetry_group_IT_number 65
_symmetry_cell_setting 'orthorhombic'
loop_
_space_group_symop_operation_xyz
x,y,z
-x,-y,z
x,-y,-z
-x,y,-z
-x,-y,-z
x,y,-z
-x,y,z
x,-y,z
1/2+x,1/2+y,z
1/2-x,1/2-y,z
1/2+x,1/2-y,-z
1/2-x,1/2+y,-z
1/2-x,1/2-y,-z
1/2+x,1/2+y,-z
1/2-x,1/2+y,z
1/2+x,1/2-y,z
loop_
_atom_site_type_symbol
_atom_site_label
_atom_site_fract_x
_atom_site_fract_y
_atom_site_fract_z
Si Si1 0.410411 0.937926 0.500000
Si Si2 0.162255 0.741293 0.373281
Si Si3 0.913280 0.856310 0.371746
Si Si4 0.588188 0.866727 0.294974
Si Si5 0.084916 0.933760 0.000000
Si Si6 0.331645 0.564522 0.212743
Si Si7 0.332921 0.936070 0.126025
O O1 0.500000 0.941693 0.500000
O O2 0.381869 0.906191 0.607617
O O3 0.375181 0.000000 0.500000
O O4 0.147402 0.726982 0.500000
O O5 0.250000 0.750000 0.349052
O O6 0.115855 0.795579 0.337621
O O7 0.132864 0.691092 0.298928
O O8 0.904863 0.865145 0.500000
O O9 0.860095 0.902527 0.317877
O O10 0.000000 0.863253 0.333884
O O11 0.500000 0.854024 0.307203
O O12 0.603347 0.897150 0.179715
O O13 0.125692 0.910640 0.892651
O O14 0.000000 0.911580 0.000000
O O15 0.090504 0.000000 0.000000
O O16 0.351537 0.500000 0.230762
O O17 0.243089 0.573434 0.194680
O O18 0.359422 0.000000 0.133704
O O19 0.320669 0.919099 0.000000
#
# Coordination Sequence:
#
# PCOD8269568 Si02
#       7
#     8  16  16  16   8  16  16
#     4   9  18  32  51  82 118 144 175 226 282 329
#     4  10  20  36  58  83 111 149 192 232 275 337
#     4  10  21  35  54  82 116 149 184 230 282 340
#     4  11  21  35  59  85 113 149 188 232 281 335
#     4   9  16  28  52  80 100 133 189 237 275 325
#     4  10  19  35  56  79 112 151 188 232 283 336
#     4  10  21  38  58  81 113 151 190 233 283 339
#
# _framework density 18.437671000000002
#
# number of rings (size 3 to 8) (size 9 to 14) (size 15 to 20)
#    0.000    2.000    1.667    2.500    0.000    3.333 
#    1.500    1.667    1.833    1.500    0.000    0.000 
#    0.000    0.000    0.000    0.000    0.000    0.000 
#
# Total GULP energy -595368.656823 kJ/mol
# GULP energy per Si atom -12403.513684 kJ/mol
# Density = 1.839571 g / cm^3
# Si number density = 18.437671 Si / 1000 Ang^3
#
#
#
# Elastic Constant Matrix: (Units=GPa)
#
#
# Indices 1 2 3 4 5 6 
#
# 1 68.3158 40.5655 30.7669 0.0000 0.0000 0.0000
# 2 40.5655 108.5504 54.8837 0.0000 0.0000 0.0000
# 3 30.7669 54.8837 75.7924 0.0000 0.0000 0.0000
# 4 0.0000 0.0000 0.0000 21.1142 0.0000 0.0000
# 5 0.0000 0.0000 0.0000 0.0000 32.8264 0.0000
# 6 0.0000 0.0000 0.0000 0.0000 0.0000 29.1742
#
#
#
# Elastic Compliance Matrix: (Units=1/GPa)
#
#
# Indices 1 2 3 4 5 6 
#
# 1 0.019621 -0.005214 -0.004189 0.000000 0.000000 0.000000
# 2 -0.005214 0.015919 -0.009411 0.000000 0.000000 0.000000
# 3 -0.004189 -0.009411 0.021709 0.000000 0.000000 0.000000
# 4 0.000000 0.000000 0.000000 0.047362 0.000000 0.000000
# 5 0.000000 0.000000 0.000000 0.000000 0.030463 0.000000
# 6 0.000000 0.000000 0.000000 0.000000 0.000000 0.034277
#
#
# Mechanical properties :
#
#
# Convention : Reuss Voigt Hill
#
# Bulk Modulus (GPa) = 50.96662 56.12121 53.54392
# Shear Modulus (GPa) = 23.41714 25.05245 24.23479
#
# Velocity S-wave (km/s) = 3.56767 3.69014 3.62942
# Velocity P-wave (km/s) = 6.68384 6.97572 6.83134
#
# Compressibility (1/GPa) = 0.01962069
#
# Stress axis : x y z
#
# Youngs Moduli (GPa) = 50.96665 62.81765 46.06382
#
# Poissons Ratio (x) = 0.32755 0.19295
# Poissons Ratio (y) = 0.26576 0.43350
# Poissons Ratio (z) = 0.21349 0.59117
#
# Static dielectric constant tensor:
#      x y z
#    x 3.367090 0.000000 0.000000 
#    y 0.000000 3.276270 0.000000 
#    z 0.000000 0.000000 3.294150 
# 
# 
# High freq. dielectric constant tensor:
#      x y z
#    x 1.719470 0.000000 0.000000 
#    y 0.000000 1.704810 0.000000 
#    z 0.000000 0.000000 1.704170 
# 
# From -- ./inp_files/29064.got.cif
#   From: 2010.03.12/outbox.cif.g09.slc.cpg/sg65_15_cif.got.tgz:29064.got - 2010.04.10 20:52:16.
