data_PCOD8269166
_publ_section_title
;
Structure prediction by ZEFSAII (Michael W. Deem and Ramdas Pophale) SiO2 
 PCOD8269166
Probable space group: C M M M
;
_chemical_formula_sum "Si O2"
_cell_formula_units_Z 96
_cell_length_a 17.882038
_cell_length_b 15.288870
_cell_length_c 18.389017
_cell_angle_alpha 90.000000
_cell_angle_beta 90.000000
_cell_angle_gamma 90.000000
_cell_volume 5027.486529
_symmetry_space_group_name_H-M "C M M M"
_symmetry_group_IT_number 65
_symmetry_cell_setting 'orthorhombic'
loop_
_space_group_symop_operation_xyz
x,y,z
-x,-y,z
x,-y,-z
-x,y,-z
-x,-y,-z
x,y,-z
-x,y,z
x,-y,z
1/2+x,1/2+y,z
1/2-x,1/2-y,z
1/2+x,1/2-y,-z
1/2-x,1/2+y,-z
1/2-x,1/2-y,-z
1/2+x,1/2+y,-z
1/2-x,1/2+y,z
1/2+x,1/2-y,z
loop_
_atom_site_type_symbol
_atom_site_label
_atom_site_fract_x
_atom_site_fract_y
_atom_site_fract_z
Si Si1 0.691676 0.171224 0.081203
Si Si2 0.084065 0.770459 0.176191
Si Si3 0.360846 0.598884 0.583127
Si Si4 0.417266 0.231747 0.340592
Si Si5 0.290669 0.900199 0.655228
Si Si6 0.786578 0.902454 0.198832
O O1 0.750000 0.250000 0.080242
O O2 0.613259 0.202381 0.115574
O O3 0.728311 0.097016 0.131791
O O4 0.677281 0.134863 0.000000
O O5 0.084889 0.723734 0.253882
O O6 0.137480 0.854074 0.178067
O O7 0.000000 0.799625 0.154964
O O8 0.380874 0.620580 0.500000
O O9 0.387828 0.500000 0.603417
O O10 0.400962 0.668729 0.634956
O O11 0.271503 0.604542 0.592576
O O12 0.500000 0.206504 0.368954
O O13 0.358118 0.161789 0.371546
O O14 0.254184 0.862119 0.730014
O O15 0.319495 0.000000 0.666262
O O16 0.810859 0.000000 0.218276
#
# Coordination Sequence:
#
# PCOD8269166 Si02
#       6
#    16  16  16  16  16  16
#     4   9  18  33  54  77 104 145 187 224 270 324
#     4  10  20  33  52  81 113 145 183 225 276 340
#     4  10  22  39  60  87 115 147 188 231 278 336
#     4  11  22  35  56  83 114 153 190 228 282 339
#     4  10  20  36  58  82 111 149 192 238 282 327
#     4  10  19  33  55  81 109 144 185 231 280 330
#
# _framework density 19.095029
#
# number of rings (size 3 to 8) (size 9 to 14) (size 15 to 20)
#    0.000    2.000    3.333    0.500    0.000    3.333 
#    0.000    2.500    0.000    0.500    0.000    9.333 
#    0.000    0.000    0.000    0.000    0.000    0.000 
#
# Total GULP energy -595084.191757 kJ/mol
# GULP energy per Si atom -12397.587328 kJ/mol
# Density = 1.905157 g / cm^3
# Si number density = 19.095029 Si / 1000 Ang^3
#
#
#
# Elastic Constant Matrix: (Units=GPa)
#
#
# Indices 1 2 3 4 5 6 
#
# 1 122.7550 39.0806 14.8589 0.0000 0.0000 0.0000
# 2 39.0806 58.7498 6.0447 0.0000 0.0000 0.0000
# 3 14.8589 6.0447 73.6526 0.0000 0.0000 0.0000
# 4 0.0000 0.0000 0.0000 21.6999 0.0000 0.0000
# 5 0.0000 0.0000 0.0000 0.0000 11.4183 0.0000
# 6 0.0000 0.0000 0.0000 0.0000 0.0000 16.2080
#
#
#
# Elastic Compliance Matrix: (Units=1/GPa)
#
#
# Indices 1 2 3 4 5 6 
#
# 1 0.010510 -0.006831 -0.001560 0.000000 0.000000 0.000000
# 2 -0.006831 0.021606 -0.000395 0.000000 0.000000 0.000000
# 3 -0.001560 -0.000395 0.013924 0.000000 0.000000 0.000000
# 4 0.000000 0.000000 0.000000 0.046083 0.000000 0.000000
# 5 0.000000 0.000000 0.000000 0.000000 0.087579 0.000000
# 6 0.000000 0.000000 0.000000 0.000000 0.000000 0.061698
#
#
# Mechanical properties :
#
#
# Convention : Reuss Voigt Hill
#
# Bulk Modulus (GPa) = 35.12606 41.68065 38.40335
# Shear Modulus (GPa) = 18.62475 22.87680 20.75078
#
# Velocity S-wave (km/s) = 3.12648 3.46504 3.30011
# Velocity P-wave (km/s) = 5.60968 6.15500 5.88866
#
# Compressibility (1/GPa) = 0.02846889
#
# Stress axis : x y z
#
# Youngs Moduli (GPa) = 95.14996 46.28394 71.81675
#
# Poissons Ratio (x) = 0.31615 0.11201
# Poissons Ratio (y) = 0.64994 0.02838
# Poissons Ratio (z) = 0.14840 0.01829
#
# Static dielectric constant tensor:
#      x y z
#    x 3.515400 0.000000 0.000000 
#    y 0.000000 3.274150 0.000000 
#    z 0.000000 0.000000 3.577000 
# 
# 
# High freq. dielectric constant tensor:
#      x y z
#    x 1.733710 0.000000 0.000000 
#    y 0.000000 1.726110 0.000000 
#    z 0.000000 0.000000 1.736930 
# 
# From -- ./inp_files/54507.got.cif
#   From: 2010.03.12/outbox.cif.g09.slc.cpg/sg65_28_cif.got.tgz:54507.got - 2010.04.10 20:52:16.
