data_PCOD8269099
_publ_section_title
;
Structure prediction by ZEFSAII (Michael W. Deem and Ramdas Pophale) SiO2 
 PCOD8269099
Probable space group: C M M M
;
_chemical_formula_sum "Si O2"
_cell_formula_units_Z 80
_cell_length_a 19.285547
_cell_length_b 9.750445
_cell_length_c 23.315410
_cell_angle_alpha 90.000000
_cell_angle_beta 90.000000
_cell_angle_gamma 90.000000
_cell_volume 4384.291839
_symmetry_space_group_name_H-M "C M M M"
_symmetry_group_IT_number 65
_symmetry_cell_setting 'orthorhombic'
loop_
_space_group_symop_operation_xyz
x,y,z
-x,-y,z
x,-y,-z
-x,y,-z
-x,-y,-z
x,y,-z
-x,y,z
x,-y,z
1/2+x,1/2+y,z
1/2-x,1/2-y,z
1/2+x,1/2-y,-z
1/2-x,1/2+y,-z
1/2-x,1/2-y,-z
1/2+x,1/2+y,-z
1/2-x,1/2+y,z
1/2+x,1/2-y,z
loop_
_atom_site_type_symbol
_atom_site_label
_atom_site_fract_x
_atom_site_fract_y
_atom_site_fract_z
Si Si1 0.581227 0.845431 0.933806
Si Si2 0.816538 0.160066 0.866131
Si Si3 0.184227 0.840780 0.268037
Si Si4 0.917891 0.000000 0.562795
Si Si5 0.081893 0.246503 0.360721
Si Si6 0.417751 0.000000 0.434982
O O1 0.500000 0.823893 0.924726
O O2 0.618407 0.726985 0.897885
O O3 0.602234 0.000000 0.913632
O O4 0.601599 0.826947 0.000000
O O5 0.750000 0.250000 0.883950
O O6 0.831308 0.171882 0.798943
O O7 0.806777 0.000000 0.884125
O O8 0.250000 0.750000 0.285918
O O9 0.118507 0.772976 0.299639
O O10 0.195858 0.000000 0.285244
O O11 0.892030 0.128674 0.597666
O O12 0.883397 0.000000 0.500000
O O13 0.000000 0.000000 0.556636
O O14 0.108245 0.375451 0.396477
O O15 0.000000 0.247907 0.348644
O O16 0.500000 0.000000 0.441177
O O17 0.386355 0.000000 0.500000
#
# Coordination Sequence:
#
# PCOD8269099 Si02
#       6
#    16  16  16   8  16   8
#     4   9  19  37  59  84 116 150 182 221 271 322
#     4  10  21  37  57  81 109 145 189 231 272 321
#     4  10  22  38  56  77 107 144 179 222 272 321
#     4   9  16  28  51  79 103 131 170 217 266 315
#     4  10  19  33  54  80 106 135 176 221 265 317
#     4   9  18  32  51  79 111 137 168 217 270 317
#
# _framework density 18.246960999999999
#
# number of rings (size 3 to 8) (size 9 to 14) (size 15 to 20)
#    0.000    2.400    1.000    1.800    1.400    5.200 
#    0.000    3.000    0.000    3.600    0.000    0.000 
#    0.000    0.000    0.000    0.000    0.000    0.000 
#
# Total GULP energy -495805.212455 kJ/mol
# GULP energy per Si atom -12395.130311 kJ/mol
# Density = 1.820543 g / cm^3
# Si number density = 18.246961 Si / 1000 Ang^3
#
#
#
# Elastic Constant Matrix: (Units=GPa)
#
#
# Indices 1 2 3 4 5 6 
#
# 1 68.7657 54.9506 48.6492 0.0000 0.0000 0.0000
# 2 54.9506 168.9414 59.7477 0.0000 0.0000 0.0000
# 3 48.6492 59.7477 74.9945 0.0000 0.0000 0.0000
# 4 0.0000 0.0000 0.0000 43.3245 0.0000 0.0000
# 5 0.0000 0.0000 0.0000 0.0000 12.9019 0.0000
# 6 0.0000 0.0000 0.0000 0.0000 0.0000 33.9887
#
#
#
# Elastic Compliance Matrix: (Units=1/GPa)
#
#
# Indices 1 2 3 4 5 6 
#
# 1 0.028534 -0.003808 -0.015477 0.000000 0.000000 0.000000
# 2 -0.003808 0.008749 -0.004501 0.000000 0.000000 0.000000
# 3 -0.015477 -0.004501 0.026960 0.000000 0.000000 0.000000
# 4 0.000000 0.000000 0.000000 0.023082 0.000000 0.000000
# 5 0.000000 0.000000 0.000000 0.000000 0.077508 0.000000
# 6 0.000000 0.000000 0.000000 0.000000 0.000000 0.029422
#
#
# Mechanical properties :
#
#
# Convention : Reuss Voigt Hill
#
# Bulk Modulus (GPa) = 59.97576 71.04409 65.50992
# Shear Modulus (GPa) = 20.21173 27.99996 24.10585
#
# Velocity S-wave (km/s) = 3.33179 3.92152 3.63862
# Velocity P-wave (km/s) = 6.90951 7.71516 7.32342
#
# Compressibility (1/GPa) = 0.01667340
#
# Stress axis : x y z
#
# Youngs Moduli (GPa) = 35.04603 114.29407 37.09261
#
# Poissons Ratio (x) = 0.43519 0.57406
# Poissons Ratio (y) = 0.13344 0.16694
# Poissons Ratio (z) = 0.54239 0.51438
#
# Static dielectric constant tensor:
#      x y z
#    x 3.050020 0.000000 0.000000 
#    y 0.000000 3.633100 0.000000 
#    z 0.000000 0.000000 3.378440 
# 
# 
# High freq. dielectric constant tensor:
#      x y z
#    x 1.679320 0.000000 0.000000 
#    y 0.000000 1.725100 0.000000 
#    z 0.000000 0.000000 1.710210 
# 
# From -- ./inp_files/70849.got.cif
#   From: 2010.03.12/outbox.cif.g09.slc.cpg/sg65_36_cif.got.tgz:70849.got - 2010.04.10 20:52:16.
