data_PCOD8269599
_publ_section_title
;
Structure prediction by ZEFSAII (Michael W. Deem and Ramdas Pophale) SiO2 
 PCOD8269599
Probable space group: C M M M
;
_chemical_formula_sum "Si O2"
_cell_formula_units_Z 104
_cell_length_a 27.439902
_cell_length_b 9.072801
_cell_length_c 22.032107
_cell_angle_alpha 90.000000
_cell_angle_beta 90.000000
_cell_angle_gamma 90.000000
_cell_volume 5485.042202
_symmetry_space_group_name_H-M "C M M M"
_symmetry_group_IT_number 65
_symmetry_cell_setting 'orthorhombic'
loop_
_space_group_symop_operation_xyz
x,y,z
-x,-y,z
x,-y,-z
-x,y,-z
-x,-y,-z
x,y,-z
-x,y,z
x,-y,z
1/2+x,1/2+y,z
1/2-x,1/2-y,z
1/2+x,1/2-y,-z
1/2-x,1/2+y,-z
1/2-x,1/2-y,-z
1/2+x,1/2+y,-z
1/2-x,1/2+y,z
1/2+x,1/2-y,z
loop_
_atom_site_type_symbol
_atom_site_label
_atom_site_fract_x
_atom_site_fract_y
_atom_site_fract_z
Si Si1 0.387955 0.170759 0.655802
Si Si2 0.298553 0.171881 0.068904
Si Si3 0.446321 0.825018 0.000000
Si Si4 0.943178 0.160309 0.566005
Si Si5 0.056747 0.174666 0.238192
Si Si6 0.101326 0.326783 0.876866
Si Si7 0.800430 0.326172 0.569258
O O1 0.430520 0.201771 0.607864
O O2 0.403044 0.260416 0.715510
O O3 0.339078 0.226056 0.620824
O O4 0.385054 0.000000 0.673132
O O5 0.250000 0.250000 0.092936
O O6 0.341039 0.207891 0.117602
O O7 0.288245 0.000000 0.067923
O O8 0.312020 0.223680 0.000000
O O9 0.419716 0.769173 0.940214
O O10 0.500000 0.757761 0.000000
O O11 0.446484 0.000000 0.000000
O O12 0.918994 0.183559 0.500000
O O13 0.000000 0.157152 0.558674
O O14 0.925981 0.000000 0.592766
O O15 0.073543 0.233499 0.173398
O O16 0.000000 0.221881 0.251526
O O17 0.060657 0.000000 0.239749
O O18 0.091727 0.500000 0.865209
O O19 0.816166 0.282272 0.500000
O O20 0.793585 0.500000 0.573440
O O21 0.750000 0.250000 0.586814
#
# Coordination Sequence:
#
# PCOD8269599 Si02
#       7
#    16  16   8  16  16  16  16
#     4  11  22  36  56  81 108 142 186 233 277 324
#     4   9  17  31  53  83 116 145 176 218 269 327
#     4   9  16  28  52  83 109 135 173 227 286 339
#     4   9  18  32  50  75 108 143 178 218 267 324
#     4  11  25  42  57  77 110 150 191 234 281 338
#     4  10  19  35  58  84 111 143 187 234 280 336
#     4   9  19  36  58  86 117 145 178 225 279 333
#
# _framework density 18.960656
#
# number of rings (size 3 to 8) (size 9 to 14) (size 15 to 20)
#    0.000    2.231    0.769    2.769    0.000    6.769 
#    0.000    3.462    0.000    1.385    0.000    0.000 
#    0.000    0.000    0.000    0.000    0.000    0.000 
#
# Total GULP energy -644291.278334 kJ/mol
# GULP energy per Si atom -12390.216891 kJ/mol
# Density = 1.891750 g / cm^3
# Si number density = 18.960656 Si / 1000 Ang^3
#
#
#
# Elastic Constant Matrix: (Units=GPa)
#
#
# Indices 1 2 3 4 5 6 
#
# 1 114.6282 45.1497 62.3069 0.0000 0.0000 0.0000
# 2 45.1497 50.9677 40.0913 0.0000 0.0000 0.0000
# 3 62.3069 40.0913 118.0958 0.0000 0.0000 0.0000
# 4 0.0000 0.0000 0.0000 34.2326 0.0000 0.0000
# 5 0.0000 0.0000 0.0000 0.0000 33.8296 0.0000
# 6 0.0000 0.0000 0.0000 0.0000 0.0000 31.4523
#
#
#
# Elastic Compliance Matrix: (Units=1/GPa)
#
#
# Indices 1 2 3 4 5 6 
#
# 1 0.015074 -0.009683 -0.004666 0.000000 0.000000 0.000000
# 2 -0.009683 0.032989 -0.006090 0.000000 0.000000 0.000000
# 3 -0.004666 -0.006090 0.012997 0.000000 0.000000 0.000000
# 4 0.000000 0.000000 0.000000 0.029212 0.000000 0.000000
# 5 0.000000 0.000000 0.000000 0.000000 0.029560 0.000000
# 6 0.000000 0.000000 0.000000 0.000000 0.000000 0.031794
#
#
# Mechanical properties :
#
#
# Convention : Reuss Voigt Hill
#
# Bulk Modulus (GPa) = 49.55099 64.30971 56.93035
# Shear Modulus (GPa) = 25.09652 28.97913 27.03782
#
# Velocity S-wave (km/s) = 3.64209 3.91369 3.78033
# Velocity P-wave (km/s) = 6.62395 7.37657 7.01037
#
# Compressibility (1/GPa) = 0.02018123
#
# Stress axis : x y z
#
# Youngs Moduli (GPa) = 66.33965 30.31342 76.94192
#
# Poissons Ratio (x) = 0.29353 0.35899
# Poissons Ratio (y) = 0.64238 0.46859
# Poissons Ratio (z) = 0.30952 0.18462
#
# Static dielectric constant tensor:
#      x y z
#    x 3.587150 0.000000 0.000000 
#    y 0.000000 3.438230 0.000000 
#    z 0.000000 0.000000 3.614040 
# 
# 
# High freq. dielectric constant tensor:
#      x y z
#    x 1.738790 0.000000 0.000000 
#    y 0.000000 1.722620 0.000000 
#    z 0.000000 0.000000 1.730250 
# 
# From -- ./inp_files/65948.got.cif
#   From: 2010.03.12/outbox.cif.g09.slc.cpg/sg65_33_cif.got.tgz:65948.got - 2010.04.10 20:52:16.
