data_PCOD8269176
_publ_section_title
;
Structure prediction by ZEFSAII (Michael W. Deem and Ramdas Pophale) SiO2 
 PCOD8269176
Probable space group: C M M M
;
_chemical_formula_sum "Si O2"
_cell_formula_units_Z 72
_cell_length_a 13.088013
_cell_length_b 18.903450
_cell_length_c 15.602886
_cell_angle_alpha 90.000000
_cell_angle_beta 90.000000
_cell_angle_gamma 90.000000
_cell_volume 3860.288171
_symmetry_space_group_name_H-M "C M M M"
_symmetry_group_IT_number 65
_symmetry_cell_setting 'orthorhombic'
loop_
_space_group_symop_operation_xyz
x,y,z
-x,-y,z
x,-y,-z
-x,y,-z
-x,-y,-z
x,y,-z
-x,y,z
x,-y,z
1/2+x,1/2+y,z
1/2-x,1/2-y,z
1/2+x,1/2-y,-z
1/2-x,1/2+y,-z
1/2-x,1/2-y,-z
1/2+x,1/2+y,-z
1/2-x,1/2+y,z
1/2+x,1/2-y,z
loop_
_atom_site_type_symbol
_atom_site_label
_atom_site_fract_x
_atom_site_fract_y
_atom_site_fract_z
Si Si1 0.385280 0.419064 0.660107
Si Si2 0.180983 0.146706 0.824474
Si Si3 0.114245 0.697407 0.229779
Si Si4 0.619275 0.420416 0.000000
Si Si5 0.204816 0.326511 0.407561
O O1 0.500000 0.389836 0.641201
O O2 0.379065 0.500000 0.632523
O O3 0.361214 0.413648 0.761677
O O4 0.300530 0.377951 0.606942
O O5 0.134582 0.219882 0.787770
O O6 0.304478 0.151351 0.823702
O O7 0.150604 0.127317 0.919881
O O8 0.124005 0.674851 0.329898
O O9 0.000000 0.678242 0.199574
O O10 0.668881 0.500000 0.000000
O O11 0.500000 0.430457 0.000000
O O12 0.153789 0.346862 0.500000
O O13 0.250000 0.250000 0.414418
#
# Coordination Sequence:
#
# PCOD8269176 Si02
#       5
#    16  16  16   8  16
#     4  10  19  33  55  81 113 149 181 224 285 341
#     4  10  20  35  53  82 113 141 178 226 269 326
#     4  10  19  35  57  79 106 146 187 225 273 324
#     4  11  22  35  57  85 111 141 173 212 272 339
#     4  10  20  34  51  78 111 146 187 231 274 325
#
# _framework density 18.651458000000002
#
# number of rings (size 3 to 8) (size 9 to 14) (size 15 to 20)
#    0.000    1.889    4.444    2.667    0.000    4.889 
#    0.000    5.000    0.000   17.333    0.000    6.222 
#    0.000    0.000    0.000    0.000    0.000    0.000 
#
# Total GULP energy -446083.946993 kJ/mol
# GULP energy per Si atom -12391.220750 kJ/mol
# Density = 1.860901 g / cm^3
# Si number density = 18.651458 Si / 1000 Ang^3
#
#
#
# Elastic Constant Matrix: (Units=GPa)
#
#
# Indices 1 2 3 4 5 6 
#
# 1 119.9082 35.9579 21.2287 0.0000 0.0000 0.0000
# 2 35.9579 71.4122 29.5316 0.0000 0.0000 0.0000
# 3 21.2287 29.5316 118.1838 0.0000 0.0000 0.0000
# 4 0.0000 0.0000 0.0000 64.3683 0.0000 0.0000
# 5 0.0000 0.0000 0.0000 0.0000 32.8722 0.0000
# 6 0.0000 0.0000 0.0000 0.0000 0.0000 22.2753
#
#
#
# Elastic Compliance Matrix: (Units=1/GPa)
#
#
# Indices 1 2 3 4 5 6 
#
# 1 0.009860 -0.004720 -0.000592 0.000000 0.000000 0.000000
# 2 -0.004720 0.017877 -0.003619 0.000000 0.000000 0.000000
# 3 -0.000592 -0.003619 0.009472 0.000000 0.000000 0.000000
# 4 0.000000 0.000000 0.000000 0.015536 0.000000 0.000000
# 5 0.000000 0.000000 0.000000 0.000000 0.030421 0.000000
# 6 0.000000 0.000000 0.000000 0.000000 0.000000 0.044893
#
#
# Mechanical properties :
#
#
# Convention : Reuss Voigt Hill
#
# Bulk Modulus (GPa) = 51.68813 53.66007 52.67410
# Shear Modulus (GPa) = 32.81525 38.75557 35.78541
#
# Velocity S-wave (km/s) = 4.19906 4.56333 4.38498
# Velocity P-wave (km/s) = 7.16117 7.52314 7.34438
#
# Compressibility (1/GPa) = 0.01934680
#
# Stress axis : x y z
#
# Youngs Moduli (GPa) = 101.42092 55.93934 105.57422
#
# Poissons Ratio (x) = 0.26404 0.06246
# Poissons Ratio (y) = 0.47871 0.38209
# Poissons Ratio (z) = 0.06000 0.20245
#
# Static dielectric constant tensor:
#      x y z
#    x 3.511850 0.000000 0.000000 
#    y 0.000000 3.233550 0.000000 
#    z 0.000000 0.000000 4.245620 
# 
# 
# High freq. dielectric constant tensor:
#      x y z
#    x 1.715160 0.000000 0.000000 
#    y 0.000000 1.710460 0.000000 
#    z 0.000000 0.000000 1.724280 
# 
# From -- ./inp_files/39819.got.cif
#   From: 2010.03.12/outbox.cif.g09.slc.cpg/sg65_20_cif.got.tgz:39819.got - 2010.04.10 20:52:16.
