data_PCOD8269271
_publ_section_title
;
Structure prediction by ZEFSAII (Michael W. Deem and Ramdas Pophale) SiO2 
 PCOD8269271
Probable space group: C M M M
;
_chemical_formula_sum "Si O2"
_cell_formula_units_Z 100
_cell_length_a 29.906632
_cell_length_b 21.809564
_cell_length_c 7.685351
_cell_angle_alpha 90.000000
_cell_angle_beta 90.000000
_cell_angle_gamma 90.000000
_cell_volume 5012.774837
_symmetry_space_group_name_H-M "C M M M"
_symmetry_group_IT_number 65
_symmetry_cell_setting 'orthorhombic'
loop_
_space_group_symop_operation_xyz
x,y,z
-x,-y,z
x,-y,-z
-x,y,-z
-x,-y,-z
x,y,-z
-x,y,z
x,-y,z
1/2+x,1/2+y,z
1/2-x,1/2-y,z
1/2+x,1/2-y,-z
1/2-x,1/2+y,-z
1/2-x,1/2-y,-z
1/2+x,1/2+y,-z
1/2-x,1/2+y,z
1/2+x,1/2-y,z
loop_
_atom_site_type_symbol
_atom_site_label
_atom_site_fract_x
_atom_site_fract_y
_atom_site_fract_z
Si Si1 0.298724 0.262677 0.804275
Si Si2 0.277026 0.389191 0.700730
Si Si3 0.409944 0.500000 0.000000
Si Si4 0.658453 0.500000 0.304285
Si Si5 0.447983 0.634793 0.000000
Si Si6 0.875806 0.319860 0.694037
Si Si7 0.820034 0.569337 0.708343
Si Si8 0.052309 0.226722 0.704206
O O1 0.250000 0.250000 0.722654
O O2 0.302540 0.335813 0.804167
O O3 0.335998 0.229882 0.689385
O O4 0.303204 0.237043 0.000000
O O5 0.272482 0.371202 0.500000
O O6 0.309976 0.443936 0.733573
O O7 0.227899 0.405880 0.776453
O O8 0.382734 0.500000 0.823542
O O9 0.438081 0.437340 0.000000
O O10 0.639224 0.500000 0.500000
O O11 0.431059 0.669410 0.176465
O O12 0.500000 0.642495 0.000000
O O13 0.888666 0.338080 0.500000
O O14 0.858414 0.383717 0.782392
O O15 0.919962 0.286806 0.773076
O O16 0.819200 0.569110 0.500000
O O17 0.828922 0.500000 0.777449
O O18 0.062906 0.212144 0.500000
O O19 0.000000 0.241157 0.730192
#
# Coordination Sequence:
#
# PCOD8269271 Si02
#       8
#    16  16   4   8   8  16  16  16
#     4  11  23  33  46  75 112 143 181 236 287 332
#     4  10  19  34  51  68 101 147 191 229 266 321
#     4  12  27  40  60  86 116 144 186 246 279 340
#     4  10  24  39  53  79 110 152 193 228 280 328
#     4  10  23  44  66  85 109 149 186 229 291 347
#     4  10  20  33  55  81 105 142 184 232 286 334
#     4   9  16  30  52  76 103 141 190 229 263 324
#     4   9  20  39  62  90 118 145 186 236 289 351
#
# _framework density 19.949031999999999
#
# number of rings (size 3 to 8) (size 9 to 14) (size 15 to 20)
#    0.000    2.080    2.400    0.600    4.480    1.280 
#    0.000    0.000    0.000    4.320    0.000    3.360 
#    0.000    1.920    0.000    0.160    0.000    0.000 
#
# Total GULP energy -619492.523457 kJ/mol
# GULP energy per Si atom -12389.850469 kJ/mol
# Density = 1.990363 g / cm^3
# Si number density = 19.949032 Si / 1000 Ang^3
#
#
#
# Elastic Constant Matrix: (Units=GPa)
#
#
# Indices 1 2 3 4 5 6 
#
# 1 58.7662 36.7982 13.2857 0.0000 0.0000 0.0000
# 2 36.7982 152.6500 19.1966 0.0000 0.0000 0.0000
# 3 13.2857 19.1966 49.6718 0.0000 0.0000 0.0000
# 4 0.0000 0.0000 0.0000 17.6816 0.0000 0.0000
# 5 0.0000 0.0000 0.0000 0.0000 9.4243 0.0000
# 6 0.0000 0.0000 0.0000 0.0000 0.0000 45.8430
#
#
#
# Elastic Compliance Matrix: (Units=1/GPa)
#
#
# Indices 1 2 3 4 5 6 
#
# 1 0.020700 -0.004513 -0.003792 0.000000 0.000000 0.000000
# 2 -0.004513 0.007870 -0.001834 0.000000 0.000000 0.000000
# 3 -0.003792 -0.001834 0.021855 0.000000 0.000000 0.000000
# 4 0.000000 0.000000 0.000000 0.056556 0.000000 0.000000
# 5 0.000000 0.000000 0.000000 0.000000 0.106109 0.000000
# 6 0.000000 0.000000 0.000000 0.000000 0.000000 0.021814
#
#
# Mechanical properties :
#
#
# Convention : Reuss Voigt Hill
#
# Bulk Modulus (GPa) = 33.17258 44.40546 38.78902
# Shear Modulus (GPa) = 18.85144 27.37692 23.11418
#
# Velocity S-wave (km/s) = 3.07739 3.70853 3.40761
# Velocity P-wave (km/s) = 5.41219 6.37538 5.91343
#
# Compressibility (1/GPa) = 0.03014538
#
# Stress axis : x y z
#
# Youngs Moduli (GPa) = 48.30924 127.07246 45.75533
#
# Poissons Ratio (x) = 0.57349 0.17353
# Poissons Ratio (y) = 0.21802 0.08393
# Poissons Ratio (z) = 0.18321 0.23308
#
# Static dielectric constant tensor:
#      x y z
#    x 3.556680 0.000000 0.000000 
#    y 0.000000 3.953730 0.000000 
#    z 0.000000 0.000000 3.571740 
# 
# 
# High freq. dielectric constant tensor:
#      x y z
#    x 1.757220 0.000000 0.000000 
#    y 0.000000 1.783980 0.000000 
#    z 0.000000 0.000000 1.765580 
# 
# From -- ./inp_files/16559.got.cif
#   From: 2010.03.12/outbox.cif.g09.slc.cpg/sg65_9_cif.got.tgz:16559.got - 2010.04.10 20:52:16.
