data_PCOD8269411
_publ_section_title
;
Structure prediction by ZEFSAII (Michael W. Deem and Ramdas Pophale) SiO2 
 PCOD8269411
Probable space group: C M M M
;
_chemical_formula_sum "Si O2"
_cell_formula_units_Z 104
_cell_length_a 9.705641
_cell_length_b 38.265024
_cell_length_c 15.272267
_cell_angle_alpha 90.000000
_cell_angle_beta 90.000000
_cell_angle_gamma 90.000000
_cell_volume 5671.915099
_symmetry_space_group_name_H-M "C M M M"
_symmetry_group_IT_number 65
_symmetry_cell_setting 'orthorhombic'
loop_
_space_group_symop_operation_xyz
x,y,z
-x,-y,z
x,-y,-z
-x,y,-z
-x,-y,-z
x,y,-z
-x,y,z
x,-y,z
1/2+x,1/2+y,z
1/2-x,1/2-y,z
1/2+x,1/2-y,-z
1/2-x,1/2+y,-z
1/2-x,1/2-y,-z
1/2+x,1/2+y,-z
1/2-x,1/2+y,z
1/2+x,1/2-y,z
loop_
_atom_site_type_symbol
_atom_site_label
_atom_site_fract_x
_atom_site_fract_y
_atom_site_fract_z
Si Si1 0.159311 0.040598 0.261040
Si Si2 0.839628 0.348716 0.684301
Si Si3 0.158803 0.159331 0.147060
Si Si4 0.839441 0.785076 0.000000
Si Si5 0.839457 0.081865 0.094410
Si Si6 0.350448 0.221815 0.397943
Si Si7 0.838387 0.422100 0.602279
O O1 0.224399 0.061595 0.177889
O O2 0.249185 0.049052 0.346826
O O3 0.000000 0.051133 0.278717
O O4 0.172577 0.000000 0.239416
O O5 0.755153 0.339311 0.769632
O O6 0.804326 0.318005 0.616103
O O7 0.792155 0.384452 0.638855
O O8 0.000000 0.350578 0.708887
O O9 0.196643 0.191773 0.084945
O O10 0.188265 0.123100 0.097905
O O11 0.000000 0.161182 0.176843
O O12 0.750000 0.750000 0.000000
O O13 0.000000 0.774753 0.000000
O O14 0.000000 0.073288 0.096050
O O15 0.778797 0.068910 0.000000
O O16 0.357761 0.229262 0.500000
O O17 0.500000 0.227807 0.354600
O O18 0.250000 0.250000 0.352438
O O19 0.802166 0.424397 0.500000
O O20 0.000000 0.429003 0.617960
#
# Coordination Sequence:
#
# PCOD8269411 Si02
#       7
#    16  16  16   8  16  16  16
#     4  10  21  36  56  85 116 143 178 228 279 327
#     4  10  20  34  54  79 105 134 176 227 272 315
#     4  10  19  34  56  78 102 139 180 217 262 317
#     4  10  22  38  56  80 111 147 186 228 273 326
#     4   9  16  31  57  83 109 140 176 218 268 325
#     4   9  18  33  51  71  99 133 167 208 259 311
#     4  10  21  37  57  80 108 148 193 230 272 332
#
# _framework density 18.335958999999999
#
# number of rings (size 3 to 8) (size 9 to 14) (size 15 to 20)
#    0.000    2.308    2.308    0.462    0.000    4.923 
#    0.000    6.154    0.000    4.154    0.000    1.077 
#    0.000    0.000    0.000    0.000    0.000    0.000 
#
# Total GULP energy -644600.789982 kJ/mol
# GULP energy per Si atom -12396.169038 kJ/mol
# Density = 1.829423 g / cm^3
# Si number density = 18.335959 Si / 1000 Ang^3
#
#
#
# Elastic Constant Matrix: (Units=GPa)
#
#
# Indices 1 2 3 4 5 6 
#
# 1 49.3219 39.0263 45.6823 0.0000 0.0000 0.0000
# 2 39.0263 100.7624 45.5136 0.0000 0.0000 0.0000
# 3 45.6823 45.5136 112.2849 0.0000 0.0000 0.0000
# 4 0.0000 0.0000 0.0000 29.8186 0.0000 0.0000
# 5 0.0000 0.0000 0.0000 0.0000 25.6619 0.0000
# 6 0.0000 0.0000 0.0000 0.0000 0.0000 29.5544
#
#
#
# Elastic Compliance Matrix: (Units=1/GPa)
#
#
# Indices 1 2 3 4 5 6 
#
# 1 0.039023 -0.009723 -0.011935 0.000000 0.000000 0.000000
# 2 -0.009723 0.014571 -0.001951 0.000000 0.000000 0.000000
# 3 -0.011935 -0.001951 0.014552 0.000000 0.000000 0.000000
# 4 0.000000 0.000000 0.000000 0.033536 0.000000 0.000000
# 5 0.000000 0.000000 0.000000 0.000000 0.038968 0.000000
# 6 0.000000 0.000000 0.000000 0.000000 0.000000 0.033836
#
#
# Mechanical properties :
#
#
# Convention : Reuss Voigt Hill
#
# Bulk Modulus (GPa) = 47.78052 58.09042 52.93547
# Shear Modulus (GPa) = 21.86467 25.81678 23.84072
#
# Velocity S-wave (km/s) = 3.45693 3.75639 3.60976
# Velocity P-wave (km/s) = 6.48450 7.11082 6.80487
#
# Compressibility (1/GPa) = 0.02092903
#
# Stress axis : x y z
#
# Youngs Moduli (GPa) = 25.62624 68.62860 68.71804
#
# Poissons Ratio (x) = 0.66727 0.82015
# Poissons Ratio (y) = 0.24916 0.13404
# Poissons Ratio (z) = 0.30585 0.13387
#
# Static dielectric constant tensor:
#      x y z
#    x 3.355610 0.000000 0.000000 
#    y 0.000000 3.445370 0.000000 
#    z 0.000000 0.000000 3.311470 
# 
# 
# High freq. dielectric constant tensor:
#      x y z
#    x 1.688860 0.000000 0.000000 
#    y 0.000000 1.715290 0.000000 
#    z 0.000000 0.000000 1.711950 
# 
# From -- ./inp_files/38990.got.cif
#   From: 2010.03.12/outbox.cif.g09.slc.cpg/sg65_20_cif.got.tgz:38990.got - 2010.04.10 20:52:16.
