data_PCOD8269714
_publ_section_title
;
Structure prediction by ZEFSAII (Michael W. Deem and Ramdas Pophale) SiO2 
 PCOD8269714
Probable space group: C M M M
;
_chemical_formula_sum "Si O2"
_cell_formula_units_Z 72
_cell_length_a 31.249980
_cell_length_b 8.303589
_cell_length_c 18.929858
_cell_angle_alpha 90.000000
_cell_angle_beta 90.000000
_cell_angle_gamma 90.000000
_cell_volume 4912.051877
_symmetry_space_group_name_H-M "C M M M"
_symmetry_group_IT_number 65
_symmetry_cell_setting 'orthorhombic'
loop_
_space_group_symop_operation_xyz
x,y,z
-x,-y,z
x,-y,-z
-x,y,-z
-x,-y,-z
x,y,-z
-x,y,z
x,-y,z
1/2+x,1/2+y,z
1/2-x,1/2-y,z
1/2+x,1/2-y,-z
1/2-x,1/2+y,-z
1/2-x,1/2-y,-z
1/2+x,1/2+y,-z
1/2-x,1/2+y,z
1/2+x,1/2-y,z
loop_
_atom_site_type_symbol
_atom_site_label
_atom_site_fract_x
_atom_site_fract_y
_atom_site_fract_z
Si Si1 0.050780 0.819829 0.840112
Si Si2 0.449108 0.000000 0.080644
Si Si3 0.048252 0.185753 0.320570
Si Si4 0.118977 0.313465 0.421355
Si Si5 0.706588 0.687945 0.420144
O O1 0.068991 0.666951 0.884708
O O2 0.064592 0.789889 0.759365
O O3 0.000000 0.823562 0.846008
O O4 0.067414 0.000000 0.864887
O O5 0.500000 0.000000 0.087534
O O6 0.433819 0.000000 0.000000
O O7 0.078200 0.282213 0.373171
O O8 0.000000 0.252989 0.328549
O O9 0.049724 0.000000 0.341846
O O10 0.111976 0.237229 0.500000
O O11 0.125707 0.500000 0.429039
O O12 0.162166 0.244268 0.384184
O O13 0.706116 0.758067 0.500000
O O14 0.708067 0.500000 0.418660
O O15 0.750000 0.750000 0.381411
#
# Coordination Sequence:
#
# PCOD8269714 Si02
#       5
#    16   8  16  16  16
#     4   8  15  27  40  55  76 102 133 167 201 243
#     4   9  16  24  38  60  79  99 129 163 202 242
#     4   9  18  31  44  56  73 104 142 176 211 248
#     4  10  20  30  40  58  80 101 133 176 214 250
#     4   9  16  27  43  59  76  98 123 158 204 250
#
# _framework density 14.657825000000001
#
# number of rings (size 3 to 8) (size 9 to 14) (size 15 to 20)
#    0.000    3.000    0.000    2.667    1.556    5.333 
#    0.000    4.444    0.000    0.000    0.000    0.000 
#    0.000    0.000    0.000    0.000    0.000    1.111 
#
# Total GULP energy -446008.034897 kJ/mol
# GULP energy per Si atom -12389.112080 kJ/mol
# Density = 1.462446 g / cm^3
# Si number density = 14.657825 Si / 1000 Ang^3
#
#
#
# Elastic Constant Matrix: (Units=GPa)
#
#
# Indices 1 2 3 4 5 6 
#
# 1 66.4408 28.7357 28.0553 0.0000 0.0000 0.0000
# 2 28.7357 90.4550 40.2564 0.0000 0.0000 0.0000
# 3 28.0553 40.2564 58.3248 0.0000 0.0000 0.0000
# 4 0.0000 0.0000 0.0000 21.3513 0.0000 0.0000
# 5 0.0000 0.0000 0.0000 0.0000 -0.2096 0.0000
# 6 0.0000 0.0000 0.0000 0.0000 0.0000 21.7390
#
#
#
# Elastic Compliance Matrix: (Units=1/GPa)
#
#
# Indices 1 2 3 4 5 6 
#
# 1 0.019401 -0.002901 -0.007330 0.000000 0.000000 0.000000
# 2 -0.002901 0.016391 -0.009917 0.000000 0.000000 0.000000
# 3 -0.007330 -0.009917 0.027516 0.000000 0.000000 0.000000
# 4 0.000000 0.000000 0.000000 0.046836 0.000000 0.000000
# 5 0.000000 0.000000 0.000000 0.000000 -4.772081 0.000000
# 6 0.000000 0.000000 0.000000 0.000000 0.000000 0.046000
#
#
# Mechanical properties :
#
#
# Convention : Reuss Voigt Hill
#
# Bulk Modulus (GPa) = 43.45764 45.47950 44.46857
# Shear Modulus (GPa) = -1.09458 16.45438 7.67990
#
# Velocity S-wave (km/s) = -0.86509 3.35411 2.29147
# Velocity P-wave (km/s) = 5.35860 6.78932 6.11594
#
# Compressibility (1/GPa) = 0.02301092
#
# Stress axis : x y z
#
# Youngs Moduli (GPa) = 51.54427 61.01078 36.34223
#
# Poissons Ratio (x) = 0.17700 0.26638
# Poissons Ratio (y) = 0.14954 0.36042
# Poissons Ratio (z) = 0.37781 0.60507
#
# Static dielectric constant tensor:
#      x y z
#    x 3.405410 0.000000 0.000000 
#    y 0.000000 3.074720 0.000000 
#    z 0.000000 0.000000 2.659100 
# 
# 
# High freq. dielectric constant tensor:
#      x y z
#    x 1.523520 0.000000 0.000000 
#    y 0.000000 1.579670 0.000000 
#    z 0.000000 0.000000 1.518630 
# 
# From -- ./inp_files/47476.got.cif
#   From: 2010.03.12/outbox.cif.g09.slc.cpg/sg65_24_cif.got.tgz:47476.got - 2010.04.10 20:52:16.
