data_PCOD8269500
_publ_section_title
;
Structure prediction by ZEFSAII (Michael W. Deem and Ramdas Pophale) SiO2 
 PCOD8269500
Probable space group: C M M M
;
_chemical_formula_sum "Si O2"
_cell_formula_units_Z 72
_cell_length_a 24.537178
_cell_length_b 17.808311
_cell_length_c 7.737052
_cell_angle_alpha 90.000000
_cell_angle_beta 90.000000
_cell_angle_gamma 90.000000
_cell_volume 3380.826319
_symmetry_space_group_name_H-M "C M M M"
_symmetry_group_IT_number 65
_symmetry_cell_setting 'orthorhombic'
loop_
_space_group_symop_operation_xyz
x,y,z
-x,-y,z
x,-y,-z
-x,y,-z
-x,-y,-z
x,y,-z
-x,y,z
x,-y,z
1/2+x,1/2+y,z
1/2-x,1/2-y,z
1/2+x,1/2-y,-z
1/2-x,1/2+y,-z
1/2-x,1/2-y,-z
1/2+x,1/2+y,-z
1/2-x,1/2+y,z
1/2+x,1/2-y,z
loop_
_atom_site_type_symbol
_atom_site_label
_atom_site_fract_x
_atom_site_fract_y
_atom_site_fract_z
Si Si1 0.743786 0.915205 0.199927
Si Si2 0.656915 0.314822 0.205795
Si Si3 0.935719 0.412181 0.000000
Si Si4 0.939680 0.916271 0.205409
Si Si5 0.865338 0.648413 0.691851
O O1 0.789341 0.858246 0.271871
O O2 0.686833 0.905678 0.297853
O O3 0.765202 0.000000 0.227120
O O4 0.732047 0.898131 0.000000
O O5 0.604198 0.358250 0.280795
O O6 0.657035 0.231879 0.279919
O O7 0.655898 0.312623 0.000000
O O8 0.911462 0.373509 0.829353
O O9 0.921016 0.500000 0.000000
O O10 0.000000 0.398055 0.000000
O O11 0.000000 0.890629 0.265712
O O12 0.927218 0.000000 0.275399
O O13 0.936411 0.917343 0.000000
O O14 0.890741 0.640523 0.500000
#
# Coordination Sequence:
#
# PCOD8269500 Si02
#       5
#    16  16   8  16  16
#     4  10  20  36  61  91 128 173 219 266 315 374
#     4  10  19  34  57  91 129 172 214 259 312 372
#     4  11  26  50  75  96 123 161 207 262 322 386
#     4   8  14  26  48  81 119 160 209 260 307 361
#     4  12  25  42  66  97 130 166 208 261 323 383
#
# _framework density 21.296569000000002
#
# number of rings (size 3 to 8) (size 9 to 14) (size 15 to 20)
#    0.000    1.889    2.222    2.667    0.000    9.333 
#    0.000    1.111    0.000    2.000    0.000    1.556 
#    0.000    0.000    0.000    0.000    0.000    0.000 
#
# Total GULP energy -446419.795077 kJ/mol
# GULP energy per Si atom -12400.549863 kJ/mol
# Density = 2.124810 g / cm^3
# Si number density = 21.296569 Si / 1000 Ang^3
#
#
#
# Elastic Constant Matrix: (Units=GPa)
#
#
# Indices 1 2 3 4 5 6 
#
# 1 120.1819 45.4343 42.5163 0.0000 0.0000 0.0000
# 2 45.4343 114.2473 33.5420 0.0000 0.0000 0.0000
# 3 42.5163 33.5420 95.5537 0.0000 0.0000 0.0000
# 4 0.0000 0.0000 0.0000 -6.1913 0.0000 0.0000
# 5 0.0000 0.0000 0.0000 0.0000 2.2927 0.0000
# 6 0.0000 0.0000 0.0000 0.0000 0.0000 34.6953
#
#
#
# Elastic Compliance Matrix: (Units=1/GPa)
#
#
# Indices 1 2 3 4 5 6 
#
# 1 0.010848 -0.003230 -0.003693 0.000000 0.000000 0.000000
# 2 -0.003230 0.010720 -0.002326 0.000000 0.000000 0.000000
# 3 -0.003693 -0.002326 0.012925 0.000000 0.000000 0.000000
# 4 0.000000 0.000000 0.000000 -0.161516 0.000000 0.000000
# 5 0.000000 0.000000 0.000000 0.000000 0.436174 0.000000
# 6 0.000000 0.000000 0.000000 0.000000 0.000000 0.028822
#
#
# Mechanical properties :
#
#
# Convention : Reuss Voigt Hill
#
# Bulk Modulus (GPa) = 62.51718 63.66312 63.09015
# Shear Modulus (GPa) = 13.81966 20.05867 16.93917
#
# Velocity S-wave (km/s) = 2.55014 3.07233 2.82333
# Velocity P-wave (km/s) = 6.17173 6.52258 6.34958
#
# Compressibility (1/GPa) = 0.01599560
#
# Stress axis : x y z
#
# Youngs Moduli (GPa) = 92.18052 93.28080 77.36919
#
# Poissons Ratio (x) = 0.30129 0.28573
# Poissons Ratio (y) = 0.29774 0.17996
# Poissons Ratio (z) = 0.34043 0.21697
#
# Static dielectric constant tensor:
#      x y z
#    x 3.954360 0.000000 0.000000 
#    y 0.000000 3.989480 0.000000 
#    z 0.000000 0.000000 3.601950 
# 
# 
# High freq. dielectric constant tensor:
#      x y z
#    x 1.835060 0.000000 0.000000 
#    y 0.000000 1.842850 0.000000 
#    z 0.000000 0.000000 1.808470 
# 
# From -- ./inp_files/13608.got.cif
#   From: 2010.03.12/outbox.cif.g09.slc.cpg/sg65_7_cif.got.tgz:13608.got - 2010.04.10 20:52:16.
