data_PCOD8269649
_publ_section_title
;
Structure prediction by ZEFSAII (Michael W. Deem and Ramdas Pophale) SiO2 
 PCOD8269649
Probable space group: C M M M
;
_chemical_formula_sum "Si O2"
_cell_formula_units_Z 88
_cell_length_a 17.574096
_cell_length_b 17.307181
_cell_length_c 14.128789
_cell_angle_alpha 90.000000
_cell_angle_beta 90.000000
_cell_angle_gamma 90.000000
_cell_volume 4297.385058
_symmetry_space_group_name_H-M "C M M M"
_symmetry_group_IT_number 65
_symmetry_cell_setting 'orthorhombic'
loop_
_space_group_symop_operation_xyz
x,y,z
-x,-y,z
x,-y,-z
-x,y,-z
-x,-y,-z
x,y,-z
-x,y,z
x,-y,z
1/2+x,1/2+y,z
1/2-x,1/2-y,z
1/2+x,1/2-y,-z
1/2-x,1/2+y,-z
1/2-x,1/2-y,-z
1/2+x,1/2+y,-z
1/2-x,1/2+y,z
1/2+x,1/2-y,z
loop_
_atom_site_type_symbol
_atom_site_label
_atom_site_fract_x
_atom_site_fract_y
_atom_site_fract_z
Si Si1 0.865167 0.911011 0.893455
Si Si2 0.788708 0.667938 0.894376
Si Si3 0.500000 0.090390 0.394276
Si Si4 0.413440 0.339709 0.291597
Si Si5 0.638445 0.832475 0.705493
Si Si6 0.777317 0.911569 0.390264
O O1 0.774725 0.898344 0.882371
O O2 0.910874 0.856852 0.820901
O O3 0.883632 0.000000 0.871921
O O4 0.890789 0.888414 0.000000
O O5 0.750000 0.750000 0.872594
O O6 0.855699 0.653724 0.818755
O O7 0.824035 0.666546 0.000000
O O8 0.500000 0.127805 0.500000
O O9 0.574351 0.113114 0.336648
O O10 0.500000 0.000000 0.405637
O O11 0.500000 0.347265 0.327274
O O12 0.382553 0.255313 0.316559
O O13 0.361243 0.401139 0.346466
O O14 0.719270 0.852933 0.659354
O O15 0.780042 0.890684 0.500000
O O16 0.751583 0.000000 0.373940
#
# Coordination Sequence:
#
# PCOD8269649 Si02
#       6
#    16  16   8  16  16  16
#     4  10  21  38  62  94 131 171 216 264 316 380
#     4  10  19  35  64  97 129 166 211 264 321 384
#     4  11  26  46  69  97 130 169 215 275 337 388
#     4  12  25  41  61  95 135 170 211 263 324 388
#     4  12  22  42  68  97 128 168 219 268 323 387
#     4  11  25  44  67  93 123 167 219 270 326 389
#
# _framework density 20.477568999999999
#
# number of rings (size 3 to 8) (size 9 to 14) (size 15 to 20)
#    0.000    1.000    4.545    2.182    0.000    6.545 
#    0.000    2.273    0.000    0.545    0.000    0.000 
#    0.000    0.000    0.000    0.000    0.000    0.000 
#
# Total GULP energy -545733.567130 kJ/mol
# GULP energy per Si atom -12403.035617 kJ/mol
# Density = 2.043096 g / cm^3
# Si number density = 20.477569 Si / 1000 Ang^3
#
#
#
# Elastic Constant Matrix: (Units=GPa)
#
#
# Indices 1 2 3 4 5 6 
#
# 1 119.1465 31.4362 60.2993 0.0000 0.0000 0.0000
# 2 31.4362 82.5965 35.0339 0.0000 0.0000 0.0000
# 3 60.2993 35.0339 144.4135 0.0000 0.0000 0.0000
# 4 0.0000 0.0000 0.0000 32.0358 0.0000 0.0000
# 5 0.0000 0.0000 0.0000 0.0000 -35.9492 0.0000
# 6 0.0000 0.0000 0.0000 0.0000 0.0000 32.3746
#
#
#
# Elastic Compliance Matrix: (Units=1/GPa)
#
#
# Indices 1 2 3 4 5 6 
#
# 1 0.011092 -0.002516 -0.004021 0.000000 0.000000 0.000000
# 2 -0.002516 0.014066 -0.002362 0.000000 0.000000 0.000000
# 3 -0.004021 -0.002362 0.009176 0.000000 0.000000 0.000000
# 4 0.000000 0.000000 0.000000 0.031215 0.000000 0.000000
# 5 0.000000 0.000000 0.000000 0.000000 -0.027817 0.000000
# 6 0.000000 0.000000 0.000000 0.000000 0.000000 0.030888
#
#
# Mechanical properties :
#
#
# Convention : Reuss Voigt Hill
#
# Bulk Modulus (GPa) = 60.47044 66.63281 63.55163
# Shear Modulus (GPa) = 54.38835 20.31804 37.35320
#
# Velocity S-wave (km/s) = 5.15923 3.15335 4.27559
# Velocity P-wave (km/s) = 8.06749 6.77261 7.44824
#
# Compressibility (1/GPa) = 0.01653701
#
# Stress axis : x y z
#
# Youngs Moduli (GPa) = 90.15618 71.09111 108.97412
#
# Poissons Ratio (x) = 0.17887 0.43818
# Poissons Ratio (y) = 0.22683 0.25739
# Poissons Ratio (z) = 0.36252 0.16791
#
# Static dielectric constant tensor:
#      x y z
#    x 3.625370 0.000000 0.000000 
#    y 0.000000 3.702330 0.000000 
#    z 0.000000 0.000000 3.970660 
# 
# 
# High freq. dielectric constant tensor:
#      x y z
#    x 1.780640 0.000000 0.000000 
#    y 0.000000 1.803520 0.000000 
#    z 0.000000 0.000000 1.814930 
# 
# From -- ./inp_files/42504.got.cif
#   From: 2010.03.12/outbox.cif.g09.slc.cpg/sg65_22_cif.got.tgz:42504.got - 2010.04.10 20:52:16.
