data_PCOD8269351
_publ_section_title
;
Structure prediction by ZEFSAII (Michael W. Deem and Ramdas Pophale) SiO2 
 PCOD8269351
Probable space group: C M M M
;
_chemical_formula_sum "Si O2"
_cell_formula_units_Z 88
_cell_length_a 17.025035
_cell_length_b 22.727105
_cell_length_c 11.978979
_cell_angle_alpha 90.000000
_cell_angle_beta 90.000000
_cell_angle_gamma 90.000000
_cell_volume 4635.023446
_symmetry_space_group_name_H-M "C M M M"
_symmetry_group_IT_number 65
_symmetry_cell_setting 'orthorhombic'
loop_
_space_group_symop_operation_xyz
x,y,z
-x,-y,z
x,-y,-z
-x,y,-z
-x,-y,-z
x,y,-z
-x,y,z
x,-y,z
1/2+x,1/2+y,z
1/2-x,1/2-y,z
1/2+x,1/2-y,-z
1/2-x,1/2+y,-z
1/2-x,1/2-y,-z
1/2+x,1/2+y,-z
1/2-x,1/2+y,z
1/2+x,1/2-y,z
loop_
_atom_site_type_symbol
_atom_site_label
_atom_site_fract_x
_atom_site_fract_y
_atom_site_fract_z
Si Si1 0.090128 0.167470 0.687880
Si Si2 0.590531 0.796492 0.623174
Si Si3 0.788691 0.934354 0.373311
Si Si4 0.695994 0.698645 0.874915
Si Si5 0.092491 0.565631 0.000000
Si Si6 0.677427 0.879707 0.793092
O O1 0.104038 0.226027 0.615207
O O2 0.143516 0.113830 0.646250
O O3 0.114310 0.187390 0.812334
O O4 0.000000 0.146444 0.685596
O O5 0.613808 0.821061 0.500000
O O6 0.500000 0.810163 0.649530
O O7 0.640092 0.826749 0.721038
O O8 0.759107 0.928148 0.500000
O O9 0.712147 0.926726 0.294702
O O10 0.823072 0.000000 0.351827
O O11 0.750000 0.750000 0.821429
O O12 0.748927 0.640659 0.867482
O O13 0.672303 0.715331 0.000000
O O14 0.116756 0.595575 0.883255
O O15 0.127618 0.500000 0.000000
O O16 0.000000 0.565522 0.000000
#
# Coordination Sequence:
#
# PCOD8269351 Si02
#       6
#    16  16  16  16   8  16
#     4  10  21  36  56  84 119 153 190 236 288 345
#     4  10  20  34  54  84 119 151 182 224 285 350
#     4  10  22  38  58  83 111 151 200 243 284 334
#     4  10  19  34  54  82 114 148 184 228 281 343
#     4  11  24  40  59  84 115 153 195 236 284 340
#     4  11  20  37  58  84 111 147 186 236 286 338
#
# _framework density 18.985880000000002
#
# number of rings (size 3 to 8) (size 9 to 14) (size 15 to 20)
#    0.000    1.727    2.727    2.182    0.000    1.818 
#    0.000    3.636    0.000    0.000    0.000   10.182 
#    0.000    0.000    0.000    0.000    0.000    0.000 
#
# Total GULP energy -545237.552377 kJ/mol
# GULP energy per Si atom -12391.762554 kJ/mol
# Density = 1.894267 g / cm^3
# Si number density = 18.985880 Si / 1000 Ang^3
#
#
#
# Elastic Constant Matrix: (Units=GPa)
#
#
# Indices 1 2 3 4 5 6 
#
# 1 71.3551 31.7292 45.3849 0.0000 0.0000 0.0000
# 2 31.7292 96.7325 43.5863 0.0000 0.0000 0.0000
# 3 45.3849 43.5863 118.0228 0.0000 0.0000 0.0000
# 4 0.0000 0.0000 0.0000 24.5324 0.0000 0.0000
# 5 0.0000 0.0000 0.0000 0.0000 24.4921 0.0000
# 6 0.0000 0.0000 0.0000 0.0000 0.0000 25.6119
#
#
#
# Elastic Compliance Matrix: (Units=1/GPa)
#
#
# Indices 1 2 3 4 5 6 
#
# 1 0.019560 -0.003631 -0.006181 0.000000 0.000000 0.000000
# 2 -0.003631 0.013075 -0.003433 0.000000 0.000000 0.000000
# 3 -0.006181 -0.003433 0.012117 0.000000 0.000000 0.000000
# 4 0.000000 0.000000 0.000000 0.040762 0.000000 0.000000
# 5 0.000000 0.000000 0.000000 0.000000 0.040829 0.000000
# 6 0.000000 0.000000 0.000000 0.000000 0.000000 0.039044
#
#
# Mechanical properties :
#
#
# Convention : Reuss Voigt Hill
#
# Bulk Modulus (GPa) = 54.75135 58.61235 56.68185
# Shear Modulus (GPa) = 25.25686 25.95463 25.60575
#
# Velocity S-wave (km/s) = 3.65128 3.70137 3.67641
# Velocity P-wave (km/s) = 6.83201 7.01466 6.92394
#
# Compressibility (1/GPa) = 0.01826439
#
# Stress axis : x y z
#
# Youngs Moduli (GPa) = 51.12412 76.47928 82.52599
#
# Poissons Ratio (x) = 0.27769 0.51008
# Poissons Ratio (y) = 0.18563 0.28327
# Poissons Ratio (z) = 0.31599 0.26252
#
# Static dielectric constant tensor:
#      x y z
#    x 3.349670 0.000000 0.000000 
#    y 0.000000 3.518190 0.000000 
#    z 0.000000 0.000000 3.553940 
# 
# 
# High freq. dielectric constant tensor:
#      x y z
#    x 1.727030 0.000000 0.000000 
#    y 0.000000 1.732370 0.000000 
#    z 0.000000 0.000000 1.749770 
# 
# From -- ./inp_files/26827.got.cif
#   From: 2010.03.12/outbox.cif.g09.slc.cpg/sg65_14_cif.got.tgz:26827.got - 2010.04.10 20:52:16.
