data_PCOD8270816
_publ_section_title
;
Structure prediction by ZEFSAII (Michael W. Deem and Ramdas Pophale) SiO2 
 PCOD8270816
Probable space group: C M M M
;
_chemical_formula_sum "Si O2"
_cell_formula_units_Z 80
_cell_length_a 16.832328
_cell_length_b 26.858088
_cell_length_c 9.657424
_cell_angle_alpha 90.000000
_cell_angle_beta 90.000000
_cell_angle_gamma 90.000000
_cell_volume 4365.968288
_symmetry_space_group_name_H-M "C M M M"
_symmetry_group_IT_number 65
_symmetry_cell_setting 'orthorhombic'
loop_
_space_group_symop_operation_xyz
x,y,z
-x,-y,z
x,-y,-z
-x,y,-z
-x,-y,-z
x,y,-z
-x,y,z
x,-y,z
1/2+x,1/2+y,z
1/2-x,1/2-y,z
1/2+x,1/2-y,-z
1/2-x,1/2+y,-z
1/2-x,1/2-y,-z
1/2+x,1/2+y,-z
1/2-x,1/2+y,z
1/2+x,1/2-y,z
loop_
_atom_site_type_symbol
_atom_site_label
_atom_site_fract_x
_atom_site_fract_y
_atom_site_fract_z
Si Si1 0.409989 0.500000 0.835386
Si Si2 0.908270 0.706587 0.340739
Si Si3 0.824377 0.901251 0.159912
Si Si4 0.000000 0.555514 0.164442
Si Si5 0.146340 0.379102 0.840541
Si Si6 0.591773 0.679307 0.659368
O O1 0.500000 0.500000 0.778730
O O2 0.365137 0.548964 0.779583
O O3 0.408033 0.500000 0.000000
O O4 0.892300 0.692993 0.500000
O O5 0.853561 0.671983 0.245602
O O6 0.885006 0.763592 0.312081
O O7 0.000000 0.697572 0.302527
O O8 0.730001 0.906910 0.177912
O O9 0.853809 0.853831 0.243668
O O10 0.847740 0.893177 0.000000
O O11 0.921556 0.584069 0.217107
O O12 0.000000 0.500000 0.228344
O O13 0.000000 0.552190 0.000000
O O14 0.130484 0.365175 0.000000
O O15 0.608114 0.665652 0.500000
O O16 0.500000 0.669922 0.696191
#
# Coordination Sequence:
#
# PCOD8270816 Si02
#       6
#     8  16  16   8  16  16
#     4   9  18  34  55  76 104 139 172 209 261 315
#     4   9  18  34  55  76 102 140 179 215 259 312
#     4  10  21  34  52  80 109 136 171 218 263 308
#     4   9  18  32  53  77 105 143 179 212 259 312
#     4  10  20  33  52  80 109 137 174 217 260 308
#     4   9  19  36  56  77 103 138 179 217 259 313
#
# _framework density 18.323540999999999
#
# number of rings (size 3 to 8) (size 9 to 14) (size 15 to 20)
#    0.000    2.600    1.000    1.800    1.400    3.600 
#    0.000    6.500    0.000    3.000    0.000    0.000 
#    0.000    0.000    0.000    0.000    0.000    0.000 
#
# Total GULP energy -496067.095352 kJ/mol
# GULP energy per Si atom -12401.677384 kJ/mol
# Density = 1.828184 g / cm^3
# Si number density = 18.323541 Si / 1000 Ang^3
#
#
#
# Elastic Constant Matrix: (Units=GPa)
#
#
# Indices 1 2 3 4 5 6 
#
# 1 110.2879 64.0650 39.2243 0.0000 0.0000 0.0000
# 2 64.0650 124.2309 49.9993 0.0000 0.0000 0.0000
# 3 39.2243 49.9993 52.3173 0.0000 0.0000 0.0000
# 4 0.0000 0.0000 0.0000 1.5830 0.0000 0.0000
# 5 0.0000 0.0000 0.0000 0.0000 24.9871 0.0000
# 6 0.0000 0.0000 0.0000 0.0000 0.0000 31.3120
#
#
#
# Elastic Compliance Matrix: (Units=1/GPa)
#
#
# Indices 1 2 3 4 5 6 
#
# 1 0.013959 -0.004853 -0.005827 0.000000 0.000000 0.000000
# 2 -0.004853 0.014768 -0.010475 0.000000 0.000000 0.000000
# 3 -0.005827 -0.010475 0.033494 0.000000 0.000000 0.000000
# 4 0.000000 0.000000 0.000000 0.631717 0.000000 0.000000
# 5 0.000000 0.000000 0.000000 0.000000 0.040021 0.000000
# 6 0.000000 0.000000 0.000000 0.000000 0.000000 0.031937
#
#
# Mechanical properties :
#
#
# Convention : Reuss Voigt Hill
#
# Bulk Modulus (GPa) = 50.22666 65.93480 58.08073
# Shear Modulus (GPa) = 6.13615 20.47957 13.30786
#
# Velocity S-wave (km/s) = 1.83195 3.34678 2.69787
# Velocity P-wave (km/s) = 5.65201 7.14117 6.43978
#
# Compressibility (1/GPa) = 0.01990974
#
# Stress axis : x y z
#
# Youngs Moduli (GPa) = 71.63921 67.71270 29.85582
#
# Poissons Ratio (x) = 0.32862 0.17398
# Poissons Ratio (y) = 0.34768 0.31275
# Poissons Ratio (z) = 0.41747 0.70931
#
# Static dielectric constant tensor:
#      x y z
#    x 3.375130 0.000000 0.000000 
#    y 0.000000 3.428270 0.000000 
#    z 0.000000 0.000000 3.094170 
# 
# 
# High freq. dielectric constant tensor:
#      x y z
#    x 1.714100 0.000000 0.000000 
#    y 0.000000 1.714480 0.000000 
#    z 0.000000 0.000000 1.682190 
# 
# From -- ./inp_files/9686.got.cif
#   From: 2010.03.12/outbox.cif.g09.slc.cpg/sg65_5_cif.got.tgz:9686.got - 2010.04.10 20:52:16.
