data_PCOD8270505
_publ_section_title
;
Structure prediction by ZEFSAII (Michael W. Deem and Ramdas Pophale) SiO2 
 PCOD8270505
Probable space group: C M M M
;
_chemical_formula_sum "Si O2"
_cell_formula_units_Z 80
_cell_length_a 9.825244
_cell_length_b 15.909511
_cell_length_c 27.185125
_cell_angle_alpha 90.000000
_cell_angle_beta 90.000000
_cell_angle_gamma 90.000000
_cell_volume 4249.438125
_symmetry_space_group_name_H-M "C M M M"
_symmetry_group_IT_number 65
_symmetry_cell_setting 'orthorhombic'
loop_
_space_group_symop_operation_xyz
x,y,z
-x,-y,z
x,-y,-z
-x,y,-z
-x,-y,-z
x,y,-z
-x,y,z
x,-y,z
1/2+x,1/2+y,z
1/2-x,1/2-y,z
1/2+x,1/2-y,-z
1/2-x,1/2+y,-z
1/2-x,1/2-y,-z
1/2+x,1/2+y,-z
1/2-x,1/2+y,z
1/2+x,1/2-y,z
loop_
_atom_site_type_symbol
_atom_site_label
_atom_site_fract_x
_atom_site_fract_y
_atom_site_fract_z
Si Si1 0.338853 0.000000 0.555971
Si Si2 0.654818 0.902660 0.715300
Si Si3 0.341817 0.326963 0.100800
Si Si4 0.351993 0.597306 0.797936
Si Si5 0.340096 0.169300 0.389973
Si Si6 0.838292 0.092732 0.000000
O O1 0.286509 0.913902 0.581384
O O2 0.500000 0.000000 0.560352
O O3 0.287343 0.000000 0.500000
O O4 0.500000 0.894224 0.732482
O O5 0.743183 0.863779 0.760127
O O6 0.684164 0.847111 0.667530
O O7 0.688820 0.000000 0.703163
O O8 0.500000 0.301646 0.096115
O O9 0.250000 0.250000 0.116340
O O10 0.315804 0.392892 0.144545
O O11 0.285793 0.361647 0.049012
O O12 0.500000 0.638749 0.787443
O O13 0.357716 0.500000 0.786532
O O14 0.500000 0.186726 0.401212
O O15 0.250000 0.250000 0.406271
O O16 0.000000 0.087590 0.000000
O O17 0.775032 0.000000 0.000000
#
# Coordination Sequence:
#
# PCOD8270505 Si02
#       6
#     8  16  16  16  16   8
#     4   9  18  36  61  83 109 149 189 224 269 326
#     4   9  17  32  53  74 101 139 179 216 258 312
#     4  10  20  33  50  72  99 128 160 202 251 303
#     4   9  18  32  50  73 100 131 170 213 254 298
#     4  10  20  35  56  83 112 144 185 228 271 324
#     4   9  17  32  55  75  90 119 164 206 246 297
#
# _framework density 18.826017
#
# number of rings (size 3 to 8) (size 9 to 14) (size 15 to 20)
#    0.000    2.600    1.000    0.900    0.000    5.200 
#    0.000    4.500    0.000    3.000    0.000    0.000 
#    0.000    0.000    0.000    0.000    0.000    0.000 
#
# Total GULP energy -495784.830161 kJ/mol
# GULP energy per Si atom -12394.620754 kJ/mol
# Density = 1.878317 g / cm^3
# Si number density = 18.826017 Si / 1000 Ang^3
#
#
#
# Elastic Constant Matrix: (Units=GPa)
#
#
# Indices 1 2 3 4 5 6 
#
# 1 62.1222 45.4595 49.0678 0.0000 0.0000 0.0000
# 2 45.4595 89.8116 40.0048 0.0000 0.0000 0.0000
# 3 49.0678 40.0048 122.8642 0.0000 0.0000 0.0000
# 4 0.0000 0.0000 0.0000 18.1362 0.0000 0.0000
# 5 0.0000 0.0000 0.0000 0.0000 51.3592 0.0000
# 6 0.0000 0.0000 0.0000 0.0000 0.0000 24.4081
#
#
#
# Elastic Compliance Matrix: (Units=1/GPa)
#
#
# Indices 1 2 3 4 5 6 
#
# 1 0.032045 -0.012304 -0.008792 0.000000 0.000000 0.000000
# 2 -0.012304 0.017748 -0.000865 0.000000 0.000000 0.000000
# 3 -0.008792 -0.000865 0.011932 0.000000 0.000000 0.000000
# 4 0.000000 0.000000 0.000000 0.055138 0.000000 0.000000
# 5 0.000000 0.000000 0.000000 0.000000 0.019471 0.000000
# 6 0.000000 0.000000 0.000000 0.000000 0.000000 0.040970
#
#
# Mechanical properties :
#
#
# Convention : Reuss Voigt Hill
#
# Bulk Modulus (GPa) = 56.16856 60.42914 58.29885
# Shear Modulus (GPa) = 22.01098 28.13174 25.07136
#
# Velocity S-wave (km/s) = 3.42304 3.86981 3.65326
# Velocity P-wave (km/s) = 6.74709 7.22050 6.98781
#
# Compressibility (1/GPa) = 0.01780355
#
# Stress axis : x y z
#
# Youngs Moduli (GPa) = 31.20576 56.34569 83.81051
#
# Poissons Ratio (x) = 0.69329 0.73682
# Poissons Ratio (y) = 0.38396 0.07248
# Poissons Ratio (z) = 0.27435 0.04872
#
# Static dielectric constant tensor:
#      x y z
#    x 3.393120 0.000000 0.000000 
#    y 0.000000 3.332070 0.000000 
#    z 0.000000 0.000000 3.554470 
# 
# 
# High freq. dielectric constant tensor:
#      x y z
#    x 1.703920 0.000000 0.000000 
#    y 0.000000 1.721780 0.000000 
#    z 0.000000 0.000000 1.739020 
# 
# From -- ./inp_files/68850.got.cif
#   From: 2010.03.12/outbox.cif.g09.slc.cpg/sg65_35_cif.got.tgz:68850.got - 2010.04.10 20:52:16.
