data_PCOD8270666
_publ_section_title
;
Structure prediction by ZEFSAII (Michael W. Deem and Ramdas Pophale) SiO2 
 PCOD8270666
Probable space group: C M M M
;
_chemical_formula_sum "Si O2"
_cell_formula_units_Z 80
_cell_length_a 25.627652
_cell_length_b 8.934666
_cell_length_c 19.549472
_cell_angle_alpha 90.000000
_cell_angle_beta 90.000000
_cell_angle_gamma 90.000000
_cell_volume 4476.330791
_symmetry_space_group_name_H-M "C M M M"
_symmetry_group_IT_number 65
_symmetry_cell_setting 'orthorhombic'
loop_
_space_group_symop_operation_xyz
x,y,z
-x,-y,z
x,-y,-z
-x,y,-z
-x,-y,-z
x,y,-z
-x,y,z
x,-y,z
1/2+x,1/2+y,z
1/2-x,1/2-y,z
1/2+x,1/2-y,-z
1/2-x,1/2+y,-z
1/2-x,1/2-y,-z
1/2+x,1/2+y,-z
1/2-x,1/2+y,z
1/2+x,1/2-y,z
loop_
_atom_site_type_symbol
_atom_site_label
_atom_site_fract_x
_atom_site_fract_y
_atom_site_fract_z
Si Si1 0.405686 0.670582 0.668685
Si Si2 0.804667 0.676516 0.278995
Si Si3 0.058708 0.833363 0.180447
Si Si4 0.500000 0.321747 0.577841
Si Si5 0.652695 0.827769 0.131521
Si Si6 0.195047 0.175308 0.000000
O O1 0.390089 0.500000 0.651184
O O2 0.351658 0.763525 0.673140
O O3 0.437777 0.680907 0.738417
O O4 0.446131 0.737721 0.612521
O O5 0.801061 0.500000 0.289212
O O6 0.750000 0.750000 0.301599
O O7 0.814974 0.717922 0.199381
O O8 0.092037 0.703696 0.145028
O O9 0.000000 0.806771 0.156410
O O10 0.077795 0.000000 0.158337
O O11 0.500000 0.500000 0.584970
O O12 0.500000 0.266021 0.500000
O O13 0.661590 0.000000 0.112186
O O14 0.666568 0.723542 0.068630
O O15 0.250000 0.250000 0.000000
O O16 0.201547 0.000000 0.000000
#
# Coordination Sequence:
#
# PCOD8270666 Si02
#       6
#    16  16  16   8  16   8
#     4   9  16  29  50  76 106 139 172 209 252 300
#     4  10  20  33  51  76 103 133 170 215 262 307
#     4   9  16  29  50  74 101 133 169 207 251 301
#     4   9  16  28  51  83 113 140 173 208 245 297
#     4  10  21  35  51  74 101 130 167 209 257 307
#     4  12  24  38  55  72  95 128 164 205 253 307
#
# _framework density 17.871780999999999
#
# number of rings (size 3 to 8) (size 9 to 14) (size 15 to 20)
#    0.000    2.300    1.000    2.700    0.000    4.400 
#    0.000    1.000    0.000    4.800    0.000    0.000 
#    0.000    0.000    0.000    0.000    0.000    0.000 
#
# Total GULP energy -495874.342047 kJ/mol
# GULP energy per Si atom -12396.858551 kJ/mol
# Density = 1.783110 g / cm^3
# Si number density = 17.871781 Si / 1000 Ang^3
#
#
#
# Elastic Constant Matrix: (Units=GPa)
#
#
# Indices 1 2 3 4 5 6 
#
# 1 137.1869 51.1167 55.5317 0.0000 0.0000 0.0000
# 2 51.1167 83.0550 38.9375 0.0000 0.0000 0.0000
# 3 55.5317 38.9375 86.4950 0.0000 0.0000 0.0000
# 4 0.0000 0.0000 0.0000 15.6517 0.0000 0.0000
# 5 0.0000 0.0000 0.0000 0.0000 19.9530 0.0000
# 6 0.0000 0.0000 0.0000 0.0000 0.0000 30.5907
#
#
#
# Elastic Compliance Matrix: (Units=1/GPa)
#
#
# Indices 1 2 3 4 5 6 
#
# 1 0.010974 -0.004374 -0.005076 0.000000 0.000000 0.000000
# 2 -0.004374 0.017004 -0.004847 0.000000 0.000000 0.000000
# 3 -0.005076 -0.004847 0.017002 0.000000 0.000000 0.000000
# 4 0.000000 0.000000 0.000000 0.063891 0.000000 0.000000
# 5 0.000000 0.000000 0.000000 0.000000 0.050118 0.000000
# 6 0.000000 0.000000 0.000000 0.000000 0.000000 0.032690
#
#
# Mechanical properties :
#
#
# Convention : Reuss Voigt Hill
#
# Bulk Modulus (GPa) = 61.02606 66.43431 63.73018
# Shear Modulus (GPa) = 22.14980 23.98249 23.06615
#
# Velocity S-wave (km/s) = 3.52429 3.66720 3.59645
# Velocity P-wave (km/s) = 7.12612 7.42863 7.27895
#
# Compressibility (1/GPa) = 0.01638644
#
# Stress axis : x y z
#
# Youngs Moduli (GPa) = 91.12409 58.80806 58.81526
#
# Poissons Ratio (x) = 0.25723 0.29857
# Poissons Ratio (y) = 0.39859 0.28506
# Poissons Ratio (z) = 0.46259 0.28502
#
# Static dielectric constant tensor:
#      x y z
#    x 3.342250 0.000000 0.000000 
#    y 0.000000 3.227220 0.000000 
#    z 0.000000 0.000000 3.068230 
# 
# 
# High freq. dielectric constant tensor:
#      x y z
#    x 1.700720 0.000000 0.000000 
#    y 0.000000 1.683950 0.000000 
#    z 0.000000 0.000000 1.660750 
# 
# From -- ./inp_files/57250.got.cif
#   From: 2010.03.12/outbox.cif.g09.slc.cpg/sg65_29_cif.got.tgz:57250.got - 2010.04.10 20:52:16.
