data_PCOD8270267
_publ_section_title
;
Structure prediction by ZEFSAII (Michael W. Deem and Ramdas Pophale) SiO2 
 PCOD8270267
Probable space group: C M M M
;
_chemical_formula_sum "Si O2"
_cell_formula_units_Z 88
_cell_length_a 17.005775
_cell_length_b 29.322907
_cell_length_c 9.280473
_cell_angle_alpha 90.000000
_cell_angle_beta 90.000000
_cell_angle_gamma 90.000000
_cell_volume 4627.789147
_symmetry_space_group_name_H-M "C M M M"
_symmetry_group_IT_number 65
_symmetry_cell_setting 'orthorhombic'
loop_
_space_group_symop_operation_xyz
x,y,z
-x,-y,z
x,-y,-z
-x,y,-z
-x,-y,-z
x,y,-z
-x,y,z
x,-y,z
1/2+x,1/2+y,z
1/2-x,1/2-y,z
1/2+x,1/2-y,-z
1/2-x,1/2+y,-z
1/2-x,1/2-y,-z
1/2+x,1/2+y,-z
1/2-x,1/2+y,z
1/2+x,1/2-y,z
loop_
_atom_site_type_symbol
_atom_site_label
_atom_site_fract_x
_atom_site_fract_y
_atom_site_fract_z
Si Si1 0.807066 0.887266 0.333557
Si Si2 0.830926 0.197300 0.838333
Si Si3 0.913313 0.053628 0.840742
Si Si4 0.355814 0.796361 0.162862
Si Si5 0.876038 0.383639 0.329994
Si Si6 0.000000 0.554310 0.828195
O O1 0.821151 0.882441 0.500000
O O2 0.853110 0.844402 0.264303
O O3 0.848439 0.932173 0.274693
O O4 0.715224 0.892063 0.297144
O O5 0.737448 0.200732 0.832584
O O6 0.874067 0.244211 0.787427
O O7 0.858681 0.186312 0.000000
O O8 0.000000 0.072112 0.798437
O O9 0.914900 0.000000 0.842127
O O10 0.890146 0.071843 0.000000
O O11 0.397194 0.833127 0.268484
O O12 0.386287 0.805196 0.000000
O O13 0.896125 0.385355 0.500000
O O14 0.923680 0.422654 0.245137
O O15 0.000000 0.500000 0.795862
O O16 0.000000 0.563229 0.000000
#
# Coordination Sequence:
#
# PCOD8270267 Si02
#       6
#    16  16  16  16  16   8
#     4  10  20  32  51  82 114 143 176 216 266 325
#     4   8  14  26  47  75 106 140 175 212 255 302
#     4   9  19  36  56  76 100 135 177 219 265 315
#     4   8  14  27  49  76 104 136 176 216 253 304
#     4  10  21  36  55  80 110 143 176 217 274 331
#     4  11  25  43  61  79 101 137 187 239 286 329
#
# _framework density 19.015560000000001
#
# number of rings (size 3 to 8) (size 9 to 14) (size 15 to 20)
#    0.000    2.818    0.000    3.000    0.000    5.091 
#    0.000    8.182    2.000    0.000    0.000    0.000 
#    0.000    0.000    0.000    0.000    0.000    0.000 
#
# Total GULP energy -545233.477079 kJ/mol
# GULP energy per Si atom -12391.669934 kJ/mol
# Density = 1.897228 g / cm^3
# Si number density = 19.015560 Si / 1000 Ang^3
#
#
#
# Elastic Constant Matrix: (Units=GPa)
#
#
# Indices 1 2 3 4 5 6 
#
# 1 59.7404 47.5726 53.8839 0.0000 0.0000 0.0000
# 2 47.5726 116.0737 73.0641 0.0000 0.0000 0.0000
# 3 53.8839 73.0641 112.7869 0.0000 0.0000 0.0000
# 4 0.0000 0.0000 0.0000 22.0966 0.0000 0.0000
# 5 0.0000 0.0000 0.0000 0.0000 23.2778 0.0000
# 6 0.0000 0.0000 0.0000 0.0000 0.0000 19.0644
#
#
#
# Elastic Compliance Matrix: (Units=1/GPa)
#
#
# Indices 1 2 3 4 5 6 
#
# 1 0.031582 -0.005819 -0.011319 0.000000 0.000000 0.000000
# 2 -0.005819 0.015619 -0.007338 0.000000 0.000000 0.000000
# 3 -0.011319 -0.007338 0.019027 0.000000 0.000000 0.000000
# 4 0.000000 0.000000 0.000000 0.045256 0.000000 0.000000
# 5 0.000000 0.000000 0.000000 0.000000 0.042959 0.000000
# 6 0.000000 0.000000 0.000000 0.000000 0.000000 0.052454
#
#
# Mechanical properties :
#
#
# Convention : Reuss Voigt Hill
#
# Bulk Modulus (GPa) = 57.88086 70.84914 64.36500
# Shear Modulus (GPa) = 19.11251 20.49312 19.80281
#
# Velocity S-wave (km/s) = 3.17377 3.28640 3.23057
# Velocity P-wave (km/s) = 6.62836 7.19305 6.91647
#
# Compressibility (1/GPa) = 0.01727687
#
# Stress axis : x y z
#
# Youngs Moduli (GPa) = 31.66350 64.02325 52.55571
#
# Poissons Ratio (x) = 0.37257 0.59486
# Poissons Ratio (y) = 0.18426 0.38566
# Poissons Ratio (z) = 0.35839 0.46981
#
# Static dielectric constant tensor:
#      x y z
#    x 3.330920 0.000000 0.000000 
#    y 0.000000 3.789690 0.000000 
#    z 0.000000 0.000000 3.542260 
# 
# 
# High freq. dielectric constant tensor:
#      x y z
#    x 1.710510 0.000000 0.000000 
#    y 0.000000 1.745380 0.000000 
#    z 0.000000 0.000000 1.736780 
# 
# From -- ./inp_files/10158.got.cif
#   From: 2010.03.12/outbox.cif.g09.slc.cpg/sg65_6_cif.got.tgz:10158.got - 2010.04.10 20:52:16.
