data_PCOD8270111
_publ_section_title
;
Structure prediction by ZEFSAII (Michael W. Deem and Ramdas Pophale) SiO2 
 PCOD8270111
Probable space group: C M M M
;
_chemical_formula_sum "Si O2"
_cell_formula_units_Z 96
_cell_length_a 18.971417
_cell_length_b 25.646944
_cell_length_c 10.438473
_cell_angle_alpha 90.000000
_cell_angle_beta 90.000000
_cell_angle_gamma 90.000000
_cell_volume 5078.931621
_symmetry_space_group_name_H-M "C M M M"
_symmetry_group_IT_number 65
_symmetry_cell_setting 'orthorhombic'
loop_
_space_group_symop_operation_xyz
x,y,z
-x,-y,z
x,-y,-z
-x,y,-z
-x,-y,-z
x,y,-z
-x,y,z
x,-y,z
1/2+x,1/2+y,z
1/2-x,1/2-y,z
1/2+x,1/2-y,-z
1/2-x,1/2+y,-z
1/2-x,1/2-y,-z
1/2+x,1/2+y,-z
1/2-x,1/2+y,z
1/2+x,1/2-y,z
loop_
_atom_site_type_symbol
_atom_site_label
_atom_site_fract_x
_atom_site_fract_y
_atom_site_fract_z
Si Si1 0.161284 0.355216 0.145479
Si Si2 0.177301 0.441201 0.646376
Si Si3 0.419447 0.560064 0.142125
Si Si4 0.172821 0.903352 0.636432
Si Si5 0.711180 0.699238 0.734662
Si Si6 0.920998 0.252929 0.148752
O O1 0.146595 0.401554 0.247549
O O2 0.237627 0.327128 0.158640
O O3 0.100678 0.312871 0.172230
O O4 0.156309 0.377128 0.000000
O O5 0.156015 0.424795 0.500000
O O6 0.150405 0.500000 0.675148
O O7 0.261996 0.442002 0.658995
O O8 0.500000 0.577704 0.142641
O O9 0.412114 0.500000 0.181339
O O10 0.380079 0.594580 0.245628
O O11 0.387665 0.569424 0.000000
O O12 0.136080 0.917013 0.500000
O O13 0.200979 0.843929 0.625024
O O14 0.750000 0.750000 0.676352
O O15 0.634377 0.713457 0.788454
O O16 0.000000 0.244468 0.205451
O O17 0.920806 0.239755 0.000000
#
# Coordination Sequence:
#
# PCOD8270111 Si02
#       6
#    16  16  16  16  16  16
#     4   9  17  30  50  75  99 124 160 203 241 282
#     4   9  18  32  49  70  97 127 157 192 239 294
#     4   9  19  35  51  67  92 129 168 200 235 286
#     4  10  20  32  48  72  98 123 157 202 246 285
#     4   9  18  32  48  68  98 132 164 197 239 289
#     4   9  17  30  49  72  98 128 161 199 244 290
#
# _framework density 18.901613000000001
#
# number of rings (size 3 to 8) (size 9 to 14) (size 15 to 20)
#    0.000    2.833    0.000    1.500    0.000    8.000 
#    0.000    5.000    0.000    2.000    0.000    3.500 
#    0.000    0.000    0.000    0.000    0.000    0.000 
#
# Total GULP energy -594773.034527 kJ/mol
# GULP energy per Si atom -12391.104886 kJ/mol
# Density = 1.885859 g / cm^3
# Si number density = 18.901613 Si / 1000 Ang^3
#
#
#
# Elastic Constant Matrix: (Units=GPa)
#
#
# Indices 1 2 3 4 5 6 
#
# 1 72.3584 10.6093 12.1519 0.0000 0.0000 0.0000
# 2 10.6093 70.7781 23.9015 0.0000 0.0000 0.0000
# 3 12.1519 23.9015 85.4322 0.0000 0.0000 0.0000
# 4 0.0000 0.0000 0.0000 15.2300 0.0000 0.0000
# 5 0.0000 0.0000 0.0000 0.0000 17.2683 0.0000
# 6 0.0000 0.0000 0.0000 0.0000 0.0000 18.6935
#
#
#
# Elastic Compliance Matrix: (Units=1/GPa)
#
#
# Indices 1 2 3 4 5 6 
#
# 1 0.014323 -0.001611 -0.001587 0.000000 0.000000 0.000000
# 2 -0.001611 0.015784 -0.004187 0.000000 0.000000 0.000000
# 3 -0.001587 -0.004187 0.013102 0.000000 0.000000 0.000000
# 4 0.000000 0.000000 0.000000 0.065660 0.000000 0.000000
# 5 0.000000 0.000000 0.000000 0.000000 0.057910 0.000000
# 6 0.000000 0.000000 0.000000 0.000000 0.000000 0.053495
#
#
# Mechanical properties :
#
#
# Convention : Reuss Voigt Hill
#
# Bulk Modulus (GPa) = 35.16158 35.76600 35.46379
# Shear Modulus (GPa) = 20.44807 22.36542 21.40674
#
# Velocity S-wave (km/s) = 3.29267 3.44358 3.36897
# Velocity P-wave (km/s) = 5.75311 5.89697 5.82549
#
# Compressibility (1/GPa) = 0.02844013
#
# Stress axis : x y z
#
# Youngs Moduli (GPa) = 69.81887 63.35527 76.32312
#
# Poissons Ratio (x) = 0.10208 0.12109
# Poissons Ratio (y) = 0.11249 0.31955
# Poissons Ratio (z) = 0.11077 0.26525
#
# Static dielectric constant tensor:
#      x y z
#    x 3.302580 0.000000 0.000000 
#    y 0.000000 3.444110 0.000000 
#    z 0.000000 0.000000 3.353600 
# 
# 
# High freq. dielectric constant tensor:
#      x y z
#    x 1.703780 0.000000 0.000000 
#    y 0.000000 1.737730 0.000000 
#    z 0.000000 0.000000 1.723980 
# 
# From -- ./inp_files/27376.got.cif
#   From: 2010.03.12/outbox.cif.g09.slc.cpg/sg65_14_cif.got.tgz:27376.got - 2010.04.10 20:52:16.
