data_PCOD8270569
_publ_section_title
;
Structure prediction by ZEFSAII (Michael W. Deem and Ramdas Pophale) SiO2 
 PCOD8270569
Probable space group: C M M M
;
_chemical_formula_sum "Si O2"
_cell_formula_units_Z 72
_cell_length_a 8.983224
_cell_length_b 18.087045
_cell_length_c 23.117713
_cell_angle_alpha 90.000000
_cell_angle_beta 90.000000
_cell_angle_gamma 90.000000
_cell_volume 3756.165470
_symmetry_space_group_name_H-M "C M M M"
_symmetry_group_IT_number 65
_symmetry_cell_setting 'orthorhombic'
loop_
_space_group_symop_operation_xyz
x,y,z
-x,-y,z
x,-y,-z
-x,y,-z
-x,-y,-z
x,y,-z
-x,y,z
x,-y,z
1/2+x,1/2+y,z
1/2-x,1/2-y,z
1/2+x,1/2-y,-z
1/2-x,1/2+y,-z
1/2-x,1/2-y,-z
1/2+x,1/2+y,-z
1/2-x,1/2+y,z
1/2+x,1/2-y,z
loop_
_atom_site_type_symbol
_atom_site_label
_atom_site_fract_x
_atom_site_fract_y
_atom_site_fract_z
Si Si1 0.171257 0.086059 0.713619
Si Si2 0.323874 0.829409 0.387797
Si Si3 0.326656 0.326766 0.828515
Si Si4 0.823228 0.582983 0.500000
Si Si5 0.176830 0.917221 0.064093
O O1 0.278722 0.126775 0.669259
O O2 0.205444 0.115899 0.777369
O O3 0.000000 0.100928 0.696374
O O4 0.209756 0.000000 0.712971
O O5 0.500000 0.819487 0.388841
O O6 0.250000 0.750000 0.388226
O O7 0.265253 0.874492 0.443384
O O8 0.500000 0.310971 0.835710
O O9 0.250000 0.250000 0.813692
O O10 0.258681 0.361718 0.887506
O O11 0.756660 0.500000 0.500000
O O12 0.000000 0.579402 0.500000
O O13 0.000000 0.919916 0.069336
O O14 0.239258 0.000000 0.074668
O O15 0.224708 0.889488 0.000000
#
# Coordination Sequence:
#
# PCOD8270569 Si02
#       5
#    16  16  16   8  16
#     4  10  21  37  56  78 105 137 175 219 265 313
#     4  11  22  37  58  82 110 142 176 215 260 310
#     4  10  20  33  50  74 104 136 169 209 258 308
#     4   9  19  36  57  81 108 139 176 217 260 306
#     4   8  14  27  49  74  97 126 169 215 254 298
#
# _framework density 19.168485
#
# number of rings (size 3 to 8) (size 9 to 14) (size 15 to 20)
#    0.000    2.333    0.000    3.667    0.000    7.111 
#    0.000    1.667    0.000    6.000    0.000    1.556 
#    0.000    0.000    0.000    0.000    0.000    0.000 
#
# Total GULP energy -446423.562319 kJ/mol
# GULP energy per Si atom -12400.654509 kJ/mol
# Density = 1.912486 g / cm^3
# Si number density = 19.168485 Si / 1000 Ang^3
#
#
#
# Elastic Constant Matrix: (Units=GPa)
#
#
# Indices 1 2 3 4 5 6 
#
# 1 43.9703 41.8337 40.6539 0.0000 0.0000 0.0000
# 2 41.8337 152.6972 69.5431 0.0000 0.0000 0.0000
# 3 40.6539 69.5431 134.6764 0.0000 0.0000 0.0000
# 4 0.0000 0.0000 0.0000 27.9257 0.0000 0.0000
# 5 0.0000 0.0000 0.0000 0.0000 23.8170 0.0000
# 6 0.0000 0.0000 0.0000 0.0000 0.0000 11.1189
#
#
#
# Elastic Compliance Matrix: (Units=1/GPa)
#
#
# Indices 1 2 3 4 5 6 
#
# 1 0.035741 -0.006378 -0.007495 0.000000 0.000000 0.000000
# 2 -0.006378 0.009701 -0.003084 0.000000 0.000000 0.000000
# 3 -0.007495 -0.003084 0.011280 0.000000 0.000000 0.000000
# 4 0.000000 0.000000 0.000000 0.035809 0.000000 0.000000
# 5 0.000000 0.000000 0.000000 0.000000 0.041987 0.000000
# 6 0.000000 0.000000 0.000000 0.000000 0.000000 0.089937
#
#
# Mechanical properties :
#
#
# Convention : Reuss Voigt Hill
#
# Bulk Modulus (GPa) = 43.84600 70.60058 57.22329
# Shear Modulus (GPa) = 18.79896 24.52654 21.66275
#
# Velocity S-wave (km/s) = 3.13505 3.58092 3.36538
# Velocity P-wave (km/s) = 6.00236 7.34908 6.70959
#
# Compressibility (1/GPa) = 0.02280710
#
# Stress axis : x y z
#
# Youngs Moduli (GPa) = 27.97917 103.08441 88.65072
#
# Poissons Ratio (x) = 0.65748 0.66447
# Poissons Ratio (y) = 0.17845 0.27339
# Poissons Ratio (z) = 0.20971 0.31790
#
# Static dielectric constant tensor:
#      x y z
#    x 3.131880 0.000000 0.000000 
#    y 0.000000 3.642470 0.000000 
#    z 0.000000 0.000000 3.816940 
# 
# 
# High freq. dielectric constant tensor:
#      x y z
#    x 1.705230 0.000000 0.000000 
#    y 0.000000 1.757210 0.000000 
#    z 0.000000 0.000000 1.763910 
# 
# From -- ./inp_files/67077.got.cif
#   From: 2010.03.12/outbox.cif.g09.slc.cpg/sg65_34_cif.got.tgz:67077.got - 2010.04.10 20:52:16.
