data_PCOD8270114
_publ_section_title
;
Structure prediction by ZEFSAII (Michael W. Deem and Ramdas Pophale) SiO2 
 PCOD8270114
Probable space group: C M M M
;
_chemical_formula_sum "Si O2"
_cell_formula_units_Z 80
_cell_length_a 9.200442
_cell_length_b 27.004706
_cell_length_c 18.604720
_cell_angle_alpha 90.000000
_cell_angle_beta 90.000000
_cell_angle_gamma 90.000000
_cell_volume 4622.440011
_symmetry_space_group_name_H-M "C M M M"
_symmetry_group_IT_number 65
_symmetry_cell_setting 'orthorhombic'
loop_
_space_group_symop_operation_xyz
x,y,z
-x,-y,z
x,-y,-z
-x,y,-z
-x,-y,-z
x,y,-z
-x,y,z
x,-y,z
1/2+x,1/2+y,z
1/2-x,1/2-y,z
1/2+x,1/2-y,-z
1/2-x,1/2+y,-z
1/2-x,1/2-y,-z
1/2+x,1/2+y,-z
1/2-x,1/2+y,z
1/2+x,1/2-y,z
loop_
_atom_site_type_symbol
_atom_site_label
_atom_site_fract_x
_atom_site_fract_y
_atom_site_fract_z
Si Si1 0.833919 0.555105 0.834528
Si Si2 0.669355 0.397608 0.708848
Si Si3 0.329736 0.701183 0.208213
Si Si4 0.331018 0.943303 0.582290
Si Si5 0.830903 0.651138 0.917937
O O1 0.804124 0.500000 0.864871
O O2 0.735055 0.563629 0.765131
O O3 0.797746 0.594066 0.897376
O O4 0.000000 0.561025 0.808970
O O5 0.500000 0.408028 0.703531
O O6 0.702925 0.341825 0.734386
O O7 0.739586 0.405797 0.631075
O O8 0.500000 0.711120 0.199242
O O9 0.250000 0.750000 0.237685
O O10 0.264996 0.687514 0.130367
O O11 0.294796 0.930388 0.500000
O O12 0.500000 0.935225 0.598292
O O13 0.287389 0.000000 0.599018
O O14 0.000000 0.663792 0.906039
O O15 0.783889 0.659062 0.000000
#
# Coordination Sequence:
#
# PCOD8270114 Si02
#       5
#    16  16  16  16  16
#     4   9  17  29  46  68  95 129 165 197 231 276
#     4  10  20  32  48  72  99 125 157 199 241 281
#     4  10  21  36  53  72  93 120 157 200 245 291
#     4   9  18  32  50  74 104 136 166 192 222 267
#     4   9  18  32  49  70  96 125 158 197 241 287
#
# _framework density 17.306878000000001
#
# number of rings (size 3 to 8) (size 9 to 14) (size 15 to 20)
#    0.000    2.600    0.000    2.400    0.000    7.200 
#    0.000    3.000    0.000    0.600    0.000    5.600 
#    0.000    0.000    0.000    0.000    0.000    0.000 
#
# Total GULP energy -496058.516570 kJ/mol
# GULP energy per Si atom -12401.462914 kJ/mol
# Density = 1.726749 g / cm^3
# Si number density = 17.306878 Si / 1000 Ang^3
#
#
#
# Elastic Constant Matrix: (Units=GPa)
#
#
# Indices 1 2 3 4 5 6 
#
# 1 85.6575 48.8443 55.6333 0.0000 0.0000 0.0000
# 2 48.8443 91.2957 40.1569 0.0000 0.0000 0.0000
# 3 55.6333 40.1569 104.8334 0.0000 0.0000 0.0000
# 4 0.0000 0.0000 0.0000 17.4269 0.0000 0.0000
# 5 0.0000 0.0000 0.0000 0.0000 24.4926 0.0000
# 6 0.0000 0.0000 0.0000 0.0000 0.0000 27.8482
#
#
#
# Elastic Compliance Matrix: (Units=1/GPa)
#
#
# Indices 1 2 3 4 5 6 
#
# 1 0.021670 -0.007860 -0.008489 0.000000 0.000000 0.000000
# 2 -0.007860 0.016024 -0.001967 0.000000 0.000000 0.000000
# 3 -0.008489 -0.001967 0.014797 0.000000 0.000000 0.000000
# 4 0.000000 0.000000 0.000000 0.057383 0.000000 0.000000
# 5 0.000000 0.000000 0.000000 0.000000 0.040829 0.000000
# 6 0.000000 0.000000 0.000000 0.000000 0.000000 0.035909
#
#
# Mechanical properties :
#
#
# Convention : Reuss Voigt Hill
#
# Bulk Modulus (GPa) = 63.05398 63.45061 63.25230
# Shear Modulus (GPa) = 21.87908 23.09700 22.48804
#
# Velocity S-wave (km/s) = 3.55939 3.65712 3.60859
# Velocity P-wave (km/s) = 7.30783 7.38745 7.34775
#
# Compressibility (1/GPa) = 0.01585943
#
# Stress axis : x y z
#
# Youngs Moduli (GPa) = 46.14733 62.40807 67.57933
#
# Poissons Ratio (x) = 0.49050 0.57369
# Poissons Ratio (y) = 0.36270 0.13292
# Poissons Ratio (z) = 0.39175 0.12275
#
# Static dielectric constant tensor:
#      x y z
#    x 3.226380 0.000000 0.000000 
#    y 0.000000 3.220650 0.000000 
#    z 0.000000 0.000000 3.098140 
# 
# 
# High freq. dielectric constant tensor:
#      x y z
#    x 1.670840 0.000000 0.000000 
#    y 0.000000 1.663460 0.000000 
#    z 0.000000 0.000000 1.655340 
# 
# From -- ./inp_files/49839.got.cif
#   From: 2010.03.12/outbox.cif.g09.slc.cpg/sg65_25_cif.got.tgz:49839.got - 2010.04.10 20:52:16.
