data_PCOD8270514
_publ_section_title
;
Structure prediction by ZEFSAII (Michael W. Deem and Ramdas Pophale) SiO2 
 PCOD8270514
Probable space group: C M M M
;
_chemical_formula_sum "Si O2"
_cell_formula_units_Z 72
_cell_length_a 19.245874
_cell_length_b 9.009111
_cell_length_c 22.995567
_cell_angle_alpha 90.000000
_cell_angle_beta 90.000000
_cell_angle_gamma 90.000000
_cell_volume 3987.160319
_symmetry_space_group_name_H-M "C M M M"
_symmetry_group_IT_number 65
_symmetry_cell_setting 'orthorhombic'
loop_
_space_group_symop_operation_xyz
x,y,z
-x,-y,z
x,-y,-z
-x,y,-z
-x,-y,-z
x,y,-z
-x,y,z
x,-y,z
1/2+x,1/2+y,z
1/2-x,1/2-y,z
1/2+x,1/2-y,-z
1/2-x,1/2+y,-z
1/2-x,1/2-y,-z
1/2+x,1/2+y,-z
1/2-x,1/2+y,z
1/2+x,1/2-y,z
loop_
_atom_site_type_symbol
_atom_site_label
_atom_site_fract_x
_atom_site_fract_y
_atom_site_fract_z
Si Si1 0.417964 0.671070 0.844474
Si Si2 0.820878 0.327108 0.067713
Si Si3 0.417160 0.832395 0.500000
Si Si4 0.917120 0.167694 0.385546
Si Si5 0.582721 0.832437 0.728617
O O1 0.500000 0.689740 0.850354
O O2 0.395475 0.500000 0.844796
O O3 0.385035 0.755230 0.898806
O O4 0.390348 0.743627 0.784796
O O5 0.815921 0.500000 0.082403
O O6 0.750000 0.250000 0.088449
O O7 0.834353 0.297910 0.000000
O O8 0.500000 0.831628 0.500000
O O9 0.388527 0.749211 0.442969
O O10 0.388705 0.000000 0.500000
O O11 0.888002 0.252626 0.328997
O O12 0.000000 0.168538 0.385323
O O13 0.888773 0.000000 0.384909
O O14 0.500000 0.832411 0.727114
O O15 0.611582 0.000000 0.730890
#
# Coordination Sequence:
#
# PCOD8270514 Si02
#       5
#    16  16   8  16  16
#     4  10  20  33  50  73 100 129 162 200 241 286
#     4  10  21  37  56  76  99 128 161 197 239 288
#     4   9  15  21  29  43  65  97 140 185 226 271
#     4   9  15  22  32  47  70 102 141 184 229 276
#     4   9  16  26  40  58  82 113 149 189 233 280
#
# _framework density 18.057963000000001
#
# number of rings (size 3 to 8) (size 9 to 14) (size 15 to 20)
#    0.000    2.556    0.000    3.000    0.000    9.778 
#    0.000    2.222    0.000    0.000    0.000    0.000 
#    0.000    0.000    0.000    1.000    0.000   15.111 
#
# Total GULP energy -446441.469592 kJ/mol
# GULP energy per Si atom -12401.151933 kJ/mol
# Density = 1.801686 g / cm^3
# Si number density = 18.057963 Si / 1000 Ang^3
#
#
#
# Elastic Constant Matrix: (Units=GPa)
#
#
# Indices 1 2 3 4 5 6 
#
# 1 18.8438 28.3207 31.3301 0.0000 0.0000 0.0000
# 2 28.3207 179.1137 87.9836 0.0000 0.0000 0.0000
# 3 31.3301 87.9836 131.6585 0.0000 0.0000 0.0000
# 4 0.0000 0.0000 0.0000 42.3772 0.0000 0.0000
# 5 0.0000 0.0000 0.0000 0.0000 1.6390 0.0000
# 6 0.0000 0.0000 0.0000 0.0000 0.0000 18.5998
#
#
#
# Elastic Compliance Matrix: (Units=1/GPa)
#
#
# Indices 1 2 3 4 5 6 
#
# 1 0.091447 -0.005612 -0.018011 0.000000 0.000000 0.000000
# 2 -0.005612 0.008656 -0.004449 0.000000 0.000000 0.000000
# 3 -0.018011 -0.004449 0.014854 0.000000 0.000000 0.000000
# 4 0.000000 0.000000 0.000000 0.023598 0.000000 0.000000
# 5 0.000000 0.000000 0.000000 0.000000 0.610125 0.000000
# 6 0.000000 0.000000 0.000000 0.000000 0.000000 0.053764
#
#
# Mechanical properties :
#
#
# Convention : Reuss Voigt Hill
#
# Bulk Modulus (GPa) = 17.00279 69.43165 43.21722
# Shear Modulus (GPa) = 5.69351 24.65530 15.17441
#
# Velocity S-wave (km/s) = 1.77757 3.69906 2.90197
# Velocity P-wave (km/s) = 3.69447 7.53504 5.93405
#
# Compressibility (1/GPa) = 0.05881386
#
# Stress axis : x y z
#
# Youngs Moduli (GPa) = 10.93525 115.52953 67.31980
#
# Poissons Ratio (x) = 0.64836 1.21249
# Poissons Ratio (y) = 0.06137 0.29950
# Poissons Ratio (z) = 0.19695 0.51399
#
# Static dielectric constant tensor:
#      x y z
#    x 2.654120 0.000000 0.000000 
#    y 0.000000 3.607970 0.000000 
#    z 0.000000 0.000000 3.503030 
# 
# 
# High freq. dielectric constant tensor:
#      x y z
#    x 1.621270 0.000000 0.000000 
#    y 0.000000 1.723220 0.000000 
#    z 0.000000 0.000000 1.714970 
# 
# From -- ./inp_files/59233.got.cif
#   From: 2010.03.12/outbox.cif.g09.slc.cpg/sg65_30_cif.got.tgz:59233.got - 2010.04.10 20:52:16.
