data_PCOD8270480
_publ_section_title
;
Structure prediction by ZEFSAII (Michael W. Deem and Ramdas Pophale) SiO2 
 PCOD8270480
Probable space group: C M M M
;
_chemical_formula_sum "Si O2"
_cell_formula_units_Z 80
_cell_length_a 21.135714
_cell_length_b 28.043091
_cell_length_c 7.836092
_cell_angle_alpha 90.000000
_cell_angle_beta 90.000000
_cell_angle_gamma 90.000000
_cell_volume 4644.535975
_symmetry_space_group_name_H-M "C M M M"
_symmetry_group_IT_number 65
_symmetry_cell_setting 'orthorhombic'
loop_
_space_group_symop_operation_xyz
x,y,z
-x,-y,z
x,-y,-z
-x,y,-z
-x,-y,-z
x,y,-z
-x,y,z
x,-y,z
1/2+x,1/2+y,z
1/2-x,1/2-y,z
1/2+x,1/2-y,-z
1/2-x,1/2+y,-z
1/2-x,1/2-y,-z
1/2+x,1/2+y,-z
1/2-x,1/2+y,z
1/2+x,1/2-y,z
loop_
_atom_site_type_symbol
_atom_site_label
_atom_site_fract_x
_atom_site_fract_y
_atom_site_fract_z
Si Si1 0.702977 0.704419 0.500000
Si Si2 0.930970 0.423782 0.804320
Si Si3 0.900160 0.683068 0.807950
Si Si4 0.259313 0.152032 0.809698
Si Si5 0.569343 0.249499 0.500000
Si Si6 0.798465 0.552323 0.306897
O O1 0.750000 0.750000 0.500000
O O2 0.712039 0.672416 0.668726
O O3 0.628680 0.715377 0.500000
O O4 0.933905 0.367133 0.781623
O O5 0.875031 0.446314 0.693916
O O6 0.000000 0.443897 0.748448
O O7 0.916596 0.436991 0.000000
O O8 0.825601 0.677688 0.774525
O O9 0.928733 0.718595 0.671329
O O10 0.912497 0.702366 0.000000
O O11 0.267412 0.094599 0.802575
O O12 0.234201 0.164215 0.000000
O O13 0.500000 0.275381 0.500000
O O14 0.775875 0.559449 0.500000
O O15 0.776558 0.500000 0.239445
#
# Coordination Sequence:
#
# PCOD8270480 Si02
#       6
#     8  16  16  16   8  16
#     4  12  22  38  57  78 109 138 180 223 258 317
#     4   9  18  30  43  62  94 137 180 220 261 305
#     4   9  18  33  50  72 101 135 180 225 262 303
#     4  10  20  36  58  79 103 138 180 222 266 309
#     4  12  24  34  52  78 104 140 173 217 268 308
#     4  10  20  33  50  72 101 132 169 221 271 313
#
# _framework density 17.224540999999999
#
# number of rings (size 3 to 8) (size 9 to 14) (size 15 to 20)
#    0.000    2.000    3.000    2.400    4.200    4.800 
#    0.000    2.000    0.000    0.000    0.000    0.000 
#    0.000    1.600    0.000    1.800    0.000    0.000 
#
# Total GULP energy -495751.415253 kJ/mol
# GULP energy per Si atom -12393.785381 kJ/mol
# Density = 1.718534 g / cm^3
# Si number density = 17.224541 Si / 1000 Ang^3
#
#
#
# Elastic Constant Matrix: (Units=GPa)
#
#
# Indices 1 2 3 4 5 6 
#
# 1 78.9235 37.8820 32.8647 0.0000 0.0000 0.0000
# 2 37.8820 66.4541 35.4913 0.0000 0.0000 0.0000
# 3 32.8647 35.4913 97.0042 0.0000 0.0000 0.0000
# 4 0.0000 0.0000 0.0000 7.6040 0.0000 0.0000
# 5 0.0000 0.0000 0.0000 0.0000 5.2353 0.0000
# 6 0.0000 0.0000 0.0000 0.0000 0.0000 17.8364
#
#
#
# Elastic Compliance Matrix: (Units=1/GPa)
#
#
# Indices 1 2 3 4 5 6 
#
# 1 0.018088 -0.008748 -0.002928 0.000000 0.000000 0.000000
# 2 -0.008748 0.022933 -0.005427 0.000000 0.000000 0.000000
# 3 -0.002928 -0.005427 0.013286 0.000000 0.000000 0.000000
# 4 0.000000 0.000000 0.000000 0.131511 0.000000 0.000000
# 5 0.000000 0.000000 0.000000 0.000000 0.191011 0.000000
# 6 0.000000 0.000000 0.000000 0.000000 0.000000 0.056065
#
#
# Mechanical properties :
#
#
# Convention : Reuss Voigt Hill
#
# Bulk Modulus (GPa) = 49.74364 50.53973 50.14168
# Shear Modulus (GPa) = 10.55299 15.21139 12.88219
#
# Velocity S-wave (km/s) = 2.47791 2.97496 2.73774
# Velocity P-wave (km/s) = 6.09335 6.41918 6.25839
#
# Compressibility (1/GPa) = 0.02010307
#
# Stress axis : x y z
#
# Youngs Moduli (GPa) = 55.28424 43.60552 75.26554
#
# Poissons Ratio (x) = 0.38144 0.22036
# Poissons Ratio (y) = 0.48360 0.40846
# Poissons Ratio (z) = 0.16186 0.23664
#
# Static dielectric constant tensor:
#      x y z
#    x 3.008160 0.000000 0.000000 
#    y 0.000000 3.077360 0.000000 
#    z 0.000000 0.000000 3.328580 
# 
# 
# High freq. dielectric constant tensor:
#      x y z
#    x 1.616900 0.000000 0.000000 
#    y 0.000000 1.641550 0.000000 
#    z 0.000000 0.000000 1.680720 
# 
# From -- ./inp_files/11590.got.cif
#   From: 2010.03.12/outbox.cif.g09.slc.cpg/sg65_6_cif.got.tgz:11590.got - 2010.04.10 20:52:16.
