data_PCOD8270284
_publ_section_title
;
Structure prediction by ZEFSAII (Michael W. Deem and Ramdas Pophale) SiO2 
 PCOD8270284
Probable space group: C M M M
;
_chemical_formula_sum "Si O2"
_cell_formula_units_Z 88
_cell_length_a 27.265985
_cell_length_b 19.295109
_cell_length_c 8.932790
_cell_angle_alpha 90.000000
_cell_angle_beta 90.000000
_cell_angle_gamma 90.000000
_cell_volume 4699.542182
_symmetry_space_group_name_H-M "C M M M"
_symmetry_group_IT_number 65
_symmetry_cell_setting 'orthorhombic'
loop_
_space_group_symop_operation_xyz
x,y,z
-x,-y,z
x,-y,-z
-x,y,-z
-x,-y,-z
x,y,-z
-x,y,z
x,-y,z
1/2+x,1/2+y,z
1/2-x,1/2-y,z
1/2+x,1/2-y,-z
1/2-x,1/2+y,-z
1/2-x,1/2-y,-z
1/2+x,1/2+y,-z
1/2-x,1/2+y,z
1/2+x,1/2-y,z
loop_
_atom_site_type_symbol
_atom_site_label
_atom_site_fract_x
_atom_site_fract_y
_atom_site_fract_z
Si Si1 0.407111 0.845974 0.177885
Si Si2 0.882141 0.192887 0.176290
Si Si3 0.500000 0.919409 0.677237
Si Si4 0.191338 0.577319 0.821958
Si Si5 0.226634 0.820745 0.178444
Si Si6 0.942346 0.077750 0.669649
O O1 0.403031 0.766422 0.234048
O O2 0.452367 0.882364 0.257408
O O3 0.357634 0.883909 0.231309
O O4 0.414569 0.850948 0.000000
O O5 0.828488 0.174948 0.243505
O O6 0.918408 0.131595 0.218228
O O7 0.877444 0.197974 0.000000
O O8 0.500000 0.911165 0.500000
O O9 0.500000 0.000000 0.725328
O O10 0.191480 0.500000 0.754911
O O11 0.239886 0.616225 0.760865
O O12 0.192344 0.575845 0.000000
O O13 0.250000 0.750000 0.238159
O O14 0.226085 0.821486 0.000000
O O15 0.927269 0.095908 0.500000
O O16 0.000000 0.083262 0.690099
O O17 0.924768 0.000000 0.710185
#
# Coordination Sequence:
#
# PCOD8270284 Si02
#       6
#    16  16   8  16  16  16
#     4  10  20  35  55  81 110 141 177 219 267 318
#     4  10  20  32  54  85 113 139 172 219 270 317
#     4  11  25  41  55  75 106 143 182 227 275 318
#     4   9  16  27  48  76 104 140 181 213 251 310
#     4   9  15  28  47  72 110 143 166 206 263 312
#     4   9  20  39  58  75 102 143 184 219 262 318
#
# _framework density 18.725228000000001
#
# number of rings (size 3 to 8) (size 9 to 14) (size 15 to 20)
#    0.000    2.455    1.818    1.364    1.273    3.636 
#    0.000    2.727    0.000    1.636    0.000    2.545 
#    0.000    0.000    0.000    0.000    0.000    0.000 
#
# Total GULP energy -545501.378229 kJ/mol
# GULP energy per Si atom -12397.758596 kJ/mol
# Density = 1.868261 g / cm^3
# Si number density = 18.725228 Si / 1000 Ang^3
#
#
#
# Elastic Constant Matrix: (Units=GPa)
#
#
# Indices 1 2 3 4 5 6 
#
# 1 123.5200 83.9740 29.0017 0.0000 0.0000 0.0000
# 2 83.9740 166.1087 24.1527 0.0000 0.0000 0.0000
# 3 29.0017 24.1527 19.3420 0.0000 0.0000 0.0000
# 4 0.0000 0.0000 0.0000 19.7150 0.0000 0.0000
# 5 0.0000 0.0000 0.0000 0.0000 -3.4008 0.0000
# 6 0.0000 0.0000 0.0000 0.0000 0.0000 37.9874
#
#
#
# Elastic Compliance Matrix: (Units=1/GPa)
#
#
# Indices 1 2 3 4 5 6 
#
# 1 0.015809 -0.005554 -0.016769 0.000000 0.000000 0.000000
# 2 -0.005554 0.009307 -0.003294 0.000000 0.000000 0.000000
# 3 -0.016769 -0.003294 0.080958 0.000000 0.000000 0.000000
# 4 0.000000 0.000000 0.000000 0.050723 0.000000 0.000000
# 5 0.000000 0.000000 0.000000 0.000000 -0.294048 0.000000
# 6 0.000000 0.000000 0.000000 0.000000 0.000000 0.026325
#
#
# Mechanical properties :
#
#
# Convention : Reuss Voigt Hill
#
# Bulk Modulus (GPa) = 18.23485 64.80305 41.51895
# Shear Modulus (GPa) = -120.73329 22.31648 -49.20840
#
# Velocity S-wave (km/s) = -8.03842 3.45597 -5.13189
# Velocity P-wave (km/s) = 8.74047 7.11389 3.59084
#
# Compressibility (1/GPa) = 0.05484005
#
# Stress axis : x y z
#
# Youngs Moduli (GPa) = 63.25641 107.44945 12.35204
#
# Poissons Ratio (x) = 0.59673 0.20713
# Poissons Ratio (y) = 0.35130 0.04069
# Poissons Ratio (z) = 1.06074 0.35397
#
# Static dielectric constant tensor:
#      x y z
#    x 3.619370 0.000000 0.000000 
#    y 0.000000 3.706590 0.000000 
#    z 0.000000 0.000000 2.934760 
# 
# 
# High freq. dielectric constant tensor:
#      x y z
#    x 1.739280 0.000000 0.000000 
#    y 0.000000 1.742820 0.000000 
#    z 0.000000 0.000000 1.674560 
# 
# From -- ./inp_files/18294.got.cif
#   From: 2010.03.12/outbox.cif.g09.slc.cpg/sg65_10_cif.got.tgz:18294.got - 2010.04.10 20:52:16.
