data_PCOD8270884
_publ_section_title
;
Structure prediction by ZEFSAII (Michael W. Deem and Ramdas Pophale) SiO2 
 PCOD8270884
Probable space group: C M M M
;
_chemical_formula_sum "Si O2"
_cell_formula_units_Z 72
_cell_length_a 17.929934
_cell_length_b 22.464938
_cell_length_c 8.752818
_cell_angle_alpha 90.000000
_cell_angle_beta 90.000000
_cell_angle_gamma 90.000000
_cell_volume 3525.590063
_symmetry_space_group_name_H-M "C M M M"
_symmetry_group_IT_number 65
_symmetry_cell_setting 'orthorhombic'
loop_
_space_group_symop_operation_xyz
x,y,z
-x,-y,z
x,-y,-z
-x,y,-z
-x,-y,-z
x,y,-z
-x,y,z
x,-y,z
1/2+x,1/2+y,z
1/2-x,1/2-y,z
1/2+x,1/2-y,-z
1/2-x,1/2+y,-z
1/2-x,1/2-y,-z
1/2+x,1/2+y,-z
1/2-x,1/2+y,z
1/2+x,1/2-y,z
loop_
_atom_site_type_symbol
_atom_site_label
_atom_site_fract_x
_atom_site_fract_y
_atom_site_fract_z
Si Si1 0.585614 0.500000 0.819095
Si Si2 0.582207 0.260628 0.680713
Si Si3 0.345575 0.381736 0.680392
Si Si4 0.913881 0.567692 0.828648
Si Si5 0.186096 0.341724 0.322878
O O1 0.500000 0.500000 0.759147
O O2 0.628555 0.558122 0.760769
O O3 0.587643 0.500000 0.000000
O O4 0.582426 0.251579 0.500000
O O5 0.500000 0.243748 0.746101
O O6 0.596702 0.329372 0.721387
O O7 0.646789 0.217359 0.749972
O O8 0.341019 0.394146 0.500000
O O9 0.266174 0.358871 0.748317
O O10 0.887263 0.500000 0.818267
O O11 0.868868 0.603437 0.702443
O O12 0.000000 0.573443 0.786804
O O13 0.898613 0.592016 0.000000
O O14 0.199503 0.329952 0.500000
#
# Coordination Sequence:
#
# PCOD8270884 Si02
#       5
#     8  16  16  16  16
#     4  11  25  43  61  83 112 147 190 239 283 322
#     4   9  17  32  56  84 114 149 185 225 277 333
#     4  10  21  37  59  86 116 149 186 228 279 339
#     4   9  19  35  52  72 104 149 195 233 275 331
#     4  10  20  33  54  85 117 143 180 231 281 330
#
# _framework density 20.422114000000001
#
# number of rings (size 3 to 8) (size 9 to 14) (size 15 to 20)
#    0.000    2.333    0.000    3.000    1.556    7.111 
#    0.000    2.222    0.000    6.667    0.000    0.000 
#    0.000    0.000    0.000    0.000    0.000    0.000 
#
# Total GULP energy -446229.617111 kJ/mol
# GULP energy per Si atom -12395.267142 kJ/mol
# Density = 2.037563 g / cm^3
# Si number density = 20.422114 Si / 1000 Ang^3
#
#
#
# Elastic Constant Matrix: (Units=GPa)
#
#
# Indices 1 2 3 4 5 6 
#
# 1 135.4677 87.9443 20.6456 0.0000 0.0000 0.0000
# 2 87.9443 135.3710 23.1225 0.0000 0.0000 0.0000
# 3 20.6456 23.1225 21.7706 0.0000 0.0000 0.0000
# 4 0.0000 0.0000 0.0000 3.4992 0.0000 0.0000
# 5 0.0000 0.0000 0.0000 0.0000 21.5373 0.0000
# 6 0.0000 0.0000 0.0000 0.0000 0.0000 27.0094
#
#
#
# Elastic Compliance Matrix: (Units=1/GPa)
#
#
# Indices 1 2 3 4 5 6 
#
# 1 0.013062 -0.007782 -0.004122 0.000000 0.000000 0.000000
# 2 -0.007782 0.013660 -0.007129 0.000000 0.000000 0.000000
# 3 -0.004122 -0.007129 0.057414 0.000000 0.000000 0.000000
# 4 0.000000 0.000000 0.000000 0.285777 0.000000 0.000000
# 5 0.000000 0.000000 0.000000 0.000000 0.046431 0.000000
# 6 0.000000 0.000000 0.000000 0.000000 0.000000 0.037024
#
#
# Mechanical properties :
#
#
# Convention : Reuss Voigt Hill
#
# Bulk Modulus (GPa) = 21.70566 61.78158 41.74362
# Shear Modulus (GPa) = 9.86602 21.13564 15.50083
#
# Velocity S-wave (km/s) = 2.20035 3.22054 2.75802
# Velocity P-wave (km/s) = 4.13606 6.64433 5.53417
#
# Compressibility (1/GPa) = 0.04607093
#
# Stress axis : x y z
#
# Youngs Moduli (GPa) = 76.55964 73.20607 17.41734
#
# Poissons Ratio (x) = 0.56965 0.07179
# Poissons Ratio (y) = 0.59575 0.12417
# Poissons Ratio (z) = 0.31558 0.52188
#
# Static dielectric constant tensor:
#      x y z
#    x 4.010910 0.000000 0.000000 
#    y 0.000000 3.766270 0.000000 
#    z 0.000000 0.000000 3.259570 
# 
# 
# High freq. dielectric constant tensor:
#      x y z
#    x 1.813420 0.000000 0.000000 
#    y 0.000000 1.809920 0.000000 
#    z 0.000000 0.000000 1.749390 
# 
# From -- ./inp_files/9258.got.cif
#   From: 2010.03.12/outbox.cif.g09.slc.cpg/sg65_5_cif.got.tgz:9258.got - 2010.04.10 20:52:16.
