data_PCOD8270048
_publ_section_title
;
Structure prediction by ZEFSAII (Michael W. Deem and Ramdas Pophale) SiO2 
 PCOD8270048
Probable space group: C M M M
;
_chemical_formula_sum "Si O2"
_cell_formula_units_Z 120
_cell_length_a 31.136513
_cell_length_b 15.686249
_cell_length_c 14.087615
_cell_angle_alpha 90.000000
_cell_angle_beta 90.000000
_cell_angle_gamma 90.000000
_cell_volume 6880.603831
_symmetry_space_group_name_H-M "C M M M"
_symmetry_group_IT_number 65
_symmetry_cell_setting 'orthorhombic'
loop_
_space_group_symop_operation_xyz
x,y,z
-x,-y,z
x,-y,-z
-x,y,-z
-x,-y,-z
x,y,-z
-x,y,z
x,-y,z
1/2+x,1/2+y,z
1/2-x,1/2-y,z
1/2+x,1/2-y,-z
1/2-x,1/2+y,-z
1/2-x,1/2-y,-z
1/2+x,1/2+y,-z
1/2-x,1/2+y,z
1/2+x,1/2-y,z
loop_
_atom_site_type_symbol
_atom_site_label
_atom_site_fract_x
_atom_site_fract_y
_atom_site_fract_z
Si Si1 0.550236 0.840010 0.232175
Si Si2 0.665924 0.094895 0.890323
Si Si3 0.748694 0.847388 0.788738
Si Si4 0.890464 0.599124 0.609027
Si Si5 0.207420 0.600044 0.393043
Si Si6 0.668827 0.596194 0.892109
Si Si7 0.893021 0.247790 0.110016
Si Si8 0.050468 0.500000 0.105816
O O1 0.500000 0.838699 0.255429
O O2 0.575945 0.845890 0.330540
O O3 0.564145 0.754312 0.175000
O O4 0.564492 0.916844 0.163085
O O5 0.710891 0.099616 0.836807
O O6 0.635780 0.171695 0.856293
O O7 0.645561 0.000000 0.870147
O O8 0.676673 0.106730 0.000000
O O9 0.750000 0.750000 0.823504
O O10 0.741198 0.852196 0.675269
O O11 0.793001 0.891309 0.817863
O O12 0.896835 0.625443 0.500000
O O13 0.901014 0.500000 0.623410
O O14 0.841525 0.618787 0.640590
O O15 0.214552 0.633930 0.500000
O O16 0.216229 0.500000 0.389194
O O17 0.651290 0.500000 0.883239
O O18 0.630200 0.659464 0.865831
O O19 0.684755 0.615123 0.000000
O O20 0.905808 0.253845 0.000000
O O21 0.000000 0.500000 0.092106
O O22 0.072288 0.500000 0.000000
#
# Coordination Sequence:
#
# PCOD8270048 Si02
#       8
#    16  16  16  16  16  16  16   8
#     4  11  21  32  49  73 101 136 173 210 259 315
#     4  10  20  32  47  70 102 139 174 205 240 291
#     4  12  21  30  50  76 104 135 170 216 261 302
#     4   9  18  33  52  73 100 137 179 217 250 294
#     4   9  19  35  52  70  97 137 179 213 249 300
#     4  10  21  37  55  75 102 137 176 219 264 305
#     4  10  21  35  51  73 102 136 176 215 254 305
#     4   9  18  30  43  67 103 139 168 194 235 301
#
# _framework density 17.440329999999999
#
# number of rings (size 3 to 8) (size 9 to 14) (size 15 to 20)
#    0.000    1.933    2.000    3.600    0.933    4.000 
#    0.000    0.667    0.000    0.400    0.000    1.867 
#    0.000    0.000    0.000    1.200    0.000    0.000 
#
# Total GULP energy -744002.325133 kJ/mol
# GULP energy per Si atom -12400.038752 kJ/mol
# Density = 1.740063 g / cm^3
# Si number density = 17.440330 Si / 1000 Ang^3
#
#
#
# Elastic Constant Matrix: (Units=GPa)
#
#
# Indices 1 2 3 4 5 6 
#
# 1 65.1501 32.4281 45.3517 0.0000 0.0000 0.0000
# 2 32.4281 88.4687 26.4035 0.0000 0.0000 0.0000
# 3 45.3517 26.4035 78.4669 0.0000 0.0000 0.0000
# 4 0.0000 0.0000 0.0000 -7.4121 0.0000 0.0000
# 5 0.0000 0.0000 0.0000 0.0000 26.8093 0.0000
# 6 0.0000 0.0000 0.0000 0.0000 0.0000 22.2041
#
#
#
# Elastic Compliance Matrix: (Units=1/GPa)
#
#
# Indices 1 2 3 4 5 6 
#
# 1 0.028381 -0.006122 -0.014343 0.000000 0.000000 0.000000
# 2 -0.006122 0.013886 -0.001134 0.000000 0.000000 0.000000
# 3 -0.014343 -0.001134 0.021416 0.000000 0.000000 0.000000
# 4 0.000000 0.000000 0.000000 -0.134914 0.000000 0.000000
# 5 0.000000 0.000000 0.000000 0.000000 0.037300 0.000000
# 6 0.000000 0.000000 0.000000 0.000000 0.000000 0.045037
#
#
# Mechanical properties :
#
#
# Convention : Reuss Voigt Hill
#
# Bulk Modulus (GPa) = 48.81951 48.93915 48.87933
# Shear Modulus (GPa) = 81.78847 16.84710 49.31778
#
# Velocity S-wave (km/s) = 6.85551 3.11140 5.32348
# Velocity P-wave (km/s) = 9.52455 6.40543 8.11624
#
# Compressibility (1/GPa) = 0.02048361
#
# Stress axis : x y z
#
# Youngs Moduli (GPa) = 35.23474 72.01510 46.69427
#
# Poissons Ratio (x) = 0.44089 0.66975
# Poissons Ratio (y) = 0.21572 0.05295
# Poissons Ratio (z) = 0.50539 0.08167
#
# Static dielectric constant tensor:
#      x y z
#    x 3.111920 0.000000 0.000000 
#    y 0.000000 3.134140 0.000000 
#    z 0.000000 0.000000 3.362130 
# 
# 
# High freq. dielectric constant tensor:
#      x y z
#    x 1.658390 0.000000 0.000000 
#    y 0.000000 1.645680 0.000000 
#    z 0.000000 0.000000 1.677810 
# 
# From -- ./inp_files/48080.got.cif
#   From: 2010.03.12/outbox.cif.g09.slc.cpg/sg65_25_cif.got.tgz:48080.got - 2010.04.10 20:52:16.
