data_PCOD8270567
_publ_section_title
;
Structure prediction by ZEFSAII (Michael W. Deem and Ramdas Pophale) SiO2 
 PCOD8270567
Probable space group: C M M M
;
_chemical_formula_sum "Si O2"
_cell_formula_units_Z 80
_cell_length_a 18.623870
_cell_length_b 9.052266
_cell_length_c 25.703248
_cell_angle_alpha 90.000000
_cell_angle_beta 90.000000
_cell_angle_gamma 90.000000
_cell_volume 4333.264962
_symmetry_space_group_name_H-M "C M M M"
_symmetry_group_IT_number 65
_symmetry_cell_setting 'orthorhombic'
loop_
_space_group_symop_operation_xyz
x,y,z
-x,-y,z
x,-y,-z
-x,y,-z
-x,-y,-z
x,y,-z
-x,y,z
x,-y,z
1/2+x,1/2+y,z
1/2-x,1/2-y,z
1/2+x,1/2-y,-z
1/2-x,1/2+y,-z
1/2-x,1/2-y,-z
1/2+x,1/2+y,-z
1/2-x,1/2+y,z
1/2+x,1/2-y,z
loop_
_atom_site_type_symbol
_atom_site_label
_atom_site_fract_x
_atom_site_fract_y
_atom_site_fract_z
Si Si1 0.915794 0.829577 0.087262
Si Si2 0.825996 0.825130 0.701481
Si Si3 0.582383 0.672599 0.397819
Si Si4 0.827058 0.674931 0.000000
Si Si5 0.420707 0.674574 0.795501
Si Si6 0.585414 0.833248 0.500000
O O1 0.895015 0.786056 0.146298
O O2 0.000000 0.804038 0.077320
O O3 0.896091 0.000000 0.075559
O O4 0.870462 0.722888 0.050915
O O5 0.750000 0.750000 0.696227
O O6 0.873279 0.776992 0.652288
O O7 0.864698 0.762725 0.753429
O O8 0.816136 0.000000 0.704136
O O9 0.500000 0.717755 0.387715
O O10 0.589490 0.500000 0.408479
O O11 0.614953 0.754248 0.448231
O O12 0.750000 0.750000 0.000000
O O13 0.817582 0.500000 0.000000
O O14 0.500000 0.742274 0.785159
O O15 0.426560 0.500000 0.789351
O O16 0.500000 0.822802 0.500000
O O17 0.613635 0.000000 0.500000
#
# Coordination Sequence:
#
# PCOD8270567 Si02
#       6
#    16  16  16   8  16   8
#     4   9  18  35  59  83 107 136 171 212 259 311
#     4  10  20  33  50  74 104 135 167 204 248 297
#     4   9  17  31  52  74  96 127 168 208 243 289
#     4  12  25  38  53  75 107 143 179 218 259 306
#     4   8  15  31  56  81 102 130 170 210 247 294
#     4   9  17  29  48  75 102 125 155 203 258 301
#
# _framework density 18.461829999999999
#
# number of rings (size 3 to 8) (size 9 to 14) (size 15 to 20)
#    0.000    2.700    0.000    3.300    0.000    6.800 
#    0.000    3.500    0.000    3.000    0.000    0.000 
#    0.000    0.000    0.000    0.000    0.000    0.000 
#
# Total GULP energy -495963.340084 kJ/mol
# GULP energy per Si atom -12399.083502 kJ/mol
# Density = 1.841981 g / cm^3
# Si number density = 18.461830 Si / 1000 Ang^3
#
#
#
# Elastic Constant Matrix: (Units=GPa)
#
#
# Indices 1 2 3 4 5 6 
#
# 1 103.1903 48.0653 84.5367 0.0000 0.0000 0.0000
# 2 48.0653 67.9965 62.6600 0.0000 0.0000 0.0000
# 3 84.5367 62.6600 176.5299 0.0000 0.0000 0.0000
# 4 0.0000 0.0000 0.0000 18.4168 0.0000 0.0000
# 5 0.0000 0.0000 0.0000 0.0000 2.6959 0.0000
# 6 0.0000 0.0000 0.0000 0.0000 0.0000 27.8789
#
#
#
# Elastic Compliance Matrix: (Units=1/GPa)
#
#
# Indices 1 2 3 4 5 6 
#
# 1 0.017992 -0.007101 -0.006095 0.000000 0.000000 0.000000
# 2 -0.007101 0.024658 -0.005352 0.000000 0.000000 0.000000
# 3 -0.006095 -0.005352 0.010483 0.000000 0.000000 0.000000
# 4 0.000000 0.000000 0.000000 0.054298 0.000000 0.000000
# 5 0.000000 0.000000 0.000000 0.000000 0.370930 0.000000
# 6 0.000000 0.000000 0.000000 0.000000 0.000000 0.035869
#
#
# Mechanical properties :
#
#
# Convention : Reuss Voigt Hill
#
# Bulk Modulus (GPa) = 62.35722 82.02676 72.19199
# Shear Modulus (GPa) = 8.98191 19.96198 14.47195
#
# Velocity S-wave (km/s) = 2.20810 3.29181 2.80283
# Velocity P-wave (km/s) = 6.35221 7.67952 7.04718
#
# Compressibility (1/GPa) = 0.01603664
#
# Stress axis : x y z
#
# Youngs Moduli (GPa) = 55.57995 40.55445 95.38838
#
# Poissons Ratio (x) = 0.28798 0.58144
# Poissons Ratio (y) = 0.39468 0.51051
# Poissons Ratio (z) = 0.33879 0.21704
#
# Static dielectric constant tensor:
#      x y z
#    x 3.319280 0.000000 0.000000 
#    y 0.000000 3.118300 0.000000 
#    z 0.000000 0.000000 3.711450 
# 
# 
# High freq. dielectric constant tensor:
#      x y z
#    x 1.701940 0.000000 0.000000 
#    y 0.000000 1.686920 0.000000 
#    z 0.000000 0.000000 1.735440 
# 
# From -- ./inp_files/70815.got.cif
#   From: 2010.03.12/outbox.cif.g09.slc.cpg/sg65_36_cif.got.tgz:70815.got - 2010.04.10 20:52:16.
