data_PCOD8270385
_publ_section_title
;
Structure prediction by ZEFSAII (Michael W. Deem and Ramdas Pophale) SiO2 
 PCOD8270385
Probable space group: C M M M
;
_chemical_formula_sum "Si O2"
_cell_formula_units_Z 80
_cell_length_a 18.488622
_cell_length_b 9.435076
_cell_length_c 25.873327
_cell_angle_alpha 90.000000
_cell_angle_beta 90.000000
_cell_angle_gamma 90.000000
_cell_volume 4513.383361
_symmetry_space_group_name_H-M "C M M M"
_symmetry_group_IT_number 65
_symmetry_cell_setting 'orthorhombic'
loop_
_space_group_symop_operation_xyz
x,y,z
-x,-y,z
x,-y,-z
-x,y,-z
-x,-y,-z
x,y,-z
-x,y,z
x,-y,z
1/2+x,1/2+y,z
1/2-x,1/2-y,z
1/2+x,1/2-y,-z
1/2-x,1/2+y,-z
1/2-x,1/2-y,-z
1/2+x,1/2+y,-z
1/2-x,1/2+y,z
1/2+x,1/2-y,z
loop_
_atom_site_type_symbol
_atom_site_label
_atom_site_fract_x
_atom_site_fract_y
_atom_site_fract_z
Si Si1 0.913909 0.842059 0.094800
Si Si2 0.823505 0.833593 0.697349
Si Si3 0.583766 0.662906 0.402801
Si Si4 0.086404 0.659312 0.000000
Si Si5 0.419522 0.668489 0.791350
Si Si6 0.586067 0.839622 0.500000
O O1 0.890764 0.786007 0.151723
O O2 0.000000 0.847878 0.092536
O O3 0.883067 0.000000 0.084570
O O4 0.883075 0.737465 0.051013
O O5 0.750000 0.750000 0.690816
O O6 0.873215 0.798507 0.648557
O O7 0.864517 0.774764 0.748142
O O8 0.807151 0.000000 0.701832
O O9 0.500000 0.695282 0.391563
O O10 0.594749 0.500000 0.419093
O O11 0.614746 0.759607 0.449067
O O12 0.116525 0.500000 0.000000
O O13 0.000000 0.661081 0.000000
O O14 0.500000 0.731215 0.781207
O O15 0.424560 0.500000 0.788660
O O16 0.500000 0.835498 0.500000
O O17 0.615810 0.000000 0.500000
#
# Coordination Sequence:
#
# PCOD8270385 Si02
#       6
#    16  16  16   8  16   8
#     4   8  13  22  38  59  82 110 146 185 221 260
#     4  10  20  33  49  70  96 124 154 190 233 277
#     4   9  17  31  52  74  95 123 159 193 223 264
#     4   9  15  21  31  53  88 121 142 169 219 277
#     4   8  14  27  48  70  89 115 156 198 228 262
#     4   9  17  29  48  75 102 123 147 187 236 277
#
# _framework density 17.725062999999999
#
# number of rings (size 3 to 8) (size 9 to 14) (size 15 to 20)
#    0.000    3.200    0.000    2.400    0.000    5.600 
#    0.000    1.500    0.000    3.000    0.000    0.700 
#    0.000    0.000    0.000    0.000    0.000    0.000 
#
# Total GULP energy -495842.564979 kJ/mol
# GULP energy per Si atom -12396.064124 kJ/mol
# Density = 1.768472 g / cm^3
# Si number density = 17.725063 Si / 1000 Ang^3
#
#
#
# Elastic Constant Matrix: (Units=GPa)
#
#
# Indices 1 2 3 4 5 6 
#
# 1 55.8915 34.4097 51.9457 0.0000 0.0000 0.0000
# 2 34.4097 86.2378 79.9474 0.0000 0.0000 0.0000
# 3 51.9457 79.9474 180.0443 0.0000 0.0000 0.0000
# 4 0.0000 0.0000 0.0000 15.9356 0.0000 0.0000
# 5 0.0000 0.0000 0.0000 0.0000 0.9688 0.0000
# 6 0.0000 0.0000 0.0000 0.0000 0.0000 18.4196
#
#
#
# Elastic Compliance Matrix: (Units=1/GPa)
#
#
# Indices 1 2 3 4 5 6 
#
# 1 0.026063 -0.005827 -0.004932 0.000000 0.000000 0.000000
# 2 -0.005827 0.021012 -0.007649 0.000000 0.000000 0.000000
# 3 -0.004932 -0.007649 0.010374 0.000000 0.000000 0.000000
# 4 0.000000 0.000000 0.000000 0.062752 0.000000 0.000000
# 5 0.000000 0.000000 0.000000 0.000000 1.032228 0.000000
# 6 0.000000 0.000000 0.000000 0.000000 0.000000 0.054290
#
#
# Mechanical properties :
#
#
# Convention : Reuss Voigt Hill
#
# Bulk Modulus (GPa) = 48.46750 72.75325 60.61037
# Shear Modulus (GPa) = 3.99868 17.45617 10.72743
#
# Velocity S-wave (km/s) = 1.50361 3.14160 2.46278
# Velocity P-wave (km/s) = 5.51524 7.36845 6.50815
#
# Compressibility (1/GPa) = 0.02063238
#
# Stress axis : x y z
#
# Youngs Moduli (GPa) = 38.36816 47.59188 96.39744
#
# Poissons Ratio (x) = 0.27732 0.47545
# Poissons Ratio (y) = 0.22357 0.73735
# Poissons Ratio (z) = 0.18924 0.36403
#
# Static dielectric constant tensor:
#      x y z
#    x 2.859850 0.000000 0.000000 
#    y 0.000000 3.178610 0.000000 
#    z 0.000000 0.000000 3.676540 
# 
# 
# High freq. dielectric constant tensor:
#      x y z
#    x 1.633960 0.000000 0.000000 
#    y 0.000000 1.662170 0.000000 
#    z 0.000000 0.000000 1.705920 
# 
# From -- ./inp_files/70817.got.cif
#   From: 2010.03.12/outbox.cif.g09.slc.cpg/sg65_36_cif.got.tgz:70817.got - 2010.04.10 20:52:16.
