data_PCOD8270968
_publ_section_title
;
Structure prediction by ZEFSAII (Michael W. Deem and Ramdas Pophale) SiO2 
 PCOD8270968
Probable space group: C M M M
;
_chemical_formula_sum "Si O2"
_cell_formula_units_Z 104
_cell_length_a 25.014874
_cell_length_b 8.916032
_cell_length_c 27.308908
_cell_angle_alpha 90.000000
_cell_angle_beta 90.000000
_cell_angle_gamma 90.000000
_cell_volume 6090.799067
_symmetry_space_group_name_H-M "C M M M"
_symmetry_group_IT_number 65
_symmetry_cell_setting 'orthorhombic'
loop_
_space_group_symop_operation_xyz
x,y,z
-x,-y,z
x,-y,-z
-x,y,-z
-x,-y,-z
x,y,-z
-x,y,z
x,-y,z
1/2+x,1/2+y,z
1/2-x,1/2-y,z
1/2+x,1/2-y,-z
1/2-x,1/2+y,-z
1/2-x,1/2-y,-z
1/2+x,1/2+y,-z
1/2-x,1/2+y,z
1/2+x,1/2-y,z
loop_
_atom_site_type_symbol
_atom_site_label
_atom_site_fract_x
_atom_site_fract_y
_atom_site_fract_z
Si Si1 0.000000 0.333297 0.292576
Si Si2 0.561256 0.825325 0.056005
Si Si3 0.412071 0.828255 0.372379
Si Si4 0.606296 0.677963 0.854598
Si Si5 0.000000 0.680210 0.444425
Si Si6 0.694364 0.177090 0.787153
Si Si7 0.194084 0.677778 0.675045
Si Si8 0.500000 0.674692 0.805257
O O1 0.946971 0.311066 0.323930
O O2 0.000000 0.500000 0.269181
O O3 0.000000 0.207415 0.251948
O O4 0.500000 0.774155 0.065526
O O5 0.602668 0.729966 0.088940
O O6 0.567685 0.000000 0.068182
O O7 0.576878 0.792746 0.000000
O O8 0.445996 0.756526 0.417698
O O9 0.353524 0.757947 0.360386
O O10 0.402282 0.000000 0.385709
O O11 0.613248 0.500000 0.851247
O O12 0.653438 0.756450 0.825713
O O13 0.552598 0.742530 0.829776
O O14 0.000000 0.500000 0.440151
O O15 0.000000 0.737448 0.500000
O O16 0.750000 0.250000 0.801704
O O17 0.679752 0.221185 0.731088
O O18 0.697518 0.000000 0.793450
O O19 0.199349 0.500000 0.670007
O O20 0.250000 0.750000 0.658178
O O21 0.500000 0.500000 0.814186
#
# Coordination Sequence:
#
# PCOD8270968 Si02
#       8
#     8  16  16  16   8  16  16   8
#     4   9  16  27  44  62  84 117 152 187 230 281
#     4   9  18  33  52  73  96 123 159 201 241 284
#     4   8  14  25  41  63  89 116 151 194 235 276
#     4  11  21  33  48  70 100 130 158 192 236 286
#     4   8  13  22  40  66  93 120 151 192 242 286
#     4  10  20  34  51  71  94 126 164 199 236 281
#     4   9  17  29  45  65  91 122 156 192 230 273
#     4  10  21  31  40  65 102 130 152 187 234 278
#
# _framework density 17.074935
#
# number of rings (size 3 to 8) (size 9 to 14) (size 15 to 20)
#    0.000    2.692    0.769    3.231    0.000    3.385 
#    0.000    1.538    0.000    0.923    0.000    0.000 
#    0.000   10.462    0.000    0.000    0.000    0.000 
#
# Total GULP energy -644455.729838 kJ/mol
# GULP energy per Si atom -12393.379420 kJ/mol
# Density = 1.703607 g / cm^3
# Si number density = 17.074935 Si / 1000 Ang^3
#
#
#
# Elastic Constant Matrix: (Units=GPa)
#
#
# Indices 1 2 3 4 5 6 
#
# 1 143.8435 35.3784 70.5529 0.0000 0.0000 0.0000
# 2 35.3784 38.8022 27.5617 0.0000 0.0000 0.0000
# 3 70.5529 27.5617 105.1380 0.0000 0.0000 0.0000
# 4 0.0000 0.0000 0.0000 14.1731 0.0000 0.0000
# 5 0.0000 0.0000 0.0000 0.0000 31.3810 0.0000
# 6 0.0000 0.0000 0.0000 0.0000 0.0000 23.6396
#
#
#
# Elastic Compliance Matrix: (Units=1/GPa)
#
#
# Indices 1 2 3 4 5 6 
#
# 1 0.011432 -0.006112 -0.006069 0.000000 0.000000 0.000000
# 2 -0.006112 0.034937 -0.005057 0.000000 0.000000 0.000000
# 3 -0.006069 -0.005057 0.014910 0.000000 0.000000 0.000000
# 4 0.000000 0.000000 0.000000 0.070556 0.000000 0.000000
# 5 0.000000 0.000000 0.000000 0.000000 0.031866 0.000000
# 6 0.000000 0.000000 0.000000 0.000000 0.000000 0.042302
#
#
# Mechanical properties :
#
#
# Convention : Reuss Voigt Hill
#
# Bulk Modulus (GPa) = 37.31114 61.64110 49.47612
# Shear Modulus (GPa) = 20.04701 24.12480 22.08590
#
# Velocity S-wave (km/s) = 3.43017 3.76290 3.60039
# Velocity P-wave (km/s) = 6.13082 7.42011 6.80606
#
# Compressibility (1/GPa) = 0.02680164
#
# Stress axis : x y z
#
# Youngs Moduli (GPa) = 87.47217 28.62318 67.07035
#
# Poissons Ratio (x) = 0.17496 0.40707
# Poissons Ratio (y) = 0.53466 0.33917
# Poissons Ratio (z) = 0.53089 0.14474
#
# Static dielectric constant tensor:
#      x y z
#    x 3.169820 0.000000 0.000000 
#    y 0.000000 2.936980 0.000000 
#    z 0.000000 0.000000 3.146870 
# 
# 
# High freq. dielectric constant tensor:
#      x y z
#    x 1.656210 0.000000 0.000000 
#    y 0.000000 1.634580 0.000000 
#    z 0.000000 0.000000 1.645750 
# 
# From -- ./inp_files/78313.got.cif
#   From: 2010.03.12/outbox.cif.g09.slc.cpg/sg65_40_cif.got.tgz:78313.got - 2010.04.10 20:52:16.
