data_PCOD8270387
_publ_section_title
;
Structure prediction by ZEFSAII (Michael W. Deem and Ramdas Pophale) SiO2 
 PCOD8270387
Probable space group: C M M M
;
_chemical_formula_sum "Si O2"
_cell_formula_units_Z 88
_cell_length_a 19.300103
_cell_length_b 9.154717
_cell_length_c 27.964886
_cell_angle_alpha 90.000000
_cell_angle_beta 90.000000
_cell_angle_gamma 90.000000
_cell_volume 4941.031282
_symmetry_space_group_name_H-M "C M M M"
_symmetry_group_IT_number 65
_symmetry_cell_setting 'orthorhombic'
loop_
_space_group_symop_operation_xyz
x,y,z
-x,-y,z
x,-y,-z
-x,y,-z
-x,-y,-z
x,y,-z
-x,y,z
x,-y,z
1/2+x,1/2+y,z
1/2-x,1/2-y,z
1/2+x,1/2-y,-z
1/2-x,1/2+y,-z
1/2-x,1/2-y,-z
1/2+x,1/2+y,-z
1/2-x,1/2+y,z
1/2+x,1/2-y,z
loop_
_atom_site_type_symbol
_atom_site_label
_atom_site_fract_x
_atom_site_fract_y
_atom_site_fract_z
Si Si1 0.922838 0.173309 0.364451
Si Si2 0.679649 0.328795 0.445662
Si Si3 0.918027 0.329844 0.896678
Si Si4 0.418886 0.168164 0.000000
Si Si5 0.819618 0.829475 0.716083
Si Si6 0.820342 0.828645 0.174321
O O1 0.882161 0.227179 0.411651
O O2 0.882738 0.226263 0.316862
O O3 0.000000 0.242159 0.364492
O O4 0.928296 0.000000 0.364724
O O5 0.659013 0.289225 0.500000
O O6 0.692392 0.500000 0.439138
O O7 0.750000 0.250000 0.430110
O O8 0.898299 0.500000 0.889955
O O9 0.891079 0.269691 0.949077
O O10 0.883449 0.231816 0.856430
O O11 0.000000 0.309386 0.892193
O O12 0.500000 0.191539 0.000000
O O13 0.399873 0.000000 0.000000
O O14 0.750000 0.750000 0.699374
O O15 0.838002 0.791696 0.770739
O O16 0.806405 0.000000 0.708768
O O17 0.750000 0.750000 0.158093
O O18 0.811603 0.000000 0.165710
#
# Coordination Sequence:
#
# PCOD8270387 Si02
#       6
#    16  16  16   8  16  16
#     4   9  17  29  46  69  95 121 151 189 232 275
#     4   9  17  29  47  70  93 120 155 192 228 269
#     4   9  17  31  52  75  98 125 157 193 234 281
#     4   7  12  26  48  71  94 123 157 189 226 277
#     4   9  18  32  50  68  88 120 157 192 230 275
#     4  10  20  33  49  70  96 125 159 198 239 283
#
# _framework density 17.810047999999998
#
# number of rings (size 3 to 8) (size 9 to 14) (size 15 to 20)
#    0.000    3.000    0.000    2.182    0.000    2.182 
#    0.000    4.545    0.000    3.818    0.000    2.545 
#    0.000    0.000    0.000    0.000    0.000    0.000 
#
# Total GULP energy -545334.572893 kJ/mol
# GULP energy per Si atom -12393.967566 kJ/mol
# Density = 1.776951 g / cm^3
# Si number density = 17.810048 Si / 1000 Ang^3
#
#
#
# Elastic Constant Matrix: (Units=GPa)
#
#
# Indices 1 2 3 4 5 6 
#
# 1 127.3690 37.1253 83.0719 0.0000 0.0000 0.0000
# 2 37.1253 42.1425 35.8742 0.0000 0.0000 0.0000
# 3 83.0719 35.8742 127.7624 0.0000 0.0000 0.0000
# 4 0.0000 0.0000 0.0000 18.6663 0.0000 0.0000
# 5 0.0000 0.0000 0.0000 0.0000 29.3983 0.0000
# 6 0.0000 0.0000 0.0000 0.0000 0.0000 26.2644
#
#
#
# Elastic Compliance Matrix: (Units=1/GPa)
#
#
# Indices 1 2 3 4 5 6 
#
# 1 0.014833 -0.006383 -0.007852 0.000000 0.000000 0.000000
# 2 -0.006383 0.033929 -0.005377 0.000000 0.000000 0.000000
# 3 -0.007852 -0.005377 0.014442 0.000000 0.000000 0.000000
# 4 0.000000 0.000000 0.000000 0.053572 0.000000 0.000000
# 5 0.000000 0.000000 0.000000 0.000000 0.034016 0.000000
# 6 0.000000 0.000000 0.000000 0.000000 0.000000 0.038074
#
#
# Mechanical properties :
#
#
# Convention : Reuss Voigt Hill
#
# Bulk Modulus (GPa) = 41.70021 67.71295 54.70658
# Shear Modulus (GPa) = 21.17891 24.27930 22.72910
#
# Velocity S-wave (km/s) = 3.45215 3.69621 3.57626
# Velocity P-wave (km/s) = 6.27332 7.50453 6.91638
#
# Compressibility (1/GPa) = 0.02398069
#
# Stress axis : x y z
#
# Youngs Moduli (GPa) = 67.41703 29.47337 69.24065
#
# Poissons Ratio (x) = 0.18812 0.54370
# Poissons Ratio (y) = 0.43031 0.37229
# Poissons Ratio (z) = 0.52938 0.15847
#
# Static dielectric constant tensor:
#      x y z
#    x 3.307710 0.000000 0.000000 
#    y 0.000000 3.020020 0.000000 
#    z 0.000000 0.000000 3.634900 
# 
# 
# High freq. dielectric constant tensor:
#      x y z
#    x 1.675620 0.000000 0.000000 
#    y 0.000000 1.657200 0.000000 
#    z 0.000000 0.000000 1.707340 
# 
# From -- ./inp_files/77917.got.cif
#   From: 2010.03.12/outbox.cif.g09.slc.cpg/sg65_39_cif.got.tgz:77917.got - 2010.04.10 20:52:16.
