data_PCOD8270891
_publ_section_title
;
Structure prediction by ZEFSAII (Michael W. Deem and Ramdas Pophale) SiO2 
 PCOD8270891
Probable space group: C M M M
;
_chemical_formula_sum "Si O2"
_cell_formula_units_Z 80
_cell_length_a 8.142574
_cell_length_b 26.970107
_cell_length_c 19.738569
_cell_angle_alpha 90.000000
_cell_angle_beta 90.000000
_cell_angle_gamma 90.000000
_cell_volume 4334.710000
_symmetry_space_group_name_H-M "C M M M"
_symmetry_group_IT_number 65
_symmetry_cell_setting 'orthorhombic'
loop_
_space_group_symop_operation_xyz
x,y,z
-x,-y,z
x,-y,-z
-x,y,-z
-x,-y,-z
x,y,-z
-x,y,z
x,-y,z
1/2+x,1/2+y,z
1/2-x,1/2-y,z
1/2+x,1/2-y,-z
1/2-x,1/2+y,-z
1/2-x,1/2-y,-z
1/2+x,1/2+y,-z
1/2-x,1/2+y,z
1/2+x,1/2-y,z
loop_
_atom_site_type_symbol
_atom_site_label
_atom_site_fract_x
_atom_site_fract_y
_atom_site_fract_z
Si Si1 0.000000 0.556773 0.419931
Si Si2 0.683374 0.304535 0.000000
Si Si3 0.809810 0.444588 0.787129
Si Si4 0.687539 0.850839 0.866587
Si Si5 0.310027 0.697211 0.265944
Si Si6 0.811527 0.099394 0.344741
O O1 0.169481 0.583497 0.397173
O O2 0.000000 0.500000 0.392741
O O3 0.000000 0.558051 0.500000
O O4 0.750000 0.250000 0.000000
O O5 0.717586 0.336016 0.933285
O O6 0.500000 0.290724 0.000000
O O7 0.780291 0.500000 0.814498
O O8 0.757175 0.406493 0.845898
O O9 0.699497 0.435500 0.721125
O O10 0.000000 0.435644 0.766268
O O11 0.500000 0.849097 0.887417
O O12 0.715556 0.814013 0.803705
O O13 0.500000 0.698430 0.247689
O O14 0.250000 0.750000 0.294878
O O15 0.273747 0.656121 0.323281
O O16 0.000000 0.094386 0.373727
#
# Coordination Sequence:
#
# PCOD8270891 Si02
#       6
#     8   8  16  16  16  16
#     4  11  24  40  60  86 118 155 191 229 276 335
#     4  12  24  38  53  68  97 139 178 223 275 338
#     4   9  17  32  56  82 109 141 179 226 276 326
#     4  10  20  34  52  76 108 139 180 226 276 329
#     4  10  20  33  55  86 113 144 184 233 284 332
#     4  10  21  36  57  87 118 150 188 234 282 334
#
# _framework density 18.455674999999999
#
# number of rings (size 3 to 8) (size 9 to 14) (size 15 to 20)
#    0.000    1.900    1.000    3.300    2.800    2.800 
#    0.000    1.500    0.000    3.600    0.000    0.000 
#    0.000    0.000    0.000    0.000    0.000    0.000 
#
# Total GULP energy -495864.007701 kJ/mol
# GULP energy per Si atom -12396.600193 kJ/mol
# Density = 1.841367 g / cm^3
# Si number density = 18.455675 Si / 1000 Ang^3
#
#
#
# Elastic Constant Matrix: (Units=GPa)
#
#
# Indices 1 2 3 4 5 6 
#
# 1 98.8432 41.5916 44.7119 0.0000 0.0000 0.0000
# 2 41.5916 144.2553 43.8662 0.0000 0.0000 0.0000
# 3 44.7119 43.8662 70.0212 0.0000 0.0000 0.0000
# 4 0.0000 0.0000 0.0000 18.0564 0.0000 0.0000
# 5 0.0000 0.0000 0.0000 0.0000 25.1316 0.0000
# 6 0.0000 0.0000 0.0000 0.0000 0.0000 26.6146
#
#
#
# Elastic Compliance Matrix: (Units=1/GPa)
#
#
# Indices 1 2 3 4 5 6 
#
# 1 0.014553 -0.001693 -0.008233 0.000000 0.000000 0.000000
# 2 -0.001693 0.008760 -0.004407 0.000000 0.000000 0.000000
# 3 -0.008233 -0.004407 0.022299 0.000000 0.000000 0.000000
# 4 0.000000 0.000000 0.000000 0.055382 0.000000 0.000000
# 5 0.000000 0.000000 0.000000 0.000000 0.039791 0.000000
# 6 0.000000 0.000000 0.000000 0.000000 0.000000 0.037573
#
#
# Mechanical properties :
#
#
# Convention : Reuss Voigt Hill
#
# Bulk Modulus (GPa) = 59.00402 63.71766 61.36084
# Shear Modulus (GPa) = 23.51023 26.15718 24.83370
#
# Velocity S-wave (km/s) = 3.57301 3.76879 3.67220
# Velocity P-wave (km/s) = 7.00442 7.31696 7.16240
#
# Compressibility (1/GPa) = 0.01694800
#
# Stress axis : x y z
#
# Youngs Moduli (GPa) = 68.71302 114.15046 44.84427
#
# Poissons Ratio (x) = 0.19321 0.36919
# Poissons Ratio (y) = 0.11630 0.19764
# Poissons Ratio (z) = 0.56569 0.50310
#
# Static dielectric constant tensor:
#      x y z
#    x 3.379050 0.000000 0.000000 
#    y 0.000000 3.258590 0.000000 
#    z 0.000000 0.000000 3.073180 
# 
# 
# High freq. dielectric constant tensor:
#      x y z
#    x 1.730500 0.000000 0.000000 
#    y 0.000000 1.727110 0.000000 
#    z 0.000000 0.000000 1.679630 
# 
# From -- ./inp_files/60067.got.cif
#   From: 2010.03.12/outbox.cif.g09.slc.cpg/sg65_31_cif.got.tgz:60067.got - 2010.04.10 20:52:16.
