data_PCOD8270490
_publ_section_title
;
Structure prediction by ZEFSAII (Michael W. Deem and Ramdas Pophale) SiO2 
 PCOD8270490
Probable space group: C M M M
;
_chemical_formula_sum "Si O2"
_cell_formula_units_Z 96
_cell_length_a 8.978542
_cell_length_b 19.652089
_cell_length_c 30.972980
_cell_angle_alpha 90.000000
_cell_angle_beta 90.000000
_cell_angle_gamma 90.000000
_cell_volume 5465.092700
_symmetry_space_group_name_H-M "C M M M"
_symmetry_group_IT_number 65
_symmetry_cell_setting 'orthorhombic'
loop_
_space_group_symop_operation_xyz
x,y,z
-x,-y,z
x,-y,-z
-x,y,-z
-x,-y,-z
x,y,-z
-x,y,z
x,-y,z
1/2+x,1/2+y,z
1/2-x,1/2-y,z
1/2+x,1/2-y,-z
1/2-x,1/2+y,-z
1/2-x,1/2-y,-z
1/2+x,1/2+y,-z
1/2-x,1/2+y,z
1/2+x,1/2-y,z
loop_
_atom_site_type_symbol
_atom_site_label
_atom_site_fract_x
_atom_site_fract_y
_atom_site_fract_z
Si Si1 0.173543 0.323042 0.223128
Si Si2 0.827536 0.677514 0.127353
Si Si3 0.174076 0.920966 0.709434
Si Si4 0.175136 0.319251 0.451377
Si Si5 0.326018 0.323429 0.953114
Si Si6 0.172933 0.578054 0.621535
O O1 0.250000 0.250000 0.229135
O O2 0.196256 0.354515 0.174845
O O3 0.242916 0.377915 0.254650
O O4 0.000000 0.313170 0.233413
O O5 0.750000 0.750000 0.129258
O O6 0.749065 0.635812 0.087535
O O7 0.000000 0.685377 0.116308
O O8 0.232446 0.897981 0.662655
O O9 0.000000 0.905944 0.712050
O O10 0.211368 0.000000 0.717423
O O11 0.227244 0.337691 0.500000
O O12 0.250000 0.250000 0.435216
O O13 0.226802 0.379397 0.419823
O O14 0.000000 0.308609 0.449506
O O15 0.500000 0.315337 0.944040
O O16 0.250000 0.250000 0.954839
O O17 0.299330 0.359600 0.000000
O O18 0.205086 0.500000 0.610068
O O19 0.000000 0.590500 0.632140
#
# Coordination Sequence:
#
# PCOD8270490 Si02
#       6
#    16  16  16  16  16  16
#     4  10  20  33  50  72  97 126 161 200 243 291
#     4   9  16  25  38  57  82 113 148 187 231 277
#     4  10  21  36  53  73  98 128 162 201 244 290
#     4   9  18  32  50  73 100 129 160 194 234 280
#     4   9  15  21  31  49  75 110 149 185 224 272
#     4   9  18  33  52  72  95 125 160 198 239 281
#
# _framework density 17.566033000000001
#
# number of rings (size 3 to 8) (size 9 to 14) (size 15 to 20)
#    0.000    2.667    0.000    3.000    0.000    5.667 
#    0.000    3.333    0.000    0.000    0.000    4.667 
#    0.000    0.667    0.000    7.333    0.000    8.167 
#
# Total GULP energy -594819.973161 kJ/mol
# GULP energy per Si atom -12392.082774 kJ/mol
# Density = 1.752605 g / cm^3
# Si number density = 17.566033 Si / 1000 Ang^3
#
#
#
# Elastic Constant Matrix: (Units=GPa)
#
#
# Indices 1 2 3 4 5 6 
#
# 1 104.1871 39.9730 75.4420 0.0000 0.0000 0.0000
# 2 39.9730 56.5613 68.4507 0.0000 0.0000 0.0000
# 3 75.4420 68.4507 165.5573 0.0000 0.0000 0.0000
# 4 0.0000 0.0000 0.0000 -2.8800 0.0000 0.0000
# 5 0.0000 0.0000 0.0000 0.0000 30.4287 0.0000
# 6 0.0000 0.0000 0.0000 0.0000 0.0000 22.2911
#
#
#
# Elastic Compliance Matrix: (Units=1/GPa)
#
#
# Indices 1 2 3 4 5 6 
#
# 1 0.014907 -0.004632 -0.004878 0.000000 0.000000 0.000000
# 2 -0.004632 0.036825 -0.013115 0.000000 0.000000 0.000000
# 3 -0.004878 -0.013115 0.013685 0.000000 0.000000 0.000000
# 4 0.000000 0.000000 0.000000 -0.347219 0.000000 0.000000
# 5 0.000000 0.000000 0.000000 0.000000 0.032864 0.000000
# 6 0.000000 0.000000 0.000000 0.000000 0.000000 0.044861
#
#
# Mechanical properties :
#
#
# Convention : Reuss Voigt Hill
#
# Bulk Modulus (GPa) = 49.58280 77.11522 63.34901
# Shear Modulus (GPa) = -32.87223 19.46397 -6.70413
#
# Velocity S-wave (km/s) = -4.33061 3.33234 -1.95571
# Velocity P-wave (km/s) = 1.81171 7.66821 5.57153
#
# Compressibility (1/GPa) = 0.02016828
#
# Stress axis : x y z
#
# Youngs Moduli (GPa) = 67.08092 27.15544 73.07064
#
# Poissons Ratio (x) = 0.12579 0.35643
# Poissons Ratio (y) = 0.31072 0.95831
# Poissons Ratio (z) = 0.32721 0.35614
#
# Static dielectric constant tensor:
#      x y z
#    x 3.352190 0.000000 0.000000 
#    y 0.000000 2.860340 0.000000 
#    z 0.000000 0.000000 4.215970 
# 
# 
# High freq. dielectric constant tensor:
#      x y z
#    x 1.691050 0.000000 0.000000 
#    y 0.000000 1.622250 0.000000 
#    z 0.000000 0.000000 1.704150 
# 
# From -- ./inp_files/73223.got.cif
#   From: 2010.03.12/outbox.cif.g09.slc.cpg/sg65_37_cif.got.tgz:73223.got - 2010.04.10 20:52:16.
