data_PCOD8270722
_publ_section_title
;
Structure prediction by ZEFSAII (Michael W. Deem and Ramdas Pophale) SiO2 
 PCOD8270722
Probable space group: C M M M
;
_chemical_formula_sum "Si O2"
_cell_formula_units_Z 88
_cell_length_a 16.910566
_cell_length_b 18.121100
_cell_length_c 14.772010
_cell_angle_alpha 90.000000
_cell_angle_beta 90.000000
_cell_angle_gamma 90.000000
_cell_volume 4526.706050
_symmetry_space_group_name_H-M "C M M M"
_symmetry_group_IT_number 65
_symmetry_cell_setting 'orthorhombic'
loop_
_space_group_symop_operation_xyz
x,y,z
-x,-y,z
x,-y,-z
-x,y,-z
-x,-y,-z
x,y,-z
-x,y,z
x,-y,z
1/2+x,1/2+y,z
1/2-x,1/2-y,z
1/2+x,1/2-y,-z
1/2-x,1/2+y,-z
1/2-x,1/2-y,-z
1/2+x,1/2+y,-z
1/2-x,1/2+y,z
1/2+x,1/2-y,z
loop_
_atom_site_type_symbol
_atom_site_label
_atom_site_fract_x
_atom_site_fract_y
_atom_site_fract_z
Si Si1 0.636156 0.416429 0.395686
Si Si2 0.585863 0.716956 0.705511
Si Si3 0.716448 0.081893 0.724894
Si Si4 0.596420 0.410124 0.000000
Si Si5 0.408375 0.858164 0.601070
Si Si6 0.700731 0.683039 0.140416
O O1 0.635041 0.393805 0.500000
O O2 0.606581 0.500000 0.381790
O O3 0.579131 0.364345 0.337826
O O4 0.723785 0.404049 0.357716
O O5 0.500000 0.736535 0.746574
O O6 0.608413 0.772725 0.624849
O O7 0.649046 0.724509 0.784638
O O8 0.631222 0.093342 0.679736
O O9 0.733599 0.132499 0.811572
O O10 0.722621 0.000000 0.763794
O O11 0.640769 0.369220 0.083337
O O12 0.610709 0.500000 0.000000
O O13 0.500000 0.395719 0.000000
O O14 0.374954 0.873788 0.500000
O O15 0.500000 0.878197 0.603732
O O16 0.750000 0.750000 0.089655
#
# Coordination Sequence:
#
# PCOD8270722 Si02
#       6
#    16  16  16   8  16  16
#     4   9  18  30  46  71 104 147 196 243 292 344
#     4  10  20  34  52  78 113 149 191 238 288 339
#     4  10  20  35  54  79 112 150 194 244 293 341
#     4  11  25  44  68  98 127 151 180 230 298 369
#     4  10  20  33  51  77 111 155 204 250 292 330
#     4  11  21  40  64  91 115 152 191 233 283 351
#
# _framework density 19.440183999999999
#
# number of rings (size 3 to 8) (size 9 to 14) (size 15 to 20)
#    0.000    1.909    1.818    2.455    0.000    3.636 
#    0.000    4.545    0.000    0.000    0.000    0.000 
#    0.000    5.091    0.000    0.000    0.000    0.000 
#
# Total GULP energy -545122.604787 kJ/mol
# GULP energy per Si atom -12389.150109 kJ/mol
# Density = 1.939594 g / cm^3
# Si number density = 19.440184 Si / 1000 Ang^3
#
#
#
# Elastic Constant Matrix: (Units=GPa)
#
#
# Indices 1 2 3 4 5 6 
#
# 1 76.5550 47.7266 38.8296 0.0000 0.0000 0.0000
# 2 47.7266 89.4515 29.7907 0.0000 0.0000 0.0000
# 3 38.8296 29.7907 79.7979 0.0000 0.0000 0.0000
# 4 0.0000 0.0000 0.0000 23.6066 0.0000 0.0000
# 5 0.0000 0.0000 0.0000 0.0000 27.1844 0.0000
# 6 0.0000 0.0000 0.0000 0.0000 0.0000 24.5227
#
#
#
# Elastic Compliance Matrix: (Units=1/GPa)
#
#
# Indices 1 2 3 4 5 6 
#
# 1 0.022955 -0.009739 -0.007534 0.000000 0.000000 0.000000
# 2 -0.009739 0.016898 -0.001570 0.000000 0.000000 0.000000
# 3 -0.007534 -0.001570 0.016784 0.000000 0.000000 0.000000
# 4 0.000000 0.000000 0.000000 0.042361 0.000000 0.000000
# 5 0.000000 0.000000 0.000000 0.000000 0.036786 0.000000
# 6 0.000000 0.000000 0.000000 0.000000 0.000000 0.040779
#
#
# Mechanical properties :
#
#
# Convention : Reuss Voigt Hill
#
# Bulk Modulus (GPa) = 52.76501 53.16648 52.96574
# Shear Modulus (GPa) = 22.66905 23.69325 23.18115
#
# Velocity S-wave (km/s) = 3.41851 3.49489 3.45691
# Velocity P-wave (km/s) = 6.54086 6.61013 6.57558
#
# Compressibility (1/GPa) = 0.01895195
#
# Stress axis : x y z
#
# Youngs Moduli (GPa) = 43.56293 59.17865 59.58088
#
# Poissons Ratio (x) = 0.57631 0.44890
# Poissons Ratio (y) = 0.42424 0.09353
# Poissons Ratio (z) = 0.32822 0.09289
#
# Static dielectric constant tensor:
#      x y z
#    x 3.596190 0.000000 0.000000 
#    y 0.000000 3.675110 0.000000 
#    z 0.000000 0.000000 3.388310 
# 
# 
# High freq. dielectric constant tensor:
#      x y z
#    x 1.756440 0.000000 0.000000 
#    y 0.000000 1.764740 0.000000 
#    z 0.000000 0.000000 1.734850 
# 
# From -- ./inp_files/42509.got.cif
#   From: 2010.03.12/outbox.cif.g09.slc.cpg/sg65_22_cif.got.tgz:42509.got - 2010.04.10 20:52:16.
