data_PCOD8270620
_publ_section_title
;
Structure prediction by ZEFSAII (Michael W. Deem and Ramdas Pophale) SiO2 
 PCOD8270620
Probable space group: C M M M
;
_chemical_formula_sum "Si O2"
_cell_formula_units_Z 120
_cell_length_a 26.603029
_cell_length_b 8.792155
_cell_length_c 27.763807
_cell_angle_alpha 90.000000
_cell_angle_beta 90.000000
_cell_angle_gamma 90.000000
_cell_volume 6493.897665
_symmetry_space_group_name_H-M "C M M M"
_symmetry_group_IT_number 65
_symmetry_cell_setting 'orthorhombic'
loop_
_space_group_symop_operation_xyz
x,y,z
-x,-y,z
x,-y,-z
-x,y,-z
-x,-y,-z
x,y,-z
-x,y,z
x,-y,z
1/2+x,1/2+y,z
1/2-x,1/2-y,z
1/2+x,1/2-y,-z
1/2-x,1/2+y,-z
1/2-x,1/2-y,-z
1/2+x,1/2+y,-z
1/2-x,1/2+y,z
1/2+x,1/2-y,z
loop_
_atom_site_type_symbol
_atom_site_label
_atom_site_fract_x
_atom_site_fract_y
_atom_site_fract_z
Si Si1 0.500000 0.173006 0.556948
Si Si2 0.303407 0.320662 0.053034
Si Si3 0.598158 0.320303 0.602295
Si Si4 0.649483 0.678169 0.850452
Si Si5 0.398343 0.176863 0.295977
Si Si6 0.444276 0.674163 0.791800
Si Si7 0.302776 0.822142 0.556291
Si Si8 0.300282 0.823080 0.762332
O O1 0.500000 0.174640 0.500000
O O2 0.550397 0.256265 0.573906
O O3 0.500000 0.000000 0.576638
O O4 0.296833 0.500000 0.053665
O O5 0.250000 0.250000 0.065478
O O6 0.342394 0.267127 0.094408
O O7 0.322449 0.266608 0.000000
O O8 0.599937 0.500000 0.595204
O O9 0.590944 0.279173 0.657910
O O10 0.650399 0.250744 0.583800
O O11 0.658984 0.500000 0.845903
O O12 0.593155 0.724096 0.834591
O O13 0.688939 0.757729 0.815206
O O14 0.438381 0.220210 0.254983
O O15 0.343436 0.217253 0.275743
O O16 0.403885 0.000000 0.309353
O O17 0.500000 0.695693 0.812609
O O18 0.433843 0.500000 0.776327
O O19 0.310483 0.790007 0.500000
O O20 0.250000 0.750000 0.574004
O O21 0.301315 0.000000 0.568196
O O22 0.250000 0.750000 0.740923
O O23 0.292762 0.000000 0.768142
#
# Coordination Sequence:
#
# PCOD8270620 Si02
#       8
#     8  16  16  16  16  16  16  16
#     4  11  25  45  67  89 115 149 187 229 276 327
#     4   9  17  28  43  66  97 132 169 208 254 309
#     4  12  25  40  61  88 118 150 185 227 277 332
#     4   9  17  30  48  70  97 132 171 213 261 310
#     4  10  22  38  54  76 106 139 175 214 261 315
#     4   9  18  33  53  74  98 128 168 216 263 315
#     4  10  21  39  63  89 117 150 188 229 273 323
#     4  10  20  33  51  74 102 137 174 214 259 311
#
# _framework density 18.478887
#
# number of rings (size 3 to 8) (size 9 to 14) (size 15 to 20)
#    0.000    2.067    0.000    3.400    0.933    6.933 
#    0.000    1.333    0.000    0.400    0.000    2.800 
#    0.000    0.000    0.000   10.000    0.000   10.400 
#
# Total GULP energy -744006.099385 kJ/mol
# GULP energy per Si atom -12400.101656 kJ/mol
# Density = 1.843683 g / cm^3
# Si number density = 18.478887 Si / 1000 Ang^3
#
#
#
# Elastic Constant Matrix: (Units=GPa)
#
#
# Indices 1 2 3 4 5 6 
#
# 1 120.0375 35.3987 47.4091 0.0000 0.0000 0.0000
# 2 35.3987 69.8563 35.1367 0.0000 0.0000 0.0000
# 3 47.4091 35.1367 103.2097 0.0000 0.0000 0.0000
# 4 0.0000 0.0000 0.0000 23.9999 0.0000 0.0000
# 5 0.0000 0.0000 0.0000 0.0000 18.2529 0.0000
# 6 0.0000 0.0000 0.0000 0.0000 0.0000 30.1166
#
#
#
# Elastic Compliance Matrix: (Units=1/GPa)
#
#
# Indices 1 2 3 4 5 6 
#
# 1 0.010887 -0.003622 -0.003768 0.000000 0.000000 0.000000
# 2 -0.003622 0.018478 -0.004627 0.000000 0.000000 0.000000
# 3 -0.003768 -0.004627 0.012995 0.000000 0.000000 0.000000
# 4 0.000000 0.000000 0.000000 0.041667 0.000000 0.000000
# 5 0.000000 0.000000 0.000000 0.000000 0.054786 0.000000
# 6 0.000000 0.000000 0.000000 0.000000 0.000000 0.033204
#
#
# Mechanical properties :
#
#
# Convention : Reuss Voigt Hill
#
# Bulk Modulus (GPa) = 54.56561 58.77693 56.67127
# Shear Modulus (GPa) = 24.73314 26.15116 25.44215
#
# Velocity S-wave (km/s) = 3.66246 3.76598 3.71458
# Velocity P-wave (km/s) = 6.89039 7.12649 7.00944
#
# Compressibility (1/GPa) = 0.01832656
#
# Stress axis : x y z
#
# Youngs Moduli (GPa) = 91.85375 54.11976 76.95270
#
# Poissons Ratio (x) = 0.19600 0.28995
# Poissons Ratio (y) = 0.33265 0.35606
# Poissons Ratio (z) = 0.34610 0.25041
#
# Static dielectric constant tensor:
#      x y z
#    x 4.035190 0.000000 0.000000 
#    y 0.000000 3.510490 0.000000 
#    z 0.000000 0.000000 3.539500 
# 
# 
# High freq. dielectric constant tensor:
#      x y z
#    x 1.717460 0.000000 0.000000 
#    y 0.000000 1.722820 0.000000 
#    z 0.000000 0.000000 1.711740 
# 
# From -- ./inp_files/76140.got.cif
#   From: 2010.03.12/outbox.cif.g09.slc.cpg/sg65_39_cif.got.tgz:76140.got - 2010.04.10 20:52:16.
