data_PCOD8270199
_publ_section_title
;
Structure prediction by ZEFSAII (Michael W. Deem and Ramdas Pophale) SiO2 
 PCOD8270199
Probable space group: C M M M
;
_chemical_formula_sum "Si O2"
_cell_formula_units_Z 112
_cell_length_a 17.837577
_cell_length_b 14.784252
_cell_length_c 23.505759
_cell_angle_alpha 90.000000
_cell_angle_beta 90.000000
_cell_angle_gamma 90.000000
_cell_volume 6198.826722
_symmetry_space_group_name_H-M "C M M M"
_symmetry_group_IT_number 65
_symmetry_cell_setting 'orthorhombic'
loop_
_space_group_symop_operation_xyz
x,y,z
-x,-y,z
x,-y,-z
-x,y,-z
-x,-y,-z
x,y,-z
-x,y,z
x,-y,z
1/2+x,1/2+y,z
1/2-x,1/2-y,z
1/2+x,1/2-y,-z
1/2-x,1/2+y,-z
1/2-x,1/2-y,-z
1/2+x,1/2+y,-z
1/2-x,1/2+y,z
1/2+x,1/2-y,z
loop_
_atom_site_type_symbol
_atom_site_label
_atom_site_fract_x
_atom_site_fract_y
_atom_site_fract_z
Si Si1 0.088559 0.269720 0.646972
Si Si2 0.296327 0.159464 0.437345
Si Si3 0.083978 0.747468 0.063927
Si Si4 0.833718 0.605225 0.267876
Si Si5 0.654602 0.895919 0.863806
Si Si6 0.800267 0.102259 0.065543
Si Si7 0.694371 0.600282 0.658242
O O1 0.123426 0.319502 0.591792
O O2 0.104231 0.332611 0.701565
O O3 0.126722 0.171368 0.655091
O O4 0.000000 0.256385 0.638357
O O5 0.310404 0.116550 0.500000
O O6 0.250000 0.250000 0.443841
O O7 0.245675 0.094252 0.398549
O O8 0.090449 0.664097 0.107399
O O9 0.133253 0.832037 0.083846
O O10 0.000000 0.783739 0.065886
O O11 0.105650 0.715726 0.000000
O O12 0.852715 0.500000 0.279434
O O13 0.836203 0.629139 0.201806
O O14 0.750219 0.628654 0.290516
O O15 0.730770 0.870908 0.895712
O O16 0.632152 0.000000 0.872193
O O17 0.826766 0.000000 0.077491
O O18 0.776789 0.115247 0.000000
O O19 0.660255 0.500000 0.668159
#
# Coordination Sequence:
#
# PCOD8270199 Si02
#       7
#    16  16  16  16  16  16  16
#     4  10  20  32  49  76 107 135 163 202 251 297
#     4   8  15  30  51  72  96 131 172 206 236 276
#     4  10  21  34  48  71 103 134 160 191 239 298
#     4   9  19  36  55  72  93 126 168 210 249 292
#     4  10  20  34  54  76  95 122 163 208 251 293
#     4   9  18  33  53  75  97 124 162 205 243 283
#     4   9  18  33  52  74 101 133 169 206 244 292
#
# _framework density 18.067934999999999
#
# number of rings (size 3 to 8) (size 9 to 14) (size 15 to 20)
#    0.000    2.714    0.000    2.143    0.000    6.571 
#    0.000    3.571    0.000    0.000    0.000   14.000 
#    0.000    0.000    0.000    0.000    0.000    0.000 
#
# Total GULP energy -694261.063248 kJ/mol
# GULP energy per Si atom -12397.518987 kJ/mol
# Density = 1.802681 g / cm^3
# Si number density = 18.067935 Si / 1000 Ang^3
#
#
#
# Elastic Constant Matrix: (Units=GPa)
#
#
# Indices 1 2 3 4 5 6 
#
# 1 103.3724 43.1336 35.0621 0.0000 0.0000 0.0000
# 2 43.1336 72.0802 35.3252 0.0000 0.0000 0.0000
# 3 35.0621 35.3252 103.3019 0.0000 0.0000 0.0000
# 4 0.0000 0.0000 0.0000 38.3303 0.0000 0.0000
# 5 0.0000 0.0000 0.0000 0.0000 -8.7979 0.0000
# 6 0.0000 0.0000 0.0000 0.0000 0.0000 13.3775
#
#
#
# Elastic Compliance Matrix: (Units=1/GPa)
#
#
# Indices 1 2 3 4 5 6 
#
# 1 0.013279 -0.006893 -0.002150 0.000000 0.000000 0.000000
# 2 -0.006893 0.020244 -0.004583 0.000000 0.000000 0.000000
# 3 -0.002150 -0.004583 0.011977 0.000000 0.000000 0.000000
# 4 0.000000 0.000000 0.000000 0.026089 0.000000 0.000000
# 5 0.000000 0.000000 0.000000 0.000000 -0.113663 0.000000
# 6 0.000000 0.000000 0.000000 0.000000 0.000000 0.074752
#
#
# Mechanical properties :
#
#
# Convention : Reuss Voigt Hill
#
# Bulk Modulus (GPa) = 54.79825 56.19956 55.49891
# Shear Modulus (GPa) = 75.74154 19.59756 47.66955
#
# Velocity S-wave (km/s) = 6.48162 3.29699 5.14206
# Velocity P-wave (km/s) = 9.29570 6.75764 8.12637
#
# Compressibility (1/GPa) = 0.01824876
#
# Stress axis : x y z
#
# Youngs Moduli (GPa) = 75.30639 49.39678 83.49027
#
# Poissons Ratio (x) = 0.34047 0.17951
# Poissons Ratio (y) = 0.51906 0.38266
# Poissons Ratio (z) = 0.16192 0.22640
#
# Static dielectric constant tensor:
#      x y z
#    x 3.076410 0.000000 0.000000 
#    y 0.000000 3.390640 0.000000 
#    z 0.000000 0.000000 3.632980 
# 
# 
# High freq. dielectric constant tensor:
#      x y z
#    x 1.676840 0.000000 0.000000 
#    y 0.000000 1.703520 0.000000 
#    z 0.000000 0.000000 1.701190 
# 
# From -- ./inp_files/69947.got.cif
#   From: 2010.03.12/outbox.cif.g09.slc.cpg/sg65_35_cif.got.tgz:69947.got - 2010.04.10 20:52:16.
