data_PCOD8270798
_publ_section_title
;
Structure prediction by ZEFSAII (Michael W. Deem and Ramdas Pophale) SiO2 
 PCOD8270798
Probable space group: C M M M
;
_chemical_formula_sum "Si O2"
_cell_formula_units_Z 96
_cell_length_a 29.579008
_cell_length_b 18.856580
_cell_length_c 9.400044
_cell_angle_alpha 90.000000
_cell_angle_beta 90.000000
_cell_angle_gamma 90.000000
_cell_volume 5242.958490
_symmetry_space_group_name_H-M "C M M M"
_symmetry_group_IT_number 65
_symmetry_cell_setting 'orthorhombic'
loop_
_space_group_symop_operation_xyz
x,y,z
-x,-y,z
x,-y,-z
-x,y,-z
-x,-y,-z
x,y,-z
-x,y,z
x,-y,z
1/2+x,1/2+y,z
1/2-x,1/2-y,z
1/2+x,1/2-y,-z
1/2-x,1/2+y,-z
1/2-x,1/2-y,-z
1/2+x,1/2+y,-z
1/2-x,1/2+y,z
1/2+x,1/2-y,z
loop_
_atom_site_type_symbol
_atom_site_label
_atom_site_fract_x
_atom_site_fract_y
_atom_site_fract_z
Si Si1 0.449089 0.078421 0.835711
Si Si2 0.449646 0.419727 0.331266
Si Si3 0.619417 0.840946 0.657678
Si Si4 0.709368 0.082946 0.334565
Si Si5 0.775341 0.176908 0.830822
Si Si6 0.132749 0.176645 0.661309
O O1 0.500000 0.080910 0.779041
O O2 0.421727 0.137205 0.754443
O O3 0.428754 0.000000 0.808562
O O4 0.447240 0.097843 0.000000
O O5 0.450143 0.416070 0.500000
O O6 0.500000 0.396422 0.275826
O O7 0.439513 0.500000 0.279998
O O8 0.409313 0.368963 0.275358
O O9 0.612320 0.872161 0.500000
O O10 0.665800 0.873284 0.718315
O O11 0.617919 0.757241 0.656280
O O12 0.720266 0.098897 0.500000
O O13 0.749884 0.109866 0.236373
O O14 0.701621 0.000000 0.307635
O O15 0.750000 0.250000 0.786707
O O16 0.825347 0.171638 0.767507
O O17 0.777749 0.169228 0.000000
O O18 0.145680 0.151649 0.500000
#
# Coordination Sequence:
#
# PCOD8270798 Si02
#       6
#    16  16  16  16  16  16
#     4   9  19  35  52  71 100 140 181 219 264 321
#     4   8  15  30  53  82 114 144 178 223 273 327
#     4  10  20  33  52  79 108 137 174 225 276 324
#     4  10  21  37  57  80 107 142 183 225 274 332
#     4  11  23  38  56  79 110 148 185 227 279 334
#     4  10  20  34  57  84 110 144 182 224 275 329
#
# _framework density 18.310272000000001
#
# number of rings (size 3 to 8) (size 9 to 14) (size 15 to 20)
#    0.000    2.333    1.667    2.000    0.000    5.000 
#    0.000    4.167    0.000    0.500    0.000    1.167 
#    0.000    0.000    0.000    0.000    0.000    0.000 
#
# Total GULP energy -595065.942869 kJ/mol
# GULP energy per Si atom -12397.207143 kJ/mol
# Density = 1.826860 g / cm^3
# Si number density = 18.310272 Si / 1000 Ang^3
#
#
#
# Elastic Constant Matrix: (Units=GPa)
#
#
# Indices 1 2 3 4 5 6 
#
# 1 135.0042 61.3818 51.2756 0.0000 0.0000 0.0000
# 2 61.3818 92.3831 31.5458 0.0000 0.0000 0.0000
# 3 51.2756 31.5458 55.8227 0.0000 0.0000 0.0000
# 4 0.0000 0.0000 0.0000 19.4800 0.0000 0.0000
# 5 0.0000 0.0000 0.0000 0.0000 31.3896 0.0000
# 6 0.0000 0.0000 0.0000 0.0000 0.0000 39.9956
#
#
#
# Elastic Compliance Matrix: (Units=1/GPa)
#
#
# Indices 1 2 3 4 5 6 
#
# 1 0.013546 -0.005888 -0.009116 0.000000 0.000000 0.000000
# 2 -0.005888 0.015972 -0.003618 0.000000 0.000000 0.000000
# 3 -0.009116 -0.003618 0.028331 0.000000 0.000000 0.000000
# 4 0.000000 0.000000 0.000000 0.051335 0.000000 0.000000
# 5 0.000000 0.000000 0.000000 0.000000 0.031858 0.000000
# 6 0.000000 0.000000 0.000000 0.000000 0.000000 0.025003
#
#
# Mechanical properties :
#
#
# Convention : Reuss Voigt Hill
#
# Bulk Modulus (GPa) = 48.52633 63.51293 56.01963
# Shear Modulus (GPa) = 23.79187 27.44016 25.61602
#
# Velocity S-wave (km/s) = 3.60859 3.87540 3.74437
# Velocity P-wave (km/s) = 6.62739 7.40185 7.02530
#
# Compressibility (1/GPa) = 0.02060737
#
# Stress axis : x y z
#
# Youngs Moduli (GPa) = 73.82044 62.61036 35.29667
#
# Poissons Ratio (x) = 0.36864 0.32175
# Poissons Ratio (y) = 0.43465 0.12769
# Poissons Ratio (z) = 0.67292 0.22649
#
# Static dielectric constant tensor:
#      x y z
#    x 3.517870 0.000000 0.000000 
#    y 0.000000 3.444050 0.000000 
#    z 0.000000 0.000000 3.174230 
# 
# 
# High freq. dielectric constant tensor:
#      x y z
#    x 1.716030 0.000000 0.000000 
#    y 0.000000 1.710810 0.000000 
#    z 0.000000 0.000000 1.685070 
# 
# From -- ./inp_files/12207.got.cif
#   From: 2010.03.12/outbox.cif.g09.slc.cpg/sg65_7_cif.got.tgz:12207.got - 2010.04.10 20:52:16.
