data_PCOD8270813
_publ_section_title
;
Structure prediction by ZEFSAII (Michael W. Deem and Ramdas Pophale) SiO2 
 PCOD8270813
Probable space group: C M M M
;
_chemical_formula_sum "Si O2"
_cell_formula_units_Z 80
_cell_length_a 25.864683
_cell_length_b 9.857817
_cell_length_c 17.151190
_cell_angle_alpha 90.000000
_cell_angle_beta 90.000000
_cell_angle_gamma 90.000000
_cell_volume 4373.027110
_symmetry_space_group_name_H-M "C M M M"
_symmetry_group_IT_number 65
_symmetry_cell_setting 'orthorhombic'
loop_
_space_group_symop_operation_xyz
x,y,z
-x,-y,z
x,-y,-z
-x,y,-z
-x,-y,-z
x,y,-z
-x,y,z
x,-y,z
1/2+x,1/2+y,z
1/2-x,1/2-y,z
1/2+x,1/2-y,-z
1/2-x,1/2+y,-z
1/2-x,1/2-y,-z
1/2+x,1/2+y,-z
1/2-x,1/2+y,z
1/2+x,1/2-y,z
loop_
_atom_site_type_symbol
_atom_site_label
_atom_site_fract_x
_atom_site_fract_y
_atom_site_fract_z
Si Si1 0.139411 0.846606 0.413001
Si Si2 0.098034 0.250464 0.181077
Si Si3 0.559816 0.000000 0.092272
Si Si4 0.940793 0.344271 0.656580
Si Si5 0.559787 0.500000 0.085640
Si Si6 0.700431 0.659356 0.260482
O O1 0.162735 0.830417 0.500000
O O2 0.092254 0.741997 0.404789
O O3 0.183924 0.815566 0.350179
O O4 0.118491 0.000000 0.399627
O O5 0.093165 0.374626 0.122347
O O6 0.065250 0.280233 0.258285
O O7 0.073555 0.127367 0.136519
O O8 0.156938 0.215420 0.202171
O O9 0.500000 0.000000 0.123346
O O10 0.559274 0.000000 0.000000
O O11 0.921235 0.500000 0.657163
O O12 0.000000 0.336093 0.630137
O O13 0.500000 0.500000 0.069084
O O14 0.587513 0.500000 0.000000
O O15 0.711456 0.500000 0.244866
O O16 0.750000 0.750000 0.242818
#
# Coordination Sequence:
#
# PCOD8270813 Si02
#       6
#    16  16   8  16   8  16
#     4   9  20  38  56  81 115 145 183 235 289 344
#     4  11  21  38  57  85 121 153 193 241 283 338
#     4  11  22  36  59  91 124 157 189 227 283 343
#     4  10  20  33  52  79 113 156 197 231 274 332
#     4  11  22  36  59  89 120 155 189 229 285 345
#     4  10  22  39  62  86 109 147 195 242 292 340
#
# _framework density 18.293965
#
# number of rings (size 3 to 8) (size 9 to 14) (size 15 to 20)
#    0.000    1.800    2.000    2.400    2.800    4.000 
#    0.000    2.000    0.000    3.600    0.000    0.000 
#    0.000    0.000    0.000    0.000    0.000    0.000 
#
# Total GULP energy -495951.231849 kJ/mol
# GULP energy per Si atom -12398.780796 kJ/mol
# Density = 1.825233 g / cm^3
# Si number density = 18.293965 Si / 1000 Ang^3
#
#
#
# Elastic Constant Matrix: (Units=GPa)
#
#
# Indices 1 2 3 4 5 6 
#
# 1 100.9489 57.5639 32.0531 0.0000 0.0000 0.0000
# 2 57.5639 145.7170 43.7739 0.0000 0.0000 0.0000
# 3 32.0531 43.7739 85.7235 0.0000 0.0000 0.0000
# 4 0.0000 0.0000 0.0000 37.2556 0.0000 0.0000
# 5 0.0000 0.0000 0.0000 0.0000 17.3753 0.0000
# 6 0.0000 0.0000 0.0000 0.0000 0.0000 35.8282
#
#
#
# Elastic Compliance Matrix: (Units=1/GPa)
#
#
# Indices 1 2 3 4 5 6 
#
# 1 0.013297 -0.004440 -0.002704 0.000000 0.000000 0.000000
# 2 -0.004440 0.009589 -0.003236 0.000000 0.000000 0.000000
# 3 -0.002704 -0.003236 0.014329 0.000000 0.000000 0.000000
# 4 0.000000 0.000000 0.000000 0.026842 0.000000 0.000000
# 5 0.000000 0.000000 0.000000 0.000000 0.057553 0.000000
# 6 0.000000 0.000000 0.000000 0.000000 0.000000 0.027911
#
#
# Mechanical properties :
#
#
# Convention : Reuss Voigt Hill
#
# Bulk Modulus (GPa) = 60.77944 66.57460 63.67702
# Shear Modulus (GPa) = 28.44685 31.35838 29.90261
#
# Velocity S-wave (km/s) = 3.94761 4.14471 4.04736
# Velocity P-wave (km/s) = 7.35351 7.70554 7.53158
#
# Compressibility (1/GPa) = 0.01645293
#
# Stress axis : x y z
#
# Youngs Moduli (GPa) = 75.20675 104.28757 69.78779
#
# Poissons Ratio (x) = 0.46307 0.18873
# Poissons Ratio (y) = 0.33394 0.22585
# Poissons Ratio (z) = 0.20339 0.33749
#
# Static dielectric constant tensor:
#      x y z
#    x 3.210620 0.000000 0.000000 
#    y 0.000000 3.659830 0.000000 
#    z 0.000000 0.000000 3.467110 
# 
# 
# High freq. dielectric constant tensor:
#      x y z
#    x 1.686240 0.000000 0.000000 
#    y 0.000000 1.729660 0.000000 
#    z 0.000000 0.000000 1.712920 
# 
# From -- ./inp_files/49964.got.cif
#   From: 2010.03.12/outbox.cif.g09.slc.cpg/sg65_25_cif.got.tgz:49964.got - 2010.04.10 20:52:16.
