data_PCOD8270168
_publ_section_title
;
Structure prediction by ZEFSAII (Michael W. Deem and Ramdas Pophale) SiO2 
 PCOD8270168
Probable space group: C M M M
;
_chemical_formula_sum "Si O2"
_cell_formula_units_Z 88
_cell_length_a 30.827477
_cell_length_b 17.817088
_cell_length_c 9.097335
_cell_angle_alpha 90.000000
_cell_angle_beta 90.000000
_cell_angle_gamma 90.000000
_cell_volume 4996.764655
_symmetry_space_group_name_H-M "C M M M"
_symmetry_group_IT_number 65
_symmetry_cell_setting 'orthorhombic'
loop_
_space_group_symop_operation_xyz
x,y,z
-x,-y,z
x,-y,-z
-x,y,-z
-x,-y,-z
x,y,-z
-x,y,z
x,-y,z
1/2+x,1/2+y,z
1/2-x,1/2-y,z
1/2+x,1/2-y,-z
1/2-x,1/2+y,-z
1/2-x,1/2-y,-z
1/2+x,1/2+y,-z
1/2-x,1/2+y,z
1/2+x,1/2-y,z
loop_
_atom_site_type_symbol
_atom_site_label
_atom_site_fract_x
_atom_site_fract_y
_atom_site_fract_z
Si Si1 0.084316 0.868155 0.333753
Si Si2 0.617273 0.202357 0.664476
Si Si3 0.500000 0.411465 0.834630
Si Si4 0.797670 0.777805 0.673343
Si Si5 0.451254 0.085264 0.674871
Si Si6 0.167115 0.084101 0.169657
O O1 0.082108 0.898892 0.500000
O O2 0.091777 0.779758 0.332857
O O3 0.120762 0.913714 0.247468
O O4 0.040320 0.880407 0.251349
O O5 0.625225 0.173025 0.500000
O O6 0.665469 0.218864 0.733783
O O7 0.586468 0.139723 0.743788
O O8 0.500000 0.500000 0.835291
O O9 0.500000 0.379710 0.000000
O O10 0.805637 0.790349 0.500000
O O11 0.750000 0.750000 0.710280
O O12 0.800602 0.857956 0.752357
O O13 0.451509 0.093645 0.500000
O O14 0.500000 0.106431 0.732239
O O15 0.440136 0.000000 0.721480
O O16 0.186250 0.000000 0.185126
O O17 0.161388 0.106628 0.000000
#
# Coordination Sequence:
#
# PCOD8270168 Si02
#       6
#    16  16   8  16  16  16
#     4  10  20  32  49  71  95 128 166 205 246 291
#     4   8  15  27  43  65  93 123 155 195 239 286
#     4  11  23  35  45  63  96 131 162 202 247 289
#     4   9  18  33  51  72  99 129 163 206 254 299
#     4   8  13  21  36  60  91 124 152 184 233 290
#     4  10  20  34  52  73  98 129 165 205 250 301
#
# _framework density 17.611395000000002
#
# number of rings (size 3 to 8) (size 9 to 14) (size 15 to 20)
#    0.000    2.818    0.000    3.545    1.273    4.727 
#    0.000    0.909    0.000    3.273    0.000    0.000 
#    0.000   13.818    0.000    0.000    0.000    0.000 
#
# Total GULP energy -545208.835454 kJ/mol
# GULP energy per Si atom -12391.109897 kJ/mol
# Density = 1.757131 g / cm^3
# Si number density = 17.611395 Si / 1000 Ang^3
#
#
#
# Elastic Constant Matrix: (Units=GPa)
#
#
# Indices 1 2 3 4 5 6 
#
# 1 151.2708 70.8939 52.3462 0.0000 0.0000 0.0000
# 2 70.8939 92.9042 28.2132 0.0000 0.0000 0.0000
# 3 52.3462 28.2132 70.1346 0.0000 0.0000 0.0000
# 4 0.0000 0.0000 0.0000 15.9264 0.0000 0.0000
# 5 0.0000 0.0000 0.0000 0.0000 -37.4702 0.0000
# 6 0.0000 0.0000 0.0000 0.0000 0.0000 16.4551
#
#
#
# Elastic Compliance Matrix: (Units=1/GPa)
#
#
# Indices 1 2 3 4 5 6 
#
# 1 0.012233 -0.007475 -0.006123 0.000000 0.000000 0.000000
# 2 -0.007475 0.016830 -0.001191 0.000000 0.000000 0.000000
# 3 -0.006123 -0.001191 0.019307 0.000000 0.000000 0.000000
# 4 0.000000 0.000000 0.000000 0.062789 0.000000 0.000000
# 5 0.000000 0.000000 0.000000 0.000000 -0.026688 0.000000
# 6 0.000000 0.000000 0.000000 0.000000 0.000000 0.060771
#
#
# Mechanical properties :
#
#
# Convention : Reuss Voigt Hill
#
# Bulk Modulus (GPa) = 53.21535 68.57958 60.89747
# Shear Modulus (GPa) = 27.61139 9.83933 18.72536
#
# Velocity S-wave (km/s) = 3.96386 2.36623 3.26429
# Velocity P-wave (km/s) = 7.15762 6.81839 6.99006
#
# Compressibility (1/GPa) = 0.01879157
#
# Stress axis : x y z
#
# Youngs Moduli (GPa) = 81.74722 59.41893 51.79349
#
# Poissons Ratio (x) = 0.44417 0.31714
# Poissons Ratio (y) = 0.61108 0.06168
# Poissons Ratio (z) = 0.50055 0.07076
#
# Static dielectric constant tensor:
#      x y z
#    x 3.310200 0.000000 0.000000 
#    y 0.000000 3.313890 0.000000 
#    z 0.000000 0.000000 3.093870 
# 
# 
# High freq. dielectric constant tensor:
#      x y z
#    x 1.681070 0.000000 0.000000 
#    y 0.000000 1.677620 0.000000 
#    z 0.000000 0.000000 1.648470 
# 
# From -- ./inp_files/18348.got.cif
#   From: 2010.03.12/outbox.cif.g09.slc.cpg/sg65_10_cif.got.tgz:18348.got - 2010.04.10 20:52:16.
