data_PCOD8270550
_publ_section_title
;
Structure prediction by ZEFSAII (Michael W. Deem and Ramdas Pophale) SiO2 
 PCOD8270550
Probable space group: C M M M
;
_chemical_formula_sum "Si O2"
_cell_formula_units_Z 88
_cell_length_a 9.506850
_cell_length_b 27.605667
_cell_length_c 18.217236
_cell_angle_alpha 90.000000
_cell_angle_beta 90.000000
_cell_angle_gamma 90.000000
_cell_volume 4780.984889
_symmetry_space_group_name_H-M "C M M M"
_symmetry_group_IT_number 65
_symmetry_cell_setting 'orthorhombic'
loop_
_space_group_symop_operation_xyz
x,y,z
-x,-y,z
x,-y,-z
-x,y,-z
-x,-y,-z
x,y,-z
-x,y,z
x,-y,z
1/2+x,1/2+y,z
1/2-x,1/2-y,z
1/2+x,1/2-y,-z
1/2-x,1/2+y,-z
1/2-x,1/2-y,-z
1/2+x,1/2+y,-z
1/2-x,1/2+y,z
1/2+x,1/2-y,z
loop_
_atom_site_type_symbol
_atom_site_label
_atom_site_fract_x
_atom_site_fract_y
_atom_site_fract_z
Si Si1 0.659485 0.702507 0.000000
Si Si2 0.337178 0.299041 0.158755
Si Si3 0.842973 0.057589 0.918874
Si Si4 0.164011 0.868318 0.289863
Si Si5 0.662639 0.296472 0.416366
Si Si6 0.837840 0.556894 0.782332
O O1 0.750000 0.750000 0.000000
O O2 0.687667 0.674949 0.077996
O O3 0.500000 0.720690 0.000000
O O4 0.500000 0.285573 0.170477
O O5 0.250000 0.250000 0.165294
O O6 0.287527 0.335057 0.221970
O O7 0.731234 0.075058 0.858706
O O8 0.000000 0.076248 0.897230
O O9 0.843838 0.000000 0.922157
O O10 0.802763 0.077967 0.000000
O O11 0.202177 0.842087 0.366020
O O12 0.256946 0.917018 0.284831
O O13 0.000000 0.881966 0.286059
O O14 0.699280 0.310652 0.500000
O O15 0.500000 0.282661 0.406780
O O16 0.750000 0.250000 0.390298
O O17 0.818846 0.500000 0.770477
O O18 0.000000 0.572205 0.783398
#
# Coordination Sequence:
#
# PCOD8270550 Si02
#       6
#     8  16  16  16  16  16
#     4   8  14  26  42  60  87 122 157 193 232 273
#     4   9  17  29  46  68  94 125 160 198 240 287
#     4   8  14  27  48  70  91 121 163 209 258 309
#     4  10  20  33  50  74 101 131 169 208 250 304
#     4   9  18  33  54  81 111 138 164 200 249 305
#     4  10  21  35  50  70  98 132 171 217 265 307
#
# _framework density 18.406248999999999
#
# number of rings (size 3 to 8) (size 9 to 14) (size 15 to 20)
#    0.000    2.909    0.000    1.636    0.000    2.909 
#    1.636    1.818    0.000    0.545    0.000    3.818 
#    0.000    0.000    0.000    0.000    0.000    0.000 
#
# Total GULP energy -545359.789470 kJ/mol
# GULP energy per Si atom -12394.540670 kJ/mol
# Density = 1.836436 g / cm^3
# Si number density = 18.406249 Si / 1000 Ang^3
#
#
#
# Elastic Constant Matrix: (Units=GPa)
#
#
# Indices 1 2 3 4 5 6 
#
# 1 91.8923 48.3381 50.8860 0.0000 0.0000 0.0000
# 2 48.3381 50.7219 45.8724 0.0000 0.0000 0.0000
# 3 50.8860 45.8724 104.0885 0.0000 0.0000 0.0000
# 4 0.0000 0.0000 0.0000 29.4136 0.0000 0.0000
# 5 0.0000 0.0000 0.0000 0.0000 21.3276 0.0000
# 6 0.0000 0.0000 0.0000 0.0000 0.0000 28.4298
#
#
#
# Elastic Compliance Matrix: (Units=1/GPa)
#
#
# Indices 1 2 3 4 5 6 
#
# 1 0.022220 -0.018874 -0.002545 0.000000 0.000000 0.000000
# 2 -0.018874 0.048813 -0.012285 0.000000 0.000000 0.000000
# 3 -0.002545 -0.012285 0.016265 0.000000 0.000000 0.000000
# 4 0.000000 0.000000 0.000000 0.033998 0.000000 0.000000
# 5 0.000000 0.000000 0.000000 0.000000 0.046888 0.000000
# 6 0.000000 0.000000 0.000000 0.000000 0.000000 0.035174
#
#
# Mechanical properties :
#
#
# Convention : Reuss Voigt Hill
#
# Bulk Modulus (GPa) = 50.27589 59.65509 54.96549
# Shear Modulus (GPa) = 18.02475 22.60795 20.31635
#
# Velocity S-wave (km/s) = 3.13273 3.50848 3.32591
# Velocity P-wave (km/s) = 6.36075 6.99236 6.68402
#
# Compressibility (1/GPa) = 0.01989025
#
# Stress axis : x y z
#
# Youngs Moduli (GPa) = 45.00485 20.48631 61.48023
#
# Poissons Ratio (x) = 0.38666 0.15645
# Poissons Ratio (y) = 0.84943 0.75530
# Poissons Ratio (z) = 0.11452 0.25168
#
# Static dielectric constant tensor:
#      x y z
#    x 3.194060 0.000000 0.000000 
#    y 0.000000 3.287220 0.000000 
#    z 0.000000 0.000000 3.625640 
# 
# 
# High freq. dielectric constant tensor:
#      x y z
#    x 1.708980 0.000000 0.000000 
#    y 0.000000 1.696580 0.000000 
#    z 0.000000 0.000000 1.707710 
# 
# From -- ./inp_files/50415.got.cif
#   From: 2010.03.12/outbox.cif.g09.slc.cpg/sg65_26_cif.got.tgz:50415.got - 2010.04.10 20:52:16.
