data_PCOD8270049
_publ_section_title
;
Structure prediction by ZEFSAII (Michael W. Deem and Ramdas Pophale) SiO2 
 PCOD8270049
Probable space group: C M M M
;
_chemical_formula_sum "Si O2"
_cell_formula_units_Z 120
_cell_length_a 28.138266
_cell_length_b 9.010617
_cell_length_c 26.289998
_cell_angle_alpha 90.000000
_cell_angle_beta 90.000000
_cell_angle_gamma 90.000000
_cell_volume 6665.648590
_symmetry_space_group_name_H-M "C M M M"
_symmetry_group_IT_number 65
_symmetry_cell_setting 'orthorhombic'
loop_
_space_group_symop_operation_xyz
x,y,z
-x,-y,z
x,-y,-z
-x,y,-z
-x,-y,-z
x,y,-z
-x,y,z
x,-y,z
1/2+x,1/2+y,z
1/2-x,1/2-y,z
1/2+x,1/2-y,-z
1/2-x,1/2+y,-z
1/2-x,1/2-y,-z
1/2+x,1/2+y,-z
1/2-x,1/2+y,z
1/2+x,1/2-y,z
loop_
_atom_site_type_symbol
_atom_site_label
_atom_site_fract_x
_atom_site_fract_y
_atom_site_fract_z
Si Si1 0.443937 0.332133 0.500000
Si Si2 0.298693 0.327017 0.058533
Si Si3 0.608150 0.175263 0.590422
Si Si4 0.643856 0.827053 0.858925
Si Si5 0.392292 0.175188 0.295741
Si Si6 0.447458 0.823467 0.799861
Si Si7 0.297897 0.669622 0.560046
Si Si8 0.299740 0.827109 0.757813
O O1 0.423500 0.500000 0.500000
O O2 0.500000 0.332074 0.500000
O O3 0.427052 0.250164 0.449391
O O4 0.292571 0.500000 0.068536
O O5 0.250000 0.250000 0.075984
O O6 0.342343 0.265266 0.091323
O O7 0.310175 0.290983 0.000000
O O8 0.591094 0.216731 0.647365
O O9 0.660707 0.237933 0.585782
O O10 0.608610 0.000000 0.580522
O O11 0.590938 0.774332 0.842220
O O12 0.681509 0.792695 0.814452
O O13 0.643871 0.000000 0.872723
O O14 0.430776 0.237999 0.255499
O O15 0.339280 0.234503 0.282133
O O16 0.389518 0.000000 0.288649
O O17 0.500000 0.758980 0.812414
O O18 0.449214 0.000000 0.797901
O O19 0.305295 0.676673 0.500000
O O20 0.297529 0.500000 0.579222
O O21 0.250000 0.750000 0.577181
O O22 0.250000 0.750000 0.746940
O O23 0.291176 0.000000 0.750182
#
# Coordination Sequence:
#
# PCOD8270049 Si02
#       8
#     8  16  16  16  16  16  16  16
#     4  11  25  43  58  73  98 131 163 199 249 303
#     4  10  20  32  47  70 102 139 175 210 250 295
#     4  11  21  35  57  81 105 130 163 206 248 296
#     4   9  17  29  48  74 101 132 170 211 252 294
#     4   8  17  31  47  73 104 129 155 197 249 297
#     4   8  14  28  51  76 101 129 164 208 257 304
#     4  10  20  34  53  75 102 134 167 200 241 288
#     4   9  17  30  46  68 101 134 164 196 237 288
#
# _framework density 18.002749000000001
#
# number of rings (size 3 to 8) (size 9 to 14) (size 15 to 20)
#    0.000    2.600    0.667    3.400    0.000    4.533 
#    0.000    4.000    0.000    2.400    0.000    2.800 
#    0.000    0.000    0.000    0.000    0.000    0.000 
#
# Total GULP energy -743829.374455 kJ/mol
# GULP energy per Si atom -12397.156241 kJ/mol
# Density = 1.796177 g / cm^3
# Si number density = 18.002749 Si / 1000 Ang^3
#
#
#
# Elastic Constant Matrix: (Units=GPa)
#
#
# Indices 1 2 3 4 5 6 
#
# 1 126.6705 38.0879 62.9559 0.0000 0.0000 0.0000
# 2 38.0879 73.8992 48.1764 0.0000 0.0000 0.0000
# 3 62.9559 48.1764 105.6254 0.0000 0.0000 0.0000
# 4 0.0000 0.0000 0.0000 17.5835 0.0000 0.0000
# 5 0.0000 0.0000 0.0000 0.0000 24.3137 0.0000
# 6 0.0000 0.0000 0.0000 0.0000 0.0000 22.1203
#
#
#
# Elastic Compliance Matrix: (Units=1/GPa)
#
#
# Indices 1 2 3 4 5 6 
#
# 1 0.011434 -0.002064 -0.005874 0.000000 0.000000 0.000000
# 2 -0.002064 0.019631 -0.007724 0.000000 0.000000 0.000000
# 3 -0.005874 -0.007724 0.016491 0.000000 0.000000 0.000000
# 4 0.000000 0.000000 0.000000 0.056872 0.000000 0.000000
# 5 0.000000 0.000000 0.000000 0.000000 0.041129 0.000000
# 6 0.000000 0.000000 0.000000 0.000000 0.000000 0.045207
#
#
# Mechanical properties :
#
#
# Convention : Reuss Voigt Hill
#
# Bulk Modulus (GPa) = 61.60053 67.18173 64.39113
# Shear Modulus (GPa) = 21.97815 23.26848 22.62332
#
# Velocity S-wave (km/s) = 3.49782 3.59903 3.54878
# Velocity P-wave (km/s) = 7.11369 7.39386 7.25513
#
# Compressibility (1/GPa) = 0.01623363
#
# Stress axis : x y z
#
# Youngs Moduli (GPa) = 87.45491 50.94002 60.63854
#
# Poissons Ratio (x) = 0.10514 0.35618
# Poissons Ratio (y) = 0.18051 0.46834
# Poissons Ratio (z) = 0.51370 0.39344
#
# Static dielectric constant tensor:
#      x y z
#    x 3.528470 0.000000 0.000000 
#    y 0.000000 3.147190 0.000000 
#    z 0.000000 0.000000 3.381100 
# 
# 
# High freq. dielectric constant tensor:
#      x y z
#    x 1.695890 0.000000 0.000000 
#    y 0.000000 1.676150 0.000000 
#    z 0.000000 0.000000 1.690390 
# 
# From -- ./inp_files/76141.got.cif
#   From: 2010.03.12/outbox.cif.g09.slc.cpg/sg65_39_cif.got.tgz:76141.got - 2010.04.10 20:52:16.
