data_PCOD8270539
_publ_section_title
;
Structure prediction by ZEFSAII (Michael W. Deem and Ramdas Pophale) SiO2 
 PCOD8270539
Probable space group: C M M M
;
_chemical_formula_sum "Si O2"
_cell_formula_units_Z 104
_cell_length_a 28.784881
_cell_length_b 9.248686
_cell_length_c 23.740290
_cell_angle_alpha 90.000000
_cell_angle_beta 90.000000
_cell_angle_gamma 90.000000
_cell_volume 6320.195222
_symmetry_space_group_name_H-M "C M M M"
_symmetry_group_IT_number 65
_symmetry_cell_setting 'orthorhombic'
loop_
_space_group_symop_operation_xyz
x,y,z
-x,-y,z
x,-y,-z
-x,y,-z
-x,-y,-z
x,y,-z
-x,y,z
x,-y,z
1/2+x,1/2+y,z
1/2-x,1/2-y,z
1/2+x,1/2-y,-z
1/2-x,1/2+y,-z
1/2-x,1/2-y,-z
1/2+x,1/2+y,-z
1/2-x,1/2+y,z
1/2+x,1/2-y,z
loop_
_atom_site_type_symbol
_atom_site_label
_atom_site_fract_x
_atom_site_fract_y
_atom_site_fract_z
Si Si1 0.645691 0.170160 0.772906
Si Si2 0.365222 0.165661 0.562948
Si Si3 0.701245 0.828822 0.663397
Si Si4 0.298873 0.170281 0.878465
Si Si5 0.297016 0.834340 0.000000
Si Si6 0.448630 0.832568 0.724857
Si Si7 0.447595 0.667846 0.609244
O O1 0.673383 0.227336 0.718273
O O2 0.666918 0.234556 0.830630
O O3 0.591166 0.213712 0.769362
O O4 0.650806 0.000000 0.774859
O O5 0.344562 0.184040 0.500000
O O6 0.327232 0.219074 0.607950
O O7 0.412143 0.258998 0.566126
O O8 0.378529 0.000000 0.575551
O O9 0.750000 0.750000 0.661615
O O10 0.709412 0.000000 0.664780
O O11 0.250000 0.250000 0.872679
O O12 0.290157 0.000000 0.869822
O O13 0.322752 0.200875 0.940399
O O14 0.250000 0.750000 0.000000
O O15 0.282513 0.000000 0.000000
O O16 0.500000 0.806018 0.751185
O O17 0.441171 0.738141 0.669976
O O18 0.442191 0.000000 0.707434
O O19 0.500000 0.691890 0.586785
O O20 0.435672 0.500000 0.614614
#
# Coordination Sequence:
#
# PCOD8270539 Si02
#       7
#    16  16  16  16   8  16  16
#     4   9  16  28  46  68  91 115 146 187 224 261
#     4  10  21  37  54  69  88 118 155 188 219 266
#     4  10  20  34  49  67  90 115 147 186 227 266
#     4   9  16  26  41  62  91 122 153 185 220 260
#     4   8  14  24  38  58  85 121 155 183 216 258
#     4   9  16  29  50  70  89 117 150 182 220 269
#     4  10  20  33  50  73  98 119 141 179 231 279
#
# _framework density 16.455188
#
# number of rings (size 3 to 8) (size 9 to 14) (size 15 to 20)
#    0.000    2.615    1.538    0.923    0.000    2.462 
#    0.000    2.308    0.000    0.000    0.000    0.538 
#    0.000    4.308    0.000    0.000    0.000   33.462 
#
# Total GULP energy -644390.128010 kJ/mol
# GULP energy per Si atom -12392.117846 kJ/mol
# Density = 1.641774 g / cm^3
# Si number density = 16.455188 Si / 1000 Ang^3
#
#
#
# Elastic Constant Matrix: (Units=GPa)
#
#
# Indices 1 2 3 4 5 6 
#
# 1 117.8255 30.5834 71.8815 0.0000 0.0000 0.0000
# 2 30.5834 37.7859 24.8581 0.0000 0.0000 0.0000
# 3 71.8815 24.8581 143.4522 0.0000 0.0000 0.0000
# 4 0.0000 0.0000 0.0000 10.9937 0.0000 0.0000
# 5 0.0000 0.0000 0.0000 0.0000 22.5214 0.0000
# 6 0.0000 0.0000 0.0000 0.0000 0.0000 23.9683
#
#
#
# Elastic Compliance Matrix: (Units=1/GPa)
#
#
# Indices 1 2 3 4 5 6 
#
# 1 0.013891 -0.007521 -0.005657 0.000000 0.000000 0.000000
# 2 -0.007521 0.033943 -0.002113 0.000000 0.000000 0.000000
# 3 -0.005657 -0.002113 0.010172 0.000000 0.000000 0.000000
# 4 0.000000 0.000000 0.000000 0.090961 0.000000 0.000000
# 5 0.000000 0.000000 0.000000 0.000000 0.044402 0.000000
# 6 0.000000 0.000000 0.000000 0.000000 0.000000 0.041722
#
#
# Mechanical properties :
#
#
# Convention : Reuss Voigt Hill
#
# Bulk Modulus (GPa) = 36.46652 61.52329 48.99491
# Shear Modulus (GPa) = 18.19418 22.94604 20.57011
#
# Velocity S-wave (km/s) = 3.32878 3.73829 3.53947
# Velocity P-wave (km/s) = 6.08142 7.49017 6.82225
#
# Compressibility (1/GPa) = 0.02742241
#
# Stress axis : x y z
#
# Youngs Moduli (GPa) = 71.99145 29.46153 98.31160
#
# Poissons Ratio (x) = 0.22159 0.55615
# Poissons Ratio (y) = 0.54147 0.20773
# Poissons Ratio (z) = 0.40726 0.06225
#
# Static dielectric constant tensor:
#      x y z
#    x 3.132570 0.000000 0.000000 
#    y 0.000000 2.977180 0.000000 
#    z 0.000000 0.000000 3.532980 
# 
# 
# High freq. dielectric constant tensor:
#      x y z
#    x 1.620490 0.000000 0.000000 
#    y 0.000000 1.619510 0.000000 
#    z 0.000000 0.000000 1.628430 
# 
# From -- ./inp_files/71782.got.cif
#   From: 2010.03.12/outbox.cif.g09.slc.cpg/sg65_36_cif.got.tgz:71782.got - 2010.04.10 20:52:16.
