data_PCOD8270407
_publ_section_title
;
Structure prediction by ZEFSAII (Michael W. Deem and Ramdas Pophale) SiO2 
 PCOD8270407
Probable space group: C M M M
;
_chemical_formula_sum "Si O2"
_cell_formula_units_Z 72
_cell_length_a 8.898085
_cell_length_b 18.494447
_cell_length_c 23.519821
_cell_angle_alpha 90.000000
_cell_angle_beta 90.000000
_cell_angle_gamma 90.000000
_cell_volume 3870.543140
_symmetry_space_group_name_H-M "C M M M"
_symmetry_group_IT_number 65
_symmetry_cell_setting 'orthorhombic'
loop_
_space_group_symop_operation_xyz
x,y,z
-x,-y,z
x,-y,-z
-x,y,-z
-x,-y,-z
x,y,-z
-x,y,z
x,-y,z
1/2+x,1/2+y,z
1/2-x,1/2-y,z
1/2+x,1/2-y,-z
1/2-x,1/2+y,-z
1/2-x,1/2-y,-z
1/2+x,1/2+y,-z
1/2-x,1/2+y,z
1/2+x,1/2-y,z
loop_
_atom_site_type_symbol
_atom_site_label
_atom_site_fract_x
_atom_site_fract_y
_atom_site_fract_z
Si Si1 0.677805 0.172443 0.332030
Si Si2 0.331431 0.086322 0.878432
Si Si3 0.321471 0.080892 0.437010
Si Si4 0.828260 0.914595 0.233873
Si Si5 0.321351 0.079315 0.000000
O O1 0.500000 0.180492 0.333878
O O2 0.750000 0.250000 0.324545
O O3 0.741606 0.136145 0.389988
O O4 0.721860 0.122271 0.279651
O O5 0.500000 0.113616 0.864329
O O6 0.220588 0.112758 0.828728
O O7 0.331460 0.000000 0.883088
O O8 0.275300 0.118282 0.940149
O O9 0.268116 0.105892 0.500000
O O10 0.500000 0.079263 0.434336
O O11 0.260142 0.000000 0.424369
O O12 0.000000 0.891587 0.244049
O O13 0.805458 0.000000 0.239380
O O14 0.500000 0.071442 0.000000
O O15 0.246314 0.000000 0.000000
#
# Coordination Sequence:
#
# PCOD8270407 Si02
#       5
#    16  16  16  16   8
#     4  11  22  35  52  74 101 134 170 207 250 297
#     4   8  13  23  41  65  93 126 163 201 244 294
#     4   8  15  30  53  79 103 128 162 202 242 289
#     4  10  20  33  49  71 100 132 168 211 254 296
#     4   7  10  18  35  61  92 123 156 197 242 289
#
# _framework density 18.602039999999999
#
# number of rings (size 3 to 8) (size 9 to 14) (size 15 to 20)
#    0.000    3.000    0.000    4.000    0.000    2.667 
#    0.000    0.556    0.000    5.333    0.000    8.556 
#    0.000    0.000    0.000    0.000    0.000    0.000 
#
# Total GULP energy -446065.733331 kJ/mol
# GULP energy per Si atom -12390.714815 kJ/mol
# Density = 1.855970 g / cm^3
# Si number density = 18.602040 Si / 1000 Ang^3
#
#
#
# Elastic Constant Matrix: (Units=GPa)
#
#
# Indices 1 2 3 4 5 6 
#
# 1 53.1385 23.8951 35.9319 0.0000 0.0000 0.0000
# 2 23.8951 40.6740 41.3675 0.0000 0.0000 0.0000
# 3 35.9319 41.3675 161.5912 0.0000 0.0000 0.0000
# 4 0.0000 0.0000 0.0000 0.5730 0.0000 0.0000
# 5 0.0000 0.0000 0.0000 0.0000 11.7303 0.0000
# 6 0.0000 0.0000 0.0000 0.0000 0.0000 14.3361
#
#
#
# Elastic Compliance Matrix: (Units=1/GPa)
#
#
# Indices 1 2 3 4 5 6 
#
# 1 0.026337 -0.012866 -0.002563 0.000000 0.000000 0.000000
# 2 -0.012866 0.039526 -0.007258 0.000000 0.000000 0.000000
# 3 -0.002563 -0.007258 0.008616 0.000000 0.000000 0.000000
# 4 0.000000 0.000000 0.000000 1.745272 0.000000 0.000000
# 5 0.000000 0.000000 0.000000 0.000000 0.085249 0.000000
# 6 0.000000 0.000000 0.000000 0.000000 0.000000 0.069754
#
#
# Mechanical properties :
#
#
# Convention : Reuss Voigt Hill
#
# Bulk Modulus (GPa) = 34.35697 50.86587 42.61142
# Shear Modulus (GPa) = 2.46326 15.60849 9.03588
#
# Velocity S-wave (km/s) = 1.15198 2.89982 2.20636
# Velocity P-wave (km/s) = 4.50322 6.21414 5.42653
#
# Compressibility (1/GPa) = 0.02910618
#
# Stress axis : x y z
#
# Youngs Moduli (GPa) = 37.96912 25.29998 116.05958
#
# Poissons Ratio (x) = 0.32551 0.29742
# Poissons Ratio (y) = 0.48852 0.84232
# Poissons Ratio (z) = 0.09730 0.18362
#
# Static dielectric constant tensor:
#      x y z
#    x 3.120900 0.000000 0.000000 
#    y 0.000000 3.033640 0.000000 
#    z 0.000000 0.000000 4.031110 
# 
# 
# High freq. dielectric constant tensor:
#      x y z
#    x 1.690730 0.000000 0.000000 
#    y 0.000000 1.672040 0.000000 
#    z 0.000000 0.000000 1.749760 
# 
# From -- ./inp_files/67008.got.cif
#   From: 2010.03.12/outbox.cif.g09.slc.cpg/sg65_34_cif.got.tgz:67008.got - 2010.04.10 20:52:16.
