data_PCOD8270954
_publ_section_title
;
Structure prediction by ZEFSAII (Michael W. Deem and Ramdas Pophale) SiO2 
 PCOD8270954
Probable space group: C M M M
;
_chemical_formula_sum "Si O2"
_cell_formula_units_Z 88
_cell_length_a 9.137529
_cell_length_b 19.771430
_cell_length_c 28.194694
_cell_angle_alpha 90.000000
_cell_angle_beta 90.000000
_cell_angle_gamma 90.000000
_cell_volume 5093.710230
_symmetry_space_group_name_H-M "C M M M"
_symmetry_group_IT_number 65
_symmetry_cell_setting 'orthorhombic'
loop_
_space_group_symop_operation_xyz
x,y,z
-x,-y,z
x,-y,-z
-x,y,-z
-x,-y,-z
x,y,-z
-x,y,z
x,-y,z
1/2+x,1/2+y,z
1/2-x,1/2-y,z
1/2+x,1/2-y,-z
1/2-x,1/2+y,-z
1/2-x,1/2-y,-z
1/2+x,1/2+y,-z
1/2-x,1/2+y,z
1/2+x,1/2-y,z
loop_
_atom_site_type_symbol
_atom_site_label
_atom_site_fract_x
_atom_site_fract_y
_atom_site_fract_z
Si Si1 0.171367 0.077306 0.092766
Si Si2 0.327453 0.318737 0.279406
Si Si3 0.172922 0.421021 0.347151
Si Si4 0.170237 0.817052 0.829320
Si Si5 0.834845 0.580430 0.000000
Si Si6 0.335556 0.919756 0.550096
O O1 0.219995 0.119884 0.138628
O O2 0.253947 0.107369 0.046956
O O3 0.000000 0.083364 0.082485
O O4 0.216897 0.000000 0.102958
O O5 0.500000 0.311939 0.287761
O O6 0.250000 0.250000 0.296622
O O7 0.264623 0.381299 0.308407
O O8 0.287760 0.333674 0.224777
O O9 0.204706 0.500000 0.339251
O O10 0.232759 0.396334 0.399498
O O11 0.000000 0.406213 0.342381
O O12 0.250000 0.750000 0.847616
O O13 0.000000 0.802811 0.834514
O O14 0.828493 0.500000 0.000000
O O15 0.000000 0.607938 0.000000
O O16 0.256506 0.896335 0.500000
O O17 0.500000 0.891687 0.548249
O O18 0.339678 0.000000 0.551658
#
# Coordination Sequence:
#
# PCOD8270954 Si02
#       6
#    16  16  16  16   8  16
#     4   9  17  31  51  72  94 122 155 188 224 269
#     4  10  20  34  51  69  93 127 163 198 239 287
#     4   9  17  29  47  73 101 125 154 195 238 281
#     4   9  19  34  51  70  92 121 156 194 234 277
#     4   9  17  29  46  71 100 125 151 185 226 269
#     4   7  10  19  38  64  92 121 152 186 227 276
#
# _framework density 17.276209000000001
#
# number of rings (size 3 to 8) (size 9 to 14) (size 15 to 20)
#    0.000    3.182    0.000    2.455    0.000    3.636 
#    0.000    2.273    0.000    3.273    0.000    2.545 
#    0.000    0.000    0.000    0.000    0.000    0.000 
#
# Total GULP energy -545162.389177 kJ/mol
# GULP energy per Si atom -12390.054299 kJ/mol
# Density = 1.723689 g / cm^3
# Si number density = 17.276209 Si / 1000 Ang^3
#
#
#
# Elastic Constant Matrix: (Units=GPa)
#
#
# Indices 1 2 3 4 5 6 
#
# 1 54.6536 38.9416 49.4606 0.0000 0.0000 0.0000
# 2 38.9416 74.8494 66.6426 0.0000 0.0000 0.0000
# 3 49.4606 66.6426 132.0154 0.0000 0.0000 0.0000
# 4 0.0000 0.0000 0.0000 4.5193 0.0000 0.0000
# 5 0.0000 0.0000 0.0000 0.0000 18.6934 0.0000
# 6 0.0000 0.0000 0.0000 0.0000 0.0000 24.4386
#
#
#
# Elastic Compliance Matrix: (Units=1/GPa)
#
#
# Indices 1 2 3 4 5 6 
#
# 1 0.031863 -0.010805 -0.006483 0.000000 0.000000 0.000000
# 2 -0.010805 0.027931 -0.010052 0.000000 0.000000 0.000000
# 3 -0.006483 -0.010052 0.015078 0.000000 0.000000 0.000000
# 4 0.000000 0.000000 0.000000 0.221273 0.000000 0.000000
# 5 0.000000 0.000000 0.000000 0.000000 0.053495 0.000000
# 6 0.000000 0.000000 0.000000 0.000000 0.000000 0.040919
#
#
# Mechanical properties :
#
#
# Convention : Reuss Voigt Hill
#
# Bulk Modulus (GPa) = 49.52347 63.51200 56.51773
# Shear Modulus (GPa) = 11.06269 16.62850 13.84559
#
# Velocity S-wave (km/s) = 2.53324 3.10580 2.83402
# Velocity P-wave (km/s) = 6.10609 7.05009 6.59500
#
# Compressibility (1/GPa) = 0.02019245
#
# Stress axis : x y z
#
# Youngs Moduli (GPa) = 31.38450 35.80223 66.32085
#
# Poissons Ratio (x) = 0.38683 0.42998
# Poissons Ratio (y) = 0.33910 0.66665
# Poissons Ratio (z) = 0.20348 0.35988
#
# Static dielectric constant tensor:
#      x y z
#    x 3.028450 0.000000 0.000000 
#    y 0.000000 2.966980 0.000000 
#    z 0.000000 0.000000 3.659670 
# 
# 
# High freq. dielectric constant tensor:
#      x y z
#    x 1.645140 0.000000 0.000000 
#    y 0.000000 1.633650 0.000000 
#    z 0.000000 0.000000 1.685630 
# 
# From -- ./inp_files/75376.got.cif
#   From: 2010.03.12/outbox.cif.g09.slc.cpg/sg65_38_cif.got.tgz:75376.got - 2010.04.10 20:52:16.
