data_PCOD8270381
_publ_section_title
;
Structure prediction by ZEFSAII (Michael W. Deem and Ramdas Pophale) SiO2 
 PCOD8270381
Probable space group: C M M M
;
_chemical_formula_sum "Si O2"
_cell_formula_units_Z 96
_cell_length_a 26.791858
_cell_length_b 9.053321
_cell_length_c 24.176570
_cell_angle_alpha 90.000000
_cell_angle_beta 90.000000
_cell_angle_gamma 90.000000
_cell_volume 5864.154964
_symmetry_space_group_name_H-M "C M M M"
_symmetry_group_IT_number 65
_symmetry_cell_setting 'orthorhombic'
loop_
_space_group_symop_operation_xyz
x,y,z
-x,-y,z
x,-y,-z
-x,y,-z
-x,-y,-z
x,y,-z
-x,y,z
x,-y,z
1/2+x,1/2+y,z
1/2-x,1/2-y,z
1/2+x,1/2-y,-z
1/2-x,1/2+y,-z
1/2-x,1/2-y,-z
1/2+x,1/2+y,-z
1/2-x,1/2+y,z
1/2+x,1/2-y,z
loop_
_atom_site_type_symbol
_atom_site_label
_atom_site_fract_x
_atom_site_fract_y
_atom_site_fract_z
Si Si1 0.942893 0.830677 0.287329
Si Si2 0.696947 0.173029 0.119227
Si Si3 0.800415 0.669735 0.333335
Si Si4 0.901451 0.673402 0.608170
Si Si5 0.140063 0.325480 0.773495
Si Si6 0.058086 0.174962 0.500000
Si Si7 0.198215 0.329469 0.000000
O O1 0.935368 0.737446 0.342979
O O2 0.911038 0.761674 0.237310
O O3 0.000000 0.820084 0.268815
O O4 0.926947 0.000000 0.298152
O O5 0.750000 0.250000 0.126145
O O6 0.659516 0.227552 0.166748
O O7 0.671438 0.210013 0.058712
O O8 0.706579 0.000000 0.126471
O O9 0.786551 0.500000 0.331262
O O10 0.750000 0.750000 0.351039
O O11 0.843201 0.702037 0.378570
O O12 0.819570 0.721283 0.272955
O O13 0.912836 0.500000 0.602181
O O14 0.914732 0.757668 0.552670
O O15 0.129201 0.500000 0.770320
O O16 0.000000 0.219381 0.500000
O O17 0.064907 0.000000 0.500000
O O18 0.250000 0.250000 0.000000
O O19 0.211141 0.500000 0.000000
#
# Coordination Sequence:
#
# PCOD8270381 Si02
#       7
#    16  16  16  16  16   8   8
#     4  10  20  33  49  70  94 118 147 187 233 277
#     4   9  16  26  41  63  92 124 157 191 227 270
#     4   9  18  31  47  68  93 121 153 187 221 262
#     4  10  21  36  53  74  98 124 155 186 222 273
#     4   9  18  30  44  66  93 121 155 190 226 273
#     4  11  23  37  54  77 100 121 152 193 232 271
#     4   8  14  24  38  58  87 122 155 189 228 267
#
# _framework density 16.370646000000001
#
# number of rings (size 3 to 8) (size 9 to 14) (size 15 to 20)
#    0.000    2.583    0.000    3.250    0.000    8.000 
#    0.000    0.417    0.000    0.000    0.000    0.583 
#    0.000    4.667    0.000    0.000    0.000    0.000 
#
# Total GULP energy -594961.206892 kJ/mol
# GULP energy per Si atom -12395.025144 kJ/mol
# Density = 1.633339 g / cm^3
# Si number density = 16.370646 Si / 1000 Ang^3
#
#
#
# Elastic Constant Matrix: (Units=GPa)
#
#
# Indices 1 2 3 4 5 6 
#
# 1 94.2865 46.6541 58.2167 0.0000 0.0000 0.0000
# 2 46.6541 64.5141 44.8823 0.0000 0.0000 0.0000
# 3 58.2167 44.8823 148.6411 0.0000 0.0000 0.0000
# 4 0.0000 0.0000 0.0000 17.2989 0.0000 0.0000
# 5 0.0000 0.0000 0.0000 0.0000 18.9656 0.0000
# 6 0.0000 0.0000 0.0000 0.0000 0.0000 29.0975
#
#
#
# Elastic Compliance Matrix: (Units=1/GPa)
#
#
# Indices 1 2 3 4 5 6 
#
# 1 0.018216 -0.010393 -0.003996 0.000000 0.000000 0.000000
# 2 -0.010393 0.025552 -0.003645 0.000000 0.000000 0.000000
# 3 -0.003996 -0.003645 0.009393 0.000000 0.000000 0.000000
# 4 0.000000 0.000000 0.000000 0.057807 0.000000 0.000000
# 5 0.000000 0.000000 0.000000 0.000000 0.052727 0.000000
# 6 0.000000 0.000000 0.000000 0.000000 0.000000 0.034367
#
#
# Mechanical properties :
#
#
# Convention : Reuss Voigt Hill
#
# Bulk Modulus (GPa) = 58.50326 67.43866 62.97096
# Shear Modulus (GPa) = 20.84819 23.58497 22.21658
#
# Velocity S-wave (km/s) = 3.57250 3.79976 3.68788
# Velocity P-wave (km/s) = 7.26851 7.78043 7.52883
#
# Compressibility (1/GPa) = 0.01709306
#
# Stress axis : x y z
#
# Youngs Moduli (GPa) = 54.89669 39.13579 106.45748
#
# Poissons Ratio (x) = 0.40673 0.42544
# Poissons Ratio (y) = 0.57054 0.38804
# Poissons Ratio (z) = 0.21939 0.14265
#
# Static dielectric constant tensor:
#      x y z
#    x 2.927430 0.000000 0.000000 
#    y 0.000000 1.863370 0.000000 
#    z 0.000000 0.000000 3.474260 
# 
# 
# High freq. dielectric constant tensor:
#      x y z
#    x 1.607410 0.000000 0.000000 
#    y 0.000000 1.638600 0.000000 
#    z 0.000000 0.000000 1.630640 
# 
# From -- ./inp_files/71758.got.cif
#   From: 2010.03.12/outbox.cif.g09.slc.cpg/sg65_36_cif.got.tgz:71758.got - 2010.04.10 20:52:16.
