data_PCOD8270194
_publ_section_title
;
Structure prediction by ZEFSAII (Michael W. Deem and Ramdas Pophale) SiO2 
 PCOD8270194
Probable space group: C M M M
;
_chemical_formula_sum "Si O2"
_cell_formula_units_Z 96
_cell_length_a 30.433024
_cell_length_b 9.206783
_cell_length_c 18.494821
_cell_angle_alpha 90.000000
_cell_angle_beta 90.000000
_cell_angle_gamma 90.000000
_cell_volume 5182.068483
_symmetry_space_group_name_H-M "C M M M"
_symmetry_group_IT_number 65
_symmetry_cell_setting 'orthorhombic'
loop_
_space_group_symop_operation_xyz
x,y,z
-x,-y,z
x,-y,-z
-x,y,-z
-x,-y,-z
x,y,-z
-x,y,z
x,-y,z
1/2+x,1/2+y,z
1/2-x,1/2-y,z
1/2+x,1/2-y,-z
1/2-x,1/2+y,-z
1/2-x,1/2-y,-z
1/2+x,1/2+y,-z
1/2-x,1/2+y,z
1/2+x,1/2-y,z
loop_
_atom_site_type_symbol
_atom_site_label
_atom_site_fract_x
_atom_site_fract_y
_atom_site_fract_z
Si Si1 0.050267 0.169477 0.846794
Si Si2 0.548312 0.327518 0.315865
Si Si3 0.205857 0.330646 0.817728
Si Si4 0.294522 0.170319 0.348887
Si Si5 0.872782 0.331623 0.082530
Si Si6 0.625942 0.667608 0.416396
O O1 0.060003 0.224162 0.765205
O O2 0.081628 0.251993 0.901933
O O3 0.000000 0.203776 0.867943
O O4 0.060082 0.000000 0.853632
O O5 0.500000 0.267192 0.337970
O O6 0.546647 0.500000 0.317598
O O7 0.584697 0.269208 0.371400
O O8 0.213807 0.500000 0.831118
O O9 0.250000 0.250000 0.841833
O O10 0.194124 0.297059 0.734580
O O11 0.166021 0.270487 0.866469
O O12 0.250000 0.250000 0.371814
O O13 0.332343 0.234409 0.398972
O O14 0.289291 0.000000 0.363934
O O15 0.880404 0.500000 0.098719
O O16 0.858959 0.303373 0.000000
O O17 0.613744 0.682914 0.500000
O O18 0.635889 0.500000 0.395875
#
# Coordination Sequence:
#
# PCOD8270194 Si02
#       6
#    16  16  16  16  16  16
#     4   9  18  33  53  75  98 128 169 212 247 284
#     4   8  15  30  52  76 101 130 165 205 247 289
#     4   9  19  35  54  76  99 126 164 206 246 291
#     4  10  20  35  55  75  97 128 166 207 248 291
#     4  10  21  35  50  72 104 136 163 197 245 299
#     4  10  20  32  49  76 106 133 163 201 245 294
#
# _framework density 18.525421000000001
#
# number of rings (size 3 to 8) (size 9 to 14) (size 15 to 20)
#    0.000    2.667    0.000    2.500    0.000    3.667 
#    0.000    3.333    0.000    1.500    0.000    1.167 
#    0.000    0.000    0.000    0.000    0.000    0.000 
#
# Total GULP energy -595258.757060 kJ/mol
# GULP energy per Si atom -12401.224105 kJ/mol
# Density = 1.848326 g / cm^3
# Si number density = 18.525421 Si / 1000 Ang^3
#
#
#
# Elastic Constant Matrix: (Units=GPa)
#
#
# Indices 1 2 3 4 5 6 
#
# 1 101.1123 34.3803 33.4044 0.0000 0.0000 0.0000
# 2 34.3803 47.5345 20.7866 0.0000 0.0000 0.0000
# 3 33.4044 20.7866 53.0546 0.0000 0.0000 0.0000
# 4 0.0000 0.0000 0.0000 22.0228 0.0000 0.0000
# 5 0.0000 0.0000 0.0000 0.0000 18.9689 0.0000
# 6 0.0000 0.0000 0.0000 0.0000 0.0000 29.3942
#
#
#
# Elastic Compliance Matrix: (Units=1/GPa)
#
#
# Indices 1 2 3 4 5 6 
#
# 1 0.014584 -0.007883 -0.006094 0.000000 0.000000 0.000000
# 2 -0.007883 0.029648 -0.006653 0.000000 0.000000 0.000000
# 3 -0.006094 -0.006653 0.025292 0.000000 0.000000 0.000000
# 4 0.000000 0.000000 0.000000 0.045407 0.000000 0.000000
# 5 0.000000 0.000000 0.000000 0.000000 0.052718 0.000000
# 6 0.000000 0.000000 0.000000 0.000000 0.000000 0.034020
#
#
# Mechanical properties :
#
#
# Convention : Reuss Voigt Hill
#
# Bulk Modulus (GPa) = 35.37983 42.09378 38.73681
# Shear Modulus (GPa) = 19.81381 21.61919 20.71650
#
# Velocity S-wave (km/s) = 3.27394 3.41985 3.34769
# Velocity P-wave (km/s) = 5.78196 6.19397 5.99151
#
# Compressibility (1/GPa) = 0.02826469
#
# Stress axis : x y z
#
# Youngs Moduli (GPa) = 68.57032 33.72888 39.53882
#
# Poissons Ratio (x) = 0.26589 0.24093
# Poissons Ratio (y) = 0.54055 0.26304
# Poissons Ratio (z) = 0.41784 0.22438
#
# Static dielectric constant tensor:
#      x y z
#    x 3.627130 0.000000 0.000000 
#    y 0.000000 3.160180 0.000000 
#    z 0.000000 0.000000 3.390560 
# 
# 
# High freq. dielectric constant tensor:
#      x y z
#    x 1.727560 0.000000 0.000000 
#    y 0.000000 1.695150 0.000000 
#    z 0.000000 0.000000 1.715920 
# 
# From -- ./inp_files/57465.got.cif
#   From: 2010.03.12/outbox.cif.g09.slc.cpg/sg65_29_cif.got.tgz:57465.got - 2010.04.10 20:52:16.
