data_PCOD8270283
_publ_section_title
;
Structure prediction by ZEFSAII (Michael W. Deem and Ramdas Pophale) SiO2 
 PCOD8270283
Probable space group: C M M M
;
_chemical_formula_sum "Si O2"
_cell_formula_units_Z 88
_cell_length_a 19.113933
_cell_length_b 19.265947
_cell_length_c 13.229534
_cell_angle_alpha 90.000000
_cell_angle_beta 90.000000
_cell_angle_gamma 90.000000
_cell_volume 4871.749703
_symmetry_space_group_name_H-M "C M M M"
_symmetry_group_IT_number 65
_symmetry_cell_setting 'orthorhombic'
loop_
_space_group_symop_operation_xyz
x,y,z
-x,-y,z
x,-y,-z
-x,y,-z
-x,-y,-z
x,y,-z
-x,y,z
x,-y,z
1/2+x,1/2+y,z
1/2-x,1/2-y,z
1/2+x,1/2-y,-z
1/2-x,1/2+y,-z
1/2-x,1/2-y,-z
1/2+x,1/2+y,-z
1/2-x,1/2+y,z
1/2+x,1/2-y,z
loop_
_atom_site_type_symbol
_atom_site_label
_atom_site_fract_x
_atom_site_fract_y
_atom_site_fract_z
Si Si1 0.583007 0.079303 0.000000
Si Si2 0.825336 0.418922 0.617054
Si Si3 0.791624 0.185986 0.383452
Si Si4 0.080486 0.197024 0.252523
Si Si5 0.917201 0.924395 0.111717
Si Si6 0.580825 0.855157 0.791412
O O1 0.611948 0.115285 0.897235
O O2 0.500000 0.085865 0.000000
O O3 0.608410 0.000000 0.000000
O O4 0.847921 0.404351 0.500000
O O5 0.818557 0.500000 0.638514
O O6 0.749488 0.385356 0.639498
O O7 0.881821 0.386392 0.692815
O O8 0.796547 0.201473 0.500000
O O9 0.750000 0.250000 0.330854
O O10 0.871885 0.185734 0.349805
O O11 0.111100 0.139857 0.175617
O O12 0.089819 0.272468 0.203600
O O13 0.000000 0.183391 0.283324
O O14 0.000000 0.918668 0.105020
O O15 0.896135 0.000000 0.158092
O O16 0.884707 0.918059 0.000000
O O17 0.500000 0.876578 0.780139
#
# Coordination Sequence:
#
# PCOD8270283 Si02
#       6
#     8  16  16  16  16  16
#     4   9  18  32  50  73 107 151 186 217 267 323
#     4  10  21  37  58  81 105 142 187 227 272 323
#     4  10  20  37  56  74 104 144 178 214 265 325
#     4  10  20  32  54  85 109 137 177 222 269 316
#     4   8  15  29  50  76 106 139 174 215 263 312
#     4  10  20  33  53  83 114 145 183 225 268 321
#
# _framework density 18.063326
#
# number of rings (size 3 to 8) (size 9 to 14) (size 15 to 20)
#    0.000    2.455    1.818    1.091    1.273    2.545 
#    0.000    2.727    2.000    1.636    0.000    5.091 
#    0.000    0.000    0.000    0.000    0.000    0.000 
#
# Total GULP energy -545312.208607 kJ/mol
# GULP energy per Si atom -12393.459287 kJ/mol
# Density = 1.802221 g / cm^3
# Si number density = 18.063326 Si / 1000 Ang^3
#
#
#
# Elastic Constant Matrix: (Units=GPa)
#
#
# Indices 1 2 3 4 5 6 
#
# 1 72.1579 42.9254 50.5493 0.0000 0.0000 0.0000
# 2 42.9254 146.1370 57.9936 0.0000 0.0000 0.0000
# 3 50.5493 57.9936 89.8468 0.0000 0.0000 0.0000
# 4 0.0000 0.0000 0.0000 28.8999 0.0000 0.0000
# 5 0.0000 0.0000 0.0000 0.0000 13.1914 0.0000
# 6 0.0000 0.0000 0.0000 0.0000 0.0000 22.4118
#
#
#
# Elastic Compliance Matrix: (Units=1/GPa)
#
#
# Indices 1 2 3 4 5 6 
#
# 1 0.023396 -0.002216 -0.011732 0.000000 0.000000 0.000000
# 2 -0.002216 0.009409 -0.004827 0.000000 0.000000 0.000000
# 3 -0.011732 -0.004827 0.020846 0.000000 0.000000 0.000000
# 4 0.000000 0.000000 0.000000 0.034602 0.000000 0.000000
# 5 0.000000 0.000000 0.000000 0.000000 0.075807 0.000000
# 6 0.000000 0.000000 0.000000 0.000000 0.000000 0.044619
#
#
# Mechanical properties :
#
#
# Convention : Reuss Voigt Hill
#
# Bulk Modulus (GPa) = 62.10747 67.89756 65.00252
# Shear Modulus (GPa) = 19.87303 23.34552 21.60928
#
# Velocity S-wave (km/s) = 3.32050 3.59893 3.46252
# Velocity P-wave (km/s) = 7.01134 7.41215 7.21453
#
# Compressibility (1/GPa) = 0.01610112
#
# Stress axis : x y z
#
# Youngs Moduli (GPa) = 42.74260 106.27831 47.97019
#
# Poissons Ratio (x) = 0.23554 0.56280
# Poissons Ratio (y) = 0.09473 0.23153
# Poissons Ratio (z) = 0.50147 0.51295
#
# Static dielectric constant tensor:
#      x y z
#    x 3.087670 0.000000 0.000000 
#    y 0.000000 3.683030 0.000000 
#    z 0.000000 0.000000 3.429970 
# 
# 
# High freq. dielectric constant tensor:
#      x y z
#    x 1.666780 0.000000 0.000000 
#    y 0.000000 1.718690 0.000000 
#    z 0.000000 0.000000 1.693460 
# 
# From -- ./inp_files/28687.got.cif
#   From: 2010.03.12/outbox.cif.g09.slc.cpg/sg65_15_cif.got.tgz:28687.got - 2010.04.10 20:52:16.
