data_PCOD8270910
_publ_section_title
;
Structure prediction by ZEFSAII (Michael W. Deem and Ramdas Pophale) SiO2 
 PCOD8270910
Probable space group: C M M M
;
_chemical_formula_sum "Si O2"
_cell_formula_units_Z 128
_cell_length_a 14.794720
_cell_length_b 22.704260
_cell_length_c 22.609001
_cell_angle_alpha 90.000000
_cell_angle_beta 90.000000
_cell_angle_gamma 90.000000
_cell_volume 7594.435095
_symmetry_space_group_name_H-M "C M M M"
_symmetry_group_IT_number 65
_symmetry_cell_setting 'orthorhombic'
loop_
_space_group_symop_operation_xyz
x,y,z
-x,-y,z
x,-y,-z
-x,y,-z
-x,-y,-z
x,y,-z
-x,y,z
x,-y,z
1/2+x,1/2+y,z
1/2-x,1/2-y,z
1/2+x,1/2-y,-z
1/2-x,1/2+y,-z
1/2-x,1/2-y,-z
1/2+x,1/2+y,-z
1/2-x,1/2+y,z
1/2+x,1/2-y,z
loop_
_atom_site_type_symbol
_atom_site_label
_atom_site_fract_x
_atom_site_fract_y
_atom_site_fract_z
Si Si1 0.398235 0.429857 0.434131
Si Si2 0.745783 0.936015 0.063342
Si Si3 0.278909 0.430849 0.329196
Si Si4 0.102918 0.067243 0.780458
Si Si5 0.396177 0.883450 0.141032
Si Si6 0.896256 0.142150 0.896001
Si Si7 0.398691 0.931411 0.732023
Si Si8 0.105875 0.728969 0.067038
O O1 0.373742 0.406962 0.500000
O O2 0.500000 0.409185 0.416804
O O3 0.395346 0.500000 0.433256
O O4 0.324042 0.402769 0.388289
O O5 0.670169 0.931305 0.113598
O O6 0.828934 0.891195 0.061055
O O7 0.790216 0.000000 0.071003
O O8 0.695895 0.929428 0.000000
O O9 0.288283 0.500000 0.335961
O O10 0.334983 0.410013 0.272466
O O11 0.173564 0.413191 0.318909
O O12 0.120003 0.114735 0.831465
O O13 0.000000 0.068970 0.758542
O O14 0.127724 0.000000 0.800428
O O15 0.500000 0.896530 0.123878
O O16 0.384533 0.888223 0.211799
O O17 0.361610 0.821887 0.112305
O O18 0.867600 0.210469 0.900186
O O19 0.000000 0.133363 0.916432
O O20 0.500000 0.922683 0.706399
O O21 0.384271 0.000000 0.750946
O O22 0.000000 0.724762 0.059626
O O23 0.148133 0.723919 0.000000
#
# Coordination Sequence:
#
# PCOD8270910 Si02
#       8
#    16  16  16  16  16  16  16  16
#     4   8  13  21  35  58  88 121 154 181 204 236
#     4  11  23  34  46  66  86 107 139 175 218 275
#     4   9  15  24  39  58  84 114 144 180 213 246
#     4   9  16  25  40  62  85 112 144 175 213 259
#     4  10  20  35  52  67  85 108 139 186 236 277
#     4  10  20  34  49  65  89 117 144 178 217 265
#     4   9  17  28  43  62  82 108 141 177 223 273
#     4   9  18  33  52  69  84 110 147 182 225 282
#
# _framework density 16.854447
#
# number of rings (size 3 to 8) (size 9 to 14) (size 15 to 20)
#    0.000    2.625    0.000    3.000    0.000    6.000 
#    0.000    2.500    0.000    0.375    0.000    2.625 
#    0.000    0.000    0.000    2.250    0.000   20.250 
#
# Total GULP energy -792903.347073 kJ/mol
# GULP energy per Si atom -12389.114798 kJ/mol
# Density = 1.681609 g / cm^3
# Si number density = 16.854447 Si / 1000 Ang^3
#
#
#
# Elastic Constant Matrix: (Units=GPa)
#
#
# Indices 1 2 3 4 5 6 
#
# 1 93.4787 23.3465 59.0494 0.0000 0.0000 0.0000
# 2 23.3465 60.4969 30.8875 0.0000 0.0000 0.0000
# 3 59.0494 30.8875 101.9427 0.0000 0.0000 0.0000
# 4 0.0000 0.0000 0.0000 -1.3855 0.0000 0.0000
# 5 0.0000 0.0000 0.0000 0.0000 25.6902 0.0000
# 6 0.0000 0.0000 0.0000 0.0000 0.0000 14.4850
#
#
#
# Elastic Compliance Matrix: (Units=1/GPa)
#
#
# Indices 1 2 3 4 5 6 
#
# 1 0.017038 -0.001818 -0.009318 0.000000 0.000000 0.000000
# 2 -0.001818 0.019749 -0.004931 0.000000 0.000000 0.000000
# 3 -0.009318 -0.004931 0.016701 0.000000 0.000000 0.000000
# 4 0.000000 0.000000 0.000000 -0.721777 0.000000 0.000000
# 5 0.000000 0.000000 0.000000 0.000000 0.038925 0.000000
# 6 0.000000 0.000000 0.000000 0.000000 0.000000 0.069037
#
#
# Mechanical properties :
#
#
# Convention : Reuss Voigt Hill
#
# Bulk Modulus (GPa) = 46.82937 53.60945 50.21941
# Shear Modulus (GPa) = -9.59554 17.26695 3.83571
#
# Velocity S-wave (km/s) = -2.38863 3.20421 1.51021
# Velocity P-wave (km/s) = 4.49861 6.75023 5.73599
#
# Compressibility (1/GPa) = 0.02135412
#
# Stress axis : x y z
#
# Youngs Moduli (GPa) = 58.69294 50.63628 59.87681
#
# Poissons Ratio (x) = 0.09203 0.55795
# Poissons Ratio (y) = 0.10668 0.29524
# Poissons Ratio (z) = 0.54692 0.24968
#
# Static dielectric constant tensor:
#      x y z
#    x 3.316250 0.000000 0.000000 
#    y 0.000000 2.984500 0.000000 
#    z 0.000000 0.000000 3.174040 
# 
# 
# High freq. dielectric constant tensor:
#      x y z
#    x 1.658980 0.000000 0.000000 
#    y 0.000000 1.607730 0.000000 
#    z 0.000000 0.000000 1.627710 
# 
# From -- ./inp_files/64113.got.cif
#   From: 2010.03.12/outbox.cif.g09.slc.cpg/sg65_33_cif.got.tgz:64113.got - 2010.04.10 20:52:16.
