data_PCOD8270224
_publ_section_title
;
Structure prediction by ZEFSAII (Michael W. Deem and Ramdas Pophale) SiO2 
 PCOD8270224
Probable space group: C M M M
;
_chemical_formula_sum "Si O2"
_cell_formula_units_Z 96
_cell_length_a 16.682388
_cell_length_b 22.296427
_cell_length_c 13.850648
_cell_angle_alpha 90.000000
_cell_angle_beta 90.000000
_cell_angle_gamma 90.000000
_cell_volume 5151.854429
_symmetry_space_group_name_H-M "C M M M"
_symmetry_group_IT_number 65
_symmetry_cell_setting 'orthorhombic'
loop_
_space_group_symop_operation_xyz
x,y,z
-x,-y,z
x,-y,-z
-x,y,-z
-x,-y,-z
x,y,-z
-x,y,z
x,-y,z
1/2+x,1/2+y,z
1/2-x,1/2-y,z
1/2+x,1/2-y,-z
1/2-x,1/2+y,-z
1/2-x,1/2-y,-z
1/2+x,1/2+y,-z
1/2-x,1/2+y,z
1/2+x,1/2-y,z
loop_
_atom_site_type_symbol
_atom_site_label
_atom_site_fract_x
_atom_site_fract_y
_atom_site_fract_z
Si Si1 0.591568 0.429798 0.785513
Si Si2 0.656914 0.639667 0.389429
Si Si3 0.241280 0.114126 0.108150
Si Si4 0.177513 0.373536 0.302245
Si Si5 0.150409 0.500000 0.099946
Si Si6 0.590025 0.000000 0.294572
Si Si7 0.408323 0.233580 0.389845
O O1 0.500000 0.417999 0.816685
O O2 0.611817 0.500000 0.784035
O O3 0.606064 0.404688 0.677976
O O4 0.648450 0.396347 0.862890
O O5 0.629864 0.628813 0.500000
O O6 0.751058 0.627325 0.379296
O O7 0.642683 0.708625 0.358658
O O8 0.287686 0.146644 0.196612
O O9 0.287703 0.053046 0.105349
O O10 0.244763 0.144952 0.000000
O O11 0.138703 0.439450 0.318731
O O12 0.111717 0.323555 0.324456
O O13 0.081160 0.500000 0.179067
O O14 0.101703 0.500000 0.000000
O O15 0.500000 0.000000 0.340087
O O16 0.390304 0.215941 0.500000
O O17 0.500000 0.250884 0.373341
#
# Coordination Sequence:
#
# PCOD8270224 Si02
#       7
#    16  16  16  16   8   8  16
#     4  10  20  32  49  78 111 142 180 226 279 330
#     4  10  21  36  56  78 105 140 184 227 269 327
#     4   9  17  31  51  75 104 139 180 222 266 319
#     4  10  20  34  56  79 108 142 184 227 268 326
#     4   8  14  27  47  69  96 130 168 210 256 309
#     4  10  20  33  49  75 110 142 172 218 273 319
#     4  10  20  36  58  82 106 138 182 229 276 325
#
# _framework density 18.634067000000002
#
# number of rings (size 3 to 8) (size 9 to 14) (size 15 to 20)
#    0.000    2.333    0.833    2.000    3.500    3.167 
#    0.000    2.917    0.000   12.500    0.000    0.000 
#    0.000    0.000    0.000    0.000    0.000    0.000 
#
# Total GULP energy -594656.133788 kJ/mol
# GULP energy per Si atom -12388.669454 kJ/mol
# Density = 1.859165 g / cm^3
# Si number density = 18.634067 Si / 1000 Ang^3
#
#
#
# Elastic Constant Matrix: (Units=GPa)
#
#
# Indices 1 2 3 4 5 6 
#
# 1 96.9129 49.5512 28.8310 0.0000 0.0000 0.0000
# 2 49.5512 75.9384 31.6000 0.0000 0.0000 0.0000
# 3 28.8310 31.6000 85.6404 0.0000 0.0000 0.0000
# 4 0.0000 0.0000 0.0000 12.3897 0.0000 0.0000
# 5 0.0000 0.0000 0.0000 0.0000 21.1718 0.0000
# 6 0.0000 0.0000 0.0000 0.0000 0.0000 -1.2332
#
#
#
# Elastic Compliance Matrix: (Units=1/GPa)
#
#
# Indices 1 2 3 4 5 6 
#
# 1 0.015711 -0.009511 -0.001780 0.000000 0.000000 0.000000
# 2 -0.009511 0.021315 -0.004663 0.000000 0.000000 0.000000
# 3 -0.001780 -0.004663 0.013996 0.000000 0.000000 0.000000
# 4 0.000000 0.000000 0.000000 0.080712 0.000000 0.000000
# 5 0.000000 0.000000 0.000000 0.000000 0.047233 0.000000
# 6 0.000000 0.000000 0.000000 0.000000 0.000000 -0.810893
#
#
# Mechanical properties :
#
#
# Convention : Reuss Voigt Hill
#
# Bulk Modulus (GPa) = 52.31512 53.16179 52.73846
# Shear Modulus (GPa) = -8.42253 16.36629 3.97188
#
# Velocity S-wave (km/s) = -2.12833 2.96683 1.46156
# Velocity P-wave (km/s) = 4.70066 6.35038 5.58675
#
# Compressibility (1/GPa) = 0.01911493
#
# Stress axis : x y z
#
# Youngs Moduli (GPa) = 63.64966 46.91494 71.44677
#
# Poissons Ratio (x) = 0.44622 0.12715
# Poissons Ratio (y) = 0.60538 0.33316
# Poissons Ratio (z) = 0.11328 0.21877
#
# Static dielectric constant tensor:
#      x y z
#    x 3.375620 0.000000 0.000000 
#    y 0.000000 3.305420 0.000000 
#    z 0.000000 0.000000 3.878150 
# 
# 
# High freq. dielectric constant tensor:
#      x y z
#    x 1.729000 0.000000 0.000000 
#    y 0.000000 1.705210 0.000000 
#    z 0.000000 0.000000 1.719260 
# 
# From -- ./inp_files/40409.got.cif
#   From: 2010.03.12/outbox.cif.g09.slc.cpg/sg65_21_cif.got.tgz:40409.got - 2010.04.10 20:52:16.
