data_PCOD8270493
_publ_section_title
;
Structure prediction by ZEFSAII (Michael W. Deem and Ramdas Pophale) SiO2 
 PCOD8270493
Probable space group: C M M M
;
_chemical_formula_sum "Si O2"
_cell_formula_units_Z 88
_cell_length_a 18.147511
_cell_length_b 9.012842
_cell_length_c 28.769170
_cell_angle_alpha 90.000000
_cell_angle_beta 90.000000
_cell_angle_gamma 90.000000
_cell_volume 4705.504126
_symmetry_space_group_name_H-M "C M M M"
_symmetry_group_IT_number 65
_symmetry_cell_setting 'orthorhombic'
loop_
_space_group_symop_operation_xyz
x,y,z
-x,-y,z
x,-y,-z
-x,y,-z
-x,-y,-z
x,y,-z
-x,y,z
x,-y,z
1/2+x,1/2+y,z
1/2-x,1/2-y,z
1/2+x,1/2-y,-z
1/2-x,1/2+y,-z
1/2-x,1/2-y,-z
1/2+x,1/2+y,-z
1/2-x,1/2+y,z
1/2+x,1/2-y,z
loop_
_atom_site_type_symbol
_atom_site_label
_atom_site_fract_x
_atom_site_fract_y
_atom_site_fract_z
Si Si1 0.917314 0.676495 0.500000
Si Si2 0.671556 0.672293 0.760227
Si Si3 0.328713 0.175424 0.410587
Si Si4 0.171515 0.172232 0.136884
Si Si5 0.414789 0.827946 0.681220
Si Si6 0.829318 0.326672 0.050505
O O1 0.920741 0.500000 0.500000
O O2 0.875126 0.734675 0.454436
O O3 0.000000 0.741915 0.500000
O O4 0.684911 0.500000 0.750302
O O5 0.750000 0.750000 0.753169
O O6 0.636789 0.696556 0.811971
O O7 0.611511 0.735005 0.725232
O O8 0.250000 0.250000 0.411170
O O9 0.370767 0.224517 0.364125
O O10 0.318721 0.000000 0.413068
O O11 0.250000 0.250000 0.138963
O O12 0.126455 0.250812 0.094057
O O13 0.179816 0.000000 0.125195
O O14 0.500000 0.794651 0.671991
O O15 0.400703 0.000000 0.691752
O O16 0.820289 0.500000 0.060578
O O17 0.750000 0.250000 0.048497
O O18 0.868563 0.301397 0.000000
#
# Coordination Sequence:
#
# PCOD8270493 Si02
#       6
#     8  16  16  16  16  16
#     4   9  17  32  55  79 104 137 174 210 248 291
#     4  10  20  33  50  72  97 128 166 206 250 300
#     4  10  20  34  54  79 105 134 170 209 249 297
#     4   9  16  25  38  57  82 114 153 194 236 285
#     4  10  21  36  53  74 100 130 166 208 253 302
#     4   9  15  21  31  50  78 113 151 189 232 283
#
# _framework density 18.701502999999999
#
# number of rings (size 3 to 8) (size 9 to 14) (size 15 to 20)
#    0.000    2.455    0.000    4.091    0.000    8.000 
#    0.000    0.000    0.000    2.182    0.000    0.000 
#    0.000    0.727    0.000    8.000    0.000    8.909 
#
# Total GULP energy -545258.456428 kJ/mol
# GULP energy per Si atom -12392.237646 kJ/mol
# Density = 1.865894 g / cm^3
# Si number density = 18.701503 Si / 1000 Ang^3
#
#
#
# Elastic Constant Matrix: (Units=GPa)
#
#
# Indices 1 2 3 4 5 6 
#
# 1 90.3134 35.7896 63.6461 0.0000 0.0000 0.0000
# 2 35.7896 90.9450 71.2311 0.0000 0.0000 0.0000
# 3 63.6461 71.2311 193.1789 0.0000 0.0000 0.0000
# 4 0.0000 0.0000 0.0000 20.0658 0.0000 0.0000
# 5 0.0000 0.0000 0.0000 0.0000 4.5016 0.0000
# 6 0.0000 0.0000 0.0000 0.0000 0.0000 22.0064
#
#
#
# Elastic Compliance Matrix: (Units=1/GPa)
#
#
# Indices 1 2 3 4 5 6 
#
# 1 0.014926 -0.002843 -0.003869 0.000000 0.000000 0.000000
# 2 -0.002843 0.016002 -0.004964 0.000000 0.000000 0.000000
# 3 -0.003869 -0.004964 0.008282 0.000000 0.000000 0.000000
# 4 0.000000 0.000000 0.000000 0.049836 0.000000 0.000000
# 5 0.000000 0.000000 0.000000 0.000000 0.222143 0.000000
# 6 0.000000 0.000000 0.000000 0.000000 0.000000 0.045441
#
#
# Mechanical properties :
#
#
# Convention : Reuss Voigt Hill
#
# Bulk Modulus (GPa) = 63.06214 79.53010 71.29612
# Shear Modulus (GPa) = 12.97794 22.89946 17.93870
#
# Velocity S-wave (km/s) = 2.63715 3.50304 3.10047
# Velocity P-wave (km/s) = 6.56249 7.67985 7.14305
#
# Compressibility (1/GPa) = 0.01585738
#
# Stress axis : x y z
#
# Youngs Moduli (GPa) = 66.99689 62.49058 120.74910
#
# Poissons Ratio (x) = 0.17768 0.46720
# Poissons Ratio (y) = 0.19050 0.59937
# Poissons Ratio (z) = 0.25923 0.31019
#
# Static dielectric constant tensor:
#      x y z
#    x 2.954010 0.000000 0.000000 
#    y 0.000000 3.392180 0.000000 
#    z 0.000000 0.000000 4.569200 
# 
# 
# High freq. dielectric constant tensor:
#      x y z
#    x 1.671160 0.000000 0.000000 
#    y 0.000000 1.722860 0.000000 
#    z 0.000000 0.000000 1.760300 
# 
# From -- ./inp_files/77865.got.cif
#   From: 2010.03.12/outbox.cif.g09.slc.cpg/sg65_39_cif.got.tgz:77865.got - 2010.04.10 20:52:16.
