data_PCOD8270975
_publ_section_title
;
Structure prediction by ZEFSAII (Michael W. Deem and Ramdas Pophale) SiO2 
 PCOD8270975
Probable space group: C M M M
;
_chemical_formula_sum "Si O2"
_cell_formula_units_Z 104
_cell_length_a 25.843188
_cell_length_b 8.029758
_cell_length_c 27.758743
_cell_angle_alpha 90.000000
_cell_angle_beta 90.000000
_cell_angle_gamma 90.000000
_cell_volume 5760.342940
_symmetry_space_group_name_H-M "C M M M"
_symmetry_group_IT_number 65
_symmetry_cell_setting 'orthorhombic'
loop_
_space_group_symop_operation_xyz
x,y,z
-x,-y,z
x,-y,-z
-x,y,-z
-x,-y,-z
x,y,-z
-x,y,z
x,-y,z
1/2+x,1/2+y,z
1/2-x,1/2-y,z
1/2+x,1/2-y,-z
1/2-x,1/2+y,-z
1/2-x,1/2-y,-z
1/2+x,1/2+y,-z
1/2-x,1/2+y,z
1/2+x,1/2-y,z
loop_
_atom_site_type_symbol
_atom_site_label
_atom_site_fract_x
_atom_site_fract_y
_atom_site_fract_z
Si Si1 0.000000 0.187596 0.713554
Si Si2 0.561453 0.500000 0.945981
Si Si3 0.898271 0.801257 0.445731
Si Si4 0.306165 0.696428 0.727426
Si Si5 0.000000 0.199134 0.607643
Si Si6 0.907669 0.309878 0.223208
Si Si7 0.438795 0.809681 0.882259
Si Si8 0.194468 0.196339 0.618704
O O1 0.000000 0.279757 0.661603
O O2 0.051925 0.214331 0.743560
O O3 0.000000 0.000000 0.697135
O O4 0.500000 0.500000 0.946903
O O5 0.580663 0.328602 0.920590
O O6 0.584168 0.500000 0.000000
O O7 0.895667 0.731513 0.500000
O O8 0.849444 0.729128 0.416033
O O9 0.949790 0.733242 0.420253
O O10 0.897355 0.000000 0.446017
O O11 0.312918 0.500000 0.729930
O O12 0.250000 0.750000 0.747352
O O13 0.349091 0.779953 0.760830
O O14 0.313010 0.765640 0.672995
O O15 0.000000 0.000000 0.607079
O O16 0.923674 0.500000 0.227981
O O17 0.912510 0.255316 0.167778
O O18 0.500000 0.799824 0.875291
O O19 0.423118 0.000000 0.897737
O O20 0.250000 0.250000 0.597890
O O21 0.190446 0.000000 0.620241
#
# Coordination Sequence:
#
# PCOD8270975 Si02
#       8
#     8   8  16  16   8  16  16  16
#     4  11  21  30  49  74  98 133 171 208 251 305
#     4   9  18  30  48  72 102 144 188 224 262 315
#     4   9  16  27  45  66  90 119 150 194 247 297
#     4  10  20  34  51  71  98 134 167 207 254 310
#     4   9  17  29  42  65  94 118 155 199 242 300
#     4  11  21  33  49  73 104 137 172 212 256 308
#     4   9  18  31  47  70 105 142 178 223 266 309
#     4   9  18  32  48  68  93 118 154 195 242 299
#
# _framework density 18.054480999999999
#
# number of rings (size 3 to 8) (size 9 to 14) (size 15 to 20)
#    0.000    2.385    0.769    2.308    2.154    4.615 
#    0.000    1.538    0.000    0.000    0.000    0.000 
#    0.000    5.538    0.308    0.000    0.000    0.000 
#
# Total GULP energy -644678.083024 kJ/mol
# GULP energy per Si atom -12397.655443 kJ/mol
# Density = 1.801339 g / cm^3
# Si number density = 18.054481 Si / 1000 Ang^3
#
#
#
# Elastic Constant Matrix: (Units=GPa)
#
#
# Indices 1 2 3 4 5 6 
#
# 1 117.3414 12.6147 64.6491 0.0000 0.0000 0.0000
# 2 12.6147 46.5262 41.4786 0.0000 0.0000 0.0000
# 3 64.6491 41.4786 142.1630 0.0000 0.0000 0.0000
# 4 0.0000 0.0000 0.0000 11.7955 0.0000 0.0000
# 5 0.0000 0.0000 0.0000 0.0000 15.6137 0.0000
# 6 0.0000 0.0000 0.0000 0.0000 0.0000 19.3641
#
#
#
# Elastic Compliance Matrix: (Units=1/GPa)
#
#
# Indices 1 2 3 4 5 6 
#
# 1 0.011520 0.002091 -0.005849 0.000000 0.000000 0.000000
# 2 0.002091 0.029429 -0.009537 0.000000 0.000000 0.000000
# 3 -0.005849 -0.009537 0.012477 0.000000 0.000000 0.000000
# 4 0.000000 0.000000 0.000000 0.084778 0.000000 0.000000
# 5 0.000000 0.000000 0.000000 0.000000 0.064046 0.000000
# 6 0.000000 0.000000 0.000000 0.000000 0.000000 0.051642
#
#
# Mechanical properties :
#
#
# Convention : Reuss Voigt Hill
#
# Bulk Modulus (GPa) = 37.26479 60.39059 48.82769
# Shear Modulus (GPa) = 17.27552 21.84052 19.55802
#
# Velocity S-wave (km/s) = 3.09666 3.48185 3.29489
# Velocity P-wave (km/s) = 5.78539 7.04883 6.44813
#
# Compressibility (1/GPa) = 0.02683499
#
# Stress axis : x y z
#
# Youngs Moduli (GPa) = 86.80811 33.98017 80.15064
#
# Poissons Ratio (x) = -0.07104 0.46877
# Poissons Ratio (y) = -0.18149 0.76441
# Poissons Ratio (z) = 0.50771 0.32408
#
# Static dielectric constant tensor:
#      x y z
#    x 3.266630 0.000000 0.000000 
#    y 0.000000 3.230490 0.000000 
#    z 0.000000 0.000000 3.431050 
# 
# 
# High freq. dielectric constant tensor:
#      x y z
#    x 1.682550 0.000000 0.000000 
#    y 0.000000 1.689330 0.000000 
#    z 0.000000 0.000000 1.687860 
# 
# From -- ./inp_files/75858.got.cif
#   From: 2010.03.12/outbox.cif.g09.slc.cpg/sg65_38_cif.got.tgz:75858.got - 2010.04.10 20:52:16.
