data_PCOD8270902
_publ_section_title
;
Structure prediction by ZEFSAII (Michael W. Deem and Ramdas Pophale) SiO2 
 PCOD8270902
Probable space group: C M M M
;
_chemical_formula_sum "Si O2"
_cell_formula_units_Z 104
_cell_length_a 28.372573
_cell_length_b 7.836967
_cell_length_c 29.410670
_cell_angle_alpha 90.000000
_cell_angle_beta 90.000000
_cell_angle_gamma 90.000000
_cell_volume 6539.607125
_symmetry_space_group_name_H-M "C M M M"
_symmetry_group_IT_number 65
_symmetry_cell_setting 'orthorhombic'
loop_
_space_group_symop_operation_xyz
x,y,z
-x,-y,z
x,-y,-z
-x,y,-z
-x,-y,-z
x,y,-z
-x,y,z
x,-y,z
1/2+x,1/2+y,z
1/2-x,1/2-y,z
1/2+x,1/2-y,-z
1/2-x,1/2+y,-z
1/2-x,1/2-y,-z
1/2+x,1/2+y,-z
1/2-x,1/2+y,z
1/2+x,1/2-y,z
loop_
_atom_site_type_symbol
_atom_site_label
_atom_site_fract_x
_atom_site_fract_y
_atom_site_fract_z
Si Si1 0.554265 0.309004 0.274721
Si Si2 0.605267 0.195813 0.638076
Si Si3 0.443600 0.000000 0.889180
Si Si4 0.446656 0.202628 0.549688
Si Si5 0.696485 0.300049 0.500000
Si Si6 0.803797 0.201351 0.401768
Si Si7 0.443984 0.689449 0.051059
Si Si8 0.055804 0.500000 0.212718
O O1 0.500000 0.268585 0.287254
O O2 0.559122 0.500000 0.254060
O O3 0.585138 0.301982 0.320104
O O4 0.573314 0.170793 0.238450
O O5 0.584080 0.275209 0.591348
O O6 0.662011 0.214598 0.635747
O O7 0.590475 0.000000 0.645079
O O8 0.423775 0.168386 0.914606
O O9 0.500000 0.000000 0.889274
O O10 0.423039 0.000000 0.838088
O O11 0.427043 0.265145 0.500000
O O12 0.500000 0.268882 0.555639
O O13 0.445722 0.000000 0.550899
O O14 0.690255 0.500000 0.500000
O O15 0.750000 0.250000 0.500000
O O16 0.677524 0.228146 0.451550
O O17 0.750000 0.250000 0.391270
O O18 0.808493 0.000000 0.399445
O O19 0.500000 0.696171 0.051372
O O20 0.427044 0.500000 0.066337
O O21 0.425878 0.728891 0.000000
O O22 0.000000 0.500000 0.209363
#
# Coordination Sequence:
#
# PCOD8270902 Si02
#       8
#    16  16   8  16   8  16  16   8
#     4  10  20  34  50  66  85 110 142 181 224 269
#     4  11  20  30  49  69  86 112 138 167 208 259
#     4   9  15  22  35  52  72 101 136 175 223 269
#     4   8  15  27  42  63  88 110 134 164 197 240
#     4   8  16  30  46  60  81 108 129 156 188 227
#     4  10  20  34  48  66  88 111 137 166 201 246
#     4   8  13  20  30  47  73 104 138 175 215 261
#     4   9  18  31  44  61  83 106 139 186 231 273
#
# _framework density 15.903096
#
# number of rings (size 3 to 8) (size 9 to 14) (size 15 to 20)
#    0.000    2.769    0.769    2.538    1.077    2.769 
#    0.000    3.077    0.000    0.000    0.000    3.231 
#    0.000    0.000    0.000    0.000    0.000    0.000 
#
# Total GULP energy -644331.392967 kJ/mol
# GULP energy per Si atom -12390.988326 kJ/mol
# Density = 1.586690 g / cm^3
# Si number density = 15.903096 Si / 1000 Ang^3
#
#
#
# Elastic Constant Matrix: (Units=GPa)
#
#
# Indices 1 2 3 4 5 6 
#
# 1 35.1666 14.4332 28.1233 0.0000 0.0000 0.0000
# 2 14.4332 89.0712 53.2616 0.0000 0.0000 0.0000
# 3 28.1233 53.2616 112.1475 0.0000 0.0000 0.0000
# 4 0.0000 0.0000 0.0000 15.2743 0.0000 0.0000
# 5 0.0000 0.0000 0.0000 0.0000 4.0595 0.0000
# 6 0.0000 0.0000 0.0000 0.0000 0.0000 11.8277
#
#
#
# Elastic Compliance Matrix: (Units=1/GPa)
#
#
# Indices 1 2 3 4 5 6 
#
# 1 0.035592 -0.000601 -0.008640 0.000000 0.000000 0.000000
# 2 -0.000601 0.015690 -0.007301 0.000000 0.000000 0.000000
# 3 -0.008640 -0.007301 0.014551 0.000000 0.000000 0.000000
# 4 0.000000 0.000000 0.000000 0.065469 0.000000 0.000000
# 5 0.000000 0.000000 0.000000 0.000000 0.246336 0.000000
# 6 0.000000 0.000000 0.000000 0.000000 0.000000 0.084547
#
#
# Mechanical properties :
#
#
# Convention : Reuss Voigt Hill
#
# Bulk Modulus (GPa) = 30.53492 47.55796 39.04644
# Shear Modulus (GPa) = 9.87778 15.60344 12.74061
#
# Velocity S-wave (km/s) = 2.49494 3.13574 2.83351
# Velocity P-wave (km/s) = 5.24804 6.56356 5.94231
#
# Compressibility (1/GPa) = 0.03274939
#
# Stress axis : x y z
#
# Youngs Moduli (GPa) = 28.09593 63.73467 68.72425
#
# Poissons Ratio (x) = 0.03830 0.59379
# Poissons Ratio (y) = 0.01688 0.50175
# Poissons Ratio (z) = 0.24275 0.46532
#
# Static dielectric constant tensor:
#      x y z
#    x 2.663980 0.000000 0.000000 
#    y 0.000000 3.147750 0.000000 
#    z 0.000000 0.000000 3.107730 
# 
# 
# High freq. dielectric constant tensor:
#      x y z
#    x 1.554340 0.000000 0.000000 
#    y 0.000000 1.619860 0.000000 
#    z 0.000000 0.000000 1.586820 
# 
# From -- ./inp_files/72229.got.cif
#   From: 2010.03.12/outbox.cif.g09.slc.cpg/sg65_37_cif.got.tgz:72229.got - 2010.04.10 20:52:16.
