data_PCOD8270116
_publ_section_title
;
Structure prediction by ZEFSAII (Michael W. Deem and Ramdas Pophale) SiO2 
 PCOD8270116
Probable space group: C M M M
;
_chemical_formula_sum "Si O2"
_cell_formula_units_Z 104
_cell_length_a 29.100515
_cell_length_b 9.240912
_cell_length_c 20.279634
_cell_angle_alpha 90.000000
_cell_angle_beta 90.000000
_cell_angle_gamma 90.000000
_cell_volume 5453.503826
_symmetry_space_group_name_H-M "C M M M"
_symmetry_group_IT_number 65
_symmetry_cell_setting 'orthorhombic'
loop_
_space_group_symop_operation_xyz
x,y,z
-x,-y,z
x,-y,-z
-x,y,-z
-x,-y,-z
x,y,-z
-x,y,z
x,-y,z
1/2+x,1/2+y,z
1/2-x,1/2-y,z
1/2+x,1/2-y,-z
1/2-x,1/2+y,-z
1/2-x,1/2-y,-z
1/2+x,1/2+y,-z
1/2-x,1/2+y,z
1/2+x,1/2-y,z
loop_
_atom_site_type_symbol
_atom_site_label
_atom_site_fract_x
_atom_site_fract_y
_atom_site_fract_z
Si Si1 0.637045 0.168975 0.120918
Si Si2 0.799011 0.329013 0.000000
Si Si3 0.295810 0.830008 0.615704
Si Si4 0.552685 0.329824 0.832511
Si Si5 0.449511 0.671712 0.683828
Si Si6 0.381270 0.666330 0.426821
Si Si7 0.705243 0.832973 0.767010
O O1 0.587999 0.250404 0.118144
O O2 0.661473 0.210785 0.189562
O O3 0.626432 0.000000 0.114731
O O4 0.670999 0.219520 0.062898
O O5 0.750000 0.250000 0.000000
O O6 0.789439 0.500000 0.000000
O O7 0.250000 0.750000 0.592325
O O8 0.336276 0.764714 0.572277
O O9 0.306364 0.793200 0.691918
O O10 0.290822 0.000000 0.602677
O O11 0.500000 0.286647 0.849709
O O12 0.559311 0.500000 0.841072
O O13 0.564752 0.280774 0.757615
O O14 0.500000 0.734368 0.668034
O O15 0.450999 0.500000 0.680095
O O16 0.415476 0.732679 0.628005
O O17 0.403547 0.675832 0.500000
O O18 0.368527 0.500000 0.409861
O O19 0.750000 0.750000 0.792792
O O20 0.717241 0.000000 0.775799
#
# Coordination Sequence:
#
# PCOD8270116 Si02
#       7
#    16   8  16  16  16  16  16
#     4  10  20  34  52  76 106 137 169 205 247 296
#     4  10  22  38  55  78 109 143 176 207 243 294
#     4  10  20  34  51  70  94 125 162 206 254 299
#     4   9  18  33  54  79 103 130 169 212 252 295
#     4   8  15  30  52  77 104 131 161 203 251 296
#     4  10  20  32  48  72  99 128 164 202 243 297
#     4   9  18  31  49  74  99 124 160 205 250 298
#
# _framework density 19.070309000000002
#
# number of rings (size 3 to 8) (size 9 to 14) (size 15 to 20)
#    0.000    2.615    0.000    2.769    0.000    3.077 
#    0.000    1.923    0.000    3.692    0.000    1.077 
#    0.000    0.000    0.000    0.000    0.000    0.000 
#
# Total GULP energy -644719.762889 kJ/mol
# GULP energy per Si atom -12398.456979 kJ/mol
# Density = 1.902690 g / cm^3
# Si number density = 19.070309 Si / 1000 Ang^3
#
#
#
# Elastic Constant Matrix: (Units=GPa)
#
#
# Indices 1 2 3 4 5 6 
#
# 1 141.3244 49.2552 57.7436 0.0000 0.0000 0.0000
# 2 49.2552 53.0643 27.1909 0.0000 0.0000 0.0000
# 3 57.7436 27.1909 73.5457 0.0000 0.0000 0.0000
# 4 0.0000 0.0000 0.0000 18.8408 0.0000 0.0000
# 5 0.0000 0.0000 0.0000 0.0000 24.2897 0.0000
# 6 0.0000 0.0000 0.0000 0.0000 0.0000 32.4561
#
#
#
# Elastic Compliance Matrix: (Units=1/GPa)
#
#
# Indices 1 2 3 4 5 6 
#
# 1 0.012840 -0.008331 -0.007001 0.000000 0.000000 0.000000
# 2 -0.008331 0.028655 -0.004053 0.000000 0.000000 0.000000
# 3 -0.007001 -0.004053 0.020592 0.000000 0.000000 0.000000
# 4 0.000000 0.000000 0.000000 0.053076 0.000000 0.000000
# 5 0.000000 0.000000 0.000000 0.000000 0.041170 0.000000
# 6 0.000000 0.000000 0.000000 0.000000 0.000000 0.030811
#
#
# Mechanical properties :
#
#
# Convention : Reuss Voigt Hill
#
# Bulk Modulus (GPa) = 42.88760 59.59045 51.23902
# Shear Modulus (GPa) = 21.39615 24.03364 22.71489
#
# Velocity S-wave (km/s) = 3.35320 3.55387 3.45499
# Velocity P-wave (km/s) = 6.12617 6.93942 6.54544
#
# Compressibility (1/GPa) = 0.02331676
#
# Stress axis : x y z
#
# Youngs Moduli (GPa) = 77.88134 34.89815 48.56156
#
# Poissons Ratio (x) = 0.29073 0.33999
# Poissons Ratio (y) = 0.64882 0.19683
# Poissons Ratio (z) = 0.54526 0.14145
#
# Static dielectric constant tensor:
#      x y z
#    x 3.578030 0.000000 0.000000 
#    y 0.000000 3.192630 0.000000 
#    z 0.000000 0.000000 3.521320 
# 
# 
# High freq. dielectric constant tensor:
#      x y z
#    x 1.743920 0.000000 0.000000 
#    y 0.000000 1.717400 0.000000 
#    z 0.000000 0.000000 1.736500 
# 
# From -- ./inp_files/60837.got.cif
#   From: 2010.03.12/outbox.cif.g09.slc.cpg/sg65_31_cif.got.tgz:60837.got - 2010.04.10 20:52:16.
