data_PCOD8270070
_publ_section_title
;
Structure prediction by ZEFSAII (Michael W. Deem and Ramdas Pophale) SiO2 
 PCOD8270070
Probable space group: C M M M
;
_chemical_formula_sum "Si O2"
_cell_formula_units_Z 80
_cell_length_a 18.954407
_cell_length_b 9.009345
_cell_length_c 25.471688
_cell_angle_alpha 90.000000
_cell_angle_beta 90.000000
_cell_angle_gamma 90.000000
_cell_volume 4349.718445
_symmetry_space_group_name_H-M "C M M M"
_symmetry_group_IT_number 65
_symmetry_cell_setting 'orthorhombic'
loop_
_space_group_symop_operation_xyz
x,y,z
-x,-y,z
x,-y,-z
-x,y,-z
-x,-y,-z
x,y,-z
-x,y,z
x,-y,z
1/2+x,1/2+y,z
1/2-x,1/2-y,z
1/2+x,1/2-y,-z
1/2-x,1/2+y,-z
1/2-x,1/2-y,-z
1/2+x,1/2+y,-z
1/2-x,1/2+y,z
1/2+x,1/2-y,z
loop_
_atom_site_type_symbol
_atom_site_label
_atom_site_fract_x
_atom_site_fract_y
_atom_site_fract_z
Si Si1 0.083469 0.168679 0.714538
Si Si2 0.178197 0.327403 0.795110
Si Si3 0.915630 0.333206 0.612346
Si Si4 0.322850 0.174308 0.083364
Si Si5 0.916899 0.173262 0.000000
Si Si6 0.422562 0.823494 0.500000
O O1 0.113534 0.264407 0.762062
O O2 0.112421 0.227413 0.658560
O O3 0.000000 0.185433 0.717064
O O4 0.108253 0.000000 0.720893
O O5 0.186380 0.500000 0.784067
O O6 0.250000 0.250000 0.776702
O O7 0.162019 0.293900 0.855768
O O8 0.889624 0.500000 0.624806
O O9 0.884765 0.277646 0.555270
O O10 0.000000 0.330136 0.608915
O O11 0.250000 0.250000 0.065423
O O12 0.386281 0.248850 0.051755
O O13 0.318545 0.000000 0.070842
O O14 0.000000 0.198718 0.000000
O O15 0.897205 0.000000 0.000000
O O16 0.500000 0.749800 0.500000
O O17 0.430219 0.000000 0.500000
#
# Coordination Sequence:
#
# PCOD8270070 Si02
#       6
#    16  16  16  16   8   8
#     4  10  20  32  47  71 104 138 170 208 255 304
#     4  10  21  37  57  79 102 132 171 213 256 302
#     4   8  13  23  40  62  90 125 165 207 251 300
#     4  10  21  38  60  82 105 135 172 213 254 300
#     4  11  24  39  56  81 113 145 174 207 250 297
#     4   7  10  18  35  59  86 119 160 205 250 295
#
# _framework density 18.391995000000001
#
# number of rings (size 3 to 8) (size 9 to 14) (size 15 to 20)
#    0.000    2.600    0.000    3.600    0.000    5.200 
#    0.000    4.500    0.000    3.000    0.000    0.700 
#    0.000    0.000    0.000    0.000    0.000    0.000 
#
# Total GULP energy -495834.282341 kJ/mol
# GULP energy per Si atom -12395.857059 kJ/mol
# Density = 1.835013 g / cm^3
# Si number density = 18.391995 Si / 1000 Ang^3
#
#
#
# Elastic Constant Matrix: (Units=GPa)
#
#
# Indices 1 2 3 4 5 6 
#
# 1 51.3100 42.0274 45.0543 0.0000 0.0000 0.0000
# 2 42.0274 113.0832 64.7253 0.0000 0.0000 0.0000
# 3 45.0543 64.7253 125.5875 0.0000 0.0000 0.0000
# 4 0.0000 0.0000 0.0000 26.1425 0.0000 0.0000
# 5 0.0000 0.0000 0.0000 0.0000 6.4055 0.0000
# 6 0.0000 0.0000 0.0000 0.0000 0.0000 27.1138
#
#
#
# Elastic Compliance Matrix: (Units=1/GPa)
#
#
# Indices 1 2 3 4 5 6 
#
# 1 0.032563 -0.007682 -0.007723 0.000000 0.000000 0.000000
# 2 -0.007682 0.014355 -0.004643 0.000000 0.000000 0.000000
# 3 -0.007723 -0.004643 0.013126 0.000000 0.000000 0.000000
# 4 0.000000 0.000000 0.000000 0.038252 0.000000 0.000000
# 5 0.000000 0.000000 0.000000 0.000000 0.156115 0.000000
# 6 0.000000 0.000000 0.000000 0.000000 0.000000 0.036882
#
#
# Mechanical properties :
#
#
# Convention : Reuss Voigt Hill
#
# Bulk Modulus (GPa) = 50.12649 65.95497 58.04073
# Shear Modulus (GPa) = 14.79130 21.14393 17.96762
#
# Velocity S-wave (km/s) = 2.83896 3.39429 3.12897
# Velocity P-wave (km/s) = 6.16928 7.16241 6.68432
#
# Compressibility (1/GPa) = 0.01994953
#
# Stress axis : x y z
#
# Youngs Moduli (GPa) = 30.71012 69.66117 76.18558
#
# Poissons Ratio (x) = 0.53511 0.58837
# Poissons Ratio (y) = 0.23590 0.35370
# Poissons Ratio (z) = 0.23717 0.32341
#
# Static dielectric constant tensor:
#      x y z
#    x 2.961250 0.000000 0.000000 
#    y 0.000000 3.444390 0.000000 
#    z 0.000000 0.000000 3.740080 
# 
# 
# High freq. dielectric constant tensor:
#      x y z
#    x 1.666990 0.000000 0.000000 
#    y 0.000000 1.714210 0.000000 
#    z 0.000000 0.000000 1.734170 
# 
# From -- ./inp_files/75058.got.cif
#   From: 2010.03.12/outbox.cif.g09.slc.cpg/sg65_38_cif.got.tgz:75058.got - 2010.04.10 20:52:16.
