data_PCOD8270924
_publ_section_title
;
Structure prediction by ZEFSAII (Michael W. Deem and Ramdas Pophale) SiO2 
 PCOD8270924
Probable space group: C M M M
;
_chemical_formula_sum "Si O2"
_cell_formula_units_Z 104
_cell_length_a 30.107027
_cell_length_b 9.446861
_cell_length_c 23.299176
_cell_angle_alpha 90.000000
_cell_angle_beta 90.000000
_cell_angle_gamma 90.000000
_cell_volume 6626.679392
_symmetry_space_group_name_H-M "C M M M"
_symmetry_group_IT_number 65
_symmetry_cell_setting 'orthorhombic'
loop_
_space_group_symop_operation_xyz
x,y,z
-x,-y,z
x,-y,-z
-x,y,-z
-x,-y,-z
x,y,-z
-x,y,z
x,-y,z
1/2+x,1/2+y,z
1/2-x,1/2-y,z
1/2+x,1/2-y,-z
1/2-x,1/2+y,-z
1/2-x,1/2-y,-z
1/2+x,1/2+y,-z
1/2-x,1/2+y,z
1/2+x,1/2-y,z
loop_
_atom_site_type_symbol
_atom_site_label
_atom_site_fract_x
_atom_site_fract_y
_atom_site_fract_z
Si Si1 0.947396 0.158005 0.937038
Si Si2 0.385648 0.836756 0.725219
Si Si3 0.208165 0.666606 0.323793
Si Si4 0.320728 0.337217 0.565615
Si Si5 0.448773 0.834011 0.828846
Si Si6 0.000000 0.830996 0.437785
Si Si7 0.912587 0.838718 0.381033
O O1 0.931367 0.263239 0.887442
O O2 0.000000 0.156653 0.938521
O O3 0.929651 0.000000 0.923636
O O4 0.929708 0.207509 0.000000
O O5 0.332340 0.808998 0.721365
O O6 0.411343 0.787563 0.782635
O O7 0.406782 0.748884 0.675453
O O8 0.395695 0.000000 0.713947
O O9 0.217993 0.500000 0.331294
O O10 0.250000 0.750000 0.296497
O O11 0.200913 0.732653 0.387588
O O12 0.308163 0.293058 0.500000
O O13 0.305800 0.500000 0.577442
O O14 0.373645 0.323993 0.572352
O O15 0.500000 0.787897 0.812552
O O16 0.447726 0.000000 0.838910
O O17 0.956599 0.772565 0.407326
O O18 0.000000 0.763007 0.500000
O O19 0.000000 0.000000 0.440563
O O20 0.918765 0.000000 0.362004
#
# Coordination Sequence:
#
# PCOD8270924 Si02
#       7
#    16  16  16  16  16   8  16
#     4   8  14  25  40  60  89 123 155 186 217 243
#     4   9  19  33  46  63  88 116 143 178 220 257
#     4  10  20  34  50  66  85 109 139 176 221 269
#     4   9  17  30  47  65  85 108 135 170 215 267
#     4   9  17  28  43  64  90 122 155 181 208 247
#     4   9  16  26  41  61  83 107 140 181 218 251
#     4   9  17  28  43  62  82 109 144 179 214 255
#
# _framework density 15.694134
#
# number of rings (size 3 to 8) (size 9 to 14) (size 15 to 20)
#    0.000    3.000    0.000    1.385    1.077    4.000 
#    0.000    1.538    0.000    1.846    0.000    0.000 
#    0.000    0.615    0.000    1.385    0.000    2.462 
#
# Total GULP energy -644223.022350 kJ/mol
# GULP energy per Si atom -12388.904276 kJ/mol
# Density = 1.565841 g / cm^3
# Si number density = 15.694134 Si / 1000 Ang^3
#
#
#
# Elastic Constant Matrix: (Units=GPa)
#
#
# Indices 1 2 3 4 5 6 
#
# 1 89.6545 38.6614 46.0955 0.0000 0.0000 0.0000
# 2 38.6614 49.7842 45.1833 0.0000 0.0000 0.0000
# 3 46.0955 45.1833 106.2347 0.0000 0.0000 0.0000
# 4 0.0000 0.0000 0.0000 29.8882 0.0000 0.0000
# 5 0.0000 0.0000 0.0000 0.0000 13.7711 0.0000
# 6 0.0000 0.0000 0.0000 0.0000 0.0000 18.7276
#
#
#
# Elastic Compliance Matrix: (Units=1/GPa)
#
#
# Indices 1 2 3 4 5 6 
#
# 1 0.017309 -0.010791 -0.002921 0.000000 0.000000 0.000000
# 2 -0.010791 0.039442 -0.012093 0.000000 0.000000 0.000000
# 3 -0.002921 -0.012093 0.015824 0.000000 0.000000 0.000000
# 4 0.000000 0.000000 0.000000 0.033458 0.000000 0.000000
# 5 0.000000 0.000000 0.000000 0.000000 0.072616 0.000000
# 6 0.000000 0.000000 0.000000 0.000000 0.000000 0.053397
#
#
# Mechanical properties :
#
#
# Convention : Reuss Voigt Hill
#
# Bulk Modulus (GPa) = 47.69803 56.17264 51.93534
# Shear Modulus (GPa) = 17.20317 20.19295 18.69806
#
# Velocity S-wave (km/s) = 3.31441 3.59089 3.45542
# Velocity P-wave (km/s) = 6.71605 7.28440 7.00599
#
# Compressibility (1/GPa) = 0.02096522
#
# Stress axis : x y z
#
# Youngs Moduli (GPa) = 57.77337 25.35355 63.19546
#
# Poissons Ratio (x) = 0.27359 0.18459
# Poissons Ratio (y) = 0.62342 0.76423
# Poissons Ratio (z) = 0.16875 0.30661
#
# Static dielectric constant tensor:
#      x y z
#    x 3.148080 0.000000 0.000000 
#    y 0.000000 2.992760 0.000000 
#    z 0.000000 0.000000 3.082480 
# 
# 
# High freq. dielectric constant tensor:
#      x y z
#    x 1.587350 0.000000 0.000000 
#    y 0.000000 1.599430 0.000000 
#    z 0.000000 0.000000 1.584870 
# 
# From -- ./inp_files/68568.got.cif
#   From: 2010.03.12/outbox.cif.g09.slc.cpg/sg65_35_cif.got.tgz:68568.got - 2010.04.10 20:52:16.
