data_PCOD8270777
_publ_section_title
;
Structure prediction by ZEFSAII (Michael W. Deem and Ramdas Pophale) SiO2 
 PCOD8270777
Probable space group: C M M M
;
_chemical_formula_sum "Si O2"
_cell_formula_units_Z 64
_cell_length_a 15.132928
_cell_length_b 19.707053
_cell_length_c 9.389320
_cell_angle_alpha 90.000000
_cell_angle_beta 90.000000
_cell_angle_gamma 90.000000
_cell_volume 2800.133846
_symmetry_space_group_name_H-M "C M M M"
_symmetry_group_IT_number 65
_symmetry_cell_setting 'orthorhombic'
loop_
_space_group_symop_operation_xyz
x,y,z
-x,-y,z
x,-y,-z
-x,y,-z
-x,-y,-z
x,y,-z
-x,y,z
x,-y,z
1/2+x,1/2+y,z
1/2-x,1/2-y,z
1/2+x,1/2-y,-z
1/2-x,1/2+y,-z
1/2-x,1/2-y,-z
1/2+x,1/2+y,-z
1/2-x,1/2+y,z
1/2+x,1/2-y,z
loop_
_atom_site_type_symbol
_atom_site_label
_atom_site_fract_x
_atom_site_fract_y
_atom_site_fract_z
Si Si1 0.901312 0.808050 0.654575
Si Si2 0.832230 0.300043 0.832448
Si Si3 0.602827 0.078182 0.665353
Si Si4 0.605185 0.574706 0.158168
O O1 0.855252 0.796114 0.500000
O O2 0.909171 0.740149 0.749345
O O3 0.851047 0.868827 0.739546
O O4 0.000000 0.833679 0.627310
O O5 0.750000 0.250000 0.795800
O O6 0.832844 0.375355 0.764093
O O7 0.849704 0.305207 0.000000
O O8 0.618518 0.096242 0.500000
O O9 0.500000 0.090188 0.705146
O O10 0.628302 0.000000 0.695312
O O11 0.500000 0.581486 0.150431
O O12 0.632068 0.500000 0.213253
O O13 0.644181 0.587665 0.000000
#
# Coordination Sequence:
#
# PCOD8270777 Si02
#       4
#    16  16  16  16
#     4  10  20  33  52  78 105 137 181 231 282 339
#     4  11  24  39  55  80 115 153 192 234 284 346
#     4   9  19  38  65  95 123 151 190 245 305 361
#     4   8  14  26  45  69  98 132 169 211 259 308
#
# _framework density 22.85605
#
# number of rings (size 3 to 8) (size 9 to 14) (size 15 to 20)
#    0.000    2.500    0.000    3.750    0.000    8.000 
#    0.000    5.000    0.000    1.500    0.000    0.000 
#    0.000    0.000    0.000    0.000    0.000    0.000 
#
# Total GULP energy -396453.166691 kJ/mol
# GULP energy per Si atom -12389.161459 kJ/mol
# Density = 2.280403 g / cm^3
# Si number density = 22.856050 Si / 1000 Ang^3
#
#
#
# Elastic Constant Matrix: (Units=GPa)
#
#
# Indices 1 2 3 4 5 6 
#
# 1 37.5963 23.1074 27.6534 0.0000 0.0000 0.0000
# 2 23.1074 182.3910 106.8500 0.0000 0.0000 0.0000
# 3 27.6534 106.8500 174.5420 0.0000 0.0000 0.0000
# 4 0.0000 0.0000 0.0000 48.2661 0.0000 0.0000
# 5 0.0000 0.0000 0.0000 0.0000 15.9621 0.0000
# 6 0.0000 0.0000 0.0000 0.0000 0.0000 23.8049
#
#
#
# Elastic Compliance Matrix: (Units=1/GPa)
#
#
# Indices 1 2 3 4 5 6 
#
# 1 0.030406 -0.001606 -0.003834 0.000000 0.000000 0.000000
# 2 -0.001606 0.008633 -0.005031 0.000000 0.000000 0.000000
# 3 -0.003834 -0.005031 0.009416 0.000000 0.000000 0.000000
# 4 0.000000 0.000000 0.000000 0.020718 0.000000 0.000000
# 5 0.000000 0.000000 0.000000 0.000000 0.062648 0.000000
# 6 0.000000 0.000000 0.000000 0.000000 0.000000 0.042008
#
#
# Mechanical properties :
#
#
# Convention : Reuss Voigt Hill
#
# Bulk Modulus (GPa) = 36.34553 78.86122 57.60338
# Shear Modulus (GPa) = 24.51668 33.40119 28.95893
#
# Velocity S-wave (km/s) = 3.27870 3.82694 3.56338
# Velocity P-wave (km/s) = 5.50178 7.35565 6.49520
#
# Compressibility (1/GPa) = 0.02751370
#
# Stress axis : x y z
#
# Youngs Moduli (GPa) = 32.88873 115.83088 106.19818
#
# Poissons Ratio (x) = 0.18602 0.40718
# Poissons Ratio (y) = 0.05282 0.53424
# Poissons Ratio (z) = 0.12610 0.58270
#
# Static dielectric constant tensor:
#      x y z
#    x 3.648370 0.000000 0.000000 
#    y 0.000000 4.277300 0.000000 
#    z 0.000000 0.000000 4.388070 
# 
# 
# High freq. dielectric constant tensor:
#      x y z
#    x 1.866460 0.000000 0.000000 
#    y 0.000000 1.914300 0.000000 
#    z 0.000000 0.000000 1.901640 
# 
# From -- ./inp_files/8786.got.cif
#   From: 2010.03.12/outbox.cif.g09.slc.cpg/sg65_5_cif.got.tgz:8786.got - 2010.04.10 20:52:16.
