data_PCOD8270457
_publ_section_title
;
Structure prediction by ZEFSAII (Michael W. Deem and Ramdas Pophale) SiO2 
 PCOD8270457
Probable space group: C M M M
;
_chemical_formula_sum "Si O2"
_cell_formula_units_Z 104
_cell_length_a 17.019675
_cell_length_b 33.753021
_cell_length_c 9.456135
_cell_angle_alpha 90.000000
_cell_angle_beta 90.000000
_cell_angle_gamma 90.000000
_cell_volume 5432.222826
_symmetry_space_group_name_H-M "C M M M"
_symmetry_group_IT_number 65
_symmetry_cell_setting 'orthorhombic'
loop_
_space_group_symop_operation_xyz
x,y,z
-x,-y,z
x,-y,-z
-x,y,-z
-x,-y,-z
x,y,-z
-x,y,z
x,-y,z
1/2+x,1/2+y,z
1/2-x,1/2-y,z
1/2+x,1/2-y,-z
1/2-x,1/2+y,-z
1/2-x,1/2-y,-z
1/2+x,1/2+y,-z
1/2-x,1/2+y,z
1/2+x,1/2-y,z
loop_
_atom_site_type_symbol
_atom_site_label
_atom_site_fract_x
_atom_site_fract_y
_atom_site_fract_z
Si Si1 0.594008 0.084873 0.341085
Si Si2 0.086352 0.500000 0.668250
Si Si3 0.159170 0.741711 0.162433
Si Si4 0.409748 0.841608 0.163866
Si Si5 0.093451 0.956080 0.341508
Si Si6 0.407740 0.689442 0.341535
Si Si7 0.406109 0.616366 0.840364
O O1 0.622377 0.093763 0.500000
O O2 0.500000 0.082550 0.334087
O O3 0.625981 0.120393 0.244257
O O4 0.628422 0.041755 0.288285
O O5 0.077866 0.500000 0.500000
O O6 0.000000 0.500000 0.737950
O O7 0.250000 0.750000 0.186201
O O8 0.141180 0.696614 0.205887
O O9 0.109324 0.769402 0.264661
O O10 0.133629 0.749554 0.000000
O O11 0.500000 0.833531 0.207408
O O12 0.402455 0.851375 0.000000
O O13 0.123480 0.946125 0.500000
O O14 0.126697 0.923764 0.231893
O O15 0.000000 0.954859 0.340808
O O16 0.122548 0.000000 0.296195
O O17 0.371164 0.689025 0.500000
O O18 0.500000 0.683791 0.353410
O O19 0.372442 0.653459 0.248626
O O20 0.500000 0.616654 0.841796
O O21 0.373167 0.618964 0.000000
#
# Coordination Sequence:
#
# PCOD8270457 Si02
#       7
#    16   8  16  16  16  16  16
#     4   8  13  22  38  60  87 120 155 187 220 263
#     4   7  10  18  33  55  85 119 151 183 218 255
#     4  10  21  36  52  69  92 123 159 197 241 289
#     4   9  17  29  45  66  93 123 154 191 234 279
#     4   8  13  21  33  51  80 117 150 181 222 270
#     4  10  20  33  50  71  94 121 154 193 237 285
#     4   9  16  25  39  60  86 116 150 187 225 270
#
# _framework density 19.145018
#
# number of rings (size 3 to 8) (size 9 to 14) (size 15 to 20)
#    0.000    3.154    0.000    2.769    0.000    4.615 
#    0.000    3.462    0.000    2.308    0.000    0.000 
#    2.308    0.000    4.154    0.000    1.846    0.000 
#
# Total GULP energy -644426.709837 kJ/mol
# GULP energy per Si atom -12392.821343 kJ/mol
# Density = 1.910144 g / cm^3
# Si number density = 19.145018 Si / 1000 Ang^3
#
#
#
# Elastic Constant Matrix: (Units=GPa)
#
#
# Indices 1 2 3 4 5 6 
#
# 1 15.3644 23.8909 12.1912 0.0000 0.0000 0.0000
# 2 23.8909 203.2240 97.4070 0.0000 0.0000 0.0000
# 3 12.1912 97.4070 122.2901 0.0000 0.0000 0.0000
# 4 0.0000 0.0000 0.0000 38.3374 0.0000 0.0000
# 5 0.0000 0.0000 0.0000 0.0000 8.7464 0.0000
# 6 0.0000 0.0000 0.0000 0.0000 0.0000 4.7890
#
#
#
# Elastic Compliance Matrix: (Units=1/GPa)
#
#
# Indices 1 2 3 4 5 6 
#
# 1 0.079691 -0.008995 -0.000780 0.000000 0.000000 0.000000
# 2 -0.008995 0.008975 -0.006252 0.000000 0.000000 0.000000
# 3 -0.000780 -0.006252 0.013235 0.000000 0.000000 0.000000
# 4 0.000000 0.000000 0.000000 0.026084 0.000000 0.000000
# 5 0.000000 0.000000 0.000000 0.000000 0.114332 0.000000
# 6 0.000000 0.000000 0.000000 0.000000 0.000000 0.208810
#
#
# Mechanical properties :
#
#
# Convention : Reuss Voigt Hill
#
# Bulk Modulus (GPa) = 14.31695 67.53963 40.92829
# Shear Modulus (GPa) = 9.87242 24.20054 17.03648
#
# Velocity S-wave (km/s) = 2.27329 3.55923 2.98630
# Velocity P-wave (km/s) = 3.79274 7.22809 5.77192
#
# Compressibility (1/GPa) = 0.06984730
#
# Stress axis : x y z
#
# Youngs Moduli (GPa) = 12.54851 111.42517 75.55843
#
# Poissons Ratio (x) = 1.00222 0.05894
# Poissons Ratio (y) = 0.11287 0.47238
# Poissons Ratio (z) = 0.00979 0.69661
#
# Static dielectric constant tensor:
#      x y z
#    x 2.802960 0.000000 0.000000 
#    y 0.000000 3.949470 0.000000 
#    z 0.000000 0.000000 3.581630 
# 
# 
# High freq. dielectric constant tensor:
#      x y z
#    x 1.672950 0.000000 0.000000 
#    y 0.000000 1.766000 0.000000 
#    z 0.000000 0.000000 1.735550 
# 
# From -- ./inp_files/12824.got.cif
#   From: 2010.03.12/outbox.cif.g09.slc.cpg/sg65_7_cif.got.tgz:12824.got - 2010.04.10 20:52:16.
