data_PCOD8270244
_publ_section_title
;
Structure prediction by ZEFSAII (Michael W. Deem and Ramdas Pophale) SiO2 
 PCOD8270244
Probable space group: C M M M
;
_chemical_formula_sum "Si O2"
_cell_formula_units_Z 72
_cell_length_a 8.269515
_cell_length_b 18.089694
_cell_length_c 24.944124
_cell_angle_alpha 90.000000
_cell_angle_beta 90.000000
_cell_angle_gamma 90.000000
_cell_volume 3731.466239
_symmetry_space_group_name_H-M "C M M M"
_symmetry_group_IT_number 65
_symmetry_cell_setting 'orthorhombic'
loop_
_space_group_symop_operation_xyz
x,y,z
-x,-y,z
x,-y,-z
-x,y,-z
-x,-y,-z
x,y,-z
-x,y,z
x,-y,z
1/2+x,1/2+y,z
1/2-x,1/2-y,z
1/2+x,1/2-y,-z
1/2-x,1/2+y,-z
1/2-x,1/2-y,-z
1/2+x,1/2+y,-z
1/2-x,1/2+y,z
1/2+x,1/2-y,z
loop_
_atom_site_type_symbol
_atom_site_label
_atom_site_fract_x
_atom_site_fract_y
_atom_site_fract_z
Si Si1 0.315958 0.087624 0.442295
Si Si2 0.813643 0.081501 0.667911
Si Si3 0.685568 0.830237 0.766589
Si Si4 0.500000 0.587913 0.939334
Si Si5 0.683435 0.087588 0.875368
O O1 0.245971 0.116794 0.500000
O O2 0.500000 0.113273 0.437268
O O3 0.223602 0.118499 0.390121
O O4 0.300634 0.000000 0.442165
O O5 0.765650 0.138079 0.713643
O O6 0.000000 0.067873 0.672600
O O7 0.728325 0.000000 0.674392
O O8 0.500000 0.823598 0.753346
O O9 0.750000 0.750000 0.781716
O O10 0.720942 0.884037 0.816088
O O11 0.500000 0.500000 0.937127
O O12 0.331715 0.617383 0.912507
O O13 0.500000 0.617381 0.000000
O O14 0.500000 0.113055 0.894135
O O15 0.688075 0.000000 0.874077
#
# Coordination Sequence:
#
# PCOD8270244 Si02
#       5
#    16  16  16   8  16
#     4   8  14  26  45  69  98 133 171 213 262 313
#     4  10  20  32  50  77 107 138 174 219 266 317
#     4  11  23  37  54  77 104 141 179 222 272 321
#     4   9  18  32  56  88 116 144 176 220 270 313
#     4   9  19  35  56  83 112 145 182 222 269 322
#
# _framework density 19.295365
#
# number of rings (size 3 to 8) (size 9 to 14) (size 15 to 20)
#    0.000    2.556    0.000    2.667    3.111    3.111 
#    0.000    4.444    0.000    1.333    0.000    0.000 
#    0.000    0.000    0.000    0.000    0.000    0.000 
#
# Total GULP energy -446006.374265 kJ/mol
# GULP energy per Si atom -12389.065952 kJ/mol
# Density = 1.925145 g / cm^3
# Si number density = 19.295365 Si / 1000 Ang^3
#
#
#
# Elastic Constant Matrix: (Units=GPa)
#
#
# Indices 1 2 3 4 5 6 
#
# 1 113.6138 16.9516 75.5103 0.0000 0.0000 0.0000
# 2 16.9516 13.8409 11.7974 0.0000 0.0000 0.0000
# 3 75.5103 11.7974 137.4909 0.0000 0.0000 0.0000
# 4 0.0000 0.0000 0.0000 0.8696 0.0000 0.0000
# 5 0.0000 0.0000 0.0000 0.0000 37.5133 0.0000
# 6 0.0000 0.0000 0.0000 0.0000 0.0000 19.5951
#
#
#
# Elastic Compliance Matrix: (Units=1/GPa)
#
#
# Indices 1 2 3 4 5 6 
#
# 1 0.015725 -0.012837 -0.007535 0.000000 0.000000 0.000000
# 2 -0.012837 0.088430 -0.000538 0.000000 0.000000 0.000000
# 3 -0.007535 -0.000538 0.011457 0.000000 0.000000 0.000000
# 4 0.000000 0.000000 0.000000 1.150002 0.000000 0.000000
# 5 0.000000 0.000000 0.000000 0.000000 0.026657 0.000000
# 6 0.000000 0.000000 0.000000 0.000000 0.000000 0.051033
#
#
# Mechanical properties :
#
#
# Convention : Reuss Voigt Hill
#
# Bulk Modulus (GPa) = 13.55129 52.60713 33.07921
# Shear Modulus (GPa) = 3.54681 22.30803 12.92742
#
# Velocity S-wave (km/s) = 1.35726 3.40389 2.59120
# Velocity P-wave (km/s) = 3.08132 6.54002 5.11207
#
# Compressibility (1/GPa) = 0.07379373
#
# Stress axis : x y z
#
# Youngs Moduli (GPa) = 63.59440 11.30842 87.28020
#
# Poissons Ratio (x) = 0.14516 0.65762
# Poissons Ratio (y) = 0.81634 0.04694
# Poissons Ratio (z) = 0.47916 0.00608
#
# Static dielectric constant tensor:
#      x y z
#    x 3.825850 0.000000 0.000000 
#    y 0.000000 3.059880 0.000000 
#    z 0.000000 0.000000 3.506020 
# 
# 
# High freq. dielectric constant tensor:
#      x y z
#    x 1.759300 0.000000 0.000000 
#    y 0.000000 1.700020 0.000000 
#    z 0.000000 0.000000 1.760030 
# 
# From -- ./inp_files/64302.got.cif
#   From: 2010.03.12/outbox.cif.g09.slc.cpg/sg65_33_cif.got.tgz:64302.got - 2010.04.10 20:52:16.
