data_PCOD8270864
_publ_section_title
;
Structure prediction by ZEFSAII (Michael W. Deem and Ramdas Pophale) SiO2 
 PCOD8270864
Probable space group: C M M M
;
_chemical_formula_sum "Si O2"
_cell_formula_units_Z 88
_cell_length_a 19.792065
_cell_length_b 13.245074
_cell_length_c 17.758096
_cell_angle_alpha 90.000000
_cell_angle_beta 90.000000
_cell_angle_gamma 90.000000
_cell_volume 4655.238083
_symmetry_space_group_name_H-M "C M M M"
_symmetry_group_IT_number 65
_symmetry_cell_setting 'orthorhombic'
loop_
_space_group_symop_operation_xyz
x,y,z
-x,-y,z
x,-y,-z
-x,y,-z
-x,-y,-z
x,y,-z
-x,y,z
x,-y,z
1/2+x,1/2+y,z
1/2-x,1/2-y,z
1/2+x,1/2-y,-z
1/2-x,1/2+y,-z
1/2-x,1/2-y,-z
1/2+x,1/2+y,-z
1/2-x,1/2+y,z
1/2+x,1/2-y,z
loop_
_atom_site_type_symbol
_atom_site_label
_atom_site_fract_x
_atom_site_fract_y
_atom_site_fract_z
Si Si1 0.926514 0.500000 0.910880
Si Si2 0.690491 0.616448 0.850275
Si Si3 0.077145 0.752661 0.587013
Si Si4 0.167586 0.321781 0.088021
Si Si5 0.171460 0.884261 0.324849
Si Si6 0.298613 0.884185 0.413782
O O1 0.891391 0.396223 0.884713
O O2 0.000000 0.500000 0.873235
O O3 0.931128 0.500000 0.000000
O O4 0.672695 0.500000 0.874739
O O5 0.768588 0.639461 0.865006
O O6 0.648795 0.703827 0.895273
O O7 0.674065 0.634260 0.763635
O O8 0.082175 0.786471 0.500000
O O9 0.101620 0.842441 0.641089
O O10 0.127945 0.661075 0.604750
O O11 0.000000 0.722189 0.607105
O O12 0.183908 0.334274 0.000000
O O13 0.237770 0.835254 0.364582
O O14 0.171129 0.000000 0.346049
O O15 0.277861 0.866613 0.500000
O O16 0.307339 0.000000 0.392622
#
# Coordination Sequence:
#
# PCOD8270864 Si02
#       6
#     8  16  16  16  16  16
#     4   9  18  36  60  84 114 146 180 223 270 330
#     4  10  20  33  53  81 113 145 180 231 286 327
#     4  10  21  35  53  78 106 140 182 226 272 325
#     4  10  20  33  55  85 113 146 186 225 276 330
#     4  10  21  35  54  77 105 142 179 224 277 327
#     4   9  18  33  54  78 103 135 177 223 270 325
#
# _framework density 18.903437
#
# number of rings (size 3 to 8) (size 9 to 14) (size 15 to 20)
#    0.000    2.273    0.909    2.182    5.091    4.364 
#    0.000    3.636    0.000    1.636    0.000    2.545 
#    0.000    0.000    0.000    0.000    0.000    0.000 
#
# Total GULP energy -545278.294883 kJ/mol
# GULP energy per Si atom -12392.688520 kJ/mol
# Density = 1.886041 g / cm^3
# Si number density = 18.903437 Si / 1000 Ang^3
#
#
#
# Elastic Constant Matrix: (Units=GPa)
#
#
# Indices 1 2 3 4 5 6 
#
# 1 109.4653 36.1254 14.7363 0.0000 0.0000 0.0000
# 2 36.1254 115.9247 16.3918 0.0000 0.0000 0.0000
# 3 14.7363 16.3918 36.6749 0.0000 0.0000 0.0000
# 4 0.0000 0.0000 0.0000 22.7433 0.0000 0.0000
# 5 0.0000 0.0000 0.0000 0.0000 -27.4354 0.0000
# 6 0.0000 0.0000 0.0000 0.0000 0.0000 26.2488
#
#
#
# Elastic Compliance Matrix: (Units=1/GPa)
#
#
# Indices 1 2 3 4 5 6 
#
# 1 0.010470 -0.002848 -0.002934 0.000000 0.000000 0.000000
# 2 -0.002848 0.009983 -0.003318 0.000000 0.000000 0.000000
# 3 -0.002934 -0.003318 0.029928 0.000000 0.000000 0.000000
# 4 0.000000 0.000000 0.000000 0.043969 0.000000 0.000000
# 5 0.000000 0.000000 0.000000 0.000000 -0.036449 0.000000
# 6 0.000000 0.000000 0.000000 0.000000 0.000000 0.038097
#
#
# Mechanical properties :
#
#
# Convention : Reuss Voigt Hill
#
# Bulk Modulus (GPa) = 31.07302 44.06355 37.56828
# Shear Modulus (GPa) = 40.02409 17.29875 28.66142
#
# Velocity S-wave (km/s) = 4.60640 3.02836 3.89807
# Velocity P-wave (km/s) = 6.69069 5.96560 6.33852
#
# Compressibility (1/GPa) = 0.03218226
#
# Stress axis : x y z
#
# Youngs Moduli (GPa) = 95.50942 100.17157 33.41313
#
# Poissons Ratio (x) = 0.28528 0.09804
# Poissons Ratio (y) = 0.27200 0.11085
# Poissons Ratio (z) = 0.28024 0.33232
#
# Static dielectric constant tensor:
#      x y z
#    x 3.461980 0.000000 0.000000 
#    y 0.000000 3.849140 0.000000 
#    z 0.000000 0.000000 3.332870 
# 
# 
# High freq. dielectric constant tensor:
#      x y z
#    x 1.709260 0.000000 0.000000 
#    y 0.000000 1.751900 0.000000 
#    z 0.000000 0.000000 1.722540 
# 
# From -- ./inp_files/54299.got.cif
#   From: 2010.03.12/outbox.cif.g09.slc.cpg/sg65_28_cif.got.tgz:54299.got - 2010.04.10 20:52:16.
