data_PCOD8270724
_publ_section_title
;
Structure prediction by ZEFSAII (Michael W. Deem and Ramdas Pophale) SiO2 
 PCOD8270724
Probable space group: C M M M
;
_chemical_formula_sum "Si O2"
_cell_formula_units_Z 88
_cell_length_a 9.232224
_cell_length_b 28.560487
_cell_length_c 18.257502
_cell_angle_alpha 90.000000
_cell_angle_beta 90.000000
_cell_angle_gamma 90.000000
_cell_volume 4814.079950
_symmetry_space_group_name_H-M "C M M M"
_symmetry_group_IT_number 65
_symmetry_cell_setting 'orthorhombic'
loop_
_space_group_symop_operation_xyz
x,y,z
-x,-y,z
x,-y,-z
-x,y,-z
-x,-y,-z
x,y,-z
-x,y,z
x,-y,z
1/2+x,1/2+y,z
1/2-x,1/2-y,z
1/2+x,1/2-y,-z
1/2-x,1/2+y,-z
1/2-x,1/2-y,-z
1/2+x,1/2+y,-z
1/2-x,1/2+y,z
1/2+x,1/2-y,z
loop_
_atom_site_type_symbol
_atom_site_label
_atom_site_fract_x
_atom_site_fract_y
_atom_site_fract_z
Si Si1 0.829927 0.352141 0.143108
Si Si2 0.671335 0.200990 0.287517
Si Si3 0.673815 0.200279 0.000000
Si Si4 0.833785 0.365885 0.417949
Si Si5 0.332605 0.552985 0.352576
Si Si6 0.832006 0.448133 0.797776
O O1 0.771329 0.327008 0.216324
O O2 0.788802 0.407575 0.144280
O O3 0.000000 0.345923 0.140502
O O4 0.766491 0.328054 0.070482
O O5 0.500000 0.209074 0.284984
O O6 0.750000 0.250000 0.289963
O O7 0.718859 0.172778 0.359970
O O8 0.750000 0.250000 0.000000
O O9 0.500000 0.206102 0.000000
O O10 0.812963 0.345771 0.500000
O O11 0.740214 0.412955 0.411277
O O12 0.000000 0.379191 0.402450
O O13 0.500000 0.565835 0.344488
O O14 0.310896 0.500000 0.380554
O O15 0.259949 0.560399 0.274273
O O16 0.801517 0.500000 0.831300
O O17 0.000000 0.442832 0.775568
#
# Coordination Sequence:
#
# PCOD8270724 Si02
#       6
#    16  16   8  16  16  16
#     4   9  17  32  53  78 106 136 169 212 255 299
#     4  10  20  35  53  74 100 131 172 216 259 305
#     4  10  20  34  53  77 109 141 172 212 261 306
#     4  10  21  37  55  74 100 136 177 217 256 308
#     4  10  20  33  51  78 109 137 168 213 264 309
#     4   9  16  30  54  78 102 137 176 210 251 308
#
# _framework density 18.279713000000001
#
# number of rings (size 3 to 8) (size 9 to 14) (size 15 to 20)
#    0.000    2.364    1.818    1.091    0.000    2.909 
#    0.000    3.182    0.000    2.727    0.000    0.000 
#    0.000    3.636    0.000    0.000    0.000    0.000 
#
# Total GULP energy -545498.253275 kJ/mol
# GULP energy per Si atom -12397.687574 kJ/mol
# Density = 1.823811 g / cm^3
# Si number density = 18.279713 Si / 1000 Ang^3
#
#
#
# Elastic Constant Matrix: (Units=GPa)
#
#
# Indices 1 2 3 4 5 6 
#
# 1 45.2439 41.8406 28.8377 0.0000 0.0000 0.0000
# 2 41.8406 158.9390 84.8751 0.0000 0.0000 0.0000
# 3 28.8377 84.8751 139.5852 0.0000 0.0000 0.0000
# 4 0.0000 0.0000 0.0000 26.7294 0.0000 0.0000
# 5 0.0000 0.0000 0.0000 0.0000 10.1006 0.0000
# 6 0.0000 0.0000 0.0000 0.0000 0.0000 31.7860
#
#
#
# Elastic Compliance Matrix: (Units=1/GPa)
#
#
# Indices 1 2 3 4 5 6 
#
# 1 0.029602 -0.006703 -0.002039 0.000000 0.000000 0.000000
# 2 -0.006703 0.010835 -0.005203 0.000000 0.000000 0.000000
# 3 -0.002039 -0.005203 0.010749 0.000000 0.000000 0.000000
# 4 0.000000 0.000000 0.000000 0.037412 0.000000 0.000000
# 5 0.000000 0.000000 0.000000 0.000000 0.099004 0.000000
# 6 0.000000 0.000000 0.000000 0.000000 0.000000 0.031460
#
#
# Mechanical properties :
#
#
# Convention : Reuss Voigt Hill
#
# Bulk Modulus (GPa) = 42.93076 72.76386 57.84731
# Shear Modulus (GPa) = 19.62945 26.27086 22.95015
#
# Velocity S-wave (km/s) = 3.28050 3.79510 3.54715
# Velocity P-wave (km/s) = 6.15511 7.68739 6.96352
#
# Compressibility (1/GPa) = 0.02329332
#
# Stress axis : x y z
#
# Youngs Moduli (GPa) = 33.78195 92.29290 93.02889
#
# Poissons Ratio (x) = 0.61869 0.18973
# Poissons Ratio (y) = 0.22646 0.48406
# Poissons Ratio (z) = 0.06890 0.48023
#
# Static dielectric constant tensor:
#      x y z
#    x 3.186950 0.000000 0.000000 
#    y 0.000000 3.560530 0.000000 
#    z 0.000000 0.000000 3.551920 
# 
# 
# High freq. dielectric constant tensor:
#      x y z
#    x 1.685240 0.000000 0.000000 
#    y 0.000000 1.720000 0.000000 
#    z 0.000000 0.000000 1.697210 
# 
# From -- ./inp_files/50292.got.cif
#   From: 2010.03.12/outbox.cif.g09.slc.cpg/sg65_26_cif.got.tgz:50292.got - 2010.04.10 20:52:16.
