data_PCOD8270711
_publ_section_title
;
Structure prediction by ZEFSAII (Michael W. Deem and Ramdas Pophale) SiO2 
 PCOD8270711
Probable space group: C M M M
;
_chemical_formula_sum "Si O2"
_cell_formula_units_Z 104
_cell_length_a 8.913113
_cell_length_b 28.167937
_cell_length_c 23.074241
_cell_angle_alpha 90.000000
_cell_angle_beta 90.000000
_cell_angle_gamma 90.000000
_cell_volume 5793.111368
_symmetry_space_group_name_H-M "C M M M"
_symmetry_group_IT_number 65
_symmetry_cell_setting 'orthorhombic'
loop_
_space_group_symop_operation_xyz
x,y,z
-x,-y,z
x,-y,-z
-x,y,-z
-x,-y,-z
x,y,-z
-x,y,z
x,-y,z
1/2+x,1/2+y,z
1/2-x,1/2-y,z
1/2+x,1/2-y,-z
1/2-x,1/2+y,-z
1/2-x,1/2-y,-z
1/2+x,1/2+y,-z
1/2-x,1/2+y,z
1/2+x,1/2-y,z
loop_
_atom_site_type_symbol
_atom_site_label
_atom_site_fract_x
_atom_site_fract_y
_atom_site_fract_z
Si Si1 0.823548 0.198983 0.500000
Si Si2 0.324479 0.053853 0.652155
Si Si3 0.327769 0.446287 0.773801
Si Si4 0.674144 0.136309 0.831148
Si Si5 0.677514 0.643673 0.614249
Si Si6 0.324572 0.198970 0.280397
Si Si7 0.676048 0.201036 0.934733
O O1 0.750000 0.250000 0.500000
O O2 0.770270 0.170300 0.443664
O O3 0.000000 0.206189 0.500000
O O4 0.500000 0.064848 0.648752
O O5 0.273061 0.063024 0.717676
O O6 0.235577 0.089384 0.609824
O O7 0.287709 0.000000 0.632878
O O8 0.500000 0.435529 0.757671
O O9 0.308414 0.500000 0.796424
O O10 0.271287 0.411344 0.824050
O O11 0.500000 0.122241 0.832721
O O12 0.708064 0.173258 0.780030
O O13 0.727630 0.159478 0.891526
O O14 0.500000 0.644282 0.621679
O O15 0.753062 0.668373 0.668789
O O16 0.500000 0.204870 0.292713
O O17 0.250000 0.250000 0.278374
O O18 0.500000 0.208971 0.930017
O O19 0.750000 0.250000 0.914832
O O20 0.725333 0.187097 0.000000
#
# Coordination Sequence:
#
# PCOD8270711 Si02
#       7
#     8  16  16  16  16  16  16
#     4  10  24  42  59  80 105 141 184 223 263 314
#     4  10  20  35  56  82 111 141 174 215 266 322
#     4  10  20  33  52  79 108 139 176 217 264 321
#     4  10  20  33  51  77 108 140 176 219 267 317
#     4  11  22  38  58  80 107 140 180 222 266 316
#     4  11  22  34  50  76 108 139 174 217 269 319
#     4   9  18  33  52  75 105 143 184 221 260 310
#
# _framework density 17.952356000000002
#
# number of rings (size 3 to 8) (size 9 to 14) (size 15 to 20)
#    0.000    1.846    1.538    2.769    0.000    5.538 
#    0.000    0.385    0.000    2.769    0.000    3.231 
#    0.000    0.000    0.000    0.000    0.000    0.000 
#
# Total GULP energy -644963.848033 kJ/mol
# GULP energy per Si atom -12403.150924 kJ/mol
# Density = 1.791150 g / cm^3
# Si number density = 17.952356 Si / 1000 Ang^3
#
#
#
# Elastic Constant Matrix: (Units=GPa)
#
#
# Indices 1 2 3 4 5 6 
#
# 1 69.6431 53.9752 38.7779 0.0000 0.0000 0.0000
# 2 53.9752 140.1389 59.7377 0.0000 0.0000 0.0000
# 3 38.7779 59.7377 95.2198 0.0000 0.0000 0.0000
# 4 0.0000 0.0000 0.0000 31.6330 0.0000 0.0000
# 5 0.0000 0.0000 0.0000 0.0000 22.3489 0.0000
# 6 0.0000 0.0000 0.0000 0.0000 0.0000 37.9169
#
#
#
# Elastic Compliance Matrix: (Units=1/GPa)
#
#
# Indices 1 2 3 4 5 6 
#
# 1 0.022080 -0.006377 -0.004992 0.000000 0.000000 0.000000
# 2 -0.006377 0.011582 -0.004669 0.000000 0.000000 0.000000
# 3 -0.004992 -0.004669 0.015464 0.000000 0.000000 0.000000
# 4 0.000000 0.000000 0.000000 0.031613 0.000000 0.000000
# 5 0.000000 0.000000 0.000000 0.000000 0.044745 0.000000
# 6 0.000000 0.000000 0.000000 0.000000 0.000000 0.026373
#
#
# Mechanical properties :
#
#
# Convention : Reuss Voigt Hill
#
# Bulk Modulus (GPa) = 58.64598 67.77593 63.21096
# Shear Modulus (GPa) = 26.36893 28.54715 27.45804
#
# Velocity S-wave (km/s) = 3.83669 3.99201 3.91512
# Velocity P-wave (km/s) = 7.23639 7.68657 7.46488
#
# Compressibility (1/GPa) = 0.01705147
#
# Stress axis : x y z
#
# Youngs Moduli (GPa) = 45.28925 86.33942 64.66494
#
# Poissons Ratio (x) = 0.55054 0.32279
# Poissons Ratio (y) = 0.28879 0.30195
# Poissons Ratio (z) = 0.22607 0.40316
#
# Static dielectric constant tensor:
#      x y z
#    x 3.374290 0.000000 0.000000 
#    y 0.000000 3.527470 0.000000 
#    z 0.000000 0.000000 3.341950 
# 
# 
# High freq. dielectric constant tensor:
#      x y z
#    x 1.703810 0.000000 0.000000 
#    y 0.000000 1.704820 0.000000 
#    z 0.000000 0.000000 1.676910 
# 
# From -- ./inp_files/60819.got.cif
#   From: 2010.03.12/outbox.cif.g09.slc.cpg/sg65_31_cif.got.tgz:60819.got - 2010.04.10 20:52:16.
