data_PCOD8270994
_publ_section_title
;
Structure prediction by ZEFSAII (Michael W. Deem and Ramdas Pophale) SiO2 
 PCOD8270994
Probable space group: C M M M
;
_chemical_formula_sum "Si O2"
_cell_formula_units_Z 104
_cell_length_a 9.206243
_cell_length_b 28.194639
_cell_length_c 28.568747
_cell_angle_alpha 90.000000
_cell_angle_beta 90.000000
_cell_angle_gamma 90.000000
_cell_volume 7415.495323
_symmetry_space_group_name_H-M "C M M M"
_symmetry_group_IT_number 65
_symmetry_cell_setting 'orthorhombic'
loop_
_space_group_symop_operation_xyz
x,y,z
-x,-y,z
x,-y,-z
-x,y,-z
-x,-y,-z
x,y,-z
-x,y,z
x,-y,z
1/2+x,1/2+y,z
1/2-x,1/2-y,z
1/2+x,1/2-y,-z
1/2-x,1/2+y,-z
1/2-x,1/2-y,-z
1/2+x,1/2+y,-z
1/2-x,1/2+y,z
1/2+x,1/2-y,z
loop_
_atom_site_type_symbol
_atom_site_label
_atom_site_fract_x
_atom_site_fract_y
_atom_site_fract_z
Si Si1 0.830336 0.944747 0.168416
Si Si2 0.326753 0.111613 0.910495
Si Si3 0.660169 0.443777 0.726562
Si Si4 0.329896 0.701415 0.054377
Si Si5 0.837923 0.556694 0.360675
Si Si6 0.671952 0.052758 0.000000
Si Si7 0.663140 0.556367 0.448624
O O1 0.725278 0.913944 0.136328
O O2 0.787195 0.930112 0.221394
O O3 0.000000 0.933886 0.158747
O O4 0.798042 0.000000 0.159410
O O5 0.500000 0.118805 0.909836
O O6 0.246849 0.161852 0.914033
O O7 0.273808 0.079864 0.954044
O O8 0.500000 0.422773 0.717523
O O9 0.653341 0.500000 0.722729
O O10 0.764713 0.422919 0.686535
O O11 0.500000 0.705314 0.066779
O O12 0.250000 0.750000 0.067096
O O13 0.306536 0.688773 0.000000
O O14 0.833455 0.500000 0.360840
O O15 0.760630 0.577578 0.407004
O O16 0.000000 0.576369 0.361342
O O17 0.500000 0.049660 0.000000
O O18 0.740065 0.000000 0.000000
O O19 0.722128 0.572233 0.500000
O O20 0.500000 0.575356 0.441642
O O21 0.663740 0.500000 0.445699
#
# Coordination Sequence:
#
# PCOD8270994 Si02
#       7
#    16  16  16  16  16   8  16
#     4   9  18  31  44  59  80 105 134 166 198 232
#     4  11  20  31  47  65  87 110 133 159 193 234
#     4   8  14  25  38  48  62  88 119 150 184 223
#     4  10  20  34  52  70  88 106 129 158 191 228
#     4   9  15  20  28  43  60  77 102 140 182 222
#     4   9  18  30  42  59  84 111 136 159 184 221
#     4   8  13  20  28  37  51  74 103 133 170 220
#
# _framework density 14.024687
#
# number of rings (size 3 to 8) (size 9 to 14) (size 15 to 20)
#    0.000    2.846    0.769    3.231    0.000    4.308 
#    0.000    3.077    0.000    1.846    0.000    0.000 
#    0.000    0.000    0.000    0.000    0.000    0.000 
#
# Total GULP energy -644550.535667 kJ/mol
# GULP energy per Si atom -12395.202609 kJ/mol
# Density = 1.399277 g / cm^3
# Si number density = 14.024687 Si / 1000 Ang^3
#
#
#
# Elastic Constant Matrix: (Units=GPa)
#
#
# Indices 1 2 3 4 5 6 
#
# 1 93.6907 32.5057 62.7175 0.0000 0.0000 0.0000
# 2 32.5057 47.5255 30.5422 0.0000 0.0000 0.0000
# 3 62.7175 30.5422 120.6993 0.0000 0.0000 0.0000
# 4 0.0000 0.0000 0.0000 1.4174 0.0000 0.0000
# 5 0.0000 0.0000 0.0000 0.0000 21.6057 0.0000
# 6 0.0000 0.0000 0.0000 0.0000 0.0000 15.4681
#
#
#
# Elastic Compliance Matrix: (Units=1/GPa)
#
#
# Indices 1 2 3 4 5 6 
#
# 1 0.018468 -0.007720 -0.007643 0.000000 0.000000 0.000000
# 2 -0.007720 0.028354 -0.003164 0.000000 0.000000 0.000000
# 3 -0.007643 -0.003164 0.013057 0.000000 0.000000 0.000000
# 4 0.000000 0.000000 0.000000 0.705528 0.000000 0.000000
# 5 0.000000 0.000000 0.000000 0.000000 0.046284 0.000000
# 6 0.000000 0.000000 0.000000 0.000000 0.000000 0.064649
#
#
# Mechanical properties :
#
#
# Convention : Reuss Voigt Hill
#
# Bulk Modulus (GPa) = 43.80786 57.04958 50.42872
# Shear Modulus (GPa) = 5.42887 16.77492 11.10190
#
# Velocity S-wave (km/s) = 1.96960 3.46222 2.81659
# Velocity P-wave (km/s) = 6.03958 7.53319 6.82735
#
# Compressibility (1/GPa) = 0.02282695
#
# Stress axis : x y z
#
# Youngs Moduli (GPa) = 54.14786 35.26790 76.58770
#
# Poissons Ratio (x) = 0.27226 0.58535
# Poissons Ratio (y) = 0.41801 0.24229
# Poissons Ratio (z) = 0.41384 0.11157
#
# Static dielectric constant tensor:
#      x y z
#    x 2.846900 0.000000 0.000000 
#    y 0.000000 2.293090 0.000000 
#    z 0.000000 0.000000 2.933260 
# 
# 
# High freq. dielectric constant tensor:
#      x y z
#    x 1.541510 0.000000 0.000000 
#    y 0.000000 1.465530 0.000000 
#    z 0.000000 0.000000 1.539570 
# 
# From -- ./inp_files/74055.got.cif
#   From: 2010.03.12/outbox.cif.g09.slc.cpg/sg65_38_cif.got.tgz:74055.got - 2010.04.10 20:52:16.
