data_PCOD8270989
_publ_section_title
;
Structure prediction by ZEFSAII (Michael W. Deem and Ramdas Pophale) SiO2 
 PCOD8270989
Probable space group: C M M M
;
_chemical_formula_sum "Si O2"
_cell_formula_units_Z 104
_cell_length_a 9.286402
_cell_length_b 29.084230
_cell_length_c 20.472838
_cell_angle_alpha 90.000000
_cell_angle_beta 90.000000
_cell_angle_gamma 90.000000
_cell_volume 5529.464832
_symmetry_space_group_name_H-M "C M M M"
_symmetry_group_IT_number 65
_symmetry_cell_setting 'orthorhombic'
loop_
_space_group_symop_operation_xyz
x,y,z
-x,-y,z
x,-y,-z
-x,y,-z
-x,-y,-z
x,y,-z
-x,y,z
x,-y,z
1/2+x,1/2+y,z
1/2-x,1/2-y,z
1/2+x,1/2-y,-z
1/2-x,1/2+y,-z
1/2-x,1/2-y,-z
1/2+x,1/2+y,-z
1/2-x,1/2+y,z
1/2+x,1/2-y,z
loop_
_atom_site_type_symbol
_atom_site_label
_atom_site_fract_x
_atom_site_fract_y
_atom_site_fract_z
Si Si1 0.168091 0.358565 0.121144
Si Si2 0.665410 0.446626 0.317332
Si Si3 0.330629 0.051830 0.814767
Si Si4 0.332506 0.794043 0.235363
Si Si5 0.333747 0.205957 0.383585
Si Si6 0.326224 0.799640 0.000000
Si Si7 0.165482 0.393071 0.426391
O O1 0.215939 0.412378 0.127578
O O2 0.211954 0.336707 0.190441
O O3 0.000000 0.356600 0.108766
O O4 0.234066 0.329515 0.061364
O O5 0.500000 0.431963 0.308243
O O6 0.680640 0.500000 0.333817
O O7 0.749320 0.434511 0.251321
O O8 0.730746 0.419965 0.378416
O O9 0.500000 0.056570 0.799881
O O10 0.291007 0.000000 0.837554
O O11 0.500000 0.783083 0.229972
O O12 0.250000 0.750000 0.207743
O O13 0.285601 0.805137 0.309265
O O14 0.500000 0.219007 0.387173
O O15 0.250000 0.250000 0.411872
O O16 0.297361 0.161135 0.425755
O O17 0.250000 0.750000 0.000000
O O18 0.500000 0.792812 0.000000
O O19 0.189920 0.411122 0.500000
O O20 0.000000 0.400594 0.404236
#
# Coordination Sequence:
#
# PCOD8270989 Si02
#       7
#    16  16  16  16  16   8  16
#     4   9  17  30  49  73 101 134 168 206 250 290
#     4  10  21  36  54  78 106 132 162 209 267 316
#     4   9  17  32  55  78  99 128 168 209 252 306
#     4   9  16  27  44  65  91 121 156 199 245 290
#     4   9  18  32  49  70  96 126 163 209 256 300
#     4  10  20  34  51  73 107 145 178 210 247 296
#     4  10  21  36  53  73  99 135 177 213 248 302
#
# _framework density 18.808330000000002
#
# number of rings (size 3 to 8) (size 9 to 14) (size 15 to 20)
#    0.000    2.615    0.000    1.846    0.000    4.923 
#    0.000    6.538    0.000    2.308    0.000    0.000 
#    0.000    3.077    0.000    0.000    0.000    0.000 
#
# Total GULP energy -644575.449926 kJ/mol
# GULP energy per Si atom -12395.681729 kJ/mol
# Density = 1.876552 g / cm^3
# Si number density = 18.808330 Si / 1000 Ang^3
#
#
#
# Elastic Constant Matrix: (Units=GPa)
#
#
# Indices 1 2 3 4 5 6 
#
# 1 51.4569 40.0990 30.7943 0.0000 0.0000 0.0000
# 2 40.0990 116.7108 58.2596 0.0000 0.0000 0.0000
# 3 30.7943 58.2596 79.8483 0.0000 0.0000 0.0000
# 4 0.0000 0.0000 0.0000 -8.4118 0.0000 0.0000
# 5 0.0000 0.0000 0.0000 0.0000 13.8388 0.0000
# 6 0.0000 0.0000 0.0000 0.0000 0.0000 30.2194
#
#
#
# Elastic Compliance Matrix: (Units=1/GPa)
#
#
# Indices 1 2 3 4 5 6 
#
# 1 0.028255 -0.006713 -0.005999 0.000000 0.000000 0.000000
# 2 -0.006713 0.015072 -0.008408 0.000000 0.000000 0.000000
# 3 -0.005999 -0.008408 0.020972 0.000000 0.000000 0.000000
# 4 0.000000 0.000000 0.000000 -0.118880 0.000000 0.000000
# 5 0.000000 0.000000 0.000000 0.000000 0.072260 0.000000
# 6 0.000000 0.000000 0.000000 0.000000 0.000000 0.033091
#
#
# Mechanical properties :
#
#
# Convention : Reuss Voigt Hill
#
# Bulk Modulus (GPa) = 45.33260 56.25797 50.79529
# Shear Modulus (GPa) = 49.81935 15.05347 32.43641
#
# Velocity S-wave (km/s) = 5.15222 2.83214 4.15731
# Velocity P-wave (km/s) = 7.71678 6.37737 7.07882
#
# Compressibility (1/GPa) = 0.02205918
#
# Stress axis : x y z
#
# Youngs Moduli (GPa) = 35.39174 66.34970 47.68354
#
# Poissons Ratio (x) = 0.44543 0.28603
# Poissons Ratio (y) = 0.23760 0.40090
# Poissons Ratio (z) = 0.21230 0.55784
#
# Static dielectric constant tensor:
#      x y z
#    x 3.282670 0.000000 0.000000 
#    y 0.000000 3.724370 0.000000 
#    z 0.000000 0.000000 3.429050 
# 
# 
# High freq. dielectric constant tensor:
#      x y z
#    x 1.705500 0.000000 0.000000 
#    y 0.000000 1.739780 0.000000 
#    z 0.000000 0.000000 1.719750 
# 
# From -- ./inp_files/60836.got.cif
#   From: 2010.03.12/outbox.cif.g09.slc.cpg/sg65_31_cif.got.tgz:60836.got - 2010.04.10 20:52:16.
