data_PCOD8270766
_publ_section_title
;
Structure prediction by ZEFSAII (Michael W. Deem and Ramdas Pophale) SiO2 
 PCOD8270766
Probable space group: C M M M
;
_chemical_formula_sum "Si O2"
_cell_formula_units_Z 120
_cell_length_a 26.723202
_cell_length_b 8.903208
_cell_length_c 27.480683
_cell_angle_alpha 90.000000
_cell_angle_beta 90.000000
_cell_angle_gamma 90.000000
_cell_volume 6538.265267
_symmetry_space_group_name_H-M "C M M M"
_symmetry_group_IT_number 65
_symmetry_cell_setting 'orthorhombic'
loop_
_space_group_symop_operation_xyz
x,y,z
-x,-y,z
x,-y,-z
-x,y,-z
-x,-y,-z
x,y,-z
-x,y,z
x,-y,z
1/2+x,1/2+y,z
1/2-x,1/2-y,z
1/2+x,1/2-y,-z
1/2-x,1/2+y,-z
1/2-x,1/2-y,-z
1/2+x,1/2+y,-z
1/2-x,1/2+y,z
1/2+x,1/2-y,z
loop_
_atom_site_type_symbol
_atom_site_label
_atom_site_fract_x
_atom_site_fract_y
_atom_site_fract_z
Si Si1 0.799852 0.826789 0.228237
Si Si2 0.401010 0.177338 0.608474
Si Si3 0.644626 0.177286 0.140872
Si Si4 0.604200 0.329435 0.290679
Si Si5 0.500000 0.820971 0.444878
Si Si6 0.302532 0.324840 0.055982
Si Si7 0.942749 0.172099 0.808516
Si Si8 0.698725 0.176611 0.443763
O O1 0.750000 0.750000 0.248521
O O2 0.816066 0.744096 0.179042
O O3 0.839955 0.806978 0.270824
O O4 0.790637 0.000000 0.215564
O O5 0.405011 0.219407 0.664763
O O6 0.449929 0.242563 0.581066
O O7 0.349492 0.241474 0.585202
O O8 0.400532 0.000000 0.602982
O O9 0.654560 0.247139 0.087931
O O10 0.588416 0.220885 0.156096
O O11 0.650348 0.000000 0.138846
O O12 0.595377 0.500000 0.308034
O O13 0.565544 0.284527 0.247935
O O14 0.500000 0.762005 0.500000
O O15 0.500000 0.000000 0.443055
O O16 0.299018 0.500000 0.068139
O O17 0.250000 0.250000 0.069451
O O18 0.316730 0.296059 0.000000
O O19 0.000000 0.193144 0.822804
O O20 0.924391 0.000000 0.815609
O O21 0.690727 0.219441 0.500000
O O22 0.750000 0.250000 0.423640
O O23 0.703810 0.000000 0.436226
#
# Coordination Sequence:
#
# PCOD8270766 Si02
#       8
#    16  16  16  16   8  16  16  16
#     4  10  20  35  53  73 102 140 180 216 257 309
#     4  10  20  33  52  77 102 130 166 209 255 307
#     4  11  21  33  52  79 109 140 177 221 268 315
#     4   9  20  35  51  74 103 135 166 203 255 310
#     4   9  18  34  55  77 101 131 167 209 258 309
#     4  10  20  34  53  78 110 147 184 221 263 313
#     4   9  19  37  58  76  99 135 177 218 263 316
#     4   9  18  33  52  73  97 128 166 206 249 300
#
# _framework density 18.353491000000002
#
# number of rings (size 3 to 8) (size 9 to 14) (size 15 to 20)
#    0.000    2.333    0.000    3.600    0.933    6.400 
#    0.000    2.667    0.000    2.000    0.000    2.800 
#    0.000    0.000    0.000    0.000    0.000    0.000 
#
# Total GULP energy -744117.855848 kJ/mol
# GULP energy per Si atom -12401.964264 kJ/mol
# Density = 1.831172 g / cm^3
# Si number density = 18.353491 Si / 1000 Ang^3
#
#
#
# Elastic Constant Matrix: (Units=GPa)
#
#
# Indices 1 2 3 4 5 6 
#
# 1 118.6573 41.3696 52.0960 0.0000 0.0000 0.0000
# 2 41.3696 80.1038 42.8210 0.0000 0.0000 0.0000
# 3 52.0960 42.8210 104.2736 0.0000 0.0000 0.0000
# 4 0.0000 0.0000 0.0000 30.4922 0.0000 0.0000
# 5 0.0000 0.0000 0.0000 0.0000 18.8725 0.0000
# 6 0.0000 0.0000 0.0000 0.0000 0.0000 26.3437
#
#
#
# Elastic Compliance Matrix: (Units=1/GPa)
#
#
# Indices 1 2 3 4 5 6 
#
# 1 0.011595 -0.003705 -0.004271 0.000000 0.000000 0.000000
# 2 -0.003705 0.017179 -0.005204 0.000000 0.000000 0.000000
# 3 -0.004271 -0.005204 0.013861 0.000000 0.000000 0.000000
# 4 0.000000 0.000000 0.000000 0.032795 0.000000 0.000000
# 5 0.000000 0.000000 0.000000 0.000000 0.052987 0.000000
# 6 0.000000 0.000000 0.000000 0.000000 0.000000 0.037960
#
#
# Mechanical properties :
#
#
# Convention : Reuss Voigt Hill
#
# Bulk Modulus (GPa) = 61.44427 63.95644 62.70036
# Shear Modulus (GPa) = 25.23193 26.25821 25.74507
#
# Velocity S-wave (km/s) = 3.71182 3.78655 3.74937
# Velocity P-wave (km/s) = 7.20563 7.35119 7.27877
#
# Compressibility (1/GPa) = 0.01627491
#
# Stress axis : x y z
#
# Youngs Moduli (GPa) = 86.24709 58.21114 72.14402
#
# Poissons Ratio (x) = 0.21565 0.30816
# Poissons Ratio (y) = 0.31952 0.37542
# Poissons Ratio (z) = 0.36840 0.30292
#
# Static dielectric constant tensor:
#      x y z
#    x 3.481250 0.000000 0.000000 
#    y 0.000000 3.268360 0.000000 
#    z 0.000000 0.000000 3.260370 
# 
# 
# High freq. dielectric constant tensor:
#      x y z
#    x 1.714180 0.000000 0.000000 
#    y 0.000000 1.703080 0.000000 
#    z 0.000000 0.000000 1.703690 
# 
# From -- ./inp_files/76167.got.cif
#   From: 2010.03.12/outbox.cif.g09.slc.cpg/sg65_39_cif.got.tgz:76167.got - 2010.04.10 20:52:16.
