data_PCOD8270839
_publ_section_title
;
Structure prediction by ZEFSAII (Michael W. Deem and Ramdas Pophale) SiO2 
 PCOD8270839
Probable space group: C M M M
;
_chemical_formula_sum "Si O2"
_cell_formula_units_Z 88
_cell_length_a 22.904896
_cell_length_b 13.875376
_cell_length_c 14.231622
_cell_angle_alpha 90.000000
_cell_angle_beta 90.000000
_cell_angle_gamma 90.000000
_cell_volume 4523.009344
_symmetry_space_group_name_H-M "C M M M"
_symmetry_group_IT_number 65
_symmetry_cell_setting 'orthorhombic'
loop_
_space_group_symop_operation_xyz
x,y,z
-x,-y,z
x,-y,-z
-x,y,-z
-x,-y,-z
x,y,-z
-x,y,z
x,-y,z
1/2+x,1/2+y,z
1/2-x,1/2-y,z
1/2+x,1/2-y,-z
1/2-x,1/2+y,-z
1/2-x,1/2-y,-z
1/2+x,1/2+y,-z
1/2-x,1/2+y,z
1/2+x,1/2-y,z
loop_
_atom_site_type_symbol
_atom_site_label
_atom_site_fract_x
_atom_site_fract_y
_atom_site_fract_z
Si Si1 0.771834 0.142731 0.895845
Si Si2 0.113112 0.194815 0.203968
Si Si3 0.642638 0.385948 0.606098
Si Si4 0.000000 0.890079 0.111148
Si Si5 0.773713 0.613936 0.398610
Si Si6 0.662480 0.105689 0.217276
O O1 0.750000 0.250000 0.904682
O O2 0.831175 0.135654 0.835645
O O3 0.719899 0.085595 0.845298
O O4 0.783134 0.099505 0.000000
O O5 0.104871 0.169496 0.314572
O O6 0.056433 0.163982 0.148575
O O7 0.119754 0.309892 0.181495
O O8 0.619362 0.364194 0.500000
O O9 0.639603 0.500000 0.625224
O O10 0.708638 0.344115 0.615989
O O11 0.000000 0.000000 0.146809
O O12 0.000000 0.884461 0.000000
O O13 0.798516 0.647582 0.500000
O O14 0.767247 0.500000 0.395543
O O15 0.817747 0.647839 0.318393
O O16 0.631028 0.000000 0.223830
#
# Coordination Sequence:
#
# PCOD8270839 Si02
#       6
#    16  16  16   8  16  16
#     4   9  18  32  51  77 108 140 176 222 277 332
#     4  11  21  37  59  81 109 148 189 231 277 330
#     4   9  17  30  52  83 116 149 186 229 278 332
#     4  11  26  46  66  84 102 135 188 244 288 330
#     4   8  14  26  46  77 118 155 184 216 259 321
#     4  10  20  33  52  84 120 149 180 221 274 335
#
# _framework density 19.456071999999999
#
# number of rings (size 3 to 8) (size 9 to 14) (size 15 to 20)
#    0.000    2.455    1.818    2.182    0.000    2.545 
#    0.000    2.727    0.000    2.182    0.000    0.000 
#    0.000    4.364    0.000    0.000    0.000    0.000 
#
# Total GULP energy -545292.597612 kJ/mol
# GULP energy per Si atom -12393.013582 kJ/mol
# Density = 1.941179 g / cm^3
# Si number density = 19.456072 Si / 1000 Ang^3
#
#
#
# Elastic Constant Matrix: (Units=GPa)
#
#
# Indices 1 2 3 4 5 6 
#
# 1 78.0622 40.2659 33.6775 0.0000 0.0000 0.0000
# 2 40.2659 98.0687 29.4404 0.0000 0.0000 0.0000
# 3 33.6775 29.4404 120.2775 0.0000 0.0000 0.0000
# 4 0.0000 0.0000 0.0000 11.2433 0.0000 0.0000
# 5 0.0000 0.0000 0.0000 0.0000 23.0301 0.0000
# 6 0.0000 0.0000 0.0000 0.0000 0.0000 20.7573
#
#
#
# Elastic Compliance Matrix: (Units=1/GPa)
#
#
# Indices 1 2 3 4 5 6 
#
# 1 0.017438 -0.006146 -0.003378 0.000000 0.000000 0.000000
# 2 -0.006146 0.013172 -0.001503 0.000000 0.000000 0.000000
# 3 -0.003378 -0.001503 0.009628 0.000000 0.000000 0.000000
# 4 0.000000 0.000000 0.000000 0.088942 0.000000 0.000000
# 5 0.000000 0.000000 0.000000 0.000000 0.043421 0.000000
# 6 0.000000 0.000000 0.000000 0.000000 0.000000 0.048176
#
#
# Mechanical properties :
#
#
# Convention : Reuss Voigt Hill
#
# Bulk Modulus (GPa) = 54.99637 55.90845 55.45241
# Shear Modulus (GPa) = 20.08908 23.87446 21.98177
#
# Velocity S-wave (km/s) = 3.21679 3.50679 3.36492
# Velocity P-wave (km/s) = 6.49040 6.72272 6.60758
#
# Compressibility (1/GPa) = 0.01818302
#
# Stress axis : x y z
#
# Youngs Moduli (GPa) = 57.34679 75.92141 103.86401
#
# Poissons Ratio (x) = 0.46658 0.35088
# Poissons Ratio (y) = 0.35243 0.15613
# Poissons Ratio (z) = 0.19373 0.11413
#
# Static dielectric constant tensor:
#      x y z
#    x 3.108560 0.000000 0.000000 
#    y 0.000000 3.461160 0.000000 
#    z 0.000000 0.000000 4.281210 
# 
# 
# High freq. dielectric constant tensor:
#      x y z
#    x 1.685490 0.000000 0.000000 
#    y 0.000000 1.767490 0.000000 
#    z 0.000000 0.000000 1.776810 
# 
# From -- ./inp_files/40552.got.cif
#   From: 2010.03.12/outbox.cif.g09.slc.cpg/sg65_21_cif.got.tgz:40552.got - 2010.04.10 20:52:16.
