data_PCOD8270927
_publ_section_title
;
Structure prediction by ZEFSAII (Michael W. Deem and Ramdas Pophale) SiO2 
 PCOD8270927
Probable space group: C M M M
;
_chemical_formula_sum "Si O2"
_cell_formula_units_Z 88
_cell_length_a 8.039447
_cell_length_b 27.540181
_cell_length_c 23.003748
_cell_angle_alpha 90.000000
_cell_angle_beta 90.000000
_cell_angle_gamma 90.000000
_cell_volume 5093.209823
_symmetry_space_group_name_H-M "C M M M"
_symmetry_group_IT_number 65
_symmetry_cell_setting 'orthorhombic'
loop_
_space_group_symop_operation_xyz
x,y,z
-x,-y,z
x,-y,-z
-x,y,-z
-x,-y,-z
x,y,-z
-x,y,z
x,-y,z
1/2+x,1/2+y,z
1/2-x,1/2-y,z
1/2+x,1/2-y,-z
1/2-x,1/2+y,-z
1/2-x,1/2-y,-z
1/2+x,1/2+y,-z
1/2-x,1/2+y,z
1/2+x,1/2-y,z
loop_
_atom_site_type_symbol
_atom_site_label
_atom_site_fract_x
_atom_site_fract_y
_atom_site_fract_z
Si Si1 0.805871 0.398621 0.765620
Si Si2 0.804185 0.852758 0.935900
Si Si3 0.000000 0.942623 0.564682
Si Si4 0.191078 0.556864 0.642979
Si Si5 0.305713 0.802232 0.825377
Si Si6 0.807330 0.052620 0.124488
O O1 0.764775 0.411478 0.699439
O O2 0.741942 0.343985 0.780922
O O3 0.713599 0.436661 0.807125
O O4 0.000000 0.403608 0.778182
O O5 0.762649 0.810189 0.890649
O O6 0.724949 0.903902 0.913251
O O7 0.000000 0.858376 0.939566
O O8 0.731048 0.840714 0.000000
O O9 0.171854 0.926065 0.595859
O O10 0.000000 0.919790 0.500000
O O11 0.000000 0.000000 0.560739
O O12 0.210799 0.500000 0.657739
O O13 0.000000 0.567144 0.621782
O O14 0.500000 0.803834 0.829232
O O15 0.250000 0.750000 0.801456
O O16 0.000000 0.049748 0.109565
O O17 0.725489 0.000000 0.109865
#
# Coordination Sequence:
#
# PCOD8270927 Si02
#       6
#    16  16   8  16  16  16
#     4   9  18  31  46  65  90 119 149 188 230 279
#     4   9  18  32  47  63  85 114 150 186 224 276
#     4   9  18  30  44  68 102 138 173 201 225 261
#     4   9  17  29  46  69  98 133 167 198 232 271
#     4  10  20  34  50  67  88 113 142 185 240 287
#     4   9  17  27  42  65  89 115 147 184 229 273
#
# _framework density 17.277906000000002
#
# number of rings (size 3 to 8) (size 9 to 14) (size 15 to 20)
#    0.000    2.818    0.000    1.091    1.273    3.273 
#    0.000    3.636    0.000    0.000    0.000    5.091 
#    0.000    0.727    0.364    0.000    0.000    0.000 
#
# Total GULP energy -545274.183207 kJ/mol
# GULP energy per Si atom -12392.595073 kJ/mol
# Density = 1.723858 g / cm^3
# Si number density = 17.277906 Si / 1000 Ang^3
#
#
#
# Elastic Constant Matrix: (Units=GPa)
#
#
# Indices 1 2 3 4 5 6 
#
# 1 53.2854 13.8563 41.1766 0.0000 0.0000 0.0000
# 2 13.8563 84.6793 32.0873 0.0000 0.0000 0.0000
# 3 41.1766 32.0873 110.9567 0.0000 0.0000 0.0000
# 4 0.0000 0.0000 0.0000 15.1586 0.0000 0.0000
# 5 0.0000 0.0000 0.0000 0.0000 17.3320 0.0000
# 6 0.0000 0.0000 0.0000 0.0000 0.0000 15.4631
#
#
#
# Elastic Compliance Matrix: (Units=1/GPa)
#
#
# Indices 1 2 3 4 5 6 
#
# 1 0.026348 -0.000681 -0.009581 0.000000 0.000000 0.000000
# 2 -0.000681 0.013280 -0.003588 0.000000 0.000000 0.000000
# 3 -0.009581 -0.003588 0.013606 0.000000 0.000000 0.000000
# 4 0.000000 0.000000 0.000000 0.065969 0.000000 0.000000
# 5 0.000000 0.000000 0.000000 0.000000 0.057697 0.000000
# 6 0.000000 0.000000 0.000000 0.000000 0.000000 0.064670
#
#
# Mechanical properties :
#
#
# Convention : Reuss Voigt Hill
#
# Bulk Modulus (GPa) = 39.16300 47.01798 43.09049
# Shear Modulus (GPa) = 17.99988 20.37749 19.18868
#
# Velocity S-wave (km/s) = 3.23117 3.43796 3.33617
# Velocity P-wave (km/s) = 6.05280 6.55982 6.31140
#
# Compressibility (1/GPa) = 0.02553431
#
# Stress axis : x y z
#
# Youngs Moduli (GPa) = 37.95425 75.30015 73.49945
#
# Poissons Ratio (x) = 0.05127 0.70418
# Poissons Ratio (y) = 0.02584 0.26370
# Poissons Ratio (z) = 0.36363 0.27016
#
# Static dielectric constant tensor:
#      x y z
#    x 3.216600 0.000000 0.000000 
#    y 0.000000 3.257700 0.000000 
#    z 0.000000 0.000000 3.280730 
# 
# 
# High freq. dielectric constant tensor:
#      x y z
#    x 1.666950 0.000000 0.000000 
#    y 0.000000 1.647960 0.000000 
#    z 0.000000 0.000000 1.641630 
# 
# From -- ./inp_files/60266.got.cif
#   From: 2010.03.12/outbox.cif.g09.slc.cpg/sg65_31_cif.got.tgz:60266.got - 2010.04.10 20:52:16.
