data_PCOD8270135
_publ_section_title
;
Structure prediction by ZEFSAII (Michael W. Deem and Ramdas Pophale) SiO2 
 PCOD8270135
Probable space group: C M M M
;
_chemical_formula_sum "Si O2"
_cell_formula_units_Z 104
_cell_length_a 29.165452
_cell_length_b 8.898109
_cell_length_c 20.197217
_cell_angle_alpha 90.000000
_cell_angle_beta 90.000000
_cell_angle_gamma 90.000000
_cell_volume 5241.528656
_symmetry_space_group_name_H-M "C M M M"
_symmetry_group_IT_number 65
_symmetry_cell_setting 'orthorhombic'
loop_
_space_group_symop_operation_xyz
x,y,z
-x,-y,z
x,-y,-z
-x,y,-z
-x,-y,-z
x,y,-z
-x,y,z
x,-y,z
1/2+x,1/2+y,z
1/2-x,1/2-y,z
1/2+x,1/2-y,-z
1/2-x,1/2+y,-z
1/2-x,1/2-y,-z
1/2+x,1/2+y,-z
1/2-x,1/2+y,z
1/2+x,1/2-y,z
loop_
_atom_site_type_symbol
_atom_site_label
_atom_site_fract_x
_atom_site_fract_y
_atom_site_fract_z
Si Si1 0.116200 0.173625 0.073265
Si Si2 0.796518 0.677068 0.880780
Si Si3 0.050379 0.821666 0.813696
Si Si4 0.947152 0.176725 0.664280
Si Si5 0.639689 0.824333 0.385981
Si Si6 0.199225 0.179440 0.500000
Si Si7 0.204557 0.326554 0.268449
O O1 0.163214 0.264525 0.072883
O O2 0.083578 0.244746 0.129840
O O3 0.126365 0.000000 0.089090
O O4 0.093910 0.191197 0.000000
O O5 0.792676 0.500000 0.886509
O O6 0.750000 0.750000 0.907537
O O7 0.806199 0.732350 0.805411
O O8 0.065089 0.774430 0.739565
O O9 0.000000 0.755944 0.828330
O O10 0.048855 0.000000 0.818529
O O11 0.912786 0.264970 0.615157
O O12 0.000000 0.219275 0.647601
O O13 0.939642 0.000000 0.654322
O O14 0.670622 0.732564 0.436769
O O15 0.660829 0.792708 0.313786
O O16 0.640015 0.000000 0.405067
O O17 0.250000 0.250000 0.500000
O O18 0.203948 0.000000 0.500000
O O19 0.216550 0.500000 0.266654
O O20 0.250000 0.250000 0.298343
#
# Coordination Sequence:
#
# PCOD8270135 Si02
#       7
#    16  16  16  16  16   8  16
#     4  10  20  32  48  73 103 136 177 222 268 321
#     4  10  20  35  53  73  99 132 172 219 271 324
#     4   8  15  30  53  80 109 141 178 222 271 322
#     4   9  18  34  57  84 112 144 184 228 276 328
#     4  11  22  37  58  85 116 149 185 224 270 321
#     4  12  26  44  63  86 119 156 192 225 261 311
#     4   9  19  33  52  79 106 133 170 218 269 322
#
# _framework density 19.841539000000001
#
# number of rings (size 3 to 8) (size 9 to 14) (size 15 to 20)
#    0.000    2.308    0.000    3.923    0.000    4.308 
#    0.000    1.923    0.000    3.692    0.000    1.077 
#    0.000    0.000    0.000    0.000    0.000    0.000 
#
# Total GULP energy -644715.249250 kJ/mol
# GULP energy per Si atom -12398.370178 kJ/mol
# Density = 1.979638 g / cm^3
# Si number density = 19.841539 Si / 1000 Ang^3
#
#
#
# Elastic Constant Matrix: (Units=GPa)
#
#
# Indices 1 2 3 4 5 6 
#
# 1 134.9355 48.2294 51.5678 0.0000 0.0000 0.0000
# 2 48.2294 74.1931 33.3063 0.0000 0.0000 0.0000
# 3 51.5678 33.3063 70.9451 0.0000 0.0000 0.0000
# 4 0.0000 0.0000 0.0000 20.1128 0.0000 0.0000
# 5 0.0000 0.0000 0.0000 0.0000 27.8101 0.0000
# 6 0.0000 0.0000 0.0000 0.0000 0.0000 31.2609
#
#
#
# Elastic Compliance Matrix: (Units=1/GPa)
#
#
# Indices 1 2 3 4 5 6 
#
# 1 0.011416 -0.004683 -0.006099 0.000000 0.000000 0.000000
# 2 -0.004683 0.018998 -0.005515 0.000000 0.000000 0.000000
# 3 -0.006099 -0.005515 0.021118 0.000000 0.000000 0.000000
# 4 0.000000 0.000000 0.000000 0.049720 0.000000 0.000000
# 5 0.000000 0.000000 0.000000 0.000000 0.035958 0.000000
# 6 0.000000 0.000000 0.000000 0.000000 0.000000 0.031989
#
#
# Mechanical properties :
#
#
# Convention : Reuss Voigt Hill
#
# Bulk Modulus (GPa) = 52.80585 60.69786 56.75186
# Shear Modulus (GPa) = 24.02627 25.63477 24.83052
#
# Velocity S-wave (km/s) = 3.48358 3.59830 3.54141
# Velocity P-wave (km/s) = 6.54615 6.92253 6.73697
#
# Compressibility (1/GPa) = 0.01893730
#
# Stress axis : x y z
#
# Youngs Moduli (GPa) = 87.59934 52.63644 47.35287
#
# Poissons Ratio (x) = 0.24648 0.28882
# Poissons Ratio (y) = 0.41020 0.26117
# Poissons Ratio (z) = 0.53429 0.29031
#
# Static dielectric constant tensor:
#      x y z
#    x 3.725940 0.000000 0.000000 
#    y 0.000000 3.351560 0.000000 
#    z 0.000000 0.000000 3.704150 
# 
# 
# High freq. dielectric constant tensor:
#      x y z
#    x 1.778220 0.000000 0.000000 
#    y 0.000000 1.753930 0.000000 
#    z 0.000000 0.000000 1.767710 
# 
# From -- ./inp_files/65923.got.cif
#   From: 2010.03.12/outbox.cif.g09.slc.cpg/sg65_33_cif.got.tgz:65923.got - 2010.04.10 20:52:16.
