data_PCOD8270037
_publ_section_title
;
Structure prediction by ZEFSAII (Michael W. Deem and Ramdas Pophale) SiO2 
 PCOD8270037
Probable space group: C M M M
;
_chemical_formula_sum "Si O2"
_cell_formula_units_Z 112
_cell_length_a 18.358043
_cell_length_b 9.691821
_cell_length_c 35.928867
_cell_angle_alpha 90.000000
_cell_angle_beta 90.000000
_cell_angle_gamma 90.000000
_cell_volume 6392.567013
_symmetry_space_group_name_H-M "C M M M"
_symmetry_group_IT_number 65
_symmetry_cell_setting 'orthorhombic'
loop_
_space_group_symop_operation_xyz
x,y,z
-x,-y,z
x,-y,-z
-x,y,-z
-x,-y,-z
x,y,-z
-x,y,z
x,-y,z
1/2+x,1/2+y,z
1/2-x,1/2-y,z
1/2+x,1/2-y,-z
1/2-x,1/2+y,-z
1/2-x,1/2-y,-z
1/2+x,1/2+y,-z
1/2-x,1/2+y,z
1/2+x,1/2-y,z
loop_
_atom_site_type_symbol
_atom_site_label
_atom_site_fract_x
_atom_site_fract_y
_atom_site_fract_z
Si Si1 0.083970 0.840451 0.749097
Si Si2 0.678327 0.838087 0.608689
Si Si3 0.581177 0.163583 0.458657
Si Si4 0.915819 0.840287 0.107691
Si Si5 0.086539 0.654987 0.041068
Si Si6 0.583937 0.157675 0.319338
Si Si7 0.677601 0.661230 0.820696
O O1 0.112663 0.752490 0.714199
O O2 0.131345 0.798587 0.784543
O O3 0.000000 0.805964 0.758246
O O4 0.093898 0.000000 0.738809
O O5 0.750000 0.750000 0.613973
O O6 0.637467 0.780729 0.571942
O O7 0.627701 0.806808 0.643727
O O8 0.697197 0.000000 0.605420
O O9 0.607356 0.208886 0.500000
O O10 0.500000 0.222682 0.450967
O O11 0.577534 0.000000 0.455709
O O12 0.882840 0.756838 0.072640
O O13 0.870655 0.798207 0.143860
O O14 0.000000 0.802693 0.115402
O O15 0.907006 0.000000 0.097928
O O16 0.112944 0.500000 0.050188
O O17 0.000000 0.661747 0.040945
O O18 0.115242 0.699491 0.000000
O O19 0.500000 0.189214 0.328236
O O20 0.595598 0.000000 0.307083
O O21 0.697773 0.500000 0.820906
O O22 0.750000 0.750000 0.821170
#
# Coordination Sequence:
#
# PCOD8270037 Si02
#       7
#    16  16  16  16  16  16  16
#     4   9  18  34  55  75  95 122 157 196 238 283
#     4  10  20  32  47  70 100 130 158 193 238 284
#     4   8  14  27  49  73  93 119 161 206 241 278
#     4   9  17  30  49  71  94 122 157 195 233 275
#     4   8  14  25  42  67  98 126 152 188 235 281
#     4   9  18  33  52  72  94 122 158 198 235 273
#     4  10  21  35  50  70  97 127 157 192 235 281
#
# _framework density 17.520349
#
# number of rings (size 3 to 8) (size 9 to 14) (size 15 to 20)
#    0.000    3.000    0.000    1.714    0.000    6.286 
#    0.000    4.286    0.000    6.000    0.000    1.000 
#    0.000    0.000    0.000    0.000    0.000    0.000 
#
# Total GULP energy -694289.213065 kJ/mol
# GULP energy per Si atom -12398.021662 kJ/mol
# Density = 1.748047 g / cm^3
# Si number density = 17.520349 Si / 1000 Ang^3
#
#
#
# Elastic Constant Matrix: (Units=GPa)
#
#
# Indices 1 2 3 4 5 6 
#
# 1 79.8673 48.6607 71.4143 0.0000 0.0000 0.0000
# 2 48.6607 62.9587 75.8182 0.0000 0.0000 0.0000
# 3 71.4143 75.8182 173.4694 0.0000 0.0000 0.0000
# 4 0.0000 0.0000 0.0000 25.5940 0.0000 0.0000
# 5 0.0000 0.0000 0.0000 0.0000 2.1491 0.0000
# 6 0.0000 0.0000 0.0000 0.0000 0.0000 25.7643
#
#
#
# Elastic Compliance Matrix: (Units=1/GPa)
#
#
# Indices 1 2 3 4 5 6 
#
# 1 0.024839 -0.014533 -0.003874 0.000000 0.000000 0.000000
# 2 -0.014533 0.042036 -0.012390 0.000000 0.000000 0.000000
# 3 -0.003874 -0.012390 0.012775 0.000000 0.000000 0.000000
# 4 0.000000 0.000000 0.000000 0.039072 0.000000 0.000000
# 5 0.000000 0.000000 0.000000 0.000000 0.465309 0.000000
# 6 0.000000 0.000000 0.000000 0.000000 0.000000 0.038813
#
#
# Mechanical properties :
#
#
# Convention : Reuss Voigt Hill
#
# Bulk Modulus (GPa) = 55.38064 78.67577 67.02820
# Shear Modulus (GPa) = 7.24158 18.72830 12.98494
#
# Velocity S-wave (km/s) = 2.03524 3.27302 2.72533
# Velocity P-wave (km/s) = 6.09925 7.69977 6.94576
#
# Compressibility (1/GPa) = 0.01805685
#
# Stress axis : x y z
#
# Youngs Moduli (GPa) = 40.25902 23.78889 78.27921
#
# Poissons Ratio (x) = 0.34572 0.30325
# Poissons Ratio (y) = 0.58508 0.96987
# Poissons Ratio (z) = 0.15596 0.29474
#
# Static dielectric constant tensor:
#      x y z
#    x 3.094240 0.000000 0.000000 
#    y 0.000000 3.136010 0.000000 
#    z 0.000000 0.000000 3.564920 
# 
# 
# High freq. dielectric constant tensor:
#      x y z
#    x 1.657320 0.000000 0.000000 
#    y 0.000000 1.657730 0.000000 
#    z 0.000000 0.000000 1.692410 
# 
# From -- ./inp_files/77683.got.cif
#   From: 2010.03.12/outbox.cif.g09.slc.cpg/sg65_39_cif.got.tgz:77683.got - 2010.04.10 20:52:16.
