data_PCOD8270155
_publ_section_title
;
Structure prediction by ZEFSAII (Michael W. Deem and Ramdas Pophale) SiO2 
 PCOD8270155
Probable space group: C M M M
;
_chemical_formula_sum "Si O2"
_cell_formula_units_Z 104
_cell_length_a 9.127385
_cell_length_b 29.054591
_cell_length_c 22.425580
_cell_angle_alpha 90.000000
_cell_angle_beta 90.000000
_cell_angle_gamma 90.000000
_cell_volume 5947.094235
_symmetry_space_group_name_H-M "C M M M"
_symmetry_group_IT_number 65
_symmetry_cell_setting 'orthorhombic'
loop_
_space_group_symop_operation_xyz
x,y,z
-x,-y,z
x,-y,-z
-x,y,-z
-x,-y,-z
x,y,-z
-x,y,z
x,-y,z
1/2+x,1/2+y,z
1/2-x,1/2-y,z
1/2+x,1/2-y,-z
1/2-x,1/2+y,-z
1/2-x,1/2-y,-z
1/2+x,1/2+y,-z
1/2-x,1/2+y,z
1/2+x,1/2-y,z
loop_
_atom_site_type_symbol
_atom_site_label
_atom_site_fract_x
_atom_site_fract_y
_atom_site_fract_z
Si Si1 0.671597 0.445713 0.000000
Si Si2 0.162802 0.053997 0.345932
Si Si3 0.330035 0.446758 0.209743
Si Si4 0.173404 0.604710 0.891955
Si Si5 0.336056 0.706425 0.570973
Si Si6 0.170782 0.383831 0.431747
Si Si7 0.670595 0.795155 0.068509
O O1 0.744685 0.424430 0.058125
O O2 0.699627 0.500000 0.000000
O O3 0.500000 0.434088 0.000000
O O4 0.201571 0.066653 0.278056
O O5 0.282743 0.073954 0.390653
O O6 0.000000 0.072593 0.361830
O O7 0.166298 0.000000 0.354384
O O8 0.500000 0.438332 0.193522
O O9 0.289949 0.500000 0.197589
O O10 0.225632 0.413821 0.171726
O O11 0.215717 0.658706 0.896038
O O12 0.000000 0.598057 0.900079
O O13 0.337790 0.709004 0.500000
O O14 0.500000 0.706520 0.596910
O O15 0.250000 0.750000 0.597668
O O16 0.254515 0.660792 0.592572
O O17 0.213423 0.395072 0.500000
O O18 0.000000 0.374249 0.425569
O O19 0.500000 0.785556 0.074166
O O20 0.750000 0.750000 0.095463
O O21 0.717888 0.802793 0.000000
#
# Coordination Sequence:
#
# PCOD8270155 Si02
#       7
#     8  16  16  16  16  16  16
#     4  11  23  35  48  71 104 139 172 205 244 295
#     4   9  19  36  55  73  97 132 173 215 256 303
#     4   9  19  36  55  75 100 132 172 212 250 302
#     4  11  21  34  52  77 106 133 165 209 258 302
#     4   9  16  27  45  69  98 131 165 200 242 296
#     4  10  20  32  48  74 106 135 166 209 259 309
#     4   9  18  33  50  72 102 133 168 208 248 296
#
# _framework density 17.487531000000001
#
# number of rings (size 3 to 8) (size 9 to 14) (size 15 to 20)
#    0.000    2.385    0.769    3.000    0.000    8.000 
#    0.000    3.077    0.000    0.923    0.000    2.154 
#    0.000    0.000    0.000    0.000    0.000    0.000 
#
# Total GULP energy -644822.885984 kJ/mol
# GULP energy per Si atom -12400.440115 kJ/mol
# Density = 1.744773 g / cm^3
# Si number density = 17.487531 Si / 1000 Ang^3
#
#
#
# Elastic Constant Matrix: (Units=GPa)
#
#
# Indices 1 2 3 4 5 6 
#
# 1 100.9033 62.4111 46.1485 0.0000 0.0000 0.0000
# 2 62.4111 107.2466 54.6131 0.0000 0.0000 0.0000
# 3 46.1485 54.6131 70.5669 0.0000 0.0000 0.0000
# 4 0.0000 0.0000 0.0000 6.8173 0.0000 0.0000
# 5 0.0000 0.0000 0.0000 0.0000 22.7972 0.0000
# 6 0.0000 0.0000 0.0000 0.0000 0.0000 36.5214
#
#
#
# Elastic Compliance Matrix: (Units=1/GPa)
#
#
# Indices 1 2 3 4 5 6 
#
# 1 0.016735 -0.006875 -0.005623 0.000000 0.000000 0.000000
# 2 -0.006875 0.018214 -0.009600 0.000000 0.000000 0.000000
# 3 -0.005623 -0.009600 0.025278 0.000000 0.000000 0.000000
# 4 0.000000 0.000000 0.000000 0.146685 0.000000 0.000000
# 5 0.000000 0.000000 0.000000 0.000000 0.043865 0.000000
# 6 0.000000 0.000000 0.000000 0.000000 0.000000 0.027381
#
#
# Mechanical properties :
#
#
# Convention : Reuss Voigt Hill
#
# Bulk Modulus (GPa) = 62.38309 67.22912 64.80611
# Shear Modulus (GPa) = 15.25797 20.93011 18.09404
#
# Velocity S-wave (km/s) = 2.95703 3.46332 3.22014
# Velocity P-wave (km/s) = 6.88542 7.38378 7.13895
#
# Compressibility (1/GPa) = 0.01602999
#
# Stress axis : x y z
#
# Youngs Moduli (GPa) = 59.75614 54.90365 39.56029
#
# Poissons Ratio (x) = 0.37747 0.22246
# Poissons Ratio (y) = 0.41083 0.37977
# Poissons Ratio (z) = 0.33602 0.52707
#
# Static dielectric constant tensor:
#      x y z
#    x 3.393190 0.000000 0.000000 
#    y 0.000000 3.313940 0.000000 
#    z 0.000000 0.000000 3.044160 
# 
# 
# High freq. dielectric constant tensor:
#      x y z
#    x 1.684180 0.000000 0.000000 
#    y 0.000000 1.680360 0.000000 
#    z 0.000000 0.000000 1.645170 
# 
# From -- ./inp_files/68201.got.cif
#   From: 2010.03.12/outbox.cif.g09.slc.cpg/sg65_35_cif.got.tgz:68201.got - 2010.04.10 20:52:16.
