data_PCOD8270246
_publ_section_title
;
Structure prediction by ZEFSAII (Michael W. Deem and Ramdas Pophale) SiO2 
 PCOD8270246
Probable space group: C M M M
;
_chemical_formula_sum "Si O2"
_cell_formula_units_Z 88
_cell_length_a 9.097985
_cell_length_b 30.199546
_cell_length_c 17.525820
_cell_angle_alpha 90.000000
_cell_angle_beta 90.000000
_cell_angle_gamma 90.000000
_cell_volume 4815.306964
_symmetry_space_group_name_H-M "C M M M"
_symmetry_group_IT_number 65
_symmetry_cell_setting 'orthorhombic'
loop_
_space_group_symop_operation_xyz
x,y,z
-x,-y,z
x,-y,-z
-x,y,-z
-x,-y,-z
x,y,-z
-x,y,z
x,-y,z
1/2+x,1/2+y,z
1/2-x,1/2-y,z
1/2+x,1/2-y,-z
1/2-x,1/2+y,-z
1/2-x,1/2-y,-z
1/2+x,1/2+y,-z
1/2-x,1/2+y,z
1/2+x,1/2-y,z
loop_
_atom_site_type_symbol
_atom_site_label
_atom_site_fract_x
_atom_site_fract_y
_atom_site_fract_z
Si Si1 0.671295 0.209233 0.633370
Si Si2 0.332782 0.948543 0.087017
Si Si3 0.669783 0.611683 0.204095
Si Si4 0.175142 0.449835 0.500000
Si Si5 0.329110 0.709597 0.204674
Si Si6 0.328727 0.111234 0.364523
O O1 0.500000 0.220319 0.639971
O O2 0.750000 0.250000 0.586973
O O3 0.747121 0.207568 0.715143
O O4 0.696021 0.160275 0.598081
O O5 0.500000 0.933209 0.100875
O O6 0.225909 0.922375 0.142021
O O7 0.316106 0.000000 0.105963
O O8 0.286461 0.939028 0.000000
O O9 0.500000 0.602686 0.219726
O O10 0.693489 0.661015 0.168285
O O11 0.748759 0.604554 0.284526
O O12 0.235893 0.500000 0.500000
O O13 0.233070 0.424609 0.424611
O O14 0.000000 0.448940 0.500000
O O15 0.500000 0.720836 0.214920
O O16 0.250000 0.750000 0.157404
O O17 0.500000 0.103757 0.348098
#
# Coordination Sequence:
#
# PCOD8270246 Si02
#       6
#    16  16  16   8  16  16
#     4   9  15  24  41  65  93 123 155 194 241 290
#     4   9  19  36  56  77 101 130 165 204 246 294
#     4  10  20  32  50  78 107 133 163 202 248 298
#     4   9  18  34  54  71  89 121 167 213 252 289
#     4   9  16  26  42  67  98 130 164 199 236 282
#     4   9  18  32  50  72  97 127 166 209 247 288
#
# _framework density 18.275055999999999
#
# number of rings (size 3 to 8) (size 9 to 14) (size 15 to 20)
#    0.000    2.818    0.000    3.273    0.000    4.364 
#    0.000    3.636    0.000    1.091    0.000    0.000 
#    0.000    0.000    0.000    0.000    0.000    0.000 
#
# Total GULP energy -545112.857809 kJ/mol
# GULP energy per Si atom -12388.928587 kJ/mol
# Density = 1.823346 g / cm^3
# Si number density = 18.275056 Si / 1000 Ang^3
#
#
#
# Elastic Constant Matrix: (Units=GPa)
#
#
# Indices 1 2 3 4 5 6 
#
# 1 96.1376 56.9969 38.6431 0.0000 0.0000 0.0000
# 2 56.9969 136.0513 59.9711 0.0000 0.0000 0.0000
# 3 38.6431 59.9711 72.3000 0.0000 0.0000 0.0000
# 4 0.0000 0.0000 0.0000 -11.8263 0.0000 0.0000
# 5 0.0000 0.0000 0.0000 0.0000 -1.1850 0.0000
# 6 0.0000 0.0000 0.0000 0.0000 0.0000 31.8721
#
#
#
# Elastic Compliance Matrix: (Units=1/GPa)
#
#
# Indices 1 2 3 4 5 6 
#
# 1 0.014647 -0.004233 -0.004317 0.000000 0.000000 0.000000
# 2 -0.004233 0.012810 -0.008363 0.000000 0.000000 0.000000
# 3 -0.004317 -0.008363 0.023076 0.000000 0.000000 0.000000
# 4 0.000000 0.000000 0.000000 -0.084558 0.000000 0.000000
# 5 0.000000 0.000000 0.000000 0.000000 -0.843877 0.000000
# 6 0.000000 0.000000 0.000000 0.000000 0.000000 0.031375
#
#
# Mechanical properties :
#
#
# Convention : Reuss Voigt Hill
#
# Bulk Modulus (GPa) = 59.85967 68.41235 64.13601
# Shear Modulus (GPa) = -6.19478 13.69736 3.75129
#
# Velocity S-wave (km/s) = -1.84312 2.74069 1.43427
# Velocity P-wave (km/s) = 5.31944 6.89429 6.15742
#
# Compressibility (1/GPa) = 0.01670574
#
# Stress axis : x y z
#
# Youngs Moduli (GPa) = 68.27470 78.06422 43.33566
#
# Poissons Ratio (x) = 0.33045 0.18709
# Poissons Ratio (y) = 0.28901 0.36242
# Poissons Ratio (z) = 0.29476 0.65286
#
# Static dielectric constant tensor:
#      x y z
#    x 3.348880 0.000000 0.000000 
#    y 0.000000 4.429270 0.000000 
#    z 0.000000 0.000000 2.938700 
# 
# 
# High freq. dielectric constant tensor:
#      x y z
#    x 1.706090 0.000000 0.000000 
#    y 0.000000 1.729220 0.000000 
#    z 0.000000 0.000000 1.662690 
# 
# From -- ./inp_files/50332.got.cif
#   From: 2010.03.12/outbox.cif.g09.slc.cpg/sg65_26_cif.got.tgz:50332.got - 2010.04.10 20:52:16.
