data_PCOD8270540
_publ_section_title
;
Structure prediction by ZEFSAII (Michael W. Deem and Ramdas Pophale) SiO2 
 PCOD8270540
Probable space group: C M M M
;
_chemical_formula_sum "Si O2"
_cell_formula_units_Z 88
_cell_length_a 9.069807
_cell_length_b 26.866552
_cell_length_c 21.222262
_cell_angle_alpha 90.000000
_cell_angle_beta 90.000000
_cell_angle_gamma 90.000000
_cell_volume 5171.322838
_symmetry_space_group_name_H-M "C M M M"
_symmetry_group_IT_number 65
_symmetry_cell_setting 'orthorhombic'
loop_
_space_group_symop_operation_xyz
x,y,z
-x,-y,z
x,-y,-z
-x,y,-z
-x,-y,-z
x,y,-z
-x,y,z
x,-y,z
1/2+x,1/2+y,z
1/2-x,1/2-y,z
1/2+x,1/2-y,-z
1/2-x,1/2+y,-z
1/2-x,1/2-y,-z
1/2+x,1/2+y,-z
1/2-x,1/2+y,z
1/2+x,1/2-y,z
loop_
_atom_site_type_symbol
_atom_site_label
_atom_site_fract_x
_atom_site_fract_y
_atom_site_fract_z
Si Si1 0.831277 0.056966 0.259215
Si Si2 0.169540 0.300449 0.309688
Si Si3 0.826826 0.361591 0.810504
Si Si4 0.671898 0.199352 0.070469
Si Si5 0.174860 0.057934 0.500000
Si Si6 0.173075 0.599183 0.377382
O O1 0.765421 0.088475 0.201325
O O2 0.734898 0.065120 0.321514
O O3 0.000000 0.072686 0.272750
O O4 0.820945 0.000000 0.238482
O O5 0.250000 0.250000 0.328950
O O6 0.220278 0.320221 0.241054
O O7 0.202185 0.342802 0.361758
O O8 0.000000 0.286590 0.307665
O O9 0.783335 0.343270 0.880197
O O10 0.000000 0.373550 0.803645
O O11 0.500000 0.210384 0.074526
O O12 0.750000 0.250000 0.090185
O O13 0.718452 0.182209 0.000000
O O14 0.241159 0.085489 0.559912
O O15 0.000000 0.064058 0.500000
O O16 0.220432 0.000000 0.500000
O O17 0.000000 0.588210 0.385227
#
# Coordination Sequence:
#
# PCOD8270540 Si02
#       6
#    16  16  16  16   8  16
#     4  10  20  33  50  73  98 123 157 202 247 289
#     4   9  18  31  48  71  97 125 159 197 234 278
#     4   9  18  31  47  70  98 128 163 200 239 287
#     4   9  17  29  46  70 100 131 163 200 241 287
#     4  11  23  37  54  77 102 127 160 201 242 285
#     4  10  21  36  53  75 101 129 162 196 236 289
#
# _framework density 17.016922000000001
#
# number of rings (size 3 to 8) (size 9 to 14) (size 15 to 20)
#    0.000    2.455    0.000    3.545    0.000    8.727 
#    0.000    0.455    0.000    0.545    0.000    3.818 
#    0.000    0.000    0.000    0.000    0.000    0.000 
#
# Total GULP energy -545614.457467 kJ/mol
# GULP energy per Si atom -12400.328579 kJ/mol
# Density = 1.697819 g / cm^3
# Si number density = 17.016922 Si / 1000 Ang^3
#
#
#
# Elastic Constant Matrix: (Units=GPa)
#
#
# Indices 1 2 3 4 5 6 
#
# 1 75.2206 57.2927 45.8726 0.0000 0.0000 0.0000
# 2 57.2927 111.6070 58.9435 0.0000 0.0000 0.0000
# 3 45.8726 58.9435 114.5561 0.0000 0.0000 0.0000
# 4 0.0000 0.0000 0.0000 18.5644 0.0000 0.0000
# 5 0.0000 0.0000 0.0000 0.0000 19.8660 0.0000
# 6 0.0000 0.0000 0.0000 0.0000 0.0000 33.2972
#
#
#
# Elastic Compliance Matrix: (Units=1/GPa)
#
#
# Indices 1 2 3 4 5 6 
#
# 1 0.023317 -0.009665 -0.004364 0.000000 0.000000 0.000000
# 2 -0.009665 0.016309 -0.004522 0.000000 0.000000 0.000000
# 3 -0.004364 -0.004522 0.012803 0.000000 0.000000 0.000000
# 4 0.000000 0.000000 0.000000 0.053867 0.000000 0.000000
# 5 0.000000 0.000000 0.000000 0.000000 0.050337 0.000000
# 6 0.000000 0.000000 0.000000 0.000000 0.000000 0.030033
#
#
# Mechanical properties :
#
#
# Convention : Reuss Voigt Hill
#
# Bulk Modulus (GPa) = 65.23694 69.51126 67.37410
# Shear Modulus (GPa) = 21.84582 23.63050 22.73816
#
# Velocity S-wave (km/s) = 3.58686 3.73050 3.65938
# Velocity P-wave (km/s) = 7.45479 7.71314 7.58506
#
# Compressibility (1/GPa) = 0.01532874
#
# Stress axis : x y z
#
# Youngs Moduli (GPa) = 42.88739 61.31431 78.10375
#
# Poissons Ratio (x) = 0.59259 0.34085
# Poissons Ratio (y) = 0.41450 0.35316
# Poissons Ratio (z) = 0.18716 0.27724
#
# Static dielectric constant tensor:
#      x y z
#    x 3.270870 0.000000 0.000000 
#    y 0.000000 3.129540 0.000000 
#    z 0.000000 0.000000 3.315430 
# 
# 
# High freq. dielectric constant tensor:
#      x y z
#    x 1.664890 0.000000 0.000000 
#    y 0.000000 1.649020 0.000000 
#    z 0.000000 0.000000 1.648360 
# 
# From -- ./inp_files/59802.got.cif
#   From: 2010.03.12/outbox.cif.g09.slc.cpg/sg65_30_cif.got.tgz:59802.got - 2010.04.10 20:52:16.
