data_PCOD8270790
_publ_section_title
;
Structure prediction by ZEFSAII (Michael W. Deem and Ramdas Pophale) SiO2 
 PCOD8270790
Probable space group: C M M M
;
_chemical_formula_sum "Si O2"
_cell_formula_units_Z 88
_cell_length_a 17.843345
_cell_length_b 26.836774
_cell_length_c 10.004474
_cell_angle_alpha 90.000000
_cell_angle_beta 90.000000
_cell_angle_gamma 90.000000
_cell_volume 4790.720582
_symmetry_space_group_name_H-M "C M M M"
_symmetry_group_IT_number 65
_symmetry_cell_setting 'orthorhombic'
loop_
_space_group_symop_operation_xyz
x,y,z
-x,-y,z
x,-y,-z
-x,y,-z
-x,-y,-z
x,y,-z
-x,y,z
x,-y,z
1/2+x,1/2+y,z
1/2-x,1/2-y,z
1/2+x,1/2-y,-z
1/2-x,1/2+y,-z
1/2-x,1/2-y,-z
1/2+x,1/2+y,-z
1/2-x,1/2+y,z
1/2+x,1/2-y,z
loop_
_atom_site_type_symbol
_atom_site_label
_atom_site_fract_x
_atom_site_fract_y
_atom_site_fract_z
Si Si1 0.679366 0.284660 0.847836
Si Si2 0.778384 0.442507 0.650852
Si Si3 0.082407 0.381291 0.341235
Si Si4 0.587228 0.229060 0.353924
Si Si5 0.500000 0.443180 0.156817
Si Si6 0.840455 0.900149 0.845444
O O1 0.750000 0.250000 0.807852
O O2 0.612452 0.269935 0.751300
O O3 0.688658 0.343625 0.825642
O O4 0.656239 0.273614 0.000000
O O5 0.760661 0.422472 0.500000
O O6 0.796658 0.500000 0.644164
O O7 0.853180 0.417566 0.712601
O O8 0.709331 0.433873 0.749112
O O9 0.077128 0.383569 0.500000
O O10 0.106002 0.325731 0.296841
O O11 0.000000 0.395599 0.282184
O O12 0.625485 0.237333 0.500000
O O13 0.500000 0.235068 0.372699
O O14 0.500000 0.500000 0.218530
O O15 0.573456 0.411019 0.199317
O O16 0.500000 0.449320 0.000000
O O17 0.829314 0.916129 0.000000
#
# Coordination Sequence:
#
# PCOD8270790 Si02
#       6
#    16  16  16  16   8  16
#     4  10  21  34  50  76 106 134 169 213 260 311
#     4  10  20  33  52  79 106 132 169 217 266 309
#     4   8  15  30  51  75 105 140 175 209 246 301
#     4   9  18  32  51  74 100 134 173 205 244 303
#     4   9  18  34  55  75  93 125 179 225 254 301
#     4  10  21  36  55  75 100 136 176 215 261 318
#
# _framework density 18.368843999999999
#
# number of rings (size 3 to 8) (size 9 to 14) (size 15 to 20)
#    0.000    2.636    0.000    2.727    1.273    2.909 
#    0.000    2.273    0.000    3.273    0.000    1.273 
#    0.000    0.000    0.000    0.000    0.000    0.000 
#
# Total GULP energy -545284.095712 kJ/mol
# GULP energy per Si atom -12392.820357 kJ/mol
# Density = 1.832704 g / cm^3
# Si number density = 18.368844 Si / 1000 Ang^3
#
#
#
# Elastic Constant Matrix: (Units=GPa)
#
#
# Indices 1 2 3 4 5 6 
#
# 1 70.4362 29.1144 30.6512 0.0000 0.0000 0.0000
# 2 29.1144 69.3557 26.3550 0.0000 0.0000 0.0000
# 3 30.6512 26.3550 54.7625 0.0000 0.0000 0.0000
# 4 0.0000 0.0000 0.0000 22.6890 0.0000 0.0000
# 5 0.0000 0.0000 0.0000 0.0000 23.4780 0.0000
# 6 0.0000 0.0000 0.0000 0.0000 0.0000 34.6153
#
#
#
# Elastic Compliance Matrix: (Units=1/GPa)
#
#
# Indices 1 2 3 4 5 6 
#
# 1 0.020145 -0.005106 -0.008818 0.000000 0.000000 0.000000
# 2 -0.005106 0.018939 -0.006257 0.000000 0.000000 0.000000
# 3 -0.008818 -0.006257 0.026208 0.000000 0.000000 0.000000
# 4 0.000000 0.000000 0.000000 0.044074 0.000000 0.000000
# 5 0.000000 0.000000 0.000000 0.000000 0.042593 0.000000
# 6 0.000000 0.000000 0.000000 0.000000 0.000000 0.028889
#
#
# Mechanical properties :
#
#
# Convention : Reuss Voigt Hill
#
# Bulk Modulus (GPa) = 40.11220 40.75507 40.43363
# Shear Modulus (GPa) = 21.78457 23.38537 22.58497
#
# Velocity S-wave (km/s) = 3.44750 3.57192 3.51026
# Velocity P-wave (km/s) = 6.14260 6.26472 6.20396
#
# Compressibility (1/GPa) = 0.02493007
#
# Stress axis : x y z
#
# Youngs Moduli (GPa) = 49.64012 52.80010 38.15681
#
# Poissons Ratio (x) = 0.26958 0.33648
# Poissons Ratio (y) = 0.25344 0.23875
# Poissons Ratio (z) = 0.43774 0.33037
#
# Static dielectric constant tensor:
#      x y z
#    x 3.568030 0.000000 0.000000 
#    y 0.000000 3.566150 0.000000 
#    z 0.000000 0.000000 3.242930 
# 
# 
# High freq. dielectric constant tensor:
#      x y z
#    x 1.712530 0.000000 0.000000 
#    y 0.000000 1.714990 0.000000 
#    z 0.000000 0.000000 1.684630 
# 
# From -- ./inp_files/24812.got.cif
#   From: 2010.03.12/outbox.cif.g09.slc.cpg/sg65_13_cif.got.tgz:24812.got - 2010.04.10 20:52:16.
