data_PCOD8270700
_publ_section_title
;
Structure prediction by ZEFSAII (Michael W. Deem and Ramdas Pophale) SiO2 
 PCOD8270700
Probable space group: C M M M
;
_chemical_formula_sum "Si O2"
_cell_formula_units_Z 96
_cell_length_a 19.663486
_cell_length_b 9.045661
_cell_length_c 30.325934
_cell_angle_alpha 90.000000
_cell_angle_beta 90.000000
_cell_angle_gamma 90.000000
_cell_volume 5394.050482
_symmetry_space_group_name_H-M "C M M M"
_symmetry_group_IT_number 65
_symmetry_cell_setting 'orthorhombic'
loop_
_space_group_symop_operation_xyz
x,y,z
-x,-y,z
x,-y,-z
-x,y,-z
-x,-y,-z
x,y,-z
-x,y,z
x,-y,z
1/2+x,1/2+y,z
1/2-x,1/2-y,z
1/2+x,1/2-y,-z
1/2-x,1/2+y,-z
1/2-x,1/2-y,-z
1/2+x,1/2+y,-z
1/2-x,1/2+y,z
1/2+x,1/2-y,z
loop_
_atom_site_type_symbol
_atom_site_label
_atom_site_fract_x
_atom_site_fract_y
_atom_site_fract_z
Si Si1 0.581016 0.333200 0.288559
Si Si2 0.181044 0.671363 0.051752
Si Si3 0.080906 0.333311 0.202835
Si Si4 0.920173 0.827794 0.114699
Si Si5 0.577804 0.173111 0.623959
Si Si6 0.181180 0.326452 0.450204
O O1 0.500000 0.330347 0.287229
O O2 0.608849 0.500000 0.286776
O O3 0.610490 0.244552 0.246630
O O4 0.606979 0.256878 0.333318
O O5 0.184863 0.500000 0.064936
O O6 0.250000 0.750000 0.067819
O O7 0.116939 0.747387 0.074633
O O8 0.170414 0.693314 0.000000
O O9 0.109455 0.500000 0.200103
O O10 0.105924 0.241872 0.160508
O O11 0.000000 0.334413 0.204762
O O12 0.000000 0.800820 0.108121
O O13 0.901934 0.000000 0.114936
O O14 0.500000 0.216995 0.614488
O O15 0.620087 0.224407 0.581371
O O16 0.585115 0.000000 0.633298
O O17 0.162646 0.277012 0.500000
O O18 0.192884 0.500000 0.447488
O O19 0.250000 0.250000 0.433857
#
# Coordination Sequence:
#
# PCOD8270700 Si02
#       6
#    16  16  16  16  16  16
#     4   9  16  26  42  66  96 127 158 193 236 286
#     4  10  21  37  56  76 100 133 172 211 252 301
#     4   9  16  27  45  69  98 131 165 200 240 288
#     4  10  20  33  51  77 107 136 168 208 252 296
#     4   9  17  29  46  69  95 122 155 195 237 280
#     4   9  18  32  49  68  91 122 158 194 234 282
#
# _framework density 17.797385999999999
#
# number of rings (size 3 to 8) (size 9 to 14) (size 15 to 20)
#    0.000    2.667    0.000    2.000    0.000    7.333 
#    0.000    3.333    0.000    1.000    0.000    9.333 
#    0.000    0.000    0.000    0.000    0.000    0.000 
#
# Total GULP energy -595252.918013 kJ/mol
# GULP energy per Si atom -12401.102459 kJ/mol
# Density = 1.775688 g / cm^3
# Si number density = 17.797386 Si / 1000 Ang^3
#
#
#
# Elastic Constant Matrix: (Units=GPa)
#
#
# Indices 1 2 3 4 5 6 
#
# 1 56.9960 44.1641 53.5178 0.0000 0.0000 0.0000
# 2 44.1641 121.4568 69.0849 0.0000 0.0000 0.0000
# 3 53.5178 69.0849 112.5130 0.0000 0.0000 0.0000
# 4 0.0000 0.0000 0.0000 32.1640 0.0000 0.0000
# 5 0.0000 0.0000 0.0000 0.0000 5.4959 0.0000
# 6 0.0000 0.0000 0.0000 0.0000 0.0000 24.1812
#
#
#
# Elastic Compliance Matrix: (Units=1/GPa)
#
#
# Indices 1 2 3 4 5 6 
#
# 1 0.033419 -0.004779 -0.012961 0.000000 0.000000 0.000000
# 2 -0.004779 0.013336 -0.005915 0.000000 0.000000 0.000000
# 3 -0.012961 -0.005915 0.018685 0.000000 0.000000 0.000000
# 4 0.000000 0.000000 0.000000 0.031091 0.000000 0.000000
# 5 0.000000 0.000000 0.000000 0.000000 0.181954 0.000000
# 6 0.000000 0.000000 0.000000 0.000000 0.000000 0.041354
#
#
# Mechanical properties :
#
#
# Convention : Reuss Voigt Hill
#
# Bulk Modulus (GPa) = 55.16307 69.38882 62.27594
# Shear Modulus (GPa) = 13.39789 20.64815 17.02302
#
# Velocity S-wave (km/s) = 2.74670 3.40983 3.09607
# Velocity P-wave (km/s) = 6.41260 7.38752 6.91726
#
# Compressibility (1/GPa) = 0.01812807
#
# Stress axis : x y z
#
# Youngs Moduli (GPa) = 29.92336 74.98662 53.51887
#
# Poissons Ratio (x) = 0.35838 0.69368
# Poissons Ratio (y) = 0.14301 0.31657
# Poissons Ratio (z) = 0.38785 0.44355
#
# Static dielectric constant tensor:
#      x y z
#    x 2.969730 0.000000 0.000000 
#    y 0.000000 3.436990 0.000000 
#    z 0.000000 0.000000 3.447820 
# 
# 
# High freq. dielectric constant tensor:
#      x y z
#    x 1.644460 0.000000 0.000000 
#    y 0.000000 1.700120 0.000000 
#    z 0.000000 0.000000 1.698230 
# 
# From -- ./inp_files/67834.got.cif
#   From: 2010.03.12/outbox.cif.g09.slc.cpg/sg65_34_cif.got.tgz:67834.got - 2010.04.10 20:52:16.
