data_PCOD8270770
_publ_section_title
;
Structure prediction by ZEFSAII (Michael W. Deem and Ramdas Pophale) SiO2 
 PCOD8270770
Probable space group: C M M M
;
_chemical_formula_sum "Si O2"
_cell_formula_units_Z 80
_cell_length_a 17.141804
_cell_length_b 26.343748
_cell_length_c 10.005658
_cell_angle_alpha 90.000000
_cell_angle_beta 90.000000
_cell_angle_gamma 90.000000
_cell_volume 4518.348684
_symmetry_space_group_name_H-M "C M M M"
_symmetry_group_IT_number 65
_symmetry_cell_setting 'orthorhombic'
loop_
_space_group_symop_operation_xyz
x,y,z
-x,-y,z
x,-y,-z
-x,y,-z
-x,-y,-z
x,y,-z
-x,y,z
x,-y,z
1/2+x,1/2+y,z
1/2-x,1/2-y,z
1/2+x,1/2-y,-z
1/2-x,1/2+y,-z
1/2-x,1/2-y,-z
1/2+x,1/2+y,-z
1/2-x,1/2+y,z
1/2+x,1/2-y,z
loop_
_atom_site_type_symbol
_atom_site_label
_atom_site_fract_x
_atom_site_fract_y
_atom_site_fract_z
Si Si1 0.412801 0.633521 0.848904
Si Si2 0.820873 0.597478 0.255163
Si Si3 0.760832 0.806828 0.844700
Si Si4 0.588170 0.940098 0.000000
Si Si5 0.091842 0.442101 0.500000
Si Si6 0.659755 0.558145 0.653146
O O1 0.500000 0.655850 0.832382
O O2 0.351133 0.678302 0.821578
O O3 0.402139 0.588680 0.742111
O O4 0.400490 0.612167 0.000000
O O5 0.795650 0.656196 0.239178
O O6 0.864062 0.578390 0.125579
O O7 0.881156 0.590544 0.374385
O O8 0.744915 0.563554 0.282207
O O9 0.750000 0.750000 0.789858
O O10 0.737256 0.810511 0.000000
O O11 0.500000 0.917626 0.000000
O O12 0.583277 0.000000 0.000000
O O13 0.126228 0.500000 0.500000
O O14 0.000000 0.445527 0.500000
O O15 0.660261 0.578405 0.500000
O O16 0.633813 0.500000 0.656825
#
# Coordination Sequence:
#
# PCOD8270770 Si02
#       6
#    16  16  16   8   8  16
#     4   9  19  35  54  79 108 137 173 218 268 320
#     4  11  20  36  55  81 108 146 189 231 274 333
#     4   9  18  36  61  83 106 140 183 230 282 329
#     4  11  22  34  51  80 117 149 184 233 284 332
#     4  11  22  36  55  78 115 161 190 221 278 340
#     4  10  20  33  52  77 105 143 182 215 258 318
#
# _framework density 17.705584000000002
#
# number of rings (size 3 to 8) (size 9 to 14) (size 15 to 20)
#    0.000    2.000    2.000    2.400    1.400    2.800 
#    0.000    4.500    0.000    0.000    0.000    0.000 
#    0.000    0.000    0.000    0.000    0.000    0.000 
#
# Total GULP energy -495973.225901 kJ/mol
# GULP energy per Si atom -12399.330648 kJ/mol
# Density = 1.766528 g / cm^3
# Si number density = 17.705584 Si / 1000 Ang^3
#
#
#
# Elastic Constant Matrix: (Units=GPa)
#
#
# Indices 1 2 3 4 5 6 
#
# 1 107.2672 51.3461 57.1519 0.0000 0.0000 0.0000
# 2 51.3461 122.5932 56.4872 0.0000 0.0000 0.0000
# 3 57.1519 56.4872 127.6698 0.0000 0.0000 0.0000
# 4 0.0000 0.0000 0.0000 21.1672 0.0000 0.0000
# 5 0.0000 0.0000 0.0000 0.0000 34.7869 0.0000
# 6 0.0000 0.0000 0.0000 0.0000 0.0000 18.3130
#
#
#
# Elastic Compliance Matrix: (Units=1/GPa)
#
#
# Indices 1 2 3 4 5 6 
#
# 1 0.013382 -0.003573 -0.004410 0.000000 0.000000 0.000000
# 2 -0.003573 0.011200 -0.003356 0.000000 0.000000 0.000000
# 3 -0.004410 -0.003356 0.011292 0.000000 0.000000 0.000000
# 4 0.000000 0.000000 0.000000 0.047243 0.000000 0.000000
# 5 0.000000 0.000000 0.000000 0.000000 0.028746 0.000000
# 6 0.000000 0.000000 0.000000 0.000000 0.000000 0.054606
#
#
# Mechanical properties :
#
#
# Convention : Reuss Voigt Hill
#
# Bulk Modulus (GPa) = 75.77842 76.38896 76.08369
# Shear Modulus (GPa) = 25.83374 27.68976 26.76175
#
# Velocity S-wave (km/s) = 3.82393 3.95891 3.89200
# Velocity P-wave (km/s) = 7.89865 8.00843 7.95373
#
# Compressibility (1/GPa) = 0.01319637
#
# Stress axis : x y z
#
# Youngs Moduli (GPa) = 74.72505 89.28680 88.56185
#
# Poissons Ratio (x) = 0.31903 0.39054
# Poissons Ratio (y) = 0.26700 0.29720
# Poissons Ratio (z) = 0.32952 0.29963
#
# Static dielectric constant tensor:
#      x y z
#    x 3.385030 0.000000 0.000000 
#    y 0.000000 3.231470 0.000000 
#    z 0.000000 0.000000 3.467280 
# 
# 
# High freq. dielectric constant tensor:
#      x y z
#    x 1.691350 0.000000 0.000000 
#    y 0.000000 1.662650 0.000000 
#    z 0.000000 0.000000 1.691210 
# 
# From -- ./inp_files/9714.got.cif
#   From: 2010.03.12/outbox.cif.g09.slc.cpg/sg65_5_cif.got.tgz:9714.got - 2010.04.10 20:52:16.
