data_PCOD8270624
_publ_section_title
;
Structure prediction by ZEFSAII (Michael W. Deem and Ramdas Pophale) SiO2 
 PCOD8270624
Probable space group: C M M M
;
_chemical_formula_sum "Si O2"
_cell_formula_units_Z 96
_cell_length_a 18.684817
_cell_length_b 9.094301
_cell_length_c 30.454532
_cell_angle_alpha 90.000000
_cell_angle_beta 90.000000
_cell_angle_gamma 90.000000
_cell_volume 5174.997007
_symmetry_space_group_name_H-M "C M M M"
_symmetry_group_IT_number 65
_symmetry_cell_setting 'orthorhombic'
loop_
_space_group_symop_operation_xyz
x,y,z
-x,-y,z
x,-y,-z
-x,y,-z
-x,-y,-z
x,y,-z
-x,y,z
x,-y,z
1/2+x,1/2+y,z
1/2-x,1/2-y,z
1/2+x,1/2-y,-z
1/2-x,1/2+y,-z
1/2-x,1/2-y,-z
1/2+x,1/2+y,-z
1/2-x,1/2+y,z
1/2+x,1/2-y,z
loop_
_atom_site_type_symbol
_atom_site_label
_atom_site_fract_x
_atom_site_fract_y
_atom_site_fract_z
Si Si1 0.084564 0.833217 0.119040
Si Si2 0.826237 0.673671 0.709377
Si Si3 0.920078 0.325467 0.371799
Si Si4 0.082560 0.329279 0.793788
Si Si5 0.322743 0.828485 0.949209
Si Si6 0.177058 0.672439 0.450422
O O1 0.110595 0.763675 0.164851
O O2 0.113072 0.739410 0.078449
O O3 0.000000 0.826014 0.115959
O O4 0.112919 0.000000 0.116325
O O5 0.814796 0.500000 0.706302
O O6 0.750000 0.750000 0.710061
O O7 0.871422 0.733664 0.667979
O O8 0.869797 0.718445 0.752668
O O9 0.924706 0.500000 0.369010
O O10 0.885807 0.274931 0.418023
O O11 0.000000 0.258269 0.368511
O O12 0.092323 0.500000 0.805270
O O13 0.000000 0.294016 0.782534
O O14 0.250000 0.750000 0.934551
O O15 0.315367 0.000000 0.939156
O O16 0.339887 0.797793 0.000000
O O17 0.154918 0.716390 0.500000
O O18 0.190538 0.500000 0.446084
O O19 0.250000 0.750000 0.435983
#
# Coordination Sequence:
#
# PCOD8270624 Si02
#       6
#    16  16  16  16  16  16
#     4  10  21  36  55  80 109 140 173 211 256 305
#     4  10  20  33  51  74  98 127 163 204 251 300
#     4   9  17  30  49  72  97 126 164 208 248 290
#     4   9  18  34  54  73  96 129 169 209 249 297
#     4  10  21  37  57  80 107 140 177 217 260 305
#     4   9  17  29  47  71  98 129 163 201 247 296
#
# _framework density 18.550736000000001
#
# number of rings (size 3 to 8) (size 9 to 14) (size 15 to 20)
#    0.000    2.500    0.000    2.000    0.000    6.000 
#    0.000    5.000    0.000    3.000    0.000    2.333 
#    0.000    0.000    0.000    0.000    0.000    0.000 
#
# Total GULP energy -595288.360574 kJ/mol
# GULP energy per Si atom -12401.840845 kJ/mol
# Density = 1.850851 g / cm^3
# Si number density = 18.550736 Si / 1000 Ang^3
#
#
#
# Elastic Constant Matrix: (Units=GPa)
#
#
# Indices 1 2 3 4 5 6 
#
# 1 113.3443 40.6186 75.3693 0.0000 0.0000 0.0000
# 2 40.6186 62.6025 51.5021 0.0000 0.0000 0.0000
# 3 75.3693 51.5021 131.3404 0.0000 0.0000 0.0000
# 4 0.0000 0.0000 0.0000 20.9025 0.0000 0.0000
# 5 0.0000 0.0000 0.0000 0.0000 35.8709 0.0000
# 6 0.0000 0.0000 0.0000 0.0000 0.0000 31.2955
#
#
#
# Elastic Compliance Matrix: (Units=1/GPa)
#
#
# Indices 1 2 3 4 5 6 
#
# 1 0.014879 -0.003882 -0.007016 0.000000 0.000000 0.000000
# 2 -0.003882 0.024594 -0.007416 0.000000 0.000000 0.000000
# 3 -0.007016 -0.007416 0.014548 0.000000 0.000000 0.000000
# 4 0.000000 0.000000 0.000000 0.047841 0.000000 0.000000
# 5 0.000000 0.000000 0.000000 0.000000 0.027878 0.000000
# 6 0.000000 0.000000 0.000000 0.000000 0.000000 0.031953
#
#
# Mechanical properties :
#
#
# Convention : Reuss Voigt Hill
#
# Bulk Modulus (GPa) = 57.49660 71.36303 64.42982
# Shear Modulus (GPa) = 24.49537 26.93357 25.71447
#
# Velocity S-wave (km/s) = 3.63775 3.81450 3.72717
# Velocity P-wave (km/s) = 6.97895 7.61270 7.30270
#
# Compressibility (1/GPa) = 0.01739233
#
# Stress axis : x y z
#
# Youngs Moduli (GPa) = 67.20710 40.66065 68.73754
#
# Poissons Ratio (x) = 0.15785 0.48228
# Poissons Ratio (y) = 0.26091 0.50977
# Poissons Ratio (z) = 0.47154 0.30155
#
# Static dielectric constant tensor:
#      x y z
#    x 3.427280 0.000000 0.000000 
#    y 0.000000 3.295660 0.000000 
#    z 0.000000 0.000000 3.570920 
# 
# 
# High freq. dielectric constant tensor:
#      x y z
#    x 1.718740 0.000000 0.000000 
#    y 0.000000 1.701290 0.000000 
#    z 0.000000 0.000000 1.732590 
# 
# From -- ./inp_files/73218.got.cif
#   From: 2010.03.12/outbox.cif.g09.slc.cpg/sg65_37_cif.got.tgz:73218.got - 2010.04.10 20:52:16.
