data_PCOD8270315
_publ_section_title
;
Structure prediction by ZEFSAII (Michael W. Deem and Ramdas Pophale) SiO2 
 PCOD8270315
Probable space group: C M M M
;
_chemical_formula_sum "Si O2"
_cell_formula_units_Z 104
_cell_length_a 32.861729
_cell_length_b 19.944862
_cell_length_c 9.284711
_cell_angle_alpha 90.000000
_cell_angle_beta 90.000000
_cell_angle_gamma 90.000000
_cell_volume 6085.409888
_symmetry_space_group_name_H-M "C M M M"
_symmetry_group_IT_number 65
_symmetry_cell_setting 'orthorhombic'
loop_
_space_group_symop_operation_xyz
x,y,z
-x,-y,z
x,-y,-z
-x,y,-z
-x,-y,-z
x,y,-z
-x,y,z
x,-y,z
1/2+x,1/2+y,z
1/2-x,1/2-y,z
1/2+x,1/2-y,-z
1/2-x,1/2+y,-z
1/2-x,1/2-y,-z
1/2+x,1/2+y,-z
1/2-x,1/2+y,z
1/2+x,1/2-y,z
loop_
_atom_site_type_symbol
_atom_site_label
_atom_site_fract_x
_atom_site_fract_y
_atom_site_fract_z
Si Si1 0.546404 0.000000 0.343497
Si Si2 0.123426 0.191280 0.331611
Si Si3 0.953986 0.767436 0.833920
Si Si4 0.180649 0.075040 0.670877
Si Si5 0.078322 0.378722 0.833347
Si Si6 0.154810 0.336283 0.331760
Si Si7 0.728887 0.074557 0.329525
O O1 0.554799 0.935377 0.249696
O O2 0.500000 0.000000 0.381989
O O3 0.569631 0.000000 0.500000
O O4 0.114902 0.183649 0.500000
O O5 0.079300 0.191841 0.256986
O O6 0.148516 0.128568 0.266603
O O7 0.150925 0.257032 0.299963
O O8 0.947136 0.688778 0.810451
O O9 0.000000 0.785256 0.783088
O O10 0.947998 0.786902 0.000000
O O11 0.181277 0.081847 0.500000
O O12 0.225974 0.090636 0.731549
O O13 0.167260 0.000000 0.717009
O O14 0.122723 0.375061 0.764924
O O15 0.082655 0.397544 0.000000
O O16 0.146695 0.351207 0.500000
O O17 0.198341 0.366136 0.281258
O O18 0.731399 0.072840 0.500000
O O19 0.714885 0.000000 0.275821
#
# Coordination Sequence:
#
# PCOD8270315 Si02
#       7
#     8  16  16  16  16  16  16
#     4  11  23  35  47  65  89 119 157 201 245 281
#     4   9  17  28  45  71  96 117 149 196 239 275
#     4   9  18  33  51  68  89 120 154 187 228 284
#     4   8  14  26  44  67  95 124 154 188 231 280
#     4  10  20  33  48  66  90 122 158 194 234 280
#     4   9  17  28  43  67  95 121 155 197 238 273
#     4   8  14  24  40  63  91 126 161 191 227 273
#
# _framework density 17.090056000000001
#
# number of rings (size 3 to 8) (size 9 to 14) (size 15 to 20)
#    0.000    3.000    0.000    2.077    1.077    2.769 
#    0.000    3.077    0.000    1.846    0.000    9.692 
#    0.000    0.000    0.000    0.000    0.000    0.000 
#
# Total GULP energy -644445.840582 kJ/mol
# GULP energy per Si atom -12393.189242 kJ/mol
# Density = 1.705116 g / cm^3
# Si number density = 17.090056 Si / 1000 Ang^3
#
#
#
# Elastic Constant Matrix: (Units=GPa)
#
#
# Indices 1 2 3 4 5 6 
#
# 1 142.2990 79.6599 41.2990 0.0000 0.0000 0.0000
# 2 79.6599 95.2056 33.4115 0.0000 0.0000 0.0000
# 3 41.2990 33.4115 51.5647 0.0000 0.0000 0.0000
# 4 0.0000 0.0000 0.0000 14.4788 0.0000 0.0000
# 5 0.0000 0.0000 0.0000 0.0000 8.1170 0.0000
# 6 0.0000 0.0000 0.0000 0.0000 0.0000 19.1488
#
#
#
# Elastic Compliance Matrix: (Units=1/GPa)
#
#
# Indices 1 2 3 4 5 6 
#
# 1 0.014049 -0.010104 -0.004705 0.000000 0.000000 0.000000
# 2 -0.010104 0.020862 -0.005425 0.000000 0.000000 0.000000
# 3 -0.004705 -0.005425 0.026677 0.000000 0.000000 0.000000
# 4 0.000000 0.000000 0.000000 0.069067 0.000000 0.000000
# 5 0.000000 0.000000 0.000000 0.000000 0.123198 0.000000
# 6 0.000000 0.000000 0.000000 0.000000 0.000000 0.052222
#
#
# Mechanical properties :
#
#
# Convention : Reuss Voigt Hill
#
# Bulk Modulus (GPa) = 47.35040 66.42336 56.88688
# Shear Modulus (GPa) = 14.14094 17.32885 15.73490
#
# Velocity S-wave (km/s) = 2.87964 3.18775 3.03760
# Velocity P-wave (km/s) = 6.23081 7.24569 6.75733
#
# Compressibility (1/GPa) = 0.02111914
#
# Stress axis : x y z
#
# Youngs Moduli (GPa) = 71.17740 47.93510 37.48572
#
# Poissons Ratio (x) = 0.48434 0.17639
# Poissons Ratio (y) = 0.71918 0.20335
# Poissons Ratio (z) = 0.33492 0.26004
#
# Static dielectric constant tensor:
#      x y z
#    x 3.386340 0.000000 0.000000 
#    y 0.000000 3.424280 0.000000 
#    z 0.000000 0.000000 2.962980 
# 
# 
# High freq. dielectric constant tensor:
#      x y z
#    x 1.660510 0.000000 0.000000 
#    y 0.000000 1.647940 0.000000 
#    z 0.000000 0.000000 1.628680 
# 
# From -- ./inp_files/18699.got.cif
#   From: 2010.03.12/outbox.cif.g09.slc.cpg/sg65_10_cif.got.tgz:18699.got - 2010.04.10 20:52:16.
