data_PCOD8270392
_publ_section_title
;
Structure prediction by ZEFSAII (Michael W. Deem and Ramdas Pophale) SiO2 
 PCOD8270392
Probable space group: C M M M
;
_chemical_formula_sum "Si O2"
_cell_formula_units_Z 88
_cell_length_a 28.032438
_cell_length_b 18.749693
_cell_length_c 9.355181
_cell_angle_alpha 90.000000
_cell_angle_beta 90.000000
_cell_angle_gamma 90.000000
_cell_volume 4917.079453
_symmetry_space_group_name_H-M "C M M M"
_symmetry_group_IT_number 65
_symmetry_cell_setting 'orthorhombic'
loop_
_space_group_symop_operation_xyz
x,y,z
-x,-y,z
x,-y,-z
-x,y,-z
-x,-y,-z
x,y,-z
-x,y,z
x,-y,z
1/2+x,1/2+y,z
1/2-x,1/2-y,z
1/2+x,1/2-y,-z
1/2-x,1/2+y,-z
1/2-x,1/2-y,-z
1/2+x,1/2+y,-z
1/2-x,1/2+y,z
1/2+x,1/2-y,z
loop_
_atom_site_type_symbol
_atom_site_label
_atom_site_fract_x
_atom_site_fract_y
_atom_site_fract_z
Si Si1 0.772209 0.919907 0.169279
Si Si2 0.446295 0.000000 0.154293
Si Si3 0.820088 0.666197 0.166408
Si Si4 0.590592 0.873517 0.334678
Si Si5 0.053964 0.216602 0.335226
Si Si6 0.644335 0.677726 0.165964
O O1 0.730712 0.865212 0.216616
O O2 0.822807 0.887514 0.220970
O O3 0.765383 0.000000 0.233208
O O4 0.772394 0.924145 0.000000
O O5 0.438355 0.068595 0.249699
O O6 0.500000 0.000000 0.108511
O O7 0.417895 0.000000 0.000000
O O8 0.857232 0.626439 0.266805
O O9 0.824758 0.750721 0.194678
O O10 0.830069 0.648959 0.000000
O O11 0.594828 0.894371 0.500000
O O12 0.562643 0.800078 0.312653
O O13 0.060005 0.195339 0.500000
O O14 0.093812 0.173520 0.247204
O O15 0.000000 0.198291 0.282945
O O16 0.631847 0.670982 0.000000
#
# Coordination Sequence:
#
# PCOD8270392 Si02
#       6
#    16   8  16  16  16  16
#     4   9  17  29  48  73 100 132 166 201 244 295
#     4  11  23  35  47  65  93 131 171 209 248 291
#     4   9  17  30  49  72  98 130 165 203 242 287
#     4  10  20  33  49  70  97 128 163 205 248 292
#     4   9  18  33  52  72  95 125 161 200 248 303
#     4   9  17  30  49  74 100 126 163 207 246 287
#
# _framework density 17.896802000000001
#
# number of rings (size 3 to 8) (size 9 to 14) (size 15 to 20)
#    0.000    2.636    0.000    1.909    1.273    4.727 
#    0.000    0.909    0.000    6.545    0.000    3.818 
#    0.000    0.000    0.000    0.000    0.000    0.000 
#
# Total GULP energy -545334.612385 kJ/mol
# GULP energy per Si atom -12393.968463 kJ/mol
# Density = 1.785607 g / cm^3
# Si number density = 17.896802 Si / 1000 Ang^3
#
#
#
# Elastic Constant Matrix: (Units=GPa)
#
#
# Indices 1 2 3 4 5 6 
#
# 1 147.3063 47.9978 43.1485 0.0000 0.0000 0.0000
# 2 47.9978 59.3197 21.6142 0.0000 0.0000 0.0000
# 3 43.1485 21.6142 64.7559 0.0000 0.0000 0.0000
# 4 0.0000 0.0000 0.0000 17.9937 0.0000 0.0000
# 5 0.0000 0.0000 0.0000 0.0000 15.8908 0.0000
# 6 0.0000 0.0000 0.0000 0.0000 0.0000 14.4368
#
#
#
# Elastic Compliance Matrix: (Units=1/GPa)
#
#
# Indices 1 2 3 4 5 6 
#
# 1 0.010321 -0.006654 -0.004656 0.000000 0.000000 0.000000
# 2 -0.006654 0.023482 -0.003404 0.000000 0.000000 0.000000
# 3 -0.004656 -0.003404 0.019681 0.000000 0.000000 0.000000
# 4 0.000000 0.000000 0.000000 0.055575 0.000000 0.000000
# 5 0.000000 0.000000 0.000000 0.000000 0.062930 0.000000
# 6 0.000000 0.000000 0.000000 0.000000 0.000000 0.069267
#
#
# Mechanical properties :
#
#
# Convention : Reuss Voigt Hill
#
# Bulk Modulus (GPa) = 41.56999 55.21144 48.39071
# Shear Modulus (GPa) = 17.94024 20.23899 19.08962
#
# Velocity S-wave (km/s) = 3.16955 3.36649 3.26950
# Velocity P-wave (km/s) = 6.05580 6.78439 6.43042
#
# Compressibility (1/GPa) = 0.02405582
#
# Stress axis : x y z
#
# Youngs Moduli (GPa) = 96.89386 42.58505 50.81028
#
# Poissons Ratio (x) = 0.28338 0.23656
# Poissons Ratio (y) = 0.64477 0.17296
# Poissons Ratio (z) = 0.45112 0.14496
#
# Static dielectric constant tensor:
#      x y z
#    x 3.407980 0.000000 0.000000 
#    y 0.000000 3.482630 0.000000 
#    z 0.000000 0.000000 3.197920 
# 
# 
# High freq. dielectric constant tensor:
#      x y z
#    x 1.696730 0.000000 0.000000 
#    y 0.000000 1.672340 0.000000 
#    z 0.000000 0.000000 1.675130 
# 
# From -- ./inp_files/10141.got.cif
#   From: 2010.03.12/outbox.cif.g09.slc.cpg/sg65_6_cif.got.tgz:10141.got - 2010.04.10 20:52:16.
