data_PCOD8270011
_publ_section_title
;
Structure prediction by ZEFSAII (Michael W. Deem and Ramdas Pophale) SiO2 
 PCOD8270011
Probable space group: C M M M
;
_chemical_formula_sum "Si O2"
_cell_formula_units_Z 112
_cell_length_a 19.280932
_cell_length_b 9.462801
_cell_length_c 35.678880
_cell_angle_alpha 90.000000
_cell_angle_beta 90.000000
_cell_angle_gamma 90.000000
_cell_volume 6509.669549
_symmetry_space_group_name_H-M "C M M M"
_symmetry_group_IT_number 65
_symmetry_cell_setting 'orthorhombic'
loop_
_space_group_symop_operation_xyz
x,y,z
-x,-y,z
x,-y,-z
-x,y,-z
-x,-y,-z
x,y,-z
-x,y,z
x,-y,z
1/2+x,1/2+y,z
1/2-x,1/2-y,z
1/2+x,1/2-y,-z
1/2-x,1/2+y,-z
1/2-x,1/2-y,-z
1/2+x,1/2+y,-z
1/2-x,1/2+y,z
1/2+x,1/2-y,z
loop_
_atom_site_type_symbol
_atom_site_label
_atom_site_fract_x
_atom_site_fract_y
_atom_site_fract_z
Si Si1 0.423361 0.832266 0.896072
Si Si2 0.422162 0.832453 0.812599
Si Si3 0.821959 0.332924 0.747645
Si Si4 0.920661 0.836307 0.606678
Si Si5 0.682641 0.664214 0.457565
Si Si6 0.579483 0.163983 0.678606
Si Si7 0.319175 0.836221 0.042085
O O1 0.500000 0.771209 0.903688
O O2 0.398807 0.785768 0.854454
O O3 0.373374 0.771804 0.928185
O O4 0.425309 0.000000 0.898584
O O5 0.500000 0.773883 0.803774
O O6 0.364768 0.775555 0.783639
O O7 0.425508 0.000000 0.809283
O O8 0.806749 0.500000 0.750182
O O9 0.750000 0.250000 0.744859
O O10 0.869617 0.295365 0.712226
O O11 0.878994 0.789705 0.569859
O O12 0.894414 0.749529 0.642498
O O13 0.000000 0.800528 0.597760
O O14 0.909440 0.000000 0.616109
O O15 0.659860 0.701332 0.500000
O O16 0.700531 0.500000 0.453506
O O17 0.750000 0.750000 0.445392
O O18 0.500000 0.203964 0.689413
O O19 0.584848 0.000000 0.668698
O O20 0.250000 0.750000 0.047898
O O21 0.303214 0.000000 0.050124
O O22 0.348773 0.815935 0.000000
#
# Coordination Sequence:
#
# PCOD8270011 Si02
#       7
#    16  16  16  16  16  16  16
#     4   8  14  25  43  67  89 110 144 189 228 259
#     4   8  14  27  47  67  87 114 149 186 222 263
#     4  10  20  32  47  69  94 118 147 184 224 265
#     4   9  18  32  50  72  95 119 150 188 228 267
#     4   9  18  32  49  69  94 124 155 186 222 265
#     4   9  18  33  51  68  88 118 154 187 220 262
#     4   9  17  28  42  62  89 119 148 179 219 267
#
# _framework density 17.205175000000001
#
# number of rings (size 3 to 8) (size 9 to 14) (size 15 to 20)
#    0.000    3.143    0.000    1.286    0.000    4.571 
#    0.000    5.714    0.000    1.714    0.000    8.000 
#    0.000    0.000    0.000    0.000    0.000    0.000 
#
# Total GULP energy -694183.081475 kJ/mol
# GULP energy per Si atom -12396.126455 kJ/mol
# Density = 1.716602 g / cm^3
# Si number density = 17.205175 Si / 1000 Ang^3
#
#
#
# Elastic Constant Matrix: (Units=GPa)
#
#
# Indices 1 2 3 4 5 6 
#
# 1 116.6062 39.5915 98.3636 0.0000 0.0000 0.0000
# 2 39.5915 31.0112 44.8909 0.0000 0.0000 0.0000
# 3 98.3636 44.8909 156.3918 0.0000 0.0000 0.0000
# 4 0.0000 0.0000 0.0000 17.8704 0.0000 0.0000
# 5 0.0000 0.0000 0.0000 0.0000 28.6041 0.0000
# 6 0.0000 0.0000 0.0000 0.0000 0.0000 24.6486
#
#
#
# Elastic Compliance Matrix: (Units=1/GPa)
#
#
# Indices 1 2 3 4 5 6 
#
# 1 0.020998 -0.013157 -0.009430 0.000000 0.000000 0.000000
# 2 -0.013157 0.063414 -0.009927 0.000000 0.000000 0.000000
# 3 -0.009430 -0.009927 0.015175 0.000000 0.000000 0.000000
# 4 0.000000 0.000000 0.000000 0.055958 0.000000 0.000000
# 5 0.000000 0.000000 0.000000 0.000000 0.034960 0.000000
# 6 0.000000 0.000000 0.000000 0.000000 0.000000 0.040570
#
#
# Mechanical properties :
#
#
# Convention : Reuss Voigt Hill
#
# Bulk Modulus (GPa) = 28.93680 74.41126 51.67403
# Shear Modulus (GPa) = 16.25361 22.30215 19.27788
#
# Velocity S-wave (km/s) = 3.07692 3.60425 3.35097
# Velocity P-wave (km/s) = 5.42940 7.78871 6.71351
#
# Compressibility (1/GPa) = 0.03455807
#
# Stress axis : x y z
#
# Youngs Moduli (GPa) = 47.62372 15.76938 65.89796
#
# Poissons Ratio (x) = 0.20747 0.62143
# Poissons Ratio (y) = 0.62658 0.65420
# Poissons Ratio (z) = 0.44910 0.15655
#
# Static dielectric constant tensor:
#      x y z
#    x 3.304620 0.000000 0.000000 
#    y 0.000000 2.896970 0.000000 
#    z 0.000000 0.000000 3.496430 
# 
# 
# High freq. dielectric constant tensor:
#      x y z
#    x 1.661520 0.000000 0.000000 
#    y 0.000000 1.627890 0.000000 
#    z 0.000000 0.000000 1.676660 
# 
# From -- ./inp_files/77697.got.cif
#   From: 2010.03.12/outbox.cif.g09.slc.cpg/sg65_39_cif.got.tgz:77697.got - 2010.04.10 20:52:16.
