data_PCOD8270424
_publ_section_title
;
Structure prediction by ZEFSAII (Michael W. Deem and Ramdas Pophale) SiO2 
 PCOD8270424
Probable space group: C M M M
;
_chemical_formula_sum "Si O2"
_cell_formula_units_Z 120
_cell_length_a 29.310813
_cell_length_b 8.981202
_cell_length_c 25.763516
_cell_angle_alpha 90.000000
_cell_angle_beta 90.000000
_cell_angle_gamma 90.000000
_cell_volume 6782.151095
_symmetry_space_group_name_H-M "C M M M"
_symmetry_group_IT_number 65
_symmetry_cell_setting 'orthorhombic'
loop_
_space_group_symop_operation_xyz
x,y,z
-x,-y,z
x,-y,-z
-x,y,-z
-x,-y,-z
x,y,-z
-x,y,z
x,-y,z
1/2+x,1/2+y,z
1/2-x,1/2-y,z
1/2+x,1/2-y,-z
1/2-x,1/2+y,-z
1/2-x,1/2-y,-z
1/2+x,1/2+y,-z
1/2-x,1/2+y,z
1/2+x,1/2-y,z
loop_
_atom_site_type_symbol
_atom_site_label
_atom_site_fract_x
_atom_site_fract_y
_atom_site_fract_z
Si Si1 0.797519 0.327708 0.500000
Si Si2 0.052317 0.174980 0.256140
Si Si3 0.204229 0.172495 0.095939
Si Si4 0.552290 0.829106 0.850675
Si Si5 0.200901 0.674902 0.387660
Si Si6 0.637123 0.823007 0.705323
Si Si7 0.296733 0.325216 0.216508
Si Si8 0.882533 0.328854 0.942065
O O1 0.786992 0.500000 0.500000
O O2 0.750000 0.250000 0.500000
O O3 0.821176 0.285387 0.444839
O O4 0.064842 0.226931 0.198147
O O5 0.085504 0.259250 0.296697
O O6 0.000000 0.216965 0.269801
O O7 0.060742 0.000000 0.260041
O O8 0.250000 0.250000 0.076060
O O9 0.195503 0.208177 0.156218
O O10 0.162779 0.232430 0.062303
O O11 0.209989 0.000000 0.085467
O O12 0.500000 0.809780 0.866556
O O13 0.580552 0.773127 0.900340
O O14 0.563360 0.000000 0.835951
O O15 0.209072 0.500000 0.381486
O O16 0.250000 0.750000 0.378451
O O17 0.164096 0.731139 0.345921
O O18 0.661192 0.752212 0.755203
O O19 0.635820 0.000000 0.710102
O O20 0.294859 0.500000 0.229171
O O21 0.250000 0.250000 0.236404
O O22 0.869852 0.500000 0.931509
O O23 0.902772 0.307630 0.000000
#
# Coordination Sequence:
#
# PCOD8270424 Si02
#       8
#     8  16  16  16  16  16  16  16
#     4   8  14  28  46  64  93 132 171 207 240 275
#     4  10  21  36  53  73  97 126 160 198 242 291
#     4  10  21  36  53  70  90 121 160 197 234 279
#     4   9  18  34  56  78  99 125 155 188 230 283
#     4   9  18  30  46  70 100 135 171 205 240 280
#     4  11  21  31  47  73 102 131 163 200 244 290
#     4  10  20  33  49  71  99 130 162 196 237 286
#     4  10  21  35  51  73  99 124 152 189 232 278
#
# _framework density 17.693501000000001
#
# number of rings (size 3 to 8) (size 9 to 14) (size 15 to 20)
#    0.000    2.267    0.000    2.800    0.000    8.000 
#    0.000    1.333    0.000    0.000    0.000    3.267 
#    0.000    3.733    0.000    0.000    0.000    0.000 
#
# Total GULP energy -743898.784912 kJ/mol
# GULP energy per Si atom -12398.313082 kJ/mol
# Density = 1.765323 g / cm^3
# Si number density = 17.693501 Si / 1000 Ang^3
#
#
#
# Elastic Constant Matrix: (Units=GPa)
#
#
# Indices 1 2 3 4 5 6 
#
# 1 103.1876 37.3496 55.8221 0.0000 0.0000 0.0000
# 2 37.3496 62.9582 34.4673 0.0000 0.0000 0.0000
# 3 55.8221 34.4673 90.1317 0.0000 0.0000 0.0000
# 4 0.0000 0.0000 0.0000 18.9775 0.0000 0.0000
# 5 0.0000 0.0000 0.0000 0.0000 20.6137 0.0000
# 6 0.0000 0.0000 0.0000 0.0000 0.0000 29.5544
#
#
#
# Elastic Compliance Matrix: (Units=1/GPa)
#
#
# Indices 1 2 3 4 5 6 
#
# 1 0.015755 -0.005065 -0.007821 0.000000 0.000000 0.000000
# 2 -0.005065 0.021718 -0.005168 0.000000 0.000000 0.000000
# 3 -0.007821 -0.005168 0.017915 0.000000 0.000000 0.000000
# 4 0.000000 0.000000 0.000000 0.052694 0.000000 0.000000
# 5 0.000000 0.000000 0.000000 0.000000 0.048512 0.000000
# 6 0.000000 0.000000 0.000000 0.000000 0.000000 0.033836
#
#
# Mechanical properties :
#
#
# Convention : Reuss Voigt Hill
#
# Bulk Modulus (GPa) = 51.86762 56.83950 54.35356
# Shear Modulus (GPa) = 21.46248 22.40500 21.93374
#
# Velocity S-wave (km/s) = 3.48661 3.56235 3.52469
# Velocity P-wave (km/s) = 6.75180 7.00819 6.88119
#
# Compressibility (1/GPa) = 0.01927985
#
# Stress axis : x y z
#
# Youngs Moduli (GPa) = 63.47016 46.04530 55.81886
#
# Poissons Ratio (x) = 0.23322 0.43656
# Poissons Ratio (y) = 0.32148 0.28848
# Poissons Ratio (z) = 0.49640 0.23797
#
# Static dielectric constant tensor:
#      x y z
#    x 3.301400 0.000000 0.000000 
#    y 0.000000 3.282020 0.000000 
#    z 0.000000 0.000000 3.629080 
# 
# 
# High freq. dielectric constant tensor:
#      x y z
#    x 1.672610 0.000000 0.000000 
#    y 0.000000 1.689690 0.000000 
#    z 0.000000 0.000000 1.674360 
# 
# From -- ./inp_files/76188.got.cif
#   From: 2010.03.12/outbox.cif.g09.slc.cpg/sg65_39_cif.got.tgz:76188.got - 2010.04.10 20:52:16.
