data_PCOD8270154
_publ_section_title
;
Structure prediction by ZEFSAII (Michael W. Deem and Ramdas Pophale) SiO2 
 PCOD8270154
Probable space group: C M M M
;
_chemical_formula_sum "Si O2"
_cell_formula_units_Z 96
_cell_length_a 9.125685
_cell_length_b 19.295405
_cell_length_c 30.650664
_cell_angle_alpha 90.000000
_cell_angle_beta 90.000000
_cell_angle_gamma 90.000000
_cell_volume 5397.085021
_symmetry_space_group_name_H-M "C M M M"
_symmetry_group_IT_number 65
_symmetry_cell_setting 'orthorhombic'
loop_
_space_group_symop_operation_xyz
x,y,z
-x,-y,z
x,-y,-z
-x,y,-z
-x,-y,-z
x,y,-z
-x,y,z
x,-y,z
1/2+x,1/2+y,z
1/2-x,1/2-y,z
1/2+x,1/2-y,-z
1/2-x,1/2+y,-z
1/2-x,1/2-y,-z
1/2+x,1/2+y,-z
1/2-x,1/2+y,z
1/2+x,1/2-y,z
loop_
_atom_site_type_symbol
_atom_site_label
_atom_site_fract_x
_atom_site_fract_y
_atom_site_fract_z
Si Si1 0.164632 0.417191 0.301079
Si Si2 0.671010 0.680449 0.949697
Si Si3 0.331678 0.581876 0.385582
Si Si4 0.170525 0.319866 0.550856
Si Si5 0.832225 0.417519 0.113449
Si Si6 0.673538 0.924227 0.207815
O O1 0.166411 0.500000 0.297826
O O2 0.272515 0.390794 0.338931
O O3 0.218985 0.386657 0.253623
O O4 0.000000 0.391445 0.312013
O O5 0.500000 0.690135 0.941912
O O6 0.750000 0.750000 0.933323
O O7 0.727384 0.615305 0.922426
O O8 0.708699 0.665521 0.000000
O O9 0.500000 0.604103 0.389862
O O10 0.310689 0.500000 0.389642
O O11 0.238859 0.615169 0.424281
O O12 0.198143 0.333142 0.500000
O O13 0.250000 0.250000 0.566557
O O14 0.000000 0.313290 0.561999
O O15 0.812652 0.500000 0.112333
O O16 0.785089 0.387642 0.161731
O O17 0.000000 0.397359 0.103039
O O18 0.500000 0.933366 0.208909
O O19 0.747827 0.000000 0.207196
#
# Coordination Sequence:
#
# PCOD8270154 Si02
#       6
#    16  16  16  16  16  16
#     4   8  13  24  44  68  95 128 164 199 236 280
#     4  10  21  36  52  69  92 125 164 203 244 292
#     4  10  20  32  48  74 106 135 164 201 243 284
#     4  10  21  37  56  75  96 126 164 203 245 296
#     4   9  17  30  50  76 103 129 159 196 239 287
#     4   7  11  22  42  68  96 126 159 194 233 279
#
# _framework density 17.787379000000001
#
# number of rings (size 3 to 8) (size 9 to 14) (size 15 to 20)
#    0.000    3.000    0.000    3.500    0.000    4.000 
#    0.000    4.167    0.000    4.000    0.000    4.667 
#    0.000    0.000    0.000    0.000    0.000    0.000 
#
# Total GULP energy -594782.051153 kJ/mol
# GULP energy per Si atom -12391.292732 kJ/mol
# Density = 1.774689 g / cm^3
# Si number density = 17.787379 Si / 1000 Ang^3
#
#
#
# Elastic Constant Matrix: (Units=GPa)
#
#
# Indices 1 2 3 4 5 6 
#
# 1 93.9021 33.8656 61.5930 0.0000 0.0000 0.0000
# 2 33.8656 39.6546 42.0750 0.0000 0.0000 0.0000
# 3 61.5930 42.0750 113.8997 0.0000 0.0000 0.0000
# 4 0.0000 0.0000 0.0000 4.2866 0.0000 0.0000
# 5 0.0000 0.0000 0.0000 0.0000 23.3361 0.0000
# 6 0.0000 0.0000 0.0000 0.0000 0.0000 26.7725
#
#
#
# Elastic Compliance Matrix: (Units=1/GPa)
#
#
# Indices 1 2 3 4 5 6 
#
# 1 0.018027 -0.008308 -0.006679 0.000000 0.000000 0.000000
# 2 -0.008308 0.045302 -0.012242 0.000000 0.000000 0.000000
# 3 -0.006679 -0.012242 0.016914 0.000000 0.000000 0.000000
# 4 0.000000 0.000000 0.000000 0.233286 0.000000 0.000000
# 5 0.000000 0.000000 0.000000 0.000000 0.042852 0.000000
# 6 0.000000 0.000000 0.000000 0.000000 0.000000 0.037352
#
#
# Mechanical properties :
#
#
# Convention : Reuss Voigt Hill
#
# Bulk Modulus (GPa) = 38.78379 58.05818 48.42098
# Shear Modulus (GPa) = 10.94604 18.20722 14.57663
#
# Velocity S-wave (km/s) = 2.48338 3.20285 2.86578
# Velocity P-wave (km/s) = 5.48401 6.81092 6.18316
#
# Compressibility (1/GPa) = 0.02578397
#
# Stress axis : x y z
#
# Youngs Moduli (GPa) = 55.47284 22.07387 59.12349
#
# Poissons Ratio (x) = 0.18340 0.39489
# Poissons Ratio (y) = 0.46089 0.72379
# Poissons Ratio (z) = 0.37051 0.27023
#
# Static dielectric constant tensor:
#      x y z
#    x 3.209340 0.000000 0.000000 
#    y 0.000000 2.865140 0.000000 
#    z 0.000000 0.000000 3.707110 
# 
# 
# High freq. dielectric constant tensor:
#      x y z
#    x 1.676960 0.000000 0.000000 
#    y 0.000000 1.640760 0.000000 
#    z 0.000000 0.000000 1.707320 
# 
# From -- ./inp_files/73074.got.cif
#   From: 2010.03.12/outbox.cif.g09.slc.cpg/sg65_37_cif.got.tgz:73074.got - 2010.04.10 20:52:16.
