data_PCOD8270247
_publ_section_title
;
Structure prediction by ZEFSAII (Michael W. Deem and Ramdas Pophale) SiO2 
 PCOD8270247
Probable space group: C M M M
;
_chemical_formula_sum "Si O2"
_cell_formula_units_Z 88
_cell_length_a 26.783158
_cell_length_b 9.043020
_cell_length_c 19.066256
_cell_angle_alpha 90.000000
_cell_angle_beta 90.000000
_cell_angle_gamma 90.000000
_cell_volume 4617.859281
_symmetry_space_group_name_H-M "C M M M"
_symmetry_group_IT_number 65
_symmetry_cell_setting 'orthorhombic'
loop_
_space_group_symop_operation_xyz
x,y,z
-x,-y,z
x,-y,-z
-x,y,-z
-x,-y,-z
x,y,-z
-x,y,z
x,-y,z
1/2+x,1/2+y,z
1/2-x,1/2-y,z
1/2+x,1/2-y,-z
1/2-x,1/2+y,-z
1/2-x,1/2-y,-z
1/2+x,1/2+y,-z
1/2-x,1/2+y,z
1/2+x,1/2-y,z
loop_
_atom_site_type_symbol
_atom_site_label
_atom_site_fract_x
_atom_site_fract_y
_atom_site_fract_z
Si Si1 0.606127 0.829229 0.193442
Si Si2 0.597198 0.824412 0.645647
Si Si3 0.799831 0.168265 0.362432
Si Si4 0.296832 0.663995 0.804233
Si Si5 0.000000 0.830452 0.417070
Si Si6 0.557942 0.337761 0.076334
O O1 0.590114 0.786906 0.272235
O O2 0.654451 0.742892 0.167396
O O3 0.564854 0.783228 0.137300
O O4 0.618392 0.000000 0.189473
O O5 0.649214 0.754985 0.616298
O O6 0.549791 0.752714 0.607981
O O7 0.598383 0.000000 0.631626
O O8 0.750000 0.250000 0.392852
O O9 0.795770 0.165457 0.279401
O O10 0.801989 0.000000 0.391978
O O11 0.295283 0.500000 0.834467
O O12 0.250000 0.750000 0.835604
O O13 0.000000 0.827347 0.500000
O O14 0.000000 0.000000 0.389353
O O15 0.500000 0.353949 0.066391
O O16 0.579763 0.500000 0.097833
O O17 0.580544 0.289072 0.000000
#
# Coordination Sequence:
#
# PCOD8270247 Si02
#       6
#    16  16  16  16   8  16
#     4  10  20  32  50  78 108 136 173 218 261 308
#     4  10  21  36  55  82 113 145 183 225 271 323
#     4   9  16  28  49  78 111 144 179 222 271 319
#     4   9  16  27  45  70 102 137 172 211 260 310
#     4  11  25  43  61  81 108 145 186 225 267 322
#     4   9  19  35  52  71  98 135 176 216 263 317
#
# _framework density 19.056449000000001
#
# number of rings (size 3 to 8) (size 9 to 14) (size 15 to 20)
#    0.000    2.455    0.000    3.000    1.273    8.000 
#    0.000    0.909    0.000    1.091    0.000    0.000 
#    0.000    0.000    0.000    0.000    0.000    0.000 
#
# Total GULP energy -545316.269698 kJ/mol
# GULP energy per Si atom -12393.551584 kJ/mol
# Density = 1.901308 g / cm^3
# Si number density = 19.056449 Si / 1000 Ang^3
#
#
#
# Elastic Constant Matrix: (Units=GPa)
#
#
# Indices 1 2 3 4 5 6 
#
# 1 129.6809 67.0394 31.8573 0.0000 0.0000 0.0000
# 2 67.0394 135.1195 36.4778 0.0000 0.0000 0.0000
# 3 31.8573 36.4778 49.5856 0.0000 0.0000 0.0000
# 4 0.0000 0.0000 0.0000 140.6378 0.0000 0.0000
# 5 0.0000 0.0000 0.0000 0.0000 -1.8000 0.0000
# 6 0.0000 0.0000 0.0000 0.0000 0.0000 39.4786
#
#
#
# Elastic Compliance Matrix: (Units=1/GPa)
#
#
# Indices 1 2 3 4 5 6 
#
# 1 0.010910 -0.004393 -0.003778 0.000000 0.000000 0.000000
# 2 -0.004393 0.011004 -0.005273 0.000000 0.000000 0.000000
# 3 -0.003778 -0.005273 0.026473 0.000000 0.000000 0.000000
# 4 0.000000 0.000000 0.000000 0.007110 0.000000 0.000000
# 5 0.000000 0.000000 0.000000 0.000000 -0.555559 0.000000
# 6 0.000000 0.000000 0.000000 0.000000 0.000000 0.025330
#
#
# Mechanical properties :
#
#
# Convention : Reuss Voigt Hill
#
# Bulk Modulus (GPa) = 46.51097 65.01501 55.76299
# Shear Modulus (GPa) = -11.34618 47.59739 18.12560
#
# Velocity S-wave (km/s) = -2.44273 5.00313 3.08742
# Velocity P-wave (km/s) = 4.06252 8.21986 6.48345
#
# Compressibility (1/GPa) = 0.02150030
#
# Stress axis : x y z
#
# Youngs Moduli (GPa) = 91.65545 90.87580 37.77439
#
# Poissons Ratio (x) = 0.39925 0.14270
# Poissons Ratio (y) = 0.40267 0.19917
# Poissons Ratio (z) = 0.34624 0.47915
#
# Static dielectric constant tensor:
#      x y z
#    x 3.601030 0.000000 0.000000 
#    y 0.000000 3.821400 0.000000 
#    z 0.000000 0.000000 3.141330 
# 
# 
# High freq. dielectric constant tensor:
#      x y z
#    x 1.744190 0.000000 0.000000 
#    y 0.000000 1.755300 0.000000 
#    z 0.000000 0.000000 1.700350 
# 
# From -- ./inp_files/59814.got.cif
#   From: 2010.03.12/outbox.cif.g09.slc.cpg/sg65_30_cif.got.tgz:59814.got - 2010.04.10 20:52:16.
