data_PCOD8270844
_publ_section_title
;
Structure prediction by ZEFSAII (Michael W. Deem and Ramdas Pophale) SiO2 
 PCOD8270844
Probable space group: C M M M
;
_chemical_formula_sum "Si O2"
_cell_formula_units_Z 96
_cell_length_a 23.977446
_cell_length_b 23.496481
_cell_length_c 9.697017
_cell_angle_alpha 90.000000
_cell_angle_beta 90.000000
_cell_angle_gamma 90.000000
_cell_volume 5463.159783
_symmetry_space_group_name_H-M "C M M M"
_symmetry_group_IT_number 65
_symmetry_cell_setting 'orthorhombic'
loop_
_space_group_symop_operation_xyz
x,y,z
-x,-y,z
x,-y,-z
-x,y,-z
-x,-y,-z
x,y,-z
-x,y,z
x,-y,z
1/2+x,1/2+y,z
1/2-x,1/2-y,z
1/2+x,1/2-y,-z
1/2-x,1/2+y,-z
1/2-x,1/2-y,-z
1/2+x,1/2+y,-z
1/2-x,1/2+y,z
1/2+x,1/2-y,z
loop_
_atom_site_type_symbol
_atom_site_label
_atom_site_fract_x
_atom_site_fract_y
_atom_site_fract_z
Si Si1 0.936765 0.835186 0.659064
Si Si2 0.276175 0.373335 0.840921
Si Si3 0.641244 0.436206 0.656603
Si Si4 0.435409 0.065801 0.338922
Si Si5 0.646230 0.728930 0.840883
Si Si6 0.649926 0.860590 0.840337
O O1 0.930514 0.817536 0.500000
O O2 0.911963 0.897368 0.688345
O O3 0.906175 0.788529 0.749803
O O4 0.000000 0.836897 0.707490
O O5 0.307202 0.420642 0.752655
O O6 0.299152 0.309579 0.804716
O O7 0.211479 0.383267 0.806877
O O8 0.288150 0.385775 0.000000
O O9 0.661785 0.428359 0.500000
O O10 0.621821 0.500000 0.687463
O O11 0.423982 0.076774 0.500000
O O12 0.500000 0.079566 0.303980
O O13 0.395860 0.107304 0.251357
O O14 0.422397 0.000000 0.301862
O O15 0.655964 0.794279 0.804446
O O16 0.630253 0.720960 0.000000
O O17 0.633706 0.870039 0.000000
#
# Coordination Sequence:
#
# PCOD8270844 Si02
#       6
#    16  16  16  16  16  16
#     4   9  18  32  49  70  97 129 165 204 244 285
#     4   9  18  33  51  71  99 132 162 196 240 288
#     4   9  18  32  49  70  97 129 165 204 244 285
#     4   9  20  39  57  72  96 130 163 196 239 290
#     4   9  18  33  51  71  99 132 162 196 240 288
#     4  10  20  33  53  79 100 124 162 201 238 286
#
# _framework density 17.572247999999998
#
# number of rings (size 3 to 8) (size 9 to 14) (size 15 to 20)
#    0.000    2.833    0.000    1.000    0.000    6.333 
#    0.000    9.167    0.000    5.000    0.000    4.667 
#    0.000    0.000    0.000    0.000    0.000    0.000 
#
# Total GULP energy -595063.907331 kJ/mol
# GULP energy per Si atom -12397.164736 kJ/mol
# Density = 1.753225 g / cm^3
# Si number density = 17.572248 Si / 1000 Ang^3
#
#
#
# Elastic Constant Matrix: (Units=GPa)
#
#
# Indices 1 2 3 4 5 6 
#
# 1 95.0799 14.4355 42.9089 0.0000 0.0000 0.0000
# 2 14.4355 27.8640 19.9315 0.0000 0.0000 0.0000
# 3 42.9089 19.9315 52.8957 0.0000 0.0000 0.0000
# 4 0.0000 0.0000 0.0000 31.9360 0.0000 0.0000
# 5 0.0000 0.0000 0.0000 0.0000 33.4719 0.0000
# 6 0.0000 0.0000 0.0000 0.0000 0.0000 19.3176
#
#
#
# Elastic Compliance Matrix: (Units=1/GPa)
#
#
# Indices 1 2 3 4 5 6 
#
# 1 0.016632 0.001416 -0.014026 0.000000 0.000000 0.000000
# 2 0.001416 0.049252 -0.019707 0.000000 0.000000 0.000000
# 3 -0.014026 -0.019707 0.037708 0.000000 0.000000 0.000000
# 4 0.000000 0.000000 0.000000 0.031313 0.000000 0.000000
# 5 0.000000 0.000000 0.000000 0.000000 0.029876 0.000000
# 6 0.000000 0.000000 0.000000 0.000000 0.000000 0.051766
#
#
# Mechanical properties :
#
#
# Convention : Reuss Voigt Hill
#
# Bulk Modulus (GPa) = 25.66798 36.71015 31.18907
# Shear Modulus (GPa) = 16.99718 23.51602 20.25660
#
# Velocity S-wave (km/s) = 3.11348 3.66218 3.39892
# Velocity P-wave (km/s) = 5.25012 6.23044 5.76117
#
# Compressibility (1/GPa) = 0.03895904
#
# Stress axis : x y z
#
# Youngs Moduli (GPa) = 60.12463 20.30387 26.51922
#
# Poissons Ratio (x) = -0.02875 0.37195
# Poissons Ratio (y) = -0.08514 0.52262
# Poissons Ratio (z) = 0.84328 0.40013
#
# Static dielectric constant tensor:
#      x y z
#    x 3.307220 0.000000 0.000000 
#    y 0.000000 3.270290 0.000000 
#    z 0.000000 0.000000 3.253030 
# 
# 
# High freq. dielectric constant tensor:
#      x y z
#    x 1.678480 0.000000 0.000000 
#    y 0.000000 1.678720 0.000000 
#    z 0.000000 0.000000 1.677330 
# 
# From -- ./inp_files/14277.got.cif
#   From: 2010.03.12/outbox.cif.g09.slc.cpg/sg65_8_cif.got.tgz:14277.got - 2010.04.10 20:52:16.
