data_PCOD8270017
_publ_section_title
;
Structure prediction by ZEFSAII (Michael W. Deem and Ramdas Pophale) SiO2 
 PCOD8270017
Probable space group: C M M M
;
_chemical_formula_sum "Si O2"
_cell_formula_units_Z 96
_cell_length_a 26.592361
_cell_length_b 9.297324
_cell_length_c 23.928014
_cell_angle_alpha 90.000000
_cell_angle_beta 90.000000
_cell_angle_gamma 90.000000
_cell_volume 5915.909447
_symmetry_space_group_name_H-M "C M M M"
_symmetry_group_IT_number 65
_symmetry_cell_setting 'orthorhombic'
loop_
_space_group_symop_operation_xyz
x,y,z
-x,-y,z
x,-y,-z
-x,y,-z
-x,-y,-z
x,y,-z
-x,y,z
x,-y,z
1/2+x,1/2+y,z
1/2-x,1/2-y,z
1/2+x,1/2-y,-z
1/2-x,1/2+y,-z
1/2-x,1/2-y,-z
1/2+x,1/2+y,-z
1/2-x,1/2+y,z
1/2+x,1/2-y,z
loop_
_atom_site_type_symbol
_atom_site_label
_atom_site_fract_x
_atom_site_fract_y
_atom_site_fract_z
Si Si1 0.557908 0.833410 0.828813
Si Si2 0.697594 0.668518 0.000000
Si Si3 0.642003 0.330923 0.112672
Si Si4 0.559894 0.837435 0.500000
Si Si5 0.901745 0.833290 0.274667
Si Si6 0.298493 0.663651 0.779258
Si Si7 0.441157 0.665588 0.606571
O O1 0.500000 0.816096 0.846094
O O2 0.590622 0.756103 0.876941
O O3 0.566526 0.760767 0.768685
O O4 0.573563 0.000000 0.824793
O O5 0.750000 0.750000 0.000000
O O6 0.664845 0.713817 0.053407
O O7 0.709636 0.500000 0.000000
O O8 0.629496 0.500000 0.116560
O O9 0.682247 0.286142 0.159874
O O10 0.500000 0.830034 0.500000
O O11 0.580520 0.758428 0.444737
O O12 0.579893 0.000000 0.500000
O O13 0.842385 0.810884 0.265741
O O14 0.913878 0.782028 0.337164
O O15 0.916989 0.000000 0.265601
O O16 0.281489 0.500000 0.781868
O O17 0.250000 0.750000 0.759870
O O18 0.500000 0.691505 0.615071
O O19 0.429328 0.500000 0.593313
#
# Coordination Sequence:
#
# PCOD8270017 Si02
#       7
#    16   8  16   8  16  16  16
#     4  10  20  32  47  69  95 122 153 189 229 272
#     4  10  20  34  53  76  97 119 152 193 235 278
#     4   9  19  34  50  69  93 121 154 187 222 273
#     4   9  17  27  39  59  90 123 150 181 222 263
#     4   9  18  31  47  68  92 120 155 190 225 270
#     4   9  17  29  45  66  91 117 145 180 224 271
#     4   9  16  27  44  64  87 118 154 186 217 260
#
# _framework density 16.227429000000001
#
# number of rings (size 3 to 8) (size 9 to 14) (size 15 to 20)
#    0.000    2.750    0.000    2.750    0.000    7.000 
#    0.000    2.083    0.000    2.500    0.000    0.583 
#    0.000    0.000    0.000    0.000    0.000    0.000 
#
# Total GULP energy -595236.303275 kJ/mol
# GULP energy per Si atom -12400.756318 kJ/mol
# Density = 1.619049 g / cm^3
# Si number density = 16.227429 Si / 1000 Ang^3
#
#
#
# Elastic Constant Matrix: (Units=GPa)
#
#
# Indices 1 2 3 4 5 6 
#
# 1 82.2592 49.7289 51.8199 0.0000 0.0000 0.0000
# 2 49.7289 79.1679 54.6125 0.0000 0.0000 0.0000
# 3 51.8199 54.6125 144.1621 0.0000 0.0000 0.0000
# 4 0.0000 0.0000 0.0000 17.4728 0.0000 0.0000
# 5 0.0000 0.0000 0.0000 0.0000 17.4913 0.0000
# 6 0.0000 0.0000 0.0000 0.0000 0.0000 28.6894
#
#
#
# Elastic Compliance Matrix: (Units=1/GPa)
#
#
# Indices 1 2 3 4 5 6 
#
# 1 0.020772 -0.010691 -0.003417 0.000000 0.000000 0.000000
# 2 -0.010691 0.022603 -0.004720 0.000000 0.000000 0.000000
# 3 -0.003417 -0.004720 0.009953 0.000000 0.000000 0.000000
# 4 0.000000 0.000000 0.000000 0.057232 0.000000 0.000000
# 5 0.000000 0.000000 0.000000 0.000000 0.057171 0.000000
# 6 0.000000 0.000000 0.000000 0.000000 0.000000 0.034856
#
#
# Mechanical properties :
#
#
# Convention : Reuss Voigt Hill
#
# Bulk Modulus (GPa) = 63.80384 68.65688 66.23036
# Shear Modulus (GPa) = 20.36949 22.69255 21.53102
#
# Velocity S-wave (km/s) = 3.54679 3.74359 3.64652
# Velocity P-wave (km/s) = 7.49512 7.81581 7.65715
#
# Compressibility (1/GPa) = 0.01567304
#
# Stress axis : x y z
#
# Youngs Moduli (GPa) = 48.14131 44.24280 100.47586
#
# Poissons Ratio (x) = 0.47300 0.34329
# Poissons Ratio (y) = 0.51468 0.47420
# Poissons Ratio (z) = 0.16448 0.20880
#
# Static dielectric constant tensor:
#      x y z
#    x 2.890390 0.000000 0.000000 
#    y 0.000000 3.099390 0.000000 
#    z 0.000000 0.000000 3.154150 
# 
# 
# High freq. dielectric constant tensor:
#      x y z
#    x 1.603280 0.000000 0.000000 
#    y 0.000000 1.626340 0.000000 
#    z 0.000000 0.000000 1.619550 
# 
# From -- ./inp_files/71750.got.cif
#   From: 2010.03.12/outbox.cif.g09.slc.cpg/sg65_36_cif.got.tgz:71750.got - 2010.04.10 20:52:16.
