data_PCOD8270221
_publ_section_title
;
Structure prediction by ZEFSAII (Michael W. Deem and Ramdas Pophale) SiO2 
 PCOD8270221
Probable space group: C M M M
;
_chemical_formula_sum "Si O2"
_cell_formula_units_Z 72
_cell_length_a 10.220567
_cell_length_b 24.651011
_cell_length_c 16.607821
_cell_angle_alpha 90.000000
_cell_angle_beta 90.000000
_cell_angle_gamma 90.000000
_cell_volume 4184.295818
_symmetry_space_group_name_H-M "C M M M"
_symmetry_group_IT_number 65
_symmetry_cell_setting 'orthorhombic'
loop_
_space_group_symop_operation_xyz
x,y,z
-x,-y,z
x,-y,-z
-x,y,-z
-x,-y,-z
x,y,-z
-x,y,z
x,-y,z
1/2+x,1/2+y,z
1/2-x,1/2-y,z
1/2+x,1/2-y,-z
1/2-x,1/2+y,-z
1/2-x,1/2-y,-z
1/2+x,1/2+y,-z
1/2-x,1/2+y,z
1/2+x,1/2-y,z
loop_
_atom_site_type_symbol
_atom_site_label
_atom_site_fract_x
_atom_site_fract_y
_atom_site_fract_z
Si Si1 0.500000 0.937023 0.909099
Si Si2 0.750177 0.685603 0.310612
Si Si3 0.000000 0.814294 0.589792
Si Si4 0.500000 0.562062 0.904665
Si Si5 0.844459 0.699141 0.000000
Si Si6 0.760799 0.623541 0.143908
Si Si7 0.500000 0.814026 0.589664
O O1 0.373368 0.921801 0.856836
O O2 0.500000 0.000000 0.923348
O O3 0.500000 0.909474 0.000000
O O4 0.750000 0.750000 0.293520
O O5 0.626106 0.666161 0.361636
O O6 0.750159 0.653814 0.227840
O O7 0.873919 0.666366 0.361954
O O8 0.000000 0.839886 0.500000
O O9 0.000000 0.750144 0.581895
O O10 0.500000 0.500000 0.871959
O O11 0.374815 0.594422 0.874200
O O12 0.500000 0.561380 0.000000
O O13 0.750000 0.750000 0.000000
O O14 0.805187 0.667139 0.920778
O O15 0.000000 0.714581 0.000000
O O16 0.500000 0.839649 0.500000
#
# Coordination Sequence:
#
# PCOD8270221 Si02
#       7
#     8  16   8   8   8  16   8
#     4  11  21  38  60  76  98 138 189 240 286 325
#     4  10  20  32  49  77 110 145 175 214 261 316
#     4   9  17  32  50  71 103 145 182 212 258 315
#     4  11  23  38  58  80 104 138 187 242 292 321
#     4  12  26  40  55  78 112 160 193 218 253 322
#     4  12  21  39  54  80 111 143 186 225 276 326
#     4   9  17  30  50  73 103 139 178 218 260 309
#
# _framework density 17.207196
#
# number of rings (size 3 to 8) (size 9 to 14) (size 15 to 20)
#    0.000    1.333    3.333    3.333    1.556    4.444 
#    4.000    0.000    0.000    0.000    0.000    0.000 
#    0.000   62.222    0.000    0.000    0.000    0.000 
#
# Total GULP energy -446346.825030 kJ/mol
# GULP energy per Si atom -12398.522918 kJ/mol
# Density = 1.716803 g / cm^3
# Si number density = 17.207196 Si / 1000 Ang^3
#
#
#
# Elastic Constant Matrix: (Units=GPa)
#
#
# Indices 1 2 3 4 5 6 
#
# 1 193.9158 52.6236 76.9814 0.0000 0.0000 0.0000
# 2 52.6236 63.3799 45.7477 0.0000 0.0000 0.0000
# 3 76.9814 45.7477 156.2509 0.0000 0.0000 0.0000
# 4 0.0000 0.0000 0.0000 11.7897 0.0000 0.0000
# 5 0.0000 0.0000 0.0000 0.0000 30.3638 0.0000
# 6 0.0000 0.0000 0.0000 0.0000 0.0000 21.7368
#
#
#
# Elastic Compliance Matrix: (Units=1/GPa)
#
#
# Indices 1 2 3 4 5 6 
#
# 1 0.007253 -0.004365 -0.002295 0.000000 0.000000 0.000000
# 2 -0.004365 0.022633 -0.004476 0.000000 0.000000 0.000000
# 3 -0.002295 -0.004476 0.008841 0.000000 0.000000 0.000000
# 4 0.000000 0.000000 0.000000 0.084819 0.000000 0.000000
# 5 0.000000 0.000000 0.000000 0.000000 0.032934 0.000000
# 6 0.000000 0.000000 0.000000 0.000000 0.000000 0.046005
#
#
# Mechanical properties :
#
#
# Convention : Reuss Voigt Hill
#
# Bulk Modulus (GPa) = 60.77442 84.91688 72.84565
# Shear Modulus (GPa) = 21.71626 28.65766 25.18696
#
# Velocity S-wave (km/s) = 3.55638 4.08542 3.83004
# Velocity P-wave (km/s) = 7.22908 8.46823 7.87307
#
# Compressibility (1/GPa) = 0.01645429
#
# Stress axis : x y z
#
# Youngs Moduli (GPa) = 137.88181 44.18352 113.10646
#
# Poissons Ratio (x) = 0.19286 0.25960
# Poissons Ratio (y) = 0.60187 0.50626
# Poissons Ratio (z) = 0.31646 0.19776
#
# Static dielectric constant tensor:
#      x y z
#    x 3.551520 0.000000 0.000000 
#    y 0.000000 3.133850 0.000000 
#    z 0.000000 0.000000 3.167140 
# 
# 
# High freq. dielectric constant tensor:
#      x y z
#    x 1.691000 0.000000 0.000000 
#    y 0.000000 1.630820 0.000000 
#    z 0.000000 0.000000 1.666910 
# 
# From -- ./inp_files/36746.got.cif
#   From: 2010.03.12/outbox.cif.g09.slc.cpg/sg65_19_cif.got.tgz:36746.got - 2010.04.10 20:52:16.
