data_PCOD8270051
_publ_section_title
;
Structure prediction by ZEFSAII (Michael W. Deem and Ramdas Pophale) SiO2 
 PCOD8270051
Probable space group: C M M M
;
_chemical_formula_sum "Si O2"
_cell_formula_units_Z 88
_cell_length_a 9.491014
_cell_length_b 18.840977
_cell_length_c 28.489479
_cell_angle_alpha 90.000000
_cell_angle_beta 90.000000
_cell_angle_gamma 90.000000
_cell_volume 5094.487965
_symmetry_space_group_name_H-M "C M M M"
_symmetry_group_IT_number 65
_symmetry_cell_setting 'orthorhombic'
loop_
_space_group_symop_operation_xyz
x,y,z
-x,-y,z
x,-y,-z
-x,y,-z
-x,-y,-z
x,y,-z
-x,y,z
x,-y,z
1/2+x,1/2+y,z
1/2-x,1/2-y,z
1/2+x,1/2-y,-z
1/2-x,1/2+y,-z
1/2-x,1/2-y,-z
1/2+x,1/2+y,-z
1/2-x,1/2+y,z
1/2+x,1/2-y,z
loop_
_atom_site_type_symbol
_atom_site_label
_atom_site_fract_x
_atom_site_fract_y
_atom_site_fract_z
Si Si1 0.337275 0.081573 0.724194
Si Si2 0.164127 0.918383 0.813428
Si Si3 0.164182 0.177779 0.898592
Si Si4 0.333903 0.822414 0.635495
Si Si5 0.332829 0.079150 0.447625
Si Si6 0.340114 0.319281 0.000000
O O1 0.500000 0.089689 0.737663
O O2 0.247377 0.109843 0.768119
O O3 0.297407 0.128777 0.679743
O O4 0.300052 0.000000 0.712098
O O5 0.217123 0.876557 0.859213
O O6 0.000000 0.906373 0.803689
O O7 0.200322 0.000000 0.822914
O O8 0.250000 0.250000 0.893398
O O9 0.190044 0.140692 0.950321
O O10 0.000000 0.195494 0.891475
O O11 0.500000 0.806472 0.632066
O O12 0.250000 0.750000 0.640444
O O13 0.275857 0.863692 0.589576
O O14 0.285028 0.102245 0.500000
O O15 0.500000 0.076373 0.444193
O O16 0.274341 0.000000 0.436279
O O17 0.250000 0.250000 0.000000
O O18 0.500000 0.293267 0.000000
#
# Coordination Sequence:
#
# PCOD8270051 Si02
#       6
#    16  16  16  16  16   8
#     4   9  18  33  51  67  85 116 157 193 222 259
#     4   9  18  32  48  67  92 119 147 183 228 273
#     4   9  17  29  46  67  90 117 149 184 221 263
#     4  10  20  32  47  70  98 123 149 186 230 272
#     4   8  14  27  49  73  93 118 156 195 225 259
#     4   8  14  26  43  63  87 115 147 180 216 260
#
# _framework density 17.273571
#
# number of rings (size 3 to 8) (size 9 to 14) (size 15 to 20)
#    0.000    3.091    0.000    1.091    0.000    4.727 
#    0.000    4.091    0.000    4.364    0.000    1.273 
#    0.000   10.182    0.000    0.000    0.000    0.000 
#
# Total GULP energy -545279.069604 kJ/mol
# GULP energy per Si atom -12392.706127 kJ/mol
# Density = 1.723426 g / cm^3
# Si number density = 17.273571 Si / 1000 Ang^3
#
#
#
# Elastic Constant Matrix: (Units=GPa)
#
#
# Indices 1 2 3 4 5 6 
#
# 1 34.3227 35.6556 50.5527 0.0000 0.0000 0.0000
# 2 35.6556 91.0022 85.2175 0.0000 0.0000 0.0000
# 3 50.5527 85.2175 181.8357 0.0000 0.0000 0.0000
# 4 0.0000 0.0000 0.0000 31.2812 0.0000 0.0000
# 5 0.0000 0.0000 0.0000 0.0000 21.6933 0.0000
# 6 0.0000 0.0000 0.0000 0.0000 0.0000 23.6501
#
#
#
# Elastic Compliance Matrix: (Units=1/GPa)
#
#
# Indices 1 2 3 4 5 6 
#
# 1 0.057256 -0.013415 -0.009631 0.000000 0.000000 0.000000
# 2 -0.013415 0.022726 -0.006921 0.000000 0.000000 0.000000
# 3 -0.009631 -0.006921 0.011421 0.000000 0.000000 0.000000
# 4 0.000000 0.000000 0.000000 0.031968 0.000000 0.000000
# 5 0.000000 0.000000 0.000000 0.000000 0.046097 0.000000
# 6 0.000000 0.000000 0.000000 0.000000 0.000000 0.042283
#
#
# Mechanical properties :
#
#
# Convention : Reuss Voigt Hill
#
# Bulk Modulus (GPa) = 31.77725 72.22358 52.00042
# Shear Modulus (GPa) = 17.71951 24.37390 21.04671
#
# Velocity S-wave (km/s) = 3.20631 3.76047 3.49439
# Velocity P-wave (km/s) = 5.66954 7.79469 6.81546
#
# Compressibility (1/GPa) = 0.03146906
#
# Stress axis : x y z
#
# Youngs Moduli (GPa) = 17.46529 44.00288 87.56071
#
# Poissons Ratio (x) = 0.59028 0.84332
# Poissons Ratio (y) = 0.23429 0.60601
# Poissons Ratio (z) = 0.16821 0.30455
#
# Static dielectric constant tensor:
#      x y z
#    x 2.956710 0.000000 0.000000 
#    y 0.000000 2.655250 0.000000 
#    z 0.000000 0.000000 3.744190 
# 
# 
# High freq. dielectric constant tensor:
#      x y z
#    x 1.642940 0.000000 0.000000 
#    y 0.000000 1.646680 0.000000 
#    z 0.000000 0.000000 1.688270 
# 
# From -- ./inp_files/74232.got.cif
#   From: 2010.03.12/outbox.cif.g09.slc.cpg/sg65_38_cif.got.tgz:74232.got - 2010.04.10 20:52:16.
