data_PCOD8270852
_publ_section_title
;
Structure prediction by ZEFSAII (Michael W. Deem and Ramdas Pophale) SiO2 
 PCOD8270852
Probable space group: C M M M
;
_chemical_formula_sum "Si O2"
_cell_formula_units_Z 120
_cell_length_a 32.164454
_cell_length_b 15.164020
_cell_length_c 13.639084
_cell_angle_alpha 90.000000
_cell_angle_beta 90.000000
_cell_angle_gamma 90.000000
_cell_volume 6652.359888
_symmetry_space_group_name_H-M "C M M M"
_symmetry_group_IT_number 65
_symmetry_cell_setting 'orthorhombic'
loop_
_space_group_symop_operation_xyz
x,y,z
-x,-y,z
x,-y,-z
-x,y,-z
-x,-y,-z
x,y,-z
-x,y,z
x,-y,z
1/2+x,1/2+y,z
1/2-x,1/2-y,z
1/2+x,1/2-y,-z
1/2-x,1/2+y,-z
1/2-x,1/2-y,-z
1/2+x,1/2+y,-z
1/2-x,1/2+y,z
1/2+x,1/2-y,z
loop_
_atom_site_type_symbol
_atom_site_label
_atom_site_fract_x
_atom_site_fract_y
_atom_site_fract_z
Si Si1 0.110045 0.400384 0.385087
Si Si2 0.500000 0.603810 0.109053
Si Si3 0.810177 0.597844 0.736808
Si Si4 0.331726 0.602015 0.237957
Si Si5 0.765281 0.849755 0.612680
Si Si6 0.701006 0.752547 0.890497
Si Si7 0.070773 0.898732 0.257735
Si Si8 0.046183 0.742535 0.384278
O O1 0.115358 0.386829 0.500000
O O2 0.096010 0.500000 0.359878
O O3 0.154273 0.376312 0.339778
O O4 0.075867 0.333758 0.341012
O O5 0.500000 0.500000 0.097252
O O6 0.457921 0.632525 0.166245
O O7 0.500000 0.647187 0.000000
O O8 0.817037 0.500000 0.780525
O O9 0.766785 0.595169 0.678185
O O10 0.813990 0.666370 0.824869
O O11 0.319857 0.500000 0.221995
O O12 0.311091 0.637624 0.339627
O O13 0.314408 0.658253 0.147814
O O14 0.380971 0.615013 0.235826
O O15 0.766797 0.882833 0.500000
O O16 0.750000 0.750000 0.618984
O O17 0.750000 0.750000 0.889167
O O18 0.683616 0.766562 0.000000
O O19 0.059642 0.839386 0.350546
O O20 0.060932 0.000000 0.285098
O O21 0.048348 0.742782 0.500000
O O22 0.000000 0.720528 0.346776
#
# Coordination Sequence:
#
# PCOD8270852 Si02
#       8
#    16   8  16  16  16  16  16  16
#     4   9  19  34  54  82 112 141 177 224 273 321
#     4   9  18  36  59  79 102 133 173 223 273 318
#     4  11  20  36  59  80 107 143 185 229 277 326
#     4  11  22  38  58  81 111 147 185 226 276 330
#     4  11  22  36  56  81 112 149 187 229 276 324
#     4  11  23  39  55  77 109 142 183 231 279 325
#     4  10  21  36  55  79 110 142 176 221 268 319
#     4  10  20  33  53  79 109 147 182 213 258 321
#
# _framework density 18.038712
#
# number of rings (size 3 to 8) (size 9 to 14) (size 15 to 20)
#    0.000    1.667    3.333    1.600    0.000    3.733 
#    0.000    6.000    0.000    0.000    0.000    0.000 
#    0.000    0.533    0.000    0.000    0.000    0.000 
#
# Total GULP energy -743950.342025 kJ/mol
# GULP energy per Si atom -12399.172367 kJ/mol
# Density = 1.799765 g / cm^3
# Si number density = 18.038712 Si / 1000 Ang^3
#
#
#
# Elastic Constant Matrix: (Units=GPa)
#
#
# Indices 1 2 3 4 5 6 
#
# 1 117.4632 43.8901 43.6187 0.0000 0.0000 0.0000
# 2 43.8901 98.4013 53.7992 0.0000 0.0000 0.0000
# 3 43.6187 53.7992 81.7604 0.0000 0.0000 0.0000
# 4 0.0000 0.0000 0.0000 -2.8099 0.0000 0.0000
# 5 0.0000 0.0000 0.0000 0.0000 32.2204 0.0000
# 6 0.0000 0.0000 0.0000 0.0000 0.0000 28.2752
#
#
#
# Elastic Compliance Matrix: (Units=1/GPa)
#
#
# Indices 1 2 3 4 5 6 
#
# 1 0.011046 -0.002663 -0.004141 0.000000 0.000000 0.000000
# 2 -0.002663 0.016515 -0.009446 0.000000 0.000000 0.000000
# 3 -0.004141 -0.009446 0.020656 0.000000 0.000000 0.000000
# 4 0.000000 0.000000 0.000000 -0.355887 0.000000 0.000000
# 5 0.000000 0.000000 0.000000 0.000000 0.031036 0.000000
# 6 0.000000 0.000000 0.000000 0.000000 0.000000 0.035367
#
#
# Mechanical properties :
#
#
# Convention : Reuss Voigt Hill
#
# Bulk Modulus (GPa) = 63.62714 64.47122 64.04918
# Shear Modulus (GPa) = -24.56648 21.95825 -1.30411
#
# Velocity S-wave (km/s) = -3.69436 3.49275 -0.85119
# Velocity P-wave (km/s) = 4.14142 7.21691 5.88367
#
# Compressibility (1/GPa) = 0.01571656
#
# Stress axis : x y z
#
# Youngs Moduli (GPa) = 90.53114 60.55168 48.41299
#
# Poissons Ratio (x) = 0.16125 0.20046
# Poissons Ratio (y) = 0.24108 0.45732
# Poissons Ratio (z) = 0.37486 0.57199
#
# Static dielectric constant tensor:
#      x y z
#    x 3.572460 0.000000 0.000000 
#    y 0.000000 3.435310 0.000000 
#    z 0.000000 0.000000 3.455080 
# 
# 
# High freq. dielectric constant tensor:
#      x y z
#    x 1.704870 0.000000 0.000000 
#    y 0.000000 1.703330 0.000000 
#    z 0.000000 0.000000 1.680490 
# 
# From -- ./inp_files/48064.got.cif
#   From: 2010.03.12/outbox.cif.g09.slc.cpg/sg65_25_cif.got.tgz:48064.got - 2010.04.10 20:52:16.
