data_PCOD8270636
_publ_section_title
;
Structure prediction by ZEFSAII (Michael W. Deem and Ramdas Pophale) SiO2 
 PCOD8270636
Probable space group: C M M M
;
_chemical_formula_sum "Si O2"
_cell_formula_units_Z 96
_cell_length_a 20.096949
_cell_length_b 9.137014
_cell_length_c 29.355870
_cell_angle_alpha 90.000000
_cell_angle_beta 90.000000
_cell_angle_gamma 90.000000
_cell_volume 5390.504049
_symmetry_space_group_name_H-M "C M M M"
_symmetry_group_IT_number 65
_symmetry_cell_setting 'orthorhombic'
loop_
_space_group_symop_operation_xyz
x,y,z
-x,-y,z
x,-y,-z
-x,y,-z
-x,-y,-z
x,y,-z
-x,y,z
x,-y,z
1/2+x,1/2+y,z
1/2-x,1/2-y,z
1/2+x,1/2-y,-z
1/2-x,1/2+y,-z
1/2-x,1/2-y,-z
1/2+x,1/2+y,-z
1/2-x,1/2+y,z
1/2+x,1/2-y,z
loop_
_atom_site_type_symbol
_atom_site_label
_atom_site_fract_x
_atom_site_fract_y
_atom_site_fract_z
Si Si1 0.923300 0.832493 0.947265
Si Si2 0.183494 0.170449 0.553011
Si Si3 0.573172 0.826551 0.285004
Si Si4 0.922280 0.668963 0.612358
Si Si5 0.183201 0.671732 0.783581
Si Si6 0.817357 0.671219 0.888120
O O1 0.879063 0.724483 0.917661
O O2 0.000000 0.796341 0.936937
O O3 0.907354 0.000000 0.934278
O O4 0.907210 0.804697 0.000000
O O5 0.172411 0.203356 0.500000
O O6 0.250000 0.250000 0.570900
O O7 0.119197 0.230112 0.578728
O O8 0.191626 0.000000 0.563198
O O9 0.500000 0.760760 0.274468
O O10 0.595504 0.783789 0.335986
O O11 0.624431 0.763749 0.247878
O O12 0.569265 0.000000 0.281230
O O13 0.903590 0.500000 0.603911
O O14 0.000000 0.695064 0.602696
O O15 0.192782 0.500000 0.776287
O O16 0.250000 0.750000 0.767445
O O17 0.166517 0.709796 0.835782
O O18 0.807230 0.500000 0.895684
O O19 0.750000 0.750000 0.904382
#
# Coordination Sequence:
#
# PCOD8270636 Si02
#       6
#    16  16  16  16  16  16
#     4   9  19  36  55  74  99 131 164 201 249 301
#     4  10  21  36  53  73  99 131 166 206 251 297
#     4   8  15  30  51  73  98 129 164 200 239 286
#     4   9  18  33  53  76 102 133 167 202 243 293
#     4   9  18  32  50  72  99 130 163 201 243 288
#     4  10  20  33  51  75 102 133 168 206 247 291
#
# _framework density 17.809094999999999
#
# number of rings (size 3 to 8) (size 9 to 14) (size 15 to 20)
#    0.000    2.833    0.000    2.500    0.000    4.667 
#    0.000    6.667    0.000    1.500    0.000    0.000 
#    0.000    0.000    0.000    0.000    0.000    0.000 
#
# Total GULP energy -595220.192961 kJ/mol
# GULP energy per Si atom -12400.420687 kJ/mol
# Density = 1.776856 g / cm^3
# Si number density = 17.809095 Si / 1000 Ang^3
#
#
#
# Elastic Constant Matrix: (Units=GPa)
#
#
# Indices 1 2 3 4 5 6 
#
# 1 121.3622 56.0675 74.9617 0.0000 0.0000 0.0000
# 2 56.0675 68.2705 46.4905 0.0000 0.0000 0.0000
# 3 74.9617 46.4905 84.6005 0.0000 0.0000 0.0000
# 4 0.0000 0.0000 0.0000 21.5666 0.0000 0.0000
# 5 0.0000 0.0000 0.0000 0.0000 34.2754 0.0000
# 6 0.0000 0.0000 0.0000 0.0000 0.0000 34.7570
#
#
#
# Elastic Compliance Matrix: (Units=1/GPa)
#
#
# Indices 1 2 3 4 5 6 
#
# 1 0.020095 -0.006996 -0.013961 0.000000 0.000000 0.000000
# 2 -0.006996 0.025843 -0.008002 0.000000 0.000000 0.000000
# 3 -0.013961 -0.008002 0.028588 0.000000 0.000000 0.000000
# 4 0.000000 0.000000 0.000000 0.046368 0.000000 0.000000
# 5 0.000000 0.000000 0.000000 0.000000 0.029175 0.000000
# 6 0.000000 0.000000 0.000000 0.000000 0.000000 0.028771
#
#
# Mechanical properties :
#
#
# Convention : Reuss Voigt Hill
#
# Bulk Modulus (GPa) = 60.21545 69.91919 65.06732
# Shear Modulus (GPa) = 20.63593 24.56736 22.60164
#
# Velocity S-wave (km/s) = 3.40771 3.71817 3.56632
# Velocity P-wave (km/s) = 7.02626 7.60123 7.31939
#
# Compressibility (1/GPa) = 0.01660703
#
# Stress axis : x y z
#
# Youngs Moduli (GPa) = 49.76272 38.69585 34.97929
#
# Poissons Ratio (x) = 0.27072 0.48835
# Poissons Ratio (y) = 0.34815 0.27991
# Poissons Ratio (z) = 0.69475 0.30965
#
# Static dielectric constant tensor:
#      x y z
#    x 3.474100 0.000000 0.000000 
#    y 0.000000 3.111380 0.000000 
#    z 0.000000 0.000000 3.324760 
# 
# 
# High freq. dielectric constant tensor:
#      x y z
#    x 1.695340 0.000000 0.000000 
#    y 0.000000 1.673960 0.000000 
#    z 0.000000 0.000000 1.688250 
# 
# From -- ./inp_files/73104.got.cif
#   From: 2010.03.12/outbox.cif.g09.slc.cpg/sg65_37_cif.got.tgz:73104.got - 2010.04.10 20:52:16.
