data_PCOD8270908
_publ_section_title
;
Structure prediction by ZEFSAII (Michael W. Deem and Ramdas Pophale) SiO2 
 PCOD8270908
Probable space group: C M M M
;
_chemical_formula_sum "Si O2"
_cell_formula_units_Z 104
_cell_length_a 27.868535
_cell_length_b 8.093872
_cell_length_c 28.395988
_cell_angle_alpha 90.000000
_cell_angle_beta 90.000000
_cell_angle_gamma 90.000000
_cell_volume 6405.122721
_symmetry_space_group_name_H-M "C M M M"
_symmetry_group_IT_number 65
_symmetry_cell_setting 'orthorhombic'
loop_
_space_group_symop_operation_xyz
x,y,z
-x,-y,z
x,-y,-z
-x,y,-z
-x,-y,-z
x,y,-z
-x,y,z
x,-y,z
1/2+x,1/2+y,z
1/2-x,1/2-y,z
1/2+x,1/2-y,-z
1/2-x,1/2+y,-z
1/2-x,1/2-y,-z
1/2+x,1/2+y,-z
1/2-x,1/2+y,z
1/2+x,1/2-y,z
loop_
_atom_site_type_symbol
_atom_site_label
_atom_site_fract_x
_atom_site_fract_y
_atom_site_fract_z
Si Si1 0.442863 0.185335 0.888580
Si Si2 0.557182 0.500000 0.053422
Si Si3 0.303167 0.307598 0.641170
Si Si4 0.446317 0.195778 0.603758
Si Si5 0.390211 0.195327 0.695094
Si Si6 0.446744 0.805598 0.783469
Si Si7 0.857833 0.194115 0.551588
O O1 0.500000 0.180541 0.889995
O O2 0.422981 0.331153 0.922370
O O3 0.426172 0.231195 0.835609
O O4 0.424039 0.000000 0.903109
O O5 0.500000 0.500000 0.055959
O O6 0.575789 0.500000 0.000000
O O7 0.303190 0.500000 0.633970
O O8 0.250000 0.250000 0.652369
O O9 0.336607 0.261066 0.685457
O O10 0.323969 0.226423 0.592515
O O11 0.500000 0.266336 0.597700
O O12 0.425630 0.256904 0.653870
O O13 0.413381 0.265929 0.562087
O O14 0.446399 0.000000 0.601403
O O15 0.410362 0.268372 0.744443
O O16 0.387788 0.000000 0.697078
O O17 0.500000 0.727006 0.777286
O O18 0.451436 0.000000 0.775880
O O19 0.844477 0.268269 0.500000
O O20 0.850625 0.000000 0.550397
#
# Coordination Sequence:
#
# PCOD8270908 Si02
#       7
#    16   8  16  16  16  16  16
#     4   8  14  24  36  52  76 107 145 188 227 260
#     4   9  16  24  34  50  74 108 152 196 231 261
#     4  10  20  34  49  64  82 102 129 167 206 250
#     4   9  17  28  43  64  88 111 135 165 199 238
#     4   9  16  28  46  65  84 108 137 167 203 250
#     4   8  13  23  41  62  84 111 141 174 210 250
#     4   9  19  34  48  62  81 105 133 165 203 247
#
# _framework density 16.237003000000001
#
# number of rings (size 3 to 8) (size 9 to 14) (size 15 to 20)
#    0.000    3.154    0.000    1.846    0.000    4.000 
#    1.385    3.077    0.000    0.923    0.000    0.000 
#    0.000    0.000    0.000    0.000    0.000    0.769 
#
# Total GULP energy -644378.477084 kJ/mol
# GULP energy per Si atom -12391.893790 kJ/mol
# Density = 1.620005 g / cm^3
# Si number density = 16.237003 Si / 1000 Ang^3
#
#
#
# Elastic Constant Matrix: (Units=GPa)
#
#
# Indices 1 2 3 4 5 6 
#
# 1 84.7324 14.7788 41.9968 0.0000 0.0000 0.0000
# 2 14.7788 43.1498 41.4420 0.0000 0.0000 0.0000
# 3 41.9968 41.4420 121.2875 0.0000 0.0000 0.0000
# 4 0.0000 0.0000 0.0000 20.8773 0.0000 0.0000
# 5 0.0000 0.0000 0.0000 0.0000 10.9308 0.0000
# 6 0.0000 0.0000 0.0000 0.0000 0.0000 15.5438
#
#
#
# Elastic Compliance Matrix: (Units=1/GPa)
#
#
# Indices 1 2 3 4 5 6 
#
# 1 0.014248 -0.000211 -0.004861 0.000000 0.000000 0.000000
# 2 -0.000211 0.034498 -0.011714 0.000000 0.000000 0.000000
# 3 -0.004861 -0.011714 0.013931 0.000000 0.000000 0.000000
# 4 0.000000 0.000000 0.000000 0.047899 0.000000 0.000000
# 5 0.000000 0.000000 0.000000 0.000000 0.091484 0.000000
# 6 0.000000 0.000000 0.000000 0.000000 0.000000 0.064334
#
#
# Mechanical properties :
#
#
# Convention : Reuss Voigt Hill
#
# Bulk Modulus (GPa) = 34.36020 49.51167 41.93593
# Shear Modulus (GPa) = 16.14623 19.53384 17.84004
#
# Velocity S-wave (km/s) = 3.15685 3.47226 3.31830
# Velocity P-wave (km/s) = 5.87326 6.82896 6.36906
#
# Compressibility (1/GPa) = 0.02910344
#
# Stress axis : x y z
#
# Youngs Moduli (GPa) = 70.18425 28.98713 71.78317
#
# Poissons Ratio (x) = 0.00611 0.34897
# Poissons Ratio (y) = 0.01480 0.84090
# Poissons Ratio (z) = 0.34120 0.33957
#
# Static dielectric constant tensor:
#      x y z
#    x 2.780100 0.000000 0.000000 
#    y 0.000000 3.016440 0.000000 
#    z 0.000000 0.000000 3.283540 
# 
# 
# High freq. dielectric constant tensor:
#      x y z
#    x 1.577330 0.000000 0.000000 
#    y 0.000000 1.617460 0.000000 
#    z 0.000000 0.000000 1.614460 
# 
# From -- ./inp_files/76007.got.cif
#   From: 2010.03.12/outbox.cif.g09.slc.cpg/sg65_39_cif.got.tgz:76007.got - 2010.04.10 20:52:16.
