data_PCOD8270386
_publ_section_title
;
Structure prediction by ZEFSAII (Michael W. Deem and Ramdas Pophale) SiO2 
 PCOD8270386
Probable space group: C M M M
;
_chemical_formula_sum "Si O2"
_cell_formula_units_Z 80
_cell_length_a 19.882446
_cell_length_b 25.878350
_cell_length_c 8.883318
_cell_angle_alpha 90.000000
_cell_angle_beta 90.000000
_cell_angle_gamma 90.000000
_cell_volume 4570.688274
_symmetry_space_group_name_H-M "C M M M"
_symmetry_group_IT_number 65
_symmetry_cell_setting 'orthorhombic'
loop_
_space_group_symop_operation_xyz
x,y,z
-x,-y,z
x,-y,-z
-x,y,-z
-x,-y,-z
x,y,-z
-x,y,z
x,-y,z
1/2+x,1/2+y,z
1/2-x,1/2-y,z
1/2+x,1/2-y,-z
1/2-x,1/2+y,-z
1/2-x,1/2-y,-z
1/2+x,1/2+y,-z
1/2-x,1/2+y,z
1/2+x,1/2-y,z
loop_
_atom_site_type_symbol
_atom_site_label
_atom_site_fract_x
_atom_site_fract_y
_atom_site_fract_z
Si Si1 0.420147 0.500000 0.829915
Si Si2 0.075387 0.389496 0.180820
Si Si3 0.677650 0.805961 0.821658
Si Si4 0.579585 0.000000 0.836035
Si Si5 0.422342 0.395317 0.677117
Si Si6 0.170937 0.810251 0.178041
O O1 0.500000 0.500000 0.823640
O O2 0.393512 0.448347 0.748299
O O3 0.392794 0.500000 0.000000
O O4 0.125046 0.346502 0.248673
O O5 0.098965 0.445948 0.246203
O O6 0.000000 0.376009 0.235016
O O7 0.077794 0.391376 0.000000
O O8 0.752550 0.822442 0.771760
O O9 0.656602 0.748576 0.769479
O O10 0.674998 0.806766 0.000000
O O11 0.500000 0.000000 0.858140
O O12 0.614577 0.000000 0.000000
O O13 0.414207 0.400001 0.500000
O O14 0.500000 0.386499 0.723507
O O15 0.380010 0.347183 0.736201
O O16 0.160843 0.817358 0.000000
#
# Coordination Sequence:
#
# PCOD8270386 Si02
#       6
#     8  16  16   8  16  16
#     4   9  17  31  52  75  96 120 152 189 232 283
#     4   8  12  19  33  53  77 107 143 181 224 274
#     4   8  15  27  41  59  87 121 154 192 236 277
#     4   7  10  16  27  46  73 103 134 169 208 252
#     4  10  20  33  49  70  96 124 155 194 238 283
#     4   9  17  30  46  64  90 122 155 193 234 274
#
# _framework density 17.502834
#
# number of rings (size 3 to 8) (size 9 to 14) (size 15 to 20)
#    0.000    3.400    0.000    3.300    0.000    3.200 
#    0.000    5.000    0.000    3.600    0.000    0.000 
#    0.000    0.000    0.000    0.000    0.000   19.400 
#
# Total GULP energy -495593.810639 kJ/mol
# GULP energy per Si atom -12389.845266 kJ/mol
# Density = 1.746300 g / cm^3
# Si number density = 17.502834 Si / 1000 Ang^3
#
#
#
# Elastic Constant Matrix: (Units=GPa)
#
#
# Indices 1 2 3 4 5 6 
#
# 1 92.7288 92.8203 25.0625 0.0000 0.0000 0.0000
# 2 92.8203 174.6595 35.7721 0.0000 0.0000 0.0000
# 3 25.0625 35.7721 42.3862 0.0000 0.0000 0.0000
# 4 0.0000 0.0000 0.0000 12.8939 0.0000 0.0000
# 5 0.0000 0.0000 0.0000 0.0000 13.3753 0.0000
# 6 0.0000 0.0000 0.0000 0.0000 0.0000 10.8624
#
#
#
# Elastic Compliance Matrix: (Units=1/GPa)
#
#
# Indices 1 2 3 4 5 6 
#
# 1 0.023609 -0.011712 -0.004075 0.000000 0.000000 0.000000
# 2 -0.011712 0.012732 -0.003820 0.000000 0.000000 0.000000
# 3 -0.004075 -0.003820 0.029226 0.000000 0.000000 0.000000
# 4 0.000000 0.000000 0.000000 0.077556 0.000000 0.000000
# 5 0.000000 0.000000 0.000000 0.000000 0.074765 0.000000
# 6 0.000000 0.000000 0.000000 0.000000 0.000000 0.092061
#
#
# Mechanical properties :
#
#
# Convention : Reuss Voigt Hill
#
# Bulk Modulus (GPa) = 37.94710 68.56494 53.25602
# Shear Modulus (GPa) = 13.96847 17.83427 15.90137
#
# Velocity S-wave (km/s) = 2.82808 3.19554 3.01741
# Velocity P-wave (km/s) = 5.69136 7.27145 6.52938
#
# Compressibility (1/GPa) = 0.02635247
#
# Stress axis : x y z
#
# Youngs Moduli (GPa) = 42.35604 78.54170 34.21581
#
# Poissons Ratio (x) = 0.91990 0.13944
# Poissons Ratio (y) = 0.49608 0.13071
# Poissons Ratio (z) = 0.17262 0.30003
#
# Static dielectric constant tensor:
#      x y z
#    x 3.245640 0.000000 0.000000 
#    y 0.000000 3.805120 0.000000 
#    z 0.000000 0.000000 2.740520 
# 
# 
# High freq. dielectric constant tensor:
#      x y z
#    x 1.654110 0.000000 0.000000 
#    y 0.000000 1.695960 0.000000 
#    z 0.000000 0.000000 1.623120 
# 
# From -- ./inp_files/12115.got.cif
#   From: 2010.03.12/outbox.cif.g09.slc.cpg/sg65_7_cif.got.tgz:12115.got - 2010.04.10 20:52:16.
