data_PCOD8270086
_publ_section_title
;
Structure prediction by ZEFSAII (Michael W. Deem and Ramdas Pophale) SiO2 
 PCOD8270086
Probable space group: C M M M
;
_chemical_formula_sum "Si O2"
_cell_formula_units_Z 104
_cell_length_a 22.475859
_cell_length_b 15.650918
_cell_length_c 17.829110
_cell_angle_alpha 90.000000
_cell_angle_beta 90.000000
_cell_angle_gamma 90.000000
_cell_volume 6271.707268
_symmetry_space_group_name_H-M "C M M M"
_symmetry_group_IT_number 65
_symmetry_cell_setting 'orthorhombic'
loop_
_space_group_symop_operation_xyz
x,y,z
-x,-y,z
x,-y,-z
-x,y,-z
-x,-y,-z
x,y,-z
-x,y,z
x,-y,z
1/2+x,1/2+y,z
1/2-x,1/2-y,z
1/2+x,1/2-y,-z
1/2-x,1/2+y,-z
1/2-x,1/2-y,-z
1/2+x,1/2+y,-z
1/2-x,1/2+y,z
1/2+x,1/2-y,z
loop_
_atom_site_type_symbol
_atom_site_label
_atom_site_fract_x
_atom_site_fract_y
_atom_site_fract_z
Si Si1 0.429563 0.904581 0.083794
Si Si2 0.000000 0.402671 0.419906
Si Si3 0.069754 0.270171 0.207015
Si Si4 0.617383 0.167598 0.643587
Si Si5 0.638926 0.345175 0.585151
Si Si6 0.766561 0.596697 0.415511
Si Si7 0.931672 0.094579 0.726846
O O1 0.500000 0.904371 0.081251
O O2 0.408600 0.823017 0.133690
O O3 0.408931 0.000000 0.112927
O O4 0.404028 0.889927 0.000000
O O5 0.941033 0.385818 0.373204
O O6 0.000000 0.500000 0.439546
O O7 0.000000 0.352650 0.500000
O O8 0.112492 0.304515 0.271107
O O9 0.081837 0.166783 0.208773
O O10 0.000000 0.288154 0.222464
O O11 0.618784 0.247348 0.587260
O O12 0.677764 0.113647 0.638298
O O13 0.627464 0.380897 0.500000
O O14 0.709349 0.345992 0.604064
O O15 0.604410 0.397336 0.649058
O O16 0.788662 0.614475 0.500000
O O17 0.745051 0.500000 0.405118
O O18 0.000000 0.103755 0.702383
O O19 0.918608 0.000000 0.760927
#
# Coordination Sequence:
#
# PCOD8270086 Si02
#       7
#    16   8  16  16  16  16  16
#     4   8  14  25  43  67  93 121 150 179 216 269
#     4  11  22  32  42  60  88 122 156 189 228 278
#     4   9  17  30  44  65  93 122 153 184 228 279
#     4  11  20  32  45  64  88 120 156 192 234 281
#     4  10  20  32  48  64  84 115 158 205 247 284
#     4  10  20  33  46  61  84 116 155 199 244 284
#     4   9  18  31  46  65  90 119 153 196 245 288
#
# _framework density 16.582405999999999
#
# number of rings (size 3 to 8) (size 9 to 14) (size 15 to 20)
#    0.000    2.385    0.769    3.231    1.077    4.923 
#    0.000    0.769    0.000    0.462    0.000    3.231 
#    0.000    9.846    0.000    3.077    0.000    0.923 
#
# Total GULP energy -644184.970626 kJ/mol
# GULP energy per Si atom -12388.172512 kJ/mol
# Density = 1.654466 g / cm^3
# Si number density = 16.582406 Si / 1000 Ang^3
#
#
#
# Elastic Constant Matrix: (Units=GPa)
#
#
# Indices 1 2 3 4 5 6 
#
# 1 64.0225 29.8622 24.3504 0.0000 0.0000 0.0000
# 2 29.8622 108.4260 57.6336 0.0000 0.0000 0.0000
# 3 24.3504 57.6336 77.4528 0.0000 0.0000 0.0000
# 4 0.0000 0.0000 0.0000 22.9048 0.0000 0.0000
# 5 0.0000 0.0000 0.0000 0.0000 9.4616 0.0000
# 6 0.0000 0.0000 0.0000 0.0000 0.0000 17.4203
#
#
#
# Elastic Compliance Matrix: (Units=1/GPa)
#
#
# Indices 1 2 3 4 5 6 
#
# 1 0.018429 -0.003302 -0.003337 0.000000 0.000000 0.000000
# 2 -0.003302 0.015849 -0.010756 0.000000 0.000000 0.000000
# 3 -0.003337 -0.010756 0.021964 0.000000 0.000000 0.000000
# 4 0.000000 0.000000 0.000000 0.043659 0.000000 0.000000
# 5 0.000000 0.000000 0.000000 0.000000 0.105690 0.000000
# 6 0.000000 0.000000 0.000000 0.000000 0.000000 0.057404
#
#
# Mechanical properties :
#
#
# Convention : Reuss Voigt Hill
#
# Bulk Modulus (GPa) = 46.61361 52.62153 49.61757
# Shear Modulus (GPa) = 16.39692 19.16101 17.77897
#
# Velocity S-wave (km/s) = 3.14795 3.40296 3.27794
# Velocity P-wave (km/s) = 6.43305 6.87331 6.65682
#
# Compressibility (1/GPa) = 0.02145296
#
# Stress axis : x y z
#
# Youngs Moduli (GPa) = 54.26306 63.09375 45.52989
#
# Poissons Ratio (x) = 0.20833 0.15193
# Poissons Ratio (y) = 0.17917 0.48971
# Poissons Ratio (z) = 0.18107 0.67862
#
# Static dielectric constant tensor:
#      x y z
#    x 2.902590 0.000000 0.000000 
#    y 0.000000 3.408050 0.000000 
#    z 0.000000 0.000000 2.996780 
# 
# 
# High freq. dielectric constant tensor:
#      x y z
#    x 1.615600 0.000000 0.000000 
#    y 0.000000 1.652430 0.000000 
#    z 0.000000 0.000000 1.600090 
# 
# From -- ./inp_files/56814.got.cif
#   From: 2010.03.12/outbox.cif.g09.slc.cpg/sg65_29_cif.got.tgz:56814.got - 2010.04.10 20:52:16.
