data_PCOD8270091
_publ_section_title
;
Structure prediction by ZEFSAII (Michael W. Deem and Ramdas Pophale) SiO2 
 PCOD8270091
Probable space group: C M M M
;
_chemical_formula_sum "Si O2"
_cell_formula_units_Z 96
_cell_length_a 8.244353
_cell_length_b 27.442195
_cell_length_c 25.185026
_cell_angle_alpha 90.000000
_cell_angle_beta 90.000000
_cell_angle_gamma 90.000000
_cell_volume 5697.939431
_symmetry_space_group_name_H-M "C M M M"
_symmetry_group_IT_number 65
_symmetry_cell_setting 'orthorhombic'
loop_
_space_group_symop_operation_xyz
x,y,z
-x,-y,z
x,-y,-z
-x,y,-z
-x,-y,-z
x,y,-z
-x,y,z
x,-y,z
1/2+x,1/2+y,z
1/2-x,1/2-y,z
1/2+x,1/2-y,-z
1/2-x,1/2+y,-z
1/2-x,1/2-y,-z
1/2+x,1/2+y,-z
1/2-x,1/2+y,z
1/2+x,1/2-y,z
loop_
_atom_site_type_symbol
_atom_site_label
_atom_site_fract_x
_atom_site_fract_y
_atom_site_fract_z
Si Si1 0.188018 0.695486 0.000000
Si Si2 0.689046 0.106688 0.737165
Si Si3 0.500000 0.442244 0.559544
Si Si4 0.188185 0.197084 0.789171
Si Si5 0.186506 0.442451 0.373726
Si Si6 0.809782 0.853354 0.105793
Si Si7 0.192316 0.445574 0.157569
O O1 0.250000 0.750000 0.000000
O O2 0.240829 0.666224 0.948597
O O3 0.000000 0.699576 0.000000
O O4 0.500000 0.114913 0.743291
O O5 0.771592 0.159759 0.741555
O O6 0.732787 0.082750 0.681383
O O7 0.753275 0.071781 0.784297
O O8 0.500000 0.500000 0.558869
O O9 0.500000 0.420917 0.500000
O O10 0.670387 0.424707 0.586384
O O11 0.250000 0.250000 0.773312
O O12 0.265577 0.177359 0.844628
O O13 0.000000 0.200697 0.797618
O O14 0.194873 0.500000 0.365248
O O15 0.000000 0.428536 0.392157
O O16 0.763232 0.910094 0.112431
O O17 0.000000 0.847436 0.104238
O O18 0.259278 0.500000 0.147482
O O19 0.000000 0.444934 0.154631
#
# Coordination Sequence:
#
# PCOD8270091 Si02
#       7
#     8  16   8  16  16  16  16
#     4  12  24  38  57  76  93 118 154 199 243 291
#     4   9  17  29  47  70  97 129 162 200 239 287
#     4   9  18  30  44  66  98 136 174 211 249 287
#     4  10  20  32  48  69  96 128 156 190 239 295
#     4   9  17  29  46  69  98 134 171 207 247 289
#     4  10  21  36  52  73  98 124 158 196 240 285
#     4   9  17  31  51  73  99 130 162 195 237 290
#
# _framework density 16.848196000000002
#
# number of rings (size 3 to 8) (size 9 to 14) (size 15 to 20)
#    0.000    2.417    0.000    2.750    1.167    6.000 
#    0.000    2.083    0.000    2.500    0.000    0.000 
#    0.000    0.667    0.333    0.000    0.000    0.000 
#
# Total GULP energy -594984.916211 kJ/mol
# GULP energy per Si atom -12395.519088 kJ/mol
# Density = 1.680985 g / cm^3
# Si number density = 16.848196 Si / 1000 Ang^3
#
#
#
# Elastic Constant Matrix: (Units=GPa)
#
#
# Indices 1 2 3 4 5 6 
#
# 1 73.1780 48.3604 52.0004 0.0000 0.0000 0.0000
# 2 48.3604 99.0814 51.8335 0.0000 0.0000 0.0000
# 3 52.0004 51.8335 110.8274 0.0000 0.0000 0.0000
# 4 0.0000 0.0000 0.0000 23.2378 0.0000 0.0000
# 5 0.0000 0.0000 0.0000 0.0000 26.5406 0.0000
# 6 0.0000 0.0000 0.0000 0.0000 0.0000 25.1571
#
#
#
# Elastic Compliance Matrix: (Units=1/GPa)
#
#
# Indices 1 2 3 4 5 6 
#
# 1 0.024356 -0.007824 -0.007769 0.000000 0.000000 0.000000
# 2 -0.007824 0.015875 -0.003754 0.000000 0.000000 0.000000
# 3 -0.007769 -0.003754 0.014424 0.000000 0.000000 0.000000
# 4 0.000000 0.000000 0.000000 0.043033 0.000000 0.000000
# 5 0.000000 0.000000 0.000000 0.000000 0.037678 0.000000
# 6 0.000000 0.000000 0.000000 0.000000 0.000000 0.039750
#
#
# Mechanical properties :
#
#
# Convention : Reuss Voigt Hill
#
# Bulk Modulus (GPa) = 62.64730 65.27505 63.96117
# Shear Modulus (GPa) = 22.81744 23.71328 23.26536
#
# Velocity S-wave (km/s) = 3.68407 3.75569 3.72005
# Velocity P-wave (km/s) = 7.44047 7.59171 7.51647
#
# Compressibility (1/GPa) = 0.01596238
#
# Stress axis : x y z
#
# Youngs Moduli (GPa) = 41.05709 62.99136 69.32964
#
# Poissons Ratio (x) = 0.49283 0.53861
# Poissons Ratio (y) = 0.32122 0.26025
# Poissons Ratio (z) = 0.31897 0.23646
#
# Static dielectric constant tensor:
#      x y z
#    x 3.299820 0.000000 0.000000 
#    y 0.000000 3.081850 0.000000 
#    z 0.000000 0.000000 3.131860 
# 
# 
# High freq. dielectric constant tensor:
#      x y z
#    x 1.660600 0.000000 0.000000 
#    y 0.000000 1.636430 0.000000 
#    z 0.000000 0.000000 1.626760 
# 
# From -- ./inp_files/68105.got.cif
#   From: 2010.03.12/outbox.cif.g09.slc.cpg/sg65_35_cif.got.tgz:68105.got - 2010.04.10 20:52:16.
