data_PCOD8270613
_publ_section_title
;
Structure prediction by ZEFSAII (Michael W. Deem and Ramdas Pophale) SiO2 
 PCOD8270613
Probable space group: C M M M
;
_chemical_formula_sum "Si O2"
_cell_formula_units_Z 88
_cell_length_a 18.095771
_cell_length_b 9.312762
_cell_length_c 28.561542
_cell_angle_alpha 90.000000
_cell_angle_beta 90.000000
_cell_angle_gamma 90.000000
_cell_volume 4813.237000
_symmetry_space_group_name_H-M "C M M M"
_symmetry_group_IT_number 65
_symmetry_cell_setting 'orthorhombic'
loop_
_space_group_symop_operation_xyz
x,y,z
-x,-y,z
x,-y,-z
-x,y,-z
-x,-y,-z
x,y,-z
-x,y,z
x,-y,z
1/2+x,1/2+y,z
1/2-x,1/2-y,z
1/2+x,1/2-y,-z
1/2-x,1/2+y,-z
1/2-x,1/2-y,-z
1/2+x,1/2+y,-z
1/2-x,1/2+y,z
1/2+x,1/2-y,z
loop_
_atom_site_type_symbol
_atom_site_label
_atom_site_fract_x
_atom_site_fract_y
_atom_site_fract_z
Si Si1 0.082631 0.829515 0.000000
Si Si2 0.912010 0.337746 0.727748
Si Si3 0.411737 0.338135 0.361025
Si Si4 0.826612 0.830905 0.089564
Si Si5 0.087883 0.661282 0.551757
Si Si6 0.414424 0.334099 0.182307
O O1 0.125123 0.775017 0.954013
O O2 0.000000 0.764282 0.000000
O O3 0.077862 0.000000 0.000000
O O4 0.881344 0.500000 0.726613
O O5 0.880966 0.252341 0.682876
O O6 0.883829 0.260292 0.774756
O O7 0.000000 0.336566 0.726585
O O8 0.500000 0.337076 0.360985
O O9 0.381480 0.500000 0.357533
O O10 0.380255 0.267914 0.408822
O O11 0.750000 0.750000 0.088811
O O12 0.869494 0.789342 0.136596
O O13 0.812142 0.000000 0.086140
O O14 0.114409 0.711661 0.500000
O O15 0.116299 0.500000 0.562001
O O16 0.000000 0.662281 0.553658
O O17 0.500000 0.301915 0.172013
O O18 0.402749 0.500000 0.195586
#
# Coordination Sequence:
#
# PCOD8270613 Si02
#       6
#     8  16  16  16  16  16
#     4   9  17  32  55  79 100 127 166 202 230 267
#     4   9  16  25  38  56  77 102 134 176 226 274
#     4   9  15  21  30  45  66  93 127 170 218 267
#     4  10  20  33  51  74 100 129 158 192 233 277
#     4   8  13  20  28  38  56  86 125 169 216 265
#     4   9  17  30  47  66  88 116 153 193 230 270
#
# _framework density 18.282913000000001
#
# number of rings (size 3 to 8) (size 9 to 14) (size 15 to 20)
#    0.000    3.000    0.000    2.455    0.000    7.636 
#    0.000    1.818    0.000    2.182    0.000    0.000 
#    0.000    0.000    0.000    0.000    0.000    0.909 
#
# Total GULP energy -545494.978521 kJ/mol
# GULP energy per Si atom -12397.613148 kJ/mol
# Density = 1.824130 g / cm^3
# Si number density = 18.282913 Si / 1000 Ang^3
#
#
#
# Elastic Constant Matrix: (Units=GPa)
#
#
# Indices 1 2 3 4 5 6 
#
# 1 53.2157 31.7871 47.8463 0.0000 0.0000 0.0000
# 2 31.7871 113.8748 96.2474 0.0000 0.0000 0.0000
# 3 47.8463 96.2474 201.2455 0.0000 0.0000 0.0000
# 4 0.0000 0.0000 0.0000 29.9074 0.0000 0.0000
# 5 0.0000 0.0000 0.0000 0.0000 0.5511 0.0000
# 6 0.0000 0.0000 0.0000 0.0000 0.0000 15.8408
#
#
#
# Elastic Compliance Matrix: (Units=1/GPa)
#
#
# Indices 1 2 3 4 5 6 
#
# 1 0.024587 -0.003227 -0.004302 0.000000 0.000000 0.000000
# 2 -0.003227 0.015163 -0.006485 0.000000 0.000000 0.000000
# 3 -0.004302 -0.006485 0.009093 0.000000 0.000000 0.000000
# 4 0.000000 0.000000 0.000000 0.033436 0.000000 0.000000
# 5 0.000000 0.000000 0.000000 0.000000 1.814421 0.000000
# 6 0.000000 0.000000 0.000000 0.000000 0.000000 0.063128
#
#
# Mechanical properties :
#
#
# Convention : Reuss Voigt Hill
#
# Bulk Modulus (GPa) = 48.04049 80.01083 64.02566
# Shear Modulus (GPa) = 2.50652 22.09022 12.29837
#
# Velocity S-wave (km/s) = 1.17215 3.47975 2.59640
# Velocity P-wave (km/s) = 5.30708 7.74613 6.63957
#
# Compressibility (1/GPa) = 0.02081578
#
# Stress axis : x y z
#
# Youngs Moduli (GPa) = 40.67152 65.94880 109.97082
#
# Poissons Ratio (x) = 0.21281 0.47313
# Poissons Ratio (y) = 0.13125 0.71313
# Poissons Ratio (z) = 0.17498 0.42766
#
# Static dielectric constant tensor:
#      x y z
#    x 2.765740 0.000000 0.000000 
#    y 0.000000 3.392060 0.000000 
#    z 0.000000 0.000000 3.703290 
# 
# 
# High freq. dielectric constant tensor:
#      x y z
#    x 1.641840 0.000000 0.000000 
#    y 0.000000 1.701290 0.000000 
#    z 0.000000 0.000000 1.730070 
# 
# From -- ./inp_files/76674.got.cif
#   From: 2010.03.12/outbox.cif.g09.slc.cpg/sg65_39_cif.got.tgz:76674.got - 2010.04.10 20:52:16.
