data_PCOD8270782
_publ_section_title
;
Structure prediction by ZEFSAII (Michael W. Deem and Ramdas Pophale) SiO2 
 PCOD8270782
Probable space group: C M M M
;
_chemical_formula_sum "Si O2"
_cell_formula_units_Z 88
_cell_length_a 18.475951
_cell_length_b 8.832336
_cell_length_c 28.302914
_cell_angle_alpha 90.000000
_cell_angle_beta 90.000000
_cell_angle_gamma 90.000000
_cell_volume 4618.633866
_symmetry_space_group_name_H-M "C M M M"
_symmetry_group_IT_number 65
_symmetry_cell_setting 'orthorhombic'
loop_
_space_group_symop_operation_xyz
x,y,z
-x,-y,z
x,-y,-z
-x,y,-z
-x,-y,-z
x,y,-z
-x,y,z
x,-y,z
1/2+x,1/2+y,z
1/2-x,1/2-y,z
1/2+x,1/2-y,-z
1/2-x,1/2+y,-z
1/2-x,1/2-y,-z
1/2+x,1/2+y,-z
1/2-x,1/2+y,z
1/2+x,1/2-y,z
loop_
_atom_site_type_symbol
_atom_site_label
_atom_site_fract_x
_atom_site_fract_y
_atom_site_fract_z
Si Si1 0.418399 0.819783 0.000000
Si Si2 0.327836 0.178817 0.360463
Si Si3 0.416576 0.824319 0.818869
Si Si4 0.581020 0.820104 0.552269
Si Si5 0.671398 0.179192 0.910322
Si Si6 0.915128 0.173677 0.721815
O O1 0.376369 0.759808 0.953894
O O2 0.500000 0.754061 0.000000
O O3 0.421482 0.000000 0.000000
O O4 0.250000 0.250000 0.354992
O O5 0.365070 0.245018 0.408073
O O6 0.375584 0.221671 0.315709
O O7 0.320407 0.000000 0.362994
O O8 0.500000 0.794302 0.832220
O O9 0.367806 0.769231 0.862335
O O10 0.392156 0.726438 0.773953
O O11 0.403887 0.000000 0.807025
O O12 0.607048 0.767384 0.500000
O O13 0.500000 0.758061 0.561982
O O14 0.579535 0.000000 0.554822
O O15 0.750000 0.250000 0.913047
O O16 0.678684 0.000000 0.912709
O O17 0.000000 0.197031 0.714357
O O18 0.891708 0.000000 0.715033
#
# Coordination Sequence:
#
# PCOD8270782 Si02
#       6
#     8  16  16  16  16  16
#     4   9  17  32  55  79 102 133 176 218 252 295
#     4  11  22  35  53  78 109 144 179 217 263 313
#     4   9  18  34  55  77 101 134 178 219 255 303
#     4   8  15  30  53  79 104 133 173 217 259 308
#     4  10  20  33  52  78 107 138 170 210 259 309
#     4  10  21  37  57  80 106 137 175 221 269 316
#
# _framework density 19.053252000000001
#
# number of rings (size 3 to 8) (size 9 to 14) (size 15 to 20)
#    0.000    2.455    0.000    3.000    0.000    5.818 
#    0.000    1.818    0.000    3.818    0.000    6.364 
#    0.000    0.000    0.000    0.000    0.000    0.000 
#
# Total GULP energy -545636.474832 kJ/mol
# GULP energy per Si atom -12400.828973 kJ/mol
# Density = 1.900989 g / cm^3
# Si number density = 19.053252 Si / 1000 Ang^3
#
#
#
# Elastic Constant Matrix: (Units=GPa)
#
#
# Indices 1 2 3 4 5 6 
#
# 1 106.1085 29.2679 83.1527 0.0000 0.0000 0.0000
# 2 29.2679 41.3053 34.0343 0.0000 0.0000 0.0000
# 3 83.1527 34.0343 156.0147 0.0000 0.0000 0.0000
# 4 0.0000 0.0000 0.0000 12.4384 0.0000 0.0000
# 5 0.0000 0.0000 0.0000 0.0000 15.3301 0.0000
# 6 0.0000 0.0000 0.0000 0.0000 0.0000 22.4020
#
#
#
# Elastic Compliance Matrix: (Units=1/GPa)
#
#
# Indices 1 2 3 4 5 6 
#
# 1 0.017201 -0.005650 -0.007936 0.000000 0.000000 0.000000
# 2 -0.005650 0.031371 -0.003832 0.000000 0.000000 0.000000
# 3 -0.007936 -0.003832 0.011475 0.000000 0.000000 0.000000
# 4 0.000000 0.000000 0.000000 0.080396 0.000000 0.000000
# 5 0.000000 0.000000 0.000000 0.000000 0.065231 0.000000
# 6 0.000000 0.000000 0.000000 0.000000 0.000000 0.044639
#
#
# Mechanical properties :
#
#
# Convention : Reuss Voigt Hill
#
# Bulk Modulus (GPa) = 39.66327 66.25981 52.96154
# Shear Modulus (GPa) = 17.03268 20.49899 18.76583
#
# Velocity S-wave (km/s) = 2.99315 3.28362 3.14174
# Velocity P-wave (km/s) = 5.72778 7.01625 6.40450
#
# Compressibility (1/GPa) = 0.02521224
#
# Stress axis : x y z
#
# Youngs Moduli (GPa) = 58.13460 31.87665 87.14502
#
# Poissons Ratio (x) = 0.18010 0.69154
# Poissons Ratio (y) = 0.32845 0.33396
# Poissons Ratio (z) = 0.46133 0.12216
#
# Static dielectric constant tensor:
#      x y z
#    x 3.518500 0.000000 0.000000 
#    y 0.000000 3.187630 0.000000 
#    z 0.000000 0.000000 3.764870 
# 
# 
# High freq. dielectric constant tensor:
#      x y z
#    x 1.741950 0.000000 0.000000 
#    y 0.000000 1.710780 0.000000 
#    z 0.000000 0.000000 1.758090 
# 
# From -- ./inp_files/76574.got.cif
#   From: 2010.03.12/outbox.cif.g09.slc.cpg/sg65_39_cif.got.tgz:76574.got - 2010.04.10 20:52:16.
