data_PCOD8270631
_publ_section_title
;
Structure prediction by ZEFSAII (Michael W. Deem and Ramdas Pophale) SiO2 
 PCOD8270631
Probable space group: C M M M
;
_chemical_formula_sum "Si O2"
_cell_formula_units_Z 88
_cell_length_a 18.022672
_cell_length_b 30.579972
_cell_length_c 9.088985
_cell_angle_alpha 90.000000
_cell_angle_beta 90.000000
_cell_angle_gamma 90.000000
_cell_volume 5009.237799
_symmetry_space_group_name_H-M "C M M M"
_symmetry_group_IT_number 65
_symmetry_cell_setting 'orthorhombic'
loop_
_space_group_symop_operation_xyz
x,y,z
-x,-y,z
x,-y,-z
-x,y,-z
-x,-y,-z
x,y,-z
-x,y,z
x,-y,z
1/2+x,1/2+y,z
1/2-x,1/2-y,z
1/2+x,1/2-y,-z
1/2-x,1/2+y,-z
1/2-x,1/2-y,-z
1/2+x,1/2+y,-z
1/2-x,1/2+y,z
1/2+x,1/2-y,z
loop_
_atom_site_type_symbol
_atom_site_label
_atom_site_fract_x
_atom_site_fract_y
_atom_site_fract_z
Si Si1 0.697911 0.614543 0.826820
Si Si2 0.661752 0.915571 0.667182
Si Si3 0.913713 0.049660 0.327566
Si Si4 0.419458 0.000000 0.674692
Si Si5 0.726875 0.797469 0.173731
Si Si6 0.583494 0.172801 0.333101
O O1 0.772181 0.590290 0.780927
O O2 0.629253 0.589438 0.751753
O O3 0.712579 0.665455 0.775744
O O4 0.684892 0.612023 0.000000
O O5 0.692759 0.920386 0.500000
O O6 0.624094 0.958313 0.730348
O O7 0.599085 0.878666 0.672822
O O8 0.899149 0.054515 0.500000
O O9 0.000000 0.056054 0.289850
O O10 0.889335 0.000000 0.278328
O O11 0.500000 0.000000 0.748451
O O12 0.426278 0.000000 0.500000
O O13 0.750000 0.750000 0.232369
O O14 0.644269 0.803423 0.234699
O O15 0.720491 0.799070 0.000000
O O16 0.590603 0.190022 0.500000
O O17 0.500000 0.181679 0.273576
#
# Coordination Sequence:
#
# PCOD8270631 Si02
#       6
#    16  16  16   8  16  16
#     4  10  20  33  51  75 100 128 164 207 251 296
#     4   9  17  29  46  68  96 131 165 198 235 280
#     4   9  19  36  56  76 100 133 171 208 250 307
#     4   9  16  26  43  67  92 123 164 199 225 262
#     4   9  19  36  54  72  98 133 171 208 249 303
#     4   9  17  30  49  73  99 126 161 206 250 290
#
# _framework density 17.567543000000001
#
# number of rings (size 3 to 8) (size 9 to 14) (size 15 to 20)
#    0.000    2.818    0.000    1.636    1.273    4.364 
#    0.000    1.818    0.000    7.636    0.000    0.000 
#    0.000    0.000    0.000    0.000    0.000    0.000 
#
# Total GULP energy -545178.232072 kJ/mol
# GULP energy per Si atom -12390.414365 kJ/mol
# Density = 1.752756 g / cm^3
# Si number density = 17.567543 Si / 1000 Ang^3
#
#
#
# Elastic Constant Matrix: (Units=GPa)
#
#
# Indices 1 2 3 4 5 6 
#
# 1 108.0037 74.5084 33.3151 0.0000 0.0000 0.0000
# 2 74.5084 146.7999 37.0386 0.0000 0.0000 0.0000
# 3 33.3151 37.0386 33.3465 0.0000 0.0000 0.0000
# 4 0.0000 0.0000 0.0000 23.0477 0.0000 0.0000
# 5 0.0000 0.0000 0.0000 0.0000 8.2357 0.0000
# 6 0.0000 0.0000 0.0000 0.0000 0.0000 16.9598
#
#
#
# Elastic Compliance Matrix: (Units=1/GPa)
#
#
# Indices 1 2 3 4 5 6 
#
# 1 0.016285 -0.005780 -0.009849 0.000000 0.000000 0.000000
# 2 -0.005780 0.011516 -0.007016 0.000000 0.000000 0.000000
# 3 -0.009849 -0.007016 0.047621 0.000000 0.000000 0.000000
# 4 0.000000 0.000000 0.000000 0.043388 0.000000 0.000000
# 5 0.000000 0.000000 0.000000 0.000000 0.121423 0.000000
# 6 0.000000 0.000000 0.000000 0.000000 0.000000 0.058963
#
#
# Mechanical properties :
#
#
# Convention : Reuss Voigt Hill
#
# Bulk Modulus (GPa) = 33.18892 64.20826 48.69859
# Shear Modulus (GPa) = 14.10317 19.20117 16.65217
#
# Velocity S-wave (km/s) = 2.83644 3.30963 3.08213
# Velocity P-wave (km/s) = 5.44613 7.15776 6.35979
#
# Compressibility (1/GPa) = 0.03013054
#
# Stress axis : x y z
#
# Youngs Moduli (GPa) = 61.40748 86.83536 20.99917
#
# Poissons Ratio (x) = 0.50194 0.20682
# Poissons Ratio (y) = 0.35496 0.14733
# Poissons Ratio (z) = 0.60480 0.60926
#
# Static dielectric constant tensor:
#      x y z
#    x 3.223610 0.000000 0.000000 
#    y 0.000000 3.494370 0.000000 
#    z 0.000000 0.000000 3.075710 
# 
# 
# High freq. dielectric constant tensor:
#      x y z
#    x 1.676840 0.000000 0.000000 
#    y 0.000000 1.678960 0.000000 
#    z 0.000000 0.000000 1.661720 
# 
# From -- ./inp_files/10026.got.cif
#   From: 2010.03.12/outbox.cif.g09.slc.cpg/sg65_6_cif.got.tgz:10026.got - 2010.04.10 20:52:16.
