data_PCOD8270831
_publ_section_title
;
Structure prediction by ZEFSAII (Michael W. Deem and Ramdas Pophale) SiO2 
 PCOD8270831
Probable space group: C M M M
;
_chemical_formula_sum "Si O2"
_cell_formula_units_Z 72
_cell_length_a 16.893078
_cell_length_b 24.858633
_cell_length_c 8.846094
_cell_angle_alpha 90.000000
_cell_angle_beta 90.000000
_cell_angle_gamma 90.000000
_cell_volume 3714.818331
_symmetry_space_group_name_H-M "C M M M"
_symmetry_group_IT_number 65
_symmetry_cell_setting 'orthorhombic'
loop_
_space_group_symop_operation_xyz
x,y,z
-x,-y,z
x,-y,-z
-x,y,-z
-x,-y,-z
x,y,-z
-x,y,z
x,-y,z
1/2+x,1/2+y,z
1/2-x,1/2-y,z
1/2+x,1/2-y,-z
1/2-x,1/2+y,-z
1/2-x,1/2-y,-z
1/2+x,1/2+y,-z
1/2-x,1/2+y,z
1/2+x,1/2-y,z
loop_
_atom_site_type_symbol
_atom_site_label
_atom_site_fract_x
_atom_site_fract_y
_atom_site_fract_z
Si Si1 0.369226 0.355104 0.321966
Si Si2 0.087859 0.440668 0.179571
Si Si3 0.087891 0.251848 0.172772
Si Si4 0.198110 0.651806 0.820481
Si Si5 0.000000 0.938770 0.679442
O O1 0.357436 0.357173 0.500000
O O2 0.413416 0.300465 0.277474
O O3 0.285048 0.354406 0.242683
O O4 0.421614 0.406253 0.266304
O O5 0.116683 0.500000 0.228852
O O6 0.148056 0.397526 0.248211
O O7 0.000000 0.429601 0.243665
O O8 0.085622 0.435967 0.000000
O O9 0.154683 0.293312 0.231452
O O10 0.000000 0.278357 0.181929
O O11 0.106999 0.235107 0.000000
O O12 0.201477 0.649731 0.000000
O O13 0.000000 0.940987 0.500000
O O14 0.000000 0.000000 0.745697
#
# Coordination Sequence:
#
# PCOD8270831 Si02
#       5
#    16  16  16  16   8
#     4  11  22  37  56  78 104 137 178 224 270 319
#     4   8  14  27  49  76 106 139 175 215 257 305
#     4  10  20  35  56  79 108 144 178 214 263 321
#     4  10  20  33  52  81 112 141 175 216 266 321
#     4   9  20  40  61  77  99 139 186 227 272 326
#
# _framework density 19.381836
#
# number of rings (size 3 to 8) (size 9 to 14) (size 15 to 20)
#    0.000    2.333    1.111    2.667    0.000    7.111 
#    0.000    0.000    0.000    6.667    0.000    1.556 
#    0.000    0.000    0.000    0.000    0.000    0.000 
#
# Total GULP energy -446244.254897 kJ/mol
# GULP energy per Si atom -12395.673747 kJ/mol
# Density = 1.933772 g / cm^3
# Si number density = 19.381836 Si / 1000 Ang^3
#
#
#
# Elastic Constant Matrix: (Units=GPa)
#
#
# Indices 1 2 3 4 5 6 
#
# 1 142.0365 77.5610 12.8349 0.0000 0.0000 0.0000
# 2 77.5610 152.9010 21.8104 0.0000 0.0000 0.0000
# 3 12.8349 21.8104 14.6673 0.0000 0.0000 0.0000
# 4 0.0000 0.0000 0.0000 18.9252 0.0000 0.0000
# 5 0.0000 0.0000 0.0000 0.0000 9.8211 0.0000
# 6 0.0000 0.0000 0.0000 0.0000 0.0000 28.2861
#
#
#
# Elastic Compliance Matrix: (Units=1/GPa)
#
#
# Indices 1 2 3 4 5 6 
#
# 1 0.009764 -0.004739 -0.001497 0.000000 0.000000 0.000000
# 2 -0.004739 0.010601 -0.011617 0.000000 0.000000 0.000000
# 3 -0.001497 -0.011617 0.086763 0.000000 0.000000 0.000000
# 4 0.000000 0.000000 0.000000 0.052840 0.000000 0.000000
# 5 0.000000 0.000000 0.000000 0.000000 0.101821 0.000000
# 6 0.000000 0.000000 0.000000 0.000000 0.000000 0.035353
#
#
# Mechanical properties :
#
#
# Convention : Reuss Voigt Hill
#
# Bulk Modulus (GPa) = 14.00125 59.33526 36.66825
# Shear Modulus (GPa) = 14.01916 24.56639 19.29277
#
# Velocity S-wave (km/s) = 2.69237 3.56405 3.15843
# Velocity P-wave (km/s) = 4.11153 6.90050 5.67986
#
# Compressibility (1/GPa) = 0.07142220
#
# Stress axis : x y z
#
# Youngs Moduli (GPa) = 102.42115 94.32786 11.52566
#
# Poissons Ratio (x) = 0.44704 0.01725
# Poissons Ratio (y) = 0.48540 0.13389
# Poissons Ratio (z) = 0.15327 1.09581
#
# Static dielectric constant tensor:
#      x y z
#    x 3.824720 0.000000 0.000000 
#    y 0.000000 3.871760 0.000000 
#    z 0.000000 0.000000 3.102220 
# 
# 
# High freq. dielectric constant tensor:
#      x y z
#    x 1.769340 0.000000 0.000000 
#    y 0.000000 1.761270 0.000000 
#    z 0.000000 0.000000 1.707710 
# 
# From -- ./inp_files/7320.got.cif
#   From: 2010.03.12/outbox.cif.g09.slc.cpg/sg65_4_cif.got.tgz:7320.got - 2010.04.10 20:52:16.
