data_PCOD8270487
_publ_section_title
;
Structure prediction by ZEFSAII (Michael W. Deem and Ramdas Pophale) SiO2 
 PCOD8270487
Probable space group: C M M M
;
_chemical_formula_sum "Si O2"
_cell_formula_units_Z 88
_cell_length_a 27.033045
_cell_length_b 8.988779
_cell_length_c 21.306504
_cell_angle_alpha 90.000000
_cell_angle_beta 90.000000
_cell_angle_gamma 90.000000
_cell_volume 5177.354065
_symmetry_space_group_name_H-M "C M M M"
_symmetry_group_IT_number 65
_symmetry_cell_setting 'orthorhombic'
loop_
_space_group_symop_operation_xyz
x,y,z
-x,-y,z
x,-y,-z
-x,y,-z
-x,-y,-z
x,y,-z
-x,y,z
x,-y,z
1/2+x,1/2+y,z
1/2-x,1/2-y,z
1/2+x,1/2-y,-z
1/2-x,1/2+y,-z
1/2-x,1/2-y,-z
1/2+x,1/2+y,-z
1/2-x,1/2+y,z
1/2+x,1/2-y,z
loop_
_atom_site_type_symbol
_atom_site_label
_atom_site_fract_x
_atom_site_fract_y
_atom_site_fract_z
Si Si1 0.942982 0.176403 0.500000
Si Si2 0.554964 0.669978 0.265100
Si Si3 0.100180 0.326329 0.621090
Si Si4 0.849290 0.172592 0.805162
Si Si5 0.699788 0.174307 0.690694
Si Si6 0.801356 0.825675 0.069220
O O1 0.913550 0.235630 0.440308
O O2 0.000000 0.232426 0.500000
O O3 0.941209 0.000000 0.500000
O O4 0.500000 0.696985 0.238347
O O5 0.561725 0.500000 0.288435
O O6 0.563378 0.778030 0.323638
O O7 0.593303 0.706769 0.209475
O O8 0.093056 0.500000 0.607917
O O9 0.156473 0.288294 0.641012
O O10 0.813837 0.264831 0.759399
O O11 0.840689 0.221021 0.877367
O O12 0.836409 0.000000 0.794723
O O13 0.750000 0.250000 0.665924
O O14 0.708416 0.000000 0.696650
O O15 0.750000 0.750000 0.086221
O O16 0.791903 0.000000 0.070036
O O17 0.820490 0.775058 0.000000
#
# Coordination Sequence:
#
# PCOD8270487 Si02
#       6
#     8  16  16  16  16  16
#     4  11  23  37  54  75  98 125 156 189 228 275
#     4   9  17  30  48  69  93 121 154 191 232 278
#     4  10  21  35  51  73  98 123 154 191 230 273
#     4   9  17  29  46  67  92 123 156 192 233 275
#     4  10  20  33  50  72  97 124 155 191 230 274
#     4   9  17  28  42  62  89 120 153 189 230 276
#
# _framework density 16.9971
#
# number of rings (size 3 to 8) (size 9 to 14) (size 15 to 20)
#    0.000    2.455    0.000    2.455    0.000    7.636 
#    0.000    0.455    0.000    0.545    0.000    3.818 
#    0.000    0.000    0.000   13.636    0.000   14.182 
#
# Total GULP energy -545553.140327 kJ/mol
# GULP energy per Si atom -12398.935007 kJ/mol
# Density = 1.695841 g / cm^3
# Si number density = 16.997100 Si / 1000 Ang^3
#
#
#
# Elastic Constant Matrix: (Units=GPa)
#
#
# Indices 1 2 3 4 5 6 
#
# 1 123.3979 43.6903 70.0108 0.0000 0.0000 0.0000
# 2 43.6903 59.0011 43.5307 0.0000 0.0000 0.0000
# 3 70.0108 43.5307 136.0092 0.0000 0.0000 0.0000
# 4 0.0000 0.0000 0.0000 20.2088 0.0000 0.0000
# 5 0.0000 0.0000 0.0000 0.0000 17.8245 0.0000
# 6 0.0000 0.0000 0.0000 0.0000 0.0000 25.2969
#
#
#
# Elastic Compliance Matrix: (Units=1/GPa)
#
#
# Indices 1 2 3 4 5 6 
#
# 1 0.012935 -0.006108 -0.004703 0.000000 0.000000 0.000000
# 2 -0.006108 0.025073 -0.004880 0.000000 0.000000 0.000000
# 3 -0.004703 -0.004880 0.011336 0.000000 0.000000 0.000000
# 4 0.000000 0.000000 0.000000 0.049484 0.000000 0.000000
# 5 0.000000 0.000000 0.000000 0.000000 0.056103 0.000000
# 6 0.000000 0.000000 0.000000 0.000000 0.000000 0.039531
#
#
# Mechanical properties :
#
#
# Convention : Reuss Voigt Hill
#
# Bulk Modulus (GPa) = 55.68181 70.31906 63.00044
# Shear Modulus (GPa) = 21.56745 23.41110 22.48928
#
# Velocity S-wave (km/s) = 3.56601 3.71530 3.64142
# Velocity P-wave (km/s) = 7.05592 7.73729 7.40445
#
# Compressibility (1/GPa) = 0.01795919
#
# Stress axis : x y z
#
# Youngs Moduli (GPa) = 77.30934 39.88378 88.21834
#
# Poissons Ratio (x) = 0.24362 0.41492
# Poissons Ratio (y) = 0.47223 0.43055
# Poissons Ratio (z) = 0.36361 0.19465
#
# Static dielectric constant tensor:
#      x y z
#    x 3.665180 0.000000 0.000000 
#    y 0.000000 3.241150 0.000000 
#    z 0.000000 0.000000 3.292110 
# 
# 
# High freq. dielectric constant tensor:
#      x y z
#    x 1.652220 0.000000 0.000000 
#    y 0.000000 1.660780 0.000000 
#    z 0.000000 0.000000 1.644670 
# 
# From -- ./inp_files/60223.got.cif
#   From: 2010.03.12/outbox.cif.g09.slc.cpg/sg65_31_cif.got.tgz:60223.got - 2010.04.10 20:52:16.
