data_PCOD8270136
_publ_section_title
;
Structure prediction by ZEFSAII (Michael W. Deem and Ramdas Pophale) SiO2 
 PCOD8270136
Probable space group: C M M M
;
_chemical_formula_sum "Si O2"
_cell_formula_units_Z 104
_cell_length_a 9.217222
_cell_length_b 27.695716
_cell_length_c 23.152832
_cell_angle_alpha 90.000000
_cell_angle_beta 90.000000
_cell_angle_gamma 90.000000
_cell_volume 5910.398525
_symmetry_space_group_name_H-M "C M M M"
_symmetry_group_IT_number 65
_symmetry_cell_setting 'orthorhombic'
loop_
_space_group_symop_operation_xyz
x,y,z
-x,-y,z
x,-y,-z
-x,y,-z
-x,-y,-z
x,y,-z
-x,y,z
x,-y,z
1/2+x,1/2+y,z
1/2-x,1/2-y,z
1/2+x,1/2-y,-z
1/2-x,1/2+y,-z
1/2-x,1/2-y,-z
1/2+x,1/2+y,-z
1/2-x,1/2+y,z
1/2+x,1/2-y,z
loop_
_atom_site_type_symbol
_atom_site_label
_atom_site_fract_x
_atom_site_fract_y
_atom_site_fract_z
Si Si1 0.158248 0.000000 0.431821
Si Si2 0.840068 0.131862 0.856147
Si Si3 0.833180 0.298417 0.067928
Si Si4 0.161314 0.203843 0.249127
Si Si5 0.828789 0.943618 0.235175
Si Si6 0.332335 0.129157 0.316055
Si Si7 0.664051 0.090868 0.435895
O O1 0.241202 0.952828 0.411640
O O2 0.145662 0.000000 0.500000
O O3 0.000000 0.000000 0.402305
O O4 0.729503 0.152577 0.903666
O O5 0.849993 0.169680 0.805081
O O6 0.788477 0.081198 0.826956
O O7 0.000000 0.125717 0.884608
O O8 0.750000 0.250000 0.088525
O O9 0.000000 0.292360 0.086575
O O10 0.815987 0.305394 0.000000
O O11 0.250000 0.250000 0.228827
O O12 0.249814 0.177858 0.299729
O O13 0.000000 0.217593 0.271203
O O14 0.740869 0.917977 0.286848
O O15 0.000000 0.936310 0.246927
O O16 0.786076 0.000000 0.232629
O O17 0.500000 0.130610 0.296118
O O18 0.320446 0.130520 0.385951
O O19 0.714239 0.109492 0.500000
O O20 0.500000 0.072092 0.440364
#
# Coordination Sequence:
#
# PCOD8270136 Si02
#       7
#     8  16  16  16  16  16  16
#     4   9  17  27  41  63  87 115 153 191 228 275
#     4   9  18  32  51  74  98 128 164 198 239 288
#     4  10  20  32  48  73 104 135 165 199 241 286
#     4  10  20  34  52  74 100 127 158 199 246 291
#     4   9  19  35  52  71  98 131 164 204 250 290
#     4  10  20  32  49  73  97 125 163 200 241 294
#     4   9  18  32  47  64  92 127 159 195 240 290
#
# _framework density 17.596105999999999
#
# number of rings (size 3 to 8) (size 9 to 14) (size 15 to 20)
#    0.000    2.538    0.000    3.000    1.077    7.692 
#    0.000    0.000    0.000    0.923    0.000    3.231 
#    0.000    0.000    0.000    0.000    0.000    0.000 
#
# Total GULP energy -644470.660682 kJ/mol
# GULP energy per Si atom -12393.666552 kJ/mol
# Density = 1.755606 g / cm^3
# Si number density = 17.596106 Si / 1000 Ang^3
#
#
#
# Elastic Constant Matrix: (Units=GPa)
#
#
# Indices 1 2 3 4 5 6 
#
# 1 99.8282 24.4426 30.1645 0.0000 0.0000 0.0000
# 2 24.4426 61.0933 12.9646 0.0000 0.0000 0.0000
# 3 30.1645 12.9646 55.2613 0.0000 0.0000 0.0000
# 4 0.0000 0.0000 0.0000 17.8864 0.0000 0.0000
# 5 0.0000 0.0000 0.0000 0.0000 21.6668 0.0000
# 6 0.0000 0.0000 0.0000 0.0000 0.0000 27.7984
#
#
#
# Elastic Compliance Matrix: (Units=1/GPa)
#
#
# Indices 1 2 3 4 5 6 
#
# 1 0.012793 -0.003827 -0.006085 0.000000 0.000000 0.000000
# 2 -0.003827 0.018371 -0.002221 0.000000 0.000000 0.000000
# 3 -0.006085 -0.002221 0.021939 0.000000 0.000000 0.000000
# 4 0.000000 0.000000 0.000000 0.055909 0.000000 0.000000
# 5 0.000000 0.000000 0.000000 0.000000 0.046153 0.000000
# 6 0.000000 0.000000 0.000000 0.000000 0.000000 0.035973
#
#
# Mechanical properties :
#
#
# Convention : Reuss Voigt Hill
#
# Bulk Modulus (GPa) = 34.67884 39.03625 36.85755
# Shear Modulus (GPa) = 22.22066 23.37774 22.79920
#
# Velocity S-wave (km/s) = 3.55747 3.64892 3.60348
# Velocity P-wave (km/s) = 6.05187 6.32341 6.18913
#
# Compressibility (1/GPa) = 0.02883603
#
# Stress axis : x y z
#
# Youngs Moduli (GPa) = 78.16800 54.43419 45.58191
#
# Poissons Ratio (x) = 0.20832 0.27738
# Poissons Ratio (y) = 0.29914 0.10124
# Poissons Ratio (z) = 0.47567 0.12090
#
# Static dielectric constant tensor:
#      x y z
#    x 3.564830 0.000000 0.000000 
#    y 0.000000 3.340860 0.000000 
#    z 0.000000 0.000000 3.232150 
# 
# 
# High freq. dielectric constant tensor:
#      x y z
#    x 1.692000 0.000000 0.000000 
#    y 0.000000 1.656550 0.000000 
#    z 0.000000 0.000000 1.667560 
# 
# From -- ./inp_files/68253.got.cif
#   From: 2010.03.12/outbox.cif.g09.slc.cpg/sg65_35_cif.got.tgz:68253.got - 2010.04.10 20:52:16.
