data_PCOD8270681
_publ_section_title
;
Structure prediction by ZEFSAII (Michael W. Deem and Ramdas Pophale) SiO2 
 PCOD8270681
Probable space group: C M M M
;
_chemical_formula_sum "Si O2"
_cell_formula_units_Z 120
_cell_length_a 9.276849
_cell_length_b 27.029943
_cell_length_c 26.384493
_cell_angle_alpha 90.000000
_cell_angle_beta 90.000000
_cell_angle_gamma 90.000000
_cell_volume 6615.982850
_symmetry_space_group_name_H-M "C M M M"
_symmetry_group_IT_number 65
_symmetry_cell_setting 'orthorhombic'
loop_
_space_group_symop_operation_xyz
x,y,z
-x,-y,z
x,-y,-z
-x,y,-z
-x,-y,-z
x,y,-z
-x,y,z
x,-y,z
1/2+x,1/2+y,z
1/2-x,1/2-y,z
1/2+x,1/2-y,-z
1/2-x,1/2+y,-z
1/2-x,1/2-y,-z
1/2+x,1/2+y,-z
1/2-x,1/2+y,z
1/2+x,1/2-y,z
loop_
_atom_site_type_symbol
_atom_site_label
_atom_site_fract_x
_atom_site_fract_y
_atom_site_fract_z
Si Si1 0.665763 0.296959 0.057659
Si Si2 0.333159 0.402351 0.093265
Si Si3 0.658596 0.057741 0.000000
Si Si4 0.667763 0.442300 0.202667
Si Si5 0.330786 0.100607 0.294705
Si Si6 0.166917 0.637320 0.557418
Si Si7 0.165422 0.299023 0.349081
Si Si8 0.666691 0.556904 0.387016
O O1 0.500000 0.282364 0.058627
O O2 0.750000 0.250000 0.079783
O O3 0.698432 0.343664 0.093449
O O4 0.714990 0.309581 0.000000
O O5 0.500000 0.412713 0.081076
O O6 0.288034 0.425512 0.146605
O O7 0.241883 0.427816 0.050220
O O8 0.500000 0.082815 0.000000
O O9 0.640610 0.000000 0.000000
O O10 0.500000 0.431384 0.213397
O O11 0.702739 0.500000 0.209617
O O12 0.765416 0.409939 0.239857
O O13 0.500000 0.088143 0.295653
O O14 0.303012 0.158043 0.308210
O O15 0.250653 0.065534 0.334699
O O16 0.192769 0.655138 0.500000
O O17 0.212751 0.681560 0.595147
O O18 0.263158 0.589109 0.568131
O O19 0.000000 0.623145 0.567484
O O20 0.250000 0.250000 0.333717
O O21 0.000000 0.283812 0.349299
O O22 0.500000 0.571945 0.379649
O O23 0.681258 0.500000 0.403013
#
# Coordination Sequence:
#
# PCOD8270681 Si02
#       8
#    16  16   8  16  16  16  16  16
#     4   9  17  31  52  77 102 133 175 216 255 302
#     4  10  20  37  57  78 106 143 182 217 258 316
#     4  11  23  35  50  77 110 141 176 219 264 311
#     4  10  21  36  56  82 109 139 177 219 263 312
#     4  10  21  37  56  78 105 137 174 218 267 322
#     4   9  19  35  52  74 108 145 180 218 261 316
#     4   9  19  35  55  79 104 135 176 218 264 315
#     4  10  20  33  51  76 105 137 178 226 269 313
#
# _framework density 18.137893999999999
#
# number of rings (size 3 to 8) (size 9 to 14) (size 15 to 20)
#    0.000    2.333    0.667    2.600    0.000    8.533 
#    0.000    2.000    0.000    3.200    0.000    0.000 
#    0.000    0.000    0.000    0.000    0.000    0.000 
#
# Total GULP energy -744081.478453 kJ/mol
# GULP energy per Si atom -12401.357974 kJ/mol
# Density = 1.809661 g / cm^3
# Si number density = 18.137894 Si / 1000 Ang^3
#
#
#
# Elastic Constant Matrix: (Units=GPa)
#
#
# Indices 1 2 3 4 5 6 
#
# 1 87.4839 53.7503 55.2822 0.0000 0.0000 0.0000
# 2 53.7503 101.8072 45.7479 0.0000 0.0000 0.0000
# 3 55.2822 45.7479 113.8659 0.0000 0.0000 0.0000
# 4 0.0000 0.0000 0.0000 20.4128 0.0000 0.0000
# 5 0.0000 0.0000 0.0000 0.0000 29.8271 0.0000
# 6 0.0000 0.0000 0.0000 0.0000 0.0000 32.7379
#
#
#
# Elastic Compliance Matrix: (Units=1/GPa)
#
#
# Indices 1 2 3 4 5 6 
#
# 1 0.020525 -0.007760 -0.006847 0.000000 0.000000 0.000000
# 2 -0.007760 0.014920 -0.002227 0.000000 0.000000 0.000000
# 3 -0.006847 -0.002227 0.013002 0.000000 0.000000 0.000000
# 4 0.000000 0.000000 0.000000 0.048989 0.000000 0.000000
# 5 0.000000 0.000000 0.000000 0.000000 0.033527 0.000000
# 6 0.000000 0.000000 0.000000 0.000000 0.000000 0.030546
#
#
# Mechanical properties :
#
#
# Convention : Reuss Voigt Hill
#
# Bulk Modulus (GPa) = 67.66632 68.07978 67.87305
# Shear Modulus (GPa) = 24.98723 26.48733 25.73728
#
# Velocity S-wave (km/s) = 3.71566 3.82557 3.77102
# Velocity P-wave (km/s) = 7.46966 7.55840 7.51416
#
# Compressibility (1/GPa) = 0.01477840
#
# Stress axis : x y z
#
# Youngs Moduli (GPa) = 48.72069 67.02410 76.91406
#
# Poissons Ratio (x) = 0.52008 0.52667
# Poissons Ratio (y) = 0.37805 0.17130
# Poissons Ratio (z) = 0.33361 0.14927
#
# Static dielectric constant tensor:
#      x y z
#    x 3.452330 0.000000 0.000000 
#    y 0.000000 3.305070 0.000000 
#    z 0.000000 0.000000 3.291630 
# 
# 
# High freq. dielectric constant tensor:
#      x y z
#    x 1.706780 0.000000 0.000000 
#    y 0.000000 1.702100 0.000000 
#    z 0.000000 0.000000 1.692070 
# 
# From -- ./inp_files/73951.got.cif
#   From: 2010.03.12/outbox.cif.g09.slc.cpg/sg65_37_cif.got.tgz:73951.got - 2010.04.10 20:52:16.
