data_PCOD8270451
_publ_section_title
;
Structure prediction by ZEFSAII (Michael W. Deem and Ramdas Pophale) SiO2 
 PCOD8270451
Probable space group: C M M M
;
_chemical_formula_sum "Si O2"
_cell_formula_units_Z 104
_cell_length_a 27.048655
_cell_length_b 9.030307
_cell_length_c 26.375428
_cell_angle_alpha 90.000000
_cell_angle_beta 90.000000
_cell_angle_gamma 90.000000
_cell_volume 6442.400288
_symmetry_space_group_name_H-M "C M M M"
_symmetry_group_IT_number 65
_symmetry_cell_setting 'orthorhombic'
loop_
_space_group_symop_operation_xyz
x,y,z
-x,-y,z
x,-y,-z
-x,y,-z
-x,-y,-z
x,y,-z
-x,y,z
x,-y,z
1/2+x,1/2+y,z
1/2-x,1/2-y,z
1/2+x,1/2-y,-z
1/2-x,1/2+y,-z
1/2-x,1/2-y,-z
1/2+x,1/2+y,-z
1/2-x,1/2+y,z
1/2+x,1/2-y,z
loop_
_atom_site_type_symbol
_atom_site_label
_atom_site_fract_x
_atom_site_fract_y
_atom_site_fract_z
Si Si1 0.110055 0.172426 0.746133
Si Si2 0.555985 0.674824 0.846357
Si Si3 0.698442 0.828879 0.697755
Si Si4 0.855483 0.672098 0.593067
Si Si5 0.803603 0.176716 0.500000
Si Si6 0.943160 0.828478 0.643014
Si Si7 0.941290 0.332105 0.944738
O O1 0.086694 0.232351 0.798231
O O2 0.160148 0.261992 0.737734
O O3 0.071014 0.202876 0.701263
O O4 0.123304 0.000000 0.749323
O O5 0.500000 0.733447 0.840201
O O6 0.556876 0.500000 0.848758
O O7 0.580363 0.735560 0.898421
O O8 0.750000 0.750000 0.705397
O O9 0.679699 0.801677 0.640936
O O10 0.705092 0.000000 0.709909
O O11 0.857373 0.500000 0.577082
O O12 0.833785 0.771942 0.548769
O O13 0.910728 0.727497 0.605543
O O14 0.750000 0.250000 0.500000
O O15 0.797810 0.000000 0.500000
O O16 0.000000 0.783928 0.635042
O O17 0.933871 0.000000 0.629489
O O18 0.924015 0.500000 0.936378
O O19 0.000000 0.320237 0.944681
O O20 0.921878 0.275418 0.000000
#
# Coordination Sequence:
#
# PCOD8270451 Si02
#       7
#    16  16  16  16   8  16  16
#     4   9  17  29  45  66  93 122 152 187 225 268
#     4   9  16  25  39  61  88 118 152 188 224 261
#     4  10  20  33  50  70  92 119 149 182 223 270
#     4  10  21  36  53  75 100 124 153 188 226 269
#     4  12  24  38  57  78  99 122 150 187 231 277
#     4   9  17  31  51  72  96 128 161 190 224 268
#     4   8  14  24  36  51  76 113 153 189 226 266
#
# _framework density 16.143052000000001
#
# number of rings (size 3 to 8) (size 9 to 14) (size 15 to 20)
#    0.000    2.615    0.000    3.000    0.000    6.154 
#    0.000    1.923    0.000    5.077    0.000    0.000 
#    0.000    0.615    0.000    2.000    0.000    2.923 
#
# Total GULP energy -644735.322384 kJ/mol
# GULP energy per Si atom -12398.756200 kJ/mol
# Density = 1.610631 g / cm^3
# Si number density = 16.143052 Si / 1000 Ang^3
#
#
#
# Elastic Constant Matrix: (Units=GPa)
#
#
# Indices 1 2 3 4 5 6 
#
# 1 104.1769 50.9405 55.8044 0.0000 0.0000 0.0000
# 2 50.9405 78.5004 56.1573 0.0000 0.0000 0.0000
# 3 55.8044 56.1573 120.4076 0.0000 0.0000 0.0000
# 4 0.0000 0.0000 0.0000 27.3629 0.0000 0.0000
# 5 0.0000 0.0000 0.0000 0.0000 13.3954 0.0000
# 6 0.0000 0.0000 0.0000 0.0000 0.0000 25.5394
#
#
#
# Elastic Compliance Matrix: (Units=1/GPa)
#
#
# Indices 1 2 3 4 5 6 
#
# 1 0.015049 -0.007168 -0.003632 0.000000 0.000000 0.000000
# 2 -0.007168 0.022531 -0.007186 0.000000 0.000000 0.000000
# 3 -0.003632 -0.007186 0.013340 0.000000 0.000000 0.000000
# 4 0.000000 0.000000 0.000000 0.036546 0.000000 0.000000
# 5 0.000000 0.000000 0.000000 0.000000 0.074653 0.000000
# 6 0.000000 0.000000 0.000000 0.000000 0.000000 0.039155
#
#
# Mechanical properties :
#
#
# Convention : Reuss Voigt Hill
#
# Bulk Modulus (GPa) = 66.89595 69.87659 68.38627
# Shear Modulus (GPa) = 20.64164 22.60505 21.62334
#
# Velocity S-wave (km/s) = 3.57973 3.74611 3.66387
# Velocity P-wave (km/s) = 7.65607 7.87978 7.76873
#
# Compressibility (1/GPa) = 0.01494859
#
# Stress axis : x y z
#
# Youngs Moduli (GPa) = 66.44774 44.38326 74.96238
#
# Poissons Ratio (x) = 0.31813 0.27225
# Poissons Ratio (y) = 0.47628 0.53871
# Poissons Ratio (z) = 0.24133 0.31895
#
# Static dielectric constant tensor:
#      x y z
#    x 2.928320 0.000000 0.000000 
#    y 0.000000 3.086760 0.000000 
#    z 0.000000 0.000000 3.286030 
# 
# 
# High freq. dielectric constant tensor:
#      x y z
#    x 1.593560 0.000000 0.000000 
#    y 0.000000 1.624100 0.000000 
#    z 0.000000 0.000000 1.619050 
# 
# From -- ./inp_files/75788.got.cif
#   From: 2010.03.12/outbox.cif.g09.slc.cpg/sg65_38_cif.got.tgz:75788.got - 2010.04.10 20:52:16.
