data_PCOD8270045
_publ_section_title
;
Structure prediction by ZEFSAII (Michael W. Deem and Ramdas Pophale) SiO2 
 PCOD8270045
Probable space group: C M M M
;
_chemical_formula_sum "Si O2"
_cell_formula_units_Z 96
_cell_length_a 32.387410
_cell_length_b 18.446864
_cell_length_c 9.251500
_cell_angle_alpha 90.000000
_cell_angle_beta 90.000000
_cell_angle_gamma 90.000000
_cell_volume 5527.273034
_symmetry_space_group_name_H-M "C M M M"
_symmetry_group_IT_number 65
_symmetry_cell_setting 'orthorhombic'
loop_
_space_group_symop_operation_xyz
x,y,z
-x,-y,z
x,-y,-z
-x,y,-z
-x,-y,-z
x,y,-z
-x,y,z
x,-y,z
1/2+x,1/2+y,z
1/2-x,1/2-y,z
1/2+x,1/2-y,-z
1/2-x,1/2+y,-z
1/2-x,1/2-y,-z
1/2+x,1/2+y,-z
1/2-x,1/2+y,z
1/2+x,1/2-y,z
loop_
_atom_site_type_symbol
_atom_site_label
_atom_site_fract_x
_atom_site_fract_y
_atom_site_fract_z
Si Si1 0.122982 0.206383 0.834792
Si Si2 0.953208 0.300031 0.166948
Si Si3 0.335548 0.581136 0.329985
Si Si4 0.258375 0.915806 0.333249
Si Si5 0.906727 0.583119 0.333684
Si Si6 0.168029 0.353249 0.831290
O O1 0.077240 0.234157 0.791765
O O2 0.132702 0.136593 0.740262
O O3 0.155969 0.269831 0.804356
O O4 0.124525 0.181753 0.000000
O O5 0.943310 0.369899 0.263699
O O6 0.000000 0.274769 0.195397
O O7 0.945732 0.321926 0.000000
O O8 0.340835 0.585817 0.500000
O O9 0.346184 0.500000 0.276061
O O10 0.288606 0.600468 0.287213
O O11 0.265914 0.895001 0.500000
O O12 0.286557 0.865914 0.232067
O O13 0.268973 0.000000 0.308380
O O14 0.900542 0.606099 0.500000
O O15 0.920222 0.500000 0.320466
O O16 0.863824 0.594586 0.250515
O O17 0.167147 0.372792 0.000000
#
# Coordination Sequence:
#
# PCOD8270045 Si02
#       6
#    16  16  16  16  16  16
#     4   9  19  34  51  73  98 124 157 198 242 288
#     4   9  19  36  55  74  98 128 161 198 242 292
#     4   9  19  35  53  73  97 126 160 198 242 293
#     4   9  18  32  48  68  97 132 169 206 242 281
#     4  10  20  32  47  70 101 135 170 207 243 280
#     4  10  20  32  47  70 100 133 170 208 242 280
#
# _framework density 17.36842
#
# number of rings (size 3 to 8) (size 9 to 14) (size 15 to 20)
#    0.000    2.667    0.000    3.500    0.000    9.333 
#    0.000    6.667    0.000    0.500    0.000    3.500 
#    0.000    0.000    0.000    0.000    0.000    0.000 
#
# Total GULP energy -595250.576596 kJ/mol
# GULP energy per Si atom -12401.053679 kJ/mol
# Density = 1.732889 g / cm^3
# Si number density = 17.368420 Si / 1000 Ang^3
#
#
#
# Elastic Constant Matrix: (Units=GPa)
#
#
# Indices 1 2 3 4 5 6 
#
# 1 112.3506 72.1299 56.7562 0.0000 0.0000 0.0000
# 2 72.1299 98.6902 57.0484 0.0000 0.0000 0.0000
# 3 56.7562 57.0484 86.4519 0.0000 0.0000 0.0000
# 4 0.0000 0.0000 0.0000 27.3542 0.0000 0.0000
# 5 0.0000 0.0000 0.0000 0.0000 26.6865 0.0000
# 6 0.0000 0.0000 0.0000 0.0000 0.0000 17.2145
#
#
#
# Elastic Compliance Matrix: (Units=1/GPa)
#
#
# Indices 1 2 3 4 5 6 
#
# 1 0.018054 -0.010256 -0.005085 0.000000 0.000000 0.000000
# 2 -0.010256 0.022207 -0.007921 0.000000 0.000000 0.000000
# 3 -0.005085 -0.007921 0.020133 0.000000 0.000000 0.000000
# 4 0.000000 0.000000 0.000000 0.036558 0.000000 0.000000
# 5 0.000000 0.000000 0.000000 0.000000 0.037472 0.000000
# 6 0.000000 0.000000 0.000000 0.000000 0.000000 0.058090
#
#
# Mechanical properties :
#
#
# Convention : Reuss Voigt Hill
#
# Bulk Modulus (GPa) = 72.09883 74.37351 73.23617
# Shear Modulus (GPa) = 20.52040 21.68826 21.10433
#
# Velocity S-wave (km/s) = 3.44099 3.53755 3.48961
# Velocity P-wave (km/s) = 7.57554 7.72009 7.64816
#
# Compressibility (1/GPa) = 0.01386985
#
# Stress axis : x y z
#
# Youngs Moduli (GPa) = 55.39092 45.03040 49.67089
#
# Poissons Ratio (x) = 0.46181 0.25256
# Poissons Ratio (y) = 0.56806 0.39346
# Poissons Ratio (z) = 0.28165 0.35670
#
# Static dielectric constant tensor:
#      x y z
#    x 3.186000 0.000000 0.000000 
#    y 0.000000 3.058010 0.000000 
#    z 0.000000 0.000000 3.237760 
# 
# 
# High freq. dielectric constant tensor:
#      x y z
#    x 1.662140 0.000000 0.000000 
#    y 0.000000 1.655800 0.000000 
#    z 0.000000 0.000000 1.674790 
# 
# From -- ./inp_files/16298.got.cif
#   From: 2010.03.12/outbox.cif.g09.slc.cpg/sg65_9_cif.got.tgz:16298.got - 2010.04.10 20:52:16.
