data_PCOD8270542
_publ_section_title
;
Structure prediction by ZEFSAII (Michael W. Deem and Ramdas Pophale) SiO2 
 PCOD8270542
Probable space group: C M M M
;
_chemical_formula_sum "Si O2"
_cell_formula_units_Z 104
_cell_length_a 26.818020
_cell_length_b 8.987805
_cell_length_c 26.678117
_cell_angle_alpha 90.000000
_cell_angle_beta 90.000000
_cell_angle_gamma 90.000000
_cell_volume 6430.363513
_symmetry_space_group_name_H-M "C M M M"
_symmetry_group_IT_number 65
_symmetry_cell_setting 'orthorhombic'
loop_
_space_group_symop_operation_xyz
x,y,z
-x,-y,z
x,-y,-z
-x,y,-z
-x,-y,-z
x,y,-z
-x,y,z
x,-y,z
1/2+x,1/2+y,z
1/2-x,1/2-y,z
1/2+x,1/2-y,-z
1/2-x,1/2+y,-z
1/2-x,1/2-y,-z
1/2+x,1/2+y,-z
1/2-x,1/2+y,z
1/2+x,1/2-y,z
loop_
_atom_site_type_symbol
_atom_site_label
_atom_site_fract_x
_atom_site_fract_y
_atom_site_fract_z
Si Si1 0.645078 0.324950 0.094066
Si Si2 0.699687 0.670426 0.195497
Si Si3 0.804419 0.677806 0.000000
Si Si4 0.942829 0.672459 0.148882
Si Si5 0.943347 0.174684 0.651801
Si Si6 0.901493 0.823744 0.243122
Si Si7 0.440785 0.830962 0.445533
O O1 0.641087 0.500000 0.081171
O O2 0.684179 0.295493 0.138532
O O3 0.664571 0.230963 0.047670
O O4 0.590758 0.264949 0.109815
O O5 0.711018 0.500000 0.203275
O O6 0.750000 0.750000 0.211006
O O7 0.655499 0.721959 0.232370
O O8 0.750000 0.750000 0.000000
O O9 0.799094 0.500000 0.000000
O O10 0.926422 0.500000 0.148704
O O11 0.937390 0.737957 0.204793
O O12 0.000000 0.689994 0.131806
O O13 0.913333 0.228539 0.700579
O O14 0.918168 0.240213 0.601303
O O15 0.000000 0.230986 0.657956
O O16 0.941153 0.000000 0.646519
O O17 0.910135 0.000000 0.235205
O O18 0.421814 0.770377 0.500000
O O19 0.500000 0.817169 0.444425
O O20 0.423536 0.000000 0.439253
#
# Coordination Sequence:
#
# PCOD8270542 Si02
#       7
#    16  16   8  16  16  16  16
#     4  10  21  37  55  75  98 126 159 191 229 276
#     4   9  18  31  48  68  90 117 147 181 221 267
#     4  12  24  38  57  80 105 128 154 193 237 279
#     4  10  20  33  50  73  99 126 157 193 231 271
#     4   9  16  25  39  59  83 113 149 187 221 255
#     4   9  18  31  45  64  91 122 155 188 225 272
#     4   8  14  24  36  51  76 111 146 179 218 263
#
# _framework density 16.173268
#
# number of rings (size 3 to 8) (size 9 to 14) (size 15 to 20)
#    0.000    2.615    0.000    3.923    0.000    7.077 
#    0.000    3.462    0.000    2.308    0.000    0.000 
#    0.000    0.615    0.000    1.385    0.000    2.462 
#
# Total GULP energy -644627.282365 kJ/mol
# GULP energy per Si atom -12396.678507 kJ/mol
# Density = 1.613646 g / cm^3
# Si number density = 16.173268 Si / 1000 Ang^3
#
#
#
# Elastic Constant Matrix: (Units=GPa)
#
#
# Indices 1 2 3 4 5 6 
#
# 1 75.5647 36.3755 41.0523 0.0000 0.0000 0.0000
# 2 36.3755 69.7209 46.9841 0.0000 0.0000 0.0000
# 3 41.0523 46.9841 123.9018 0.0000 0.0000 0.0000
# 4 0.0000 0.0000 0.0000 28.2258 0.0000 0.0000
# 5 0.0000 0.0000 0.0000 0.0000 15.7390 0.0000
# 6 0.0000 0.0000 0.0000 0.0000 0.0000 25.4137
#
#
#
# Elastic Compliance Matrix: (Units=1/GPa)
#
#
# Indices 1 2 3 4 5 6 
#
# 1 0.018649 -0.007477 -0.003344 0.000000 0.000000 0.000000
# 2 -0.007477 0.022264 -0.005965 0.000000 0.000000 0.000000
# 3 -0.003344 -0.005965 0.011441 0.000000 0.000000 0.000000
# 4 0.000000 0.000000 0.000000 0.035429 0.000000 0.000000
# 5 0.000000 0.000000 0.000000 0.000000 0.063537 0.000000
# 6 0.000000 0.000000 0.000000 0.000000 0.000000 0.039349
#
#
# Mechanical properties :
#
#
# Convention : Reuss Voigt Hill
#
# Bulk Modulus (GPa) = 53.24128 57.55681 55.39904
# Shear Modulus (GPa) = 21.69195 23.52738 22.60967
#
# Velocity S-wave (km/s) = 3.66624 3.81820 3.74299
# Velocity P-wave (km/s) = 7.13530 7.42315 7.28065
#
# Compressibility (1/GPa) = 0.01878242
#
# Stress axis : x y z
#
# Youngs Moduli (GPa) = 53.62088 44.91649 87.40565
#
# Poissons Ratio (x) = 0.33582 0.29228
# Poissons Ratio (y) = 0.40090 0.52139
# Poissons Ratio (z) = 0.17931 0.26794
#
# Static dielectric constant tensor:
#      x y z
#    x 2.953100 0.000000 0.000000 
#    y 0.000000 3.118930 0.000000 
#    z 0.000000 0.000000 3.334230 
# 
# 
# High freq. dielectric constant tensor:
#      x y z
#    x 1.591990 0.000000 0.000000 
#    y 0.000000 1.626630 0.000000 
#    z 0.000000 0.000000 1.621800 
# 
# From -- ./inp_files/76012.got.cif
#   From: 2010.03.12/outbox.cif.g09.slc.cpg/sg65_39_cif.got.tgz:76012.got - 2010.04.10 20:52:16.
