data_PCOD8270528
_publ_section_title
;
Structure prediction by ZEFSAII (Michael W. Deem and Ramdas Pophale) SiO2 
 PCOD8270528
Probable space group: C M M M
;
_chemical_formula_sum "Si O2"
_cell_formula_units_Z 104
_cell_length_a 26.326023
_cell_length_b 8.991583
_cell_length_c 24.175841
_cell_angle_alpha 90.000000
_cell_angle_beta 90.000000
_cell_angle_gamma 90.000000
_cell_volume 5722.726685
_symmetry_space_group_name_H-M "C M M M"
_symmetry_group_IT_number 65
_symmetry_cell_setting 'orthorhombic'
loop_
_space_group_symop_operation_xyz
x,y,z
-x,-y,z
x,-y,-z
-x,y,-z
-x,-y,-z
x,y,-z
-x,y,z
x,-y,z
1/2+x,1/2+y,z
1/2-x,1/2-y,z
1/2+x,1/2-y,-z
1/2-x,1/2+y,-z
1/2-x,1/2-y,-z
1/2+x,1/2+y,-z
1/2-x,1/2+y,z
1/2+x,1/2-y,z
loop_
_atom_site_type_symbol
_atom_site_label
_atom_site_fract_x
_atom_site_fract_y
_atom_site_fract_z
Si Si1 0.298154 0.665553 0.565509
Si Si2 0.441825 0.171079 0.233004
Si Si3 0.599784 0.175586 0.437465
Si Si4 0.302733 0.326186 0.064836
Si Si5 0.901665 0.324990 0.114549
Si Si6 0.441847 0.662385 0.338690
Si Si7 0.000000 0.168740 0.934682
O O1 0.292729 0.656170 0.500000
O O2 0.301860 0.500000 0.590688
O O3 0.250000 0.750000 0.591431
O O4 0.346606 0.760833 0.582603
O O5 0.500000 0.217722 0.219388
O O6 0.407327 0.203996 0.179906
O O7 0.417271 0.258876 0.285060
O O8 0.440055 0.000000 0.250101
O O9 0.586260 0.227422 0.500000
O O10 0.559574 0.240660 0.394640
O O11 0.601107 0.000000 0.434111
O O12 0.300499 0.500000 0.079967
O O13 0.250000 0.250000 0.083680
O O14 0.349283 0.250019 0.096380
O O15 0.311680 0.301451 0.000000
O O16 0.900583 0.500000 0.100686
O O17 0.949486 0.253511 0.083902
O O18 0.500000 0.643099 0.323591
O O19 0.416518 0.500000 0.348119
O O20 0.000000 0.000000 0.910942
O O21 0.000000 0.164249 0.000000
#
# Coordination Sequence:
#
# PCOD8270528 Si02
#       7
#    16  16  16  16  16  16   8
#     4   9  16  27  45  69  97 127 159 197 241 294
#     4   9  18  35  55  76 103 135 174 216 262 320
#     4  10  20  33  50  73 101 134 171 210 257 313
#     4  10  21  37  56  80 111 149 192 234 276 325
#     4  11  21  35  56  82 110 144 184 228 277 327
#     4  10  21  35  52  75 101 133 173 216 264 315
#     4  11  23  35  49  77 117 153 182 219 270 325
#
# _framework density 18.173155000000001
#
# number of rings (size 3 to 8) (size 9 to 14) (size 15 to 20)
#    0.000    2.077    0.769    3.000    0.000    8.615 
#    0.000    1.538    0.000    0.923    0.000    2.154 
#    0.000    0.000    0.000    0.000    0.000    0.000 
#
# Total GULP energy -644691.565598 kJ/mol
# GULP energy per Si atom -12397.914723 kJ/mol
# Density = 1.813179 g / cm^3
# Si number density = 18.173155 Si / 1000 Ang^3
#
#
#
# Elastic Constant Matrix: (Units=GPa)
#
#
# Indices 1 2 3 4 5 6 
#
# 1 100.0200 55.4078 45.9666 0.0000 0.0000 0.0000
# 2 55.4078 133.3840 61.3010 0.0000 0.0000 0.0000
# 3 45.9666 61.3010 92.6664 0.0000 0.0000 0.0000
# 4 0.0000 0.0000 0.0000 27.8219 0.0000 0.0000
# 5 0.0000 0.0000 0.0000 0.0000 15.5868 0.0000
# 6 0.0000 0.0000 0.0000 0.0000 0.0000 30.5039
#
#
#
# Elastic Compliance Matrix: (Units=1/GPa)
#
#
# Indices 1 2 3 4 5 6 
#
# 1 0.014187 -0.003821 -0.004510 0.000000 0.000000 0.000000
# 2 -0.003821 0.011801 -0.005911 0.000000 0.000000 0.000000
# 3 -0.004510 -0.005911 0.016939 0.000000 0.000000 0.000000
# 4 0.000000 0.000000 0.000000 0.035943 0.000000 0.000000
# 5 0.000000 0.000000 0.000000 0.000000 0.064157 0.000000
# 6 0.000000 0.000000 0.000000 0.000000 0.000000 0.032783
#
#
# Mechanical properties :
#
#
# Convention : Reuss Voigt Hill
#
# Bulk Modulus (GPa) = 69.23710 72.38014 70.80862
# Shear Modulus (GPa) = 23.91102 25.67552 24.79327
#
# Velocity S-wave (km/s) = 3.63124 3.76284 3.69762
# Velocity P-wave (km/s) = 7.46743 7.66767 7.56821
#
# Compressibility (1/GPa) = 0.01444312
#
# Stress axis : x y z
#
# Youngs Moduli (GPa) = 70.48611 84.73812 59.03483
#
# Poissons Ratio (x) = 0.32375 0.26625
# Poissons Ratio (y) = 0.26930 0.34898
# Poissons Ratio (z) = 0.31789 0.50093
#
# Static dielectric constant tensor:
#      x y z
#    x 3.333520 0.000000 0.000000 
#    y 0.000000 3.712990 0.000000 
#    z 0.000000 0.000000 3.221120 
# 
# 
# High freq. dielectric constant tensor:
#      x y z
#    x 1.689430 0.000000 0.000000 
#    y 0.000000 1.724010 0.000000 
#    z 0.000000 0.000000 1.685290 
# 
# From -- ./inp_files/76004.got.cif
#   From: 2010.03.12/outbox.cif.g09.slc.cpg/sg65_39_cif.got.tgz:76004.got - 2010.04.10 20:52:16.
