data_PCOD8270120
_publ_section_title
;
Structure prediction by ZEFSAII (Michael W. Deem and Ramdas Pophale) SiO2 
 PCOD8270120
Probable space group: C M M M
;
_chemical_formula_sum "Si O2"
_cell_formula_units_Z 96
_cell_length_a 9.266579
_cell_length_b 31.056150
_cell_length_c 18.584579
_cell_angle_alpha 90.000000
_cell_angle_beta 90.000000
_cell_angle_gamma 90.000000
_cell_volume 5348.349453
_symmetry_space_group_name_H-M "C M M M"
_symmetry_group_IT_number 65
_symmetry_cell_setting 'orthorhombic'
loop_
_space_group_symop_operation_xyz
x,y,z
-x,-y,z
x,-y,-z
-x,y,-z
-x,-y,-z
x,y,-z
-x,y,z
x,-y,z
1/2+x,1/2+y,z
1/2-x,1/2-y,z
1/2+x,1/2-y,-z
1/2-x,1/2+y,-z
1/2-x,1/2-y,-z
1/2+x,1/2+y,-z
1/2-x,1/2+y,z
1/2+x,1/2-y,z
loop_
_atom_site_type_symbol
_atom_site_label
_atom_site_fract_x
_atom_site_fract_y
_atom_site_fract_z
Si Si1 0.162229 0.952296 0.085513
Si Si2 0.332848 0.707668 0.676576
Si Si3 0.337761 0.047019 0.585504
Si Si4 0.330622 0.371478 0.417417
Si Si5 0.336324 0.129080 0.914444
Si Si6 0.669346 0.293501 0.156529
O O1 0.270985 0.915964 0.115449
O O2 0.000000 0.942428 0.113299
O O3 0.211305 0.000000 0.112126
O O4 0.162954 0.951412 0.000000
O O5 0.500000 0.715780 0.661036
O O6 0.250000 0.750000 0.651084
O O7 0.272672 0.668245 0.629460
O O8 0.303617 0.697222 0.759676
O O9 0.332065 0.047197 0.500000
O O10 0.500000 0.055399 0.612525
O O11 0.237257 0.084965 0.615535
O O12 0.284124 0.000000 0.613303
O O13 0.284108 0.363764 0.500000
O O14 0.500000 0.376677 0.409608
O O15 0.500000 0.133814 0.885474
O O16 0.236891 0.167646 0.887645
O O17 0.334133 0.129634 0.000000
O O18 0.500000 0.289163 0.138526
O O19 0.750000 0.250000 0.132552
#
# Coordination Sequence:
#
# PCOD8270120 Si02
#       6
#    16  16  16  16  16  16
#     4   8  14  26  45  69  97 128 159 189 225 272
#     4   9  19  34  50  69  92 121 157 192 229 275
#     4   8  14  25  41  63  92 123 154 188 226 270
#     4   9  17  29  46  70  98 123 150 188 231 273
#     4  10  20  32  48  73 101 125 153 192 236 279
#     4  10  20  35  53  69  90 122 159 196 233 279
#
# _framework density 17.949463000000002
#
# number of rings (size 3 to 8) (size 9 to 14) (size 15 to 20)
#    0.000    3.000    0.000    2.000    0.000    3.667 
#    0.000    3.333    0.000    1.000    0.000    2.333 
#    0.000    0.000    0.000    0.000    0.000    0.000 
#
# Total GULP energy -595027.697528 kJ/mol
# GULP energy per Si atom -12396.410365 kJ/mol
# Density = 1.790861 g / cm^3
# Si number density = 17.949463 Si / 1000 Ang^3
#
#
#
# Elastic Constant Matrix: (Units=GPa)
#
#
# Indices 1 2 3 4 5 6 
#
# 1 92.3268 75.9218 22.7590 0.0000 0.0000 0.0000
# 2 75.9218 170.0857 34.2702 0.0000 0.0000 0.0000
# 3 22.7590 34.2702 21.6452 0.0000 0.0000 0.0000
# 4 0.0000 0.0000 0.0000 -0.8953 0.0000 0.0000
# 5 0.0000 0.0000 0.0000 0.0000 16.0666 0.0000
# 6 0.0000 0.0000 0.0000 0.0000 0.0000 41.4159
#
#
#
# Elastic Compliance Matrix: (Units=1/GPa)
#
#
# Indices 1 2 3 4 5 6 
#
# 1 0.018295 -0.006300 -0.009261 0.000000 0.000000 0.000000
# 2 -0.006300 0.010803 -0.010480 0.000000 0.000000 0.000000
# 3 -0.009261 -0.010480 0.072530 0.000000 0.000000 0.000000
# 4 0.000000 0.000000 0.000000 -1.116989 0.000000 0.000000
# 5 0.000000 0.000000 0.000000 0.000000 0.062241 0.000000
# 6 0.000000 0.000000 0.000000 0.000000 0.000000 0.024145
#
#
# Mechanical properties :
#
#
# Convention : Reuss Voigt Hill
#
# Bulk Modulus (GPa) = 20.18362 61.10663 40.64512
# Shear Modulus (GPa) = -5.81141 21.39123 7.78991
#
# Velocity S-wave (km/s) = -1.80130 3.45592 2.08551
# Velocity P-wave (km/s) = 2.63493 7.07404 5.33783
#
# Compressibility (1/GPa) = 0.04954513
#
# Stress axis : x y z
#
# Youngs Moduli (GPa) = 54.66003 92.56442 13.78745
#
# Poissons Ratio (x) = 0.58319 0.12769
# Poissons Ratio (y) = 0.34438 0.14449
# Poissons Ratio (z) = 0.50621 0.97007
#
# Static dielectric constant tensor:
#      x y z
#    x 3.437040 0.000000 0.000000 
#    y 0.000000 3.726380 0.000000 
#    z 0.000000 0.000000 2.937030 
# 
# 
# High freq. dielectric constant tensor:
#      x y z
#    x 1.696210 0.000000 0.000000 
#    y 0.000000 1.711940 0.000000 
#    z 0.000000 0.000000 1.646810 
# 
# From -- ./inp_files/60299.got.cif
#   From: 2010.03.12/outbox.cif.g09.slc.cpg/sg65_31_cif.got.tgz:60299.got - 2010.04.10 20:52:16.
