data_PCOD8270856
_publ_section_title
;
Structure prediction by ZEFSAII (Michael W. Deem and Ramdas Pophale) SiO2 
 PCOD8270856
Probable space group: C M M M
;
_chemical_formula_sum "Si O2"
_cell_formula_units_Z 104
_cell_length_a 29.621820
_cell_length_b 20.478450
_cell_length_c 9.327815
_cell_angle_alpha 90.000000
_cell_angle_beta 90.000000
_cell_angle_gamma 90.000000
_cell_volume 5658.336154
_symmetry_space_group_name_H-M "C M M M"
_symmetry_group_IT_number 65
_symmetry_cell_setting 'orthorhombic'
loop_
_space_group_symop_operation_xyz
x,y,z
-x,-y,z
x,-y,-z
-x,y,-z
-x,-y,-z
x,y,-z
-x,y,z
x,-y,z
1/2+x,1/2+y,z
1/2-x,1/2-y,z
1/2+x,1/2-y,-z
1/2-x,1/2+y,-z
1/2-x,1/2-y,-z
1/2+x,1/2+y,-z
1/2-x,1/2+y,z
1/2+x,1/2-y,z
loop_
_atom_site_type_symbol
_atom_site_label
_atom_site_fract_x
_atom_site_fract_y
_atom_site_fract_z
Si Si1 0.449665 0.859730 0.329018
Si Si2 0.053082 0.500000 0.655229
Si Si3 0.127091 0.136306 0.337596
Si Si4 0.279697 0.575249 0.334627
Si Si5 0.225080 0.682974 0.170031
Si Si6 0.638106 0.214813 0.333410
Si Si7 0.949379 0.926829 0.167813
O O1 0.451692 0.865593 0.500000
O O2 0.500000 0.839234 0.272798
O O3 0.411917 0.807476 0.281723
O O4 0.434832 0.931457 0.265124
O O5 0.077648 0.500000 0.500000
O O6 0.000000 0.500000 0.631105
O O7 0.110372 0.129566 0.500000
O O8 0.167345 0.086256 0.303646
O O9 0.144195 0.208801 0.305279
O O10 0.084474 0.123178 0.239213
O O11 0.268910 0.593394 0.500000
O O12 0.267974 0.500000 0.302238
O O13 0.251590 0.620634 0.229055
O O14 0.250000 0.750000 0.215777
O O15 0.175468 0.679006 0.238317
O O16 0.221267 0.677242 0.000000
O O17 0.645799 0.197009 0.500000
O O18 0.000000 0.904098 0.205092
O O19 0.941206 0.000000 0.226624
O O20 0.940975 0.925482 0.000000
#
# Coordination Sequence:
#
# PCOD8270856 Si02
#       7
#    16   8  16  16  16  16  16
#     4   8  14  26  46  74 106 138 174 216 263 314
#     4   7  10  20  40  66  99 135 167 205 249 297
#     4  10  20  33  53  80 108 139 176 223 278 328
#     4  10  21  38  60  84 110 141 181 230 280 332
#     4  11  23  39  59  81 109 148 187 226 271 328
#     4  10  20  34  55  81 110 143 176 221 273 323
#     4   9  19  35  52  72 103 143 183 223 269 322
#
# _framework density 18.379961000000002
#
# number of rings (size 3 to 8) (size 9 to 14) (size 15 to 20)
#    0.000    2.538    1.538    2.308    0.000    4.000 
#    1.385    2.308    0.000    0.462    0.000    0.000 
#    0.000    1.846    0.000    0.000    0.000    0.000 
#
# Total GULP energy -644557.671124 kJ/mol
# GULP energy per Si atom -12395.339829 kJ/mol
# Density = 1.833813 g / cm^3
# Si number density = 18.379961 Si / 1000 Ang^3
#
#
#
# Elastic Constant Matrix: (Units=GPa)
#
#
# Indices 1 2 3 4 5 6 
#
# 1 106.9569 44.8012 48.2100 0.0000 0.0000 0.0000
# 2 44.8012 84.5390 36.1337 0.0000 0.0000 0.0000
# 3 48.2100 36.1337 53.1208 0.0000 0.0000 0.0000
# 4 0.0000 0.0000 0.0000 20.2667 0.0000 0.0000
# 5 0.0000 0.0000 0.0000 0.0000 13.3211 0.0000
# 6 0.0000 0.0000 0.0000 0.0000 0.0000 33.4057
#
#
#
# Elastic Compliance Matrix: (Units=1/GPa)
#
#
# Indices 1 2 3 4 5 6 
#
# 1 0.016448 -0.003294 -0.012687 0.000000 0.000000 0.000000
# 2 -0.003294 0.017337 -0.008804 0.000000 0.000000 0.000000
# 3 -0.012687 -0.008804 0.036327 0.000000 0.000000 0.000000
# 4 0.000000 0.000000 0.000000 0.049342 0.000000 0.000000
# 5 0.000000 0.000000 0.000000 0.000000 0.075069 0.000000
# 6 0.000000 0.000000 0.000000 0.000000 0.000000 0.029935
#
#
# Mechanical properties :
#
#
# Convention : Reuss Voigt Hill
#
# Bulk Modulus (GPa) = 48.67657 55.87849 52.27753
# Shear Modulus (GPa) = 17.80155 21.09681 19.44918
#
# Velocity S-wave (km/s) = 3.11550 3.39162 3.25649
# Velocity P-wave (km/s) = 6.28353 6.76796 6.53024
#
# Compressibility (1/GPa) = 0.02054377
#
# Stress axis : x y z
#
# Youngs Moduli (GPa) = 60.79895 57.67889 27.52760
#
# Poissons Ratio (x) = 0.18999 0.34923
# Poissons Ratio (y) = 0.20027 0.24235
# Poissons Ratio (z) = 0.77133 0.50779
#
# Static dielectric constant tensor:
#      x y z
#    x 3.333760 0.000000 0.000000 
#    y 0.000000 3.642160 0.000000 
#    z 0.000000 0.000000 3.046260 
# 
# 
# High freq. dielectric constant tensor:
#      x y z
#    x 1.711240 0.000000 0.000000 
#    y 0.000000 1.716680 0.000000 
#    z 0.000000 0.000000 1.676710 
# 
# From -- ./inp_files/18614.got.cif
#   From: 2010.03.12/outbox.cif.g09.slc.cpg/sg65_10_cif.got.tgz:18614.got - 2010.04.10 20:52:16.
