data_PCOD8270500
_publ_section_title
;
Structure prediction by ZEFSAII (Michael W. Deem and Ramdas Pophale) SiO2 
 PCOD8270500
Probable space group: C M M M
;
_chemical_formula_sum "Si O2"
_cell_formula_units_Z 88
_cell_length_a 8.996547
_cell_length_b 18.707774
_cell_length_c 28.726992
_cell_angle_alpha 90.000000
_cell_angle_beta 90.000000
_cell_angle_gamma 90.000000
_cell_volume 4834.906962
_symmetry_space_group_name_H-M "C M M M"
_symmetry_group_IT_number 65
_symmetry_cell_setting 'orthorhombic'
loop_
_space_group_symop_operation_xyz
x,y,z
-x,-y,z
x,-y,-z
-x,y,-z
-x,-y,-z
x,y,-z
-x,y,z
x,-y,z
1/2+x,1/2+y,z
1/2-x,1/2-y,z
1/2+x,1/2-y,-z
1/2-x,1/2+y,-z
1/2-x,1/2-y,-z
1/2+x,1/2+y,-z
1/2-x,1/2+y,z
1/2+x,1/2-y,z
loop_
_atom_site_type_symbol
_atom_site_label
_atom_site_fract_x
_atom_site_fract_y
_atom_site_fract_z
Si Si1 0.172907 0.326211 0.240157
Si Si2 0.827606 0.673790 0.137243
Si Si3 0.169976 0.915734 0.682206
Si Si4 0.324467 0.173410 0.500000
Si Si5 0.326346 0.327035 0.949432
Si Si6 0.173650 0.582369 0.588396
O O1 0.250000 0.250000 0.245862
O O2 0.196199 0.360429 0.188376
O O3 0.240344 0.382055 0.275689
O O4 0.000000 0.315054 0.250721
O O5 0.750000 0.750000 0.139503
O O6 0.749158 0.630137 0.094282
O O7 0.000000 0.682137 0.125488
O O8 0.237790 0.889779 0.633328
O O9 0.000000 0.890600 0.684436
O O10 0.186803 0.000000 0.687021
O O11 0.500000 0.183032 0.500000
O O12 0.250000 0.250000 0.500000
O O13 0.271920 0.129561 0.454866
O O14 0.500000 0.318428 0.939510
O O15 0.250000 0.250000 0.951332
O O16 0.300323 0.365049 0.000000
O O17 0.210997 0.500000 0.577048
O O18 0.000000 0.592363 0.598373
#
# Coordination Sequence:
#
# PCOD8270500 Si02
#       6
#    16  16  16   8  16  16
#     4  10  20  33  50  72  98 130 166 204 249 299
#     4   9  16  25  38  57  82 114 152 192 236 286
#     4  10  21  36  54  77 103 131 166 207 249 294
#     4  10  21  35  53  79 107 134 164 200 244 290
#     4   9  15  21  31  49  75 110 150 189 231 280
#     4   9  18  35  57  76  97 130 170 206 240 284
#
# _framework density 18.200970000000002
#
# number of rings (size 3 to 8) (size 9 to 14) (size 15 to 20)
#    0.000    2.545    0.000    3.545    0.000    6.909 
#    0.000    1.818    0.000    2.727    0.000    0.000 
#    0.000    0.727    0.000    8.000    0.000    8.909 
#
# Total GULP energy -545248.076414 kJ/mol
# GULP energy per Si atom -12392.001737 kJ/mol
# Density = 1.815954 g / cm^3
# Si number density = 18.200970 Si / 1000 Ang^3
#
#
#
# Elastic Constant Matrix: (Units=GPa)
#
#
# Indices 1 2 3 4 5 6 
#
# 1 123.8642 29.7378 89.9940 0.0000 0.0000 0.0000
# 2 29.7378 37.1212 48.3913 0.0000 0.0000 0.0000
# 3 89.9940 48.3913 195.4814 0.0000 0.0000 0.0000
# 4 0.0000 0.0000 0.0000 0.6832 0.0000 0.0000
# 5 0.0000 0.0000 0.0000 0.0000 33.2621 0.0000
# 6 0.0000 0.0000 0.0000 0.0000 0.0000 22.5459
#
#
#
# Elastic Compliance Matrix: (Units=1/GPa)
#
#
# Indices 1 2 3 4 5 6 
#
# 1 0.012466 -0.003699 -0.004823 0.000000 0.000000 0.000000
# 2 -0.003699 0.040872 -0.008415 0.000000 0.000000 0.000000
# 3 -0.004823 -0.008415 0.009419 0.000000 0.000000 0.000000
# 4 0.000000 0.000000 0.000000 1.463698 0.000000 0.000000
# 5 0.000000 0.000000 0.000000 0.000000 0.030064 0.000000
# 6 0.000000 0.000000 0.000000 0.000000 0.000000 0.044354
#
#
# Mechanical properties :
#
#
# Convention : Reuss Voigt Hill
#
# Bulk Modulus (GPa) = 34.62287 76.96809 55.79548
# Shear Modulus (GPa) = 3.04067 23.85449 13.44758
#
# Velocity S-wave (km/s) = 1.29392 3.62417 2.72111
# Velocity P-wave (km/s) = 4.61478 7.73903 6.37137
#
# Compressibility (1/GPa) = 0.02888265
#
# Stress axis : x y z
#
# Youngs Moduli (GPa) = 80.22015 24.46691 106.16655
#
# Poissons Ratio (x) = 0.09050 0.51207
# Poissons Ratio (y) = 0.29671 0.89338
# Poissons Ratio (z) = 0.38692 0.20589
#
# Static dielectric constant tensor:
#      x y z
#    x 3.538770 0.000000 0.000000 
#    y 0.000000 2.817880 0.000000 
#    z 0.000000 0.000000 4.378860 
# 
# 
# High freq. dielectric constant tensor:
#      x y z
#    x 1.718620 0.000000 0.000000 
#    y 0.000000 1.640750 0.000000 
#    z 0.000000 0.000000 1.736740 
# 
# From -- ./inp_files/73222.got.cif
#   From: 2010.03.12/outbox.cif.g09.slc.cpg/sg65_37_cif.got.tgz:73222.got - 2010.04.10 20:52:16.
