data_PCOD8270289
_publ_section_title
;
Structure prediction by ZEFSAII (Michael W. Deem and Ramdas Pophale) SiO2 
 PCOD8270289
Probable space group: C M M M
;
_chemical_formula_sum "Si O2"
_cell_formula_units_Z 80
_cell_length_a 22.859517
_cell_length_b 9.916979
_cell_length_c 21.482265
_cell_angle_alpha 90.000000
_cell_angle_beta 90.000000
_cell_angle_gamma 90.000000
_cell_volume 4869.972548
_symmetry_space_group_name_H-M "C M M M"
_symmetry_group_IT_number 65
_symmetry_cell_setting 'orthorhombic'
loop_
_space_group_symop_operation_xyz
x,y,z
-x,-y,z
x,-y,-z
-x,y,-z
-x,-y,-z
x,y,-z
-x,y,z
x,-y,z
1/2+x,1/2+y,z
1/2-x,1/2-y,z
1/2+x,1/2-y,-z
1/2-x,1/2+y,-z
1/2-x,1/2-y,-z
1/2+x,1/2+y,-z
1/2-x,1/2+y,z
1/2+x,1/2-y,z
loop_
_atom_site_type_symbol
_atom_site_label
_atom_site_fract_x
_atom_site_fract_y
_atom_site_fract_z
Si Si1 0.320062 0.000000 0.570774
Si Si2 0.000000 0.848320 0.572870
Si Si3 0.436362 0.659038 0.000000
Si Si4 0.681549 0.500000 0.427151
Si Si5 0.068984 0.341640 0.244968
Si Si6 0.617139 0.250630 0.627642
Si Si7 0.930241 0.848357 0.133622
O O1 0.250698 0.000000 0.576006
O O2 0.346292 0.872925 0.603845
O O3 0.340459 0.000000 0.500000
O O4 0.944372 0.762641 0.593057
O O5 0.000000 0.863899 0.500000
O O6 0.000000 0.000000 0.602735
O O7 0.404047 0.696412 0.934563
O O8 0.445305 0.500000 0.000000
O O9 0.500000 0.730416 0.000000
O O10 0.660379 0.500000 0.500000
O O11 0.657312 0.623636 0.388113
O O12 0.084421 0.500000 0.239268
O O13 0.105204 0.269646 0.299490
O O14 0.090080 0.263230 0.183235
O O15 0.000000 0.321828 0.257122
O O16 0.000000 0.850471 0.128464
O O17 0.908641 0.000000 0.152154
#
# Coordination Sequence:
#
# PCOD8270289 Si02
#       7
#     8   8   8   8  16  16  16
#     4  11  24  41  59  77  97 129 173 216 266 319
#     4  11  22  35  53  79 105 128 161 210 263 311
#     4   7  10  20  37  63  89 121 168 213 238 268
#     4  11  24  41  59  77  97 127 171 222 268 315
#     4  10  20  33  44  67 103 138 167 201 249 308
#     4  12  22  37  56  77 104 134 166 213 262 312
#     4   8  14  24  43  64  91 129 172 207 239 285
#
# _framework density 16.427197
#
# number of rings (size 3 to 8) (size 9 to 14) (size 15 to 20)
#    0.000    2.000    3.000    3.600    1.400    2.000 
#    0.000    1.500    0.000    3.000    0.000    0.000 
#    0.000    0.000    0.000    5.400    0.000    0.700 
#
# Total GULP energy -495651.841072 kJ/mol
# GULP energy per Si atom -12391.296027 kJ/mol
# Density = 1.638981 g / cm^3
# Si number density = 16.427197 Si / 1000 Ang^3
#
#
#
# Elastic Constant Matrix: (Units=GPa)
#
#
# Indices 1 2 3 4 5 6 
#
# 1 45.4063 26.9414 32.4993 0.0000 0.0000 0.0000
# 2 26.9414 119.6838 73.1808 0.0000 0.0000 0.0000
# 3 32.4993 73.1808 160.7373 0.0000 0.0000 0.0000
# 4 0.0000 0.0000 0.0000 36.5370 0.0000 0.0000
# 5 0.0000 0.0000 0.0000 0.0000 14.4721 0.0000
# 6 0.0000 0.0000 0.0000 0.0000 0.0000 29.4976
#
#
#
# Elastic Compliance Matrix: (Units=1/GPa)
#
#
# Indices 1 2 3 4 5 6 
#
# 1 0.026934 -0.003788 -0.003721 0.000000 0.000000 0.000000
# 2 -0.003788 0.012111 -0.004748 0.000000 0.000000 0.000000
# 3 -0.003721 -0.004748 0.009136 0.000000 0.000000 0.000000
# 4 0.000000 0.000000 0.000000 0.027370 0.000000 0.000000
# 5 0.000000 0.000000 0.000000 0.000000 0.069098 0.000000
# 6 0.000000 0.000000 0.000000 0.000000 0.000000 0.033901
#
#
# Mechanical properties :
#
#
# Convention : Reuss Voigt Hill
#
# Bulk Modulus (GPa) = 42.25352 65.67450 53.96401
# Shear Modulus (GPa) = 23.70190 28.98172 26.34181
#
# Velocity S-wave (km/s) = 3.80260 4.20486 4.00878
# Velocity P-wave (km/s) = 6.71247 7.97749 7.37216
#
# Compressibility (1/GPa) = 0.02366667
#
# Stress axis : x y z
#
# Youngs Moduli (GPa) = 37.12737 82.56766 109.46252
#
# Poissons Ratio (x) = 0.31273 0.40735
# Poissons Ratio (y) = 0.14062 0.51975
# Poissons Ratio (z) = 0.13817 0.39205
#
# Static dielectric constant tensor:
#      x y z
#    x 2.793490 0.000000 0.000000 
#    y 0.000000 3.158410 0.000000 
#    z 0.000000 0.000000 3.500280 
# 
# 
# High freq. dielectric constant tensor:
#      x y z
#    x 1.584470 0.000000 0.000000 
#    y 0.000000 1.637150 0.000000 
#    z 0.000000 0.000000 1.642570 
# 
# From -- ./inp_files/70902.got.cif
#   From: 2010.03.12/outbox.cif.g09.slc.cpg/sg65_36_cif.got.tgz:70902.got - 2010.04.10 20:52:16.
