data_PCOD8270226
_publ_section_title
;
Structure prediction by ZEFSAII (Michael W. Deem and Ramdas Pophale) SiO2 
 PCOD8270226
Probable space group: C M M M
;
_chemical_formula_sum "Si O2"
_cell_formula_units_Z 112
_cell_length_a 29.544490
_cell_length_b 14.831547
_cell_length_c 14.443991
_cell_angle_alpha 90.000000
_cell_angle_beta 90.000000
_cell_angle_gamma 90.000000
_cell_volume 6329.219523
_symmetry_space_group_name_H-M "C M M M"
_symmetry_group_IT_number 65
_symmetry_cell_setting 'orthorhombic'
loop_
_space_group_symop_operation_xyz
x,y,z
-x,-y,z
x,-y,-z
-x,y,-z
-x,-y,-z
x,y,-z
-x,y,z
x,-y,z
1/2+x,1/2+y,z
1/2-x,1/2-y,z
1/2+x,1/2-y,-z
1/2-x,1/2+y,-z
1/2-x,1/2-y,-z
1/2+x,1/2+y,-z
1/2-x,1/2+y,z
1/2+x,1/2-y,z
loop_
_atom_site_type_symbol
_atom_site_label
_atom_site_fract_x
_atom_site_fract_y
_atom_site_fract_z
Si Si1 0.199139 0.773733 0.228494
Si Si2 0.416842 0.904277 0.394293
Si Si3 0.635711 0.395720 0.891791
Si Si4 0.277189 0.603512 0.394690
Si Si5 0.179317 0.400069 0.320876
Si Si6 0.551249 0.604846 0.229023
Si Si7 0.552033 0.717627 0.602595
O O1 0.250000 0.750000 0.195959
O O2 0.174188 0.831358 0.150139
O O3 0.196937 0.830623 0.324172
O O4 0.174362 0.677405 0.242739
O O5 0.431705 0.909119 0.500000
O O6 0.363004 0.893105 0.388918
O O7 0.441586 0.817178 0.352141
O O8 0.431580 0.000000 0.346344
O O9 0.647845 0.500000 0.869804
O O10 0.585718 0.371322 0.853446
O O11 0.634147 0.377086 0.000000
O O12 0.290059 0.629489 0.500000
O O13 0.290900 0.500000 0.373685
O O14 0.223603 0.617662 0.382326
O O15 0.181740 0.500000 0.274000
O O16 0.500000 0.640334 0.205939
O O17 0.549363 0.500000 0.247945
O O18 0.572040 0.647958 0.323020
O O19 0.575391 0.708757 0.500000
O O20 0.500000 0.695335 0.590239
#
# Coordination Sequence:
#
# PCOD8270226 Si02
#       7
#    16  16  16  16  16  16  16
#     4  10  20  32  50  72  98 131 165 199 239 292
#     4   9  16  25  38  57  84 121 163 201 232 264
#     4  10  21  37  56  76  98 124 158 205 256 299
#     4   9  17  29  45  67  97 130 163 199 238 282
#     4   9  17  28  43  64  90 122 160 200 239 279
#     4   9  18  33  53  76 100 126 158 196 240 293
#     4   9  17  28  43  66  97 130 159 188 227 279
#
# _framework density 17.695706000000001
#
# number of rings (size 3 to 8) (size 9 to 14) (size 15 to 20)
#    0.000    2.714    0.000    1.714    0.000    6.571 
#    0.000    5.000    0.000    1.286    0.000    0.000 
#    0.000    0.000    0.000   12.286    0.000    0.429 
#
# Total GULP energy -693898.390614 kJ/mol
# GULP energy per Si atom -12391.042690 kJ/mol
# Density = 1.765543 g / cm^3
# Si number density = 17.695706 Si / 1000 Ang^3
#
#
#
# Elastic Constant Matrix: (Units=GPa)
#
#
# Indices 1 2 3 4 5 6 
#
# 1 49.5669 37.9498 41.1417 0.0000 0.0000 0.0000
# 2 37.9498 92.0689 58.0230 0.0000 0.0000 0.0000
# 3 41.1417 58.0230 99.7803 0.0000 0.0000 0.0000
# 4 0.0000 0.0000 0.0000 17.3331 0.0000 0.0000
# 5 0.0000 0.0000 0.0000 0.0000 22.5120 0.0000
# 6 0.0000 0.0000 0.0000 0.0000 0.0000 25.3861
#
#
#
# Elastic Compliance Matrix: (Units=1/GPa)
#
#
# Indices 1 2 3 4 5 6 
#
# 1 0.034211 -0.008226 -0.009322 0.000000 0.000000 0.000000
# 2 -0.008226 0.019123 -0.007728 0.000000 0.000000 0.000000
# 3 -0.009322 -0.007728 0.018360 0.000000 0.000000 0.000000
# 4 0.000000 0.000000 0.000000 0.057693 0.000000 0.000000
# 5 0.000000 0.000000 0.000000 0.000000 0.044421 0.000000
# 6 0.000000 0.000000 0.000000 0.000000 0.000000 0.039392
#
#
# Mechanical properties :
#
#
# Convention : Reuss Voigt Hill
#
# Bulk Modulus (GPa) = 47.30399 57.29392 52.29896
# Shear Modulus (GPa) = 18.46395 19.99967 19.23181
#
# Velocity S-wave (km/s) = 3.23370 3.36549 3.30025
# Velocity P-wave (km/s) = 6.38219 6.89562 6.64387
#
# Compressibility (1/GPa) = 0.02113987
#
# Stress axis : x y z
#
# Youngs Moduli (GPa) = 29.23063 52.29435 54.46729
#
# Poissons Ratio (x) = 0.43019 0.50775
# Poissons Ratio (y) = 0.24046 0.42092
# Poissons Ratio (z) = 0.27249 0.40413
#
# Static dielectric constant tensor:
#      x y z
#    x 3.232730 0.000000 0.000000 
#    y 0.000000 3.718410 0.000000 
#    z 0.000000 0.000000 3.083040 
# 
# 
# High freq. dielectric constant tensor:
#      x y z
#    x 1.676520 0.000000 0.000000 
#    y 0.000000 1.699990 0.000000 
#    z 0.000000 0.000000 1.637770 
# 
# From -- ./inp_files/47946.got.cif
#   From: 2010.03.12/outbox.cif.g09.slc.cpg/sg65_24_cif.got.tgz:47946.got - 2010.04.10 20:52:16.
