data_PCOD8270706
_publ_section_title
;
Structure prediction by ZEFSAII (Michael W. Deem and Ramdas Pophale) SiO2 
 PCOD8270706
Probable space group: C M M M
;
_chemical_formula_sum "Si O2"
_cell_formula_units_Z 88
_cell_length_a 18.674423
_cell_length_b 9.058560
_cell_length_c 28.165754
_cell_angle_alpha 90.000000
_cell_angle_beta 90.000000
_cell_angle_gamma 90.000000
_cell_volume 4764.614181
_symmetry_space_group_name_H-M "C M M M"
_symmetry_group_IT_number 65
_symmetry_cell_setting 'orthorhombic'
loop_
_space_group_symop_operation_xyz
x,y,z
-x,-y,z
x,-y,-z
-x,y,-z
-x,-y,-z
x,y,-z
-x,y,z
x,-y,z
1/2+x,1/2+y,z
1/2-x,1/2-y,z
1/2+x,1/2-y,-z
1/2-x,1/2+y,-z
1/2-x,1/2-y,-z
1/2+x,1/2+y,-z
1/2-x,1/2+y,z
1/2+x,1/2-y,z
loop_
_atom_site_type_symbol
_atom_site_label
_atom_site_fract_x
_atom_site_fract_y
_atom_site_fract_z
Si Si1 0.417580 0.827158 0.590298
Si Si2 0.673687 0.825777 0.500000
Si Si3 0.084883 0.167973 0.870458
Si Si4 0.823136 0.672140 0.944958
Si Si5 0.085372 0.333185 0.222999
Si Si6 0.914754 0.833562 0.315409
O O1 0.500000 0.786143 0.579572
O O2 0.370600 0.774236 0.545941
O O3 0.387757 0.742939 0.636414
O O4 0.409661 0.000000 0.600071
O O5 0.750000 0.750000 0.500000
O O6 0.684350 0.000000 0.500000
O O7 0.112288 0.256821 0.915886
O O8 0.114146 0.244198 0.822556
O O9 0.000000 0.173963 0.872061
O O10 0.112730 0.000000 0.871694
O O11 0.817062 0.500000 0.933391
O O12 0.750000 0.750000 0.929197
O O13 0.839655 0.701306 0.000000
O O14 0.114766 0.500000 0.220872
O O15 0.115916 0.255141 0.270251
O O16 0.000000 0.332396 0.223770
O O17 0.000000 0.831593 0.313901
O O18 0.885140 0.000000 0.313575
#
# Coordination Sequence:
#
# PCOD8270706 Si02
#       6
#    16   8  16  16  16  16
#     4   9  17  31  51  73  96 125 164 205 242 284
#     4  10  21  35  51  71  97 130 164 200 244 294
#     4  10  20  33  51  77 108 139 171 210 255 302
#     4  10  21  37  56  76 100 133 173 215 258 306
#     4   9  16  27  45  70 101 135 168 202 244 296
#     4   9  16  26  43  70 101 129 159 199 247 294
#
# _framework density 18.46949
#
# number of rings (size 3 to 8) (size 9 to 14) (size 15 to 20)
#    0.000    2.545    0.000    2.455    0.000    8.727 
#    0.000    1.818    0.000    3.818    0.000    5.091 
#    0.000    0.000    0.000    0.000    0.000    0.000 
#
# Total GULP energy -545672.329449 kJ/mol
# GULP energy per Si atom -12401.643851 kJ/mol
# Density = 1.842745 g / cm^3
# Si number density = 18.469490 Si / 1000 Ang^3
#
#
#
# Elastic Constant Matrix: (Units=GPa)
#
#
# Indices 1 2 3 4 5 6 
#
# 1 38.5183 31.9041 41.3588 0.0000 0.0000 0.0000
# 2 31.9041 134.5686 82.2487 0.0000 0.0000 0.0000
# 3 41.3588 82.2487 148.0650 0.0000 0.0000 0.0000
# 4 0.0000 0.0000 0.0000 35.5856 0.0000 0.0000
# 5 0.0000 0.0000 0.0000 0.0000 3.9805 0.0000
# 6 0.0000 0.0000 0.0000 0.0000 0.0000 24.4824
#
#
#
# Elastic Compliance Matrix: (Units=1/GPa)
#
#
# Indices 1 2 3 4 5 6 
#
# 1 0.038361 -0.003854 -0.008574 0.000000 0.000000 0.000000
# 2 -0.003854 0.011638 -0.005388 0.000000 0.000000 0.000000
# 3 -0.008574 -0.005388 0.012142 0.000000 0.000000 0.000000
# 4 0.000000 0.000000 0.000000 0.028101 0.000000 0.000000
# 5 0.000000 0.000000 0.000000 0.000000 0.251225 0.000000
# 6 0.000000 0.000000 0.000000 0.000000 0.000000 0.040846
#
#
# Mechanical properties :
#
#
# Convention : Reuss Voigt Hill
#
# Bulk Modulus (GPa) = 37.72539 70.24169 53.98354
# Shear Modulus (GPa) = 11.71557 23.85237 17.78397
#
# Velocity S-wave (km/s) = 2.52130 3.59757 3.10640
# Velocity P-wave (km/s) = 5.38016 7.44113 6.49294
#
# Compressibility (1/GPa) = 0.02650735
#
# Stress axis : x y z
#
# Youngs Moduli (GPa) = 26.06845 85.92317 82.35832
#
# Poissons Ratio (x) = 0.33115 0.70617
# Poissons Ratio (y) = 0.10047 0.44378
# Poissons Ratio (z) = 0.22352 0.46299
#
# Static dielectric constant tensor:
#      x y z
#    x 2.918670 0.000000 0.000000 
#    y 0.000000 3.570590 0.000000 
#    z 0.000000 0.000000 3.568180 
# 
# 
# High freq. dielectric constant tensor:
#      x y z
#    x 1.664810 0.000000 0.000000 
#    y 0.000000 1.729190 0.000000 
#    z 0.000000 0.000000 1.731500 
# 
# From -- ./inp_files/67557.got.cif
#   From: 2010.03.12/outbox.cif.g09.slc.cpg/sg65_34_cif.got.tgz:67557.got - 2010.04.10 20:52:16.
