data_PCOD8270796
_publ_section_title
;
Structure prediction by ZEFSAII (Michael W. Deem and Ramdas Pophale) SiO2 
 PCOD8270796
Probable space group: C M M M
;
_chemical_formula_sum "Si O2"
_cell_formula_units_Z 80
_cell_length_a 19.492358
_cell_length_b 24.849906
_cell_length_c 9.141814
_cell_angle_alpha 90.000000
_cell_angle_beta 90.000000
_cell_angle_gamma 90.000000
_cell_volume 4428.141704
_symmetry_space_group_name_H-M "C M M M"
_symmetry_group_IT_number 65
_symmetry_cell_setting 'orthorhombic'
loop_
_space_group_symop_operation_xyz
x,y,z
-x,-y,z
x,-y,-z
-x,y,-z
-x,-y,-z
x,y,-z
-x,y,z
x,-y,z
1/2+x,1/2+y,z
1/2-x,1/2-y,z
1/2+x,1/2-y,-z
1/2-x,1/2+y,-z
1/2-x,1/2-y,-z
1/2+x,1/2+y,-z
1/2-x,1/2+y,z
1/2+x,1/2-y,z
loop_
_atom_site_type_symbol
_atom_site_label
_atom_site_fract_x
_atom_site_fract_y
_atom_site_fract_z
Si Si1 0.418551 0.755731 0.661885
Si Si2 0.677190 0.937382 0.670476
Si Si3 0.814903 0.937446 0.170065
Si Si4 0.081214 0.358531 0.167159
Si Si5 0.420289 0.364178 0.670430
O O1 0.389750 0.769375 0.500000
O O2 0.500000 0.755286 0.655500
O O3 0.391862 0.800721 0.774601
O O4 0.394378 0.696182 0.710175
O O5 0.682537 0.924335 0.500000
O O6 0.747053 0.917681 0.746240
O O7 0.613250 0.906213 0.738640
O O8 0.664152 0.000000 0.700898
O O9 0.880060 0.905861 0.229924
O O10 0.828570 0.000000 0.200204
O O11 0.804786 0.925099 0.000000
O O12 0.000000 0.363220 0.184859
O O13 0.104503 0.364131 0.000000
O O14 0.406856 0.376197 0.500000
O O15 0.500000 0.371097 0.708479
#
# Coordination Sequence:
#
# PCOD8270796 Si02
#       5
#    16  16  16  16  16
#     4   8  15  30  51  74 102 135 169 206 249 296
#     4  10  21  37  56  75  98 133 174 213 254 301
#     4  10  21  36  53  74 103 137 170 209 259 309
#     4  10  20  33  52  79 108 136 166 204 252 303
#     4   9  18  33  54  79 105 135 172 212 252 296
#
# _framework density 18.066268999999998
#
# number of rings (size 3 to 8) (size 9 to 14) (size 15 to 20)
#    0.000    2.600    0.000    3.000    0.000    5.600 
#    0.000    7.000    0.000    6.000    0.000    0.000 
#    0.000    0.000    0.000    0.000    0.000    0.000 
#
# Total GULP energy -496018.079063 kJ/mol
# GULP energy per Si atom -12400.451977 kJ/mol
# Density = 1.802515 g / cm^3
# Si number density = 18.066269 Si / 1000 Ang^3
#
#
#
# Elastic Constant Matrix: (Units=GPa)
#
#
# Indices 1 2 3 4 5 6 
#
# 1 56.7641 46.3196 50.7245 0.0000 0.0000 0.0000
# 2 46.3196 90.4906 67.2945 0.0000 0.0000 0.0000
# 3 50.7245 67.2945 122.2911 0.0000 0.0000 0.0000
# 4 0.0000 0.0000 0.0000 33.8673 0.0000 0.0000
# 5 0.0000 0.0000 0.0000 0.0000 32.5878 0.0000
# 6 0.0000 0.0000 0.0000 0.0000 0.0000 7.4067
#
#
#
# Elastic Compliance Matrix: (Units=1/GPa)
#
#
# Indices 1 2 3 4 5 6 
#
# 1 0.034029 -0.011717 -0.007667 0.000000 0.000000 0.000000
# 2 -0.011717 0.022740 -0.007653 0.000000 0.000000 0.000000
# 3 -0.007667 -0.007653 0.015569 0.000000 0.000000 0.000000
# 4 0.000000 0.000000 0.000000 0.029527 0.000000 0.000000
# 5 0.000000 0.000000 0.000000 0.000000 0.030686 0.000000
# 6 0.000000 0.000000 0.000000 0.000000 0.000000 0.135012
#
#
# Mechanical properties :
#
#
# Convention : Reuss Voigt Hill
#
# Bulk Modulus (GPa) = 54.75487 66.46922 60.61205
# Shear Modulus (GPa) = 15.25665 21.78619 18.52142
#
# Velocity S-wave (km/s) = 2.90915 3.47638 3.20534
# Velocity P-wave (km/s) = 6.45429 7.27911 6.87907
#
# Compressibility (1/GPa) = 0.01826321
#
# Stress axis : x y z
#
# Youngs Moduli (GPa) = 29.38668 43.97557 64.23007
#
# Poissons Ratio (x) = 0.51525 0.49247
# Poissons Ratio (y) = 0.34431 0.49158
# Poissons Ratio (z) = 0.22532 0.33657
#
# Static dielectric constant tensor:
#      x y z
#    x 3.078730 0.000000 0.000000 
#    y 0.000000 3.455050 0.000000 
#    z 0.000000 0.000000 3.468820 
# 
# 
# High freq. dielectric constant tensor:
#      x y z
#    x 1.676520 0.000000 0.000000 
#    y 0.000000 1.704720 0.000000 
#    z 0.000000 0.000000 1.707920 
# 
# From -- ./inp_files/9590.got.cif
#   From: 2010.03.12/outbox.cif.g09.slc.cpg/sg65_5_cif.got.tgz:9590.got - 2010.04.10 20:52:16.
