data_PCOD8270325
_publ_section_title
;
Structure prediction by ZEFSAII (Michael W. Deem and Ramdas Pophale) SiO2 
 PCOD8270325
Probable space group: C M M M
;
_chemical_formula_sum "Si O2"
_cell_formula_units_Z 88
_cell_length_a 26.330794
_cell_length_b 20.000386
_cell_length_c 9.020537
_cell_angle_alpha 90.000000
_cell_angle_beta 90.000000
_cell_angle_gamma 90.000000
_cell_volume 4750.449712
_symmetry_space_group_name_H-M "C M M M"
_symmetry_group_IT_number 65
_symmetry_cell_setting 'orthorhombic'
loop_
_space_group_symop_operation_xyz
x,y,z
-x,-y,z
x,-y,-z
-x,y,-z
-x,-y,-z
x,y,-z
-x,y,z
x,-y,z
1/2+x,1/2+y,z
1/2-x,1/2-y,z
1/2+x,1/2-y,-z
1/2-x,1/2+y,-z
1/2-x,1/2-y,-z
1/2+x,1/2+y,-z
1/2-x,1/2+y,z
1/2+x,1/2-y,z
loop_
_atom_site_type_symbol
_atom_site_label
_atom_site_fract_x
_atom_site_fract_y
_atom_site_fract_z
Si Si1 0.856405 0.766444 0.825942
Si Si2 0.835804 0.500000 0.832296
Si Si3 0.784697 0.867040 0.671226
Si Si4 0.284952 0.500000 0.167261
Si Si5 0.439594 0.500000 0.666659
Si Si6 0.557415 0.630851 0.171846
Si Si7 0.835420 0.633155 0.328619
O O1 0.809083 0.803541 0.750888
O O2 0.908548 0.805074 0.791337
O O3 0.862824 0.693693 0.755089
O O4 0.845557 0.760299 0.000000
O O5 0.775381 0.500000 0.833114
O O6 0.855701 0.434847 0.745955
O O7 0.857032 0.500000 0.000000
O O8 0.800775 0.868364 0.500000
O O9 0.805228 0.934627 0.747929
O O10 0.724734 0.859916 0.690087
O O11 0.306489 0.500000 0.000000
O O12 0.500000 0.500000 0.677612
O O13 0.419429 0.500000 0.500000
O O14 0.418904 0.566770 0.744999
O O15 0.500000 0.646779 0.224989
O O16 0.558518 0.612840 0.000000
O O17 0.851320 0.633046 0.500000
#
# Coordination Sequence:
#
# PCOD8270325 Si02
#       7
#    16   8  16   8   8  16  16
#     4  11  22  33  49  73  98 127 164 204 245 289
#     4   9  17  31  52  74  96 125 163 203 237 277
#     4  10  20  33  48  68  98 134 167 200 240 287
#     4   9  17  30  48  69  94 128 169 208 241 276
#     4   9  17  30  51  76  97 122 161 206 247 286
#     4   9  19  36  54  71  95 128 164 202 245 291
#     4  10  20  34  51  72 100 132 163 196 239 290
#
# _framework density 18.524562
#
# number of rings (size 3 to 8) (size 9 to 14) (size 15 to 20)
#    0.000    2.273    0.000    3.000    0.000    9.818 
#    0.000    0.909    0.000    0.000    0.000    0.636 
#    0.000    5.091    0.000    0.000    0.000    0.000 
#
# Total GULP energy -545738.502687 kJ/mol
# GULP energy per Si atom -12403.147788 kJ/mol
# Density = 1.848240 g / cm^3
# Si number density = 18.524562 Si / 1000 Ang^3
#
#
#
# Elastic Constant Matrix: (Units=GPa)
#
#
# Indices 1 2 3 4 5 6 
#
# 1 34.6776 33.3591 35.9618 0.0000 0.0000 0.0000
# 2 33.3591 178.2022 91.4112 0.0000 0.0000 0.0000
# 3 35.9618 91.4112 148.7287 0.0000 0.0000 0.0000
# 4 0.0000 0.0000 0.0000 39.3564 0.0000 0.0000
# 5 0.0000 0.0000 0.0000 0.0000 16.2317 0.0000
# 6 0.0000 0.0000 0.0000 0.0000 0.0000 9.3477
#
#
#
# Elastic Compliance Matrix: (Units=1/GPa)
#
#
# Indices 1 2 3 4 5 6 
#
# 1 0.040090 -0.003698 -0.007420 0.000000 0.000000 0.000000
# 2 -0.003698 0.008537 -0.004353 0.000000 0.000000 0.000000
# 3 -0.007420 -0.004353 0.011193 0.000000 0.000000 0.000000
# 4 0.000000 0.000000 0.000000 0.025409 0.000000 0.000000
# 5 0.000000 0.000000 0.000000 0.000000 0.061608 0.000000
# 6 0.000000 0.000000 0.000000 0.000000 0.000000 0.106978
#
#
# Mechanical properties :
#
#
# Convention : Reuss Voigt Hill
#
# Bulk Modulus (GPa) = 34.62967 75.89696 55.26331
# Shear Modulus (GPa) = 16.98467 26.37892 21.68180
#
# Velocity S-wave (km/s) = 3.03128 3.77768 3.42487
# Velocity P-wave (km/s) = 5.56651 7.75163 6.74810
#
# Compressibility (1/GPa) = 0.02887698
#
# Stress axis : x y z
#
# Youngs Moduli (GPa) = 24.94388 117.14269 89.34148
#
# Poissons Ratio (x) = 0.43323 0.66296
# Poissons Ratio (y) = 0.09225 0.38886
# Poissons Ratio (z) = 0.18510 0.50986
#
# Static dielectric constant tensor:
#      x y z
#    x 3.041830 0.000000 0.000000 
#    y 0.000000 3.534470 0.000000 
#    z 0.000000 0.000000 3.573130 
# 
# 
# High freq. dielectric constant tensor:
#      x y z
#    x 1.672140 0.000000 0.000000 
#    y 0.000000 1.725500 0.000000 
#    z 0.000000 0.000000 1.734010 
# 
# From -- ./inp_files/18377.got.cif
#   From: 2010.03.12/outbox.cif.g09.slc.cpg/sg65_10_cif.got.tgz:18377.got - 2010.04.10 20:52:16.
