data_PCOD8270166
_publ_section_title
;
Structure prediction by ZEFSAII (Michael W. Deem and Ramdas Pophale) SiO2 
 PCOD8270166
Probable space group: C M M M
;
_chemical_formula_sum "Si O2"
_cell_formula_units_Z 104
_cell_length_a 28.219663
_cell_length_b 20.951186
_cell_length_c 8.951526
_cell_angle_alpha 90.000000
_cell_angle_beta 90.000000
_cell_angle_gamma 90.000000
_cell_volume 5292.459130
_symmetry_space_group_name_H-M "C M M M"
_symmetry_group_IT_number 65
_symmetry_cell_setting 'orthorhombic'
loop_
_space_group_symop_operation_xyz
x,y,z
-x,-y,z
x,-y,-z
-x,y,-z
-x,-y,-z
x,y,-z
-x,y,z
x,-y,z
1/2+x,1/2+y,z
1/2-x,1/2-y,z
1/2+x,1/2-y,-z
1/2-x,1/2+y,-z
1/2-x,1/2-y,-z
1/2+x,1/2+y,-z
1/2-x,1/2+y,z
1/2+x,1/2-y,z
loop_
_atom_site_type_symbol
_atom_site_label
_atom_site_fract_x
_atom_site_fract_y
_atom_site_fract_z
Si Si1 0.125062 0.901275 0.323978
Si Si2 0.691912 0.148348 0.826237
Si Si3 0.552726 0.829598 0.170821
Si Si4 0.110413 0.571167 0.324153
Si Si5 0.280971 0.430031 0.169333
Si Si6 0.634124 0.732325 0.828168
Si Si7 0.444012 0.500000 0.177419
O O1 0.117269 0.907554 0.500000
O O2 0.174268 0.933727 0.278069
O O3 0.130690 0.827745 0.278976
O O4 0.080868 0.936458 0.244048
O O5 0.657835 0.104099 0.732031
O O6 0.745359 0.127293 0.783363
O O7 0.680561 0.223274 0.793133
O O8 0.682074 0.134489 0.000000
O O9 0.500000 0.805676 0.206320
O O10 0.564084 0.891181 0.269878
O O11 0.587309 0.771934 0.209495
O O12 0.559193 0.850437 0.000000
O O13 0.111439 0.570930 0.500000
O O14 0.107725 0.500000 0.259264
O O15 0.255923 0.500000 0.178975
O O16 0.298568 0.417059 0.000000
O O17 0.635466 0.709490 0.000000
O O18 0.500000 0.500000 0.219123
O O19 0.437073 0.500000 0.000000
#
# Coordination Sequence:
#
# PCOD8270166 Si02
#       7
#    16  16  16  16  16  16   8
#     4  12  25  40  61  91 125 155 187 231 289 354
#     4   9  19  36  59  86 112 151 204 249 284 330
#     4   9  19  36  57  79 103 139 191 245 290 338
#     4  10  20  32  48  75 113 153 189 233 291 350
#     4  10  20  36  61  88 118 157 201 244 288 340
#     4   9  19  37  59  83 116 153 195 244 291 345
#     4  11  25  47  73  95 117 151 197 247 300 357
#
# _framework density 19.650601000000002
#
# number of rings (size 3 to 8) (size 9 to 14) (size 15 to 20)
#    0.000    2.077    0.769    3.462    0.000    7.385 
#    0.000    6.154    0.000    0.000    0.000    0.000 
#    0.000    0.000    0.000    0.000    0.000    0.000 
#
# Total GULP energy -644616.853599 kJ/mol
# GULP energy per Si atom -12396.477954 kJ/mol
# Density = 1.960588 g / cm^3
# Si number density = 19.650601 Si / 1000 Ang^3
#
#
#
# Elastic Constant Matrix: (Units=GPa)
#
#
# Indices 1 2 3 4 5 6 
#
# 1 118.2139 50.2160 35.2429 0.0000 0.0000 0.0000
# 2 50.2160 131.0489 45.3006 0.0000 0.0000 0.0000
# 3 35.2429 45.3006 77.5634 0.0000 0.0000 0.0000
# 4 0.0000 0.0000 0.0000 30.0345 0.0000 0.0000
# 5 0.0000 0.0000 0.0000 0.0000 -21.3695 0.0000
# 6 0.0000 0.0000 0.0000 0.0000 0.0000 23.1108
#
#
#
# Elastic Compliance Matrix: (Units=1/GPa)
#
#
# Indices 1 2 3 4 5 6 
#
# 1 0.010660 -0.003020 -0.003080 0.000000 0.000000 0.000000
# 2 -0.003020 0.010417 -0.004712 0.000000 0.000000 0.000000
# 3 -0.003080 -0.004712 0.017044 0.000000 0.000000 0.000000
# 4 0.000000 0.000000 0.000000 0.033295 0.000000 0.000000
# 5 0.000000 0.000000 0.000000 0.000000 -0.046796 0.000000
# 6 0.000000 0.000000 0.000000 0.000000 0.000000 0.043270
#
#
# Mechanical properties :
#
#
# Convention : Reuss Voigt Hill
#
# Bulk Modulus (GPa) = 60.61454 65.37168 62.99311
# Shear Modulus (GPa) = 52.62456 19.42627 36.02542
#
# Velocity S-wave (km/s) = 5.18057 3.14759 4.28635
# Velocity P-wave (km/s) = 8.16685 6.82268 7.52484
#
# Compressibility (1/GPa) = 0.01649769
#
# Stress axis : x y z
#
# Youngs Moduli (GPa) = 93.80497 95.99941 58.67228
#
# Poissons Ratio (x) = 0.28994 0.18070
# Poissons Ratio (y) = 0.28332 0.27644
# Poissons Ratio (z) = 0.28890 0.45230
#
# Static dielectric constant tensor:
#      x y z
#    x 3.825980 0.000000 0.000000 
#    y 0.000000 3.753260 0.000000 
#    z 0.000000 0.000000 3.457310 
# 
# 
# High freq. dielectric constant tensor:
#      x y z
#    x 1.762390 0.000000 0.000000 
#    y 0.000000 1.774540 0.000000 
#    z 0.000000 0.000000 1.754710 
# 
# From -- ./inp_files/16468.got.cif
#   From: 2010.03.12/outbox.cif.g09.slc.cpg/sg65_9_cif.got.tgz:16468.got - 2010.04.10 20:52:16.
