data_PCOD8270593
_publ_section_title
;
Structure prediction by ZEFSAII (Michael W. Deem and Ramdas Pophale) SiO2 
 PCOD8270593
Probable space group: C M M M
;
_chemical_formula_sum "Si O2"
_cell_formula_units_Z 88
_cell_length_a 18.528821
_cell_length_b 19.616584
_cell_length_c 14.180322
_cell_angle_alpha 90.000000
_cell_angle_beta 90.000000
_cell_angle_gamma 90.000000
_cell_volume 5154.152459
_symmetry_space_group_name_H-M "C M M M"
_symmetry_group_IT_number 65
_symmetry_cell_setting 'orthorhombic'
loop_
_space_group_symop_operation_xyz
x,y,z
-x,-y,z
x,-y,-z
-x,y,-z
-x,-y,-z
x,y,-z
-x,y,z
x,-y,z
1/2+x,1/2+y,z
1/2-x,1/2-y,z
1/2+x,1/2-y,-z
1/2-x,1/2+y,-z
1/2-x,1/2-y,-z
1/2+x,1/2+y,-z
1/2-x,1/2+y,z
1/2+x,1/2-y,z
loop_
_atom_site_type_symbol
_atom_site_label
_atom_site_fract_x
_atom_site_fract_y
_atom_site_fract_z
Si Si1 0.720277 0.323847 0.245144
Si Si2 0.779919 0.422319 0.390646
Si Si3 0.918661 0.246437 0.220281
Si Si4 0.918955 0.500000 0.887963
Si Si5 0.155414 0.638230 0.888803
Si Si6 0.419738 0.841336 0.393473
O O1 0.750000 0.250000 0.277003
O O2 0.724651 0.375528 0.332537
O O3 0.636714 0.317045 0.212969
O O4 0.766254 0.351747 0.157294
O O5 0.760581 0.413695 0.500000
O O6 0.771385 0.500000 0.357771
O O7 0.862215 0.399944 0.369129
O O8 0.900088 0.302937 0.141848
O O9 0.908962 0.277703 0.324499
O O10 0.000000 0.220115 0.203145
O O11 0.876718 0.433294 0.852541
O O12 0.000000 0.500000 0.846033
O O13 0.922955 0.500000 0.000000
O O14 0.165722 0.640529 0.000000
O O15 0.408426 0.814202 0.500000
O O16 0.500000 0.872768 0.380694
#
# Coordination Sequence:
#
# PCOD8270593 Si02
#       6
#    16  16  16   8  16  16
#     4  10  20  34  51  75 100 137 172 213 255 303
#     4  10  20  33  51  76 104 135 171 209 253 307
#     4  10  20  34  50  73  99 131 175 214 256 301
#     4   9  18  32  50  74 102 134 166 193 238 306
#     4  10  20  33  50  76 107 137 169 207 251 304
#     4   9  17  30  48  72 104 135 164 202 247 300
#
# _framework density 17.073612000000001
#
# number of rings (size 3 to 8) (size 9 to 14) (size 15 to 20)
#    0.000    2.273    3.636    0.545    1.273    5.818 
#    0.000    1.818    0.000    0.545    0.000    1.273 
#    0.000    2.182    0.000    0.000    0.000    0.000 
#
# Total GULP energy -545559.516273 kJ/mol
# GULP energy per Si atom -12399.079915 kJ/mol
# Density = 1.703475 g / cm^3
# Si number density = 17.073612 Si / 1000 Ang^3
#
#
#
# Elastic Constant Matrix: (Units=GPa)
#
#
# Indices 1 2 3 4 5 6 
#
# 1 147.6556 71.0528 40.8910 0.0000 0.0000 0.0000
# 2 71.0528 94.2231 38.6568 0.0000 0.0000 0.0000
# 3 40.8910 38.6568 71.7011 0.0000 0.0000 0.0000
# 4 0.0000 0.0000 0.0000 26.2838 0.0000 0.0000
# 5 0.0000 0.0000 0.0000 0.0000 21.2145 0.0000
# 6 0.0000 0.0000 0.0000 0.0000 0.0000 26.1185
#
#
#
# Elastic Compliance Matrix: (Units=1/GPa)
#
#
# Indices 1 2 3 4 5 6 
#
# 1 0.010916 -0.007290 -0.002295 0.000000 0.000000 0.000000
# 2 -0.007290 0.018496 -0.005814 0.000000 0.000000 0.000000
# 3 -0.002295 -0.005814 0.018390 0.000000 0.000000 0.000000
# 4 0.000000 0.000000 0.000000 0.038046 0.000000 0.000000
# 5 0.000000 0.000000 0.000000 0.000000 0.047138 0.000000
# 6 0.000000 0.000000 0.000000 0.000000 0.000000 0.038287
#
#
# Mechanical properties :
#
#
# Convention : Reuss Voigt Hill
#
# Bulk Modulus (GPa) = 58.81171 68.30900 63.56035
# Shear Modulus (GPa) = 24.06850 25.58864 24.82857
#
# Velocity S-wave (km/s) = 3.75866 3.87554 3.81754
# Velocity P-wave (km/s) = 7.30462 7.75382 7.53257
#
# Compressibility (1/GPa) = 0.01700342
#
# Stress axis : x y z
#
# Youngs Moduli (GPa) = 91.60709 54.06569 54.37631
#
# Poissons Ratio (x) = 0.39415 0.12480
# Poissons Ratio (y) = 0.66783 0.31616
# Poissons Ratio (z) = 0.21024 0.31436
#
# Static dielectric constant tensor:
#      x y z
#    x 3.373240 0.000000 0.000000 
#    y 0.000000 3.072240 0.000000 
#    z 0.000000 0.000000 3.206060 
# 
# 
# High freq. dielectric constant tensor:
#      x y z
#    x 1.650390 0.000000 0.000000 
#    y 0.000000 1.629490 0.000000 
#    z 0.000000 0.000000 1.665600 
# 
# From -- ./inp_files/42474.got.cif
#   From: 2010.03.12/outbox.cif.g09.slc.cpg/sg65_22_cif.got.tgz:42474.got - 2010.04.10 20:52:16.
