data_PCOD8270268
_publ_section_title
;
Structure prediction by ZEFSAII (Michael W. Deem and Ramdas Pophale) SiO2 
 PCOD8270268
Probable space group: C M M M
;
_chemical_formula_sum "Si O2"
_cell_formula_units_Z 72
_cell_length_a 28.944062
_cell_length_b 14.867090
_cell_length_c 9.394498
_cell_angle_alpha 90.000000
_cell_angle_beta 90.000000
_cell_angle_gamma 90.000000
_cell_volume 4042.583775
_symmetry_space_group_name_H-M "C M M M"
_symmetry_group_IT_number 65
_symmetry_cell_setting 'orthorhombic'
loop_
_space_group_symop_operation_xyz
x,y,z
-x,-y,z
x,-y,-z
-x,y,-z
-x,-y,-z
x,y,-z
-x,y,z
x,-y,z
1/2+x,1/2+y,z
1/2-x,1/2-y,z
1/2+x,1/2-y,-z
1/2-x,1/2+y,-z
1/2-x,1/2-y,-z
1/2+x,1/2+y,-z
1/2-x,1/2+y,z
1/2+x,1/2-y,z
loop_
_atom_site_type_symbol
_atom_site_label
_atom_site_fract_x
_atom_site_fract_y
_atom_site_fract_z
Si Si1 0.552167 0.669560 0.336921
Si Si2 0.298462 0.104552 0.835094
Si Si3 0.708145 0.397988 0.336303
Si Si4 0.445284 0.500000 0.158422
Si Si5 0.857795 0.735621 0.662038
O O1 0.553847 0.636281 0.500000
O O2 0.500000 0.699756 0.295422
O O3 0.571027 0.588437 0.240961
O O4 0.587112 0.752827 0.314184
O O5 0.251270 0.133559 0.758467
O O6 0.340974 0.158790 0.768197
O O7 0.308932 0.000000 0.810997
O O8 0.293834 0.129173 0.000000
O O9 0.723918 0.392106 0.500000
O O10 0.692851 0.500000 0.297108
O O11 0.666038 0.331445 0.303771
O O12 0.500000 0.500000 0.151799
O O13 0.423716 0.500000 0.000000
O O14 0.847039 0.706332 0.500000
#
# Coordination Sequence:
#
# PCOD8270268 Si02
#       5
#    16  16  16   8  16
#     4   9  18  32  50  72 100 133 167 205 248 292
#     4  10  21  36  52  71  98 130 165 207 254 301
#     4   9  18  32  50  73 103 134 163 198 240 292
#     4   9  17  29  45  67  97 133 169 201 237 285
#     4  10  20  32  52  77 100 130 169 207 245 294
#
# _framework density 17.810390999999999
#
# number of rings (size 3 to 8) (size 9 to 14) (size 15 to 20)
#    0.000    2.556    0.000    1.667    1.556    7.111 
#    0.000    0.000    0.000    0.667    0.000    4.667 
#    0.000    0.000    0.000    0.000    0.000    0.000 
#
# Total GULP energy -446409.408853 kJ/mol
# GULP energy per Si atom -12400.261357 kJ/mol
# Density = 1.776985 g / cm^3
# Si number density = 17.810391 Si / 1000 Ang^3
#
#
#
# Elastic Constant Matrix: (Units=GPa)
#
#
# Indices 1 2 3 4 5 6 
#
# 1 95.5042 40.5217 45.9632 0.0000 0.0000 0.0000
# 2 40.5217 55.4960 39.4511 0.0000 0.0000 0.0000
# 3 45.9632 39.4511 90.8303 0.0000 0.0000 0.0000
# 4 0.0000 0.0000 0.0000 29.3788 0.0000 0.0000
# 5 0.0000 0.0000 0.0000 0.0000 11.7848 0.0000
# 6 0.0000 0.0000 0.0000 0.0000 0.0000 23.6194
#
#
#
# Elastic Compliance Matrix: (Units=1/GPa)
#
#
# Indices 1 2 3 4 5 6 
#
# 1 0.016332 -0.008753 -0.004463 0.000000 0.000000 0.000000
# 2 -0.008753 0.030759 -0.008931 0.000000 0.000000 0.000000
# 3 -0.004463 -0.008931 0.017147 0.000000 0.000000 0.000000
# 4 0.000000 0.000000 0.000000 0.034038 0.000000 0.000000
# 5 0.000000 0.000000 0.000000 0.000000 0.084855 0.000000
# 6 0.000000 0.000000 0.000000 0.000000 0.000000 0.042338
#
#
# Mechanical properties :
#
#
# Convention : Reuss Voigt Hill
#
# Bulk Modulus (GPa) = 50.13694 54.85583 52.49638
# Shear Modulus (GPa) = 18.08902 20.68291 19.38597
#
# Velocity S-wave (km/s) = 3.19038 3.41146 3.30277
# Velocity P-wave (km/s) = 6.46396 6.81059 6.63954
#
# Compressibility (1/GPa) = 0.01994537
#
# Stress axis : x y z
#
# Youngs Moduli (GPa) = 61.22792 32.51090 58.31951
#
# Poissons Ratio (x) = 0.28456 0.26029
# Poissons Ratio (y) = 0.53591 0.52083
# Poissons Ratio (z) = 0.27327 0.29034
#
# Static dielectric constant tensor:
#      x y z
#    x 3.255300 0.000000 0.000000 
#    y 0.000000 3.132070 0.000000 
#    z 0.000000 0.000000 3.433830 
# 
# 
# High freq. dielectric constant tensor:
#      x y z
#    x 1.679590 0.000000 0.000000 
#    y 0.000000 1.667640 0.000000 
#    z 0.000000 0.000000 1.691050 
# 
# From -- ./inp_files/7224.got.cif
#   From: 2010.03.12/outbox.cif.g09.slc.cpg/sg65_4_cif.got.tgz:7224.got - 2010.04.10 20:52:16.
