data_PCOD8270139
_publ_section_title
;
Structure prediction by ZEFSAII (Michael W. Deem and Ramdas Pophale) SiO2 
 PCOD8270139
Probable space group: C M M M
;
_chemical_formula_sum "Si O2"
_cell_formula_units_Z 72
_cell_length_a 18.766175
_cell_length_b 8.813355
_cell_length_c 23.039233
_cell_angle_alpha 90.000000
_cell_angle_beta 90.000000
_cell_angle_gamma 90.000000
_cell_volume 3810.526994
_symmetry_space_group_name_H-M "C M M M"
_symmetry_group_IT_number 65
_symmetry_cell_setting 'orthorhombic'
loop_
_space_group_symop_operation_xyz
x,y,z
-x,-y,z
x,-y,-z
-x,y,-z
-x,-y,-z
x,y,-z
-x,y,z
x,-y,z
1/2+x,1/2+y,z
1/2-x,1/2-y,z
1/2+x,1/2-y,-z
1/2-x,1/2+y,-z
1/2-x,1/2-y,-z
1/2+x,1/2+y,-z
1/2-x,1/2+y,z
1/2+x,1/2-y,z
loop_
_atom_site_type_symbol
_atom_site_label
_atom_site_fract_x
_atom_site_fract_y
_atom_site_fract_z
Si Si1 0.082010 0.825153 0.720256
Si Si2 0.172935 0.820232 0.830395
Si Si3 0.920250 0.180291 0.935623
Si Si4 0.672475 0.678642 0.500000
Si Si5 0.082532 0.676543 0.399655
O O1 0.128860 0.769124 0.774086
O O2 0.103390 0.722898 0.665483
O O3 0.000000 0.801324 0.737758
O O4 0.097118 0.000000 0.704529
O O5 0.250000 0.750000 0.826287
O O6 0.133554 0.753845 0.887520
O O7 0.178836 0.000000 0.833761
O O8 0.000000 0.242254 0.923594
O O9 0.921811 0.000000 0.931603
O O10 0.894858 0.231623 0.000000
O O11 0.680772 0.500000 0.500000
O O12 0.750000 0.750000 0.500000
O O13 0.630197 0.728055 0.556909
O O14 0.098495 0.500000 0.408826
O O15 0.000000 0.714677 0.411948
#
# Coordination Sequence:
#
# PCOD8270139 Si02
#       5
#    16  16  16   8  16
#     4   9  18  34  55  76  99 133 179 223 259 301
#     4  10  20  32  48  73 104 136 169 210 261 314
#     4   8  14  27  49  74  97 126 170 219 259 299
#     4  12  25  40  59  83 113 147 181 218 263 314
#     4  10  21  38  60  85 112 141 176 219 265 314
#
# _framework density 18.895023999999999
#
# number of rings (size 3 to 8) (size 9 to 14) (size 15 to 20)
#    0.000    2.444    0.000    3.333    0.000    7.556 
#    0.000    2.222    0.000    2.000    0.000    1.556 
#    0.000    0.000    0.000    0.000    0.000    0.000 
#
# Total GULP energy -446423.293591 kJ/mol
# GULP energy per Si atom -12400.647044 kJ/mol
# Density = 1.885202 g / cm^3
# Si number density = 18.895024 Si / 1000 Ang^3
#
#
#
# Elastic Constant Matrix: (Units=GPa)
#
#
# Indices 1 2 3 4 5 6 
#
# 1 131.1474 47.2517 100.4694 0.0000 0.0000 0.0000
# 2 47.2517 65.9602 51.9576 0.0000 0.0000 0.0000
# 3 100.4694 51.9576 160.0821 0.0000 0.0000 0.0000
# 4 0.0000 0.0000 0.0000 17.7360 0.0000 0.0000
# 5 0.0000 0.0000 0.0000 0.0000 1.6251 0.0000
# 6 0.0000 0.0000 0.0000 0.0000 0.0000 30.7924
#
#
#
# Elastic Compliance Matrix: (Units=1/GPa)
#
#
# Indices 1 2 3 4 5 6 
#
# 1 0.015693 -0.004680 -0.008330 0.000000 0.000000 0.000000
# 2 -0.004680 0.021764 -0.004127 0.000000 0.000000 0.000000
# 3 -0.008330 -0.004127 0.012814 0.000000 0.000000 0.000000
# 4 0.000000 0.000000 0.000000 0.056382 0.000000 0.000000
# 5 0.000000 0.000000 0.000000 0.000000 0.615331 0.000000
# 6 0.000000 0.000000 0.000000 0.000000 0.000000 0.032476
#
#
# Mechanical properties :
#
#
# Convention : Reuss Voigt Hill
#
# Bulk Modulus (GPa) = 62.50994 84.06079 73.28536
# Shear Modulus (GPa) = 6.29672 20.53145 13.41408
#
# Velocity S-wave (km/s) = 1.82749 3.29995 2.66734
# Velocity P-wave (km/s) = 6.13250 7.68794 6.95385
#
# Compressibility (1/GPa) = 0.01599746
#
# Stress axis : x y z
#
# Youngs Moduli (GPa) = 63.72460 45.94771 78.03947
#
# Poissons Ratio (x) = 0.21504 0.65005
# Poissons Ratio (y) = 0.29824 0.32204
# Poissons Ratio (z) = 0.53081 0.18961
#
# Static dielectric constant tensor:
#      x y z
#    x 3.545350 0.000000 0.000000 
#    y 0.000000 3.208510 0.000000 
#    z 0.000000 0.000000 3.742130 
# 
# 
# High freq. dielectric constant tensor:
#      x y z
#    x 1.732930 0.000000 0.000000 
#    y 0.000000 1.707590 0.000000 
#    z 0.000000 0.000000 1.750760 
# 
# From -- ./inp_files/70315.got.cif
#   From: 2010.03.12/outbox.cif.g09.slc.cpg/sg65_36_cif.got.tgz:70315.got - 2010.04.10 20:52:16.
