data_PCOD8270348
_publ_section_title
;
Structure prediction by ZEFSAII (Michael W. Deem and Ramdas Pophale) SiO2 
 PCOD8270348
Probable space group: C M M M
;
_chemical_formula_sum "Si O2"
_cell_formula_units_Z 88
_cell_length_a 27.414206
_cell_length_b 7.845798
_cell_length_c 23.279667
_cell_angle_alpha 90.000000
_cell_angle_beta 90.000000
_cell_angle_gamma 90.000000
_cell_volume 5007.137967
_symmetry_space_group_name_H-M "C M M M"
_symmetry_group_IT_number 65
_symmetry_cell_setting 'orthorhombic'
loop_
_space_group_symop_operation_xyz
x,y,z
-x,-y,z
x,-y,-z
-x,y,-z
-x,-y,-z
x,y,-z
-x,y,z
x,-y,z
1/2+x,1/2+y,z
1/2-x,1/2-y,z
1/2+x,1/2-y,-z
1/2-x,1/2+y,-z
1/2-x,1/2-y,-z
1/2+x,1/2+y,-z
1/2-x,1/2+y,z
1/2+x,1/2-y,z
loop_
_atom_site_type_symbol
_atom_site_label
_atom_site_fract_x
_atom_site_fract_y
_atom_site_fract_z
Si Si1 0.146915 0.801803 0.562457
Si Si2 0.557678 0.500000 0.936125
Si Si3 0.554505 0.202664 0.623431
Si Si4 0.557443 0.197148 0.145714
Si Si5 0.695286 0.700090 0.676498
Si Si6 0.896589 0.303240 0.262541
O O1 0.160509 0.720473 0.500000
O O2 0.089586 0.770747 0.573431
O O3 0.179064 0.720396 0.614393
O O4 0.157939 0.000000 0.559566
O O5 0.500000 0.500000 0.940156
O O6 0.574333 0.674978 0.904808
O O7 0.580759 0.500000 0.000000
O O8 0.500000 0.269882 0.611616
O O9 0.573290 0.278562 0.684446
O O10 0.556345 0.000000 0.624324
O O11 0.500000 0.211307 0.157841
O O12 0.585705 0.270002 0.201679
O O13 0.571256 0.000000 0.130244
O O14 0.688622 0.500000 0.674723
O O15 0.750000 0.750000 0.691437
O O16 0.661032 0.772682 0.727128
O O17 0.909256 0.500000 0.260314
#
# Coordination Sequence:
#
# PCOD8270348 Si02
#       6
#    16   8  16  16  16  16
#     4   9  19  34  47  61  84 114 150 188 229 281
#     4   9  18  30  44  68 104 142 177 209 235 267
#     4   9  17  29  45  65  89 116 148 187 232 277
#     4   9  17  29  47  71 100 137 173 204 239 278
#     4  10  20  33  49  67  88 115 145 187 243 292
#     4   9  17  30  48  68  92 121 152 193 236 283
#
# _framework density 17.574911
#
# number of rings (size 3 to 8) (size 9 to 14) (size 15 to 20)
#    0.000    2.818    0.000    1.091    1.273    4.727 
#    0.000    3.636    0.000    0.000    0.000    0.000 
#    0.000    0.727    0.364    0.000    0.000    0.000 
#
# Total GULP energy -545317.392130 kJ/mol
# GULP energy per Si atom -12393.577094 kJ/mol
# Density = 1.753491 g / cm^3
# Si number density = 17.574911 Si / 1000 Ang^3
#
#
#
# Elastic Constant Matrix: (Units=GPa)
#
#
# Indices 1 2 3 4 5 6 
#
# 1 72.3804 1.5032 28.9969 0.0000 0.0000 0.0000
# 2 1.5032 46.1516 35.1982 0.0000 0.0000 0.0000
# 3 28.9969 35.1982 124.7872 0.0000 0.0000 0.0000
# 4 0.0000 0.0000 0.0000 20.9379 0.0000 0.0000
# 5 0.0000 0.0000 0.0000 0.0000 16.0807 0.0000
# 6 0.0000 0.0000 0.0000 0.0000 0.0000 20.1227
#
#
#
# Elastic Compliance Matrix: (Units=1/GPa)
#
#
# Indices 1 2 3 4 5 6 
#
# 1 0.015525 0.002861 -0.004415 0.000000 0.000000 0.000000
# 2 0.002861 0.028134 -0.008600 0.000000 0.000000 0.000000
# 3 -0.004415 -0.008600 0.011465 0.000000 0.000000 0.000000
# 4 0.000000 0.000000 0.000000 0.047760 0.000000 0.000000
# 5 0.000000 0.000000 0.000000 0.000000 0.062186 0.000000
# 6 0.000000 0.000000 0.000000 0.000000 0.000000 0.049695
#
#
# Mechanical properties :
#
#
# Convention : Reuss Voigt Hill
#
# Bulk Modulus (GPa) = 28.72199 41.63507 35.17853
# Shear Modulus (GPa) = 20.26925 23.26965 21.76945
#
# Velocity S-wave (km/s) = 3.39972 3.64267 3.52329
# Velocity P-wave (km/s) = 5.63816 6.43689 6.05072
#
# Compressibility (1/GPa) = 0.03481653
#
# Stress axis : x y z
#
# Youngs Moduli (GPa) = 64.41199 35.54444 87.21927
#
# Poissons Ratio (x) = -0.10170 0.38504
# Poissons Ratio (y) = -0.18430 0.75012
# Poissons Ratio (z) = 0.28435 0.30570
#
# Static dielectric constant tensor:
#      x y z
#    x 3.028010 0.000000 0.000000 
#    y 0.000000 3.204440 0.000000 
#    z 0.000000 0.000000 3.470000 
# 
# 
# High freq. dielectric constant tensor:
#      x y z
#    x 1.651820 0.000000 0.000000 
#    y 0.000000 1.677180 0.000000 
#    z 0.000000 0.000000 1.660710 
# 
# From -- ./inp_files/59837.got.cif
#   From: 2010.03.12/outbox.cif.g09.slc.cpg/sg65_30_cif.got.tgz:59837.got - 2010.04.10 20:52:16.
