data_PCOD8270411
_publ_section_title
;
Structure prediction by ZEFSAII (Michael W. Deem and Ramdas Pophale) SiO2 
 PCOD8270411
Probable space group: C M M M
;
_chemical_formula_sum "Si O2"
_cell_formula_units_Z 88
_cell_length_a 8.792406
_cell_length_b 16.852307
_cell_length_c 29.762497
_cell_angle_alpha 90.000000
_cell_angle_beta 90.000000
_cell_angle_gamma 90.000000
_cell_volume 4409.978384
_symmetry_space_group_name_H-M "C M M M"
_symmetry_group_IT_number 65
_symmetry_cell_setting 'orthorhombic'
loop_
_space_group_symop_operation_xyz
x,y,z
-x,-y,z
x,-y,-z
-x,y,-z
-x,-y,-z
x,y,-z
-x,y,z
x,-y,z
1/2+x,1/2+y,z
1/2-x,1/2-y,z
1/2+x,1/2-y,-z
1/2-x,1/2+y,-z
1/2-x,1/2-y,-z
1/2+x,1/2+y,-z
1/2-x,1/2+y,z
1/2+x,1/2-y,z
loop_
_atom_site_type_symbol
_atom_site_label
_atom_site_fract_x
_atom_site_fract_y
_atom_site_fract_z
Si Si1 0.165054 0.909190 0.271664
Si Si2 0.675147 0.500000 0.053073
Si Si3 0.318154 0.163347 0.092013
Si Si4 0.319338 0.410858 0.548698
Si Si5 0.822949 0.330114 0.194213
Si Si6 0.180864 0.833391 0.638261
O O1 0.274268 0.897344 0.229040
O O2 0.238424 0.883668 0.319072
O O3 0.000000 0.866818 0.263937
O O4 0.134370 0.000000 0.276278
O O5 0.500000 0.500000 0.069835
O O6 0.754147 0.583361 0.068285
O O7 0.684359 0.500000 0.000000
O O8 0.500000 0.166382 0.084885
O O9 0.250000 0.250000 0.075222
O O10 0.268272 0.151066 0.143713
O O11 0.269602 0.374143 0.500000
O O12 0.500000 0.411128 0.552097
O O13 0.257173 0.500000 0.551721
O O14 0.249310 0.363911 0.590934
O O15 0.750000 0.250000 0.212764
O O16 0.000000 0.319984 0.194227
O O17 0.250000 0.750000 0.648277
O O18 0.000000 0.832313 0.635540
#
# Coordination Sequence:
#
# PCOD8270411 Si02
#       6
#    16   8  16  16  16  16
#     4  10  21  35  52  76 105 141 181 223 275 330
#     4  11  25  43  65  95 129 167 211 257 306 363
#     4  10  22  41  65  93 126 165 208 256 310 364
#     4   8  14  27  49  73  94 122 164 213 261 311
#     4  10  21  37  58  84 114 147 187 232 280 336
#     4  10  20  33  49  71 101 133 170 215 263 320
#
# _framework density 19.954747000000001
#
# number of rings (size 3 to 8) (size 9 to 14) (size 15 to 20)
#    0.000    2.273    0.000    3.000    1.273    8.364 
#    0.000    0.000    0.000    1.636    0.000    1.273 
#    0.000    0.000    0.000    0.000    0.000    0.000 
#
# Total GULP energy -545082.520038 kJ/mol
# GULP energy per Si atom -12388.239092 kJ/mol
# Density = 1.990933 g / cm^3
# Si number density = 19.954747 Si / 1000 Ang^3
#
#
#
# Elastic Constant Matrix: (Units=GPa)
#
#
# Indices 1 2 3 4 5 6 
#
# 1 50.2210 35.8004 33.4472 0.0000 0.0000 0.0000
# 2 35.8004 115.8536 49.7478 0.0000 0.0000 0.0000
# 3 33.4472 49.7478 115.2593 0.0000 0.0000 0.0000
# 4 0.0000 0.0000 0.0000 39.1484 0.0000 0.0000
# 5 0.0000 0.0000 0.0000 0.0000 44.4696 0.0000
# 6 0.0000 0.0000 0.0000 0.0000 0.0000 25.5332
#
#
#
# Elastic Compliance Matrix: (Units=1/GPa)
#
#
# Indices 1 2 3 4 5 6 
#
# 1 0.028028 -0.006344 -0.005395 0.000000 0.000000 0.000000
# 2 -0.006344 0.012031 -0.003352 0.000000 0.000000 0.000000
# 3 -0.005395 -0.003352 0.011688 0.000000 0.000000 0.000000
# 4 0.000000 0.000000 0.000000 0.025544 0.000000 0.000000
# 5 0.000000 0.000000 0.000000 0.000000 0.022487 0.000000
# 6 0.000000 0.000000 0.000000 0.000000 0.000000 0.039165
#
#
# Mechanical properties :
#
#
# Convention : Reuss Voigt Hill
#
# Bulk Modulus (GPa) = 46.37150 57.70274 52.03712
# Shear Modulus (GPa) = 28.35849 32.65281 30.50565
#
# Velocity S-wave (km/s) = 3.77389 4.04956 3.91415
# Velocity P-wave (km/s) = 6.50219 7.13056 6.82361
#
# Compressibility (1/GPa) = 0.02156497
#
# Stress axis : x y z
#
# Youngs Moduli (GPa) = 35.67900 83.11603 85.55486
#
# Poissons Ratio (x) = 0.52731 0.46157
# Poissons Ratio (y) = 0.22636 0.28677
# Poissons Ratio (z) = 0.19249 0.27859
#
# Static dielectric constant tensor:
#      x y z
#    x 3.471740 0.000000 0.000000 
#    y 0.000000 3.592370 0.000000 
#    z 0.000000 0.000000 4.007660 
# 
# 
# High freq. dielectric constant tensor:
#      x y z
#    x 1.755070 0.000000 0.000000 
#    y 0.000000 1.777740 0.000000 
#    z 0.000000 0.000000 1.793470 
# 
# From -- ./inp_files/76673.got.cif
#   From: 2010.03.12/outbox.cif.g09.slc.cpg/sg65_39_cif.got.tgz:76673.got - 2010.04.10 20:52:16.
