data_PCOD8270262
_publ_section_title
;
Structure prediction by ZEFSAII (Michael W. Deem and Ramdas Pophale) SiO2 
 PCOD8270262
Probable space group: C M M M
;
_chemical_formula_sum "Si O2"
_cell_formula_units_Z 80
_cell_length_a 18.186761
_cell_length_b 7.653722
_cell_length_c 29.506695
_cell_angle_alpha 90.000000
_cell_angle_beta 90.000000
_cell_angle_gamma 90.000000
_cell_volume 4107.226097
_symmetry_space_group_name_H-M "C M M M"
_symmetry_group_IT_number 65
_symmetry_cell_setting 'orthorhombic'
loop_
_space_group_symop_operation_xyz
x,y,z
-x,-y,z
x,-y,-z
-x,y,-z
-x,-y,-z
x,y,-z
-x,y,z
x,-y,z
1/2+x,1/2+y,z
1/2-x,1/2-y,z
1/2+x,1/2-y,-z
1/2-x,1/2+y,-z
1/2-x,1/2-y,-z
1/2+x,1/2+y,-z
1/2-x,1/2+y,z
1/2+x,1/2-y,z
loop_
_atom_site_type_symbol
_atom_site_label
_atom_site_fract_x
_atom_site_fract_y
_atom_site_fract_z
Si Si1 0.586419 0.799031 0.821974
Si Si2 0.334918 0.795704 0.087958
Si Si3 0.584332 0.804138 0.410405
Si Si4 0.916522 0.708740 0.000000
Si Si5 0.334695 0.295324 0.500000
Si Si6 0.586976 0.500000 0.754919
Si Si7 0.912664 0.000000 0.345867
O O1 0.500000 0.781223 0.831420
O O2 0.628182 0.724975 0.866132
O O3 0.612473 0.676196 0.780622
O O4 0.607366 0.000000 0.810489
O O5 0.250000 0.750000 0.086708
O O6 0.347523 0.000000 0.086816
O O7 0.375255 0.713775 0.044173
O O8 0.500000 0.758362 0.422020
O O9 0.630178 0.790537 0.456025
O O10 0.615222 0.671835 0.372466
O O11 0.591871 0.000000 0.390840
O O12 0.914024 0.500000 0.000000
O O13 0.000000 0.776933 0.000000
O O14 0.350019 0.500000 0.500000
O O15 0.250000 0.250000 0.500000
O O16 0.500000 0.500000 0.751201
O O17 0.621990 0.500000 0.704559
O O18 0.000000 0.000000 0.342255
#
# Coordination Sequence:
#
# PCOD8270262 Si02
#       7
#    16  16  16   8   8   8   8
#     4   9  18  33  53  78 105 137 179 223 270 320
#     4  10  20  32  51  77 103 140 175 217 265 321
#     4  10  20  35  56  83 115 148 186 230 274 325
#     4   9  17  32  53  75 104 139 176 214 261 323
#     4  12  23  36  55  82 113 152 189 231 270 328
#     4   9  18  32  55  83 109 137 176 229 278 320
#     4   9  18  33  54  83 111 142 179 223 284 330
#
# _framework density 19.477865000000001
#
# number of rings (size 3 to 8) (size 9 to 14) (size 15 to 20)
#    0.000    2.300    1.000    2.100    1.400    4.400 
#    0.000    4.000    0.000    1.800    0.000    0.000 
#    0.000    0.000    0.000    0.000    0.000    0.000 
#
# Total GULP energy -495986.440917 kJ/mol
# GULP energy per Si atom -12399.661023 kJ/mol
# Density = 1.943353 g / cm^3
# Si number density = 19.477865 Si / 1000 Ang^3
#
#
#
# Elastic Constant Matrix: (Units=GPa)
#
#
# Indices 1 2 3 4 5 6 
#
# 1 83.9588 23.6421 58.8379 0.0000 0.0000 0.0000
# 2 23.6421 103.9907 66.1054 0.0000 0.0000 0.0000
# 3 58.8379 66.1054 196.1568 0.0000 0.0000 0.0000
# 4 0.0000 0.0000 0.0000 13.5447 0.0000 0.0000
# 5 0.0000 0.0000 0.0000 0.0000 3.6308 0.0000
# 6 0.0000 0.0000 0.0000 0.0000 0.0000 21.9017
#
#
#
# Elastic Compliance Matrix: (Units=1/GPa)
#
#
# Indices 1 2 3 4 5 6 
#
# 1 0.015121 -0.000706 -0.004298 0.000000 0.000000 0.000000
# 2 -0.000706 0.012271 -0.003924 0.000000 0.000000 0.000000
# 3 -0.004298 -0.003924 0.007709 0.000000 0.000000 0.000000
# 4 0.000000 0.000000 0.000000 0.073829 0.000000 0.000000
# 5 0.000000 0.000000 0.000000 0.000000 0.275418 0.000000
# 6 0.000000 0.000000 0.000000 0.000000 0.000000 0.045659
#
#
# Mechanical properties :
#
#
# Convention : Reuss Voigt Hill
#
# Bulk Modulus (GPa) = 57.98065 75.69745 66.83905
# Shear Modulus (GPa) = 11.02267 23.51685 17.26976
#
# Velocity S-wave (km/s) = 2.38146 3.47848 2.98087
# Velocity P-wave (km/s) = 6.11505 7.42164 6.79981
#
# Compressibility (1/GPa) = 0.01724713
#
# Stress axis : x y z
#
# Youngs Moduli (GPa) = 66.13219 81.49367 129.71189
#
# Poissons Ratio (x) = 0.05751 0.55748
# Poissons Ratio (y) = 0.04667 0.50894
# Poissons Ratio (z) = 0.28423 0.31975
#
# Static dielectric constant tensor:
#      x y z
#    x 3.247080 0.000000 0.000000 
#    y 0.000000 3.654510 0.000000 
#    z 0.000000 0.000000 3.817750 
# 
# 
# High freq. dielectric constant tensor:
#      x y z
#    x 1.731200 0.000000 0.000000 
#    y 0.000000 1.763080 0.000000 
#    z 0.000000 0.000000 1.758820 
# 
# From -- ./inp_files/75134.got.cif
#   From: 2010.03.12/outbox.cif.g09.slc.cpg/sg65_38_cif.got.tgz:75134.got - 2010.04.10 20:52:16.
