data_PCOD8270396
_publ_section_title
;
Structure prediction by ZEFSAII (Michael W. Deem and Ramdas Pophale) SiO2 
 PCOD8270396
Probable space group: C M M M
;
_chemical_formula_sum "Si O2"
_cell_formula_units_Z 72
_cell_length_a 9.135632
_cell_length_b 18.551584
_cell_length_c 23.026118
_cell_angle_alpha 90.000000
_cell_angle_beta 90.000000
_cell_angle_gamma 90.000000
_cell_volume 3902.476712
_symmetry_space_group_name_H-M "C M M M"
_symmetry_group_IT_number 65
_symmetry_cell_setting 'orthorhombic'
loop_
_space_group_symop_operation_xyz
x,y,z
-x,-y,z
x,-y,-z
-x,y,-z
-x,-y,-z
x,y,-z
-x,y,z
x,-y,z
1/2+x,1/2+y,z
1/2-x,1/2-y,z
1/2+x,1/2-y,-z
1/2-x,1/2+y,-z
1/2-x,1/2-y,-z
1/2+x,1/2+y,-z
1/2-x,1/2+y,z
1/2+x,1/2-y,z
loop_
_atom_site_type_symbol
_atom_site_label
_atom_site_fract_x
_atom_site_fract_y
_atom_site_fract_z
Si Si1 0.830838 0.416636 0.343976
Si Si2 0.660159 0.914510 0.000000
Si Si3 0.672392 0.825597 0.768391
Si Si4 0.670308 0.322630 0.432608
Si Si5 0.675380 0.919011 0.875368
O O1 0.797072 0.500000 0.333115
O O2 0.785296 0.374855 0.286027
O O3 0.733630 0.390004 0.397609
O O4 0.000000 0.403611 0.359579
O O5 0.738667 0.892925 0.938858
O O6 0.500000 0.878137 0.000000
O O7 0.642533 0.000000 0.000000
O O8 0.500000 0.813193 0.772440
O O9 0.750000 0.750000 0.760795
O O10 0.733118 0.864857 0.826180
O O11 0.701015 0.337847 0.500000
O O12 0.500000 0.313328 0.419204
O O13 0.750000 0.250000 0.411629
O O14 0.500000 0.919309 0.877530
O O15 0.730492 0.000000 0.860946
#
# Coordination Sequence:
#
# PCOD8270396 Si02
#       5
#    16   8  16  16  16
#     4  10  21  36  54  76 101 131 168 209 253 299
#     4   7  10  18  37  66  93 117 152 199 244 282
#     4  10  20  33  49  70  98 130 163 201 246 295
#     4  10  21  37  57  80 106 136 168 202 243 292
#     4   8  13  24  44  68  93 122 159 202 243 284
#
# _framework density 18.449822000000001
#
# number of rings (size 3 to 8) (size 9 to 14) (size 15 to 20)
#    0.000    2.778    0.000    3.333    0.000    7.556 
#    0.000    2.778    0.000    2.000    0.000    0.000 
#    0.000    2.667    0.000    0.000    0.000    0.000 
#
# Total GULP energy -446237.831271 kJ/mol
# GULP energy per Si atom -12395.495313 kJ/mol
# Density = 1.840783 g / cm^3
# Si number density = 18.449822 Si / 1000 Ang^3
#
#
#
# Elastic Constant Matrix: (Units=GPa)
#
#
# Indices 1 2 3 4 5 6 
#
# 1 45.3035 44.7081 49.9952 0.0000 0.0000 0.0000
# 2 44.7081 130.0650 79.2417 0.0000 0.0000 0.0000
# 3 49.9952 79.2417 135.3781 0.0000 0.0000 0.0000
# 4 0.0000 0.0000 0.0000 27.6899 0.0000 0.0000
# 5 0.0000 0.0000 0.0000 0.0000 8.5540 0.0000
# 6 0.0000 0.0000 0.0000 0.0000 0.0000 25.8329
#
#
#
# Elastic Compliance Matrix: (Units=1/GPa)
#
#
# Indices 1 2 3 4 5 6 
#
# 1 0.041684 -0.007693 -0.010891 0.000000 0.000000 0.000000
# 2 -0.007693 0.013370 -0.004985 0.000000 0.000000 0.000000
# 3 -0.010891 -0.004985 0.014327 0.000000 0.000000 0.000000
# 4 0.000000 0.000000 0.000000 0.036114 0.000000 0.000000
# 5 0.000000 0.000000 0.000000 0.000000 0.116904 0.000000
# 6 0.000000 0.000000 0.000000 0.000000 0.000000 0.038710
#
#
# Mechanical properties :
#
#
# Convention : Reuss Voigt Hill
#
# Bulk Modulus (GPa) = 44.95817 73.18184 59.07001
# Shear Modulus (GPa) = 15.83978 21.53547 18.68762
#
# Velocity S-wave (km/s) = 2.93325 3.42020 3.18604
# Velocity P-wave (km/s) = 5.99105 7.43966 6.75430
#
# Compressibility (1/GPa) = 0.02224290
#
# Stress axis : x y z
#
# Youngs Moduli (GPa) = 23.98989 74.79532 69.80071
#
# Poissons Ratio (x) = 0.57541 0.76019
# Poissons Ratio (y) = 0.18456 0.34794
# Poissons Ratio (z) = 0.26127 0.37284
#
# Static dielectric constant tensor:
#      x y z
#    x 3.009250 0.000000 0.000000 
#    y 0.000000 3.269740 0.000000 
#    z 0.000000 0.000000 3.809340 
# 
# 
# High freq. dielectric constant tensor:
#      x y z
#    x 1.671840 0.000000 0.000000 
#    y 0.000000 1.703920 0.000000 
#    z 0.000000 0.000000 1.737700 
# 
# From -- ./inp_files/59302.got.cif
#   From: 2010.03.12/outbox.cif.g09.slc.cpg/sg65_30_cif.got.tgz:59302.got - 2010.04.10 20:52:16.
