data_PCOD8270659
_publ_section_title
;
Structure prediction by ZEFSAII (Michael W. Deem and Ramdas Pophale) SiO2 
 PCOD8270659
Probable space group: C M M M
;
_chemical_formula_sum "Si O2"
_cell_formula_units_Z 88
_cell_length_a 9.129289
_cell_length_b 19.559691
_cell_length_c 28.215132
_cell_angle_alpha 90.000000
_cell_angle_beta 90.000000
_cell_angle_gamma 90.000000
_cell_volume 5038.265289
_symmetry_space_group_name_H-M "C M M M"
_symmetry_group_IT_number 65
_symmetry_cell_setting 'orthorhombic'
loop_
_space_group_symop_operation_xyz
x,y,z
-x,-y,z
x,-y,-z
-x,y,-z
-x,-y,-z
x,y,-z
-x,y,z
x,-y,z
1/2+x,1/2+y,z
1/2-x,1/2-y,z
1/2+x,1/2-y,-z
1/2-x,1/2+y,-z
1/2-x,1/2-y,-z
1/2+x,1/2+y,-z
1/2-x,1/2+y,z
1/2+x,1/2-y,z
loop_
_atom_site_type_symbol
_atom_site_label
_atom_site_fract_x
_atom_site_fract_y
_atom_site_fract_z
Si Si1 0.172394 0.177382 0.897503
Si Si2 0.832200 0.819841 0.000000
Si Si3 0.174353 0.076093 0.181996
Si Si4 0.662745 0.581213 0.285996
Si Si5 0.168951 0.419333 0.377572
Si Si6 0.329825 0.681217 0.555450
O O1 0.250000 0.250000 0.892008
O O2 0.238090 0.126084 0.858284
O O3 0.000000 0.188491 0.889661
O O4 0.204269 0.142871 0.949807
O O5 0.750000 0.750000 0.000000
O O6 0.000000 0.799381 0.000000
O O7 0.219977 0.104808 0.234061
O O8 0.000000 0.072517 0.179270
O O9 0.239105 0.000000 0.173580
O O10 0.500000 0.610813 0.296400
O O11 0.654373 0.500000 0.285324
O O12 0.773161 0.606973 0.326553
O O13 0.192843 0.500000 0.383257
O O14 0.260252 0.383824 0.418916
O O15 0.000000 0.398766 0.381951
O O16 0.304608 0.669662 0.500000
O O17 0.500000 0.687131 0.568418
O O18 0.250000 0.750000 0.572892
#
# Coordination Sequence:
#
# PCOD8270659 Si02
#       6
#    16   8  16  16  16  16
#     4   9  16  27  43  63  87 114 147 185 225 271
#     4   8  14  24  39  59  83 113 145 178 220 270
#     4   8  14  26  45  66  87 115 151 189 229 273
#     4   8  14  27  47  67  88 119 157 192 229 276
#     4  10  20  33  51  76 103 129 160 200 240 277
#     4  10  21  37  56  76 100 131 164 197 236 284
#
# _framework density 17.466329999999999
#
# number of rings (size 3 to 8) (size 9 to 14) (size 15 to 20)
#    0.000    3.091    0.000    2.182    0.000    2.545 
#    0.000    4.091    0.000    6.545    0.000    0.000 
#    0.000    7.273    0.000    0.000    0.000    0.000 
#
# Total GULP energy -545219.202525 kJ/mol
# GULP energy per Si atom -12391.345512 kJ/mol
# Density = 1.742658 g / cm^3
# Si number density = 17.466330 Si / 1000 Ang^3
#
#
#
# Elastic Constant Matrix: (Units=GPa)
#
#
# Indices 1 2 3 4 5 6 
#
# 1 74.9886 34.5553 56.4443 0.0000 0.0000 0.0000
# 2 34.5553 60.7582 55.5790 0.0000 0.0000 0.0000
# 3 56.4443 55.5790 126.2611 0.0000 0.0000 0.0000
# 4 0.0000 0.0000 0.0000 24.5493 0.0000 0.0000
# 5 0.0000 0.0000 0.0000 0.0000 19.8904 0.0000
# 6 0.0000 0.0000 0.0000 0.0000 0.0000 22.1172
#
#
#
# Elastic Compliance Matrix: (Units=1/GPa)
#
#
# Indices 1 2 3 4 5 6 
#
# 1 0.021205 -0.005673 -0.006983 0.000000 0.000000 0.000000
# 2 -0.005673 0.029071 -0.010261 0.000000 0.000000 0.000000
# 3 -0.006983 -0.010261 0.015558 0.000000 0.000000 0.000000
# 4 0.000000 0.000000 0.000000 0.040734 0.000000 0.000000
# 5 0.000000 0.000000 0.000000 0.000000 0.050275 0.000000
# 6 0.000000 0.000000 0.000000 0.000000 0.000000 0.045214
#
#
# Mechanical properties :
#
#
# Convention : Reuss Voigt Hill
#
# Bulk Modulus (GPa) = 49.99422 61.68500 55.83961
# Shear Modulus (GPa) = 19.64186 21.00667 20.32427
#
# Velocity S-wave (km/s) = 3.35708 3.47175 3.41490
# Velocity P-wave (km/s) = 6.61150 7.17384 6.89840
#
# Compressibility (1/GPa) = 0.02000231
#
# Stress axis : x y z
#
# Youngs Moduli (GPa) = 47.15819 34.39825 64.27409
#
# Poissons Ratio (x) = 0.19513 0.44880
# Poissons Ratio (y) = 0.26752 0.65951
# Poissons Ratio (z) = 0.32928 0.35296
#
# Static dielectric constant tensor:
#      x y z
#    x 3.063190 0.000000 0.000000 
#    y 0.000000 2.980510 0.000000 
#    z 0.000000 0.000000 3.823820 
# 
# 
# High freq. dielectric constant tensor:
#      x y z
#    x 1.659930 0.000000 0.000000 
#    y 0.000000 1.637650 0.000000 
#    z 0.000000 0.000000 1.693610 
# 
# From -- ./inp_files/75335.got.cif
#   From: 2010.03.12/outbox.cif.g09.slc.cpg/sg65_38_cif.got.tgz:75335.got - 2010.04.10 20:52:16.
