data_PCOD8270312
_publ_section_title
;
Structure prediction by ZEFSAII (Michael W. Deem and Ramdas Pophale) SiO2 
 PCOD8270312
Probable space group: C M M M
;
_chemical_formula_sum "Si O2"
_cell_formula_units_Z 112
_cell_length_a 9.804251
_cell_length_b 27.737581
_cell_length_c 23.893750
_cell_angle_alpha 90.000000
_cell_angle_beta 90.000000
_cell_angle_gamma 90.000000
_cell_volume 6497.814666
_symmetry_space_group_name_H-M "C M M M"
_symmetry_group_IT_number 65
_symmetry_cell_setting 'orthorhombic'
loop_
_space_group_symop_operation_xyz
x,y,z
-x,-y,z
x,-y,-z
-x,y,-z
-x,-y,-z
x,y,-z
-x,y,z
x,-y,z
1/2+x,1/2+y,z
1/2-x,1/2-y,z
1/2+x,1/2-y,-z
1/2-x,1/2+y,-z
1/2-x,1/2-y,-z
1/2+x,1/2+y,-z
1/2-x,1/2+y,z
1/2+x,1/2-y,z
loop_
_atom_site_type_symbol
_atom_site_label
_atom_site_fract_x
_atom_site_fract_y
_atom_site_fract_z
Si Si1 0.660063 0.608484 0.061350
Si Si2 0.847544 0.553107 0.433544
Si Si3 0.343508 0.362894 0.563779
Si Si4 0.336938 0.553626 0.831436
Si Si5 0.341585 0.703712 0.336224
Si Si6 0.659385 0.704431 0.875557
Si Si7 0.660621 0.645432 0.769687
O O1 0.500000 0.600315 0.057850
O O2 0.718154 0.571361 0.107809
O O3 0.689780 0.663464 0.078697
O O4 0.725969 0.598609 0.000000
O O5 0.840701 0.552088 0.500000
O O6 0.807243 0.500000 0.410503
O O7 0.743019 0.592883 0.410882
O O8 0.000000 0.566713 0.413690
O O9 0.301940 0.349971 0.500000
O O10 0.500000 0.379143 0.567580
O O11 0.315772 0.315997 0.601311
O O12 0.500000 0.552913 0.831767
O O13 0.279382 0.500000 0.818645
O O14 0.282150 0.591765 0.784508
O O15 0.500000 0.717600 0.327348
O O16 0.250000 0.750000 0.326450
O O17 0.295114 0.662584 0.292073
O O18 0.500000 0.718883 0.874858
O O19 0.750000 0.750000 0.892050
O O20 0.708965 0.684868 0.814993
O O21 0.500000 0.641537 0.774771
#
# Coordination Sequence:
#
# PCOD8270312 Si02
#       7
#    16  16  16  16  16  16  16
#     4   8  14  23  34  53  83 114 141 171 208 247
#     4   8  14  26  45  67  89 115 147 178 207 245
#     4   9  18  31  45  64  91 118 144 178 220 264
#     4   8  13  22  38  59  83 112 141 169 206 252
#     4  10  20  33  48  65  86 113 145 181 220 262
#     4   9  16  26  41  59  81 111 143 175 212 249
#     4   8  15  28  43  60  83 108 137 175 215 254
#
# _framework density 17.236564000000001
#
# number of rings (size 3 to 8) (size 9 to 14) (size 15 to 20)
#    0.000    3.429    0.000    2.571    0.000    1.714 
#    0.000    3.571    0.000    2.571    0.000    0.000 
#    0.000   13.714    0.000    5.143    0.000    5.714 
#
# Total GULP energy -693898.174818 kJ/mol
# GULP energy per Si atom -12391.038836 kJ/mol
# Density = 1.719733 g / cm^3
# Si number density = 17.236564 Si / 1000 Ang^3
#
#
#
# Elastic Constant Matrix: (Units=GPa)
#
#
# Indices 1 2 3 4 5 6 
#
# 1 36.6954 42.5007 22.6665 0.0000 0.0000 0.0000
# 2 42.5007 135.2963 52.1296 0.0000 0.0000 0.0000
# 3 22.6665 52.1296 91.9716 0.0000 0.0000 0.0000
# 4 0.0000 0.0000 0.0000 16.5387 0.0000 0.0000
# 5 0.0000 0.0000 0.0000 0.0000 8.9888 0.0000
# 6 0.0000 0.0000 0.0000 0.0000 0.0000 25.4016
#
#
#
# Elastic Compliance Matrix: (Units=1/GPa)
#
#
# Indices 1 2 3 4 5 6 
#
# 1 0.043871 -0.012302 -0.003839 0.000000 0.000000 0.000000
# 2 -0.012302 0.012906 -0.004283 0.000000 0.000000 0.000000
# 3 -0.003839 -0.004283 0.014247 0.000000 0.000000 0.000000
# 4 0.000000 0.000000 0.000000 0.060464 0.000000 0.000000
# 5 0.000000 0.000000 0.000000 0.000000 0.111250 0.000000
# 6 0.000000 0.000000 0.000000 0.000000 0.000000 0.039368
#
#
# Mechanical properties :
#
#
# Convention : Reuss Voigt Hill
#
# Bulk Modulus (GPa) = 33.14021 55.39519 44.26770
# Shear Modulus (GPa) = 15.01443 19.96358 17.48900
#
# Velocity S-wave (km/s) = 2.95461 3.40694 3.18881
# Velocity P-wave (km/s) = 5.55950 6.90538 6.26867
#
# Compressibility (1/GPa) = 0.03017482
#
# Stress axis : x y z
#
# Youngs Moduli (GPa) = 22.79406 77.48370 70.19073
#
# Poissons Ratio (x) = 0.95320 0.26949
# Poissons Ratio (y) = 0.28041 0.30065
# Poissons Ratio (z) = 0.08751 0.33188
#
# Static dielectric constant tensor:
#      x y z
#    x 2.813960 0.000000 0.000000 
#    y 0.000000 3.393130 0.000000 
#    z 0.000000 0.000000 3.388880 
# 
# 
# High freq. dielectric constant tensor:
#      x y z
#    x 1.613290 0.000000 0.000000 
#    y 0.000000 1.666100 0.000000 
#    z 0.000000 0.000000 1.656810 
# 
# From -- ./inp_files/69237.got.cif
#   From: 2010.03.12/outbox.cif.g09.slc.cpg/sg65_35_cif.got.tgz:69237.got - 2010.04.10 20:52:16.
