data_PCOD8270951
_publ_section_title
;
Structure prediction by ZEFSAII (Michael W. Deem and Ramdas Pophale) SiO2 
 PCOD8270951
Probable space group: C M M M
;
_chemical_formula_sum "Si O2"
_cell_formula_units_Z 64
_cell_length_a 8.759473
_cell_length_b 25.083015
_cell_length_c 17.964912
_cell_angle_alpha 90.000000
_cell_angle_beta 90.000000
_cell_angle_gamma 90.000000
_cell_volume 3947.142543
_symmetry_space_group_name_H-M "C M M M"
_symmetry_group_IT_number 65
_symmetry_cell_setting 'orthorhombic'
loop_
_space_group_symop_operation_xyz
x,y,z
-x,-y,z
x,-y,-z
-x,y,-z
-x,-y,-z
x,y,-z
-x,y,z
x,-y,z
1/2+x,1/2+y,z
1/2-x,1/2-y,z
1/2+x,1/2-y,-z
1/2-x,1/2+y,-z
1/2-x,1/2-y,-z
1/2+x,1/2+y,-z
1/2-x,1/2+y,z
1/2+x,1/2-y,z
loop_
_atom_site_type_symbol
_atom_site_label
_atom_site_fract_x
_atom_site_fract_y
_atom_site_fract_z
Si Si1 0.319908 0.308488 0.693348
Si Si2 0.675727 0.891611 0.412076
Si Si3 0.822298 0.692653 0.000000
Si Si4 0.180302 0.691423 0.840944
Si Si5 0.172066 0.000000 0.588454
O O1 0.500000 0.303637 0.695956
O O2 0.250000 0.250000 0.683297
O O3 0.270712 0.343933 0.623803
O O4 0.259213 0.336825 0.769897
O O5 0.697084 0.886601 0.500000
O O6 0.500000 0.887326 0.388455
O O7 0.740277 0.947834 0.382249
O O8 0.750000 0.750000 0.000000
O O9 0.780650 0.662805 0.921406
O O10 0.000000 0.703861 0.000000
O O11 0.250000 0.750000 0.844382
O O12 0.000000 0.693877 0.826835
O O13 0.171078 0.000000 0.500000
O O14 0.000000 0.000000 0.620079
#
# Coordination Sequence:
#
# PCOD8270951 Si02
#       5
#    16  16   8  16   8
#     4  11  21  32  45  63  90 123 155 187 225 268
#     4  10  20  34  51  69  89 116 150 187 226 267
#     4   8  14  22  36  56  78 107 142 179 216 256
#     4   9  15  25  39  57  82 112 146 181 218 260
#     4   9  17  31  51  73  93 112 139 180 227 269
#
# _framework density 16.214261
#
# number of rings (size 3 to 8) (size 9 to 14) (size 15 to 20)
#    0.000    2.375    0.000    5.625    0.000    4.500 
#    0.000    0.000    0.000    0.000    0.000    0.000 
#    0.000    1.000    0.000   10.750    0.000    5.500 
#
# Total GULP energy -396419.851836 kJ/mol
# GULP energy per Si atom -12388.120370 kJ/mol
# Density = 1.617736 g / cm^3
# Si number density = 16.214261 Si / 1000 Ang^3
#
#
#
# Elastic Constant Matrix: (Units=GPa)
#
#
# Indices 1 2 3 4 5 6 
#
# 1 122.3382 37.5140 44.6275 0.0000 0.0000 0.0000
# 2 37.5140 65.2393 37.4865 0.0000 0.0000 0.0000
# 3 44.6275 37.4865 71.5039 0.0000 0.0000 0.0000
# 4 0.0000 0.0000 0.0000 1.0350 0.0000 0.0000
# 5 0.0000 0.0000 0.0000 0.0000 25.0253 0.0000
# 6 0.0000 0.0000 0.0000 0.0000 0.0000 23.4888
#
#
#
# Elastic Compliance Matrix: (Units=1/GPa)
#
#
# Indices 1 2 3 4 5 6 
#
# 1 0.011097 -0.003437 -0.005124 0.000000 0.000000 0.000000
# 2 -0.003437 0.023001 -0.009913 0.000000 0.000000 0.000000
# 3 -0.005124 -0.009913 0.022381 0.000000 0.000000 0.000000
# 4 0.000000 0.000000 0.000000 0.966225 0.000000 0.000000
# 5 0.000000 0.000000 0.000000 0.000000 0.039960 0.000000
# 6 0.000000 0.000000 0.000000 0.000000 0.000000 0.042573
#
#
# Mechanical properties :
#
#
# Convention : Reuss Voigt Hill
#
# Bulk Modulus (GPa) = 51.20405 55.37082 53.28743
# Shear Modulus (GPa) = 4.35276 19.20670 11.77973
#
# Velocity S-wave (km/s) = 1.64023 3.44547 2.69830
# Velocity P-wave (km/s) = 5.93594 7.07474 6.53021
#
# Compressibility (1/GPa) = 0.01952971
#
# Stress axis : x y z
#
# Youngs Moduli (GPa) = 90.11283 43.47727 44.68156
#
# Poissons Ratio (x) = 0.14942 0.22896
# Poissons Ratio (y) = 0.30969 0.44294
# Poissons Ratio (z) = 0.46177 0.43100
#
# Static dielectric constant tensor:
#      x y z
#    x 2.882210 0.000000 0.000000 
#    y 0.000000 2.681500 0.000000 
#    z 0.000000 0.000000 3.841000 
# 
# 
# High freq. dielectric constant tensor:
#      x y z
#    x 1.645440 0.000000 0.000000 
#    y 0.000000 1.562710 0.000000 
#    z 0.000000 0.000000 1.630920 
# 
# From -- ./inp_files/46362.got.cif
#   From: 2010.03.12/outbox.cif.g09.slc.cpg/sg65_24_cif.got.tgz:46362.got - 2010.04.10 20:52:16.
