data_PCOD8270286
_publ_section_title
;
Structure prediction by ZEFSAII (Michael W. Deem and Ramdas Pophale) SiO2 
 PCOD8270286
Probable space group: C M M M
;
_chemical_formula_sum "Si O2"
_cell_formula_units_Z 88
_cell_length_a 9.597027
_cell_length_b 23.782352
_cell_length_c 21.594780
_cell_angle_alpha 90.000000
_cell_angle_beta 90.000000
_cell_angle_gamma 90.000000
_cell_volume 4928.789872
_symmetry_space_group_name_H-M "C M M M"
_symmetry_group_IT_number 65
_symmetry_cell_setting 'orthorhombic'
loop_
_space_group_symop_operation_xyz
x,y,z
-x,-y,z
x,-y,-z
-x,y,-z
-x,-y,-z
x,y,-z
-x,y,z
x,-y,z
1/2+x,1/2+y,z
1/2-x,1/2-y,z
1/2+x,1/2-y,-z
1/2-x,1/2+y,-z
1/2-x,1/2-y,-z
1/2+x,1/2+y,-z
1/2-x,1/2+y,z
1/2+x,1/2-y,z
loop_
_atom_site_type_symbol
_atom_site_label
_atom_site_fract_x
_atom_site_fract_y
_atom_site_fract_z
Si Si1 0.337017 0.395355 0.734133
Si Si2 0.157409 0.804050 0.500000
Si Si3 0.281259 0.620838 0.877604
Si Si4 0.000000 0.205551 0.927598
Si Si5 0.500000 0.833583 0.074246
Si Si6 0.160680 0.194281 0.366470
Si Si7 0.156384 0.000000 0.867451
Si Si8 0.667857 0.000000 0.253709
O O1 0.500000 0.411527 0.726534
O O2 0.306354 0.377049 0.804262
O O3 0.291809 0.346217 0.688225
O O4 0.235320 0.445859 0.713564
O O5 0.250000 0.750000 0.500000
O O6 0.184906 0.836146 0.565612
O O7 0.000000 0.782109 0.500000
O O8 0.364675 0.671910 0.907375
O O9 0.124726 0.631684 0.896266
O O10 0.326107 0.558918 0.904950
O O11 0.000000 0.269158 0.901016
O O12 0.000000 0.211675 0.000000
O O13 0.500000 0.836982 0.000000
O O14 0.250000 0.250000 0.360552
O O15 0.000000 0.210980 0.357885
O O16 0.278448 0.000000 0.816868
O O17 0.000000 0.000000 0.837935
O O18 0.500000 0.000000 0.257053
#
# Coordination Sequence:
#
# PCOD8270286 Si02
#       8
#    16   8  16   8   8  16   8   8
#     4  10  20  36  54  80 108 140 176 218 268 315
#     4   8  14  28  48  71 104 147 185 216 256 310
#     4  11  21  39  60  82 107 139 181 225 277 319
#     4  11  22  41  61  77 105 147 186 213 256 337
#     4  11  26  41  57  81 111 145 178 221 270 327
#     4   9  18  31  50  78 112 146 181 220 264 313
#     4  10  20  38  61  83 108 139 176 223 275 329
#     4  10  20  32  56  80 104 138 176 217 266 325
#
# _framework density 17.854279999999999
#
# number of rings (size 3 to 8) (size 9 to 14) (size 15 to 20)
#    0.000    2.000    1.818    3.000    5.091    3.636 
#    0.000    2.727    0.000    0.545    0.000    3.818 
#    0.000    0.000    0.000    0.000    0.000    0.000 
#
# Total GULP energy -545074.690152 kJ/mol
# GULP energy per Si atom -12388.061140 kJ/mol
# Density = 1.781364 g / cm^3
# Si number density = 17.854280 Si / 1000 Ang^3
#
#
#
# Elastic Constant Matrix: (Units=GPa)
#
#
# Indices 1 2 3 4 5 6 
#
# 1 125.5051 52.9807 31.1843 0.0000 0.0000 0.0000
# 2 52.9807 122.2516 42.9824 0.0000 0.0000 0.0000
# 3 31.1843 42.9824 65.6744 0.0000 0.0000 0.0000
# 4 0.0000 0.0000 0.0000 -1.1240 0.0000 0.0000
# 5 0.0000 0.0000 0.0000 0.0000 29.9401 0.0000
# 6 0.0000 0.0000 0.0000 0.0000 0.0000 32.2559
#
#
#
# Elastic Compliance Matrix: (Units=1/GPa)
#
#
# Indices 1 2 3 4 5 6 
#
# 1 0.010058 -0.003481 -0.002498 0.000000 0.000000 0.000000
# 2 -0.003481 0.011829 -0.006089 0.000000 0.000000 0.000000
# 3 -0.002498 -0.006089 0.020398 0.000000 0.000000 0.000000
# 4 0.000000 0.000000 0.000000 -0.889710 0.000000 0.000000
# 5 0.000000 0.000000 0.000000 0.000000 0.033400 0.000000
# 6 0.000000 0.000000 0.000000 0.000000 0.000000 0.031002
#
#
# Mechanical properties :
#
#
# Convention : Reuss Voigt Hill
#
# Bulk Modulus (GPa) = 55.09748 63.08065 59.08907
# Shear Modulus (GPa) = -6.64153 24.63333 8.99590
#
# Velocity S-wave (km/s) = -1.93078 3.71844 2.24710
# Velocity P-wave (km/s) = 5.09470 7.33780 6.31662
#
# Compressibility (1/GPa) = 0.01814965
#
# Stress axis : x y z
#
# Youngs Moduli (GPa) = 99.42620 84.53689 49.02467
#
# Poissons Ratio (x) = 0.29424 0.12245
# Poissons Ratio (y) = 0.34606 0.29852
# Poissons Ratio (z) = 0.24834 0.51476
#
# Static dielectric constant tensor:
#      x y z
#    x 3.435910 0.000000 0.000000 
#    y 0.000000 3.772010 0.000000 
#    z 0.000000 0.000000 3.496360 
# 
# 
# High freq. dielectric constant tensor:
#      x y z
#    x 1.704130 0.000000 0.000000 
#    y 0.000000 1.685280 0.000000 
#    z 0.000000 0.000000 1.676500 
# 
# From -- ./inp_files/59961.got.cif
#   From: 2010.03.12/outbox.cif.g09.slc.cpg/sg65_30_cif.got.tgz:59961.got - 2010.04.10 20:52:16.
