data_PCOD8270698
_publ_section_title
;
Structure prediction by ZEFSAII (Michael W. Deem and Ramdas Pophale) SiO2 
 PCOD8270698
Probable space group: C M M M
;
_chemical_formula_sum "Si O2"
_cell_formula_units_Z 72
_cell_length_a 14.308131
_cell_length_b 36.382458
_cell_length_c 7.934150
_cell_angle_alpha 90.000000
_cell_angle_beta 90.000000
_cell_angle_gamma 90.000000
_cell_volume 4130.240598
_symmetry_space_group_name_H-M "C M M M"
_symmetry_group_IT_number 65
_symmetry_cell_setting 'orthorhombic'
loop_
_space_group_symop_operation_xyz
x,y,z
-x,-y,z
x,-y,-z
-x,y,-z
-x,-y,-z
x,y,-z
-x,y,z
x,-y,z
1/2+x,1/2+y,z
1/2-x,1/2-y,z
1/2+x,1/2-y,-z
1/2-x,1/2+y,-z
1/2-x,1/2-y,-z
1/2+x,1/2+y,-z
1/2-x,1/2+y,z
1/2+x,1/2-y,z
loop_
_atom_site_type_symbol
_atom_site_label
_atom_site_fract_x
_atom_site_fract_y
_atom_site_fract_z
Si Si1 0.889365 0.040930 0.500000
Si Si2 0.895446 0.311064 0.193191
Si Si3 0.107113 0.768575 0.305016
Si Si4 0.392014 0.409755 0.189363
Si Si5 0.711173 0.659754 0.307026
O O1 0.855513 0.061411 0.670419
O O2 0.000000 0.038217 0.500000
O O3 0.845588 0.000000 0.500000
O O4 0.865240 0.268474 0.208054
O O5 0.823506 0.337532 0.291052
O O6 0.000000 0.316383 0.269648
O O7 0.894044 0.322839 0.000000
O O8 0.129243 0.761281 0.500000
O O9 0.168019 0.802377 0.235395
O O10 0.000000 0.779229 0.273973
O O11 0.500000 0.399431 0.225489
O O12 0.329266 0.373414 0.198064
O O13 0.381181 0.426343 0.000000
O O14 0.681487 0.653330 0.500000
#
# Coordination Sequence:
#
# PCOD8270698 Si02
#       5
#     8  16  16  16  16
#     4   9  18  34  54  76 106 139 167 195 230 282
#     4  10  21  34  45  61  89 124 167 218 261 300
#     4   9  18  31  46  64  88 122 163 206 253 302
#     4  10  20  33  51  77 107 136 167 202 240 286
#     4  11  20  31  49  69  94 128 166 209 254 298
#
# _framework density 17.432397999999999
#
# number of rings (size 3 to 8) (size 9 to 14) (size 15 to 20)
#    0.000    2.111    1.111    2.667    0.000    7.111 
#    0.000    4.444    0.000    0.000    0.000    0.000 
#    0.000    1.778    0.000    4.667    0.000    0.222 
#
# Total GULP energy -446403.075186 kJ/mol
# GULP energy per Si atom -12400.085422 kJ/mol
# Density = 1.739272 g / cm^3
# Si number density = 17.432398 Si / 1000 Ang^3
#
#
#
# Elastic Constant Matrix: (Units=GPa)
#
#
# Indices 1 2 3 4 5 6 
#
# 1 69.6056 48.1358 22.6596 0.0000 0.0000 0.0000
# 2 48.1358 80.2322 35.7449 0.0000 0.0000 0.0000
# 3 22.6596 35.7449 83.8004 0.0000 0.0000 0.0000
# 4 0.0000 0.0000 0.0000 15.7945 0.0000 0.0000
# 5 0.0000 0.0000 0.0000 0.0000 20.1650 0.0000
# 6 0.0000 0.0000 0.0000 0.0000 0.0000 12.8976
#
#
#
# Elastic Compliance Matrix: (Units=1/GPa)
#
#
# Indices 1 2 3 4 5 6 
#
# 1 0.024567 -0.014544 -0.000439 0.000000 0.000000 0.000000
# 2 -0.014544 0.023998 -0.006304 0.000000 0.000000 0.000000
# 3 -0.000439 -0.006304 0.014741 0.000000 0.000000 0.000000
# 4 0.000000 0.000000 0.000000 0.063313 0.000000 0.000000
# 5 0.000000 0.000000 0.000000 0.000000 0.049591 0.000000
# 6 0.000000 0.000000 0.000000 0.000000 0.000000 0.077534
#
#
# Mechanical properties :
#
#
# Convention : Reuss Voigt Hill
#
# Bulk Modulus (GPa) = 48.23338 49.63542 48.93440
# Shear Modulus (GPa) = 16.48923 18.24459 17.36691
#
# Velocity S-wave (km/s) = 3.07888 3.23862 3.15976
# Velocity P-wave (km/s) = 6.35360 6.52072 6.43770
#
# Compressibility (1/GPa) = 0.02073253
#
# Stress axis : x y z
#
# Youngs Moduli (GPa) = 40.70447 41.67069 67.83921
#
# Poissons Ratio (x) = 0.60604 0.02981
# Poissons Ratio (y) = 0.59199 0.42763
# Poissons Ratio (z) = 0.01789 0.26268
#
# Static dielectric constant tensor:
#      x y z
#    x 3.191610 0.000000 0.000000 
#    y 0.000000 3.042930 0.000000 
#    z 0.000000 0.000000 3.242950 
# 
# 
# High freq. dielectric constant tensor:
#      x y z
#    x 1.655860 0.000000 0.000000 
#    y 0.000000 1.632980 0.000000 
#    z 0.000000 0.000000 1.681280 
# 
# From -- ./inp_files/7695.got.cif
#   From: 2010.03.12/outbox.cif.g09.slc.cpg/sg65_4_cif.got.tgz:7695.got - 2010.04.10 20:52:16.
