data_PCOD8270162
_publ_section_title
;
Structure prediction by ZEFSAII (Michael W. Deem and Ramdas Pophale) SiO2 
 PCOD8270162
Probable space group: C M M M
;
_chemical_formula_sum "Si O2"
_cell_formula_units_Z 104
_cell_length_a 13.796621
_cell_length_b 21.778763
_cell_length_c 19.721504
_cell_angle_alpha 90.000000
_cell_angle_beta 90.000000
_cell_angle_gamma 90.000000
_cell_volume 5925.786156
_symmetry_space_group_name_H-M "C M M M"
_symmetry_group_IT_number 65
_symmetry_cell_setting 'orthorhombic'
loop_
_space_group_symop_operation_xyz
x,y,z
-x,-y,z
x,-y,-z
-x,y,-z
-x,-y,-z
x,y,-z
-x,y,z
x,-y,z
1/2+x,1/2+y,z
1/2-x,1/2-y,z
1/2+x,1/2-y,-z
1/2-x,1/2+y,-z
1/2-x,1/2-y,-z
1/2+x,1/2+y,-z
1/2-x,1/2+y,z
1/2+x,1/2-y,z
loop_
_atom_site_type_symbol
_atom_site_label
_atom_site_fract_x
_atom_site_fract_y
_atom_site_fract_z
Si Si1 0.240588 0.649442 0.423803
Si Si2 0.608630 0.070568 0.196891
Si Si3 0.750000 0.750000 0.858886
Si Si4 0.390433 0.744553 0.618370
Si Si5 0.110811 0.818856 0.241364
Si Si6 0.611580 0.157433 0.923705
Si Si7 0.722944 0.571602 0.299011
O O1 0.219749 0.626324 0.500000
O O2 0.333272 0.694202 0.425245
O O3 0.149711 0.687289 0.394306
O O4 0.259370 0.589996 0.377195
O O5 0.500000 0.089932 0.219236
O O6 0.641147 0.104408 0.128547
O O7 0.678458 0.086616 0.258922
O O8 0.614154 0.000000 0.177436
O O9 0.812910 0.797778 0.814970
O O10 0.676038 0.783799 0.908184
O O11 0.500000 0.742025 0.593196
O O12 0.379875 0.729997 0.697909
O O13 0.137027 0.887424 0.267112
O O14 0.000000 0.820106 0.213962
O O15 0.500000 0.176769 0.914531
O O16 0.631641 0.133899 0.000000
O O17 0.693757 0.500000 0.294818
#
# Coordination Sequence:
#
# PCOD8270162 Si02
#       7
#    16  16   8  16  16  16  16
#     4  10  20  32  48  75 103 130 169 210 253 313
#     4   9  18  34  56  78 100 132 174 218 258 299
#     4  12  19  34  52  78 111 144 168 204 259 312
#     4   9  18  32  51  74 101 131 164 211 262 307
#     4  10  20  33  53  80 103 131 175 220 258 302
#     4  10  21  34  52  81 112 141 171 206 253 310
#     4  10  20  36  53  72 100 135 175 217 260 304
#
# _framework density 17.550414
#
# number of rings (size 3 to 8) (size 9 to 14) (size 15 to 20)
#    0.000    2.154    1.538    3.462    0.000    2.769 
#    0.000    1.538    0.000    0.000    0.000    7.538 
#    0.000    2.462    0.000    0.000    0.000    0.000 
#
# Total GULP energy -644762.031862 kJ/mol
# GULP energy per Si atom -12399.269844 kJ/mol
# Density = 1.751047 g / cm^3
# Si number density = 17.550414 Si / 1000 Ang^3
#
#
#
# Elastic Constant Matrix: (Units=GPa)
#
#
# Indices 1 2 3 4 5 6 
#
# 1 90.6477 30.5738 29.9068 0.0000 0.0000 0.0000
# 2 30.5738 62.7212 28.0452 0.0000 0.0000 0.0000
# 3 29.9068 28.0452 74.1059 0.0000 0.0000 0.0000
# 4 0.0000 0.0000 0.0000 20.0297 0.0000 0.0000
# 5 0.0000 0.0000 0.0000 0.0000 18.1716 0.0000
# 6 0.0000 0.0000 0.0000 0.0000 0.0000 22.9053
#
#
#
# Elastic Compliance Matrix: (Units=1/GPa)
#
#
# Indices 1 2 3 4 5 6 
#
# 1 0.013993 -0.005171 -0.003690 0.000000 0.000000 0.000000
# 2 -0.005171 0.021102 -0.005899 0.000000 0.000000 0.000000
# 3 -0.003690 -0.005899 0.017216 0.000000 0.000000 0.000000
# 4 0.000000 0.000000 0.000000 0.049926 0.000000 0.000000
# 5 0.000000 0.000000 0.000000 0.000000 0.055031 0.000000
# 6 0.000000 0.000000 0.000000 0.000000 0.000000 0.043658
#
#
# Mechanical properties :
#
#
# Convention : Reuss Voigt Hill
#
# Bulk Modulus (GPa) = 43.87819 44.94739 44.41279
# Shear Modulus (GPa) = 21.00453 21.48458 21.24455
#
# Velocity S-wave (km/s) = 3.46325 3.50260 3.48298
# Velocity P-wave (km/s) = 6.40684 6.48257 6.44482
#
# Compressibility (1/GPa) = 0.02279037
#
# Stress axis : x y z
#
# Youngs Moduli (GPa) = 71.46256 47.38893 58.08554
#
# Poissons Ratio (x) = 0.24505 0.21435
# Poissons Ratio (y) = 0.36954 0.34265
# Poissons Ratio (z) = 0.26372 0.27955
#
# Static dielectric constant tensor:
#      x y z
#    x 3.394010 0.000000 0.000000 
#    y 0.000000 3.100090 0.000000 
#    z 0.000000 0.000000 3.223540 
# 
# 
# High freq. dielectric constant tensor:
#      x y z
#    x 1.682220 0.000000 0.000000 
#    y 0.000000 1.663920 0.000000 
#    z 0.000000 0.000000 1.674120 
# 
# From -- ./inp_files/53278.got.cif
#   From: 2010.03.12/outbox.cif.g09.slc.cpg/sg65_27_cif.got.tgz:53278.got - 2010.04.10 20:52:16.
