data_PCOD8270192
_publ_section_title
;
Structure prediction by ZEFSAII (Michael W. Deem and Ramdas Pophale) SiO2 
 PCOD8270192
Probable space group: C M M M
;
_chemical_formula_sum "Si O2"
_cell_formula_units_Z 88
_cell_length_a 30.152600
_cell_length_b 9.693451
_cell_length_c 16.673642
_cell_angle_alpha 90.000000
_cell_angle_beta 90.000000
_cell_angle_gamma 90.000000
_cell_volume 4873.417947
_symmetry_space_group_name_H-M "C M M M"
_symmetry_group_IT_number 65
_symmetry_cell_setting 'orthorhombic'
loop_
_space_group_symop_operation_xyz
x,y,z
-x,-y,z
x,-y,-z
-x,y,-z
-x,-y,-z
x,y,-z
-x,y,z
x,-y,z
1/2+x,1/2+y,z
1/2-x,1/2-y,z
1/2+x,1/2-y,-z
1/2-x,1/2+y,-z
1/2-x,1/2-y,-z
1/2+x,1/2+y,-z
1/2-x,1/2+y,z
1/2+x,1/2-y,z
loop_
_atom_site_type_symbol
_atom_site_label
_atom_site_fract_x
_atom_site_fract_y
_atom_site_fract_z
Si Si1 0.550735 0.336429 0.500000
Si Si2 0.792452 0.659381 0.091575
Si Si3 0.214608 0.148689 0.408144
Si Si4 0.375185 0.163101 0.797583
Si Si5 0.548766 0.836764 0.088491
Si Si6 0.382466 0.662771 0.362272
O O1 0.549636 0.500000 0.500000
O O2 0.500000 0.277573 0.500000
O O3 0.577398 0.287732 0.420404
O O4 0.779224 0.500000 0.100805
O O5 0.750000 0.750000 0.113309
O O6 0.830261 0.699653 0.155202
O O7 0.808701 0.688320 0.000000
O O8 0.228733 0.133865 0.500000
O O9 0.250000 0.250000 0.364789
O O10 0.163985 0.198670 0.404972
O O11 0.219267 0.000000 0.365003
O O12 0.414967 0.221508 0.851558
O O13 0.381548 0.247418 0.717077
O O14 0.378437 0.000000 0.779801
O O15 0.500000 0.794842 0.120138
O O16 0.553442 0.000000 0.082976
O O17 0.556645 0.774017 0.000000
O O18 0.386832 0.500000 0.343097
#
# Coordination Sequence:
#
# PCOD8270192 Si02
#       6
#     8  16  16  16  16  16
#     4   9  18  36  60  77  93 129 177 213 246 301
#     4   9  18  33  52  73 101 139 179 213 245 289
#     4   9  17  31  51  72  94 122 157 198 241 285
#     4  10  20  32  49  76 106 132 162 206 255 297
#     4   8  14  27  49  74  98 127 163 200 241 294
#     4  10  20  35  53  74 101 131 167 209 250 296
#
# _framework density 18.057141999999999
#
# number of rings (size 3 to 8) (size 9 to 14) (size 15 to 20)
#    0.000    2.818    0.909    1.091    0.000    5.091 
#    0.000    4.091    0.000    2.182    0.000    1.273 
#    0.000    0.000    0.000    0.000    0.000    0.000 
#
# Total GULP energy -545238.820656 kJ/mol
# GULP energy per Si atom -12391.791379 kJ/mol
# Density = 1.801604 g / cm^3
# Si number density = 18.057142 Si / 1000 Ang^3
#
#
#
# Elastic Constant Matrix: (Units=GPa)
#
#
# Indices 1 2 3 4 5 6 
#
# 1 160.6558 58.3412 73.2112 0.0000 0.0000 0.0000
# 2 58.3412 48.6032 49.4641 0.0000 0.0000 0.0000
# 3 73.2112 49.4641 115.1561 0.0000 0.0000 0.0000
# 4 0.0000 0.0000 0.0000 27.7921 0.0000 0.0000
# 5 0.0000 0.0000 0.0000 0.0000 408.2748 0.0000
# 6 0.0000 0.0000 0.0000 0.0000 0.0000 18.6590
#
#
#
# Elastic Compliance Matrix: (Units=1/GPa)
#
#
# Indices 1 2 3 4 5 6 
#
# 1 0.011406 -0.011213 -0.002435 0.000000 0.000000 0.000000
# 2 -0.011213 0.047578 -0.013308 0.000000 0.000000 0.000000
# 3 -0.002435 -0.013308 0.015948 0.000000 0.000000 0.000000
# 4 0.000000 0.000000 0.000000 0.035982 0.000000 0.000000
# 5 0.000000 0.000000 0.000000 0.000000 0.002449 0.000000
# 6 0.000000 0.000000 0.000000 0.000000 0.000000 0.053594
#
#
# Mechanical properties :
#
#
# Convention : Reuss Voigt Hill
#
# Bulk Modulus (GPa) = 47.57292 76.27200 61.92246
# Shear Modulus (GPa) = 21.94175 100.50507 61.22341
#
# Velocity S-wave (km/s) = 3.48965 7.46862 5.82915
# Velocity P-wave (km/s) = 6.52992 10.80299 8.92593
#
# Compressibility (1/GPa) = 0.02102036
#
# Stress axis : x y z
#
# Youngs Moduli (GPa) = 87.67178 21.01798 62.70330
#
# Poissons Ratio (x) = 0.23568 0.15268
# Poissons Ratio (y) = 0.98310 0.83444
# Poissons Ratio (z) = 0.21348 0.27970
#
# Static dielectric constant tensor:
#      x y z
#    x 3.641000 0.000000 0.000000 
#    y 0.000000 3.191960 0.000000 
#    z 0.000000 0.000000 3.237300 
# 
# 
# High freq. dielectric constant tensor:
#      x y z
#    x 1.710670 0.000000 0.000000 
#    y 0.000000 1.664930 0.000000 
#    z 0.000000 0.000000 1.691940 
# 
# From -- ./inp_files/46755.got.cif
#   From: 2010.03.12/outbox.cif.g09.slc.cpg/sg65_24_cif.got.tgz:46755.got - 2010.04.10 20:52:16.
