data_PCOD8270205
_publ_section_title
;
Structure prediction by ZEFSAII (Michael W. Deem and Ramdas Pophale) SiO2 
 PCOD8270205
Probable space group: C M M M
;
_chemical_formula_sum "Si O2"
_cell_formula_units_Z 96
_cell_length_a 9.156309
_cell_length_b 19.106485
_cell_length_c 29.866614
_cell_angle_alpha 90.000000
_cell_angle_beta 90.000000
_cell_angle_gamma 90.000000
_cell_volume 5225.011219
_symmetry_space_group_name_H-M "C M M M"
_symmetry_group_IT_number 65
_symmetry_cell_setting 'orthorhombic'
loop_
_space_group_symop_operation_xyz
x,y,z
-x,-y,z
x,-y,-z
-x,y,-z
-x,-y,-z
x,y,-z
-x,y,z
x,-y,z
1/2+x,1/2+y,z
1/2-x,1/2-y,z
1/2+x,1/2-y,-z
1/2-x,1/2+y,-z
1/2-x,1/2-y,-z
1/2+x,1/2+y,-z
1/2-x,1/2+y,z
1/2+x,1/2-y,z
loop_
_atom_site_type_symbol
_atom_site_label
_atom_site_fract_x
_atom_site_fract_y
_atom_site_fract_z
Si Si1 0.830462 0.320370 0.805113
Si Si2 0.169786 0.320355 0.299350
Si Si3 0.670112 0.319498 0.050426
Si Si4 0.829819 0.919282 0.129660
Si Si5 0.333154 0.582974 0.365030
Si Si6 0.164044 0.416846 0.450692
O O1 0.750000 0.250000 0.821230
O O2 0.804265 0.333866 0.752896
O O3 0.763786 0.386559 0.830433
O O4 0.000000 0.312246 0.816908
O O5 0.250000 0.250000 0.315265
O O6 0.238579 0.385862 0.324872
O O7 0.000000 0.313634 0.311148
O O8 0.500000 0.303063 0.052105
O O9 0.750000 0.250000 0.067782
O O10 0.712008 0.383598 0.082537
O O11 0.720206 0.339117 0.000000
O O12 0.000000 0.909124 0.140923
O O13 0.786987 0.000000 0.125418
O O14 0.500000 0.607269 0.360470
O O15 0.317626 0.500000 0.361914
O O16 0.272746 0.611784 0.412592
O O17 0.214616 0.390115 0.500000
O O18 0.165805 0.500000 0.450419
O O19 0.000000 0.390076 0.440507
#
# Coordination Sequence:
#
# PCOD8270205 Si02
#       6
#    16  16  16  16  16  16
#     4  10  21  37  57  78 100 131 171 213 256 305
#     4  10  21  37  56  76 100 132 170 211 256 308
#     4   9  18  33  53  76 102 135 176 217 255 300
#     4  10  21  35  52  77 108 140 172 210 258 306
#     4  10  20  32  49  76 107 137 170 210 255 302
#     4   8  14  26  45  69  98 133 172 212 253 298
#
# _framework density 18.373166999999999
#
# number of rings (size 3 to 8) (size 9 to 14) (size 15 to 20)
#    0.000    2.500    0.000    2.500    0.000    6.667 
#    0.000    6.667    0.000    0.500    0.000    3.500 
#    0.000    0.000    0.000    0.000    0.000    0.000 
#
# Total GULP energy -595261.797296 kJ/mol
# GULP energy per Si atom -12401.287444 kJ/mol
# Density = 1.833135 g / cm^3
# Si number density = 18.373167 Si / 1000 Ang^3
#
#
#
# Elastic Constant Matrix: (Units=GPa)
#
#
# Indices 1 2 3 4 5 6 
#
# 1 109.5130 56.7156 65.1572 0.0000 0.0000 0.0000
# 2 56.7156 96.4505 59.6729 0.0000 0.0000 0.0000
# 3 65.1572 59.6729 97.1533 0.0000 0.0000 0.0000
# 4 0.0000 0.0000 0.0000 19.8515 0.0000 0.0000
# 5 0.0000 0.0000 0.0000 0.0000 32.0380 0.0000
# 6 0.0000 0.0000 0.0000 0.0000 0.0000 30.1236
#
#
#
# Elastic Compliance Matrix: (Units=1/GPa)
#
#
# Indices 1 2 3 4 5 6 
#
# 1 0.016352 -0.004565 -0.008163 0.000000 0.000000 0.000000
# 2 -0.004565 0.017997 -0.007992 0.000000 0.000000 0.000000
# 3 -0.008163 -0.007992 0.020677 0.000000 0.000000 0.000000
# 4 0.000000 0.000000 0.000000 0.050374 0.000000 0.000000
# 5 0.000000 0.000000 0.000000 0.000000 0.031213 0.000000
# 6 0.000000 0.000000 0.000000 0.000000 0.000000 0.033197
#
#
# Mechanical properties :
#
#
# Convention : Reuss Voigt Hill
#
# Bulk Modulus (GPa) = 73.61007 74.02313 73.81660
# Shear Modulus (GPa) = 23.17180 24.50735 23.83957
#
# Velocity S-wave (km/s) = 3.55516 3.65618 3.60602
# Velocity P-wave (km/s) = 7.55004 7.62887 7.58956
#
# Compressibility (1/GPa) = 0.01358510
#
# Stress axis : x y z
#
# Youngs Moduli (GPa) = 61.15331 55.56346 48.36396
#
# Poissons Ratio (x) = 0.25367 0.39478
# Poissons Ratio (y) = 0.27919 0.38655
# Poissons Ratio (z) = 0.49918 0.44409
#
# Static dielectric constant tensor:
#      x y z
#    x 3.479160 0.000000 0.000000 
#    y 0.000000 3.166660 0.000000 
#    z 0.000000 0.000000 3.593200 
# 
# 
# High freq. dielectric constant tensor:
#      x y z
#    x 1.717060 0.000000 0.000000 
#    y 0.000000 1.687240 0.000000 
#    z 0.000000 0.000000 1.722840 
# 
# From -- ./inp_files/73089.got.cif
#   From: 2010.03.12/outbox.cif.g09.slc.cpg/sg65_37_cif.got.tgz:73089.got - 2010.04.10 20:52:16.
