data_PCOD8270993
_publ_section_title
;
Structure prediction by ZEFSAII (Michael W. Deem and Ramdas Pophale) SiO2 
 PCOD8270993
Probable space group: C M M M
;
_chemical_formula_sum "Si O2"
_cell_formula_units_Z 104
_cell_length_a 8.115620
_cell_length_b 27.795151
_cell_length_c 28.395255
_cell_angle_alpha 90.000000
_cell_angle_beta 90.000000
_cell_angle_gamma 90.000000
_cell_volume 6405.256335
_symmetry_space_group_name_H-M "C M M M"
_symmetry_group_IT_number 65
_symmetry_cell_setting 'orthorhombic'
loop_
_space_group_symop_operation_xyz
x,y,z
-x,-y,z
x,-y,-z
-x,y,-z
-x,-y,-z
x,y,-z
-x,y,z
x,-y,z
1/2+x,1/2+y,z
1/2-x,1/2-y,z
1/2+x,1/2-y,-z
1/2-x,1/2+y,-z
1/2-x,1/2-y,-z
1/2+x,1/2+y,-z
1/2-x,1/2+y,z
1/2+x,1/2-y,z
loop_
_atom_site_type_symbol
_atom_site_label
_atom_site_fract_x
_atom_site_fract_y
_atom_site_fract_z
Si Si1 0.193957 0.946613 0.216048
Si Si2 0.190387 0.353856 0.447441
Si Si3 0.500000 0.942682 0.053410
Si Si4 0.185015 0.057334 0.111155
Si Si5 0.193198 0.945951 0.600948
Si Si6 0.805957 0.893641 0.694335
Si Si7 0.809965 0.802838 0.358039
O O1 0.229111 0.925246 0.164076
O O2 0.270921 0.911189 0.255806
O O3 0.000000 0.951185 0.224073
O O4 0.272566 0.000000 0.221042
O O5 0.260740 0.345551 0.500000
O O6 0.214675 0.409575 0.433759
O O7 0.280495 0.317298 0.412216
O O8 0.000000 0.340886 0.445519
O O9 0.668759 0.922890 0.077530
O O10 0.500000 0.000000 0.055872
O O11 0.500000 0.923974 0.000000
O O12 0.000000 0.075790 0.096166
O O13 0.181144 0.000000 0.110376
O O14 0.234638 0.933783 0.655144
O O15 0.000000 0.940256 0.591655
O O16 0.253949 0.000000 0.590292
O O17 0.727487 0.842608 0.677012
O O18 0.000000 0.887264 0.700015
O O19 0.750000 0.750000 0.345713
O O20 0.000000 0.803953 0.348102
#
# Coordination Sequence:
#
# PCOD8270993 Si02
#       7
#    16  16   8  16  16  16  16
#     4   8  12  20  38  61  83 107 135 172 210 244
#     4  10  21  35  49  65  85 109 138 172 210 251
#     4   9  16  24  34  48  72 108 148 192 227 251
#     4   8  14  23  35  52  74 104 142 183 223 257
#     4   9  17  29  46  67  90 115 141 170 204 247
#     4   8  14  25  43  66  85 106 139 170 201 250
#     4  10  20  34  52  69  86 108 133 169 210 255
#
# _framework density 16.236664000000001
#
# number of rings (size 3 to 8) (size 9 to 14) (size 15 to 20)
#    0.000    3.154    0.000    3.231    0.000    4.308 
#    0.000    3.077    8.462    0.000    0.000    0.000 
#    0.000    0.000    0.000    0.000    0.000    0.769 
#
# Total GULP energy -644308.242700 kJ/mol
# GULP energy per Si atom -12390.543129 kJ/mol
# Density = 1.619971 g / cm^3
# Si number density = 16.236664 Si / 1000 Ang^3
#
#
#
# Elastic Constant Matrix: (Units=GPa)
#
#
# Indices 1 2 3 4 5 6 
#
# 1 49.8853 13.5927 35.4686 0.0000 0.0000 0.0000
# 2 13.5927 71.0316 31.4170 0.0000 0.0000 0.0000
# 3 35.4686 31.4170 117.0751 0.0000 0.0000 0.0000
# 4 0.0000 0.0000 0.0000 11.2703 0.0000 0.0000
# 5 0.0000 0.0000 0.0000 0.0000 15.9645 0.0000
# 6 0.0000 0.0000 0.0000 0.0000 0.0000 16.6186
#
#
#
# Elastic Compliance Matrix: (Units=1/GPa)
#
#
# Indices 1 2 3 4 5 6 
#
# 1 0.025724 -0.001674 -0.007344 0.000000 0.000000 0.000000
# 2 -0.001674 0.016083 -0.003809 0.000000 0.000000 0.000000
# 3 -0.007344 -0.003809 0.011788 0.000000 0.000000 0.000000
# 4 0.000000 0.000000 0.000000 0.088729 0.000000 0.000000
# 5 0.000000 0.000000 0.000000 0.000000 0.062639 0.000000
# 6 0.000000 0.000000 0.000000 0.000000 0.000000 0.060174
#
#
# Mechanical properties :
#
#
# Convention : Reuss Voigt Hill
#
# Bulk Modulus (GPa) = 35.78890 44.32762 40.05826
# Shear Modulus (GPa) = 16.66090 19.27161 17.96626
#
# Velocity S-wave (km/s) = 3.20680 3.44891 3.33005
# Velocity P-wave (km/s) = 5.98342 6.57420 6.28576
#
# Compressibility (1/GPa) = 0.02794163
#
# Stress axis : x y z
#
# Youngs Moduli (GPa) = 38.87464 62.17668 84.82888
#
# Poissons Ratio (x) = 0.10411 0.62297
# Poissons Ratio (y) = 0.06509 0.32308
# Poissons Ratio (z) = 0.28549 0.23681
#
# Static dielectric constant tensor:
#      x y z
#    x 2.983180 0.000000 0.000000 
#    y 0.000000 2.593820 0.000000 
#    z 0.000000 0.000000 3.215420 
# 
# 
# High freq. dielectric constant tensor:
#      x y z
#    x 1.612760 0.000000 0.000000 
#    y 0.000000 1.579650 0.000000 
#    z 0.000000 0.000000 1.614130 
# 
# From -- ./inp_files/73781.got.cif
#   From: 2010.03.12/outbox.cif.g09.slc.cpg/sg65_37_cif.got.tgz:73781.got - 2010.04.10 20:52:16.
