data_PCOD8270830
_publ_section_title
;
Structure prediction by ZEFSAII (Michael W. Deem and Ramdas Pophale) SiO2 
 PCOD8270830
Probable space group: C M M M
;
_chemical_formula_sum "Si O2"
_cell_formula_units_Z 88
_cell_length_a 8.695499
_cell_length_b 29.170133
_cell_length_c 16.152561
_cell_angle_alpha 90.000000
_cell_angle_beta 90.000000
_cell_angle_gamma 90.000000
_cell_volume 4097.078721
_symmetry_space_group_name_H-M "C M M M"
_symmetry_group_IT_number 65
_symmetry_cell_setting 'orthorhombic'
loop_
_space_group_symop_operation_xyz
x,y,z
-x,-y,z
x,-y,-z
-x,y,-z
-x,-y,-z
x,y,-z
-x,y,z
x,-y,z
1/2+x,1/2+y,z
1/2-x,1/2-y,z
1/2+x,1/2-y,-z
1/2-x,1/2+y,-z
1/2-x,1/2-y,-z
1/2+x,1/2+y,-z
1/2-x,1/2+y,z
1/2+x,1/2-y,z
loop_
_atom_site_type_symbol
_atom_site_label
_atom_site_fract_x
_atom_site_fract_y
_atom_site_fract_z
Si Si1 0.819424 0.797985 0.270493
Si Si2 0.317927 0.553708 0.500000
Si Si3 0.676732 0.666892 0.908700
Si Si4 0.677076 0.885010 0.354741
Si Si5 0.673801 0.929345 0.091430
Si Si6 0.829097 0.950350 0.244446
O O1 0.750000 0.750000 0.300220
O O2 0.778781 0.803249 0.172389
O O3 0.749138 0.835733 0.333559
O O4 0.000000 0.798249 0.285049
O O5 0.256173 0.500000 0.500000
O O6 0.500000 0.551761 0.500000
O O7 0.263923 0.583822 0.577839
O O8 0.500000 0.650614 0.899466
O O9 0.789884 0.624371 0.906654
O O10 0.697565 0.691741 0.000000
O O11 0.500000 0.878803 0.379920
O O12 0.697565 0.915313 0.272734
O O13 0.500000 0.936925 0.122368
O O14 0.793676 0.957158 0.147807
O O15 0.694341 0.949349 0.000000
O O16 0.000000 0.929606 0.258249
O O17 0.819706 0.000000 0.289104
#
# Coordination Sequence:
#
# PCOD8270830 Si02
#       6
#    16   8  16  16  16  16
#     4  11  23  40  64  94 131 174 222 270 323 384
#     4  11  25  47  76 107 138 171 207 249 307 383
#     4   9  18  34  57  84 119 167 219 270 324 380
#     4  12  25  43  68  98 132 166 206 260 319 376
#     4  10  20  33  52  80 115 157 207 263 319 375
#     4  11  23  38  58  85 119 163 211 257 313 381
#
# _framework density 21.478719999999999
#
# number of rings (size 3 to 8) (size 9 to 14) (size 15 to 20)
#    0.000    1.364    1.818    4.091    0.000    6.909 
#    0.000    2.273    0.000    0.000    0.000    0.000 
#    0.000    0.000    0.000    0.000    0.000    0.000 
#
# Total GULP energy -545083.796210 kJ/mol
# GULP energy per Si atom -12388.268096 kJ/mol
# Density = 2.142983 g / cm^3
# Si number density = 21.478720 Si / 1000 Ang^3
#
#
#
# Elastic Constant Matrix: (Units=GPa)
#
#
# Indices 1 2 3 4 5 6 
#
# 1 95.9469 46.7735 33.9136 0.0000 0.0000 0.0000
# 2 46.7735 144.3921 54.4194 0.0000 0.0000 0.0000
# 3 33.9136 54.4194 89.7896 0.0000 0.0000 0.0000
# 4 0.0000 0.0000 0.0000 16.2070 0.0000 0.0000
# 5 0.0000 0.0000 0.0000 0.0000 31.8555 0.0000
# 6 0.0000 0.0000 0.0000 0.0000 0.0000 27.9522
#
#
#
# Elastic Compliance Matrix: (Units=1/GPa)
#
#
# Indices 1 2 3 4 5 6 
#
# 1 0.012993 -0.003058 -0.003054 0.000000 0.000000 0.000000
# 2 -0.003058 0.009695 -0.004721 0.000000 0.000000 0.000000
# 3 -0.003054 -0.004721 0.015152 0.000000 0.000000 0.000000
# 4 0.000000 0.000000 0.000000 0.061702 0.000000 0.000000
# 5 0.000000 0.000000 0.000000 0.000000 0.031392 0.000000
# 6 0.000000 0.000000 0.000000 0.000000 0.000000 0.035775
#
#
# Mechanical properties :
#
#
# Convention : Reuss Voigt Hill
#
# Bulk Modulus (GPa) = 61.82768 66.70463 64.26616
# Shear Modulus (GPa) = 25.80424 28.20441 27.00433
#
# Velocity S-wave (km/s) = 3.46986 3.62765 3.54963
# Velocity P-wave (km/s) = 6.70084 6.97639 6.84000
#
# Compressibility (1/GPa) = 0.01617398
#
# Stress axis : x y z
#
# Youngs Moduli (GPa) = 76.96728 103.14086 65.99712
#
# Poissons Ratio (x) = 0.31537 0.20156
# Poissons Ratio (y) = 0.23534 0.31159
# Poissons Ratio (z) = 0.23507 0.48696
#
# Static dielectric constant tensor:
#      x y z
#    x 3.770540 0.000000 0.000000 
#    y 0.000000 3.765400 0.000000 
#    z 0.000000 0.000000 4.300860 
# 
# 
# High freq. dielectric constant tensor:
#      x y z
#    x 1.844100 0.000000 0.000000 
#    y 0.000000 1.831920 0.000000 
#    z 0.000000 0.000000 1.843880 
# 
# From -- ./inp_files/50399.got.cif
#   From: 2010.03.12/outbox.cif.g09.slc.cpg/sg65_26_cif.got.tgz:50399.got - 2010.04.10 20:52:16.
