data_PCOD8270595
_publ_section_title
;
Structure prediction by ZEFSAII (Michael W. Deem and Ramdas Pophale) SiO2 
 PCOD8270595
Probable space group: C M M M
;
_chemical_formula_sum "Si O2"
_cell_formula_units_Z 104
_cell_length_a 22.525497
_cell_length_b 27.437010
_cell_length_c 9.395021
_cell_angle_alpha 90.000000
_cell_angle_beta 90.000000
_cell_angle_gamma 90.000000
_cell_volume 5806.426310
_symmetry_space_group_name_H-M "C M M M"
_symmetry_group_IT_number 65
_symmetry_cell_setting 'orthorhombic'
loop_
_space_group_symop_operation_xyz
x,y,z
-x,-y,z
x,-y,-z
-x,y,-z
-x,-y,-z
x,y,-z
-x,y,z
x,-y,z
1/2+x,1/2+y,z
1/2-x,1/2-y,z
1/2+x,1/2-y,-z
1/2-x,1/2+y,-z
1/2-x,1/2-y,-z
1/2+x,1/2+y,-z
1/2-x,1/2+y,z
1/2+x,1/2-y,z
loop_
_atom_site_type_symbol
_atom_site_label
_atom_site_fract_x
_atom_site_fract_y
_atom_site_fract_z
Si Si1 0.432862 0.725647 0.163381
Si Si2 0.746584 0.693488 0.333948
Si Si3 0.929039 0.500000 0.658855
Si Si4 0.641218 0.181960 0.834095
Si Si5 0.377617 0.357001 0.331068
Si Si6 0.930298 0.588561 0.160140
Si Si7 0.431171 0.443636 0.165692
O O1 0.500000 0.745317 0.176403
O O2 0.387826 0.767323 0.217000
O O3 0.426469 0.678870 0.264194
O O4 0.419082 0.711025 0.000000
O O5 0.758566 0.688087 0.500000
O O6 0.750000 0.750000 0.287429
O O7 0.799475 0.667836 0.249544
O O8 0.686276 0.665883 0.290294
O O9 0.903970 0.500000 0.500000
O O10 0.903489 0.452491 0.737086
O O11 0.000000 0.500000 0.663107
O O12 0.594422 0.140567 0.795416
O O13 0.656106 0.184060 0.000000
O O14 0.386143 0.360744 0.500000
O O15 0.387736 0.410196 0.261616
O O16 0.000000 0.591963 0.177151
O O17 0.912094 0.574402 0.000000
O O18 0.500000 0.432956 0.203121
O O19 0.416125 0.500000 0.199252
O O20 0.419502 0.432260 0.000000
#
# Coordination Sequence:
#
# PCOD8270595 Si02
#       7
#    16  16   8  16  16  16  16
#     4  10  20  33  50  76 110 141 169 209 261 313
#     4  10  21  38  54  71 103 144 179 214 258 304
#     4   9  17  29  47  73 101 131 169 205 242 301
#     4  10  20  33  53  78 101 132 177 220 256 306
#     4  11  22  35  54  79 107 142 182 221 260 310
#     4   9  17  31  51  75 104 134 164 208 265 312
#     4   9  19  37  60  85 113 143 174 215 273 332
#
# _framework density 17.911190000000001
#
# number of rings (size 3 to 8) (size 9 to 14) (size 15 to 20)
#    0.000    2.231    1.538    2.077    0.000    7.692 
#    0.000    0.769    1.692    2.769    0.000    0.000 
#    0.000    0.000    0.000    0.000    0.000    0.000 
#
# Total GULP energy -644773.619842 kJ/mol
# GULP energy per Si atom -12399.492689 kJ/mol
# Density = 1.787042 g / cm^3
# Si number density = 17.911190 Si / 1000 Ang^3
#
#
#
# Elastic Constant Matrix: (Units=GPa)
#
#
# Indices 1 2 3 4 5 6 
#
# 1 61.7142 42.6410 39.0847 0.0000 0.0000 0.0000
# 2 42.6410 121.3072 62.6240 0.0000 0.0000 0.0000
# 3 39.0847 62.6240 79.3375 0.0000 0.0000 0.0000
# 4 0.0000 0.0000 0.0000 24.8653 0.0000 0.0000
# 5 0.0000 0.0000 0.0000 0.0000 28.3383 0.0000
# 6 0.0000 0.0000 0.0000 0.0000 0.0000 20.3239
#
#
#
# Elastic Compliance Matrix: (Units=1/GPa)
#
#
# Indices 1 2 3 4 5 6 
#
# 1 0.024676 -0.004048 -0.008961 0.000000 0.000000 0.000000
# 2 -0.004048 0.014577 -0.009512 0.000000 0.000000 0.000000
# 3 -0.008961 -0.009512 0.024527 0.000000 0.000000 0.000000
# 4 0.000000 0.000000 0.000000 0.040217 0.000000 0.000000
# 5 0.000000 0.000000 0.000000 0.000000 0.035288 0.000000
# 6 0.000000 0.000000 0.000000 0.000000 0.000000 0.049203
#
#
# Mechanical properties :
#
#
# Convention : Reuss Voigt Hill
#
# Bulk Modulus (GPa) = 53.36755 61.22869 57.29812
# Shear Modulus (GPa) = 20.85284 22.57277 21.71280
#
# Velocity S-wave (km/s) = 3.41579 3.55387 3.48551
# Velocity P-wave (km/s) = 6.73923 7.14834 6.94680
#
# Compressibility (1/GPa) = 0.01873798
#
# Stress axis : x y z
#
# Youngs Moduli (GPa) = 40.52561 68.60201 40.77104
#
# Poissons Ratio (x) = 0.27768 0.36536
# Poissons Ratio (y) = 0.16403 0.38781
# Poissons Ratio (z) = 0.36316 0.65254
#
# Static dielectric constant tensor:
#      x y z
#    x 3.149170 0.000000 0.000000 
#    y 0.000000 3.380940 0.000000 
#    z 0.000000 0.000000 3.296960 
# 
# 
# High freq. dielectric constant tensor:
#      x y z
#    x 1.674510 0.000000 0.000000 
#    y 0.000000 1.694780 0.000000 
#    z 0.000000 0.000000 1.691840 
# 
# From -- ./inp_files/14725.got.cif
#   From: 2010.03.12/outbox.cif.g09.slc.cpg/sg65_8_cif.got.tgz:14725.got - 2010.04.10 20:52:16.
