data_PCOD8270446
_publ_section_title
;
Structure prediction by ZEFSAII (Michael W. Deem and Ramdas Pophale) SiO2 
 PCOD8270446
Probable space group: C M M M
;
_chemical_formula_sum "Si O2"
_cell_formula_units_Z 56
_cell_length_a 18.012877
_cell_length_b 17.538023
_cell_length_c 9.161129
_cell_angle_alpha 90.000000
_cell_angle_beta 90.000000
_cell_angle_gamma 90.000000
_cell_volume 2894.094563
_symmetry_space_group_name_H-M "C M M M"
_symmetry_group_IT_number 65
_symmetry_cell_setting 'orthorhombic'
loop_
_space_group_symop_operation_xyz
x,y,z
-x,-y,z
x,-y,-z
-x,y,-z
-x,-y,-z
x,y,-z
-x,y,z
x,-y,z
1/2+x,1/2+y,z
1/2-x,1/2-y,z
1/2+x,1/2-y,-z
1/2-x,1/2+y,-z
1/2-x,1/2-y,-z
1/2+x,1/2+y,-z
1/2-x,1/2+y,z
1/2+x,1/2-y,z
loop_
_atom_site_type_symbol
_atom_site_label
_atom_site_fract_x
_atom_site_fract_y
_atom_site_fract_z
Si Si1 0.581736 0.414366 0.673079
Si Si2 0.771111 0.835154 0.672271
Si Si3 0.000000 0.591089 0.664479
Si Si4 0.141500 0.410307 0.837028
O O1 0.580617 0.415933 0.500000
O O2 0.500000 0.388186 0.730525
O O3 0.599262 0.500000 0.730638
O O4 0.645301 0.355447 0.725726
O O5 0.761801 0.847257 0.500000
O O6 0.750000 0.750000 0.719839
O O7 0.716935 0.892802 0.753222
O O8 0.072160 0.623884 0.747039
O O9 0.000000 0.500000 0.661583
O O10 0.000000 0.623795 0.500000
O O11 0.132100 0.500000 0.847517
O O12 0.142311 0.374949 0.000000
#
# Coordination Sequence:
#
# PCOD8270446 Si02
#       4
#    16  16   8  16
#     4   8  14  27  49  73  96 128 172 220 264 305
#     4  10  20  33  49  76 108 137 174 219 271 325
#     4   9  17  31  53  79 103 129 168 217 262 305
#     4  10  20  34  53  76 104 140 179 218 264 320
#
# _framework density 19.349746
#
# number of rings (size 3 to 8) (size 9 to 14) (size 15 to 20)
#    0.000    2.714    0.000    3.000    0.000    5.143 
#    2.571    0.000    0.000    0.857    0.000    4.000 
#    0.000    0.000    0.000    0.000    0.000    0.000 
#
# Total GULP energy -347087.672605 kJ/mol
# GULP energy per Si atom -12395.988307 kJ/mol
# Density = 1.930571 g / cm^3
# Si number density = 19.349746 Si / 1000 Ang^3
#
#
#
# Elastic Constant Matrix: (Units=GPa)
#
#
# Indices 1 2 3 4 5 6 
#
# 1 193.8564 55.2139 47.4929 0.0000 0.0000 0.0000
# 2 55.2139 55.2894 16.7931 0.0000 0.0000 0.0000
# 3 47.4929 16.7931 70.4699 0.0000 0.0000 0.0000
# 4 0.0000 0.0000 0.0000 13.3340 0.0000 0.0000
# 5 0.0000 0.0000 0.0000 0.0000 4.4601 0.0000
# 6 0.0000 0.0000 0.0000 0.0000 0.0000 25.0514
#
#
#
# Elastic Compliance Matrix: (Units=1/GPa)
#
#
# Indices 1 2 3 4 5 6 
#
# 1 0.008046 -0.006887 -0.003782 0.000000 0.000000 0.000000
# 2 -0.006887 0.025392 -0.001410 0.000000 0.000000 0.000000
# 3 -0.003782 -0.001410 0.017075 0.000000 0.000000 0.000000
# 4 0.000000 0.000000 0.000000 0.074996 0.000000 0.000000
# 5 0.000000 0.000000 0.000000 0.000000 0.224209 0.000000
# 6 0.000000 0.000000 0.000000 0.000000 0.000000 0.039918
#
#
# Mechanical properties :
#
#
# Convention : Reuss Voigt Hill
#
# Bulk Modulus (GPa) = 37.94012 62.06838 50.00425
# Shear Modulus (GPa) = 11.83210 21.91015 16.87112
#
# Velocity S-wave (km/s) = 2.47551 3.36865 2.95601
# Velocity P-wave (km/s) = 5.27456 6.87584 6.12773
#
# Compressibility (1/GPa) = 0.02635732
#
# Stress axis : x y z
#
# Youngs Moduli (GPa) = 124.27852 39.38210 58.56495
#
# Poissons Ratio (x) = 0.27122 0.22148
# Poissons Ratio (y) = 0.85589 0.08256
# Poissons Ratio (z) = 0.46999 0.05552
#
# Static dielectric constant tensor:
#      x y z
#    x 3.952330 0.000000 0.000000 
#    y 0.000000 3.245210 0.000000 
#    z 0.000000 0.000000 3.366360 
# 
# 
# High freq. dielectric constant tensor:
#      x y z
#    x 1.771970 0.000000 0.000000 
#    y 0.000000 1.718910 0.000000 
#    z 0.000000 0.000000 1.723140 
# 
# From -- ./inp_files/6251.got.cif
#   From: 2010.03.12/outbox.cif.g09.slc.cpg/sg65_4_cif.got.tgz:6251.got - 2010.04.10 20:52:16.
