data_PCOD8270527
_publ_section_title
;
Structure prediction by ZEFSAII (Michael W. Deem and Ramdas Pophale) SiO2 
 PCOD8270527
Probable space group: C M M M
;
_chemical_formula_sum "Si O2"
_cell_formula_units_Z 88
_cell_length_a 8.834570
_cell_length_b 18.654653
_cell_length_c 28.702470
_cell_angle_alpha 90.000000
_cell_angle_beta 90.000000
_cell_angle_gamma 90.000000
_cell_volume 4730.334614
_symmetry_space_group_name_H-M "C M M M"
_symmetry_group_IT_number 65
_symmetry_cell_setting 'orthorhombic'
loop_
_space_group_symop_operation_xyz
x,y,z
-x,-y,z
x,-y,-z
-x,y,-z
-x,-y,-z
x,y,-z
-x,y,z
x,-y,z
1/2+x,1/2+y,z
1/2-x,1/2-y,z
1/2+x,1/2-y,-z
1/2-x,1/2+y,-z
1/2-x,1/2-y,-z
1/2+x,1/2+y,-z
1/2-x,1/2+y,z
1/2+x,1/2-y,z
loop_
_atom_site_type_symbol
_atom_site_label
_atom_site_fract_x
_atom_site_fract_y
_atom_site_fract_z
Si Si1 0.672773 0.584106 0.822028
Si Si2 0.676680 0.083668 0.917843
Si Si3 0.176623 0.672320 0.741614
Si Si4 0.674814 0.827079 0.638744
Si Si5 0.323058 0.671832 0.449538
Si Si6 0.679031 0.671799 0.000000
O O1 0.500000 0.609069 0.828943
O O2 0.684047 0.500000 0.814452
O O3 0.768728 0.607982 0.866917
O O4 0.742789 0.619302 0.776679
O O5 0.500000 0.100656 0.923213
O O6 0.769742 0.129061 0.954650
O O7 0.710886 0.000000 0.926404
O O8 0.250000 0.750000 0.746068
O O9 0.199852 0.638005 0.689761
O O10 0.000000 0.679067 0.753580
O O11 0.500000 0.818776 0.627155
O O12 0.750000 0.750000 0.641371
O O13 0.751425 0.870599 0.595159
O O14 0.290129 0.634163 0.500000
O O15 0.500000 0.679077 0.441274
O O16 0.250000 0.750000 0.450548
O O17 0.750000 0.750000 0.000000
O O18 0.500000 0.679047 0.000000
#
# Coordination Sequence:
#
# PCOD8270527 Si02
#       6
#    16  16  16  16  16   8
#     4  10  21  37  57  81 107 136 173 215 257 302
#     4  10  21  39  62  85 110 141 176 213 256 306
#     4  10  20  33  50  73 101 134 171 210 256 308
#     4   9  16  25  38  57  83 117 156 197 242 294
#     4   9  15  21  31  49  75 110 151 193 238 289
#     4  12  25  40  59  85 117 147 179 218 257 300
#
# _framework density 18.603335000000001
#
# number of rings (size 3 to 8) (size 9 to 14) (size 15 to 20)
#    0.000    2.182    0.000    4.909    0.000    7.273 
#    0.000    3.636    0.000    0.000    0.000    0.000 
#    0.000    0.727    0.000    8.000    0.000    8.909 
#
# Total GULP energy -545276.889791 kJ/mol
# GULP energy per Si atom -12392.656586 kJ/mol
# Density = 1.856099 g / cm^3
# Si number density = 18.603335 Si / 1000 Ang^3
#
#
#
# Elastic Constant Matrix: (Units=GPa)
#
#
# Indices 1 2 3 4 5 6 
#
# 1 142.9302 41.4208 76.4622 0.0000 0.0000 0.0000
# 2 41.4208 32.5635 48.5783 0.0000 0.0000 0.0000
# 3 76.4622 48.5783 169.0047 0.0000 0.0000 0.0000
# 4 0.0000 0.0000 0.0000 206.8675 0.0000 0.0000
# 5 0.0000 0.0000 0.0000 0.0000 39.7470 0.0000
# 6 0.0000 0.0000 0.0000 0.0000 0.0000 22.7486
#
#
#
# Elastic Compliance Matrix: (Units=1/GPa)
#
#
# Indices 1 2 3 4 5 6 
#
# 1 0.011362 -0.011876 -0.001727 0.000000 0.000000 0.000000
# 2 -0.011876 0.066177 -0.013648 0.000000 0.000000 0.000000
# 3 -0.001727 -0.013648 0.010621 0.000000 0.000000 0.000000
# 4 0.000000 0.000000 0.000000 0.004834 0.000000 0.000000
# 5 0.000000 0.000000 0.000000 0.000000 0.025159 0.000000
# 6 0.000000 0.000000 0.000000 0.000000 0.000000 0.043959
#
#
# Mechanical properties :
#
#
# Convention : Reuss Voigt Hill
#
# Bulk Modulus (GPa) = 29.71170 75.26901 52.49035
# Shear Modulus (GPa) = 21.94579 65.74175 43.84377
#
# Velocity S-wave (km/s) = 3.43836 5.95108 4.85992
# Velocity P-wave (km/s) = 5.63639 9.36848 7.73102
#
# Compressibility (1/GPa) = 0.03365678
#
# Stress axis : x y z
#
# Youngs Moduli (GPa) = 88.01343 15.11103 94.15067
#
# Poissons Ratio (x) = 0.17947 0.16257
# Poissons Ratio (y) = 1.04529 1.28501
# Poissons Ratio (z) = 0.15197 0.20624
#
# Static dielectric constant tensor:
#      x y z
#    x 3.653150 0.000000 0.000000 
#    y 0.000000 2.922500 0.000000 
#    z 0.000000 0.000000 4.450520 
# 
# 
# High freq. dielectric constant tensor:
#      x y z
#    x 1.744430 0.000000 0.000000 
#    y 0.000000 1.657610 0.000000 
#    z 0.000000 0.000000 1.754880 
# 
# From -- ./inp_files/76504.got.cif
#   From: 2010.03.12/outbox.cif.g09.slc.cpg/sg65_39_cif.got.tgz:76504.got - 2010.04.10 20:52:16.
