data_PCOD8270958
_publ_section_title
;
Structure prediction by ZEFSAII (Michael W. Deem and Ramdas Pophale) SiO2 
 PCOD8270958
Probable space group: C M M M
;
_chemical_formula_sum "Si O2"
_cell_formula_units_Z 88
_cell_length_a 30.659393
_cell_length_b 9.113894
_cell_length_c 17.570112
_cell_angle_alpha 90.000000
_cell_angle_beta 90.000000
_cell_angle_gamma 90.000000
_cell_volume 4909.554161
_symmetry_space_group_name_H-M "C M M M"
_symmetry_group_IT_number 65
_symmetry_cell_setting 'orthorhombic'
loop_
_space_group_symop_operation_xyz
x,y,z
-x,-y,z
x,-y,-z
-x,y,-z
-x,-y,-z
x,y,-z
-x,y,z
x,-y,z
1/2+x,1/2+y,z
1/2-x,1/2-y,z
1/2+x,1/2-y,-z
1/2-x,1/2+y,-z
1/2-x,1/2-y,-z
1/2+x,1/2+y,-z
1/2-x,1/2+y,z
1/2+x,1/2-y,z
loop_
_atom_site_type_symbol
_atom_site_label
_atom_site_fract_x
_atom_site_fract_y
_atom_site_fract_z
Si Si1 0.672142 0.670289 0.083393
Si Si2 0.409252 0.833210 0.866160
Si Si3 0.048551 0.674225 0.413694
Si Si4 0.705992 0.674242 0.245079
Si Si5 0.500000 0.166231 0.910724
Si Si6 0.623297 0.167859 0.697700
O O1 0.662866 0.500000 0.093581
O O2 0.625871 0.749153 0.083642
O O3 0.700475 0.723343 0.156017
O O4 0.694321 0.702565 0.000000
O O5 0.456247 0.756843 0.879397
O O6 0.400271 0.824729 0.777680
O O7 0.409305 0.000000 0.896238
O O8 0.057308 0.725531 0.500000
O O9 0.048830 0.500000 0.407491
O O10 0.088373 0.735448 0.362276
O O11 0.000000 0.730041 0.387834
O O12 0.709327 0.500000 0.254031
O O13 0.750000 0.750000 0.274813
O O14 0.666800 0.733037 0.298328
O O15 0.500000 0.000000 0.879630
O O16 0.500000 0.173884 0.000000
O O17 0.636369 0.000000 0.677250
#
# Coordination Sequence:
#
# PCOD8270958 Si02
#       6
#    16  16  16  16   8  16
#     4   9  18  32  47  63  87 118 151 192 242 290
#     4   9  17  27  41  62  87 119 158 197 234 273
#     4   8  14  25  45  76 109 135 159 191 231 275
#     4  10  20  34  51  70  94 122 157 199 244 290
#     4   9  16  24  35  55  84 116 152 195 235 265
#     4   9  17  29  48  72  97 126 160 195 234 280
#
# _framework density 17.924234999999999
#
# number of rings (size 3 to 8) (size 9 to 14) (size 15 to 20)
#    0.000    3.000    0.000    1.636    1.273    2.182 
#    0.000    0.455    0.000    3.273    0.000    1.273 
#    0.000    0.000    0.000    0.000    0.000    0.000 
#
# Total GULP energy -545211.658147 kJ/mol
# GULP energy per Si atom -12391.174049 kJ/mol
# Density = 1.788344 g / cm^3
# Si number density = 17.924235 Si / 1000 Ang^3
#
#
#
# Elastic Constant Matrix: (Units=GPa)
#
#
# Indices 1 2 3 4 5 6 
#
# 1 144.8534 37.8626 44.1883 0.0000 0.0000 0.0000
# 2 37.8626 35.1320 17.9948 0.0000 0.0000 0.0000
# 3 44.1883 17.9948 65.2349 0.0000 0.0000 0.0000
# 4 0.0000 0.0000 0.0000 13.3380 0.0000 0.0000
# 5 0.0000 0.0000 0.0000 0.0000 20.3365 0.0000
# 6 0.0000 0.0000 0.0000 0.0000 0.0000 -13.9229
#
#
#
# Elastic Compliance Matrix: (Units=1/GPa)
#
#
# Indices 1 2 3 4 5 6 
#
# 1 0.010744 -0.009143 -0.004756 0.000000 0.000000 0.000000
# 2 -0.009143 0.040929 -0.005097 0.000000 0.000000 0.000000
# 3 -0.004756 -0.005097 0.019956 0.000000 0.000000 0.000000
# 4 0.000000 0.000000 0.000000 0.074974 0.000000 0.000000
# 5 0.000000 0.000000 0.000000 0.000000 0.049173 0.000000
# 6 0.000000 0.000000 0.000000 0.000000 0.000000 -0.071824
#
#
# Mechanical properties :
#
#
# Convention : Reuss Voigt Hill
#
# Bulk Modulus (GPa) = 29.72823 49.47908 39.60366
# Shear Modulus (GPa) = 28.87585 13.62864 21.25225
#
# Velocity S-wave (km/s) = 4.01807 2.76043 3.44709
# Velocity P-wave (km/s) = 6.17641 6.15016 6.16330
#
# Compressibility (1/GPa) = 0.03363806
#
# Stress axis : x y z
#
# Youngs Moduli (GPa) = 93.07329 24.43279 50.10917
#
# Poissons Ratio (x) = 0.22340 0.23830
# Poissons Ratio (y) = 0.85101 0.25538
# Poissons Ratio (z) = 0.44262 0.12452
#
# Static dielectric constant tensor:
#      x y z
#    x 3.483430 0.000000 0.000000 
#    y 0.000000 3.056460 0.000000 
#    z 0.000000 0.000000 3.321920 
# 
# 
# High freq. dielectric constant tensor:
#      x y z
#    x 1.699070 0.000000 0.000000 
#    y 0.000000 1.656320 0.000000 
#    z 0.000000 0.000000 1.676780 
# 
# From -- ./inp_files/50385.got.cif
#   From: 2010.03.12/outbox.cif.g09.slc.cpg/sg65_26_cif.got.tgz:50385.got - 2010.04.10 20:52:16.
