data_PCOD8270791
_publ_section_title
;
Structure prediction by ZEFSAII (Michael W. Deem and Ramdas Pophale) SiO2 
 PCOD8270791
Probable space group: C M M M
;
_chemical_formula_sum "Si O2"
_cell_formula_units_Z 104
_cell_length_a 29.015931
_cell_length_b 9.063450
_cell_length_c 20.228278
_cell_angle_alpha 90.000000
_cell_angle_beta 90.000000
_cell_angle_gamma 90.000000
_cell_volume 5319.722358
_symmetry_space_group_name_H-M "C M M M"
_symmetry_group_IT_number 65
_symmetry_cell_setting 'orthorhombic'
loop_
_space_group_symop_operation_xyz
x,y,z
-x,-y,z
x,-y,-z
-x,y,-z
-x,-y,-z
x,y,-z
-x,y,z
x,-y,z
1/2+x,1/2+y,z
1/2-x,1/2-y,z
1/2+x,1/2-y,-z
1/2-x,1/2+y,-z
1/2-x,1/2-y,-z
1/2+x,1/2+y,-z
1/2-x,1/2+y,z
1/2+x,1/2-y,z
loop_
_atom_site_type_symbol
_atom_site_label
_atom_site_fract_x
_atom_site_fract_y
_atom_site_fract_z
Si Si1 0.446172 0.667382 0.180517
Si Si2 0.703726 0.329896 0.731139
Si Si3 0.700042 0.825133 0.500000
Si Si4 0.296835 0.671395 0.115030
Si Si5 0.355077 0.170523 0.628644
Si Si6 0.448706 0.830618 0.685007
Si Si7 0.114098 0.668898 0.074332
O O1 0.500000 0.673170 0.165699
O O2 0.427270 0.500000 0.178999
O O3 0.435018 0.732618 0.252231
O O4 0.422261 0.760048 0.123528
O O5 0.709574 0.500000 0.713548
O O6 0.750000 0.250000 0.707615
O O7 0.693349 0.303005 0.807701
O O8 0.661519 0.262569 0.691314
O O9 0.750000 0.750000 0.500000
O O10 0.669844 0.771929 0.562544
O O11 0.707212 0.000000 0.500000
O O12 0.293062 0.500000 0.097135
O O13 0.250000 0.750000 0.092940
O O14 0.337907 0.744516 0.074918
O O15 0.410799 0.194166 0.626798
O O16 0.342813 0.000000 0.639761
O O17 0.500000 0.788563 0.658367
O O18 0.447920 0.000000 0.708613
O O19 0.122693 0.500000 0.095416
O O20 0.094135 0.678911 0.000000
#
# Coordination Sequence:
#
# PCOD8270791 Si02
#       7
#    16  16   8  16  16  16  16
#     4  10  21  37  58  84 112 141 175 220 273 325
#     4  10  20  33  52  79 106 133 171 218 268 320
#     4  10  22  38  53  75 109 147 186 224 263 312
#     4  10  21  37  57  80 107 139 177 224 276 328
#     4  10  20  34  53  77 108 144 180 220 264 311
#     4   9  18  34  57  83 109 139 176 218 267 321
#     4  11  24  39  55  77 106 142 183 224 268 322
#
# _framework density 19.549892
#
# number of rings (size 3 to 8) (size 9 to 14) (size 15 to 20)
#    0.000    2.000    0.000    3.231    0.000    9.538 
#    0.000    1.923    0.000    2.308    0.000    0.000 
#    0.000    4.308    0.000    0.000    0.000    0.000 
#
# Total GULP energy -644873.730287 kJ/mol
# GULP energy per Si atom -12401.417890 kJ/mol
# Density = 1.950540 g / cm^3
# Si number density = 19.549892 Si / 1000 Ang^3
#
#
#
# Elastic Constant Matrix: (Units=GPa)
#
#
# Indices 1 2 3 4 5 6 
#
# 1 115.2543 44.9246 58.7209 0.0000 0.0000 0.0000
# 2 44.9246 102.7757 39.0382 0.0000 0.0000 0.0000
# 3 58.7209 39.0382 74.1717 0.0000 0.0000 0.0000
# 4 0.0000 0.0000 0.0000 20.6664 0.0000 0.0000
# 5 0.0000 0.0000 0.0000 0.0000 26.5687 0.0000
# 6 0.0000 0.0000 0.0000 0.0000 0.0000 32.6772
#
#
#
# Elastic Compliance Matrix: (Units=1/GPa)
#
#
# Indices 1 2 3 4 5 6 
#
# 1 0.015066 -0.002568 -0.010576 0.000000 0.000000 0.000000
# 2 -0.002568 0.012599 -0.004598 0.000000 0.000000 0.000000
# 3 -0.010576 -0.004598 0.024275 0.000000 0.000000 0.000000
# 4 0.000000 0.000000 0.000000 0.048388 0.000000 0.000000
# 5 0.000000 0.000000 0.000000 0.000000 0.037638 0.000000
# 6 0.000000 0.000000 0.000000 0.000000 0.000000 0.030602
#
#
# Mechanical properties :
#
#
# Convention : Reuss Voigt Hill
#
# Bulk Modulus (GPa) = 60.76822 64.17436 62.47129
# Shear Modulus (GPa) = 23.86217 25.95033 24.90625
#
# Velocity S-wave (km/s) = 3.49747 3.64729 3.57316
# Velocity P-wave (km/s) = 6.88918 7.11577 7.00339
#
# Compressibility (1/GPa) = 0.01645597
#
# Stress axis : x y z
#
# Youngs Moduli (GPa) = 66.37569 79.37124 41.19513
#
# Poissons Ratio (x) = 0.20386 0.43566
# Poissons Ratio (y) = 0.17048 0.18941
# Poissons Ratio (z) = 0.70196 0.36493
#
# Static dielectric constant tensor:
#      x y z
#    x 3.741260 0.000000 0.000000 
#    y 0.000000 3.667490 0.000000 
#    z 0.000000 0.000000 3.397640 
# 
# 
# High freq. dielectric constant tensor:
#      x y z
#    x 1.772770 0.000000 0.000000 
#    y 0.000000 1.768190 0.000000 
#    z 0.000000 0.000000 1.743160 
# 
# From -- ./inp_files/66376.got.cif
#   From: 2010.03.12/outbox.cif.g09.slc.cpg/sg65_34_cif.got.tgz:66376.got - 2010.04.10 20:52:16.
