data_PCOD8270977
_publ_section_title
;
Structure prediction by ZEFSAII (Michael W. Deem and Ramdas Pophale) SiO2 
 PCOD8270977
Probable space group: C M M M
;
_chemical_formula_sum "Si O2"
_cell_formula_units_Z 72
_cell_length_a 8.867590
_cell_length_b 20.063628
_cell_length_c 22.586060
_cell_angle_alpha 90.000000
_cell_angle_beta 90.000000
_cell_angle_gamma 90.000000
_cell_volume 4018.422061
_symmetry_space_group_name_H-M "C M M M"
_symmetry_group_IT_number 65
_symmetry_cell_setting 'orthorhombic'
loop_
_space_group_symop_operation_xyz
x,y,z
-x,-y,z
x,-y,-z
-x,y,-z
-x,-y,-z
x,y,-z
-x,y,z
x,-y,z
1/2+x,1/2+y,z
1/2-x,1/2-y,z
1/2+x,1/2-y,-z
1/2-x,1/2+y,-z
1/2-x,1/2-y,-z
1/2+x,1/2+y,-z
1/2-x,1/2+y,z
1/2+x,1/2-y,z
loop_
_atom_site_type_symbol
_atom_site_label
_atom_site_fract_x
_atom_site_fract_y
_atom_site_fract_z
Si Si1 0.330327 0.420953 0.000000
Si Si2 0.179242 0.074088 0.565870
Si Si3 0.177401 0.818214 0.656784
Si Si4 0.177866 0.819528 0.792580
Si Si5 0.323009 0.922211 0.120123
O O1 0.242814 0.395628 0.057964
O O2 0.333293 0.500000 0.000000
O O3 0.500000 0.391861 0.000000
O O4 0.230406 0.096802 0.500000
O O5 0.245471 0.123696 0.615315
O O6 0.000000 0.073275 0.569383
O O7 0.241547 0.000000 0.579243
O O8 0.250000 0.750000 0.634595
O O9 0.221336 0.833196 0.724487
O O10 0.000000 0.811840 0.649147
O O11 0.250000 0.750000 0.814418
O O12 0.244999 0.881479 0.827832
O O13 0.000000 0.815605 0.802650
O O14 0.500000 0.908878 0.120291
O O15 0.285425 0.000000 0.129860
#
# Coordination Sequence:
#
# PCOD8270977 Si02
#       5
#     8  16  16  16  16
#     4   9  17  31  52  77 104 133 166 203 243 289
#     4   8  14  26  45  69  96 125 159 200 243 286
#     4   9  18  31  48  70  95 125 161 201 244 291
#     4  10  20  34  51  71  99 133 168 208 253 299
#     4  10  20  34  53  77 104 133 166 204 247 295
#
# _framework density 17.917480000000001
#
# number of rings (size 3 to 8) (size 9 to 14) (size 15 to 20)
#    0.000    2.778    0.000    2.333    0.000    4.889 
#    0.000    2.778    0.000    0.667    0.000    1.556 
#    0.000    0.000    0.000    0.000    0.000    0.000 
#
# Total GULP energy -446361.413638 kJ/mol
# GULP energy per Si atom -12398.928157 kJ/mol
# Density = 1.787670 g / cm^3
# Si number density = 17.917480 Si / 1000 Ang^3
#
#
#
# Elastic Constant Matrix: (Units=GPa)
#
#
# Indices 1 2 3 4 5 6 
#
# 1 66.4487 43.1486 42.1009 0.0000 0.0000 0.0000
# 2 43.1486 112.2854 85.5405 0.0000 0.0000 0.0000
# 3 42.1009 85.5405 121.9458 0.0000 0.0000 0.0000
# 4 0.0000 0.0000 0.0000 21.0920 0.0000 0.0000
# 5 0.0000 0.0000 0.0000 0.0000 17.3900 0.0000
# 6 0.0000 0.0000 0.0000 0.0000 0.0000 28.1175
#
#
#
# Elastic Compliance Matrix: (Units=1/GPa)
#
#
# Indices 1 2 3 4 5 6 
#
# 1 0.020675 -0.005385 -0.003361 0.000000 0.000000 0.000000
# 2 -0.005385 0.020529 -0.012542 0.000000 0.000000 0.000000
# 3 -0.003361 -0.012542 0.018158 0.000000 0.000000 0.000000
# 4 0.000000 0.000000 0.000000 0.047411 0.000000 0.000000
# 5 0.000000 0.000000 0.000000 0.000000 0.057504 0.000000
# 6 0.000000 0.000000 0.000000 0.000000 0.000000 0.035565
#
#
# Mechanical properties :
#
#
# Convention : Reuss Voigt Hill
#
# Bulk Modulus (GPa) = 59.56449 71.36222 65.46335
# Shear Modulus (GPa) = 20.16018 21.97923 21.06970
#
# Velocity S-wave (km/s) = 3.35799 3.50622 3.43290
# Velocity P-wave (km/s) = 6.95347 7.50374 7.23384
#
# Compressibility (1/GPa) = 0.01678853
#
# Stress axis : x y z
#
# Youngs Moduli (GPa) = 48.36740 48.71046 55.07156
#
# Poissons Ratio (x) = 0.26229 0.18508
# Poissons Ratio (y) = 0.26044 0.69069
# Poissons Ratio (z) = 0.16255 0.61091
#
# Static dielectric constant tensor:
#      x y z
#    x 3.175630 0.000000 0.000000 
#    y 0.000000 3.379620 0.000000 
#    z 0.000000 0.000000 3.512470 
# 
# 
# High freq. dielectric constant tensor:
#      x y z
#    x 1.679720 0.000000 0.000000 
#    y 0.000000 1.684140 0.000000 
#    z 0.000000 0.000000 1.699710 
# 
# From -- ./inp_files/59195.got.cif
#   From: 2010.03.12/outbox.cif.g09.slc.cpg/sg65_30_cif.got.tgz:59195.got - 2010.04.10 20:52:16.
