data_PCOD8270742
_publ_section_title
;
Structure prediction by ZEFSAII (Michael W. Deem and Ramdas Pophale) SiO2 
 PCOD8270742
Probable space group: C M M M
;
_chemical_formula_sum "Si O2"
_cell_formula_units_Z 80
_cell_length_a 27.150487
_cell_length_b 9.037639
_cell_length_c 18.469097
_cell_angle_alpha 90.000000
_cell_angle_beta 90.000000
_cell_angle_gamma 90.000000
_cell_volume 4531.878690
_symmetry_space_group_name_H-M "C M M M"
_symmetry_group_IT_number 65
_symmetry_cell_setting 'orthorhombic'
loop_
_space_group_symop_operation_xyz
x,y,z
-x,-y,z
x,-y,-z
-x,y,-z
-x,-y,-z
x,y,-z
-x,y,z
x,-y,z
1/2+x,1/2+y,z
1/2-x,1/2-y,z
1/2+x,1/2-y,-z
1/2-x,1/2+y,-z
1/2-x,1/2-y,-z
1/2+x,1/2+y,-z
1/2-x,1/2+y,z
1/2+x,1/2-y,z
loop_
_atom_site_type_symbol
_atom_site_label
_atom_site_fract_x
_atom_site_fract_y
_atom_site_fract_z
Si Si1 0.139727 0.825828 0.298212
Si Si2 0.943253 0.670341 0.213364
Si Si3 0.800200 0.170491 0.158103
Si Si4 0.898510 0.173122 0.082790
Si Si5 0.699233 0.828531 0.415917
O O1 0.087570 0.761781 0.272307
O O2 0.181270 0.789045 0.238536
O O3 0.154753 0.746688 0.372535
O O4 0.133908 0.000000 0.310903
O O5 0.926339 0.500000 0.214335
O O6 0.935492 0.734542 0.132758
O O7 0.000000 0.686882 0.234872
O O8 0.750000 0.250000 0.138099
O O9 0.842202 0.217261 0.100814
O O10 0.788187 0.000000 0.151780
O O11 0.906424 0.000000 0.099644
O O12 0.910248 0.212155 0.000000
O O13 0.687032 0.806600 0.500000
O O14 0.750000 0.750000 0.394506
O O15 0.703864 0.000000 0.394920
#
# Coordination Sequence:
#
# PCOD8270742 Si02
#       5
#    16  16  16  16  16
#     4  10  20  34  53  75 101 134 171 211 252 299
#     4  10  21  36  54  76 100 126 161 209 262 312
#     4   9  18  30  45  68  96 128 165 202 242 289
#     4   9  19  35  51  69  97 131 167 207 251 303
#     4  10  20  33  51  78 112 146 176 206 244 291
#
# _framework density 17.652723000000002
#
# number of rings (size 3 to 8) (size 9 to 14) (size 15 to 20)
#    0.000    2.400    0.000    3.600    0.000    9.600 
#    0.000    2.000    0.000    0.600    0.000    4.200 
#    0.000    0.000    0.000    0.000    0.000    0.000 
#
# Total GULP energy -496097.116976 kJ/mol
# GULP energy per Si atom -12402.427924 kJ/mol
# Density = 1.761254 g / cm^3
# Si number density = 17.652723 Si / 1000 Ang^3
#
#
#
# Elastic Constant Matrix: (Units=GPa)
#
#
# Indices 1 2 3 4 5 6 
#
# 1 85.5024 51.8495 40.6820 0.0000 0.0000 0.0000
# 2 51.8495 106.9732 55.7058 0.0000 0.0000 0.0000
# 3 40.6820 55.7058 89.3433 0.0000 0.0000 0.0000
# 4 0.0000 0.0000 0.0000 29.8576 0.0000 0.0000
# 5 0.0000 0.0000 0.0000 0.0000 8.9046 0.0000
# 6 0.0000 0.0000 0.0000 0.0000 0.0000 32.7975
#
#
#
# Elastic Compliance Matrix: (Units=1/GPa)
#
#
# Indices 1 2 3 4 5 6 
#
# 1 0.017462 -0.006402 -0.003960 0.000000 0.000000 0.000000
# 2 -0.006402 0.016190 -0.007179 0.000000 0.000000 0.000000
# 3 -0.003960 -0.007179 0.017472 0.000000 0.000000 0.000000
# 4 0.000000 0.000000 0.000000 0.033492 0.000000 0.000000
# 5 0.000000 0.000000 0.000000 0.000000 0.112302 0.000000
# 6 0.000000 0.000000 0.000000 0.000000 0.000000 0.030490
#
#
# Mechanical properties :
#
#
# Convention : Reuss Voigt Hill
#
# Bulk Modulus (GPa) = 62.33569 64.25483 63.29526
# Shear Modulus (GPa) = 18.66816 23.21738 20.94277
#
# Velocity S-wave (km/s) = 3.25549 3.63054 3.44812
# Velocity P-wave (km/s) = 7.03703 7.35207 7.19627
#
# Compressibility (1/GPa) = 0.01604217
#
# Stress axis : x y z
#
# Youngs Moduli (GPa) = 57.26870 61.76825 57.23415
#
# Poissons Ratio (x) = 0.39542 0.22662
# Poissons Ratio (y) = 0.36661 0.41090
# Poissons Ratio (z) = 0.22676 0.44345
#
# Static dielectric constant tensor:
#      x y z
#    x 3.107040 0.000000 0.000000 
#    y 0.000000 3.358640 0.000000 
#    z 0.000000 0.000000 3.258110 
# 
# 
# High freq. dielectric constant tensor:
#      x y z
#    x 1.671820 0.000000 0.000000 
#    y 0.000000 1.693250 0.000000 
#    z 0.000000 0.000000 1.673450 
# 
# From -- ./inp_files/49848.got.cif
#   From: 2010.03.12/outbox.cif.g09.slc.cpg/sg65_25_cif.got.tgz:49848.got - 2010.04.10 20:52:16.
