data_PCOD8270580
_publ_section_title
;
Structure prediction by ZEFSAII (Michael W. Deem and Ramdas Pophale) SiO2 
 PCOD8270580
Probable space group: C M M M
;
_chemical_formula_sum "Si O2"
_cell_formula_units_Z 104
_cell_length_a 26.131756
_cell_length_b 23.743608
_cell_length_c 9.592827
_cell_angle_alpha 90.000000
_cell_angle_beta 90.000000
_cell_angle_gamma 90.000000
_cell_volume 5951.986265
_symmetry_space_group_name_H-M "C M M M"
_symmetry_group_IT_number 65
_symmetry_cell_setting 'orthorhombic'
loop_
_space_group_symop_operation_xyz
x,y,z
-x,-y,z
x,-y,-z
-x,y,-z
-x,-y,-z
x,y,-z
-x,y,z
x,-y,z
1/2+x,1/2+y,z
1/2-x,1/2-y,z
1/2+x,1/2-y,-z
1/2-x,1/2+y,-z
1/2-x,1/2-y,-z
1/2+x,1/2+y,-z
1/2-x,1/2+y,z
1/2+x,1/2-y,z
loop_
_atom_site_type_symbol
_atom_site_label
_atom_site_fract_x
_atom_site_fract_y
_atom_site_fract_z
Si Si1 0.000000 0.566612 0.347410
Si Si2 0.359743 0.435581 0.337987
Si Si3 0.872391 0.768272 0.839105
Si Si4 0.558714 0.342644 0.662123
Si Si5 0.709507 0.637597 0.159620
Si Si6 0.610195 0.934717 0.664200
Si Si7 0.173410 0.350475 0.162423
O O1 0.053745 0.583662 0.274446
O O2 0.000000 0.500000 0.366569
O O3 0.000000 0.594629 0.500000
O O4 0.346318 0.429662 0.500000
O O5 0.371527 0.500000 0.297202
O O6 0.409827 0.399006 0.298634
O O7 0.310348 0.414010 0.253599
O O8 0.920251 0.789092 0.747500
O O9 0.823611 0.807207 0.810398
O O10 0.856321 0.705872 0.792812
O O11 0.889021 0.770227 0.000000
O O12 0.564462 0.328002 0.500000
O O13 0.500000 0.353589 0.703479
O O14 0.766923 0.654927 0.198465
O O15 0.705002 0.617950 0.000000
O O16 0.613409 0.921418 0.500000
O O17 0.652902 0.901753 0.747474
O O18 0.620524 0.000000 0.692493
O O19 0.165022 0.363232 0.000000
#
# Coordination Sequence:
#
# PCOD8270580 Si02
#       7
#     8  16  16  16  16  16  16
#     4   7  12  28  51  67  83 115 155 187 218 265
#     4   9  18  32  50  74 103 133 166 204 246 292
#     4   9  18  34  53  71  94 128 167 204 244 291
#     4   9  18  33  52  74 101 132 166 205 248 293
#     4   9  18  33  52  70  94 130 167 202 242 289
#     4   9  18  33  52  72  95 125 160 196 236 286
#     4  10  20  33  50  74  99 125 161 204 247 292
#
# _framework density 17.473158999999999
#
# number of rings (size 3 to 8) (size 9 to 14) (size 15 to 20)
#    0.000    3.000    0.000    1.385    0.000    4.923 
#    1.385    5.000    0.000    6.000    0.000    4.308 
#    0.000    0.000    0.000    0.000    0.000    0.000 
#
# Total GULP energy -644620.468034 kJ/mol
# GULP energy per Si atom -12396.547462 kJ/mol
# Density = 1.743339 g / cm^3
# Si number density = 17.473159 Si / 1000 Ang^3
#
#
#
# Elastic Constant Matrix: (Units=GPa)
#
#
# Indices 1 2 3 4 5 6 
#
# 1 81.8591 51.3065 43.6420 0.0000 0.0000 0.0000
# 2 51.3065 96.8813 49.3065 0.0000 0.0000 0.0000
# 3 43.6420 49.3065 52.3895 0.0000 0.0000 0.0000
# 4 0.0000 0.0000 0.0000 29.5952 0.0000 0.0000
# 5 0.0000 0.0000 0.0000 0.0000 28.4790 0.0000
# 6 0.0000 0.0000 0.0000 0.0000 0.0000 19.4542
#
#
#
# Elastic Compliance Matrix: (Units=1/GPa)
#
#
# Indices 1 2 3 4 5 6 
#
# 1 0.023026 -0.004668 -0.014788 0.000000 0.000000 0.000000
# 2 -0.004668 0.020758 -0.015648 0.000000 0.000000 0.000000
# 3 -0.014788 -0.015648 0.046133 0.000000 0.000000 0.000000
# 4 0.000000 0.000000 0.000000 0.033789 0.000000 0.000000
# 5 0.000000 0.000000 0.000000 0.000000 0.035114 0.000000
# 6 0.000000 0.000000 0.000000 0.000000 0.000000 0.051403
#
#
# Mechanical properties :
#
#
# Convention : Reuss Voigt Hill
#
# Bulk Modulus (GPa) = 50.73596 57.73778 54.23687
# Shear Modulus (GPa) = 17.42165 21.29734 19.35949
#
# Velocity S-wave (km/s) = 3.16104 3.49501 3.33221
# Velocity P-wave (km/s) = 6.51325 7.02867 6.77586
#
# Compressibility (1/GPa) = 0.01970989
#
# Stress axis : x y z
#
# Youngs Moduli (GPa) = 43.42957 48.17524 21.67624
#
# Poissons Ratio (x) = 0.22487 0.32055
# Poissons Ratio (y) = 0.20272 0.33918
# Poissons Ratio (z) = 0.64224 0.75383
#
# Static dielectric constant tensor:
#      x y z
#    x 3.387870 0.000000 0.000000 
#    y 0.000000 3.172220 0.000000 
#    z 0.000000 0.000000 3.148400 
# 
# 
# High freq. dielectric constant tensor:
#      x y z
#    x 1.680680 0.000000 0.000000 
#    y 0.000000 1.666470 0.000000 
#    z 0.000000 0.000000 1.661400 
# 
# From -- ./inp_files/14764.got.cif
#   From: 2010.03.12/outbox.cif.g09.slc.cpg/sg65_8_cif.got.tgz:14764.got - 2010.04.10 20:52:16.
