data_PCOD8270130
_publ_section_title
;
Structure prediction by ZEFSAII (Michael W. Deem and Ramdas Pophale) SiO2 
 PCOD8270130
Probable space group: C M M M
;
_chemical_formula_sum "Si O2"
_cell_formula_units_Z 96
_cell_length_a 9.142389
_cell_length_b 19.213589
_cell_length_c 30.363478
_cell_angle_alpha 90.000000
_cell_angle_beta 90.000000
_cell_angle_gamma 90.000000
_cell_volume 5333.590998
_symmetry_space_group_name_H-M "C M M M"
_symmetry_group_IT_number 65
_symmetry_cell_setting 'orthorhombic'
loop_
_space_group_symop_operation_xyz
x,y,z
-x,-y,z
x,-y,-z
-x,y,-z
-x,-y,-z
x,y,-z
-x,y,z
x,-y,z
1/2+x,1/2+y,z
1/2-x,1/2-y,z
1/2+x,1/2-y,-z
1/2-x,1/2+y,-z
1/2-x,1/2-y,-z
1/2+x,1/2+y,-z
1/2-x,1/2+y,z
1/2+x,1/2-y,z
loop_
_atom_site_type_symbol
_atom_site_label
_atom_site_fract_x
_atom_site_fract_y
_atom_site_fract_z
Si Si1 0.828005 0.821163 0.199071
Si Si2 0.167569 0.582482 0.133017
Si Si3 0.326392 0.577366 0.374697
Si Si4 0.670551 0.319895 0.300128
Si Si5 0.835815 0.082661 0.951504
Si Si6 0.828549 0.820817 0.549968
O O1 0.750000 0.750000 0.184369
O O2 0.763906 0.884771 0.171512
O O3 0.792392 0.838528 0.249791
O O4 0.000000 0.813850 0.190453
O O5 0.185449 0.500000 0.136721
O O6 0.225821 0.610560 0.085839
O O7 0.000000 0.605791 0.137852
O O8 0.500000 0.572130 0.375004
O O9 0.257360 0.500000 0.374752
O O10 0.273186 0.617130 0.330716
O O11 0.272014 0.617874 0.418221
O O12 0.500000 0.306571 0.306991
O O13 0.750000 0.250000 0.315414
O O14 0.000000 0.109357 0.941185
O O15 0.834639 0.000000 0.951545
O O16 0.785809 0.109567 0.000000
O O17 0.788943 0.842188 0.500000
O O18 0.750000 0.750000 0.563947
O O19 0.000000 0.808132 0.555868
#
# Coordination Sequence:
#
# PCOD8270130 Si02
#       6
#    16  16  16  16  16  16
#     4  10  20  34  52  72  95 125 162 202 245 295
#     4  10  20  32  48  73 103 132 163 201 244 289
#     4   9  17  29  46  70  98 124 154 195 239 282
#     4   9  18  32  51  71  90 119 157 196 237 283
#     4   8  14  26  45  69  97 129 165 203 241 283
#     4   9  17  29  47  70  94 124 161 198 236 279
#
# _framework density 17.999130000000001
#
# number of rings (size 3 to 8) (size 9 to 14) (size 15 to 20)
#    0.000    2.833    0.000    2.000    0.000    3.000 
#    0.000    5.000    0.000    2.500    0.000    2.333 
#    0.000    0.000    0.000    0.000    0.000    0.000 
#
# Total GULP energy -595117.500952 kJ/mol
# GULP energy per Si atom -12398.281270 kJ/mol
# Density = 1.795816 g / cm^3
# Si number density = 17.999130 Si / 1000 Ang^3
#
#
#
# Elastic Constant Matrix: (Units=GPa)
#
#
# Indices 1 2 3 4 5 6 
#
# 1 65.3858 39.4472 45.4154 0.0000 0.0000 0.0000
# 2 39.4472 104.0569 72.0136 0.0000 0.0000 0.0000
# 3 45.4154 72.0136 124.9798 0.0000 0.0000 0.0000
# 4 0.0000 0.0000 0.0000 20.6176 0.0000 0.0000
# 5 0.0000 0.0000 0.0000 0.0000 20.6594 0.0000
# 6 0.0000 0.0000 0.0000 0.0000 0.0000 25.1789
#
#
#
# Elastic Compliance Matrix: (Units=1/GPa)
#
#
# Indices 1 2 3 4 5 6 
#
# 1 0.021709 -0.004608 -0.005234 0.000000 0.000000 0.000000
# 2 -0.004608 0.016962 -0.008099 0.000000 0.000000 0.000000
# 3 -0.005234 -0.008099 0.014570 0.000000 0.000000 0.000000
# 4 0.000000 0.000000 0.000000 0.048502 0.000000 0.000000
# 5 0.000000 0.000000 0.000000 0.000000 0.048404 0.000000
# 6 0.000000 0.000000 0.000000 0.000000 0.000000 0.039716
#
#
# Mechanical properties :
#
#
# Convention : Reuss Voigt Hill
#
# Bulk Modulus (GPa) = 57.60473 67.57496 62.58984
# Shear Modulus (GPa) = 21.59545 22.46094 22.02819
#
# Velocity S-wave (km/s) = 3.46758 3.53638 3.50215
# Velocity P-wave (km/s) = 6.93583 7.36883 7.15561
#
# Compressibility (1/GPa) = 0.01735968
#
# Stress axis : x y z
#
# Youngs Moduli (GPa) = 46.06430 58.95540 68.63478
#
# Poissons Ratio (x) = 0.27165 0.35921
# Poissons Ratio (y) = 0.21225 0.55589
# Poissons Ratio (z) = 0.24108 0.47749
#
# Static dielectric constant tensor:
#      x y z
#    x 3.232920 0.000000 0.000000 
#    y 0.000000 3.250370 0.000000 
#    z 0.000000 0.000000 3.610560 
# 
# 
# High freq. dielectric constant tensor:
#      x y z
#    x 1.680680 0.000000 0.000000 
#    y 0.000000 1.673250 0.000000 
#    z 0.000000 0.000000 1.711160 
# 
# From -- ./inp_files/73207.got.cif
#   From: 2010.03.12/outbox.cif.g09.slc.cpg/sg65_37_cif.got.tgz:73207.got - 2010.04.10 20:52:16.
