data_PCOD8270793
_publ_section_title
;
Structure prediction by ZEFSAII (Michael W. Deem and Ramdas Pophale) SiO2 
 PCOD8270793
Probable space group: C M M M
;
_chemical_formula_sum "Si O2"
_cell_formula_units_Z 80
_cell_length_a 9.199796
_cell_length_b 17.784420
_cell_length_c 25.982766
_cell_angle_alpha 90.000000
_cell_angle_beta 90.000000
_cell_angle_gamma 90.000000
_cell_volume 4251.119228
_symmetry_space_group_name_H-M "C M M M"
_symmetry_group_IT_number 65
_symmetry_cell_setting 'orthorhombic'
loop_
_space_group_symop_operation_xyz
x,y,z
-x,-y,z
x,-y,-z
-x,y,-z
-x,-y,-z
x,y,-z
-x,y,z
x,-y,z
1/2+x,1/2+y,z
1/2-x,1/2-y,z
1/2+x,1/2-y,-z
1/2-x,1/2+y,-z
1/2-x,1/2-y,-z
1/2+x,1/2+y,-z
1/2-x,1/2+y,z
1/2+x,1/2-y,z
loop_
_atom_site_type_symbol
_atom_site_label
_atom_site_fract_x
_atom_site_fract_y
_atom_site_fract_z
Si Si1 0.827131 0.670847 0.756974
Si Si2 0.664136 0.589349 0.443779
Si Si3 0.835898 0.089341 0.845956
Si Si4 0.836815 0.410599 0.943135
Si Si5 0.829624 0.414452 0.654482
O O1 0.750000 0.750000 0.763271
O O2 0.769354 0.616034 0.800900
O O3 0.780526 0.635581 0.702509
O O4 0.000000 0.679116 0.761952
O O5 0.719684 0.618187 0.500000
O O6 0.500000 0.616897 0.434903
O O7 0.672498 0.500000 0.443318
O O8 0.760636 0.621497 0.397187
O O9 0.773617 0.120971 0.900158
O O10 0.000000 0.120189 0.838802
O O11 0.835007 0.000000 0.845621
O O12 0.836379 0.500000 0.941808
O O13 0.000000 0.381467 0.931350
O O14 0.786998 0.382835 0.000000
O O15 0.775545 0.500000 0.663831
O O16 0.000000 0.412663 0.646665
#
# Coordination Sequence:
#
# PCOD8270793 Si02
#       5
#    16  16  16  16  16
#     4  11  23  38  54  72  99 134 172 214 259 307
#     4   8  14  25  43  70 102 131 158 193 240 291
#     4  10  20  33  52  79 107 135 170 210 251 298
#     4   8  14  26  46  73 104 136 168 203 246 294
#     4   9  18  32  51  75 100 128 163 203 248 297
#
# _framework density 18.818574000000002
#
# number of rings (size 3 to 8) (size 9 to 14) (size 15 to 20)
#    0.000    2.800    0.000    3.000    0.000    4.400 
#    0.000    6.000    0.000    1.200    0.000    0.000 
#    0.000    0.000    0.000    0.000    0.000    0.000 
#
# Total GULP energy -495814.166925 kJ/mol
# GULP energy per Si atom -12395.354173 kJ/mol
# Density = 1.877574 g / cm^3
# Si number density = 18.818574 Si / 1000 Ang^3
#
#
#
# Elastic Constant Matrix: (Units=GPa)
#
#
# Indices 1 2 3 4 5 6 
#
# 1 81.6298 19.4921 67.2725 0.0000 0.0000 0.0000
# 2 19.4921 19.8588 18.7021 0.0000 0.0000 0.0000
# 3 67.2725 18.7021 164.3934 0.0000 0.0000 0.0000
# 4 0.0000 0.0000 0.0000 -0.7862 0.0000 0.0000
# 5 0.0000 0.0000 0.0000 0.0000 37.0132 0.0000
# 6 0.0000 0.0000 0.0000 0.0000 0.0000 19.4763
#
#
#
# Elastic Compliance Matrix: (Units=1/GPa)
#
#
# Indices 1 2 3 4 5 6 
#
# 1 0.021647 -0.014453 -0.007214 0.000000 0.000000 0.000000
# 2 -0.014453 0.066048 -0.001599 0.000000 0.000000 0.000000
# 3 -0.007214 -0.001599 0.009217 0.000000 0.000000 0.000000
# 4 0.000000 0.000000 0.000000 -1.271950 0.000000 0.000000
# 5 0.000000 0.000000 0.000000 0.000000 0.027017 0.000000
# 6 0.000000 0.000000 0.000000 0.000000 0.000000 0.051345
#
#
# Mechanical properties :
#
#
# Convention : Reuss Voigt Hill
#
# Bulk Modulus (GPa) = 19.84973 52.97948 36.41460
# Shear Modulus (GPa) = -4.83863 21.83501 8.49819
#
# Velocity S-wave (km/s) = -1.60524 3.41000 2.12736
# Velocity P-wave (km/s) = 2.67117 6.61196 5.04248
#
# Compressibility (1/GPa) = 0.05037852
#
# Stress axis : x y z
#
# Youngs Moduli (GPa) = 46.19611 15.14051 108.49516
#
# Poissons Ratio (x) = 0.21883 0.78268
# Poissons Ratio (y) = 0.66769 0.17352
# Poissons Ratio (z) = 0.33326 0.02422
#
# Static dielectric constant tensor:
#      x y z
#    x 3.595360 0.000000 0.000000 
#    y 0.000000 2.966440 0.000000 
#    z 0.000000 0.000000 3.952410 
# 
# 
# High freq. dielectric constant tensor:
#      x y z
#    x 1.731160 0.000000 0.000000 
#    y 0.000000 1.676710 0.000000 
#    z 0.000000 0.000000 1.751840 
# 
# From -- ./inp_files/72841.got.cif
#   From: 2010.03.12/outbox.cif.g09.slc.cpg/sg65_37_cif.got.tgz:72841.got - 2010.04.10 20:52:16.
