data_PCOD8270546
_publ_section_title
;
Structure prediction by ZEFSAII (Michael W. Deem and Ramdas Pophale) SiO2 
 PCOD8270546
Probable space group: C M M M
;
_chemical_formula_sum "Si O2"
_cell_formula_units_Z 88
_cell_length_a 28.430205
_cell_length_b 17.011962
_cell_length_c 9.298204
_cell_angle_alpha 90.000000
_cell_angle_beta 90.000000
_cell_angle_gamma 90.000000
_cell_volume 4497.109532
_symmetry_space_group_name_H-M "C M M M"
_symmetry_group_IT_number 65
_symmetry_cell_setting 'orthorhombic'
loop_
_space_group_symop_operation_xyz
x,y,z
-x,-y,z
x,-y,-z
-x,y,-z
-x,-y,-z
x,y,-z
-x,y,z
x,-y,z
1/2+x,1/2+y,z
1/2-x,1/2-y,z
1/2+x,1/2-y,-z
1/2-x,1/2+y,-z
1/2-x,1/2-y,-z
1/2+x,1/2+y,-z
1/2-x,1/2+y,z
1/2+x,1/2-y,z
loop_
_atom_site_type_symbol
_atom_site_label
_atom_site_fract_x
_atom_site_fract_y
_atom_site_fract_z
Si Si1 0.761210 0.340246 0.834070
Si Si2 0.409837 0.593819 0.837101
Si Si3 0.140290 0.590143 0.167400
Si Si4 0.500000 0.593628 0.336845
Si Si5 0.551489 0.093421 0.337432
Si Si6 0.321645 0.407920 0.660532
O O1 0.750000 0.250000 0.805698
O O2 0.814672 0.358168 0.788055
O O3 0.727992 0.392426 0.735014
O O4 0.752837 0.364046 0.000000
O O5 0.409659 0.500000 0.840829
O O6 0.454505 0.625228 0.747952
O O7 0.363453 0.627700 0.758363
O O8 0.411398 0.626903 0.000000
O O9 0.149473 0.500000 0.214814
O O10 0.094281 0.627408 0.243102
O O11 0.130238 0.595533 0.000000
O O12 0.500000 0.500000 0.340565
O O13 0.500000 0.626657 0.500000
O O14 0.559271 0.121900 0.500000
O O15 0.500000 0.123241 0.282494
O O16 0.552291 0.000000 0.328027
O O17 0.322948 0.370734 0.500000
O O18 0.329421 0.500000 0.647577
#
# Coordination Sequence:
#
# PCOD8270546 Si02
#       6
#    16  16  16   8  16  16
#     4  10  21  36  52  71  97 132 170 209 252 299
#     4   9  16  26  42  65  93 125 159 195 239 291
#     4   9  17  29  47  72 100 129 163 203 246 292
#     4   9  15  23  37  61  95 127 155 193 240 289
#     4   8  14  25  42  67  99 130 158 191 235 288
#     4  10  20  33  50  73  99 127 162 205 253 302
#
# _framework density 19.568124000000001
#
# number of rings (size 3 to 8) (size 9 to 14) (size 15 to 20)
#    0.000    2.818    0.000    2.455    0.000    6.545 
#    0.000    3.636    0.000    0.000    2.364    0.000 
#    0.000    0.000    0.000    0.000    0.000    0.000 
#
# Total GULP energy -545488.595614 kJ/mol
# GULP energy per Si atom -12397.468082 kJ/mol
# Density = 1.952359 g / cm^3
# Si number density = 19.568124 Si / 1000 Ang^3
#
#
#
# Elastic Constant Matrix: (Units=GPa)
#
#
# Indices 1 2 3 4 5 6 
#
# 1 204.3013 27.7469 97.7144 0.0000 0.0000 0.0000
# 2 27.7469 20.8056 15.7525 0.0000 0.0000 0.0000
# 3 97.7144 15.7525 135.3906 0.0000 0.0000 0.0000
# 4 0.0000 0.0000 0.0000 10.5295 0.0000 0.0000
# 5 0.0000 0.0000 0.0000 0.0000 27.2925 0.0000
# 6 0.0000 0.0000 0.0000 0.0000 0.0000 7.9684
#
#
#
# Elastic Compliance Matrix: (Units=1/GPa)
#
#
# Indices 1 2 3 4 5 6 
#
# 1 0.008358 -0.007215 -0.005193 0.000000 0.000000 0.000000
# 2 -0.007215 0.058935 -0.001650 0.000000 0.000000 0.000000
# 3 -0.005193 -0.001650 0.011326 0.000000 0.000000 0.000000
# 4 0.000000 0.000000 0.000000 0.094971 0.000000 0.000000
# 5 0.000000 0.000000 0.000000 0.000000 0.036640 0.000000
# 6 0.000000 0.000000 0.000000 0.000000 0.000000 0.125496
#
#
# Mechanical properties :
#
#
# Convention : Reuss Voigt Hill
#
# Bulk Modulus (GPa) = 19.80047 71.43613 45.61830
# Shear Modulus (GPa) = 13.13447 23.77698 18.45573
#
# Velocity S-wave (km/s) = 2.59360 3.48959 3.07441
# Velocity P-wave (km/s) = 4.37146 7.26787 5.99715
#
# Compressibility (1/GPa) = 0.05050384
#
# Stress axis : x y z
#
# Youngs Moduli (GPa) = 119.64075 16.96777 88.29377
#
# Poissons Ratio (x) = 0.12243 0.45850
# Poissons Ratio (y) = 0.86323 0.14566
# Poissons Ratio (z) = 0.62129 0.02799
#
# Static dielectric constant tensor:
#      x y z
#    x 3.929420 0.000000 0.000000 
#    y 0.000000 2.994590 0.000000 
#    z 0.000000 0.000000 3.738580 
# 
# 
# High freq. dielectric constant tensor:
#      x y z
#    x 1.779970 0.000000 0.000000 
#    y 0.000000 1.697630 0.000000 
#    z 0.000000 0.000000 1.766110 
# 
# From -- ./inp_files/18286.got.cif
#   From: 2010.03.12/outbox.cif.g09.slc.cpg/sg65_10_cif.got.tgz:18286.got - 2010.04.10 20:52:16.
