data_PCOD8270027
_publ_section_title
;
Structure prediction by ZEFSAII (Michael W. Deem and Ramdas Pophale) SiO2 
 PCOD8270027
Probable space group: C M M M
;
_chemical_formula_sum "Si O2"
_cell_formula_units_Z 88
_cell_length_a 18.864932
_cell_length_b 9.047551
_cell_length_c 28.238544
_cell_angle_alpha 90.000000
_cell_angle_beta 90.000000
_cell_angle_gamma 90.000000
_cell_volume 4819.795195
_symmetry_space_group_name_H-M "C M M M"
_symmetry_group_IT_number 65
_symmetry_cell_setting 'orthorhombic'
loop_
_space_group_symop_operation_xyz
x,y,z
-x,-y,z
x,-y,-z
-x,y,-z
-x,-y,-z
x,y,-z
-x,y,z
x,-y,z
1/2+x,1/2+y,z
1/2-x,1/2-y,z
1/2+x,1/2-y,-z
1/2-x,1/2+y,-z
1/2-x,1/2-y,-z
1/2+x,1/2+y,-z
1/2-x,1/2+y,z
1/2+x,1/2-y,z
loop_
_atom_site_type_symbol
_atom_site_label
_atom_site_fract_x
_atom_site_fract_y
_atom_site_fract_z
Si Si1 0.420301 0.322941 0.398323
Si Si2 0.081735 0.828201 0.777430
Si Si3 0.916017 0.838472 0.500000
Si Si4 0.416309 0.168186 0.872038
Si Si5 0.825542 0.825198 0.687739
Si Si6 0.177860 0.827354 0.054720
O O1 0.500000 0.267750 0.386180
O O2 0.420523 0.500000 0.400179
O O3 0.395095 0.258853 0.450158
O O4 0.366343 0.264623 0.358641
O O5 0.109398 0.736217 0.822354
O O6 0.128365 0.778472 0.732978
O O7 0.000000 0.792539 0.765526
O O8 0.091799 0.000000 0.789251
O O9 0.000000 0.857230 0.500000
O O10 0.879929 0.000000 0.500000
O O11 0.500000 0.179478 0.876105
O O12 0.386220 0.261186 0.915491
O O13 0.389497 0.000000 0.874970
O O14 0.750000 0.750000 0.691201
O O15 0.815689 0.000000 0.685240
O O16 0.250000 0.750000 0.071281
O O17 0.184981 0.000000 0.064705
O O18 0.161706 0.793333 0.000000
#
# Coordination Sequence:
#
# PCOD8270027 Si02
#       6
#    16  16   8  16  16  16
#     4   8  13  24  44  68  92 120 158 201 241 282
#     4   9  18  34  54  72  92 124 167 210 249 290
#     4   7  10  18  37  66  93 115 148 199 246 278
#     4  10  21  36  55  80 108 136 167 207 254 302
#     4  10  20  32  47  69  97 127 159 198 244 294
#     4  10  21  37  57  80 107 140 176 212 250 295
#
# _framework density 18.258037999999999
#
# number of rings (size 3 to 8) (size 9 to 14) (size 15 to 20)
#    0.000    2.818    0.000    2.727    0.000    6.182 
#    0.000    4.091    0.000    1.636    0.000    0.000 
#    0.000    2.182    0.000    0.000    0.000    0.000 
#
# Total GULP energy -545429.421499 kJ/mol
# GULP energy per Si atom -12396.123216 kJ/mol
# Density = 1.821648 g / cm^3
# Si number density = 18.258038 Si / 1000 Ang^3
#
#
#
# Elastic Constant Matrix: (Units=GPa)
#
#
# Indices 1 2 3 4 5 6 
#
# 1 79.9596 33.6333 66.7788 0.0000 0.0000 0.0000
# 2 33.6333 58.3633 54.0550 0.0000 0.0000 0.0000
# 3 66.7788 54.0550 146.9693 0.0000 0.0000 0.0000
# 4 0.0000 0.0000 0.0000 14.4383 0.0000 0.0000
# 5 0.0000 0.0000 0.0000 0.0000 12.3839 0.0000
# 6 0.0000 0.0000 0.0000 0.0000 0.0000 29.0695
#
#
#
# Elastic Compliance Matrix: (Units=1/GPa)
#
#
# Indices 1 2 3 4 5 6 
#
# 1 0.021062 -0.004965 -0.007744 0.000000 0.000000 0.000000
# 2 -0.004965 0.027157 -0.007732 0.000000 0.000000 0.000000
# 3 -0.007744 -0.007732 0.013167 0.000000 0.000000 0.000000
# 4 0.000000 0.000000 0.000000 0.069260 0.000000 0.000000
# 5 0.000000 0.000000 0.000000 0.000000 0.080750 0.000000
# 6 0.000000 0.000000 0.000000 0.000000 0.000000 0.034400
#
#
# Mechanical properties :
#
#
# Convention : Reuss Voigt Hill
#
# Bulk Modulus (GPa) = 48.77352 66.02516 57.39934
# Shear Modulus (GPa) = 17.03500 19.90001 18.46750
#
# Velocity S-wave (km/s) = 3.05784 3.30499 3.18382
# Velocity P-wave (km/s) = 6.26407 7.12774 6.70982
#
# Compressibility (1/GPa) = 0.02050293
#
# Stress axis : x y z
#
# Youngs Moduli (GPa) = 47.47836 36.82318 75.95016
#
# Poissons Ratio (x) = 0.18285 0.58814
# Poissons Ratio (y) = 0.23575 0.58725
# Poissons Ratio (z) = 0.36766 0.28472
#
# Static dielectric constant tensor:
#      x y z
#    x 3.200610 0.000000 0.000000 
#    y 0.000000 3.130820 0.000000 
#    z 0.000000 0.000000 3.713370 
# 
# 
# High freq. dielectric constant tensor:
#      x y z
#    x 1.692050 0.000000 0.000000 
#    y 0.000000 1.677160 0.000000 
#    z 0.000000 0.000000 1.726510 
# 
# From -- ./inp_files/77821.got.cif
#   From: 2010.03.12/outbox.cif.g09.slc.cpg/sg65_39_cif.got.tgz:77821.got - 2010.04.10 20:52:16.
