data_PCOD8270541
_publ_section_title
;
Structure prediction by ZEFSAII (Michael W. Deem and Ramdas Pophale) SiO2 
 PCOD8270541
Probable space group: C M M M
;
_chemical_formula_sum "Si O2"
_cell_formula_units_Z 88
_cell_length_a 8.102297
_cell_length_b 18.915263
_cell_length_c 30.068823
_cell_angle_alpha 90.000000
_cell_angle_beta 90.000000
_cell_angle_gamma 90.000000
_cell_volume 4608.259972
_symmetry_space_group_name_H-M "C M M M"
_symmetry_group_IT_number 65
_symmetry_cell_setting 'orthorhombic'
loop_
_space_group_symop_operation_xyz
x,y,z
-x,-y,z
x,-y,-z
-x,y,-z
-x,-y,-z
x,y,-z
-x,y,z
x,-y,z
1/2+x,1/2+y,z
1/2-x,1/2-y,z
1/2+x,1/2-y,-z
1/2-x,1/2+y,-z
1/2-x,1/2-y,-z
1/2+x,1/2+y,-z
1/2-x,1/2+y,z
1/2+x,1/2-y,z
loop_
_atom_site_type_symbol
_atom_site_label
_atom_site_fract_x
_atom_site_fract_y
_atom_site_fract_z
Si Si1 0.811615 0.671583 0.128124
Si Si2 0.500000 0.084249 0.550422
Si Si3 0.803409 0.420769 0.049295
Si Si4 0.685555 0.083970 0.302031
Si Si5 0.191063 0.918898 0.207544
Si Si6 0.183821 0.084168 0.604938
O O1 0.750000 0.750000 0.135402
O O2 0.724673 0.631597 0.086369
O O3 0.792002 0.627809 0.173178
O O4 0.000000 0.677020 0.115629
O O5 0.500000 0.111834 0.500000
O O6 0.332069 0.113415 0.573695
O O7 0.500000 0.000000 0.552739
O O8 0.737014 0.500000 0.058678
O O9 0.000000 0.421776 0.052079
O O10 0.746860 0.395823 0.000000
O O11 0.500000 0.114105 0.303500
O O12 0.774384 0.110078 0.257138
O O13 0.785075 0.112091 0.344909
O O14 0.682895 0.000000 0.303386
O O15 0.000000 0.911116 0.196485
O O16 0.250500 0.000000 0.203209
O O17 0.000000 0.110245 0.589592
O O18 0.188303 0.000000 0.603775
#
# Coordination Sequence:
#
# PCOD8270541 Si02
#       6
#    16   8  16  16  16  16
#     4  11  22  35  51  72 101 136 169 203 247 304
#     4   9  16  24  32  46  72 108 152 198 243 297
#     4   8  15  30  53  78 100 125 163 209 253 298
#     4   9  15  25  42  63  86 112 147 195 247 295
#     4  10  20  33  50  73  98 124 160 208 255 301
#     4   9  15  23  35  51  74 106 146 196 248 294
#
# _framework density 19.096143999999999
#
# number of rings (size 3 to 8) (size 9 to 14) (size 15 to 20)
#    0.000    2.636    0.909    2.727    0.000    4.727 
#    0.000    1.818    0.000    1.636    0.000    6.364 
#    0.000    0.000    0.000    0.000    0.000    0.909 
#
# Total GULP energy -545324.544252 kJ/mol
# GULP energy per Si atom -12393.739642 kJ/mol
# Density = 1.905268 g / cm^3
# Si number density = 19.096144 Si / 1000 Ang^3
#
#
#
# Elastic Constant Matrix: (Units=GPa)
#
#
# Indices 1 2 3 4 5 6 
#
# 1 90.7319 19.9076 41.6043 0.0000 0.0000 0.0000
# 2 19.9076 50.2179 41.9735 0.0000 0.0000 0.0000
# 3 41.6043 41.9735 154.6286 0.0000 0.0000 0.0000
# 4 0.0000 0.0000 0.0000 -16.1478 0.0000 0.0000
# 5 0.0000 0.0000 0.0000 0.0000 15.2762 0.0000
# 6 0.0000 0.0000 0.0000 0.0000 0.0000 7.2434
#
#
#
# Elastic Compliance Matrix: (Units=1/GPa)
#
#
# Indices 1 2 3 4 5 6 
#
# 1 0.012882 -0.002858 -0.002690 0.000000 0.000000 0.000000
# 2 -0.002858 0.026391 -0.006395 0.000000 0.000000 0.000000
# 3 -0.002690 -0.006395 0.008927 0.000000 0.000000 0.000000
# 4 0.000000 0.000000 0.000000 -0.061928 0.000000 0.000000
# 5 0.000000 0.000000 0.000000 0.000000 0.065461 0.000000
# 6 0.000000 0.000000 0.000000 0.000000 0.000000 0.138056
#
#
# Mechanical properties :
#
#
# Convention : Reuss Voigt Hill
#
# Bulk Modulus (GPa) = 41.12908 55.83878 48.48393
# Shear Modulus (GPa) = 22.54481 14.08057 18.31269
#
# Velocity S-wave (km/s) = 3.43971 2.71837 3.10009
# Velocity P-wave (km/s) = 6.11229 6.25756 6.18535
#
# Compressibility (1/GPa) = 0.02431370
#
# Stress axis : x y z
#
# Youngs Moduli (GPa) = 77.62653 37.89134 112.02254
#
# Poissons Ratio (x) = 0.10830 0.30136
# Poissons Ratio (y) = 0.22188 0.71636
# Poissons Ratio (z) = 0.20883 0.24231
#
# Static dielectric constant tensor:
#      x y z
#    x 3.510320 0.000000 0.000000 
#    y 0.000000 5.457530 0.000000 
#    z 0.000000 0.000000 3.738680 
# 
# 
# High freq. dielectric constant tensor:
#      x y z
#    x 1.740330 0.000000 0.000000 
#    y 0.000000 1.672160 0.000000 
#    z 0.000000 0.000000 1.754360 
# 
# From -- ./inp_files/76707.got.cif
#   From: 2010.03.12/outbox.cif.g09.slc.cpg/sg65_39_cif.got.tgz:76707.got - 2010.04.10 20:52:16.
