data_PCOD8270016
_publ_section_title
;
Structure prediction by ZEFSAII (Michael W. Deem and Ramdas Pophale) SiO2 
 PCOD8270016
Probable space group: C M M M
;
_chemical_formula_sum "Si O2"
_cell_formula_units_Z 80
_cell_length_a 18.565542
_cell_length_b 9.453042
_cell_length_c 25.810809
_cell_angle_alpha 90.000000
_cell_angle_beta 90.000000
_cell_angle_gamma 90.000000
_cell_volume 4529.818874
_symmetry_space_group_name_H-M "C M M M"
_symmetry_group_IT_number 65
_symmetry_cell_setting 'orthorhombic'
loop_
_space_group_symop_operation_xyz
x,y,z
-x,-y,z
x,-y,-z
-x,y,-z
-x,-y,-z
x,y,-z
-x,y,z
x,-y,z
1/2+x,1/2+y,z
1/2-x,1/2-y,z
1/2+x,1/2-y,-z
1/2-x,1/2+y,-z
1/2-x,1/2-y,-z
1/2+x,1/2+y,-z
1/2-x,1/2+y,z
1/2+x,1/2-y,z
loop_
_atom_site_type_symbol
_atom_site_label
_atom_site_fract_x
_atom_site_fract_y
_atom_site_fract_z
Si Si1 0.414322 0.158781 0.942601
Si Si2 0.583134 0.162549 0.249373
Si Si3 0.323010 0.166092 0.349184
Si Si4 0.919637 0.667830 0.557639
Si Si5 0.085869 0.159332 0.151856
O O1 0.500000 0.159608 0.939950
O O2 0.382425 0.264675 0.899455
O O3 0.386363 0.000000 0.931310
O O4 0.389073 0.208085 0.000000
O O5 0.500000 0.195916 0.261471
O O6 0.627113 0.200272 0.300414
O O7 0.613104 0.258205 0.202627
O O8 0.593173 0.000000 0.232775
O O9 0.250000 0.250000 0.342219
O O10 0.363494 0.226109 0.400186
O O11 0.306446 0.000000 0.353886
O O12 0.894411 0.714456 0.500000
O O13 0.922703 0.500000 0.561830
O O14 0.000000 0.727527 0.568758
O O15 0.000000 0.161045 0.150227
O O16 0.115969 0.000000 0.153533
#
# Coordination Sequence:
#
# PCOD8270016 Si02
#       5
#    16  16  16  16  16
#     4   8  13  21  33  50  76 112 149 181 217 266
#     4   9  17  30  47  63  82 114 156 195 226 265
#     4  10  20  32  47  69  95 122 152 188 232 277
#     4   8  14  27  49  74  96 120 155 195 227 261
#     4   9  16  24  36  57  83 110 143 185 232 276
#
# _framework density 17.660751000000001
#
# number of rings (size 3 to 8) (size 9 to 14) (size 15 to 20)
#    0.000    3.200    0.000    2.400    0.000    6.400 
#    0.000    2.000    0.000    1.800    0.000    1.400 
#    0.000    0.800    0.000    2.600    0.000    5.200 
#
# Total GULP energy -495819.836480 kJ/mol
# GULP energy per Si atom -12395.495912 kJ/mol
# Density = 1.762055 g / cm^3
# Si number density = 17.660751 Si / 1000 Ang^3
#
#
#
# Elastic Constant Matrix: (Units=GPa)
#
#
# Indices 1 2 3 4 5 6 
#
# 1 56.4913 35.4488 53.4665 0.0000 0.0000 0.0000
# 2 35.4488 85.5723 80.3517 0.0000 0.0000 0.0000
# 3 53.4665 80.3517 172.5556 0.0000 0.0000 0.0000
# 4 0.0000 0.0000 0.0000 16.0352 0.0000 0.0000
# 5 0.0000 0.0000 0.0000 0.0000 1.0078 0.0000
# 6 0.0000 0.0000 0.0000 0.0000 0.0000 17.0426
#
#
#
# Elastic Compliance Matrix: (Units=1/GPa)
#
#
# Indices 1 2 3 4 5 6 
#
# 1 0.026587 -0.005826 -0.005525 0.000000 0.000000 0.000000
# 2 -0.005826 0.022042 -0.008459 0.000000 0.000000 0.000000
# 3 -0.005525 -0.008459 0.011446 0.000000 0.000000 0.000000
# 4 0.000000 0.000000 0.000000 0.062363 0.000000 0.000000
# 5 0.000000 0.000000 0.000000 0.000000 0.992222 0.000000
# 6 0.000000 0.000000 0.000000 0.000000 0.000000 0.058676
#
#
# Mechanical properties :
#
#
# Convention : Reuss Voigt Hill
#
# Bulk Modulus (GPa) = 48.88638 72.57258 60.72948
# Shear Modulus (GPa) = 4.09912 16.50727 10.30320
#
# Velocity S-wave (km/s) = 1.52515 3.06058 2.41798
# Velocity P-wave (km/s) = 5.55359 7.32607 6.50053
#
# Compressibility (1/GPa) = 0.02045560
#
# Stress axis : x y z
#
# Youngs Moduli (GPa) = 37.61264 45.36728 87.36471
#
# Poissons Ratio (x) = 0.26429 0.48271
# Poissons Ratio (y) = 0.21911 0.73903
# Poissons Ratio (z) = 0.20782 0.38377
#
# Static dielectric constant tensor:
#      x y z
#    x 2.843610 0.000000 0.000000 
#    y 0.000000 3.168820 0.000000 
#    z 0.000000 0.000000 3.624270 
# 
# 
# High freq. dielectric constant tensor:
#      x y z
#    x 1.630780 0.000000 0.000000 
#    y 0.000000 1.659370 0.000000 
#    z 0.000000 0.000000 1.702610 
# 
# From -- ./inp_files/75026.got.cif
#   From: 2010.03.12/outbox.cif.g09.slc.cpg/sg65_38_cif.got.tgz:75026.got - 2010.04.10 20:52:16.
