data_PCOD8270949
_publ_section_title
;
Structure prediction by ZEFSAII (Michael W. Deem and Ramdas Pophale) SiO2 
 PCOD8270949
Probable space group: C M M M
;
_chemical_formula_sum "Si O2"
_cell_formula_units_Z 88
_cell_length_a 26.912181
_cell_length_b 9.293798
_cell_length_c 21.344303
_cell_angle_alpha 90.000000
_cell_angle_beta 90.000000
_cell_angle_gamma 90.000000
_cell_volume 5338.559671
_symmetry_space_group_name_H-M "C M M M"
_symmetry_group_IT_number 65
_symmetry_cell_setting 'orthorhombic'
loop_
_space_group_symop_operation_xyz
x,y,z
-x,-y,z
x,-y,-z
-x,y,-z
-x,-y,-z
x,y,-z
-x,y,z
x,-y,z
1/2+x,1/2+y,z
1/2-x,1/2-y,z
1/2+x,1/2-y,-z
1/2-x,1/2+y,-z
1/2-x,1/2-y,-z
1/2+x,1/2+y,-z
1/2-x,1/2+y,z
1/2+x,1/2-y,z
loop_
_atom_site_type_symbol
_atom_site_label
_atom_site_fract_x
_atom_site_fract_y
_atom_site_fract_z
Si Si1 0.600817 0.333321 0.748808
Si Si2 0.054926 0.334558 0.639654
Si Si3 0.442354 0.332917 0.879595
Si Si4 0.152993 0.332384 0.428333
Si Si5 0.701548 0.330922 0.318114
Si Si6 0.559079 0.162406 0.000000
O O1 0.588639 0.500000 0.740293
O O2 0.563500 0.252165 0.703117
O O3 0.590172 0.284988 0.819803
O O4 0.657850 0.298872 0.731451
O O5 0.059417 0.500000 0.658665
O O6 0.095428 0.295559 0.586805
O O7 0.000000 0.298487 0.613004
O O8 0.500000 0.298492 0.865838
O O9 0.435062 0.500000 0.895574
O O10 0.421311 0.242816 0.938110
O O11 0.163286 0.291545 0.500000
O O12 0.164422 0.500000 0.415239
O O13 0.188490 0.234552 0.386017
O O14 0.711759 0.500000 0.325747
O O15 0.750000 0.250000 0.291727
O O16 0.500000 0.167127 0.000000
O O17 0.579481 0.000000 0.000000
#
# Coordination Sequence:
#
# PCOD8270949 Si02
#       6
#    16  16  16  16  16   8
#     4   9  18  31  47  67  89 116 151 187 222 264
#     4   9  17  28  43  65  92 120 149 182 220 261
#     4   9  16  27  44  65  91 123 154 180 209 249
#     4   9  18  32  48  66  89 117 149 183 220 266
#     4  10  20  34  51  69  89 112 142 184 232 277
#     4   9  17  27  39  61  94 127 156 183 210 243
#
# _framework density 16.483847000000001
#
# number of rings (size 3 to 8) (size 9 to 14) (size 15 to 20)
#    0.000    2.818    0.000    1.364    0.000    4.727 
#    0.000    3.636    0.000    0.000    0.000    5.727 
#    0.000    0.000    0.000    0.000    0.000    0.000 
#
# Total GULP energy -545581.189146 kJ/mol
# GULP energy per Si atom -12399.572481 kJ/mol
# Density = 1.644633 g / cm^3
# Si number density = 16.483847 Si / 1000 Ang^3
#
#
#
# Elastic Constant Matrix: (Units=GPa)
#
#
# Indices 1 2 3 4 5 6 
#
# 1 71.2414 31.0659 31.4723 0.0000 0.0000 0.0000
# 2 31.0659 65.3376 45.7767 0.0000 0.0000 0.0000
# 3 31.4723 45.7767 112.5138 0.0000 0.0000 0.0000
# 4 0.0000 0.0000 0.0000 25.9167 0.0000 0.0000
# 5 0.0000 0.0000 0.0000 0.0000 15.7345 0.0000
# 6 0.0000 0.0000 0.0000 0.0000 0.0000 21.6939
#
#
#
# Elastic Compliance Matrix: (Units=1/GPa)
#
#
# Indices 1 2 3 4 5 6 
#
# 1 0.018083 -0.007069 -0.002182 0.000000 0.000000 0.000000
# 2 -0.007069 0.024171 -0.007857 0.000000 0.000000 0.000000
# 3 -0.002182 -0.007857 0.012695 0.000000 0.000000 0.000000
# 4 0.000000 0.000000 0.000000 0.038585 0.000000 0.000000
# 5 0.000000 0.000000 0.000000 0.000000 0.063555 0.000000
# 6 0.000000 0.000000 0.000000 0.000000 0.000000 0.046096
#
#
# Mechanical properties :
#
#
# Convention : Reuss Voigt Hill
#
# Bulk Modulus (GPa) = 48.23237 51.74697 49.98967
# Shear Modulus (GPa) = 20.46567 22.05421 21.25994
#
# Velocity S-wave (km/s) = 3.52740 3.66174 3.59520
# Velocity P-wave (km/s) = 6.77598 7.02413 6.90117
#
# Compressibility (1/GPa) = 0.02073296
#
# Stress axis : x y z
#
# Youngs Moduli (GPa) = 55.29918 41.37223 78.77322
#
# Poissons Ratio (x) = 0.29247 0.17189
# Poissons Ratio (y) = 0.39092 0.61889
# Poissons Ratio (z) = 0.12067 0.32504
#
# Static dielectric constant tensor:
#      x y z
#    x 3.089300 0.000000 0.000000 
#    y 0.000000 3.150480 0.000000 
#    z 0.000000 0.000000 3.071670 
# 
# 
# High freq. dielectric constant tensor:
#      x y z
#    x 1.616210 0.000000 0.000000 
#    y 0.000000 1.638270 0.000000 
#    z 0.000000 0.000000 1.623640 
# 
# From -- ./inp_files/60150.got.cif
#   From: 2010.03.12/outbox.cif.g09.slc.cpg/sg65_31_cif.got.tgz:60150.got - 2010.04.10 20:52:16.
