data_PCOD8270401
_publ_section_title
;
Structure prediction by ZEFSAII (Michael W. Deem and Ramdas Pophale) SiO2 
 PCOD8270401
Probable space group: C M M M
;
_chemical_formula_sum "Si O2"
_cell_formula_units_Z 88
_cell_length_a 9.024293
_cell_length_b 27.643462
_cell_length_c 20.656967
_cell_angle_alpha 90.000000
_cell_angle_beta 90.000000
_cell_angle_gamma 90.000000
_cell_volume 5153.142774
_symmetry_space_group_name_H-M "C M M M"
_symmetry_group_IT_number 65
_symmetry_cell_setting 'orthorhombic'
loop_
_space_group_symop_operation_xyz
x,y,z
-x,-y,z
x,-y,-z
-x,y,-z
-x,-y,-z
x,y,-z
-x,y,z
x,-y,z
1/2+x,1/2+y,z
1/2-x,1/2-y,z
1/2+x,1/2-y,-z
1/2-x,1/2+y,-z
1/2-x,1/2-y,-z
1/2+x,1/2+y,-z
1/2-x,1/2+y,z
1/2+x,1/2-y,z
loop_
_atom_site_type_symbol
_atom_site_label
_atom_site_fract_x
_atom_site_fract_y
_atom_site_fract_z
Si Si1 0.332211 0.942705 0.573092
Si Si2 0.825524 0.891711 0.312669
Si Si3 0.666413 0.557475 0.071222
Si Si4 0.832171 0.557498 0.196279
Si Si5 0.832152 0.700510 0.500000
Si Si6 0.326443 0.198026 0.359188
O O1 0.300753 0.924113 0.500000
O O2 0.500000 0.927917 0.593329
O O3 0.216010 0.919549 0.621827
O O4 0.314564 0.000000 0.575909
O O5 0.772764 0.922064 0.251513
O O6 0.748491 0.839050 0.309487
O O7 0.000000 0.884842 0.309664
O O8 0.500000 0.576427 0.084827
O O9 0.666529 0.500000 0.072285
O O10 0.775827 0.577254 0.126705
O O11 0.719895 0.575494 0.000000
O O12 0.822440 0.500000 0.199444
O O13 0.000000 0.575399 0.206666
O O14 0.750000 0.750000 0.500000
O O15 0.798343 0.674019 0.431484
O O16 0.000000 0.716838 0.500000
O O17 0.500000 0.203505 0.343852
O O18 0.250000 0.250000 0.352474
#
# Coordination Sequence:
#
# PCOD8270401 Si02
#       6
#    16  16  16  16   8  16
#     4   9  19  36  54  69  89 121 161 204 248 292
#     4  12  24  34  48  71  97 128 163 201 246 296
#     4   8  14  26  45  69  98 131 163 196 237 284
#     4  10  20  33  49  70  98 133 171 208 244 284
#     4   8  16  30  50  70  87 110 139 180 234 289
#     4  10  20  36  54  73  95 121 154 196 247 301
#
# _framework density 17.076957
#
# number of rings (size 3 to 8) (size 9 to 14) (size 15 to 20)
#    0.000    2.364    0.000    4.364    1.273    5.091 
#    0.000    2.727    0.000    0.000    0.000    0.000 
#    0.000    0.727    0.000    2.727    0.000    4.182 
#
# Total GULP energy -545350.553282 kJ/mol
# GULP energy per Si atom -12394.330756 kJ/mol
# Density = 1.703809 g / cm^3
# Si number density = 17.076957 Si / 1000 Ang^3
#
#
#
# Elastic Constant Matrix: (Units=GPa)
#
#
# Indices 1 2 3 4 5 6 
#
# 1 119.0124 31.8309 52.4828 0.0000 0.0000 0.0000
# 2 31.8309 31.0292 28.6128 0.0000 0.0000 0.0000
# 3 52.4828 28.6128 96.5353 0.0000 0.0000 0.0000
# 4 0.0000 0.0000 0.0000 6.7914 0.0000 0.0000
# 5 0.0000 0.0000 0.0000 0.0000 29.5482 0.0000
# 6 0.0000 0.0000 0.0000 0.0000 0.0000 24.8822
#
#
#
# Elastic Compliance Matrix: (Units=1/GPa)
#
#
# Indices 1 2 3 4 5 6 
#
# 1 0.012701 -0.009168 -0.004188 0.000000 0.000000 0.000000
# 2 -0.009168 0.050966 -0.010122 0.000000 0.000000 0.000000
# 3 -0.004188 -0.010122 0.015636 0.000000 0.000000 0.000000
# 4 0.000000 0.000000 0.000000 0.147245 0.000000 0.000000
# 5 0.000000 0.000000 0.000000 0.000000 0.033843 0.000000
# 6 0.000000 0.000000 0.000000 0.000000 0.000000 0.040189
#
#
# Mechanical properties :
#
#
# Convention : Reuss Voigt Hill
#
# Bulk Modulus (GPa) = 30.91399 52.49221 41.70310
# Shear Modulus (GPa) = 13.95409 21.15442 17.55425
#
# Velocity S-wave (km/s) = 2.86165 3.52343 3.20964
# Velocity P-wave (km/s) = 5.39080 6.88172 6.18138
#
# Compressibility (1/GPa) = 0.03234781
#
# Stress axis : x y z
#
# Youngs Moduli (GPa) = 78.73237 19.62099 63.95534
#
# Poissons Ratio (x) = 0.17988 0.26784
# Poissons Ratio (y) = 0.72178 0.64736
# Poissons Ratio (z) = 0.32973 0.19860
#
# Static dielectric constant tensor:
#      x y z
#    x 3.282160 0.000000 0.000000 
#    y 0.000000 2.874860 0.000000 
#    z 0.000000 0.000000 3.584410 
# 
# 
# High freq. dielectric constant tensor:
#      x y z
#    x 1.665700 0.000000 0.000000 
#    y 0.000000 1.624400 0.000000 
#    z 0.000000 0.000000 1.651590 
# 
# From -- ./inp_files/60646.got.cif
#   From: 2010.03.12/outbox.cif.g09.slc.cpg/sg65_31_cif.got.tgz:60646.got - 2010.04.10 20:52:16.
