data_PCOD8270635
_publ_section_title
;
Structure prediction by ZEFSAII (Michael W. Deem and Ramdas Pophale) SiO2 
 PCOD8270635
Probable space group: C M M M
;
_chemical_formula_sum "Si O2"
_cell_formula_units_Z 72
_cell_length_a 9.576036
_cell_length_b 18.443840
_cell_length_c 23.096548
_cell_angle_alpha 90.000000
_cell_angle_beta 90.000000
_cell_angle_gamma 90.000000
_cell_volume 4079.286343
_symmetry_space_group_name_H-M "C M M M"
_symmetry_group_IT_number 65
_symmetry_cell_setting 'orthorhombic'
loop_
_space_group_symop_operation_xyz
x,y,z
-x,-y,z
x,-y,-z
-x,y,-z
-x,-y,-z
x,y,-z
-x,y,z
x,-y,z
1/2+x,1/2+y,z
1/2-x,1/2-y,z
1/2+x,1/2-y,-z
1/2-x,1/2+y,-z
1/2-x,1/2-y,-z
1/2+x,1/2+y,-z
1/2-x,1/2+y,z
1/2+x,1/2-y,z
loop_
_atom_site_type_symbol
_atom_site_label
_atom_site_fract_x
_atom_site_fract_y
_atom_site_fract_z
Si Si1 0.838183 0.416549 0.721101
Si Si2 0.835489 0.676001 0.391154
Si Si3 0.338587 0.679863 0.935149
Si Si4 0.339639 0.583888 0.828754
Si Si5 0.165295 0.418378 0.500000
O O1 0.798792 0.500000 0.706812
O O2 0.798259 0.367221 0.666868
O O3 0.751950 0.386106 0.775692
O O4 0.000000 0.409719 0.736795
O O5 0.750000 0.750000 0.392770
O O6 0.784181 0.625381 0.443711
O O7 0.000000 0.693387 0.395635
O O8 0.500000 0.700930 0.928693
O O9 0.250000 0.750000 0.920731
O O10 0.293740 0.619525 0.889085
O O11 0.306980 0.650635 0.000000
O O12 0.500000 0.600444 0.813742
O O13 0.309979 0.500000 0.837621
O O14 0.229368 0.500000 0.500000
O O15 0.000000 0.425042 0.500000
#
# Coordination Sequence:
#
# PCOD8270635 Si02
#       5
#    16  16  16  16   8
#     4   9  18  33  51  70  94 126 163 198 233 278
#     4  10  20  33  51  75 101 128 159 198 241 283
#     4   9  18  32  49  69  94 124 157 194 236 283
#     4   9  18  32  50  72  96 123 157 197 240 283
#     4   9  17  32  55  77  96 125 166 204 236 277
#
# _framework density 17.650145999999999
#
# number of rings (size 3 to 8) (size 9 to 14) (size 15 to 20)
#    0.000    2.778    0.000    1.000    0.000    5.778 
#    0.000    6.667    0.000    2.667    0.000    6.222 
#    0.000    0.000    0.000    0.000    0.000    0.000 
#
# Total GULP energy -446389.833226 kJ/mol
# GULP energy per Si atom -12399.717590 kJ/mol
# Density = 1.760997 g / cm^3
# Si number density = 17.650146 Si / 1000 Ang^3
#
#
#
# Elastic Constant Matrix: (Units=GPa)
#
#
# Indices 1 2 3 4 5 6 
#
# 1 48.2466 49.7477 63.6233 0.0000 0.0000 0.0000
# 2 49.7477 111.7308 90.2067 0.0000 0.0000 0.0000
# 3 63.6233 90.2067 174.2184 0.0000 0.0000 0.0000
# 4 0.0000 0.0000 0.0000 22.3856 0.0000 0.0000
# 5 0.0000 0.0000 0.0000 0.0000 27.5567 0.0000
# 6 0.0000 0.0000 0.0000 0.0000 0.0000 29.8675
#
#
#
# Elastic Compliance Matrix: (Units=1/GPa)
#
#
# Indices 1 2 3 4 5 6 
#
# 1 0.048382 -0.012504 -0.011194 0.000000 0.000000 0.000000
# 2 -0.012504 0.018611 -0.005070 0.000000 0.000000 0.000000
# 3 -0.011194 -0.005070 0.012453 0.000000 0.000000 0.000000
# 4 0.000000 0.000000 0.000000 0.044672 0.000000 0.000000
# 5 0.000000 0.000000 0.000000 0.000000 0.036289 0.000000
# 6 0.000000 0.000000 0.000000 0.000000 0.000000 0.033481
#
#
# Mechanical properties :
#
#
# Convention : Reuss Voigt Hill
#
# Bulk Modulus (GPa) = 45.64278 82.37236 64.00757
# Shear Modulus (GPa) = 19.32536 24.66983 21.99760
#
# Velocity S-wave (km/s) = 3.31254 3.74266 3.53415
# Velocity P-wave (km/s) = 6.36760 8.08996 7.27990
#
# Compressibility (1/GPa) = 0.02190927
#
# Stress axis : x y z
#
# Youngs Moduli (GPa) = 20.66873 53.73277 80.30122
#
# Poissons Ratio (x) = 0.67188 0.89893
# Poissons Ratio (y) = 0.25844 0.40711
# Poissons Ratio (z) = 0.23138 0.27242
#
# Static dielectric constant tensor:
#      x y z
#    x 3.173510 0.000000 0.000000 
#    y 0.000000 3.263810 0.000000 
#    z 0.000000 0.000000 3.539070 
# 
# 
# High freq. dielectric constant tensor:
#      x y z
#    x 1.665740 0.000000 0.000000 
#    y 0.000000 1.678250 0.000000 
#    z 0.000000 0.000000 1.697580 
# 
# From -- ./inp_files/59284.got.cif
#   From: 2010.03.12/outbox.cif.g09.slc.cpg/sg65_30_cif.got.tgz:59284.got - 2010.04.10 20:52:16.
