data_PCOD8270215
_publ_section_title
;
Structure prediction by ZEFSAII (Michael W. Deem and Ramdas Pophale) SiO2 
 PCOD8270215
Probable space group: C M M M
;
_chemical_formula_sum "Si O2"
_cell_formula_units_Z 104
_cell_length_a 29.121854
_cell_length_b 8.690685
_cell_length_c 20.702304
_cell_angle_alpha 90.000000
_cell_angle_beta 90.000000
_cell_angle_gamma 90.000000
_cell_volume 5239.522513
_symmetry_space_group_name_H-M "C M M M"
_symmetry_group_IT_number 65
_symmetry_cell_setting 'orthorhombic'
loop_
_space_group_symop_operation_xyz
x,y,z
-x,-y,z
x,-y,-z
-x,y,-z
-x,-y,-z
x,y,-z
-x,y,z
x,-y,z
1/2+x,1/2+y,z
1/2-x,1/2-y,z
1/2+x,1/2-y,-z
1/2-x,1/2+y,-z
1/2-x,1/2-y,-z
1/2+x,1/2+y,-z
1/2-x,1/2+y,z
1/2+x,1/2-y,z
loop_
_atom_site_type_symbol
_atom_site_label
_atom_site_fract_x
_atom_site_fract_y
_atom_site_fract_z
Si Si1 0.049557 0.679970 0.896136
Si Si2 0.500000 0.172203 0.576229
Si Si3 0.699937 0.818052 0.195976
Si Si4 0.403794 0.681057 0.574307
Si Si5 0.868058 0.680874 0.691214
Si Si6 0.949255 0.825312 0.238623
Si Si7 0.852813 0.317491 0.070134
O O1 0.047435 0.500000 0.908887
O O2 0.056452 0.710083 0.820853
O O3 0.094743 0.748089 0.931147
O O4 0.000000 0.751594 0.919517
O O5 0.500000 0.159630 0.500000
O O6 0.545957 0.261973 0.597471
O O7 0.500000 0.000000 0.606736
O O8 0.750000 0.750000 0.201598
O O9 0.672777 0.767163 0.260690
O O10 0.675858 0.749800 0.130741
O O11 0.703282 0.000000 0.191112
O O12 0.394270 0.725121 0.500000
O O13 0.401129 0.500000 0.585355
O O14 0.363046 0.764959 0.616486
O O15 0.875420 0.500000 0.696651
O O16 0.913611 0.774189 0.708275
O O17 0.000000 0.809233 0.269028
O O18 0.940140 0.000000 0.215536
O O19 0.854701 0.500000 0.078823
O O20 0.830716 0.273182 0.000000
#
# Coordination Sequence:
#
# PCOD8270215 Si02
#       7
#    16   8  16  16  16  16  16
#     4   9  16  29  50  76 109 147 186 227 270 321
#     4   9  17  31  51  77 113 159 202 233 266 313
#     4  10  22  40  60  84 109 139 180 232 291 345
#     4  10  21  36  54  80 116 153 189 230 275 325
#     4  11  22  37  58  82 110 145 188 232 279 334
#     4  10  20  32  49  76 110 147 186 228 275 325
#     4   9  17  32  54  81 114 146 181 227 275 328
#
# _framework density 19.849136999999999
#
# number of rings (size 3 to 8) (size 9 to 14) (size 15 to 20)
#    0.000    2.231    1.538    1.615    1.077    4.615 
#    0.000    1.538    0.000    1.846    0.000    2.154 
#    0.000    0.000    0.000    0.000    0.000    0.000 
#
# Total GULP energy -644285.605745 kJ/mol
# GULP energy per Si atom -12390.107803 kJ/mol
# Density = 1.980396 g / cm^3
# Si number density = 19.849137 Si / 1000 Ang^3
#
#
#
# Elastic Constant Matrix: (Units=GPa)
#
#
# Indices 1 2 3 4 5 6 
#
# 1 122.0897 34.5301 80.0917 0.0000 0.0000 0.0000
# 2 34.5301 38.5967 22.4035 0.0000 0.0000 0.0000
# 3 80.0917 22.4035 126.6246 0.0000 0.0000 0.0000
# 4 0.0000 0.0000 0.0000 13.7501 0.0000 0.0000
# 5 0.0000 0.0000 0.0000 0.0000 16.7018 0.0000
# 6 0.0000 0.0000 0.0000 0.0000 0.0000 26.3396
#
#
#
# Elastic Compliance Matrix: (Units=1/GPa)
#
#
# Indices 1 2 3 4 5 6 
#
# 1 0.016817 -0.009886 -0.008888 0.000000 0.000000 0.000000
# 2 -0.009886 0.034686 0.000116 0.000000 0.000000 0.000000
# 3 -0.008888 0.000116 0.013499 0.000000 0.000000 0.000000
# 4 0.000000 0.000000 0.000000 0.072727 0.000000 0.000000
# 5 0.000000 0.000000 0.000000 0.000000 0.059874 0.000000
# 6 0.000000 0.000000 0.000000 0.000000 0.000000 0.037966
#
#
# Mechanical properties :
#
#
# Convention : Reuss Voigt Hill
#
# Bulk Modulus (GPa) = 36.11948 62.37350 49.24649
# Shear Modulus (GPa) = 17.72336 21.37735 19.55035
#
# Velocity S-wave (km/s) = 2.99139 3.28531 3.14179
# Velocity P-wave (km/s) = 5.49252 6.77370 6.16647
#
# Compressibility (1/GPa) = 0.02768589
#
# Stress axis : x y z
#
# Youngs Moduli (GPa) = 59.46195 28.82988 74.08181
#
# Poissons Ratio (x) = 0.28503 0.65844
# Poissons Ratio (y) = 0.58787 -0.00862
# Poissons Ratio (z) = 0.52850 -0.00335
#
# Static dielectric constant tensor:
#      x y z
#    x 3.744810 0.000000 0.000000 
#    y 0.000000 3.397840 0.000000 
#    z 0.000000 0.000000 3.820070 
# 
# 
# High freq. dielectric constant tensor:
#      x y z
#    x 1.747410 0.000000 0.000000 
#    y 0.000000 1.751340 0.000000 
#    z 0.000000 0.000000 1.783540 
# 
# From -- ./inp_files/65888.got.cif
#   From: 2010.03.12/outbox.cif.g09.slc.cpg/sg65_33_cif.got.tgz:65888.got - 2010.04.10 20:52:16.
