data_PCOD8270071
_publ_section_title
;
Structure prediction by ZEFSAII (Michael W. Deem and Ramdas Pophale) SiO2 
 PCOD8270071
Probable space group: C M M M
;
_chemical_formula_sum "Si O2"
_cell_formula_units_Z 104
_cell_length_a 25.432210
_cell_length_b 9.139088
_cell_length_c 22.798227
_cell_angle_alpha 90.000000
_cell_angle_beta 90.000000
_cell_angle_gamma 90.000000
_cell_volume 5298.928186
_symmetry_space_group_name_H-M "C M M M"
_symmetry_group_IT_number 65
_symmetry_cell_setting 'orthorhombic'
loop_
_space_group_symop_operation_xyz
x,y,z
-x,-y,z
x,-y,-z
-x,y,-z
-x,-y,-z
x,y,-z
-x,y,z
x,-y,z
1/2+x,1/2+y,z
1/2-x,1/2-y,z
1/2+x,1/2-y,-z
1/2-x,1/2+y,-z
1/2-x,1/2-y,-z
1/2+x,1/2+y,-z
1/2-x,1/2+y,z
1/2+x,1/2-y,z
loop_
_atom_site_type_symbol
_atom_site_label
_atom_site_fract_x
_atom_site_fract_y
_atom_site_fract_z
Si Si1 0.111339 0.330553 0.175984
Si Si2 0.000000 0.174510 0.643614
Si Si3 0.894625 0.173044 0.065795
Si Si4 0.301066 0.829535 0.601113
Si Si5 0.000000 0.340149 0.933121
Si Si6 0.084572 0.669206 0.433801
Si Si7 0.199381 0.329819 0.265068
Si Si8 0.000000 0.669668 0.232293
O O1 0.117350 0.500000 0.159984
O O2 0.137188 0.241633 0.120316
O O3 0.146606 0.285023 0.231215
O O4 0.050851 0.292701 0.192439
O O5 0.948291 0.231114 0.610252
O O6 0.000000 0.231597 0.709904
O O7 0.000000 0.000000 0.643833
O O8 0.950543 0.241893 0.081475
O O9 0.897310 0.000000 0.070112
O O10 0.874906 0.218630 0.000000
O O11 0.250000 0.750000 0.573647
O O12 0.354161 0.784512 0.567448
O O13 0.309166 0.780013 0.668219
O O14 0.290089 0.000000 0.595012
O O15 0.000000 0.500000 0.899144
O O16 0.000000 0.382557 0.000000
O O17 0.063695 0.690897 0.500000
O O18 0.078389 0.500000 0.413971
O O19 0.210585 0.500000 0.260015
O O20 0.250000 0.250000 0.237485
O O21 0.000000 0.500000 0.252161
#
# Coordination Sequence:
#
# PCOD8270071 Si02
#       8
#    16   8  16  16   8  16  16   8
#     4  10  20  34  55  81 106 137 179 222 263 314
#     4  12  25  38  55  80 110 144 184 232 278 315
#     4  10  20  32  47  71 105 141 173 211 263 319
#     4   9  18  34  56  82 110 139 174 218 270 326
#     4   9  16  27  44  64  89 127 172 209 242 291
#     4  10  21  38  59  80 107 149 192 223 261 320
#     4   9  18  33  53  77 104 135 174 219 266 316
#     4  10  21  38  58  80 109 142 175 217 270 325
#
# _framework density 19.626609999999999
#
# number of rings (size 3 to 8) (size 9 to 14) (size 15 to 20)
#    0.000    2.231    0.000    3.000    0.000    8.308 
#    0.000    3.077    0.000    0.462    0.000    0.000 
#    0.000    0.000    0.000    0.000    0.000    0.000 
#
# Total GULP energy -644480.016021 kJ/mol
# GULP energy per Si atom -12393.846462 kJ/mol
# Density = 1.958194 g / cm^3
# Si number density = 19.626610 Si / 1000 Ang^3
#
#
#
# Elastic Constant Matrix: (Units=GPa)
#
#
# Indices 1 2 3 4 5 6 
#
# 1 83.4901 31.5484 25.4359 0.0000 0.0000 0.0000
# 2 31.5484 78.4362 50.2916 0.0000 0.0000 0.0000
# 3 25.4359 50.2916 103.8819 0.0000 0.0000 0.0000
# 4 0.0000 0.0000 0.0000 24.6992 0.0000 0.0000
# 5 0.0000 0.0000 0.0000 0.0000 13.6997 0.0000
# 6 0.0000 0.0000 0.0000 0.0000 0.0000 31.5045
#
#
#
# Elastic Compliance Matrix: (Units=1/GPa)
#
#
# Indices 1 2 3 4 5 6 
#
# 1 0.014200 -0.005050 -0.001032 0.000000 0.000000 0.000000
# 2 -0.005050 0.020284 -0.008583 0.000000 0.000000 0.000000
# 3 -0.001032 -0.008583 0.014034 0.000000 0.000000 0.000000
# 4 0.000000 0.000000 0.000000 0.040487 0.000000 0.000000
# 5 0.000000 0.000000 0.000000 0.000000 0.072994 0.000000
# 6 0.000000 0.000000 0.000000 0.000000 0.000000 0.031741
#
#
# Mechanical properties :
#
#
# Convention : Reuss Voigt Hill
#
# Bulk Modulus (GPa) = 52.11684 53.37334 52.74509
# Shear Modulus (GPa) = 21.78954 24.54950 23.16952
#
# Velocity S-wave (km/s) = 3.33559 3.54054 3.43959
# Velocity P-wave (km/s) = 6.43791 6.63079 6.53506
#
# Compressibility (1/GPa) = 0.01918766
#
# Stress axis : x y z
#
# Youngs Moduli (GPa) = 70.42216 49.30054 71.25299
#
# Poissons Ratio (x) = 0.24895 0.07355
# Poissons Ratio (y) = 0.35561 0.61159
# Poissons Ratio (z) = 0.07270 0.42317
#
# Static dielectric constant tensor:
#      x y z
#    x 3.873470 0.000000 0.000000 
#    y 0.000000 3.470940 0.000000 
#    z 0.000000 0.000000 3.819220 
# 
# 
# High freq. dielectric constant tensor:
#      x y z
#    x 1.745320 0.000000 0.000000 
#    y 0.000000 1.752900 0.000000 
#    z 0.000000 0.000000 1.778650 
# 
# From -- ./inp_files/75859.got.cif
#   From: 2010.03.12/outbox.cif.g09.slc.cpg/sg65_38_cif.got.tgz:75859.got - 2010.04.10 20:52:16.
