data_PCOD8270801
_publ_section_title
;
Structure prediction by ZEFSAII (Michael W. Deem and Ramdas Pophale) SiO2 
 PCOD8270801
Probable space group: C M M M
;
_chemical_formula_sum "Si O2"
_cell_formula_units_Z 88
_cell_length_a 18.278890
_cell_length_b 9.086586
_cell_length_c 28.398254
_cell_angle_alpha 90.000000
_cell_angle_beta 90.000000
_cell_angle_gamma 90.000000
_cell_volume 4716.742852
_symmetry_space_group_name_H-M "C M M M"
_symmetry_group_IT_number 65
_symmetry_cell_setting 'orthorhombic'
loop_
_space_group_symop_operation_xyz
x,y,z
-x,-y,z
x,-y,-z
-x,y,-z
-x,-y,-z
x,y,-z
-x,y,z
x,-y,z
1/2+x,1/2+y,z
1/2-x,1/2-y,z
1/2+x,1/2-y,-z
1/2-x,1/2+y,-z
1/2-x,1/2-y,-z
1/2+x,1/2+y,-z
1/2-x,1/2+y,z
1/2+x,1/2-y,z
loop_
_atom_site_type_symbol
_atom_site_label
_atom_site_fract_x
_atom_site_fract_y
_atom_site_fract_z
Si Si1 0.172604 0.825556 0.000000
Si Si2 0.171975 0.325420 0.723962
Si Si3 0.413162 0.331993 0.357401
Si Si4 0.916147 0.827527 0.090685
Si Si5 0.086887 0.665105 0.551853
Si Si6 0.416572 0.172699 0.184499
O O1 0.250000 0.750000 0.000000
O O2 0.129344 0.771333 0.953968
O O3 0.181435 0.000000 0.000000
O O4 0.180590 0.500000 0.720670
O O5 0.250000 0.250000 0.720852
O O6 0.121601 0.271414 0.681688
O O7 0.133498 0.276024 0.772331
O O8 0.500000 0.316771 0.353489
O O9 0.387680 0.500000 0.350600
O O10 0.384231 0.276879 0.408355
O O11 0.885869 0.749403 0.137516
O O12 0.000000 0.783428 0.081538
O O13 0.907076 0.000000 0.098099
O O14 0.115000 0.715734 0.500000
O O15 0.115235 0.500000 0.562837
O O16 0.000000 0.665129 0.551935
O O17 0.500000 0.222703 0.194690
O O18 0.412003 0.000000 0.176626
#
# Coordination Sequence:
#
# PCOD8270801 Si02
#       6
#     8  16  16  16  16  16
#     4  10  21  35  51  75 107 140 174 210 252 302
#     4  11  23  38  55  75 104 140 176 216 263 315
#     4  10  20  33  52  79 108 138 175 218 261 309
#     4   9  18  34  56  78 101 133 172 213 254 299
#     4   8  14  26  46  73 104 137 173 213 258 307
#     4   9  19  36  57  80 104 132 169 213 261 312
#
# _framework density 18.656941
#
# number of rings (size 3 to 8) (size 9 to 14) (size 15 to 20)
#    0.000    2.545    0.000    2.455    0.000    6.182 
#    0.000    7.273    0.000    3.273    0.000    0.000 
#    0.000    0.000    0.000    0.000    0.000    0.000 
#
# Total GULP energy -545595.086433 kJ/mol
# GULP energy per Si atom -12399.888328 kJ/mol
# Density = 1.861448 g / cm^3
# Si number density = 18.656941 Si / 1000 Ang^3
#
#
#
# Elastic Constant Matrix: (Units=GPa)
#
#
# Indices 1 2 3 4 5 6 
#
# 1 55.1423 32.4340 52.2162 0.0000 0.0000 0.0000
# 2 32.4340 64.1446 59.3615 0.0000 0.0000 0.0000
# 3 52.2162 59.3615 170.1333 0.0000 0.0000 0.0000
# 4 0.0000 0.0000 0.0000 37.2708 0.0000 0.0000
# 5 0.0000 0.0000 0.0000 0.0000 -0.0450 0.0000
# 6 0.0000 0.0000 0.0000 0.0000 0.0000 26.3991
#
#
#
# Elastic Compliance Matrix: (Units=1/GPa)
#
#
# Indices 1 2 3 4 5 6 
#
# 1 0.029016 -0.009497 -0.005592 0.000000 0.000000 0.000000
# 2 -0.009497 0.026132 -0.006203 0.000000 0.000000 0.000000
# 3 -0.005592 -0.006203 0.009758 0.000000 0.000000 0.000000
# 4 0.000000 0.000000 0.000000 0.026831 0.000000 0.000000
# 5 0.000000 0.000000 0.000000 0.000000-22.236730 0.000000
# 6 0.000000 0.000000 0.000000 0.000000 0.000000 0.037880
#
#
# Mechanical properties :
#
#
# Convention : Reuss Voigt Hill
#
# Bulk Modulus (GPa) = 44.79675 64.16039 54.47857
# Shear Modulus (GPa) = -0.22668 22.41889 11.09610
#
# Velocity S-wave (km/s) = -0.34895 3.47023 2.44138
# Velocity P-wave (km/s) = 4.88882 7.10780 6.10006
#
# Compressibility (1/GPa) = 0.02232305
#
# Stress axis : x y z
#
# Youngs Moduli (GPa) = 34.46394 38.26685 102.47644
#
# Poissons Ratio (x) = 0.36341 0.57303
# Poissons Ratio (y) = 0.32729 0.63568
# Poissons Ratio (z) = 0.19272 0.23738
#
# Static dielectric constant tensor:
#      x y z
#    x 3.194620 0.000000 0.000000 
#    y 0.000000 3.434530 0.000000 
#    z 0.000000 0.000000 3.775690 
# 
# 
# High freq. dielectric constant tensor:
#      x y z
#    x 1.696970 0.000000 0.000000 
#    y 0.000000 1.722170 0.000000 
#    z 0.000000 0.000000 1.742030 
# 
# From -- ./inp_files/77941.got.cif
#   From: 2010.03.12/outbox.cif.g09.slc.cpg/sg65_39_cif.got.tgz:77941.got - 2010.04.10 20:52:16.
