data_PCOD8270795
_publ_section_title
;
Structure prediction by ZEFSAII (Michael W. Deem and Ramdas Pophale) SiO2 
 PCOD8270795
Probable space group: C M M M
;
_chemical_formula_sum "Si O2"
_cell_formula_units_Z 96
_cell_length_a 8.915761
_cell_length_b 19.149272
_cell_length_c 30.825508
_cell_angle_alpha 90.000000
_cell_angle_beta 90.000000
_cell_angle_gamma 90.000000
_cell_volume 5262.849230
_symmetry_space_group_name_H-M "C M M M"
_symmetry_group_IT_number 65
_symmetry_cell_setting 'orthorhombic'
loop_
_space_group_symop_operation_xyz
x,y,z
-x,-y,z
x,-y,-z
-x,y,-z
-x,-y,-z
x,y,-z
-x,y,z
x,-y,z
1/2+x,1/2+y,z
1/2-x,1/2-y,z
1/2+x,1/2-y,-z
1/2-x,1/2+y,-z
1/2-x,1/2-y,-z
1/2+x,1/2+y,-z
1/2-x,1/2+y,z
1/2+x,1/2-y,z
loop_
_atom_site_type_symbol
_atom_site_label
_atom_site_fract_x
_atom_site_fract_y
_atom_site_fract_z
Si Si1 0.670136 0.917405 0.616033
Si Si2 0.665673 0.582859 0.299608
Si Si3 0.177543 0.673890 0.868459
Si Si4 0.675662 0.325198 0.047060
Si Si5 0.175102 0.081302 0.202863
Si Si6 0.676001 0.678823 0.549473
O O1 0.500000 0.893586 0.609313
O O2 0.722464 0.889463 0.663262
O O3 0.770345 0.885665 0.578145
O O4 0.689252 0.000000 0.613107
O O5 0.500000 0.613059 0.309496
O O6 0.658196 0.500000 0.300085
O O7 0.718150 0.606041 0.251647
O O8 0.250000 0.750000 0.862156
O O9 0.242456 0.636752 0.912522
O O10 0.220093 0.625356 0.828488
O O11 0.000000 0.681183 0.871640
O O12 0.500000 0.317989 0.057399
O O13 0.750000 0.250000 0.043978
O O14 0.699491 0.363198 0.000000
O O15 0.000000 0.095963 0.193702
O O16 0.211637 0.000000 0.196093
O O17 0.725291 0.664010 0.500000
O O18 0.500000 0.686974 0.553818
O O19 0.750000 0.750000 0.566714
#
# Coordination Sequence:
#
# PCOD8270795 Si02
#       6
#    16  16  16  16  16  16
#     4  10  20  33  52  79 108 135 165 206 251 293
#     4   8  15  30  52  75  99 130 167 206 248 295
#     4  11  21  32  49  73 103 134 165 206 251 295
#     4   9  16  27  45  68  94 125 162 203 247 296
#     4   9  18  34  55  76 100 132 168 205 248 300
#     4  10  21  37  56  76 101 135 172 209 250 299
#
# _framework density 18.241070000000001
#
# number of rings (size 3 to 8) (size 9 to 14) (size 15 to 20)
#    0.000    2.500    0.000    5.000    0.000    4.333 
#    0.000    4.167    0.000    4.500    0.000    3.500 
#    0.000    0.000    0.000    0.000    0.000    0.000 
#
# Total GULP energy -594948.523454 kJ/mol
# GULP energy per Si atom -12394.760905 kJ/mol
# Density = 1.819955 g / cm^3
# Si number density = 18.241070 Si / 1000 Ang^3
#
#
#
# Elastic Constant Matrix: (Units=GPa)
#
#
# Indices 1 2 3 4 5 6 
#
# 1 115.6514 33.5885 63.9347 0.0000 0.0000 0.0000
# 2 33.5885 37.9108 40.2120 0.0000 0.0000 0.0000
# 3 63.9347 40.2120 137.0992 0.0000 0.0000 0.0000
# 4 0.0000 0.0000 0.0000 27.2431 0.0000 0.0000
# 5 0.0000 0.0000 0.0000 0.0000 33.8009 0.0000
# 6 0.0000 0.0000 0.0000 0.0000 0.0000 25.4961
#
#
#
# Elastic Compliance Matrix: (Units=1/GPa)
#
#
# Indices 1 2 3 4 5 6 
#
# 1 0.012919 -0.007339 -0.003872 0.000000 0.000000 0.000000
# 2 -0.007339 0.042459 -0.009031 0.000000 0.000000 0.000000
# 3 -0.003872 -0.009031 0.011749 0.000000 0.000000 0.000000
# 4 0.000000 0.000000 0.000000 0.036707 0.000000 0.000000
# 5 0.000000 0.000000 0.000000 0.000000 0.029585 0.000000
# 6 0.000000 0.000000 0.000000 0.000000 0.000000 0.039222
#
#
# Mechanical properties :
#
#
# Convention : Reuss Voigt Hill
#
# Bulk Modulus (GPa) = 37.53396 62.90351 50.21873
# Shear Modulus (GPa) = 22.52211 27.50309 25.01260
#
# Velocity S-wave (km/s) = 3.51763 3.88720 3.70702
# Velocity P-wave (km/s) = 6.09259 7.39638 6.77592
#
# Compressibility (1/GPa) = 0.02664254
#
# Stress axis : x y z
#
# Youngs Moduli (GPa) = 77.40807 23.55205 85.11715
#
# Poissons Ratio (x) = 0.17284 0.32957
# Poissons Ratio (y) = 0.56808 0.76871
# Poissons Ratio (z) = 0.29972 0.21270
#
# Static dielectric constant tensor:
#      x y z
#    x 3.490070 0.000000 0.000000 
#    y 0.000000 2.910620 0.000000 
#    z 0.000000 0.000000 3.951540 
# 
# 
# High freq. dielectric constant tensor:
#      x y z
#    x 1.716230 0.000000 0.000000 
#    y 0.000000 1.656630 0.000000 
#    z 0.000000 0.000000 1.727460 
# 
# From -- ./inp_files/73173.got.cif
#   From: 2010.03.12/outbox.cif.g09.slc.cpg/sg65_37_cif.got.tgz:73173.got - 2010.04.10 20:52:16.
