data_PCOD8270024
_publ_section_title
;
Structure prediction by ZEFSAII (Michael W. Deem and Ramdas Pophale) SiO2 
 PCOD8270024
Probable space group: C M M M
;
_chemical_formula_sum "Si O2"
_cell_formula_units_Z 72
_cell_length_a 28.387772
_cell_length_b 15.928416
_cell_length_c 9.324962
_cell_angle_alpha 90.000000
_cell_angle_beta 90.000000
_cell_angle_gamma 90.000000
_cell_volume 4216.488972
_symmetry_space_group_name_H-M "C M M M"
_symmetry_group_IT_number 65
_symmetry_cell_setting 'orthorhombic'
loop_
_space_group_symop_operation_xyz
x,y,z
-x,-y,z
x,-y,-z
-x,y,-z
-x,-y,-z
x,y,-z
-x,y,z
x,-y,z
1/2+x,1/2+y,z
1/2-x,1/2-y,z
1/2+x,1/2-y,-z
1/2-x,1/2+y,-z
1/2-x,1/2-y,-z
1/2+x,1/2+y,-z
1/2-x,1/2+y,z
1/2+x,1/2-y,z
loop_
_atom_site_type_symbol
_atom_site_label
_atom_site_fract_x
_atom_site_fract_y
_atom_site_fract_z
Si Si1 0.274716 0.339129 0.657094
Si Si2 0.140734 0.734692 0.666817
Si Si3 0.446447 0.661080 0.333844
Si Si4 0.555862 0.500000 0.839208
Si Si5 0.306204 0.095684 0.835388
O O1 0.274714 0.383033 0.500000
O O2 0.250000 0.250000 0.646126
O O3 0.327971 0.317366 0.707708
O O4 0.246296 0.396648 0.768519
O O5 0.148834 0.712229 0.500000
O O6 0.086455 0.758347 0.698824
O O7 0.155051 0.653325 0.757820
O O8 0.443104 0.635160 0.500000
O O9 0.500000 0.685399 0.291796
O O10 0.426884 0.582917 0.242899
O O11 0.500000 0.500000 0.841262
O O12 0.576696 0.500000 0.000000
O O13 0.323252 0.000000 0.820214
O O14 0.302844 0.123707 0.000000
#
# Coordination Sequence:
#
# PCOD8270024 Si02
#       5
#    16  16  16   8  16
#     4   8  15  29  47  66  89 117 151 190 230 274
#     4   9  18  32  50  72  95 122 160 197 233 280
#     4   9  17  31  51  72  96 126 159 197 238 278
#     4   9  17  29  45  67  95 125 157 191 229 277
#     4  10  20  32  47  69  96 125 158 194 235 284
#
# _framework density 17.075818999999999
#
# number of rings (size 3 to 8) (size 9 to 14) (size 15 to 20)
#    0.000    3.000    0.000    2.333    0.000    8.000 
#    2.000    0.000    0.000    0.667    0.000    4.667 
#    0.000    0.000    0.000    0.000    0.000    0.000 
#
# Total GULP energy -446182.561737 kJ/mol
# GULP energy per Si atom -12393.960048 kJ/mol
# Density = 1.703695 g / cm^3
# Si number density = 17.075819 Si / 1000 Ang^3
#
#
#
# Elastic Constant Matrix: (Units=GPa)
#
#
# Indices 1 2 3 4 5 6 
#
# 1 91.6495 42.7495 43.7819 0.0000 0.0000 0.0000
# 2 42.7495 78.5810 57.1124 0.0000 0.0000 0.0000
# 3 43.7819 57.1124 102.5188 0.0000 0.0000 0.0000
# 4 0.0000 0.0000 0.0000 26.4434 0.0000 0.0000
# 5 0.0000 0.0000 0.0000 0.0000 13.2813 0.0000
# 6 0.0000 0.0000 0.0000 0.0000 0.0000 20.0437
#
#
#
# Elastic Compliance Matrix: (Units=1/GPa)
#
#
# Indices 1 2 3 4 5 6 
#
# 1 0.015210 -0.005971 -0.003169 0.000000 0.000000 0.000000
# 2 -0.005971 0.023728 -0.010669 0.000000 0.000000 0.000000
# 3 -0.003169 -0.010669 0.017051 0.000000 0.000000 0.000000
# 4 0.000000 0.000000 0.000000 0.037817 0.000000 0.000000
# 5 0.000000 0.000000 0.000000 0.000000 0.075294 0.000000
# 6 0.000000 0.000000 0.000000 0.000000 0.000000 0.049891
#
#
# Mechanical properties :
#
#
# Convention : Reuss Voigt Hill
#
# Bulk Modulus (GPa) = 61.08228 62.22631 61.65429
# Shear Modulus (GPa) = 18.93462 20.56071 19.74766
#
# Velocity S-wave (km/s) = 3.33356 3.47376 3.40438
# Velocity P-wave (km/s) = 7.11798 7.25325 7.18593
#
# Compressibility (1/GPa) = 0.01637136
#
# Stress axis : x y z
#
# Youngs Moduli (GPa) = 65.74449 42.14398 58.64711
#
# Poissons Ratio (x) = 0.25166 0.18586
# Poissons Ratio (y) = 0.39259 0.62568
# Poissons Ratio (z) = 0.20836 0.44962
#
# Static dielectric constant tensor:
#      x y z
#    x 3.494090 0.000000 0.000000 
#    y 0.000000 2.902130 0.000000 
#    z 0.000000 0.000000 3.294990 
# 
# 
# High freq. dielectric constant tensor:
#      x y z
#    x 1.646420 0.000000 0.000000 
#    y 0.000000 1.631350 0.000000 
#    z 0.000000 0.000000 1.660420 
# 
# From -- ./inp_files/17989.got.cif
#   From: 2010.03.12/outbox.cif.g09.slc.cpg/sg65_9_cif.got.tgz:17989.got - 2010.04.10 20:52:16.
