data_PCOD8270304
_publ_section_title
;
Structure prediction by ZEFSAII (Michael W. Deem and Ramdas Pophale) SiO2 
 PCOD8270304
Probable space group: C M M M
;
_chemical_formula_sum "Si O2"
_cell_formula_units_Z 104
_cell_length_a 18.734203
_cell_length_b 22.218399
_cell_length_c 15.477232
_cell_angle_alpha 90.000000
_cell_angle_beta 90.000000
_cell_angle_gamma 90.000000
_cell_volume 6442.304913
_symmetry_space_group_name_H-M "C M M M"
_symmetry_group_IT_number 65
_symmetry_cell_setting 'orthorhombic'
loop_
_space_group_symop_operation_xyz
x,y,z
-x,-y,z
x,-y,-z
-x,y,-z
-x,-y,-z
x,y,-z
-x,y,z
x,-y,z
1/2+x,1/2+y,z
1/2-x,1/2-y,z
1/2+x,1/2-y,-z
1/2-x,1/2+y,-z
1/2-x,1/2-y,-z
1/2+x,1/2+y,-z
1/2-x,1/2+y,z
1/2+x,1/2-y,z
loop_
_atom_site_type_symbol
_atom_site_label
_atom_site_fract_x
_atom_site_fract_y
_atom_site_fract_z
Si Si1 0.083806 0.066332 0.000000
Si Si2 0.416688 0.566142 0.331318
Si Si3 0.204663 0.568788 0.900219
Si Si4 0.916443 0.232495 0.224913
Si Si5 0.918221 0.340543 0.098150
Si Si6 0.151826 0.886992 0.831874
Si Si7 0.583703 0.309483 0.593079
O O1 0.108233 0.102388 0.082276
O O2 0.000000 0.061045 0.000000
O O3 0.119415 0.000000 0.000000
O O4 0.500000 0.574987 0.311301
O O5 0.402861 0.500000 0.374374
O O6 0.375540 0.567197 0.240659
O O7 0.388571 0.621986 0.388985
O O8 0.196913 0.500000 0.869584
O O9 0.128906 0.600677 0.884823
O O10 0.263892 0.603115 0.844128
O O11 0.228033 0.572202 0.000000
O O12 0.897498 0.291946 0.171177
O O13 0.863508 0.181735 0.191207
O O14 0.898705 0.237019 0.328402
O O15 0.000000 0.215110 0.211967
O O16 0.000000 0.360377 0.109513
O O17 0.905472 0.315411 0.000000
O O18 0.616668 0.288226 0.500000
O O19 0.500000 0.313304 0.582430
#
# Coordination Sequence:
#
# PCOD8270304 Si02
#       7
#     8  16  16  16  16  16  16
#     4  11  20  26  36  55  83 125 166 189 211 247
#     4   9  16  25  37  56  86 122 161 197 223 256
#     4  10  20  33  47  65  90 119 153 194 233 268
#     4   9  18  31  46  67  95 124 155 189 222 264
#     4   9  19  34  51  69  89 116 150 189 233 280
#     4  11  19  28  41  61  89 123 154 188 223 260
#     4   8  14  25  41  62  88 117 149 188 232 268
#
# _framework density 16.143291000000001
#
# number of rings (size 3 to 8) (size 9 to 14) (size 15 to 20)
#    0.000    2.538    0.769    3.692    1.077    2.462 
#    0.000    4.615    0.000    0.000    0.000    8.615 
#    0.000    5.538    0.000    6.000    0.000    0.154 
#
# Total GULP energy -644341.215999 kJ/mol
# GULP energy per Si atom -12391.177231 kJ/mol
# Density = 1.610655 g / cm^3
# Si number density = 16.143291 Si / 1000 Ang^3
#
#
#
# Elastic Constant Matrix: (Units=GPa)
#
#
# Indices 1 2 3 4 5 6 
#
# 1 61.4768 39.0218 28.8649 0.0000 0.0000 0.0000
# 2 39.0218 75.7821 39.4391 0.0000 0.0000 0.0000
# 3 28.8649 39.4391 111.4438 0.0000 0.0000 0.0000
# 4 0.0000 0.0000 0.0000 13.8033 0.0000 0.0000
# 5 0.0000 0.0000 0.0000 0.0000 10.1773 0.0000
# 6 0.0000 0.0000 0.0000 0.0000 0.0000 21.9275
#
#
#
# Elastic Compliance Matrix: (Units=1/GPa)
#
#
# Indices 1 2 3 4 5 6 
#
# 1 0.024644 -0.011483 -0.002319 0.000000 0.000000 0.000000
# 2 -0.011483 0.021525 -0.004643 0.000000 0.000000 0.000000
# 3 -0.002319 -0.004643 0.011217 0.000000 0.000000 0.000000
# 4 0.000000 0.000000 0.000000 0.072447 0.000000 0.000000
# 5 0.000000 0.000000 0.000000 0.000000 0.098258 0.000000
# 6 0.000000 0.000000 0.000000 0.000000 0.000000 0.045605
#
#
# Mechanical properties :
#
#
# Convention : Reuss Voigt Hill
#
# Bulk Modulus (GPa) = 48.79205 51.48381 50.13793
# Shear Modulus (GPa) = 15.75215 18.60675 17.17945
#
# Velocity S-wave (km/s) = 3.12712 3.39868 3.26572
# Velocity P-wave (km/s) = 6.58244 6.88203 6.73390
#
# Compressibility (1/GPa) = 0.02049514
#
# Stress axis : x y z
#
# Youngs Moduli (GPa) = 40.57830 46.45780 89.14938
#
# Poissons Ratio (x) = 0.53345 0.20677
# Poissons Ratio (y) = 0.46594 0.41396
# Poissons Ratio (z) = 0.09412 0.21572
#
# Static dielectric constant tensor:
#      x y z
#    x 2.816220 0.000000 0.000000 
#    y 0.000000 2.935940 0.000000 
#    z 0.000000 0.000000 3.415350 
# 
# 
# High freq. dielectric constant tensor:
#      x y z
#    x 1.593110 0.000000 0.000000 
#    y 0.000000 1.605570 0.000000 
#    z 0.000000 0.000000 1.614650 
# 
# From -- ./inp_files/44417.got.cif
#   From: 2010.03.12/outbox.cif.g09.slc.cpg/sg65_23_cif.got.tgz:44417.got - 2010.04.10 20:52:16.
