data_PCOD8270399
_publ_section_title
;
Structure prediction by ZEFSAII (Michael W. Deem and Ramdas Pophale) SiO2 
 PCOD8270399
Probable space group: C M M M
;
_chemical_formula_sum "Si O2"
_cell_formula_units_Z 104
_cell_length_a 26.791664
_cell_length_b 9.034761
_cell_length_c 21.374161
_cell_angle_alpha 90.000000
_cell_angle_beta 90.000000
_cell_angle_gamma 90.000000
_cell_volume 5173.749922
_symmetry_space_group_name_H-M "C M M M"
_symmetry_group_IT_number 65
_symmetry_cell_setting 'orthorhombic'
loop_
_space_group_symop_operation_xyz
x,y,z
-x,-y,z
x,-y,-z
-x,y,-z
-x,-y,-z
x,y,-z
-x,y,z
x,-y,z
1/2+x,1/2+y,z
1/2-x,1/2-y,z
1/2+x,1/2-y,-z
1/2-x,1/2+y,-z
1/2-x,1/2-y,-z
1/2+x,1/2+y,-z
1/2-x,1/2+y,z
1/2+x,1/2-y,z
loop_
_atom_site_type_symbol
_atom_site_label
_atom_site_fract_x
_atom_site_fract_y
_atom_site_fract_z
Si Si1 0.356603 0.674802 0.626283
Si Si2 0.295252 0.663275 0.929081
Si Si3 0.557071 0.829592 0.311816
Si Si4 0.602072 0.826280 0.069354
Si Si5 0.302928 0.326003 0.500000
Si Si6 0.699165 0.329306 0.749649
Si Si7 0.904627 0.827594 0.809053
O O1 0.366121 0.500000 0.630040
O O2 0.409578 0.755978 0.633951
O O3 0.333436 0.725202 0.560743
O O4 0.320008 0.727538 0.682054
O O5 0.305383 0.500000 0.897508
O O6 0.250000 0.750000 0.894404
O O7 0.341886 0.770590 0.927532
O O8 0.279199 0.631987 0.000000
O O9 0.500000 0.812086 0.332874
O O10 0.565107 0.748235 0.246182
O O11 0.572258 0.000000 0.303501
O O12 0.574347 0.740366 0.125640
O O13 0.599858 0.000000 0.082471
O O14 0.579323 0.790549 0.000000
O O15 0.294051 0.500000 0.500000
O O16 0.250000 0.250000 0.500000
O O17 0.712136 0.500000 0.744466
O O18 0.750000 0.250000 0.769694
O O19 0.655396 0.299452 0.800999
O O20 0.917065 0.000000 0.807436
#
# Coordination Sequence:
#
# PCOD8270399 Si02
#       7
#    16  16  16  16   8  16  16
#     4   9  19  35  54  81 116 152 193 234 274 326
#     4   9  16  26  40  58  83 119 164 209 251 301
#     4  10  21  38  61  86 109 137 179 232 287 337
#     4  10  20  33  49  70  98 132 169 213 269 330
#     4  10  20  34  55  86 125 167 206 239 271 314
#     4   9  18  31  48  72 102 138 180 225 270 316
#     4  10  21  36  54  78 106 137 177 222 272 336
#
# _framework density 20.101474
#
# number of rings (size 3 to 8) (size 9 to 14) (size 15 to 20)
#    0.000    2.462    0.000    3.231    0.000    8.308 
#    0.000    1.923    0.000    2.769    0.000    3.231 
#    0.000    0.000    0.000    0.000    0.000    0.000 
#
# Total GULP energy -644594.938784 kJ/mol
# GULP energy per Si atom -12396.056515 kJ/mol
# Density = 2.005572 g / cm^3
# Si number density = 20.101474 Si / 1000 Ang^3
#
#
#
# Elastic Constant Matrix: (Units=GPa)
#
#
# Indices 1 2 3 4 5 6 
#
# 1 75.5483 41.5016 35.0435 0.0000 0.0000 0.0000
# 2 41.5016 93.8044 51.5173 0.0000 0.0000 0.0000
# 3 35.0435 51.5173 145.6754 0.0000 0.0000 0.0000
# 4 0.0000 0.0000 0.0000 27.1901 0.0000 0.0000
# 5 0.0000 0.0000 0.0000 0.0000 0.0593 0.0000
# 6 0.0000 0.0000 0.0000 0.0000 0.0000 28.5117
#
#
#
# Elastic Compliance Matrix: (Units=1/GPa)
#
#
# Indices 1 2 3 4 5 6 
#
# 1 0.017886 -0.006888 -0.001867 0.000000 0.000000 0.000000
# 2 -0.006888 0.015883 -0.003960 0.000000 0.000000 0.000000
# 3 -0.001867 -0.003960 0.008714 0.000000 0.000000 0.000000
# 4 0.000000 0.000000 0.000000 0.036778 0.000000 0.000000
# 5 0.000000 0.000000 0.000000 0.000000 16.852797 0.000000
# 6 0.000000 0.000000 0.000000 0.000000 0.000000 0.035073
#
#
# Mechanical properties :
#
#
# Convention : Reuss Voigt Hill
#
# Bulk Modulus (GPa) = 58.63869 63.46144 61.05007
# Shear Modulus (GPa) = 0.29415 23.61660 11.95538
#
# Velocity S-wave (km/s) = 0.38295 3.43136 2.44140
# Velocity P-wave (km/s) = 5.42496 6.88026 6.19549
#
# Compressibility (1/GPa) = 0.01705359
#
# Stress axis : x y z
#
# Youngs Moduli (GPa) = 55.90827 62.96135 114.75771
#
# Poissons Ratio (x) = 0.43369 0.21422
# Poissons Ratio (y) = 0.38511 0.45442
# Poissons Ratio (z) = 0.10437 0.24932
#
# Static dielectric constant tensor:
#      x y z
#    x 3.355490 0.000000 0.000000 
#    y 0.000000 3.832210 0.000000 
#    z 0.000000 0.000000 3.942040 
# 
# 
# High freq. dielectric constant tensor:
#      x y z
#    x 1.756280 0.000000 0.000000 
#    y 0.000000 1.790570 0.000000 
#    z 0.000000 0.000000 1.787530 
# 
# From -- ./inp_files/65855.got.cif
#   From: 2010.03.12/outbox.cif.g09.slc.cpg/sg65_33_cif.got.tgz:65855.got - 2010.04.10 20:52:16.
