data_PCOD8270570
_publ_section_title
;
Structure prediction by ZEFSAII (Michael W. Deem and Ramdas Pophale) SiO2 
 PCOD8270570
Probable space group: C M M M
;
_chemical_formula_sum "Si O2"
_cell_formula_units_Z 96
_cell_length_a 9.405931
_cell_length_b 28.493909
_cell_length_c 17.970650
_cell_angle_alpha 90.000000
_cell_angle_beta 90.000000
_cell_angle_gamma 90.000000
_cell_volume 4816.345211
_symmetry_space_group_name_H-M "C M M M"
_symmetry_group_IT_number 65
_symmetry_cell_setting 'orthorhombic'
loop_
_space_group_symop_operation_xyz
x,y,z
-x,-y,z
x,-y,-z
-x,y,-z
-x,-y,-z
x,y,-z
-x,y,z
x,-y,z
1/2+x,1/2+y,z
1/2-x,1/2-y,z
1/2+x,1/2-y,-z
1/2-x,1/2+y,-z
1/2-x,1/2-y,-z
1/2+x,1/2+y,-z
1/2-x,1/2+y,z
1/2+x,1/2-y,z
loop_
_atom_site_type_symbol
_atom_site_label
_atom_site_fract_x
_atom_site_fract_y
_atom_site_fract_z
Si Si1 0.332648 0.133798 0.649726
Si Si2 0.656400 0.709465 0.584618
Si Si3 0.163157 0.054408 0.414129
Si Si4 0.340323 0.448560 0.088416
Si Si5 0.664374 0.797025 0.216768
Si Si6 0.165637 0.639132 0.084511
O O1 0.500000 0.132376 0.632747
O O2 0.246101 0.161766 0.586446
O O3 0.266582 0.081693 0.643749
O O4 0.298613 0.160320 0.727031
O O5 0.631643 0.724104 0.500000
O O6 0.500000 0.705385 0.623089
O O7 0.750000 0.750000 0.625539
O O8 0.207335 0.063563 0.500000
O O9 0.000000 0.070341 0.401995
O O10 0.180647 0.000000 0.394501
O O11 0.500000 0.439180 0.116930
O O12 0.288352 0.500000 0.117016
O O13 0.240694 0.407104 0.118544
O O14 0.336114 0.448403 0.000000
O O15 0.500000 0.783711 0.222609
O O16 0.750000 0.750000 0.234216
O O17 0.704629 0.815863 0.134516
O O18 0.000000 0.627935 0.088682
O O19 0.214729 0.650118 0.000000
#
# Coordination Sequence:
#
# PCOD8270570 Si02
#       6
#    16  16  16  16  16  16
#     4  11  22  35  53  77 107 141 176 215 261 316
#     4  10  20  33  50  74 104 136 172 214 256 300
#     4   9  19  37  60  85 113 145 182 223 263 305
#     4   8  14  26  46  74 106 134 161 199 248 303
#     4  10  23  40  55  76 105 137 176 223 275 328
#     4   9  18  34  55  77 102 134 176 225 275 329
#
# _framework density 19.932126
#
# number of rings (size 3 to 8) (size 9 to 14) (size 15 to 20)
#    0.000    2.500    0.000    3.000    0.000    7.667 
#    0.000    3.333    0.000    5.000    0.000    0.000 
#    0.000    0.000    0.000    0.000    0.000    0.000 
#
# Total GULP energy -594915.665120 kJ/mol
# GULP energy per Si atom -12394.076357 kJ/mol
# Density = 1.988676 g / cm^3
# Si number density = 19.932126 Si / 1000 Ang^3
#
#
#
# Elastic Constant Matrix: (Units=GPa)
#
#
# Indices 1 2 3 4 5 6 
#
# 1 119.1077 72.0130 42.4744 0.0000 0.0000 0.0000
# 2 72.0130 119.2417 46.1671 0.0000 0.0000 0.0000
# 3 42.4744 46.1671 66.4196 0.0000 0.0000 0.0000
# 4 0.0000 0.0000 0.0000 20.7858 0.0000 0.0000
# 5 0.0000 0.0000 0.0000 0.0000 17.9048 0.0000
# 6 0.0000 0.0000 0.0000 0.0000 0.0000 40.8416
#
#
#
# Elastic Compliance Matrix: (Units=1/GPa)
#
#
# Indices 1 2 3 4 5 6 
#
# 1 0.014039 -0.006845 -0.004220 0.000000 0.000000 0.000000
# 2 -0.006845 0.014811 -0.005918 0.000000 0.000000 0.000000
# 3 -0.004220 -0.005918 0.021868 0.000000 0.000000 0.000000
# 4 0.000000 0.000000 0.000000 0.048110 0.000000 0.000000
# 5 0.000000 0.000000 0.000000 0.000000 0.055851 0.000000
# 6 0.000000 0.000000 0.000000 0.000000 0.000000 0.024485
#
#
# Mechanical properties :
#
#
# Convention : Reuss Voigt Hill
#
# Bulk Modulus (GPa) = 59.69182 69.56422 64.62802
# Shear Modulus (GPa) = 22.86094 25.51406 24.18750
#
# Velocity S-wave (km/s) = 3.39032 3.58166 3.48730
# Velocity P-wave (km/s) = 6.73337 7.21669 6.97922
#
# Compressibility (1/GPa) = 0.01675272
#
# Stress axis : x y z
#
# Youngs Moduli (GPa) = 71.23057 67.51653 45.72876
#
# Poissons Ratio (x) = 0.46212 0.19298
# Poissons Ratio (y) = 0.48754 0.27062
# Poissons Ratio (z) = 0.30061 0.39956
#
# Static dielectric constant tensor:
#      x y z
#    x 3.790480 0.000000 0.000000 
#    y 0.000000 3.758000 0.000000 
#    z 0.000000 0.000000 3.413250 
# 
# 
# High freq. dielectric constant tensor:
#      x y z
#    x 1.778120 0.000000 0.000000 
#    y 0.000000 1.779670 0.000000 
#    z 0.000000 0.000000 1.748870 
# 
# From -- ./inp_files/60233.got.cif
#   From: 2010.03.12/outbox.cif.g09.slc.cpg/sg65_31_cif.got.tgz:60233.got - 2010.04.10 20:52:16.
