data_PCOD8270937
_publ_section_title
;
Structure prediction by ZEFSAII (Michael W. Deem and Ramdas Pophale) SiO2 
 PCOD8270937
Probable space group: C M M M
;
_chemical_formula_sum "Si O2"
_cell_formula_units_Z 64
_cell_length_a 15.231246
_cell_length_b 18.471378
_cell_length_c 13.541499
_cell_angle_alpha 90.000000
_cell_angle_beta 90.000000
_cell_angle_gamma 90.000000
_cell_volume 3809.793797
_symmetry_space_group_name_H-M "C M M M"
_symmetry_group_IT_number 65
_symmetry_cell_setting 'orthorhombic'
loop_
_space_group_symop_operation_xyz
x,y,z
-x,-y,z
x,-y,-z
-x,y,-z
-x,-y,-z
x,y,-z
-x,y,z
x,-y,z
1/2+x,1/2+y,z
1/2-x,1/2-y,z
1/2+x,1/2-y,-z
1/2-x,1/2+y,-z
1/2-x,1/2-y,-z
1/2+x,1/2+y,-z
1/2-x,1/2+y,z
1/2+x,1/2-y,z
loop_
_atom_site_type_symbol
_atom_site_label
_atom_site_fract_x
_atom_site_fract_y
_atom_site_fract_z
Si Si1 0.899246 0.340500 0.615427
Si Si2 0.692750 0.678733 0.109632
Si Si3 0.900810 0.185860 0.701515
Si Si4 0.751660 0.915412 0.724912
O O1 0.882597 0.349169 0.500000
O O2 0.873177 0.259632 0.647593
O O3 0.840234 0.398763 0.672208
O O4 0.000000 0.356569 0.643444
O O5 0.750000 0.750000 0.101783
O O6 0.608266 0.695583 0.179142
O O7 0.749852 0.615040 0.162351
O O8 0.663086 0.653733 0.000000
O O9 0.832303 0.123883 0.665959
O O10 0.000000 0.163192 0.674456
O O11 0.769513 0.000000 0.725678
#
# Coordination Sequence:
#
# PCOD8270937 Si02
#       4
#    16  16  16  16
#     4  10  20  36  58  78  98 132 179 226 266 308
#     4   9  17  33  53  77 105 137 179 217 254 303
#     4   9  18  34  53  78 105 136 178 214 253 304
#     4  10  20  34  50  76 111 140 166 210 263 313
#
# _framework density 16.798808999999999
#
# number of rings (size 3 to 8) (size 9 to 14) (size 15 to 20)
#    1.500    1.000    2.500    0.750    0.000    4.500 
#    0.000    1.250    0.000    2.250    0.000    7.000 
#    0.000    0.000    0.000    0.000    0.000    0.000 
#
# Total GULP energy -396467.335743 kJ/mol
# GULP energy per Si atom -12389.604242 kJ/mol
# Density = 1.676057 g / cm^3
# Si number density = 16.798809 Si / 1000 Ang^3
#
#
#
# Elastic Constant Matrix: (Units=GPa)
#
#
# Indices 1 2 3 4 5 6 
#
# 1 63.7387 25.1824 6.1541 0.0000 0.0000 0.0000
# 2 25.1824 85.1589 -0.2282 0.0000 0.0000 0.0000
# 3 6.1541 -0.2282 37.1244 0.0000 0.0000 0.0000
# 4 0.0000 0.0000 0.0000 -3.2326 0.0000 0.0000
# 5 0.0000 0.0000 0.0000 0.0000 21.2014 0.0000
# 6 0.0000 0.0000 0.0000 0.0000 0.0000 19.4872
#
#
#
# Elastic Compliance Matrix: (Units=1/GPa)
#
#
# Indices 1 2 3 4 5 6 
#
# 1 0.018100 -0.005360 -0.003033 0.000000 0.000000 0.000000
# 2 -0.005360 0.013330 0.000971 0.000000 0.000000 0.000000
# 3 -0.003033 0.000971 0.027445 0.000000 0.000000 0.000000
# 4 0.000000 0.000000 0.000000 -0.309353 0.000000 0.000000
# 5 0.000000 0.000000 0.000000 0.000000 0.047167 0.000000
# 6 0.000000 0.000000 0.000000 0.000000 0.000000 0.051316
#
#
# Mechanical properties :
#
#
# Convention : Reuss Voigt Hill
#
# Bulk Modulus (GPa) = 22.71227 27.58207 25.14717
# Shear Modulus (GPa) = -40.82569 17.81880 -11.50344
#
# Velocity S-wave (km/s) = -4.93513 3.26040 -2.61966
# Velocity P-wave (km/s) = 4.35023 5.53429 2.41908
#
# Compressibility (1/GPa) = 0.04402907
#
# Stress axis : x y z
#
# Youngs Moduli (GPa) = 55.24931 75.01602 36.43615
#
# Poissons Ratio (x) = 0.40212 0.11052
# Poissons Ratio (y) = 0.29616 -0.03536
# Poissons Ratio (z) = 0.16759 -0.07280
#
# Static dielectric constant tensor:
#      x y z
#    x 3.041390 0.000000 0.000000 
#    y 0.000000 2.885930 0.000000 
#    z 0.000000 0.000000 3.268380 
# 
# 
# High freq. dielectric constant tensor:
#      x y z
#    x 1.641320 0.000000 0.000000 
#    y 0.000000 1.631320 0.000000 
#    z 0.000000 0.000000 1.639890 
# 
# From -- ./inp_files/39648.got.cif
#   From: 2010.03.12/outbox.cif.g09.slc.cpg/sg65_20_cif.got.tgz:39648.got - 2010.04.10 20:52:16.
