data_PCOD8270618
_publ_section_title
;
Structure prediction by ZEFSAII (Michael W. Deem and Ramdas Pophale) SiO2 
 PCOD8270618
Probable space group: C M M M
;
_chemical_formula_sum "Si O2"
_cell_formula_units_Z 120
_cell_length_a 26.254148
_cell_length_b 27.918640
_cell_length_c 9.141752
_cell_angle_alpha 90.000000
_cell_angle_beta 90.000000
_cell_angle_gamma 90.000000
_cell_volume 6700.722355
_symmetry_space_group_name_H-M "C M M M"
_symmetry_group_IT_number 65
_symmetry_cell_setting 'orthorhombic'
loop_
_space_group_symop_operation_xyz
x,y,z
-x,-y,z
x,-y,-z
-x,y,-z
-x,-y,-z
x,y,-z
-x,y,z
x,-y,z
1/2+x,1/2+y,z
1/2-x,1/2-y,z
1/2+x,1/2-y,-z
1/2-x,1/2+y,-z
1/2-x,1/2-y,-z
1/2+x,1/2+y,-z
1/2-x,1/2+y,z
1/2+x,1/2-y,z
loop_
_atom_site_type_symbol
_atom_site_label
_atom_site_fract_x
_atom_site_fract_y
_atom_site_fract_z
Si Si1 0.236362 0.196755 0.669681
Si Si2 0.557408 0.302364 0.167147
Si Si3 0.196321 0.392089 0.667599
Si Si4 0.500000 0.053869 0.826299
Si Si5 0.404234 0.884432 0.826517
Si Si6 0.701711 0.445575 0.671071
Si Si7 0.559483 0.207125 0.668576
Si Si8 0.846873 0.861997 0.169311
O O1 0.220309 0.195964 0.500000
O O2 0.250000 0.250000 0.722861
O O3 0.284817 0.162268 0.695682
O O4 0.188582 0.178875 0.762203
O O5 0.500000 0.319213 0.204518
O O6 0.574458 0.259015 0.270958
O O7 0.594475 0.347178 0.194322
O O8 0.561190 0.284261 0.000000
O O9 0.179264 0.398856 0.500000
O O10 0.149285 0.405700 0.771652
O O11 0.241359 0.428563 0.709206
O O12 0.550314 0.081303 0.770133
O O13 0.500000 0.000000 0.761862
O O14 0.500000 0.052245 0.000000
O O15 0.409513 0.832079 0.757934
O O16 0.404463 0.880233 0.000000
O O17 0.691346 0.439175 0.500000
O O18 0.694892 0.500000 0.722702
O O19 0.660688 0.413391 0.755467
O O20 0.575838 0.204362 0.500000
O O21 0.500000 0.197244 0.691238
O O22 0.832902 0.866650 0.000000
#
# Coordination Sequence:
#
# PCOD8270618 Si02
#       8
#    16  16  16   8  16  16  16  16
#     4   9  19  35  52  72 104 147 181 212 262 319
#     4   9  19  35  53  77 112 148 179 211 256 313
#     4   9  19  34  51  76 105 133 172 219 262 313
#     4   9  20  38  55  71  95 133 177 217 264 321
#     4  11  21  34  53  74 102 137 172 218 270 321
#     4   9  19  38  61  80 103 139 177 216 268 325
#     4  10  20  33  51  74 101 136 179 221 257 302
#     4  10  20  33  53  83 111 138 175 222 264 307
#
# _framework density 17.908515999999999
#
# number of rings (size 3 to 8) (size 9 to 14) (size 15 to 20)
#    0.000    2.467    0.667    2.000    1.867    4.800 
#    0.000    0.000    0.000    3.200    0.000    2.800 
#    0.000    0.000    0.000    0.000    0.000    0.000 
#
# Total GULP energy -744126.860841 kJ/mol
# GULP energy per Si atom -12402.114347 kJ/mol
# Density = 1.786776 g / cm^3
# Si number density = 17.908516 Si / 1000 Ang^3
#
#
#
# Elastic Constant Matrix: (Units=GPa)
#
#
# Indices 1 2 3 4 5 6 
#
# 1 99.3190 60.5984 47.1105 0.0000 0.0000 0.0000
# 2 60.5984 137.4626 49.5355 0.0000 0.0000 0.0000
# 3 47.1105 49.5355 77.8483 0.0000 0.0000 0.0000
# 4 0.0000 0.0000 0.0000 22.6843 0.0000 0.0000
# 5 0.0000 0.0000 0.0000 0.0000 28.0805 0.0000
# 6 0.0000 0.0000 0.0000 0.0000 0.0000 18.2629
#
#
#
# Elastic Compliance Matrix: (Units=1/GPa)
#
#
# Indices 1 2 3 4 5 6 
#
# 1 0.016140 -0.004665 -0.006799 0.000000 0.000000 0.000000
# 2 -0.004665 0.010787 -0.004041 0.000000 0.000000 0.000000
# 3 -0.006799 -0.004041 0.019531 0.000000 0.000000 0.000000
# 4 0.000000 0.000000 0.000000 0.044083 0.000000 0.000000
# 5 0.000000 0.000000 0.000000 0.000000 0.035612 0.000000
# 6 0.000000 0.000000 0.000000 0.000000 0.000000 0.054756
#
#
# Mechanical properties :
#
#
# Convention : Reuss Voigt Hill
#
# Bulk Modulus (GPa) = 64.73012 69.90207 67.31610
# Shear Modulus (GPa) = 23.03420 24.29791 23.66605
#
# Velocity S-wave (km/s) = 3.59027 3.68744 3.63918
# Velocity P-wave (km/s) = 7.30822 7.56619 7.43833
#
# Compressibility (1/GPa) = 0.01544876
#
# Stress axis : x y z
#
# Youngs Moduli (GPa) = 61.95888 92.70040 51.20030
#
# Poissons Ratio (x) = 0.43245 0.34810
# Poissons Ratio (y) = 0.28904 0.20690
# Poissons Ratio (z) = 0.42124 0.37461
#
# Static dielectric constant tensor:
#      x y z
#    x 3.280050 0.000000 0.000000 
#    y 0.000000 3.318870 0.000000 
#    z 0.000000 0.000000 3.271290 
# 
# 
# High freq. dielectric constant tensor:
#      x y z
#    x 1.687930 0.000000 0.000000 
#    y 0.000000 1.683520 0.000000 
#    z 0.000000 0.000000 1.690390 
# 
# From -- ./inp_files/17086.got.cif
#   From: 2010.03.12/outbox.cif.g09.slc.cpg/sg65_9_cif.got.tgz:17086.got - 2010.04.10 20:52:16.
