data_PCOD8270219
_publ_section_title
;
Structure prediction by ZEFSAII (Michael W. Deem and Ramdas Pophale) SiO2 
 PCOD8270219
Probable space group: C M M M
;
_chemical_formula_sum "Si O2"
_cell_formula_units_Z 120
_cell_length_a 27.523324
_cell_length_b 9.057968
_cell_length_c 26.180823
_cell_angle_alpha 90.000000
_cell_angle_beta 90.000000
_cell_angle_gamma 90.000000
_cell_volume 6527.020237
_symmetry_space_group_name_H-M "C M M M"
_symmetry_group_IT_number 65
_symmetry_cell_setting 'orthorhombic'
loop_
_space_group_symop_operation_xyz
x,y,z
-x,-y,z
x,-y,-z
-x,y,-z
-x,-y,-z
x,y,-z
-x,y,z
x,-y,z
1/2+x,1/2+y,z
1/2-x,1/2-y,z
1/2+x,1/2-y,-z
1/2-x,1/2+y,-z
1/2-x,1/2-y,-z
1/2+x,1/2+y,-z
1/2-x,1/2+y,z
1/2+x,1/2-y,z
loop_
_atom_site_type_symbol
_atom_site_label
_atom_site_fract_x
_atom_site_fract_y
_atom_site_fract_z
Si Si1 0.945848 0.671261 0.759879
Si Si2 0.602877 0.326775 0.850996
Si Si3 0.200815 0.826761 0.204251
Si Si4 0.801574 0.175231 0.500000
Si Si5 0.055502 0.671722 0.941509
Si Si6 0.356050 0.170349 0.590425
Si Si7 0.944779 0.167012 0.559487
Si Si8 0.651051 0.169799 0.706318
O O1 0.943167 0.500000 0.774269
O O2 0.935605 0.759708 0.811559
O O3 0.905520 0.711747 0.717138
O O4 0.000000 0.712908 0.739684
O O5 0.595323 0.500000 0.851295
O O6 0.657870 0.284680 0.834987
O O7 0.592686 0.263831 0.907061
O O8 0.250000 0.750000 0.184733
O O9 0.187036 0.770289 0.260782
O O10 0.209609 0.000000 0.207419
O O11 0.750000 0.250000 0.500000
O O12 0.828472 0.224415 0.448705
O O13 0.796689 0.000000 0.500000
O O14 0.062469 0.500000 0.929633
O O15 0.000000 0.718745 0.930091
O O16 0.068631 0.706777 0.000000
O O17 0.412519 0.216365 0.590381
O O18 0.336015 0.197153 0.647247
O O19 0.350560 0.000000 0.573987
O O20 0.931563 0.177384 0.500000
O O21 0.000000 0.212969 0.569367
O O22 0.935102 0.000000 0.578546
O O23 0.660239 0.000000 0.721323
#
# Coordination Sequence:
#
# PCOD8270219 Si02
#       8
#    16  16  16   8  16  16  16  16
#     4   9  17  31  51  74 104 143 180 210 246 298
#     4  10  20  32  49  77 108 138 176 222 269 312
#     4  10  21  37  57  79 103 133 173 220 268 320
#     4  12  26  44  63  80 101 130 166 207 255 313
#     4   9  18  32  50  75 109 149 189 222 255 303
#     4  11  22  37  58  84 110 135 169 212 259 310
#     4   9  18  33  53  77 106 141 176 207 246 297
#     4   9  20  36  54  78 108 138 168 208 257 309
#
# _framework density 18.385113
#
# number of rings (size 3 to 8) (size 9 to 14) (size 15 to 20)
#    0.000    2.267    0.667    3.000    0.000    6.400 
#    0.000    2.667    0.000    0.400    0.000    0.000 
#    0.000    0.000    0.000    0.000    0.000    0.000 
#
# Total GULP energy -744049.068117 kJ/mol
# GULP energy per Si atom -12400.817802 kJ/mol
# Density = 1.834327 g / cm^3
# Si number density = 18.385113 Si / 1000 Ang^3
#
#
#
# Elastic Constant Matrix: (Units=GPa)
#
#
# Indices 1 2 3 4 5 6 
#
# 1 99.9190 47.2785 41.0978 0.0000 0.0000 0.0000
# 2 47.2785 86.7421 44.8655 0.0000 0.0000 0.0000
# 3 41.0978 44.8655 91.1876 0.0000 0.0000 0.0000
# 4 0.0000 0.0000 0.0000 22.4062 0.0000 0.0000
# 5 0.0000 0.0000 0.0000 0.0000 16.4257 0.0000
# 6 0.0000 0.0000 0.0000 0.0000 0.0000 33.5509
#
#
#
# Elastic Compliance Matrix: (Units=1/GPa)
#
#
# Indices 1 2 3 4 5 6 
#
# 1 0.014270 -0.005971 -0.003494 0.000000 0.000000 0.000000
# 2 -0.005971 0.017962 -0.006146 0.000000 0.000000 0.000000
# 3 -0.003494 -0.006146 0.015565 0.000000 0.000000 0.000000
# 4 0.000000 0.000000 0.000000 0.044631 0.000000 0.000000
# 5 0.000000 0.000000 0.000000 0.000000 0.060880 0.000000
# 6 0.000000 0.000000 0.000000 0.000000 0.000000 0.029806
#
#
# Mechanical properties :
#
#
# Convention : Reuss Voigt Hill
#
# Bulk Modulus (GPa) = 60.33128 60.48136 60.40632
# Shear Modulus (GPa) = 22.74162 24.11702 23.42932
#
# Velocity S-wave (km/s) = 3.52086 3.62576 3.57370
# Velocity P-wave (km/s) = 7.02959 7.10609 7.06794
#
# Compressibility (1/GPa) = 0.01657515
#
# Stress axis : x y z
#
# Youngs Moduli (GPa) = 70.07506 55.67306 64.24588
#
# Poissons Ratio (x) = 0.33242 0.22446
# Poissons Ratio (y) = 0.41841 0.39489
# Poissons Ratio (z) = 0.24483 0.34219
#
# Static dielectric constant tensor:
#      x y z
#    x 3.528810 0.000000 0.000000 
#    y 0.000000 3.366790 0.000000 
#    z 0.000000 0.000000 3.237920 
# 
# 
# High freq. dielectric constant tensor:
#      x y z
#    x 1.711380 0.000000 0.000000 
#    y 0.000000 1.716040 0.000000 
#    z 0.000000 0.000000 1.697760 
# 
# From -- ./inp_files/76099.got.cif
#   From: 2010.03.12/outbox.cif.g09.slc.cpg/sg65_39_cif.got.tgz:76099.got - 2010.04.10 20:52:16.
