data_PCOD8270885
_publ_section_title
;
Structure prediction by ZEFSAII (Michael W. Deem and Ramdas Pophale) SiO2 
 PCOD8270885
Probable space group: C M M M
;
_chemical_formula_sum "Si O2"
_cell_formula_units_Z 84
_cell_length_a 14.976646
_cell_length_b 26.375144
_cell_length_c 11.486121
_cell_angle_alpha 90.000000
_cell_angle_beta 90.000000
_cell_angle_gamma 90.000000
_cell_volume 4537.146381
_symmetry_space_group_name_H-M "C M M M"
_symmetry_group_IT_number 65
_symmetry_cell_setting 'orthorhombic'
loop_
_space_group_symop_operation_xyz
x,y,z
-x,-y,z
x,-y,-z
-x,y,-z
-x,-y,-z
x,y,-z
-x,y,z
x,-y,z
1/2+x,1/2+y,z
1/2-x,1/2-y,z
1/2+x,1/2-y,-z
1/2-x,1/2+y,-z
1/2-x,1/2-y,-z
1/2+x,1/2+y,-z
1/2-x,1/2+y,z
1/2+x,1/2-y,z
loop_
_atom_site_type_symbol
_atom_site_label
_atom_site_fract_x
_atom_site_fract_y
_atom_site_fract_z
Si Si1 0.676420 0.888720 0.865922
Si Si2 0.500000 0.329557 0.500000
Si Si3 0.858129 0.941995 0.133360
Si Si4 0.000000 0.125909 0.746025
Si Si5 0.663830 0.785407 0.748603
Si Si6 0.000000 0.234201 0.134849
Si Si7 0.855276 0.742980 0.500000
Si Si8 0.500000 0.056195 0.861726
O O1 0.754068 0.929919 0.851903
O O2 0.697393 0.840419 0.786667
O O3 0.586582 0.914044 0.817692
O O4 0.666677 0.871473 0.000000
O O5 0.500000 0.367916 0.607899
O O6 0.410360 0.295493 0.500000
O O7 0.912772 0.904666 0.215655
O O8 0.875094 0.000000 0.170694
O O9 0.888597 0.933505 0.000000
O O10 0.000000 0.181889 0.797304
O O11 0.750000 0.750000 0.753790
O O12 0.587999 0.766289 0.836233
O O13 0.621311 0.787405 0.618292
O O14 0.000000 0.221268 0.000000
O O15 0.750000 0.750000 0.500000
O O16 0.500000 0.000000 0.807127
O O17 0.500000 0.052243 0.000000
#
# Coordination Sequence:
#
# PCOD8270885 Si02
#       8
#    16   4  16   8  16   8   8   8
#     4  10  20  33  54  86 119 152 189 233 291 346
#     4  12  24  44  61  86 114 156 197 248 288 348
#     4  10  21  38  59  85 118 155 197 243 294 355
#     4  12  23  38  60  82 112 152 196 241 290 349
#     4  11  22  37  56  82 116 150 194 234 279 344
#     4  12  23  35  55  84 119 153 184 236 294 348
#     4  10  22  40  62  80 112 159 201 235 283 334
#     4   9  17  32  53  78 111 148 186 229 277 334
#
# _framework density 18.513840999999999
#
# number of rings (size 3 to 8) (size 9 to 14) (size 15 to 20)
#    0.000    1.429    1.905    4.000    2.667    6.857 
#    0.000    0.952    0.000    0.000    0.000    2.667 
#    0.000    0.000    0.000    0.000    0.000    0.000 
#
# Total GULP energy -520888.353357 kJ/mol
# GULP energy per Si atom -12402.103651 kJ/mol
# Density = 1.847170 g / cm^3
# Si number density = 18.513841 Si / 1000 Ang^3
#
#
#
# Elastic Constant Matrix: (Units=GPa)
#
#
# Indices 1 2 3 4 5 6 
#
# 1 106.6716 25.7775 21.3009 0.0000 0.0000 0.0000
# 2 25.7775 102.1124 34.2646 0.0000 0.0000 0.0000
# 3 21.3009 34.2646 97.2608 0.0000 0.0000 0.0000
# 4 0.0000 0.0000 0.0000 4.0879 0.0000 0.0000
# 5 0.0000 0.0000 0.0000 0.0000 -27.7515 0.0000
# 6 0.0000 0.0000 0.0000 0.0000 0.0000 49.3302
#
#
#
# Elastic Compliance Matrix: (Units=1/GPa)
#
#
# Indices 1 2 3 4 5 6 
#
# 1 0.010173 -0.002065 -0.001501 0.000000 0.000000 0.000000
# 2 -0.002065 0.011525 -0.003608 0.000000 0.000000 0.000000
# 3 -0.001501 -0.003608 0.011881 0.000000 0.000000 0.000000
# 4 0.000000 0.000000 0.000000 0.244622 0.000000 0.000000
# 5 0.000000 0.000000 0.000000 0.000000 -0.036034 0.000000
# 6 0.000000 0.000000 0.000000 0.000000 0.000000 0.020272
#
#
# Mechanical properties :
#
#
# Convention : Reuss Voigt Hill
#
# Bulk Modulus (GPa) = 51.99403 52.08119 52.03761
# Shear Modulus (GPa) = 17.65559 20.11345 18.88452
#
# Velocity S-wave (km/s) = 3.09146 3.29963 3.19724
# Velocity P-wave (km/s) = 6.39435 6.53520 6.46516
#
# Compressibility (1/GPa) = 0.01923298
#
# Stress axis : x y z
#
# Youngs Moduli (GPa) = 98.29805 86.76765 84.16519
#
# Poissons Ratio (x) = 0.17914 0.12630
# Poissons Ratio (y) = 0.20294 0.30367
# Poissons Ratio (z) = 0.14751 0.31306
#
# Static dielectric constant tensor:
#      x y z
#    x 3.533420 0.000000 0.000000 
#    y 0.000000 3.400330 0.000000 
#    z 0.000000 0.000000 3.510420 
# 
# 
# High freq. dielectric constant tensor:
#      x y z
#    x 1.737550 0.000000 0.000000 
#    y 0.000000 1.716300 0.000000 
#    z 0.000000 0.000000 1.697450 
# 
# From -- ./inp_files/24911.got.cif
#   From: 2010.03.12/outbox.cif.g09.slc.cpg/sg65_13_cif.got.tgz:24911.got - 2010.04.10 20:52:16.
