data_PCOD8270842
_publ_section_title
;
Structure prediction by ZEFSAII (Michael W. Deem and Ramdas Pophale) SiO2 
 PCOD8270842
Probable space group: C M M M
;
_chemical_formula_sum "Si O2"
_cell_formula_units_Z 56
_cell_length_a 24.340036
_cell_length_b 14.038861
_cell_length_c 8.869469
_cell_angle_alpha 90.000000
_cell_angle_beta 90.000000
_cell_angle_gamma 90.000000
_cell_volume 3030.754163
_symmetry_space_group_name_H-M "C M M M"
_symmetry_group_IT_number 65
_symmetry_cell_setting 'orthorhombic'
loop_
_space_group_symop_operation_xyz
x,y,z
-x,-y,z
x,-y,-z
-x,y,-z
-x,-y,-z
x,y,-z
-x,y,z
x,-y,z
1/2+x,1/2+y,z
1/2-x,1/2-y,z
1/2+x,1/2-y,-z
1/2-x,1/2+y,-z
1/2-x,1/2-y,-z
1/2+x,1/2+y,-z
1/2-x,1/2+y,z
1/2+x,1/2-y,z
loop_
_atom_site_type_symbol
_atom_site_label
_atom_site_fract_x
_atom_site_fract_y
_atom_site_fract_z
Si Si1 0.671823 0.226198 0.676574
Si Si2 0.435022 0.500000 0.834194
Si Si3 0.240493 0.890036 0.823000
Si Si4 0.061034 0.809794 0.675203
O O1 0.684232 0.214294 0.500000
O O2 0.698029 0.138211 0.767866
O O3 0.697498 0.325940 0.732031
O O4 0.605920 0.227455 0.707816
O O5 0.500000 0.500000 0.843606
O O6 0.415519 0.594755 0.750967
O O7 0.407951 0.500000 0.000000
O O8 0.229110 0.000000 0.785306
O O9 0.235492 0.869290 0.000000
O O10 0.057306 0.832558 0.500000
O O11 0.000000 0.780148 0.735701
#
# Coordination Sequence:
#
# PCOD8270842 Si02
#       4
#    16   8  16  16
#     4  10  20  33  53  78 100 129 168 207 245 292
#     4   9  17  27  41  65  95 129 167 199 232 281
#     4  10  21  36  53  73 100 133 164 204 255 298
#     4   9  18  32  48  69 100 133 163 199 246 295
#
# _framework density 18.477247999999999
#
# number of rings (size 3 to 8) (size 9 to 14) (size 15 to 20)
#    0.000    2.429    0.000    3.857    2.000    6.286 
#    0.000    0.000    0.000    0.857    0.000    6.000 
#    0.000    0.000    0.000    0.000    0.000    0.000 
#
# Total GULP energy -347032.318383 kJ/mol
# GULP energy per Si atom -12394.011371 kJ/mol
# Density = 1.843519 g / cm^3
# Si number density = 18.477248 Si / 1000 Ang^3
#
#
#
# Elastic Constant Matrix: (Units=GPa)
#
#
# Indices 1 2 3 4 5 6 
#
# 1 73.8870 -1.0019 10.1432 0.0000 0.0000 0.0000
# 2 -1.0019 45.1945 9.5497 0.0000 0.0000 0.0000
# 3 10.1432 9.5497 52.9039 0.0000 0.0000 0.0000
# 4 0.0000 0.0000 0.0000 26.8961 0.0000 0.0000
# 5 0.0000 0.0000 0.0000 0.0000 13.9664 0.0000
# 6 0.0000 0.0000 0.0000 0.0000 0.0000 22.1902
#
#
#
# Elastic Compliance Matrix: (Units=1/GPa)
#
#
# Indices 1 2 3 4 5 6 
#
# 1 0.013936 0.000908 -0.002836 0.000000 0.000000 0.000000
# 2 0.000908 0.023063 -0.004337 0.000000 0.000000 0.000000
# 3 -0.002836 -0.004337 0.020229 0.000000 0.000000 0.000000
# 4 0.000000 0.000000 0.000000 0.037180 0.000000 0.000000
# 5 0.000000 0.000000 0.000000 0.000000 0.071600 0.000000
# 6 0.000000 0.000000 0.000000 0.000000 0.000000 0.045065
#
#
# Mechanical properties :
#
#
# Convention : Reuss Voigt Hill
#
# Bulk Modulus (GPa) = 22.37242 23.26307 22.81774
# Shear Modulus (GPa) = 20.96416 22.83017 21.89716
#
# Velocity S-wave (km/s) = 3.37203 3.51890 3.44625
# Velocity P-wave (km/s) = 5.22447 5.39700 5.31144
#
# Compressibility (1/GPa) = 0.04469790
#
# Stress axis : x y z
#
# Youngs Moduli (GPa) = 71.75761 43.35915 49.43442
#
# Poissons Ratio (x) = -0.03938 0.14019
# Poissons Ratio (y) = -0.06517 0.21441
# Poissons Ratio (z) = 0.20349 0.18806
#
# Static dielectric constant tensor:
#      x y z
#    x 3.693080 0.000000 0.000000 
#    y 0.000000 3.182210 0.000000 
#    z 0.000000 0.000000 3.535550 
# 
# 
# High freq. dielectric constant tensor:
#      x y z
#    x 1.723000 0.000000 0.000000 
#    y 0.000000 1.677110 0.000000 
#    z 0.000000 0.000000 1.726030 
# 
# From -- ./inp_files/6541.got.cif
#   From: 2010.03.12/outbox.cif.g09.slc.cpg/sg65_4_cif.got.tgz:6541.got - 2010.04.10 20:52:16.
