data_PCOD8270946
_publ_section_title
;
Structure prediction by ZEFSAII (Michael W. Deem and Ramdas Pophale) SiO2 
 PCOD8270946
Probable space group: C M M M
;
_chemical_formula_sum "Si O2"
_cell_formula_units_Z 104
_cell_length_a 30.286588
_cell_length_b 9.286897
_cell_length_c 22.929840
_cell_angle_alpha 90.000000
_cell_angle_beta 90.000000
_cell_angle_gamma 90.000000
_cell_volume 6449.439942
_symmetry_space_group_name_H-M "C M M M"
_symmetry_group_IT_number 65
_symmetry_cell_setting 'orthorhombic'
loop_
_space_group_symop_operation_xyz
x,y,z
-x,-y,z
x,-y,-z
-x,y,-z
-x,-y,-z
x,y,-z
-x,y,z
x,-y,z
1/2+x,1/2+y,z
1/2-x,1/2-y,z
1/2+x,1/2-y,-z
1/2-x,1/2+y,-z
1/2-x,1/2-y,-z
1/2+x,1/2+y,-z
1/2-x,1/2+y,z
1/2+x,1/2-y,z
loop_
_atom_site_type_symbol
_atom_site_label
_atom_site_fract_x
_atom_site_fract_y
_atom_site_fract_z
Si Si1 0.947701 0.160976 0.936111
Si Si2 0.376106 0.836612 0.732363
Si Si3 0.205963 0.828730 0.311160
Si Si4 0.328134 0.333821 0.564034
Si Si5 0.449466 0.829841 0.824086
Si Si6 0.000000 0.670658 0.565745
Si Si7 0.908129 0.662098 0.397236
O O1 0.931757 0.267754 0.885466
O O2 0.000000 0.160174 0.937928
O O3 0.930206 0.000000 0.922669
O O4 0.929949 0.211712 0.000000
O O5 0.333729 0.731309 0.729341
O O6 0.413730 0.777563 0.776336
O O7 0.398500 0.835052 0.670289
O O8 0.361291 0.000000 0.748800
O O9 0.250000 0.750000 0.289037
O O10 0.200811 0.785698 0.379984
O O11 0.209614 0.000000 0.302566
O O12 0.305336 0.304939 0.500000
O O13 0.339555 0.500000 0.571478
O O14 0.373970 0.250375 0.564201
O O15 0.500000 0.777227 0.809478
O O16 0.449384 0.000000 0.828691
O O17 0.043719 0.733474 0.595982
O O18 0.000000 0.500000 0.572616
O O19 0.000000 0.722931 0.500000
O O20 0.907022 0.500000 0.422108
#
# Coordination Sequence:
#
# PCOD8270946 Si02
#       7
#    16  16  16  16  16   8  16
#     4   8  14  25  40  59  87 124 162 195 226 259
#     4   9  18  31  46  65  90 119 150 184 224 266
#     4  10  20  34  51  68  87 111 142 180 227 278
#     4   9  18  32  47  63  85 109 133 169 220 275
#     4   9  17  27  42  66  95 126 159 192 224 260
#     4   9  16  24  37  59  81 103 140 185 220 252
#     4   9  17  28  43  60  81 111 145 182 219 258
#
# _framework density 16.125430000000001
#
# number of rings (size 3 to 8) (size 9 to 14) (size 15 to 20)
#    0.000    3.000    0.000    1.385    1.077    2.769 
#    0.000    1.923    0.000    1.385    0.000    0.000 
#    0.000    0.615    0.000    2.000    0.000    2.923 
#
# Total GULP energy -644285.014710 kJ/mol
# GULP energy per Si atom -12390.096437 kJ/mol
# Density = 1.608873 g / cm^3
# Si number density = 16.125430 Si / 1000 Ang^3
#
#
#
# Elastic Constant Matrix: (Units=GPa)
#
#
# Indices 1 2 3 4 5 6 
#
# 1 96.3166 37.6410 32.1756 0.0000 0.0000 0.0000
# 2 37.6410 41.4278 24.8473 0.0000 0.0000 0.0000
# 3 32.1756 24.8473 70.8966 0.0000 0.0000 0.0000
# 4 0.0000 0.0000 0.0000 22.5978 0.0000 0.0000
# 5 0.0000 0.0000 0.0000 0.0000 11.2467 0.0000
# 6 0.0000 0.0000 0.0000 0.0000 0.0000 15.7797
#
#
#
# Elastic Compliance Matrix: (Units=1/GPa)
#
#
# Indices 1 2 3 4 5 6 
#
# 1 0.016537 -0.013325 -0.002835 0.000000 0.000000 0.000000
# 2 -0.013325 0.041300 -0.008427 0.000000 0.000000 0.000000
# 3 -0.002835 -0.008427 0.018345 0.000000 0.000000 0.000000
# 4 0.000000 0.000000 0.000000 0.044252 0.000000 0.000000
# 5 0.000000 0.000000 0.000000 0.000000 0.088915 0.000000
# 6 0.000000 0.000000 0.000000 0.000000 0.000000 0.063373
#
#
# Mechanical properties :
#
#
# Convention : Reuss Voigt Hill
#
# Bulk Modulus (GPa) = 37.02652 44.21875 40.62263
# Shear Modulus (GPa) = 15.11039 17.52331 16.31685
#
# Velocity S-wave (km/s) = 3.06445 3.30007 3.18444
# Velocity P-wave (km/s) = 5.96092 6.48089 6.22633
#
# Compressibility (1/GPa) = 0.02700767
#
# Stress axis : x y z
#
# Youngs Moduli (GPa) = 60.47057 24.21334 54.51036
#
# Poissons Ratio (x) = 0.32264 0.15454
# Poissons Ratio (y) = 0.80577 0.45936
# Poissons Ratio (z) = 0.17144 0.20404
#
# Static dielectric constant tensor:
#      x y z
#    x 2.988310 0.000000 0.000000 
#    y 0.000000 3.056790 0.000000 
#    z 0.000000 0.000000 3.195790 
# 
# 
# High freq. dielectric constant tensor:
#      x y z
#    x 1.596350 0.000000 0.000000 
#    y 0.000000 1.611030 0.000000 
#    z 0.000000 0.000000 1.605690 
# 
# From -- ./inp_files/72158.got.cif
#   From: 2010.03.12/outbox.cif.g09.slc.cpg/sg65_37_cif.got.tgz:72158.got - 2010.04.10 20:52:16.
