data_PCOD8270066
_publ_section_title
;
Structure prediction by ZEFSAII (Michael W. Deem and Ramdas Pophale) SiO2 
 PCOD8270066
Probable space group: C M M M
;
_chemical_formula_sum "Si O2"
_cell_formula_units_Z 104
_cell_length_a 28.976549
_cell_length_b 8.936572
_cell_length_c 22.918433
_cell_angle_alpha 90.000000
_cell_angle_beta 90.000000
_cell_angle_gamma 90.000000
_cell_volume 5934.751521
_symmetry_space_group_name_H-M "C M M M"
_symmetry_group_IT_number 65
_symmetry_cell_setting 'orthorhombic'
loop_
_space_group_symop_operation_xyz
x,y,z
-x,-y,z
x,-y,-z
-x,y,-z
-x,-y,-z
x,y,-z
-x,y,z
x,-y,z
1/2+x,1/2+y,z
1/2-x,1/2-y,z
1/2+x,1/2-y,-z
1/2-x,1/2+y,-z
1/2-x,1/2-y,-z
1/2+x,1/2+y,-z
1/2-x,1/2+y,z
1/2+x,1/2-y,z
loop_
_atom_site_type_symbol
_atom_site_label
_atom_site_fract_x
_atom_site_fract_y
_atom_site_fract_z
Si Si1 0.294545 0.667166 0.569488
Si Si2 0.448820 0.322694 0.214402
Si Si3 0.613613 0.175270 0.433995
Si Si4 0.297895 0.174301 0.068443
Si Si5 0.890612 0.178458 0.104630
Si Si6 0.445540 0.667054 0.342936
Si Si7 0.945431 0.324576 0.000000
O O1 0.292334 0.668256 0.500000
O O2 0.295207 0.500000 0.594478
O O3 0.250000 0.750000 0.595797
O O4 0.340094 0.750863 0.591272
O O5 0.500000 0.256112 0.200553
O O6 0.453031 0.500000 0.214773
O O7 0.411988 0.270269 0.166423
O O8 0.431531 0.271343 0.278638
O O9 0.603039 0.230011 0.500000
O O10 0.571911 0.221625 0.392596
O O11 0.620839 0.000000 0.432631
O O12 0.250000 0.250000 0.087938
O O13 0.339222 0.255542 0.102255
O O14 0.296446 0.000000 0.084977
O O15 0.306518 0.198001 0.000000
O O16 0.888828 0.000000 0.096911
O O17 0.923627 0.247945 0.056195
O O18 0.500000 0.662199 0.347367
O O19 0.425399 0.500000 0.353376
O O20 0.933044 0.500000 0.000000
O O21 0.000000 0.296493 0.000000
#
# Coordination Sequence:
#
# PCOD8270066 Si02
#       7
#    16  16  16  16  16  16   8
#     4   9  16  27  45  69  97 128 161 196 238 291
#     4   8  16  32  53  76 100 129 168 211 251 298
#     4  10  20  32  47  71 103 134 165 205 253 303
#     4  10  20  34  52  74 105 138 172 212 254 301
#     4  11  20  32  54  79 103 133 170 208 254 305
#     4   9  18  34  54  73  96 129 170 213 255 301
#     4  11  23  35  46  69 108 143 169 205 251 293
#
# _framework density 17.523902
#
# number of rings (size 3 to 8) (size 9 to 14) (size 15 to 20)
#    0.000    2.385    0.769    3.462    0.000    5.231 
#    0.000    3.077    0.000    2.769    0.000    4.308 
#    0.000    0.000    0.000    0.000    0.000    0.000 
#
# Total GULP energy -644744.047941 kJ/mol
# GULP energy per Si atom -12398.923999 kJ/mol
# Density = 1.748402 g / cm^3
# Si number density = 17.523902 Si / 1000 Ang^3
#
#
#
# Elastic Constant Matrix: (Units=GPa)
#
#
# Indices 1 2 3 4 5 6 
#
# 1 106.7676 49.3435 61.6989 0.0000 0.0000 0.0000
# 2 49.3435 94.1998 42.4036 0.0000 0.0000 0.0000
# 3 61.6989 42.4036 97.3095 0.0000 0.0000 0.0000
# 4 0.0000 0.0000 0.0000 10.0142 0.0000 0.0000
# 5 0.0000 0.0000 0.0000 0.0000 -23.1956 0.0000
# 6 0.0000 0.0000 0.0000 0.0000 0.0000 34.5000
#
#
#
# Elastic Compliance Matrix: (Units=1/GPa)
#
#
# Indices 1 2 3 4 5 6 
#
# 1 0.016397 -0.004863 -0.008277 0.000000 0.000000 0.000000
# 2 -0.004863 0.014648 -0.003300 0.000000 0.000000 0.000000
# 3 -0.008277 -0.003300 0.016963 0.000000 0.000000 0.000000
# 4 0.000000 0.000000 0.000000 0.099858 0.000000 0.000000
# 5 0.000000 0.000000 0.000000 0.000000 -0.043112 0.000000
# 6 0.000000 0.000000 0.000000 0.000000 0.000000 0.028985
#
#
# Mechanical properties :
#
#
# Convention : Reuss Voigt Hill
#
# Bulk Modulus (GPa) = 66.10391 67.24098 66.67245
# Shear Modulus (GPa) = 29.12688 13.91912 21.52300
#
# Velocity S-wave (km/s) = 4.08134 2.82138 3.50838
# Velocity P-wave (km/s) = 7.74686 7.00485 7.38518
#
# Compressibility (1/GPa) = 0.01512770
#
# Stress axis : x y z
#
# Youngs Moduli (GPa) = 60.98703 68.26652 58.95300
#
# Poissons Ratio (x) = 0.33198 0.48797
# Poissons Ratio (y) = 0.29658 0.19454
# Poissons Ratio (z) = 0.50481 0.22527
#
# Static dielectric constant tensor:
#      x y z
#    x 3.317610 0.000000 0.000000 
#    y 0.000000 3.328730 0.000000 
#    z 0.000000 0.000000 3.274450 
# 
# 
# High freq. dielectric constant tensor:
#      x y z
#    x 1.682400 0.000000 0.000000 
#    y 0.000000 1.676150 0.000000 
#    z 0.000000 0.000000 1.649830 
# 
# From -- ./inp_files/76002.got.cif
#   From: 2010.03.12/outbox.cif.g09.slc.cpg/sg65_39_cif.got.tgz:76002.got - 2010.04.10 20:52:16.
