data_PCOD8270773
_publ_section_title
;
Structure prediction by ZEFSAII (Michael W. Deem and Ramdas Pophale) SiO2 
 PCOD8270773
Probable space group: C M M M
;
_chemical_formula_sum "Si O2"
_cell_formula_units_Z 120
_cell_length_a 27.074863
_cell_length_b 26.297121
_cell_length_c 9.142365
_cell_angle_alpha 90.000000
_cell_angle_beta 90.000000
_cell_angle_gamma 90.000000
_cell_volume 6509.281127
_symmetry_space_group_name_H-M "C M M M"
_symmetry_group_IT_number 65
_symmetry_cell_setting 'orthorhombic'
loop_
_space_group_symop_operation_xyz
x,y,z
-x,-y,z
x,-y,-z
-x,y,-z
-x,-y,-z
x,y,-z
-x,y,z
x,-y,z
1/2+x,1/2+y,z
1/2-x,1/2-y,z
1/2+x,1/2-y,-z
1/2-x,1/2+y,-z
1/2-x,1/2-y,-z
1/2+x,1/2+y,-z
1/2-x,1/2+y,z
1/2+x,1/2-y,z
loop_
_atom_site_type_symbol
_atom_site_label
_atom_site_fract_x
_atom_site_fract_y
_atom_site_fract_z
Si Si1 0.281713 0.132143 0.172829
Si Si2 0.946705 0.237649 0.167927
Si Si3 0.554393 0.939571 0.836386
Si Si4 0.000000 0.056494 0.673403
Si Si5 0.314153 0.333843 0.671872
Si Si6 0.148581 0.560318 0.666157
Si Si7 0.922357 0.862815 0.329813
Si Si8 0.341310 0.232038 0.829303
O O1 0.228687 0.135569 0.247810
O O2 0.307595 0.081989 0.235032
O O3 0.315041 0.180308 0.217655
O O4 0.275210 0.127159 0.000000
O O5 0.946411 0.185697 0.255696
O O6 0.899915 0.273295 0.208991
O O7 0.000000 0.265095 0.197873
O O8 0.941929 0.221980 0.000000
O O9 0.500000 0.920440 0.785826
O O10 0.595974 0.919054 0.726292
O O11 0.554860 0.000000 0.838678
O O12 0.565866 0.919005 0.000000
O O13 0.950562 0.086467 0.725559
O O14 0.000000 0.051547 0.500000
O O15 0.000000 0.000000 0.744031
O O16 0.303216 0.329732 0.500000
O O17 0.364007 0.365710 0.704593
O O18 0.317320 0.277230 0.736601
O O19 0.154138 0.579201 0.500000
O O20 0.151587 0.500000 0.677376
O O21 0.931836 0.855226 0.500000
O O22 0.332317 0.243859 0.000000
#
# Coordination Sequence:
#
# PCOD8270773 Si02
#       8
#    16  16  16   8  16  16  16  16
#     4  11  22  36  54  74 101 138 176 218 263 314
#     4   9  16  28  49  74 100 131 165 204 251 305
#     4   8  14  27  49  75 100 127 163 205 247 296
#     4   9  16  28  49  75 103 135 169 205 246 297
#     4  10  20  33  52  78 104 132 169 215 264 311
#     4  10  21  36  54  76 102 133 171 216 263 310
#     4   9  17  30  49  73 100 130 168 209 249 302
#     4   9  19  34  51  75 104 134 171 210 256 313
#
# _framework density 18.435214999999999
#
# number of rings (size 3 to 8) (size 9 to 14) (size 15 to 20)
#    0.000    2.600    0.667    2.000    0.000    4.267 
#    0.000    2.667    0.000    5.600    0.000    0.000 
#    0.000    0.000    0.000    0.000    0.000    0.000 
#
# Total GULP energy -743757.941122 kJ/mol
# GULP energy per Si atom -12395.965685 kJ/mol
# Density = 1.839326 g / cm^3
# Si number density = 18.435215 Si / 1000 Ang^3
#
#
#
# Elastic Constant Matrix: (Units=GPa)
#
#
# Indices 1 2 3 4 5 6 
#
# 1 137.4903 34.7886 49.7745 0.0000 0.0000 0.0000
# 2 34.7886 48.4772 26.1248 0.0000 0.0000 0.0000
# 3 49.7745 26.1248 73.4545 0.0000 0.0000 0.0000
# 4 0.0000 0.0000 0.0000 22.4248 0.0000 0.0000
# 5 0.0000 0.0000 0.0000 0.0000 27.7428 0.0000
# 6 0.0000 0.0000 0.0000 0.0000 0.0000 24.0202
#
#
#
# Elastic Compliance Matrix: (Units=1/GPa)
#
#
# Indices 1 2 3 4 5 6 
#
# 1 0.010383 -0.004527 -0.005426 0.000000 0.000000 0.000000
# 2 -0.004527 0.027493 -0.006711 0.000000 0.000000 0.000000
# 3 -0.005426 -0.006711 0.019677 0.000000 0.000000 0.000000
# 4 0.000000 0.000000 0.000000 0.044593 0.000000 0.000000
# 5 0.000000 0.000000 0.000000 0.000000 0.036045 0.000000
# 6 0.000000 0.000000 0.000000 0.000000 0.000000 0.041632
#
#
# Mechanical properties :
#
#
# Convention : Reuss Voigt Hill
#
# Bulk Modulus (GPa) = 41.27672 53.42201 47.34937
# Shear Modulus (GPa) = 22.60129 24.75315 23.67722
#
# Velocity S-wave (km/s) = 3.50520 3.66828 3.58767
# Velocity P-wave (km/s) = 6.23063 6.85440 6.54994
#
# Compressibility (1/GPa) = 0.02422673
#
# Stress axis : x y z
#
# Youngs Moduli (GPa) = 96.31208 36.37227 50.82058
#
# Poissons Ratio (x) = 0.16466 0.27573
# Poissons Ratio (y) = 0.43602 0.34104
# Poissons Ratio (z) = 0.52255 0.24408
#
# Static dielectric constant tensor:
#      x y z
#    x 3.818780 0.000000 0.000000 
#    y 0.000000 3.160070 0.000000 
#    z 0.000000 0.000000 3.416460 
# 
# 
# High freq. dielectric constant tensor:
#      x y z
#    x 1.732520 0.000000 0.000000 
#    y 0.000000 1.679660 0.000000 
#    z 0.000000 0.000000 1.710330 
# 
# From -- ./inp_files/17075.got.cif
#   From: 2010.03.12/outbox.cif.g09.slc.cpg/sg65_9_cif.got.tgz:17075.got - 2010.04.10 20:52:16.
