data_PCOD8270481
_publ_section_title
;
Structure prediction by ZEFSAII (Michael W. Deem and Ramdas Pophale) SiO2 
 PCOD8270481
Probable space group: C M M M
;
_chemical_formula_sum "Si O2"
_cell_formula_units_Z 88
_cell_length_a 19.627284
_cell_length_b 8.962656
_cell_length_c 27.498041
_cell_angle_alpha 90.000000
_cell_angle_beta 90.000000
_cell_angle_gamma 90.000000
_cell_volume 4837.251742
_symmetry_space_group_name_H-M "C M M M"
_symmetry_group_IT_number 65
_symmetry_cell_setting 'orthorhombic'
loop_
_space_group_symop_operation_xyz
x,y,z
-x,-y,z
x,-y,-z
-x,y,-z
-x,-y,-z
x,y,-z
-x,y,z
x,-y,z
1/2+x,1/2+y,z
1/2-x,1/2-y,z
1/2+x,1/2-y,-z
1/2-x,1/2+y,-z
1/2-x,1/2-y,-z
1/2+x,1/2+y,-z
1/2-x,1/2+y,z
1/2+x,1/2-y,z
loop_
_atom_site_type_symbol
_atom_site_label
_atom_site_fract_x
_atom_site_fract_y
_atom_site_fract_z
Si Si1 0.325023 0.677600 0.000000
Si Si2 0.180100 0.176358 0.367454
Si Si3 0.421350 0.831010 0.811410
Si Si4 0.924200 0.822777 0.553754
Si Si5 0.578083 0.173877 0.923795
Si Si6 0.819552 0.174241 0.742535
O O1 0.250000 0.750000 0.000000
O O2 0.367809 0.727770 0.047030
O O3 0.316736 0.500000 0.000000
O O4 0.250000 0.250000 0.383952
O O5 0.123554 0.242621 0.403953
O O6 0.161238 0.223363 0.312372
O O7 0.187185 0.000000 0.372361
O O8 0.500000 0.810130 0.798348
O O9 0.408372 0.791721 0.867496
O O10 0.380104 0.718676 0.777997
O O11 0.398025 0.000000 0.800779
O O12 0.898129 0.773898 0.500000
O O13 0.000000 0.759416 0.562455
O O14 0.925622 0.000000 0.557031
O O15 0.500000 0.216426 0.937607
O O16 0.590119 0.000000 0.935560
O O17 0.750000 0.250000 0.760092
O O18 0.807736 0.000000 0.745796
#
# Coordination Sequence:
#
# PCOD8270481 Si02
#       6
#     8  16  16  16  16  16
#     4  12  25  38  55  81 111 141 175 214 253 296
#     4   9  18  31  47  69  96 126 162 202 245 294
#     4   9  19  36  57  80 105 134 169 208 251 302
#     4   8  14  26  45  68  93 122 158 200 244 291
#     4   9  19  38  61  81 105 138 171 206 253 305
#     4  10  20  33  50  72 101 136 170 209 255 301
#
# _framework density 18.192148
#
# number of rings (size 3 to 8) (size 9 to 14) (size 15 to 20)
#    0.000    2.727    0.000    3.273    0.000    5.091 
#    0.000    3.636    0.000    0.545    0.000    1.273 
#    0.000    0.000    0.000    0.000    0.000    0.000 
#
# Total GULP energy -545517.206856 kJ/mol
# GULP energy per Si atom -12398.118338 kJ/mol
# Density = 1.815074 g / cm^3
# Si number density = 18.192148 Si / 1000 Ang^3
#
#
#
# Elastic Constant Matrix: (Units=GPa)
#
#
# Indices 1 2 3 4 5 6 
#
# 1 123.1096 45.8080 79.7711 0.0000 0.0000 0.0000
# 2 45.8080 57.3325 36.5850 0.0000 0.0000 0.0000
# 3 79.7711 36.5850 108.7386 0.0000 0.0000 0.0000
# 4 0.0000 0.0000 0.0000 18.4231 0.0000 0.0000
# 5 0.0000 0.0000 0.0000 0.0000 26.2490 0.0000
# 6 0.0000 0.0000 0.0000 0.0000 0.0000 31.5367
#
#
#
# Elastic Compliance Matrix: (Units=1/GPa)
#
#
# Indices 1 2 3 4 5 6 
#
# 1 0.017669 -0.007444 -0.010457 0.000000 0.000000 0.000000
# 2 -0.007444 0.025347 -0.003067 0.000000 0.000000 0.000000
# 3 -0.010457 -0.003067 0.017900 0.000000 0.000000 0.000000
# 4 0.000000 0.000000 0.000000 0.054280 0.000000 0.000000
# 5 0.000000 0.000000 0.000000 0.000000 0.038097 0.000000
# 6 0.000000 0.000000 0.000000 0.000000 0.000000 0.031709
#
#
# Mechanical properties :
#
#
# Convention : Reuss Voigt Hill
#
# Bulk Modulus (GPa) = 52.69049 68.16767 60.42908
# Shear Modulus (GPa) = 21.43498 23.70954 22.57226
#
# Velocity S-wave (km/s) = 3.43629 3.61402 3.52628
# Velocity P-wave (km/s) = 6.69107 7.41398 7.06178
#
# Compressibility (1/GPa) = 0.01897876
#
# Stress axis : x y z
#
# Youngs Moduli (GPa) = 56.59727 39.45251 55.86675
#
# Poissons Ratio (x) = 0.29369 0.58421
# Poissons Ratio (y) = 0.42131 0.17134
# Poissons Ratio (z) = 0.59185 0.12100
#
# Static dielectric constant tensor:
#      x y z
#    x 3.451770 0.000000 0.000000 
#    y 0.000000 3.100240 0.000000 
#    z 0.000000 0.000000 3.524660 
# 
# 
# High freq. dielectric constant tensor:
#      x y z
#    x 1.705890 0.000000 0.000000 
#    y 0.000000 1.682230 0.000000 
#    z 0.000000 0.000000 1.713920 
# 
# From -- ./inp_files/77876.got.cif
#   From: 2010.03.12/outbox.cif.g09.slc.cpg/sg65_39_cif.got.tgz:77876.got - 2010.04.10 20:52:16.
