data_PCOD8270748
_publ_section_title
;
Structure prediction by ZEFSAII (Michael W. Deem and Ramdas Pophale) SiO2 
 PCOD8270748
Probable space group: C M M M
;
_chemical_formula_sum "Si O2"
_cell_formula_units_Z 120
_cell_length_a 27.526071
_cell_length_b 8.998192
_cell_length_c 26.369493
_cell_angle_alpha 90.000000
_cell_angle_beta 90.000000
_cell_angle_gamma 90.000000
_cell_volume 6531.324495
_symmetry_space_group_name_H-M "C M M M"
_symmetry_group_IT_number 65
_symmetry_cell_setting 'orthorhombic'
loop_
_space_group_symop_operation_xyz
x,y,z
-x,-y,z
x,-y,-z
-x,y,-z
-x,-y,-z
x,y,-z
-x,y,z
x,-y,z
1/2+x,1/2+y,z
1/2-x,1/2-y,z
1/2+x,1/2-y,-z
1/2-x,1/2+y,-z
1/2-x,1/2-y,-z
1/2+x,1/2+y,-z
1/2-x,1/2+y,z
1/2+x,1/2-y,z
loop_
_atom_site_type_symbol
_atom_site_label
_atom_site_fract_x
_atom_site_fract_y
_atom_site_fract_z
Si Si1 0.943919 0.674237 0.756838
Si Si2 0.601951 0.325631 0.850973
Si Si3 0.200145 0.828089 0.200254
Si Si4 0.801448 0.324608 0.500000
Si Si5 0.056061 0.671379 0.941921
Si Si6 0.357971 0.174232 0.599995
Si Si7 0.944954 0.169004 0.558498
Si Si8 0.641936 0.324113 0.701793
O O1 0.932281 0.500000 0.757023
O O2 0.932969 0.738813 0.812454
O O3 0.910422 0.753441 0.714801
O O4 0.000000 0.705416 0.743260
O O5 0.592529 0.500000 0.843478
O O6 0.658412 0.287377 0.840406
O O7 0.589867 0.275789 0.907832
O O8 0.250000 0.750000 0.185228
O O9 0.181170 0.778933 0.255693
O O10 0.211912 0.000000 0.199886
O O11 0.795690 0.500000 0.500000
O O12 0.750000 0.250000 0.500000
O O13 0.829286 0.270750 0.449708
O O14 0.065449 0.500000 0.928050
O O15 0.000000 0.712086 0.932416
O O16 0.070197 0.702590 0.000000
O O17 0.414036 0.218719 0.592534
O O18 0.337474 0.259146 0.649141
O O19 0.353091 0.000000 0.608940
O O20 0.940236 0.215262 0.500000
O O21 0.000000 0.185097 0.576949
O O22 0.926827 0.000000 0.566397
O O23 0.635119 0.500000 0.698358
#
# Coordination Sequence:
#
# PCOD8270748 Si02
#       8
#    16  16  16   8  16  16  16  16
#     4  10  20  34  53  78 108 143 181 217 257 308
#     4  10  20  33  51  79 111 143 182 225 270 320
#     4   9  20  37  56  78 103 131 170 219 270 322
#     4  10  24  42  59  80 103 131 168 209 255 310
#     4   9  18  32  50  76 112 152 192 230 267 311
#     4  11  22  38  57  80 108 136 170 210 255 308
#     4   9  18  33  54  79 104 134 171 205 244 296
#     4  10  22  38  55  79 107 136 171 211 261 315
#
# _framework density 18.372996000000001
#
# number of rings (size 3 to 8) (size 9 to 14) (size 15 to 20)
#    0.000    2.267    0.667    3.600    0.000    8.800 
#    0.000    4.000    0.000    0.400    0.000    0.000 
#    0.000    0.000    0.000    0.000    0.000    0.000 
#
# Total GULP energy -744102.178816 kJ/mol
# GULP energy per Si atom -12401.702980 kJ/mol
# Density = 1.833118 g / cm^3
# Si number density = 18.372996 Si / 1000 Ang^3
#
#
#
# Elastic Constant Matrix: (Units=GPa)
#
#
# Indices 1 2 3 4 5 6 
#
# 1 99.8031 45.7126 46.9339 0.0000 0.0000 0.0000
# 2 45.7126 76.6160 42.4776 0.0000 0.0000 0.0000
# 3 46.9339 42.4776 111.4782 0.0000 0.0000 0.0000
# 4 0.0000 0.0000 0.0000 34.0760 0.0000 0.0000
# 5 0.0000 0.0000 0.0000 0.0000 16.7342 0.0000
# 6 0.0000 0.0000 0.0000 0.0000 0.0000 32.3201
#
#
#
# Elastic Compliance Matrix: (Units=1/GPa)
#
#
# Indices 1 2 3 4 5 6 
#
# 1 0.014875 -0.006850 -0.003652 0.000000 0.000000 0.000000
# 2 -0.006850 0.019703 -0.004623 0.000000 0.000000 0.000000
# 3 -0.003652 -0.004623 0.012270 0.000000 0.000000 0.000000
# 4 0.000000 0.000000 0.000000 0.029346 0.000000 0.000000
# 5 0.000000 0.000000 0.000000 0.000000 0.059758 0.000000
# 6 0.000000 0.000000 0.000000 0.000000 0.000000 0.030941
#
#
# Mechanical properties :
#
#
# Convention : Reuss Voigt Hill
#
# Bulk Modulus (GPa) = 60.25785 62.01617 61.13701
# Shear Modulus (GPa) = 24.66998 26.81091 25.74044
#
# Velocity S-wave (km/s) = 3.66830 3.82417 3.74705
# Velocity P-wave (km/s) = 7.12812 7.30248 7.21583
#
# Compressibility (1/GPa) = 0.01659535
#
# Stress axis : x y z
#
# Youngs Moduli (GPa) = 67.22770 50.75497 81.50094
#
# Poissons Ratio (x) = 0.34767 0.29767
# Poissons Ratio (y) = 0.46051 0.37682
# Poissons Ratio (z) = 0.24554 0.23466
#
# Static dielectric constant tensor:
#      x y z
#    x 3.274000 0.000000 0.000000 
#    y 0.000000 3.363610 0.000000 
#    z 0.000000 0.000000 3.390850 
# 
# 
# High freq. dielectric constant tensor:
#      x y z
#    x 1.701750 0.000000 0.000000 
#    y 0.000000 1.716790 0.000000 
#    z 0.000000 0.000000 1.707690 
# 
# From -- ./inp_files/76098.got.cif
#   From: 2010.03.12/outbox.cif.g09.slc.cpg/sg65_39_cif.got.tgz:76098.got - 2010.04.10 20:52:16.
