data_PCOD8270588
_publ_section_title
;
Structure prediction by ZEFSAII (Michael W. Deem and Ramdas Pophale) SiO2 
 PCOD8270588
Probable space group: C M M M
;
_chemical_formula_sum "Si O2"
_cell_formula_units_Z 120
_cell_length_a 33.094007
_cell_length_b 19.185674
_cell_length_c 10.236720
_cell_angle_alpha 90.000000
_cell_angle_beta 90.000000
_cell_angle_gamma 90.000000
_cell_volume 6499.609123
_symmetry_space_group_name_H-M "C M M M"
_symmetry_group_IT_number 65
_symmetry_cell_setting 'orthorhombic'
loop_
_space_group_symop_operation_xyz
x,y,z
-x,-y,z
x,-y,-z
-x,y,-z
-x,-y,-z
x,y,-z
-x,y,z
x,-y,z
1/2+x,1/2+y,z
1/2-x,1/2-y,z
1/2+x,1/2-y,-z
1/2-x,1/2+y,-z
1/2-x,1/2-y,-z
1/2+x,1/2+y,-z
1/2-x,1/2+y,z
1/2+x,1/2-y,z
loop_
_atom_site_type_symbol
_atom_site_label
_atom_site_fract_x
_atom_site_fract_y
_atom_site_fract_z
Si Si1 0.613243 0.077052 0.351806
Si Si2 0.832071 0.203967 0.347593
Si Si3 0.725246 0.578791 0.345066
Si Si4 0.193566 0.354580 0.348205
Si Si5 0.906085 0.206256 0.843735
Si Si6 0.952555 0.335909 0.756702
Si Si7 0.547803 0.924203 0.000000
Si Si8 0.455556 0.576356 0.154527
O O1 0.624974 0.064792 0.500000
O O2 0.652320 0.114070 0.283874
O O3 0.574747 0.130011 0.355972
O O4 0.604272 0.000000 0.289367
O O5 0.846961 0.199974 0.500000
O O6 0.810052 0.132589 0.304110
O O7 0.802959 0.270892 0.329752
O O8 0.867416 0.218966 0.244855
O O9 0.728040 0.578011 0.500000
O O10 0.716477 0.500000 0.292607
O O11 0.767392 0.607502 0.284678
O O12 0.193620 0.372270 0.500000
O O13 0.941673 0.257815 0.797646
O O14 0.921955 0.130613 0.800787
O O15 0.897357 0.212810 0.000000
O O16 0.937368 0.383899 0.874486
O O17 0.000000 0.340720 0.722163
O O18 0.500000 0.928366 0.000000
O O19 0.567830 0.000000 0.000000
O O20 0.500000 0.594721 0.212005
O O21 0.442009 0.500000 0.204521
O O22 0.458934 0.577388 0.000000
#
# Coordination Sequence:
#
# PCOD8270588 Si02
#       8
#    16  16  16  16  16  16   8  16
#     4  10  20  33  50  75 107 141 176 218 267 316
#     4  10  20  34  53  78 109 139 170 212 266 320
#     4   9  17  30  52  82 108 132 171 221 265 309
#     4   9  16  30  52  76 104 138 176 216 257 306
#     4  11  21  34  54  79 106 139 179 220 266 320
#     4  11  21  33  50  72  99 135 177 220 264 310
#     4   9  18  32  48  66  89 120 163 215 260 297
#     4   8  15  29  50  75 100 129 173 227 271 309
#
# _framework density 18.462648000000002
#
# number of rings (size 3 to 8) (size 9 to 14) (size 15 to 20)
#    0.000    2.333    2.000    2.000    0.000    5.333 
#    0.000    0.667    0.000    2.800    0.000    0.933 
#    0.000    0.000    0.000    0.000    0.000    0.000 
#
# Total GULP energy -743294.854661 kJ/mol
# GULP energy per Si atom -12388.247578 kJ/mol
# Density = 1.842063 g / cm^3
# Si number density = 18.462648 Si / 1000 Ang^3
#
#
#
# Elastic Constant Matrix: (Units=GPa)
#
#
# Indices 1 2 3 4 5 6 
#
# 1 81.6913 39.8146 16.7793 0.0000 0.0000 0.0000
# 2 39.8146 133.8800 18.6118 0.0000 0.0000 0.0000
# 3 16.7793 18.6118 29.8346 0.0000 0.0000 0.0000
# 4 0.0000 0.0000 0.0000 18.0696 0.0000 0.0000
# 5 0.0000 0.0000 0.0000 0.0000 -0.6565 0.0000
# 6 0.0000 0.0000 0.0000 0.0000 0.0000 33.9661
#
#
#
# Elastic Compliance Matrix: (Units=1/GPa)
#
#
# Indices 1 2 3 4 5 6 
#
# 1 0.015335 -0.003681 -0.006328 0.000000 0.000000 0.000000
# 2 -0.003681 0.009062 -0.003583 0.000000 0.000000 0.000000
# 3 -0.006328 -0.003583 0.039313 0.000000 0.000000 0.000000
# 4 0.000000 0.000000 0.000000 0.055342 0.000000 0.000000
# 5 0.000000 0.000000 0.000000 0.000000 -1.523223 0.000000
# 6 0.000000 0.000000 0.000000 0.000000 0.000000 0.029441
#
#
# Mechanical properties :
#
#
# Convention : Reuss Voigt Hill
#
# Bulk Modulus (GPa) = 27.37845 43.97969 35.67907
# Shear Modulus (GPa) = -3.74428 21.62252 8.93912
#
# Velocity S-wave (km/s) = -1.42563 3.42592 2.20278
# Velocity P-wave (km/s) = 3.48588 6.28664 5.08297
#
# Compressibility (1/GPa) = 0.03652508
#
# Stress axis : x y z
#
# Youngs Moduli (GPa) = 65.21049 110.34965 25.43716
#
# Poissons Ratio (x) = 0.40616 0.16098
# Poissons Ratio (y) = 0.24002 0.09115
# Poissons Ratio (z) = 0.41268 0.39540
#
# Static dielectric constant tensor:
#      x y z
#    x 3.352430 0.000000 0.000000 
#    y 0.000000 3.905750 0.000000 
#    z 0.000000 0.000000 2.964880 
# 
# 
# High freq. dielectric constant tensor:
#      x y z
#    x 1.710020 0.000000 0.000000 
#    y 0.000000 1.740740 0.000000 
#    z 0.000000 0.000000 1.655860 
# 
# From -- ./inp_files/32846.got.cif
#   From: 2010.03.12/outbox.cif.g09.slc.cpg/sg65_17_cif.got.tgz:32846.got - 2010.04.10 20:52:16.
