data_PCOD8270290
_publ_section_title
;
Structure prediction by ZEFSAII (Michael W. Deem and Ramdas Pophale) SiO2 
 PCOD8270290
Probable space group: C M M M
;
_chemical_formula_sum "Si O2"
_cell_formula_units_Z 80
_cell_length_a 18.171431
_cell_length_b 17.350237
_cell_length_c 18.396571
_cell_angle_alpha 90.000000
_cell_angle_beta 90.000000
_cell_angle_gamma 90.000000
_cell_volume 5800.045784
_symmetry_space_group_name_H-M "C M M M"
_symmetry_group_IT_number 65
_symmetry_cell_setting 'orthorhombic'
loop_
_space_group_symop_operation_xyz
x,y,z
-x,-y,z
x,-y,-z
-x,y,-z
-x,-y,-z
x,y,-z
-x,y,z
x,-y,z
1/2+x,1/2+y,z
1/2-x,1/2-y,z
1/2+x,1/2-y,-z
1/2-x,1/2+y,-z
1/2-x,1/2-y,-z
1/2+x,1/2+y,-z
1/2-x,1/2+y,z
1/2+x,1/2-y,z
loop_
_atom_site_type_symbol
_atom_site_label
_atom_site_fract_x
_atom_site_fract_y
_atom_site_fract_z
Si Si1 0.085759 0.000000 0.420346
Si Si2 0.155637 0.855581 0.655729
Si Si3 0.500000 0.408346 0.919974
Si Si4 0.701814 0.910600 0.583580
Si Si5 0.917522 0.912864 0.212979
Si Si6 0.583458 0.211025 0.583890
O O1 0.108838 0.923903 0.378811
O O2 0.123885 0.000000 0.500000
O O3 0.000000 0.000000 0.430130
O O4 0.241020 0.867396 0.636561
O O5 0.139758 0.859143 0.742721
O O6 0.129009 0.773549 0.628154
O O7 0.500000 0.500000 0.927703
O O8 0.572908 0.385500 0.872044
O O9 0.500000 0.369013 0.000000
O O10 0.727765 0.900708 0.500000
O O11 0.622211 0.871753 0.594928
O O12 0.695756 0.000000 0.605162
O O13 0.000000 0.909778 0.248500
O O14 0.887093 0.000000 0.216288
O O15 0.584277 0.236198 0.500000
O O16 0.500000 0.204500 0.612865
#
# Coordination Sequence:
#
# PCOD8270290 Si02
#       6
#     8  16   8  16  16  16
#     4  11  20  24  34  54  81 115 139 163 202 247
#     4  12  18  27  42  60  86 107 135 174 216 259
#     4   7  12  22  36  54  80 116 151 168 181 227
#     4  10  20  33  46  58  76 108 149 188 223 254
#     4   8  14  22  35  55  81 113 137 163 198 234
#     4  10  21  33  44  58  78 108 146 188 222 252
#
# _framework density 13.792994
#
# number of rings (size 3 to 8) (size 9 to 14) (size 15 to 20)
#    0.600    1.600    2.000    4.200    0.000    3.600 
#    0.000    2.000    0.000    0.000    0.000    0.000 
#    0.000    3.200    0.000    0.400    0.000    1.400 
#
# Total GULP energy -495581.903348 kJ/mol
# GULP energy per Si atom -12389.547584 kJ/mol
# Density = 1.376160 g / cm^3
# Si number density = 13.792994 Si / 1000 Ang^3
#
#
#
# Elastic Constant Matrix: (Units=GPa)
#
#
# Indices 1 2 3 4 5 6 
#
# 1 59.6299 38.1369 20.6231 0.0000 0.0000 0.0000
# 2 38.1369 54.9431 24.0952 0.0000 0.0000 0.0000
# 3 20.6231 24.0952 79.3184 0.0000 0.0000 0.0000
# 4 0.0000 0.0000 0.0000 9.6568 0.0000 0.0000
# 5 0.0000 0.0000 0.0000 0.0000 13.1823 0.0000
# 6 0.0000 0.0000 0.0000 0.0000 0.0000 -9.6992
#
#
#
# Elastic Compliance Matrix: (Units=1/GPa)
#
#
# Indices 1 2 3 4 5 6 
#
# 1 0.030361 -0.020319 -0.001721 0.000000 0.000000 0.000000
# 2 -0.020319 0.034596 -0.005227 0.000000 0.000000 0.000000
# 3 -0.001721 -0.005227 0.014643 0.000000 0.000000 0.000000
# 4 0.000000 0.000000 0.000000 0.103554 0.000000 0.000000
# 5 0.000000 0.000000 0.000000 0.000000 0.075859 0.000000
# 6 0.000000 0.000000 0.000000 0.000000 0.000000 -0.103102
#
#
# Mechanical properties :
#
#
# Convention : Reuss Voigt Hill
#
# Bulk Modulus (GPa) = 39.89491 39.95575 39.92533
# Shear Modulus (GPa) = 22.85195 10.03042 16.44118
#
# Velocity S-wave (km/s) = 4.07477 2.69961 3.45627
# Velocity P-wave (km/s) = 7.15019 6.22481 6.70348
#
# Compressibility (1/GPa) = 0.02506586
#
# Stress axis : x y z
#
# Youngs Moduli (GPa) = 32.93749 28.90477 68.29320
#
# Poissons Ratio (x) = 0.58731 0.11757
# Poissons Ratio (y) = 0.66925 0.35694
# Poissons Ratio (z) = 0.05670 0.15107
#
# Static dielectric constant tensor:
#      x y z
#    x 2.654160 0.000000 0.000000 
#    y 0.000000 3.053420 0.000000 
#    z 0.000000 0.000000 2.795230 
# 
# 
# High freq. dielectric constant tensor:
#      x y z
#    x 1.511950 0.000000 0.000000 
#    y 0.000000 1.510370 0.000000 
#    z 0.000000 0.000000 1.492320 
# 
# From -- ./inp_files/63721.got.cif
#   From: 2010.03.12/outbox.cif.g09.slc.cpg/sg65_32_cif.got.tgz:63721.got - 2010.04.10 20:52:16.
