data_PCOD8270914
_publ_section_title
;
Structure prediction by ZEFSAII (Michael W. Deem and Ramdas Pophale) SiO2 
 PCOD8270914
Probable space group: C M M M
;
_chemical_formula_sum "Si O2"
_cell_formula_units_Z 96
_cell_length_a 23.034841
_cell_length_b 20.839821
_cell_length_c 11.368941
_cell_angle_alpha 90.000000
_cell_angle_beta 90.000000
_cell_angle_gamma 90.000000
_cell_volume 5457.568757
_symmetry_space_group_name_H-M "C M M M"
_symmetry_group_IT_number 65
_symmetry_cell_setting 'orthorhombic'
loop_
_space_group_symop_operation_xyz
x,y,z
-x,-y,z
x,-y,-z
-x,y,-z
-x,-y,-z
x,y,-z
-x,y,z
x,-y,z
1/2+x,1/2+y,z
1/2-x,1/2-y,z
1/2+x,1/2-y,-z
1/2-x,1/2+y,-z
1/2-x,1/2-y,-z
1/2+x,1/2+y,-z
1/2-x,1/2+y,z
1/2+x,1/2-y,z
loop_
_atom_site_type_symbol
_atom_site_label
_atom_site_fract_x
_atom_site_fract_y
_atom_site_fract_z
Si Si1 0.706975 0.693775 0.636754
Si Si2 0.500000 0.071976 0.740142
Si Si3 0.622014 0.894272 0.362046
Si Si4 0.119525 0.263008 0.766705
Si Si5 0.000000 0.704960 0.861703
Si Si6 0.739085 0.068994 0.260424
Si Si7 0.811851 0.286256 0.000000
Si Si8 0.217347 0.428649 0.000000
O O1 0.698259 0.700568 0.500000
O O2 0.750000 0.750000 0.684282
O O3 0.643854 0.700960 0.697783
O O4 0.731471 0.624243 0.665222
O O5 0.557462 0.078956 0.660612
O O6 0.500000 0.127916 0.838900
O O7 0.500000 0.000000 0.796470
O O8 0.636400 0.900795 0.500000
O O9 0.628475 0.821013 0.323594
O O10 0.669546 0.932218 0.284535
O O11 0.052804 0.257927 0.801454
O O12 0.156063 0.265273 0.884401
O O13 0.000000 0.715546 0.000000
O O14 0.763731 0.000000 0.302208
O O15 0.753858 0.076433 0.121175
O O16 0.750000 0.250000 0.000000
O O17 0.819901 0.363821 0.000000
O O18 0.185501 0.500000 0.000000
#
# Coordination Sequence:
#
# PCOD8270914 Si02
#       8
#    16   8  16  16   8  16   8   8
#     4  11  21  36  56  81 114 146 183 229 279 334
#     4  10  23  37  50  71 101 144 198 237 268 315
#     4  11  21  35  52  71 103 145 190 234 273 314
#     4  11  21  36  57  80 106 141 189 227 279 325
#     4  10  22  40  55  78 109 142 181 238 281 323
#     4  11  22  35  54  81 113 147 183 226 278 334
#     4  12  20  33  57  80 108 143 184 225 270 332
#     4  10  20  34  49  72 108 144 181 221 262 310
#
# _framework density 17.590250000000001
#
# number of rings (size 3 to 8) (size 9 to 14) (size 15 to 20)
#    0.000    1.167    4.167    3.250    0.000    2.833 
#    0.000    1.250    0.000    0.000    0.000    0.583 
#    0.000    2.000    0.000    0.000    0.000    0.000 
#
# Total GULP energy -594721.503030 kJ/mol
# GULP energy per Si atom -12390.031313 kJ/mol
# Density = 1.755021 g / cm^3
# Si number density = 17.590250 Si / 1000 Ang^3
#
#
#
# Elastic Constant Matrix: (Units=GPa)
#
#
# Indices 1 2 3 4 5 6 
#
# 1 103.9464 51.6761 39.6283 0.0000 0.0000 0.0000
# 2 51.6761 94.4402 27.9935 0.0000 0.0000 0.0000
# 3 39.6283 27.9935 90.9062 0.0000 0.0000 0.0000
# 4 0.0000 0.0000 0.0000 21.4924 0.0000 0.0000
# 5 0.0000 0.0000 0.0000 0.0000 19.9981 0.0000
# 6 0.0000 0.0000 0.0000 0.0000 0.0000 11.5834
#
#
#
# Elastic Compliance Matrix: (Units=1/GPa)
#
#
# Indices 1 2 3 4 5 6 
#
# 1 0.014595 -0.006713 -0.004295 0.000000 0.000000 0.000000
# 2 -0.006713 0.014740 -0.001613 0.000000 0.000000 0.000000
# 3 -0.004295 -0.001613 0.013369 0.000000 0.000000 0.000000
# 4 0.000000 0.000000 0.000000 0.046528 0.000000 0.000000
# 5 0.000000 0.000000 0.000000 0.000000 0.050005 0.000000
# 6 0.000000 0.000000 0.000000 0.000000 0.000000 0.086330
#
#
# Mechanical properties :
#
#
# Convention : Reuss Voigt Hill
#
# Bulk Modulus (GPa) = 57.26479 58.65427 57.95953
# Shear Modulus (GPa) = 19.48328 21.94778 20.71553
#
# Velocity S-wave (km/s) = 3.33170 3.53615 3.43544
# Velocity P-wave (km/s) = 6.88664 7.07740 6.98267
#
# Compressibility (1/GPa) = 0.01746274
#
# Stress axis : x y z
#
# Youngs Moduli (GPa) = 68.51579 67.84267 74.79813
#
# Poissons Ratio (x) = 0.45543 0.32127
# Poissons Ratio (y) = 0.45995 0.12062
# Poissons Ratio (z) = 0.29429 0.10940
#
# Static dielectric constant tensor:
#      x y z
#    x 3.319090 0.000000 0.000000 
#    y 0.000000 3.350380 0.000000 
#    z 0.000000 0.000000 3.420320 
# 
# 
# High freq. dielectric constant tensor:
#      x y z
#    x 1.650470 0.000000 0.000000 
#    y 0.000000 1.668220 0.000000 
#    z 0.000000 0.000000 1.701010 
# 
# From -- ./inp_files/29117.got.cif
#   From: 2010.03.12/outbox.cif.g09.slc.cpg/sg65_15_cif.got.tgz:29117.got - 2010.04.10 20:52:16.
