data_PCOD8270090
_publ_section_title
;
Structure prediction by ZEFSAII (Michael W. Deem and Ramdas Pophale) SiO2 
 PCOD8270090
Probable space group: C M M M
;
_chemical_formula_sum "Si O2"
_cell_formula_units_Z 88
_cell_length_a 7.902914
_cell_length_b 18.624161
_cell_length_c 30.242395
_cell_angle_alpha 90.000000
_cell_angle_beta 90.000000
_cell_angle_gamma 90.000000
_cell_volume 4451.231224
_symmetry_space_group_name_H-M "C M M M"
_symmetry_group_IT_number 65
_symmetry_cell_setting 'orthorhombic'
loop_
_space_group_symop_operation_xyz
x,y,z
-x,-y,z
x,-y,-z
-x,y,-z
-x,-y,-z
x,y,-z
-x,y,z
x,-y,z
1/2+x,1/2+y,z
1/2-x,1/2-y,z
1/2+x,1/2-y,-z
1/2-x,1/2+y,-z
1/2-x,1/2-y,-z
1/2+x,1/2+y,-z
1/2-x,1/2+y,z
1/2+x,1/2-y,z
loop_
_atom_site_type_symbol
_atom_site_label
_atom_site_fract_x
_atom_site_fract_y
_atom_site_fract_z
Si Si1 0.699692 0.670884 0.951038
Si Si2 0.699394 0.332209 0.786004
Si Si3 0.187573 0.585248 0.606838
Si Si4 0.000000 0.914210 0.450028
Si Si5 0.297914 0.580864 0.869709
Si Si6 0.200306 0.917954 0.298181
O O1 0.500000 0.664496 0.953003
O O2 0.750000 0.750000 0.935046
O O3 0.772692 0.614692 0.915395
O O4 0.776067 0.654847 0.000000
O O5 0.500000 0.340622 0.786099
O O6 0.750000 0.250000 0.787639
O O7 0.774558 0.373116 0.828703
O O8 0.771628 0.369363 0.741728
O O9 0.202013 0.500000 0.606771
O O10 0.331461 0.616296 0.574109
O O11 0.217789 0.612338 0.656787
O O12 0.000000 0.610012 0.591068
O O13 0.000000 0.885123 0.500000
O O14 0.000000 0.000000 0.449126
O O15 0.500000 0.582003 0.869467
O O16 0.228914 0.500000 0.865853
O O17 0.000000 0.912475 0.303263
O O18 0.254885 0.000000 0.288930
#
# Coordination Sequence:
#
# PCOD8270090 Si02
#       6
#    16  16  16   8  16  16
#     4   9  17  29  47  70  95 125 160 202 251 301
#     4  10  20  32  48  69  94 125 156 198 247 299
#     4   9  16  26  42  65  93 129 170 210 255 303
#     4   9  16  26  40  62  98 138 172 210 254 304
#     4   9  17  30  48  70  94 122 163 206 245 295
#     4   9  16  29  48  66  88 123 165 204 245 299
#
# _framework density 19.769811000000001
#
# number of rings (size 3 to 8) (size 9 to 14) (size 15 to 20)
#    0.000    2.818    0.909    1.091    0.000    3.636 
#    0.000    3.636    0.000    3.273    0.000    2.545 
#    0.000    0.727    0.364    0.000    0.000    0.000 
#
# Total GULP energy -545437.811611 kJ/mol
# GULP energy per Si atom -12396.313900 kJ/mol
# Density = 1.972481 g / cm^3
# Si number density = 19.769811 Si / 1000 Ang^3
#
#
#
# Elastic Constant Matrix: (Units=GPa)
#
#
# Indices 1 2 3 4 5 6 
#
# 1 61.0485 16.5125 51.2331 0.0000 0.0000 0.0000
# 2 16.5125 106.1672 75.4101 0.0000 0.0000 0.0000
# 3 51.2331 75.4101 184.2014 0.0000 0.0000 0.0000
# 4 0.0000 0.0000 0.0000 16.3266 0.0000 0.0000
# 5 0.0000 0.0000 0.0000 0.0000 10.7015 0.0000
# 6 0.0000 0.0000 0.0000 0.0000 0.0000 18.0889
#
#
#
# Elastic Compliance Matrix: (Units=1/GPa)
#
#
# Indices 1 2 3 4 5 6 
#
# 1 0.021490 0.001273 -0.006498 0.000000 0.000000 0.000000
# 2 0.001273 0.013357 -0.005822 0.000000 0.000000 0.000000
# 3 -0.006498 -0.005822 0.009620 0.000000 0.000000 0.000000
# 4 0.000000 0.000000 0.000000 0.061250 0.000000 0.000000
# 5 0.000000 0.000000 0.000000 0.000000 0.093445 0.000000
# 6 0.000000 0.000000 0.000000 0.000000 0.000000 0.055283
#
#
# Mechanical properties :
#
#
# Convention : Reuss Voigt Hill
#
# Bulk Modulus (GPa) = 44.69955 70.85872 57.77914
# Shear Modulus (GPa) = 17.60597 22.90749 20.25673
#
# Velocity S-wave (km/s) = 2.98744 3.40768 3.20446
# Velocity P-wave (km/s) = 5.87868 7.16957 6.55597
#
# Compressibility (1/GPa) = 0.02237159
#
# Stress axis : x y z
#
# Youngs Moduli (GPa) = 46.53434 74.86974 103.95218
#
# Poissons Ratio (x) = -0.09534 0.67552
# Poissons Ratio (y) = -0.05926 0.60523
# Poissons Ratio (z) = 0.30240 0.43591
#
# Static dielectric constant tensor:
#      x y z
#    x 3.429770 0.000000 0.000000 
#    y 0.000000 3.217730 0.000000 
#    z 0.000000 0.000000 3.969070 
# 
# 
# High freq. dielectric constant tensor:
#      x y z
#    x 1.751480 0.000000 0.000000 
#    y 0.000000 1.729050 0.000000 
#    z 0.000000 0.000000 1.781750 
# 
# From -- ./inp_files/76456.got.cif
#   From: 2010.03.12/outbox.cif.g09.slc.cpg/sg65_39_cif.got.tgz:76456.got - 2010.04.10 20:52:16.
