data_PCOD8270110
_publ_section_title
;
Structure prediction by ZEFSAII (Michael W. Deem and Ramdas Pophale) SiO2 
 PCOD8270110
Probable space group: C M M M
;
_chemical_formula_sum "Si O2"
_cell_formula_units_Z 80
_cell_length_a 28.334858
_cell_length_b 17.226983
_cell_length_c 9.475393
_cell_angle_alpha 90.000000
_cell_angle_beta 90.000000
_cell_angle_gamma 90.000000
_cell_volume 4625.167842
_symmetry_space_group_name_H-M "C M M M"
_symmetry_group_IT_number 65
_symmetry_cell_setting 'orthorhombic'
loop_
_space_group_symop_operation_xyz
x,y,z
-x,-y,z
x,-y,-z
-x,y,-z
-x,-y,-z
x,y,-z
-x,y,z
x,-y,z
1/2+x,1/2+y,z
1/2-x,1/2-y,z
1/2+x,1/2-y,-z
1/2-x,1/2+y,-z
1/2-x,1/2-y,-z
1/2+x,1/2+y,-z
1/2-x,1/2+y,z
1/2+x,1/2-y,z
loop_
_atom_site_type_symbol
_atom_site_label
_atom_site_fract_x
_atom_site_fract_y
_atom_site_fract_z
Si Si1 0.447099 0.771123 0.663752
Si Si2 0.784371 0.322663 0.345222
Si Si3 0.944057 0.584841 0.157231
Si Si4 0.146095 0.196986 0.663898
Si Si5 0.714143 0.408888 0.836713
O O1 0.447861 0.791708 0.500000
O O2 0.500000 0.747200 0.715456
O O3 0.427020 0.847793 0.739329
O O4 0.410345 0.700771 0.693897
O O5 0.787556 0.362811 0.500000
O O6 0.750000 0.250000 0.352882
O O7 0.834279 0.284059 0.301109
O O8 0.764288 0.384059 0.232153
O O9 0.924967 0.500000 0.207192
O O10 0.000000 0.582474 0.156077
O O11 0.925064 0.602726 0.000000
O O12 0.156601 0.176262 0.500000
O O13 0.169681 0.131746 0.761151
O O14 0.707445 0.500000 0.818276
O O15 0.714888 0.384083 0.000000
#
# Coordination Sequence:
#
# PCOD8270110 Si02
#       5
#    16  16  16  16  16
#     4   9  17  29  46  68  93 122 159 201 236 266
#     4   8  15  29  48  68  90 117 148 181 221 273
#     4   8  14  25  40  58  82 113 149 187 226 269
#     4   9  18  32  49  70  95 123 156 190 227 275
#     4  10  20  32  48  72  97 119 149 189 231 278
#
# _framework density 17.296669999999999
#
# number of rings (size 3 to 8) (size 9 to 14) (size 15 to 20)
#    0.000    3.200    0.000    2.400    0.000    6.400 
#    0.000    3.000    0.000    6.600    0.000    4.200 
#    0.000    0.000    0.000    0.000    0.000    0.000 
#
# Total GULP energy -495563.854851 kJ/mol
# GULP energy per Si atom -12389.096371 kJ/mol
# Density = 1.725730 g / cm^3
# Si number density = 17.296670 Si / 1000 Ang^3
#
#
#
# Elastic Constant Matrix: (Units=GPa)
#
#
# Indices 1 2 3 4 5 6 
#
# 1 78.0475 32.2550 38.6464 0.0000 0.0000 0.0000
# 2 32.2550 69.4497 53.3028 0.0000 0.0000 0.0000
# 3 38.6464 53.3028 93.1571 0.0000 0.0000 0.0000
# 4 0.0000 0.0000 0.0000 23.4978 0.0000 0.0000
# 5 0.0000 0.0000 0.0000 0.0000 13.6816 0.0000
# 6 0.0000 0.0000 0.0000 0.0000 0.0000 17.3920
#
#
#
# Elastic Compliance Matrix: (Units=1/GPa)
#
#
# Indices 1 2 3 4 5 6 
#
# 1 0.016842 -0.004386 -0.004478 0.000000 0.000000 0.000000
# 2 -0.004386 0.026815 -0.013524 0.000000 0.000000 0.000000
# 3 -0.004478 -0.013524 0.020330 0.000000 0.000000 0.000000
# 4 0.000000 0.000000 0.000000 0.042557 0.000000 0.000000
# 5 0.000000 0.000000 0.000000 0.000000 0.073091 0.000000
# 6 0.000000 0.000000 0.000000 0.000000 0.000000 0.057498
#
#
# Mechanical properties :
#
#
# Convention : Reuss Voigt Hill
#
# Bulk Modulus (GPa) = 52.04643 54.34029 53.19336
# Shear Modulus (GPa) = 17.34227 18.67761 18.00994
#
# Velocity S-wave (km/s) = 3.16988 3.28965 3.23032
# Velocity P-wave (km/s) = 6.59949 6.77598 6.68832
#
# Compressibility (1/GPa) = 0.01921361
#
# Stress axis : x y z
#
# Youngs Moduli (GPa) = 59.37411 37.29207 49.18764
#
# Poissons Ratio (x) = 0.16354 0.22025
# Poissons Ratio (y) = 0.26039 0.66521
# Poissons Ratio (z) = 0.26586 0.50434
#
# Static dielectric constant tensor:
#      x y z
#    x 3.649140 0.000000 0.000000 
#    y 0.000000 3.023600 0.000000 
#    z 0.000000 0.000000 3.341450 
# 
# 
# High freq. dielectric constant tensor:
#      x y z
#    x 1.656920 0.000000 0.000000 
#    y 0.000000 1.635160 0.000000 
#    z 0.000000 0.000000 1.668320 
# 
# From -- ./inp_files/9634.got.cif
#   From: 2010.03.12/outbox.cif.g09.slc.cpg/sg65_5_cif.got.tgz:9634.got - 2010.04.10 20:52:16.
