data_PCOD8270075
_publ_section_title
;
Structure prediction by ZEFSAII (Michael W. Deem and Ramdas Pophale) SiO2 
 PCOD8270075
Probable space group: C M M M
;
_chemical_formula_sum "Si O2"
_cell_formula_units_Z 88
_cell_length_a 28.225857
_cell_length_b 9.063340
_cell_length_c 18.903474
_cell_angle_alpha 90.000000
_cell_angle_beta 90.000000
_cell_angle_gamma 90.000000
_cell_volume 4835.896904
_symmetry_space_group_name_H-M "C M M M"
_symmetry_group_IT_number 65
_symmetry_cell_setting 'orthorhombic'
loop_
_space_group_symop_operation_xyz
x,y,z
-x,-y,z
x,-y,-z
-x,y,-z
-x,-y,-z
x,y,-z
-x,y,z
x,-y,z
1/2+x,1/2+y,z
1/2-x,1/2-y,z
1/2+x,1/2-y,-z
1/2-x,1/2+y,-z
1/2-x,1/2-y,-z
1/2+x,1/2+y,-z
1/2-x,1/2+y,z
1/2+x,1/2-y,z
loop_
_atom_site_type_symbol
_atom_site_label
_atom_site_fract_x
_atom_site_fract_y
_atom_site_fract_z
Si Si1 0.367429 0.331114 0.204266
Si Si2 0.445680 0.328998 0.316550
Si Si3 0.500000 0.336350 0.916582
Si Si4 0.594605 0.173062 0.080613
Si Si5 0.699847 0.673093 0.330191
Si Si6 0.120789 0.329315 0.417074
O O1 0.367683 0.500000 0.179571
O O2 0.415047 0.291717 0.247326
O O3 0.364557 0.230624 0.133635
O O4 0.321981 0.296408 0.252673
O O5 0.500000 0.288827 0.300326
O O6 0.439162 0.500000 0.337258
O O7 0.427260 0.231752 0.381900
O O8 0.500000 0.500000 0.881541
O O9 0.453588 0.249105 0.892607
O O10 0.500000 0.350888 0.000000
O O11 0.588038 0.000000 0.087579
O O12 0.607602 0.217118 0.000000
O O13 0.705117 0.500000 0.344612
O O14 0.750000 0.750000 0.334981
O O15 0.666189 0.739471 0.390224
O O16 0.115880 0.305576 0.500000
O O17 0.127381 0.500000 0.396863
#
# Coordination Sequence:
#
# PCOD8270075 Si02
#       6
#    16  16   8  16  16  16
#     4   9  19  34  53  77 103 136 176 215 259 314
#     4   9  19  35  53  75 105 142 182 222 262 308
#     4   9  17  29  45  65  93 133 174 209 250 301
#     4  10  20  32  47  72 105 137 173 218 264 308
#     4  10  21  38  60  83 106 134 169 213 264 318
#     4  10  21  36  54  79 110 141 176 217 258 307
#
# _framework density 18.197244000000001
#
# number of rings (size 3 to 8) (size 9 to 14) (size 15 to 20)
#    0.000    2.455    0.000    3.000    1.273    8.364 
#    0.000    1.818    0.000    0.545    0.000    0.000 
#    0.000    0.000    0.000    0.000    0.000    0.000 
#
# Total GULP energy -545633.311705 kJ/mol
# GULP energy per Si atom -12400.757084 kJ/mol
# Density = 1.815583 g / cm^3
# Si number density = 18.197244 Si / 1000 Ang^3
#
#
#
# Elastic Constant Matrix: (Units=GPa)
#
#
# Indices 1 2 3 4 5 6 
#
# 1 72.2517 22.9244 13.6450 0.0000 0.0000 0.0000
# 2 22.9244 91.8495 44.7503 0.0000 0.0000 0.0000
# 3 13.6450 44.7503 80.4541 0.0000 0.0000 0.0000
# 4 0.0000 0.0000 0.0000 33.7387 0.0000 0.0000
# 5 0.0000 0.0000 0.0000 0.0000 16.7069 0.0000
# 6 0.0000 0.0000 0.0000 0.0000 0.0000 32.0161
#
#
#
# Elastic Compliance Matrix: (Units=1/GPa)
#
#
# Indices 1 2 3 4 5 6 
#
# 1 0.015054 -0.003448 -0.000636 0.000000 0.000000 0.000000
# 2 -0.003448 0.015724 -0.008161 0.000000 0.000000 0.000000
# 3 -0.000636 -0.008161 0.017077 0.000000 0.000000 0.000000
# 4 0.000000 0.000000 0.000000 0.029640 0.000000 0.000000
# 5 0.000000 0.000000 0.000000 0.000000 0.059856 0.000000
# 6 0.000000 0.000000 0.000000 0.000000 0.000000 0.031234
#
#
# Mechanical properties :
#
#
# Convention : Reuss Voigt Hill
#
# Bulk Modulus (GPa) = 42.79706 45.24386 44.02046
# Shear Modulus (GPa) = 24.89258 27.37470 26.13364
#
# Velocity S-wave (km/s) = 3.70257 3.88278 3.79374
# Velocity P-wave (km/s) = 6.46902 6.70957 6.59039
#
# Compressibility (1/GPa) = 0.02336609
#
# Stress axis : x y z
#
# Youngs Moduli (GPa) = 66.42552 63.59602 58.55896
#
# Poissons Ratio (x) = 0.21926 0.03722
# Poissons Ratio (y) = 0.22902 0.47793
# Poissons Ratio (z) = 0.04221 0.51903
#
# Static dielectric constant tensor:
#      x y z
#    x 3.265100 0.000000 0.000000 
#    y 0.000000 3.456210 0.000000 
#    z 0.000000 0.000000 3.304750 
# 
# 
# High freq. dielectric constant tensor:
#      x y z
#    x 1.684600 0.000000 0.000000 
#    y 0.000000 1.714850 0.000000 
#    z 0.000000 0.000000 1.703880 
# 
# From -- ./inp_files/50434.got.cif
#   From: 2010.03.12/outbox.cif.g09.slc.cpg/sg65_26_cif.got.tgz:50434.got - 2010.04.10 20:52:16.
