data_PCOD8270054
_publ_section_title
;
Structure prediction by ZEFSAII (Michael W. Deem and Ramdas Pophale) SiO2 
 PCOD8270054
Probable space group: C M M M
;
_chemical_formula_sum "Si O2"
_cell_formula_units_Z 80
_cell_length_a 18.922877
_cell_length_b 9.561627
_cell_length_c 25.467065
_cell_angle_alpha 90.000000
_cell_angle_beta 90.000000
_cell_angle_gamma 90.000000
_cell_volume 4607.844992
_symmetry_space_group_name_H-M "C M M M"
_symmetry_group_IT_number 65
_symmetry_cell_setting 'orthorhombic'
loop_
_space_group_symop_operation_xyz
x,y,z
-x,-y,z
x,-y,-z
-x,y,-z
-x,-y,-z
x,y,-z
-x,y,z
x,-y,z
1/2+x,1/2+y,z
1/2-x,1/2-y,z
1/2+x,1/2-y,-z
1/2-x,1/2+y,-z
1/2-x,1/2-y,-z
1/2+x,1/2+y,-z
1/2-x,1/2+y,z
1/2+x,1/2-y,z
loop_
_atom_site_type_symbol
_atom_site_label
_atom_site_fract_x
_atom_site_fract_y
_atom_site_fract_z
Si Si1 0.078775 0.334073 0.558676
Si Si2 0.678244 0.835154 0.650950
Si Si3 0.418781 0.161551 0.749705
Si Si4 0.581199 0.661482 0.847984
Si Si5 0.317922 0.661869 0.940732
O O1 0.100918 0.286099 0.500000
O O2 0.076051 0.500000 0.562388
O O3 0.136647 0.278148 0.599696
O O4 0.000000 0.276357 0.572016
O O5 0.750000 0.750000 0.656471
O O6 0.628983 0.800204 0.700229
O O7 0.694977 0.000000 0.647143
O O8 0.500000 0.200129 0.736189
O O9 0.390040 0.249789 0.798962
O O10 0.411794 0.000000 0.764846
O O11 0.500000 0.696407 0.858384
O O12 0.593720 0.500000 0.834146
O O13 0.620266 0.705660 0.901234
O O14 0.297834 0.500000 0.934934
O O15 0.250000 0.750000 0.924957
O O16 0.343168 0.696125 0.000000
#
# Coordination Sequence:
#
# PCOD8270054 Si02
#       5
#    16  16  16  16  16
#     4   8  14  27  49  73  93 118 157 199 232 267
#     4  10  20  32  47  70  98 125 154 190 233 278
#     4   9  18  33  51  68  89 121 159 195 229 269
#     4   9  18  32  50  72  95 119 151 192 235 276
#     4   9  18  32  49  69  94 124 155 187 226 273
#
# _framework density 17.361695000000001
#
# number of rings (size 3 to 8) (size 9 to 14) (size 15 to 20)
#    0.000    3.000    0.000    1.200    0.000    5.600 
#    0.000    6.000    0.000    1.800    0.000    7.000 
#    0.000    0.000    0.000    0.000    0.000    0.000 
#
# Total GULP energy -495932.398464 kJ/mol
# GULP energy per Si atom -12398.309962 kJ/mol
# Density = 1.732218 g / cm^3
# Si number density = 17.361695 Si / 1000 Ang^3
#
#
#
# Elastic Constant Matrix: (Units=GPa)
#
#
# Indices 1 2 3 4 5 6 
#
# 1 105.5379 46.5439 86.0819 0.0000 0.0000 0.0000
# 2 46.5439 42.3062 55.6360 0.0000 0.0000 0.0000
# 3 86.0819 55.6360 150.0934 0.0000 0.0000 0.0000
# 4 0.0000 0.0000 0.0000 22.3166 0.0000 0.0000
# 5 0.0000 0.0000 0.0000 0.0000 18.2143 0.0000
# 6 0.0000 0.0000 0.0000 0.0000 0.0000 27.4726
#
#
#
# Elastic Compliance Matrix: (Units=1/GPa)
#
#
# Indices 1 2 3 4 5 6 
#
# 1 0.021603 -0.014581 -0.006985 0.000000 0.000000 0.000000
# 2 -0.014581 0.055960 -0.012380 0.000000 0.000000 0.000000
# 3 -0.006985 -0.012380 0.015258 0.000000 0.000000 0.000000
# 4 0.000000 0.000000 0.000000 0.044810 0.000000 0.000000
# 5 0.000000 0.000000 0.000000 0.000000 0.054902 0.000000
# 6 0.000000 0.000000 0.000000 0.000000 0.000000 0.036400
#
#
# Mechanical properties :
#
#
# Convention : Reuss Voigt Hill
#
# Bulk Modulus (GPa) = 40.11596 74.94013 57.52805
# Shear Modulus (GPa) = 16.38619 20.91242 18.64931
#
# Velocity S-wave (km/s) = 3.07549 3.47438 3.28100
# Velocity P-wave (km/s) = 5.98061 7.70408 6.89639
#
# Compressibility (1/GPa) = 0.02492773
#
# Stress axis : x y z
#
# Youngs Moduli (GPa) = 46.28965 17.86983 65.54080
#
# Poissons Ratio (x) = 0.26056 0.45780
# Poissons Ratio (y) = 0.67496 0.81142
# Poissons Ratio (z) = 0.32333 0.22124
#
# Static dielectric constant tensor:
#      x y z
#    x 3.243280 0.000000 0.000000 
#    y 0.000000 3.024190 0.000000 
#    z 0.000000 0.000000 3.488380 
# 
# 
# High freq. dielectric constant tensor:
#      x y z
#    x 1.666150 0.000000 0.000000 
#    y 0.000000 1.643980 0.000000 
#    z 0.000000 0.000000 1.682830 
# 
# From -- ./inp_files/68802.got.cif
#   From: 2010.03.12/outbox.cif.g09.slc.cpg/sg65_35_cif.got.tgz:68802.got - 2010.04.10 20:52:16.
