data_PCOD8270158
_publ_section_title
;
Structure prediction by ZEFSAII (Michael W. Deem and Ramdas Pophale) SiO2 
 PCOD8270158
Probable space group: C M M M
;
_chemical_formula_sum "Si O2"
_cell_formula_units_Z 88
_cell_length_a 9.071837
_cell_length_b 18.454096
_cell_length_c 27.896155
_cell_angle_alpha 90.000000
_cell_angle_beta 90.000000
_cell_angle_gamma 90.000000
_cell_volume 4670.166469
_symmetry_space_group_name_H-M "C M M M"
_symmetry_group_IT_number 65
_symmetry_cell_setting 'orthorhombic'
loop_
_space_group_symop_operation_xyz
x,y,z
-x,-y,z
x,-y,-z
-x,y,-z
-x,-y,-z
x,y,-z
-x,y,z
x,-y,z
1/2+x,1/2+y,z
1/2-x,1/2-y,z
1/2+x,1/2-y,-z
1/2-x,1/2+y,-z
1/2-x,1/2-y,-z
1/2+x,1/2+y,-z
1/2-x,1/2+y,z
1/2+x,1/2-y,z
loop_
_atom_site_type_symbol
_atom_site_label
_atom_site_fract_x
_atom_site_fract_y
_atom_site_fract_z
Si Si1 0.175431 0.171892 0.500000
Si Si2 0.325837 0.175850 0.220907
Si Si3 0.830173 0.678401 0.329245
Si Si4 0.165792 0.085979 0.144470
Si Si5 0.171003 0.416012 0.417991
Si Si6 0.165718 0.586163 0.947253
O O1 0.250000 0.250000 0.500000
O O2 0.225066 0.128041 0.453389
O O3 0.000000 0.180933 0.500000
O O4 0.500000 0.182612 0.214873
O O5 0.250000 0.250000 0.203964
O O6 0.278981 0.157623 0.275617
O O7 0.266478 0.111285 0.188306
O O8 0.750000 0.750000 0.348691
O O9 0.797029 0.611050 0.364061
O O10 0.000000 0.699102 0.329121
O O11 0.228251 0.117320 0.094138
O O12 0.000000 0.115232 0.150719
O O13 0.170123 0.000000 0.144264
O O14 0.213533 0.500000 0.420830
O O15 0.000000 0.403754 0.432057
O O16 0.167000 0.500000 0.945822
O O17 0.000000 0.614374 0.937749
O O18 0.220116 0.612484 0.000000
#
# Coordination Sequence:
#
# PCOD8270158 Si02
#       6
#     8  16  16  16  16  16
#     4  12  25  40  59  83 111 145 187 226 263 312
#     4  10  20  35  55  77 104 138 176 217 261 312
#     4   9  19  35  56  80 104 136 177 218 260 311
#     4  10  20  32  48  74 106 137 172 215 261 310
#     4  10  21  38  59  84 115 146 176 216 267 316
#     4   8  14  26  45  69  97 130 169 212 258 309
#
# _framework density 18.843011000000001
#
# number of rings (size 3 to 8) (size 9 to 14) (size 15 to 20)
#    0.000    2.364    0.000    3.273    0.000    6.545 
#    0.000    3.636    0.000    0.545    0.000    0.000 
#    0.000    0.000    0.000    0.000    0.000    0.000 
#
# Total GULP energy -545586.166475 kJ/mol
# GULP energy per Si atom -12399.685602 kJ/mol
# Density = 1.880012 g / cm^3
# Si number density = 18.843011 Si / 1000 Ang^3
#
#
#
# Elastic Constant Matrix: (Units=GPa)
#
#
# Indices 1 2 3 4 5 6 
#
# 1 105.2105 45.7946 58.5766 0.0000 0.0000 0.0000
# 2 45.7946 79.0245 50.5300 0.0000 0.0000 0.0000
# 3 58.5766 50.5300 120.7507 0.0000 0.0000 0.0000
# 4 0.0000 0.0000 0.0000 18.1026 0.0000 0.0000
# 5 0.0000 0.0000 0.0000 0.0000 28.5294 0.0000
# 6 0.0000 0.0000 0.0000 0.0000 0.0000 27.9405
#
#
#
# Elastic Compliance Matrix: (Units=1/GPa)
#
#
# Indices 1 2 3 4 5 6 
#
# 1 0.014499 -0.005331 -0.004803 0.000000 0.000000 0.000000
# 2 -0.005331 0.019238 -0.005464 0.000000 0.000000 0.000000
# 3 -0.004803 -0.005464 0.012898 0.000000 0.000000 0.000000
# 4 0.000000 0.000000 0.000000 0.055241 0.000000 0.000000
# 5 0.000000 0.000000 0.000000 0.000000 0.035052 0.000000
# 6 0.000000 0.000000 0.000000 0.000000 0.000000 0.035790
#
#
# Mechanical properties :
#
#
# Convention : Reuss Voigt Hill
#
# Bulk Modulus (GPa) = 64.77264 68.30980 66.54122
# Shear Modulus (GPa) = 23.91666 24.92015 24.41841
#
# Velocity S-wave (km/s) = 3.56653 3.64058 3.60375
# Velocity P-wave (km/s) = 7.17006 7.34864 7.25990
#
# Compressibility (1/GPa) = 0.01543862
#
# Stress axis : x y z
#
# Youngs Moduli (GPa) = 68.96928 51.98150 77.53262
#
# Poissons Ratio (x) = 0.27713 0.37236
# Poissons Ratio (y) = 0.36770 0.42364
# Poissons Ratio (z) = 0.33123 0.28403
#
# Static dielectric constant tensor:
#      x y z
#    x 3.568160 0.000000 0.000000 
#    y 0.000000 3.207530 0.000000 
#    z 0.000000 0.000000 3.764440 
# 
# 
# High freq. dielectric constant tensor:
#      x y z
#    x 1.733390 0.000000 0.000000 
#    y 0.000000 1.704720 0.000000 
#    z 0.000000 0.000000 1.746470 
# 
# From -- ./inp_files/70993.got.cif
#   From: 2010.03.12/outbox.cif.g09.slc.cpg/sg65_36_cif.got.tgz:70993.got - 2010.04.10 20:52:16.
