data_PCOD8270687
_publ_section_title
;
Structure prediction by ZEFSAII (Michael W. Deem and Ramdas Pophale) SiO2 
 PCOD8270687
Probable space group: C M M M
;
_chemical_formula_sum "Si O2"
_cell_formula_units_Z 112
_cell_length_a 27.929541
_cell_length_b 13.715472
_cell_length_c 14.555715
_cell_angle_alpha 90.000000
_cell_angle_beta 90.000000
_cell_angle_gamma 90.000000
_cell_volume 5575.811713
_symmetry_space_group_name_H-M "C M M M"
_symmetry_group_IT_number 65
_symmetry_cell_setting 'orthorhombic'
loop_
_space_group_symop_operation_xyz
x,y,z
-x,-y,z
x,-y,-z
-x,y,-z
-x,-y,-z
x,y,-z
-x,y,z
x,-y,z
1/2+x,1/2+y,z
1/2-x,1/2-y,z
1/2+x,1/2-y,-z
1/2-x,1/2+y,-z
1/2-x,1/2-y,-z
1/2+x,1/2+y,-z
1/2-x,1/2+y,z
1/2+x,1/2-y,z
loop_
_atom_site_type_symbol
_atom_site_label
_atom_site_fract_x
_atom_site_fract_y
_atom_site_fract_z
Si Si1 0.947805 0.116046 0.898713
Si Si2 0.053843 0.385248 0.250000
Si Si3 0.366891 0.115487 0.606760
Si Si4 0.947805 0.883954 0.398713
Si Si5 0.694862 0.776188 0.750000
Si Si6 0.375613 0.385101 0.750000
Si Si7 0.366891 0.884513 0.893240
O O1 0.905513 0.155619 0.836142
O O2 0.000000 0.150546 0.862708
O O3 0.946728 0.000000 0.897953
O O4 0.938581 0.157286 0.000000
O O5 0.048261 0.500000 0.250000
O O6 0.083705 0.353489 0.341296
O O7 0.083705 0.353489 0.158704
O O8 0.000000 0.338963 0.250000
O O9 0.369225 0.148253 0.500000
O O10 0.321868 0.166041 0.658398
O O11 0.359033 0.000000 0.614565
O O12 0.938582 0.842713 0.500000
O O13 0.905513 0.844381 0.336143
O O14 0.000000 0.849455 0.362707
O O15 0.946727 0.000000 0.397954
O O16 0.750000 0.750000 0.750000
O O17 0.674696 0.666580 0.750000
O O18 0.678132 0.833959 0.841602
O O19 0.367437 0.500000 0.750000
O O20 0.359033 0.000000 0.885435
O O21 0.369225 0.851747 0.000000
#
# Coordination Sequence:
#
# PCOD8270687 Si02
#       7
#    16  16  16  16  16  16  16
#     4   8  14  27  49  75 103 137 173 206 246 304
#     4   8  14  27  52  87 120 147 178 216 263 326
#     4   9  19  38  62  84 109 144 184 227 278 334
#     4   8  14  27  49  75 103 137 173 206 246 304
#     4  11  24  39  57  79 107 140 182 239 291 332
#     4  10  20  33  51  76 106 141 177 213 258 315
#     4   9  19  38  62  84 109 144 184 227 278 334
#
# _framework density 20.086760999999999
#
# number of rings (size 3 to 8) (size 9 to 14) (size 15 to 20)
#    0.000    3.000    0.000    2.571    0.000    5.143 
#    0.000    8.571    0.000    3.429    0.000    0.000 
#    0.000    0.000    0.000    0.000    0.000    0.000 
#
# Total GULP energy -693923.105552 kJ/mol
# GULP energy per Si atom -12391.484028 kJ/mol
# Density = 2.004104 g / cm^3
# Si number density = 20.086761 Si / 1000 Ang^3
#
#
#
# Elastic Constant Matrix: (Units=GPa)
#
#
# Indices 1 2 3 4 5 6 
#
# 1 186.4790 42.8013 82.8353 0.0000 0.0000 0.0000
# 2 42.8013 56.3475 34.5444 0.0000 0.0000 0.0000
# 3 82.8353 34.5444 169.4847 0.0000 0.0000 0.0000
# 4 0.0000 0.0000 0.0000 18.5237 0.0000 0.0000
# 5 0.0000 0.0000 0.0000 0.0000 15.1318 0.0000
# 6 0.0000 0.0000 0.0000 0.0000 0.0000 27.1738
#
#
#
# Elastic Compliance Matrix: (Units=1/GPa)
#
#
# Indices 1 2 3 4 5 6 
#
# 1 0.007555 -0.003971 -0.002883 0.000000 0.000000 0.000000
# 2 -0.003971 0.022369 -0.002618 0.000000 0.000000 0.000000
# 3 -0.002883 -0.002618 0.007843 0.000000 0.000000 0.000000
# 4 0.000000 0.000000 0.000000 0.053985 0.000000 0.000000
# 5 0.000000 0.000000 0.000000 0.000000 0.066086 0.000000
# 6 0.000000 0.000000 0.000000 0.000000 0.000000 0.036800
#
#
# Mechanical properties :
#
#
# Convention : Reuss Voigt Hill
#
# Bulk Modulus (GPa) = 53.13061 81.40814 67.26938
# Shear Modulus (GPa) = 22.74223 28.97456 25.85839
#
# Velocity S-wave (km/s) = 3.36847 3.80211 3.59184
# Velocity P-wave (km/s) = 6.45265 7.73892 7.12487
#
# Compressibility (1/GPa) = 0.01882154
#
# Stress axis : x y z
#
# Youngs Moduli (GPa) = 132.36998 44.70554 127.50351
#
# Poissons Ratio (x) = 0.17753 0.36758
# Poissons Ratio (y) = 0.52564 0.33385
# Poissons Ratio (z) = 0.38161 0.11705
#
# Static dielectric constant tensor:
#      x y z
#    x 3.904740 0.000000 0.000000 
#    y 0.000000 3.464500 0.000000 
#    z 0.000000 0.000000 4.059740 
# 
# 
# High freq. dielectric constant tensor:
#      x y z
#    x 1.755890 0.000000 0.000000 
#    y 0.000000 1.788000 0.000000 
#    z 0.000000 0.000000 1.788820 
# 
# From -- ./inp_files/47083.got.cif
#   From: 2010.03.12/outbox.cif.g09.slc.cpg/sg65_24_cif.got.tgz:47083.got - 2010.04.10 20:52:16.
