data_PCOD8270053
_publ_section_title
;
Structure prediction by ZEFSAII (Michael W. Deem and Ramdas Pophale) SiO2 
 PCOD8270053
Probable space group: C M M M
;
_chemical_formula_sum "Si O2"
_cell_formula_units_Z 104
_cell_length_a 9.512308
_cell_length_b 19.003279
_cell_length_c 33.079417
_cell_angle_alpha 90.000000
_cell_angle_beta 90.000000
_cell_angle_gamma 90.000000
_cell_volume 5979.602232
_symmetry_space_group_name_H-M "C M M M"
_symmetry_group_IT_number 65
_symmetry_cell_setting 'orthorhombic'
loop_
_space_group_symop_operation_xyz
x,y,z
-x,-y,z
x,-y,-z
-x,y,-z
-x,-y,-z
x,y,-z
-x,y,z
x,-y,z
1/2+x,1/2+y,z
1/2-x,1/2-y,z
1/2+x,1/2-y,-z
1/2-x,1/2+y,-z
1/2-x,1/2-y,-z
1/2+x,1/2+y,-z
1/2-x,1/2+y,z
1/2+x,1/2-y,z
loop_
_atom_site_type_symbol
_atom_site_label
_atom_site_fract_x
_atom_site_fract_y
_atom_site_fract_z
Si Si1 0.162474 0.817922 0.838970
Si Si2 0.165878 0.678008 0.383983
Si Si3 0.166809 0.578454 0.454801
Si Si4 0.836004 0.180815 0.930609
Si Si5 0.833571 0.077927 0.000000
Si Si6 0.337370 0.419285 0.231946
Si Si7 0.837284 0.419186 0.308315
O O1 0.250000 0.750000 0.826845
O O2 0.195361 0.842865 0.884633
O O3 0.207733 0.879544 0.808732
O O4 0.000000 0.798110 0.834147
O O5 0.250000 0.750000 0.380033
O O6 0.223092 0.636379 0.423392
O O7 0.202308 0.629187 0.346008
O O8 0.000000 0.694031 0.386754
O O9 0.215276 0.600143 0.500000
O O10 0.224484 0.500000 0.444331
O O11 0.000000 0.575887 0.451987
O O12 0.750000 0.250000 0.942191
O O13 0.783520 0.118510 0.959759
O O14 0.000000 0.197555 0.937312
O O15 0.000000 0.071622 0.000000
O O16 0.765716 0.000000 0.000000
O O17 0.500000 0.407452 0.242283
O O18 0.301183 0.500000 0.223655
O O19 0.249738 0.390880 0.270022
O O20 0.797847 0.500000 0.318872
O O21 0.000000 0.412620 0.297136
#
# Coordination Sequence:
#
# PCOD8270053 Si02
#       7
#    16  16  16  16   8  16  16
#     4   9  18  31  47  68  93 121 152 186 225 269
#     4  10  20  32  47  70  98 124 151 187 231 274
#     4   8  14  27  49  73  93 118 156 195 225 260
#     4   9  17  30  48  68  91 121 154 186 222 267
#     4   9  17  28  45  71  96 117 148 190 230 267
#     4   9  18  32  49  69  92 118 150 189 232 274
#     4   9  18  33  51  68  88 119 158 194 226 265
#
# _framework density 17.392461999999998
#
# number of rings (size 3 to 8) (size 9 to 14) (size 15 to 20)
#    0.000    3.000    0.000    1.154    0.000    4.615 
#    0.000    6.154    0.000    2.308    0.000    5.385 
#    0.000    0.000    0.000    0.000    0.000    0.000 
#
# Total GULP energy -644712.631478 kJ/mol
# GULP energy per Si atom -12398.319836 kJ/mol
# Density = 1.735288 g / cm^3
# Si number density = 17.392462 Si / 1000 Ang^3
#
#
#
# Elastic Constant Matrix: (Units=GPa)
#
#
# Indices 1 2 3 4 5 6 
#
# 1 36.1026 44.6322 47.4512 0.0000 0.0000 0.0000
# 2 44.6322 126.1012 95.1397 0.0000 0.0000 0.0000
# 3 47.4512 95.1397 149.5648 0.0000 0.0000 0.0000
# 4 0.0000 0.0000 0.0000 27.6884 0.0000 0.0000
# 5 0.0000 0.0000 0.0000 0.0000 18.7648 0.0000
# 6 0.0000 0.0000 0.0000 0.0000 0.0000 26.1693
#
#
#
# Elastic Compliance Matrix: (Units=1/GPa)
#
#
# Indices 1 2 3 4 5 6 
#
# 1 0.055975 -0.012332 -0.009914 0.000000 0.000000 0.000000
# 2 -0.012332 0.017965 -0.007515 0.000000 0.000000 0.000000
# 3 -0.009914 -0.007515 0.014612 0.000000 0.000000 0.000000
# 4 0.000000 0.000000 0.000000 0.036116 0.000000 0.000000
# 5 0.000000 0.000000 0.000000 0.000000 0.053291 0.000000
# 6 0.000000 0.000000 0.000000 0.000000 0.000000 0.038213
#
#
# Mechanical properties :
#
#
# Convention : Reuss Voigt Hill
#
# Bulk Modulus (GPa) = 34.44812 76.24608 55.34710
# Shear Modulus (GPa) = 17.52106 22.82752 20.17429
#
# Velocity S-wave (km/s) = 3.17739 3.62677 3.40949
# Velocity P-wave (km/s) = 5.77152 7.84039 6.88412
#
# Compressibility (1/GPa) = 0.02902916
#
# Stress axis : x y z
#
# Youngs Moduli (GPa) = 17.86520 55.66434 68.43646
#
# Poissons Ratio (x) = 0.68643 0.67851
# Poissons Ratio (y) = 0.22030 0.51432
# Poissons Ratio (z) = 0.17712 0.41833
#
# Static dielectric constant tensor:
#      x y z
#    x 2.993500 0.000000 0.000000 
#    y 0.000000 3.302510 0.000000 
#    z 0.000000 0.000000 3.487040 
# 
# 
# High freq. dielectric constant tensor:
#      x y z
#    x 1.641600 0.000000 0.000000 
#    y 0.000000 1.667630 0.000000 
#    z 0.000000 0.000000 1.685400 
# 
# From -- ./inp_files/76894.got.cif
#   From: 2010.03.12/outbox.cif.g09.slc.cpg/sg65_39_cif.got.tgz:76894.got - 2010.04.10 20:52:16.
