data_PCOD8270627
_publ_section_title
;
Structure prediction by ZEFSAII (Michael W. Deem and Ramdas Pophale) SiO2 
 PCOD8270627
Probable space group: C M M M
;
_chemical_formula_sum "Si O2"
_cell_formula_units_Z 88
_cell_length_a 9.317485
_cell_length_b 20.052655
_cell_length_c 27.493737
_cell_angle_alpha 90.000000
_cell_angle_beta 90.000000
_cell_angle_gamma 90.000000
_cell_volume 5136.938404
_symmetry_space_group_name_H-M "C M M M"
_symmetry_group_IT_number 65
_symmetry_cell_setting 'orthorhombic'
loop_
_space_group_symop_operation_xyz
x,y,z
-x,-y,z
x,-y,-z
-x,y,-z
-x,-y,-z
x,y,-z
-x,y,z
x,-y,z
1/2+x,1/2+y,z
1/2-x,1/2-y,z
1/2+x,1/2-y,-z
1/2-x,1/2+y,-z
1/2-x,1/2-y,-z
1/2+x,1/2+y,-z
1/2-x,1/2+y,z
1/2+x,1/2-y,z
loop_
_atom_site_type_symbol
_atom_site_label
_atom_site_fract_x
_atom_site_fract_y
_atom_site_fract_z
Si Si1 0.329116 0.926107 0.197260
Si Si2 0.659561 0.079304 0.909690
Si Si3 0.336440 0.576961 0.443434
Si Si4 0.339189 0.420329 0.000000
Si Si5 0.167883 0.683238 0.616708
Si Si6 0.667195 0.184355 0.729026
O O1 0.500000 0.929731 0.197804
O O2 0.280031 0.900556 0.143710
O O3 0.271912 0.876401 0.238687
O O4 0.266370 0.000000 0.208052
O O5 0.500000 0.108672 0.917952
O O6 0.761823 0.108067 0.951777
O O7 0.652428 0.000000 0.912519
O O8 0.313153 0.592137 0.500000
O O9 0.500000 0.594001 0.428479
O O10 0.302701 0.500000 0.432036
O O11 0.225656 0.620967 0.413365
O O12 0.336564 0.500000 0.000000
O O13 0.500000 0.392521 0.000000
O O14 0.250000 0.750000 0.600213
O O15 0.198179 0.667367 0.673019
O O16 0.000000 0.693090 0.606044
O O17 0.500000 0.196579 0.738532
O O18 0.750000 0.250000 0.745731
#
# Coordination Sequence:
#
# PCOD8270627 Si02
#       6
#    16  16  16   8  16  16
#     4   8  14  26  45  67  89 115 150 190 226 263
#     4   8  13  22  37  56  78 107 144 181 215 257
#     4   9  19  36  55  74  99 130 160 193 237 286
#     4   9  15  21  31  51  82 115 140 169 217 269
#     4  10  20  33  51  74  99 128 162 200 238 279
#     4   9  18  32  49  69  94 123 154 189 230 275
#
# _framework density 17.130827
#
# number of rings (size 3 to 8) (size 9 to 14) (size 15 to 20)
#    0.000    3.182    0.000    2.455    0.000    3.636 
#    0.000    3.636    0.000    1.636    0.000    0.636 
#    0.000    0.000    0.000    0.000    0.000    0.000 
#
# Total GULP energy -545453.154611 kJ/mol
# GULP energy per Si atom -12396.662605 kJ/mol
# Density = 1.709184 g / cm^3
# Si number density = 17.130827 Si / 1000 Ang^3
#
#
#
# Elastic Constant Matrix: (Units=GPa)
#
#
# Indices 1 2 3 4 5 6 
#
# 1 81.3113 47.0943 52.7378 0.0000 0.0000 0.0000
# 2 47.0943 87.4893 66.9297 0.0000 0.0000 0.0000
# 3 52.7378 66.9297 101.0172 0.0000 0.0000 0.0000
# 4 0.0000 0.0000 0.0000 4.3907 0.0000 0.0000
# 5 0.0000 0.0000 0.0000 0.0000 16.7991 0.0000
# 6 0.0000 0.0000 0.0000 0.0000 0.0000 24.1578
#
#
#
# Elastic Compliance Matrix: (Units=1/GPa)
#
#
# Indices 1 2 3 4 5 6 
#
# 1 0.019859 -0.005594 -0.006662 0.000000 0.000000 0.000000
# 2 -0.005594 0.024753 -0.013480 0.000000 0.000000 0.000000
# 3 -0.006662 -0.013480 0.022309 0.000000 0.000000 0.000000
# 4 0.000000 0.000000 0.000000 0.227753 0.000000 0.000000
# 5 0.000000 0.000000 0.000000 0.000000 0.059527 0.000000
# 6 0.000000 0.000000 0.000000 0.000000 0.000000 0.041394
#
#
# Mechanical properties :
#
#
# Convention : Reuss Voigt Hill
#
# Bulk Modulus (GPa) = 64.72561 67.03792 65.88176
# Shear Modulus (GPa) = 11.05666 15.93994 13.49830
#
# Velocity S-wave (km/s) = 2.54328 3.05369 2.81010
# Velocity P-wave (km/s) = 6.81832 7.18688 7.00502
#
# Compressibility (1/GPa) = 0.01544984
#
# Stress axis : x y z
#
# Youngs Moduli (GPa) = 50.35566 40.39844 44.82581
#
# Poissons Ratio (x) = 0.22597 0.29861
# Poissons Ratio (y) = 0.28167 0.60427
# Poissons Ratio (z) = 0.33545 0.54459
#
# Static dielectric constant tensor:
#      x y z
#    x 3.103360 0.000000 0.000000 
#    y 0.000000 3.025150 0.000000 
#    z 0.000000 0.000000 3.388460 
# 
# 
# High freq. dielectric constant tensor:
#      x y z
#    x 1.645510 0.000000 0.000000 
#    y 0.000000 1.628260 0.000000 
#    z 0.000000 0.000000 1.669000 
# 
# From -- ./inp_files/75327.got.cif
#   From: 2010.03.12/outbox.cif.g09.slc.cpg/sg65_38_cif.got.tgz:75327.got - 2010.04.10 20:52:16.
