data_PCOD8270047
_publ_section_title
;
Structure prediction by ZEFSAII (Michael W. Deem and Ramdas Pophale) SiO2 
 PCOD8270047
Probable space group: C M M M
;
_chemical_formula_sum "Si O2"
_cell_formula_units_Z 120
_cell_length_a 8.968373
_cell_length_b 29.193612
_cell_length_c 25.631797
_cell_angle_alpha 90.000000
_cell_angle_beta 90.000000
_cell_angle_gamma 90.000000
_cell_volume 6710.896627
_symmetry_space_group_name_H-M "C M M M"
_symmetry_group_IT_number 65
_symmetry_cell_setting 'orthorhombic'
loop_
_space_group_symop_operation_xyz
x,y,z
-x,-y,z
x,-y,-z
-x,y,-z
-x,-y,-z
x,y,-z
-x,y,z
x,-y,z
1/2+x,1/2+y,z
1/2-x,1/2-y,z
1/2+x,1/2-y,-z
1/2-x,1/2+y,-z
1/2-x,1/2-y,-z
1/2+x,1/2+y,-z
1/2-x,1/2+y,z
1/2+x,1/2-y,z
loop_
_atom_site_type_symbol
_atom_site_label
_atom_site_fract_x
_atom_site_fract_y
_atom_site_fract_z
Si Si1 0.171047 0.642071 0.058145
Si Si2 0.324457 0.947656 0.604149
Si Si3 0.332596 0.445619 0.500000
Si Si4 0.175868 0.613227 0.701737
Si Si5 0.167995 0.550527 0.891062
Si Si6 0.175855 0.797986 0.260808
Si Si7 0.326103 0.703168 0.858795
Si Si8 0.670709 0.552792 0.785631
O O1 0.189718 0.587281 0.063091
O O2 0.272377 0.664184 0.102266
O O3 0.000000 0.656948 0.066967
O O4 0.223608 0.656254 0.000000
O O5 0.500000 0.946073 0.596084
O O6 0.249865 0.927872 0.551758
O O7 0.272374 0.914571 0.650646
O O8 0.273021 0.000000 0.616181
O O9 0.329105 0.500000 0.500000
O O10 0.500000 0.426308 0.500000
O O11 0.257337 0.662297 0.702681
O O12 0.221475 0.583466 0.751239
O O13 0.000000 0.621426 0.702625
O O14 0.196861 0.500000 0.914815
O O15 0.284834 0.560569 0.845308
O O16 0.000000 0.553733 0.867948
O O17 0.250000 0.750000 0.277079
O O18 0.215616 0.809934 0.200634
O O19 0.000000 0.794304 0.269701
O O20 0.500000 0.710058 0.865188
O O21 0.250000 0.750000 0.876085
O O22 0.500000 0.568887 0.778262
O O23 0.691346 0.500000 0.769293
#
# Coordination Sequence:
#
# PCOD8270047 Si02
#       8
#    16  16   8  16  16  16  16  16
#     4  10  21  35  51  73  99 125 156 197 243 290
#     4   9  18  32  49  71 103 143 182 216 251 294
#     4   9  17  29  47  71 100 137 180 223 261 295
#     4  11  21  32  50  76 105 137 172 210 253 300
#     4   9  18  33  52  71  93 126 165 201 239 288
#     4  10  21  37  56  78 103 131 165 205 250 301
#     4  10  21  37  57  77  97 124 157 194 241 298
#     4  10  20  32  47  70 101 134 166 203 248 298
#
# _framework density 17.881366
#
# number of rings (size 3 to 8) (size 9 to 14) (size 15 to 20)
#    0.000    2.200    0.000    3.000    0.000    8.267 
#    0.000    2.667    0.000    0.000    0.000    3.267 
#    0.000    0.000    0.000    0.000    0.000    0.000 
#
# Total GULP energy -744053.047052 kJ/mol
# GULP energy per Si atom -12400.884118 kJ/mol
# Density = 1.784067 g / cm^3
# Si number density = 17.881366 Si / 1000 Ang^3
#
#
#
# Elastic Constant Matrix: (Units=GPa)
#
#
# Indices 1 2 3 4 5 6 
#
# 1 65.3897 42.9617 32.9666 0.0000 0.0000 0.0000
# 2 42.9617 99.9470 52.8633 0.0000 0.0000 0.0000
# 3 32.9666 52.8633 73.9115 0.0000 0.0000 0.0000
# 4 0.0000 0.0000 0.0000 20.9096 0.0000 0.0000
# 5 0.0000 0.0000 0.0000 0.0000 19.9879 0.0000
# 6 0.0000 0.0000 0.0000 0.0000 0.0000 29.5139
#
#
#
# Elastic Compliance Matrix: (Units=1/GPa)
#
#
# Indices 1 2 3 4 5 6 
#
# 1 0.022402 -0.006988 -0.004994 0.000000 0.000000 0.000000
# 2 -0.006988 0.018273 -0.009953 0.000000 0.000000 0.000000
# 3 -0.004994 -0.009953 0.022875 0.000000 0.000000 0.000000
# 4 0.000000 0.000000 0.000000 0.047825 0.000000 0.000000
# 5 0.000000 0.000000 0.000000 0.000000 0.050030 0.000000
# 6 0.000000 0.000000 0.000000 0.000000 0.000000 0.033882
#
#
# Mechanical properties :
#
#
# Convention : Reuss Voigt Hill
#
# Bulk Modulus (GPa) = 50.80902 55.20348 53.00625
# Shear Modulus (GPa) = 20.34861 21.44604 20.89733
#
# Velocity S-wave (km/s) = 3.37705 3.46692 3.42228
# Velocity P-wave (km/s) = 6.60925 6.85311 6.73229
#
# Compressibility (1/GPa) = 0.01968154
#
# Stress axis : x y z
#
# Youngs Moduli (GPa) = 44.63939 54.72535 43.71518
#
# Poissons Ratio (x) = 0.38242 0.21831
# Poissons Ratio (y) = 0.31194 0.43508
# Poissons Ratio (z) = 0.22292 0.54465
#
# Static dielectric constant tensor:
#      x y z
#    x 3.358250 0.000000 0.000000 
#    y 0.000000 3.333190 0.000000 
#    z 0.000000 0.000000 3.186190 
# 
# 
# High freq. dielectric constant tensor:
#      x y z
#    x 1.698670 0.000000 0.000000 
#    y 0.000000 1.685290 0.000000 
#    z 0.000000 0.000000 1.670780 
# 
# From -- ./inp_files/73875.got.cif
#   From: 2010.03.12/outbox.cif.g09.slc.cpg/sg65_37_cif.got.tgz:73875.got - 2010.04.10 20:52:16.
