data_PCOD8270670
_publ_section_title
;
Structure prediction by ZEFSAII (Michael W. Deem and Ramdas Pophale) SiO2 
 PCOD8270670
Probable space group: C M M M
;
_chemical_formula_sum "Si O2"
_cell_formula_units_Z 120
_cell_length_a 9.118509
_cell_length_b 27.239592
_cell_length_c 26.622821
_cell_angle_alpha 90.000000
_cell_angle_beta 90.000000
_cell_angle_gamma 90.000000
_cell_volume 6612.695146
_symmetry_space_group_name_H-M "C M M M"
_symmetry_group_IT_number 65
_symmetry_cell_setting 'orthorhombic'
loop_
_space_group_symop_operation_xyz
x,y,z
-x,-y,z
x,-y,-z
-x,y,-z
-x,-y,-z
x,y,-z
-x,y,z
x,-y,z
1/2+x,1/2+y,z
1/2-x,1/2-y,z
1/2+x,1/2-y,-z
1/2-x,1/2+y,-z
1/2-x,1/2-y,-z
1/2+x,1/2+y,-z
1/2-x,1/2+y,z
1/2+x,1/2-y,z
loop_
_atom_site_type_symbol
_atom_site_label
_atom_site_fract_x
_atom_site_fract_y
_atom_site_fract_z
Si Si1 0.667532 0.054816 0.886186
Si Si2 0.826031 0.556781 0.296282
Si Si3 0.670276 0.151019 0.057131
Si Si4 0.335727 0.057366 0.500000
Si Si5 0.171515 0.101672 0.202874
Si Si6 0.672081 0.700591 0.146600
Si Si7 0.672747 0.899311 0.399814
Si Si8 0.329836 0.201785 0.557015
O O1 0.500000 0.060116 0.867393
O O2 0.700886 0.093841 0.930049
O O3 0.771910 0.063922 0.838929
O O4 0.697196 0.000000 0.907221
O O5 0.779851 0.500000 0.290001
O O6 0.752981 0.590739 0.254504
O O7 0.762689 0.577087 0.349183
O O8 0.000000 0.562897 0.292563
O O9 0.500000 0.163898 0.065315
O O10 0.765887 0.186502 0.091901
O O11 0.719012 0.159961 0.000000
O O12 0.500000 0.080841 0.500000
O O13 0.255585 0.074969 0.449029
O O14 0.343831 0.000000 0.500000
O O15 0.207272 0.157456 0.186243
O O16 0.000000 0.093196 0.210065
O O17 0.500000 0.709890 0.141395
O O18 0.750000 0.750000 0.166215
O O19 0.500000 0.909563 0.399659
O O20 0.709799 0.841657 0.404243
O O21 0.280175 0.188040 0.500000
O O22 0.500000 0.213420 0.557748
O O23 0.250000 0.250000 0.577139
#
# Coordination Sequence:
#
# PCOD8270670 Si02
#       8
#    16  16  16   8  16  16  16  16
#     4   9  17  30  50  75 102 134 173 214 253 294
#     4  10  20  33  51  76 104 133 166 204 249 300
#     4   9  18  32  50  75 108 142 173 206 247 297
#     4   9  14  22  41  68  97 127 159 197 240 287
#     4  10  21  36  53  74  99 129 167 210 255 305
#     4  10  21  37  57  78  99 128 168 212 257 303
#     4   9  16  28  45  70 101 130 161 202 248 292
#     4   9  16  28  47  69  94 125 161 199 240 285
#
# _framework density 18.146913000000001
#
# number of rings (size 3 to 8) (size 9 to 14) (size 15 to 20)
#    0.000    2.600    0.667    1.600    0.000    6.133 
#    0.000    2.667    0.000    3.200    0.000    3.733 
#    0.000    2.133    0.000    0.000    0.000    0.000 
#
# Total GULP energy -743885.627976 kJ/mol
# GULP energy per Si atom -12398.093800 kJ/mol
# Density = 1.810561 g / cm^3
# Si number density = 18.146913 Si / 1000 Ang^3
#
#
#
# Elastic Constant Matrix: (Units=GPa)
#
#
# Indices 1 2 3 4 5 6 
#
# 1 51.6157 44.2985 39.6257 0.0000 0.0000 0.0000
# 2 44.2985 113.1601 53.0932 0.0000 0.0000 0.0000
# 3 39.6257 53.0932 127.0103 0.0000 0.0000 0.0000
# 4 0.0000 0.0000 0.0000 21.0157 0.0000 0.0000
# 5 0.0000 0.0000 0.0000 0.0000 15.5969 0.0000
# 6 0.0000 0.0000 0.0000 0.0000 0.0000 25.9421
#
#
#
# Elastic Compliance Matrix: (Units=1/GPa)
#
#
# Indices 1 2 3 4 5 6 
#
# 1 0.032470 -0.009900 -0.005992 0.000000 0.000000 0.000000
# 2 -0.009900 0.014011 -0.002768 0.000000 0.000000 0.000000
# 3 -0.005992 -0.002768 0.010900 0.000000 0.000000 0.000000
# 4 0.000000 0.000000 0.000000 0.047584 0.000000 0.000000
# 5 0.000000 0.000000 0.000000 0.000000 0.064115 0.000000
# 6 0.000000 0.000000 0.000000 0.000000 0.000000 0.038547
#
#
# Mechanical properties :
#
#
# Convention : Reuss Voigt Hill
#
# Bulk Modulus (GPa) = 49.84701 62.86898 56.35799
# Shear Modulus (GPa) = 19.86998 22.82884 21.34941
#
# Velocity S-wave (km/s) = 3.31259 3.55068 3.43370
# Velocity P-wave (km/s) = 6.49302 7.17840 6.84429
#
# Compressibility (1/GPa) = 0.02006138
#
# Stress axis : x y z
#
# Youngs Moduli (GPa) = 30.79721 71.37040 91.74205
#
# Poissons Ratio (x) = 0.70655 0.54973
# Poissons Ratio (y) = 0.30488 0.25399
# Poissons Ratio (z) = 0.18454 0.19759
#
# Static dielectric constant tensor:
#      x y z
#    x 3.132940 0.000000 0.000000 
#    y 0.000000 3.422810 0.000000 
#    z 0.000000 0.000000 3.357000 
# 
# 
# High freq. dielectric constant tensor:
#      x y z
#    x 1.675020 0.000000 0.000000 
#    y 0.000000 1.712320 0.000000 
#    z 0.000000 0.000000 1.692970 
# 
# From -- ./inp_files/73963.got.cif
#   From: 2010.03.12/outbox.cif.g09.slc.cpg/sg65_37_cif.got.tgz:73963.got - 2010.04.10 20:52:16.
