data_PCOD8270515
_publ_section_title
;
Structure prediction by ZEFSAII (Michael W. Deem and Ramdas Pophale) SiO2 
 PCOD8270515
Probable space group: C M M M
;
_chemical_formula_sum "Si O2"
_cell_formula_units_Z 88
_cell_length_a 9.148544
_cell_length_b 18.748546
_cell_length_c 27.833699
_cell_angle_alpha 90.000000
_cell_angle_beta 90.000000
_cell_angle_gamma 90.000000
_cell_volume 4774.088881
_symmetry_space_group_name_H-M "C M M M"
_symmetry_group_IT_number 65
_symmetry_cell_setting 'orthorhombic'
loop_
_space_group_symop_operation_xyz
x,y,z
-x,-y,z
x,-y,-z
-x,y,-z
-x,-y,-z
x,y,-z
-x,y,z
x,-y,z
1/2+x,1/2+y,z
1/2-x,1/2-y,z
1/2+x,1/2-y,-z
1/2-x,1/2+y,-z
1/2-x,1/2-y,-z
1/2+x,1/2+y,-z
1/2-x,1/2+y,z
1/2+x,1/2-y,z
loop_
_atom_site_type_symbol
_atom_site_label
_atom_site_fract_x
_atom_site_fract_y
_atom_site_fract_z
Si Si1 0.329588 0.178443 0.916045
Si Si2 0.171495 0.323235 0.806269
Si Si3 0.326322 0.921555 0.000000
Si Si4 0.668958 0.417319 0.267749
Si Si5 0.328383 0.324699 0.639661
Si Si6 0.326411 0.420288 0.446435
O O1 0.500000 0.192138 0.922992
O O2 0.250000 0.250000 0.931552
O O3 0.292843 0.157158 0.861382
O O4 0.271739 0.117198 0.951600
O O5 0.250000 0.250000 0.790763
O O6 0.231884 0.388453 0.775322
O O7 0.000000 0.313455 0.797119
O O8 0.500000 0.925886 0.000000
O O9 0.256312 0.000000 0.000000
O O10 0.500000 0.406186 0.253983
O O11 0.705586 0.500000 0.276113
O O12 0.709425 0.375626 0.316022
O O13 0.500000 0.310439 0.635354
O O14 0.250000 0.250000 0.647181
O O15 0.265205 0.363526 0.591948
O O16 0.277391 0.396555 0.500000
O O17 0.500000 0.422604 0.442636
O O18 0.266273 0.500000 0.435328
#
# Coordination Sequence:
#
# PCOD8270515 Si02
#       6
#    16  16   8  16  16  16
#     4   9  18  32  52  75  98 128 163 200 241 288
#     4  10  20  34  53  77 103 131 166 207 249 295
#     4   9  17  30  49  73 100 129 162 200 242 287
#     4  10  21  36  53  73  99 132 168 207 252 299
#     4  10  20  33  50  73 100 129 163 203 245 291
#     4   8  14  27  49  74  97 124 161 202 241 285
#
# _framework density 18.432836999999999
#
# number of rings (size 3 to 8) (size 9 to 14) (size 15 to 20)
#    0.000    2.636    0.000    2.455    0.000    6.545 
#    0.000    1.818    0.000    2.727    0.000    1.273 
#    0.000    0.000    0.000    0.000    0.000    0.000 
#
# Total GULP energy -545595.577480 kJ/mol
# GULP energy per Si atom -12399.899488 kJ/mol
# Density = 1.839088 g / cm^3
# Si number density = 18.432837 Si / 1000 Ang^3
#
#
#
# Elastic Constant Matrix: (Units=GPa)
#
#
# Indices 1 2 3 4 5 6 
#
# 1 42.0393 49.3799 43.3794 0.0000 0.0000 0.0000
# 2 49.3799 164.7890 94.4221 0.0000 0.0000 0.0000
# 3 43.3794 94.4221 130.9443 0.0000 0.0000 0.0000
# 4 0.0000 0.0000 0.0000 39.2216 0.0000 0.0000
# 5 0.0000 0.0000 0.0000 0.0000 13.2985 0.0000
# 6 0.0000 0.0000 0.0000 0.0000 0.0000 26.7579
#
#
#
# Elastic Compliance Matrix: (Units=1/GPa)
#
#
# Indices 1 2 3 4 5 6 
#
# 1 0.041185 -0.007708 -0.008085 0.000000 0.000000 0.000000
# 2 -0.007708 0.011784 -0.005943 0.000000 0.000000 0.000000
# 3 -0.008085 -0.005943 0.014601 0.000000 0.000000 0.000000
# 4 0.000000 0.000000 0.000000 0.025496 0.000000 0.000000
# 5 0.000000 0.000000 0.000000 0.000000 0.075196 0.000000
# 6 0.000000 0.000000 0.000000 0.000000 0.000000 0.037372
#
#
# Mechanical properties :
#
#
# Convention : Reuss Voigt Hill
#
# Bulk Modulus (GPa) = 41.50199 79.12614 60.31406
# Shear Modulus (GPa) = 19.44463 25.89501 22.66982
#
# Velocity S-wave (km/s) = 3.25143 3.75217 3.51074
# Velocity P-wave (km/s) = 6.05474 7.86077 7.01611
#
# Compressibility (1/GPa) = 0.02409523
#
# Stress axis : x y z
#
# Youngs Moduli (GPa) = 24.28083 84.86252 68.48820
#
# Poissons Ratio (x) = 0.65416 0.55375
# Poissons Ratio (y) = 0.18717 0.40705
# Poissons Ratio (z) = 0.19632 0.50437
#
# Static dielectric constant tensor:
#      x y z
#    x 3.085260 0.000000 0.000000 
#    y 0.000000 3.499050 0.000000 
#    z 0.000000 0.000000 3.644120 
# 
# 
# High freq. dielectric constant tensor:
#      x y z
#    x 1.680830 0.000000 0.000000 
#    y 0.000000 1.716680 0.000000 
#    z 0.000000 0.000000 1.729850 
# 
# From -- ./inp_files/76469.got.cif
#   From: 2010.03.12/outbox.cif.g09.slc.cpg/sg65_39_cif.got.tgz:76469.got - 2010.04.10 20:52:16.
