data_PCOD8270760
_publ_section_title
;
Structure prediction by ZEFSAII (Michael W. Deem and Ramdas Pophale) SiO2 
 PCOD8270760
Probable space group: C M M M
;
_chemical_formula_sum "Si O2"
_cell_formula_units_Z 120
_cell_length_a 27.385079
_cell_length_b 26.866566
_cell_length_c 9.084372
_cell_angle_alpha 90.000000
_cell_angle_beta 90.000000
_cell_angle_gamma 90.000000
_cell_volume 6683.763402
_symmetry_space_group_name_H-M "C M M M"
_symmetry_group_IT_number 65
_symmetry_cell_setting 'orthorhombic'
loop_
_space_group_symop_operation_xyz
x,y,z
-x,-y,z
x,-y,-z
-x,y,-z
-x,-y,-z
x,y,-z
-x,y,z
x,-y,z
1/2+x,1/2+y,z
1/2-x,1/2-y,z
1/2+x,1/2-y,-z
1/2-x,1/2+y,-z
1/2-x,1/2-y,-z
1/2+x,1/2+y,-z
1/2-x,1/2+y,z
1/2+x,1/2-y,z
loop_
_atom_site_type_symbol
_atom_site_label
_atom_site_fract_x
_atom_site_fract_y
_atom_site_fract_z
Si Si1 0.783488 0.099849 0.829998
Si Si2 0.226281 0.698550 0.169766
Si Si3 0.056380 0.706834 0.172184
Si Si4 0.362078 0.151712 0.672320
Si Si5 0.195176 0.444331 0.331338
Si Si6 0.943644 0.192249 0.670822
Si Si7 0.114319 0.095119 0.674459
Si Si8 0.945282 0.000000 0.675104
O O1 0.766744 0.156415 0.804365
O O2 0.742470 0.062578 0.769562
O O3 0.832796 0.090475 0.743562
O O4 0.792043 0.087729 0.000000
O O5 0.250000 0.750000 0.221060
O O6 0.179166 0.689384 0.269833
O O7 0.209320 0.700259 0.000000
O O8 0.087065 0.662695 0.246748
O O9 0.073000 0.759867 0.237004
O O10 0.000000 0.696377 0.208980
O O11 0.066809 0.707446 0.000000
O O12 0.369010 0.160195 0.500000
O O13 0.347121 0.094924 0.711171
O O14 0.211265 0.435525 0.500000
O O15 0.174414 0.500000 0.307238
O O16 0.934508 0.204000 0.500000
O O17 0.911598 0.145914 0.725917
O O18 0.000000 0.178864 0.700298
O O19 0.119542 0.093505 0.500000
O O20 0.082285 0.049036 0.732666
O O21 0.947232 0.000000 0.500000
O O22 0.000000 0.000000 0.740074
#
# Coordination Sequence:
#
# PCOD8270760 Si02
#       8
#    16  16  16  16  16  16  16   8
#     4  10  21  34  49  75 107 138 173 213 257 308
#     4   9  19  35  52  72 103 143 177 208 252 311
#     4  10  21  36  55  79 109 145 179 211 254 314
#     4  10  20  34  55  83 108 135 173 219 265 310
#     4   9  19  37  59  79 104 137 173 214 260 315
#     4   9  18  33  52  75 102 133 174 223 268 310
#     4  10  20  33  52  76 101 132 172 222 272 318
#     4   9  18  34  55  75  95 129 177 223 270 321
#
# _framework density 17.953958
#
# number of rings (size 3 to 8) (size 9 to 14) (size 15 to 20)
#    0.000    2.467    0.000    1.600    2.800    4.533 
#    0.000    0.000    0.000    2.000    0.000    2.800 
#    0.000    0.000    0.000    0.000    0.000    0.000 
#
# Total GULP energy -744175.802914 kJ/mol
# GULP energy per Si atom -12402.930049 kJ/mol
# Density = 1.791309 g / cm^3
# Si number density = 17.953958 Si / 1000 Ang^3
#
#
#
# Elastic Constant Matrix: (Units=GPa)
#
#
# Indices 1 2 3 4 5 6 
#
# 1 110.9745 69.9803 46.2024 0.0000 0.0000 0.0000
# 2 69.9803 130.6101 46.6668 0.0000 0.0000 0.0000
# 3 46.2024 46.6668 59.9622 0.0000 0.0000 0.0000
# 4 0.0000 0.0000 0.0000 19.3015 0.0000 0.0000
# 5 0.0000 0.0000 0.0000 0.0000 28.6723 0.0000
# 6 0.0000 0.0000 0.0000 0.0000 0.0000 21.7186
#
#
#
# Elastic Compliance Matrix: (Units=1/GPa)
#
#
# Indices 1 2 3 4 5 6 
#
# 1 0.015848 -0.005718 -0.007761 0.000000 0.000000 0.000000
# 2 -0.005718 0.012669 -0.005454 0.000000 0.000000 0.000000
# 3 -0.007761 -0.005454 0.026902 0.000000 0.000000 0.000000
# 4 0.000000 0.000000 0.000000 0.051809 0.000000 0.000000
# 5 0.000000 0.000000 0.000000 0.000000 0.034877 0.000000
# 6 0.000000 0.000000 0.000000 0.000000 0.000000 0.046043
#
#
# Mechanical properties :
#
#
# Convention : Reuss Voigt Hill
#
# Bulk Modulus (GPa) = 56.97145 69.69397 63.33271
# Shear Modulus (GPa) = 21.56424 23.18497 22.37461
#
# Velocity S-wave (km/s) = 3.46943 3.59744 3.53402
# Velocity P-wave (km/s) = 6.91738 7.49386 7.21138
#
# Compressibility (1/GPa) = 0.01755265
#
# Stress axis : x y z
#
# Youngs Moduli (GPa) = 63.09831 78.93370 37.17251
#
# Poissons Ratio (x) = 0.45138 0.28850
# Poissons Ratio (y) = 0.36082 0.20272
# Poissons Ratio (z) = 0.48971 0.43047
#
# Static dielectric constant tensor:
#      x y z
#    x 3.253130 0.000000 0.000000 
#    y 0.000000 3.415240 0.000000 
#    z 0.000000 0.000000 3.264100 
# 
# 
# High freq. dielectric constant tensor:
#      x y z
#    x 1.688910 0.000000 0.000000 
#    y 0.000000 1.696110 0.000000 
#    z 0.000000 0.000000 1.690340 
# 
# From -- ./inp_files/17117.got.cif
#   From: 2010.03.12/outbox.cif.g09.slc.cpg/sg65_9_cif.got.tgz:17117.got - 2010.04.10 20:52:16.
