data_PCOD8270817
_publ_section_title
;
Structure prediction by ZEFSAII (Michael W. Deem and Ramdas Pophale) SiO2 
 PCOD8270817
Probable space group: C M M M
;
_chemical_formula_sum "Si O2"
_cell_formula_units_Z 104
_cell_length_a 28.591281
_cell_length_b 8.843412
_cell_length_c 22.763659
_cell_angle_alpha 90.000000
_cell_angle_beta 90.000000
_cell_angle_gamma 90.000000
_cell_volume 5755.665466
_symmetry_space_group_name_H-M "C M M M"
_symmetry_group_IT_number 65
_symmetry_cell_setting 'orthorhombic'
loop_
_space_group_symop_operation_xyz
x,y,z
-x,-y,z
x,-y,-z
-x,y,-z
-x,-y,-z
x,y,-z
-x,y,z
x,-y,z
1/2+x,1/2+y,z
1/2-x,1/2-y,z
1/2+x,1/2-y,-z
1/2-x,1/2+y,-z
1/2-x,1/2-y,-z
1/2+x,1/2+y,-z
1/2-x,1/2+y,z
1/2+x,1/2-y,z
loop_
_atom_site_type_symbol
_atom_site_label
_atom_site_fract_x
_atom_site_fract_y
_atom_site_fract_z
Si Si1 0.448710 0.821319 0.777493
Si Si2 0.800941 0.678679 0.500000
Si Si3 0.948376 0.172687 0.654923
Si Si4 0.851251 0.176249 0.609146
Si Si5 0.143782 0.323931 0.835843
Si Si6 0.201810 0.822799 0.933136
Si Si7 0.300726 0.177823 0.282258
O O1 0.500000 0.762045 0.798100
O O2 0.438099 0.773765 0.711295
O O3 0.408131 0.761333 0.820518
O O4 0.446899 0.000000 0.777643
O O5 0.795622 0.500000 0.500000
O O6 0.750000 0.750000 0.500000
O O7 0.828884 0.729460 0.442925
O O8 0.907609 0.201529 0.607112
O O9 0.000000 0.210038 0.628031
O O10 0.946434 0.000000 0.676427
O O11 0.832759 0.237449 0.670815
O O12 0.838246 0.000000 0.601949
O O13 0.142991 0.500000 0.851590
O O14 0.159566 0.233320 0.893008
O O15 0.178254 0.291780 0.781785
O O16 0.250000 0.750000 0.910812
O O17 0.207424 0.000000 0.926819
O O18 0.191012 0.773941 0.000000
O O19 0.250000 0.250000 0.284942
O O20 0.298483 0.000000 0.296914
#
# Coordination Sequence:
#
# PCOD8270817 Si02
#       7
#    16   8  16  16  16  16  16
#     4   9  17  31  52  79 111 143 176 216 264 317
#     4  12  26  44  63  80 105 141 184 227 269 322
#     4   9  18  33  55  83 112 142 176 215 263 318
#     4  11  22  38  59  82 109 142 180 221 266 317
#     4  10  20  33  52  80 110 141 178 220 267 319
#     4  10  21  36  54  76 104 141 183 225 270 321
#     4  11  22  35  51  77 110 141 176 218 269 320
#
# _framework density 18.069154000000001
#
# number of rings (size 3 to 8) (size 9 to 14) (size 15 to 20)
#    0.000    1.846    1.538    3.000    0.000    4.615 
#    0.000    0.385    0.000    2.769    0.000    3.231 
#    0.000    0.000    0.000    0.000    0.000    0.000 
#
# Total GULP energy -644765.994161 kJ/mol
# GULP energy per Si atom -12399.346042 kJ/mol
# Density = 1.802803 g / cm^3
# Si number density = 18.069154 Si / 1000 Ang^3
#
#
#
# Elastic Constant Matrix: (Units=GPa)
#
#
# Indices 1 2 3 4 5 6 
#
# 1 150.9884 43.4283 54.4588 0.0000 0.0000 0.0000
# 2 43.4283 66.7349 33.5718 0.0000 0.0000 0.0000
# 3 54.4588 33.5718 79.3056 0.0000 0.0000 0.0000
# 4 0.0000 0.0000 0.0000 30.8712 0.0000 0.0000
# 5 0.0000 0.0000 0.0000 0.0000 25.3265 0.0000
# 6 0.0000 0.0000 0.0000 0.0000 0.0000 21.2204
#
#
#
# Elastic Compliance Matrix: (Units=1/GPa)
#
#
# Indices 1 2 3 4 5 6 
#
# 1 0.009462 -0.003670 -0.004944 0.000000 0.000000 0.000000
# 2 -0.003670 0.020463 -0.006142 0.000000 0.000000 0.000000
# 3 -0.004944 -0.006142 0.018604 0.000000 0.000000 0.000000
# 4 0.000000 0.000000 0.000000 0.032393 0.000000 0.000000
# 5 0.000000 0.000000 0.000000 0.000000 0.039484 0.000000
# 6 0.000000 0.000000 0.000000 0.000000 0.000000 0.047125
#
#
# Mechanical properties :
#
#
# Convention : Reuss Voigt Hill
#
# Bulk Modulus (GPa) = 52.58443 62.21632 57.40038
# Shear Modulus (GPa) = 24.58432 26.52161 25.55296
#
# Velocity S-wave (km/s) = 3.69259 3.83532 3.76463
# Velocity P-wave (km/s) = 6.88079 7.35663 7.12268
#
# Compressibility (1/GPa) = 0.01901704
#
# Stress axis : x y z
#
# Youngs Moduli (GPa) = 105.68803 48.86860 53.75116
#
# Poissons Ratio (x) = 0.17937 0.26573
# Poissons Ratio (y) = 0.38792 0.33014
# Poissons Ratio (z) = 0.52248 0.30015
#
# Static dielectric constant tensor:
#      x y z
#    x 3.798810 0.000000 0.000000 
#    y 0.000000 3.402890 0.000000 
#    z 0.000000 0.000000 3.444990 
# 
# 
# High freq. dielectric constant tensor:
#      x y z
#    x 1.715860 0.000000 0.000000 
#    y 0.000000 1.706150 0.000000 
#    z 0.000000 0.000000 1.676960 
# 
# From -- ./inp_files/60449.got.cif
#   From: 2010.03.12/outbox.cif.g09.slc.cpg/sg65_31_cif.got.tgz:60449.got - 2010.04.10 20:52:16.
