data_PCOD8270282
_publ_section_title
;
Structure prediction by ZEFSAII (Michael W. Deem and Ramdas Pophale) SiO2 
 PCOD8270282
Probable space group: C M M M
;
_chemical_formula_sum "Si O2"
_cell_formula_units_Z 64
_cell_length_a 22.456443
_cell_length_b 16.835938
_cell_length_c 8.674846
_cell_angle_alpha 90.000000
_cell_angle_beta 90.000000
_cell_angle_gamma 90.000000
_cell_volume 3279.744848
_symmetry_space_group_name_H-M "C M M M"
_symmetry_group_IT_number 65
_symmetry_cell_setting 'orthorhombic'
loop_
_space_group_symop_operation_xyz
x,y,z
-x,-y,z
x,-y,-z
-x,y,-z
-x,-y,-z
x,y,-z
-x,y,z
x,-y,z
1/2+x,1/2+y,z
1/2-x,1/2-y,z
1/2+x,1/2-y,-z
1/2-x,1/2+y,-z
1/2-x,1/2-y,-z
1/2+x,1/2+y,-z
1/2-x,1/2+y,z
1/2+x,1/2-y,z
loop_
_atom_site_type_symbol
_atom_site_label
_atom_site_fract_x
_atom_site_fract_y
_atom_site_fract_z
Si Si1 0.857820 0.351976 0.683371
Si Si2 0.731931 0.589525 0.316522
Si Si3 0.000000 0.090711 0.817847
Si Si4 0.066916 0.500000 0.683974
Si Si5 0.613980 0.323110 0.316724
O O1 0.856914 0.354017 0.500000
O O2 0.790621 0.365109 0.745093
O O3 0.899986 0.421781 0.747708
O O4 0.883360 0.267920 0.740909
O O5 0.732197 0.588737 0.500000
O O6 0.731867 0.500000 0.251850
O O7 0.673489 0.634073 0.255365
O O8 0.942208 0.134715 0.756333
O O9 0.000000 0.000000 0.757675
O O10 0.000000 0.093702 0.000000
O O11 0.067440 0.500000 0.500000
O O12 0.000000 0.500000 0.748655
O O13 0.608761 0.328404 0.500000
#
# Coordination Sequence:
#
# PCOD8270282 Si02
#       5
#    16  16   8   8  16
#     4   9  16  27  44  73 112 145 172 209 259 310
#     4   9  15  26  45  73 110 145 171 208 263 312
#     4  11  25  43  57  72 101 140 176 209 261 325
#     4   9  16  24  38  64 108 153 178 201 249 314
#     4  10  20  32  54  83 107 132 174 225 265 301
#
# _framework density 19.513712999999999
#
# number of rings (size 3 to 8) (size 9 to 14) (size 15 to 20)
#    0.000    2.500    1.250    1.875    1.750    5.000 
#    0.000    0.000    0.000    3.000    0.000    1.750 
#    0.000    0.000    0.000    0.000    0.000    0.000 
#
# Total GULP energy -396757.979717 kJ/mol
# GULP energy per Si atom -12398.686866 kJ/mol
# Density = 1.946930 g / cm^3
# Si number density = 19.513713 Si / 1000 Ang^3
#
#
#
# Elastic Constant Matrix: (Units=GPa)
#
#
# Indices 1 2 3 4 5 6 
#
# 1 213.0635 116.9425 20.7297 0.0000 0.0000 0.0000
# 2 116.9425 209.6102 22.2858 0.0000 0.0000 0.0000
# 3 20.7297 22.2858 14.7128 0.0000 0.0000 0.0000
# 4 0.0000 0.0000 0.0000 9.4390 0.0000 0.0000
# 5 0.0000 0.0000 0.0000 0.0000 -2.7711 0.0000
# 6 0.0000 0.0000 0.0000 0.0000 0.0000 41.7459
#
#
#
# Elastic Compliance Matrix: (Units=1/GPa)
#
#
# Indices 1 2 3 4 5 6 
#
# 1 0.007030 -0.003420 -0.004725 0.000000 0.000000 0.000000
# 2 -0.003420 0.007350 -0.006315 0.000000 0.000000 0.000000
# 3 -0.004725 -0.006315 0.084191 0.000000 0.000000 0.000000
# 4 0.000000 0.000000 0.000000 0.105944 0.000000 0.000000
# 5 0.000000 0.000000 0.000000 0.000000 -0.360872 0.000000
# 6 0.000000 0.000000 0.000000 0.000000 0.000000 0.023954
#
#
# Mechanical properties :
#
#
# Convention : Reuss Voigt Hill
#
# Bulk Modulus (GPa) = 14.35717 84.14471 49.25094
# Shear Modulus (GPa) = -62.29393 28.17800 -17.05797
#
# Velocity S-wave (km/s) = -5.65619 3.80414 -2.95982
# Velocity P-wave (km/s) = 5.93996 7.90631 3.68962
#
# Compressibility (1/GPa) = 0.06965159
#
# Stress axis : x y z
#
# Youngs Moduli (GPa) = 142.24457 136.05291 11.87771
#
# Poissons Ratio (x) = 0.46527 0.05612
# Poissons Ratio (y) = 0.48644 0.07501
# Poissons Ratio (z) = 0.67213 0.85918
#
# Static dielectric constant tensor:
#      x y z
#    x 3.801710 0.000000 0.000000 
#    y 0.000000 3.926220 0.000000 
#    z 0.000000 0.000000 2.798620 
# 
# 
# High freq. dielectric constant tensor:
#      x y z
#    x 1.778270 0.000000 0.000000 
#    y 0.000000 1.780760 0.000000 
#    z 0.000000 0.000000 1.679880 
# 
# From -- ./inp_files/6768.got.cif
#   From: 2010.03.12/outbox.cif.g09.slc.cpg/sg65_4_cif.got.tgz:6768.got - 2010.04.10 20:52:16.
