data_PCOD8270611
_publ_section_title
;
Structure prediction by ZEFSAII (Michael W. Deem and Ramdas Pophale) SiO2 
 PCOD8270611
Probable space group: C M M M
;
_chemical_formula_sum "Si O2"
_cell_formula_units_Z 88
_cell_length_a 28.310859
_cell_length_b 8.997613
_cell_length_c 19.244519
_cell_angle_alpha 90.000000
_cell_angle_beta 90.000000
_cell_angle_gamma 90.000000
_cell_volume 4902.159269
_symmetry_space_group_name_H-M "C M M M"
_symmetry_group_IT_number 65
_symmetry_cell_setting 'orthorhombic'
loop_
_space_group_symop_operation_xyz
x,y,z
-x,-y,z
x,-y,-z
-x,y,-z
-x,-y,-z
x,y,-z
-x,y,z
x,-y,z
1/2+x,1/2+y,z
1/2-x,1/2-y,z
1/2+x,1/2-y,-z
1/2-x,1/2+y,-z
1/2-x,1/2-y,-z
1/2+x,1/2+y,-z
1/2-x,1/2+y,z
1/2+x,1/2-y,z
loop_
_atom_site_type_symbol
_atom_site_label
_atom_site_fract_x
_atom_site_fract_y
_atom_site_fract_z
Si Si1 0.619130 0.174339 0.076498
Si Si2 0.634561 0.672715 0.717587
Si Si3 0.299866 0.176441 0.820330
Si Si4 0.945467 0.325519 0.801267
Si Si5 0.000000 0.663461 0.417860
Si Si6 0.592820 0.328820 0.422643
O O1 0.665561 0.229248 0.117739
O O2 0.572377 0.214219 0.120763
O O3 0.623118 0.000000 0.066820
O O4 0.616552 0.250256 0.000000
O O5 0.640281 0.500000 0.737008
O O6 0.678711 0.764212 0.747747
O O7 0.584762 0.731548 0.746809
O O8 0.634408 0.696185 0.633701
O O9 0.250000 0.250000 0.835590
O O10 0.294798 0.000000 0.815532
O O11 0.937300 0.500000 0.786675
O O12 0.000000 0.280023 0.794347
O O13 0.953024 0.745380 0.393065
O O14 0.000000 0.500000 0.383633
O O15 0.000000 0.654475 0.500000
O O16 0.608407 0.272536 0.500000
O O17 0.578511 0.500000 0.426787
#
# Coordination Sequence:
#
# PCOD8270611 Si02
#       6
#    16  16  16  16   8  16
#     4   8  15  29  49  74 102 130 163 201 241 289
#     4  10  20  33  51  73  97 129 168 207 249 295
#     4  10  20  35  55  77 101 127 158 199 248 298
#     4   9  18  31  47  70 101 137 172 207 245 284
#     4   9  17  27  41  65  95 127 162 199 240 285
#     4   9  18  32  48  67  95 130 167 206 248 293
#
# _framework density 17.951273
#
# number of rings (size 3 to 8) (size 9 to 14) (size 15 to 20)
#    0.000    2.818    0.000    2.455    1.273    3.636 
#    0.000    1.818    0.000   13.636    0.000    5.091 
#    0.000    0.000    0.000    0.000    0.000    0.000 
#
# Total GULP energy -545359.990993 kJ/mol
# GULP energy per Si atom -12394.545250 kJ/mol
# Density = 1.791042 g / cm^3
# Si number density = 17.951273 Si / 1000 Ang^3
#
#
#
# Elastic Constant Matrix: (Units=GPa)
#
#
# Indices 1 2 3 4 5 6 
#
# 1 65.4452 16.0943 10.1477 0.0000 0.0000 0.0000
# 2 16.0943 58.4315 19.4583 0.0000 0.0000 0.0000
# 3 10.1477 19.4583 88.0788 0.0000 0.0000 0.0000
# 4 0.0000 0.0000 0.0000 17.4115 0.0000 0.0000
# 5 0.0000 0.0000 0.0000 0.0000 17.0940 0.0000
# 6 0.0000 0.0000 0.0000 0.0000 0.0000 29.3860
#
#
#
# Elastic Compliance Matrix: (Units=1/GPa)
#
#
# Indices 1 2 3 4 5 6 
#
# 1 0.016466 -0.004214 -0.000966 0.000000 0.000000 0.000000
# 2 -0.004214 0.019551 -0.003834 0.000000 0.000000 0.000000
# 3 -0.000966 -0.003834 0.012312 0.000000 0.000000 0.000000
# 4 0.000000 0.000000 0.000000 0.057433 0.000000 0.000000
# 5 0.000000 0.000000 0.000000 0.000000 0.058500 0.000000
# 6 0.000000 0.000000 0.000000 0.000000 0.000000 0.034030
#
#
# Mechanical properties :
#
#
# Convention : Reuss Voigt Hill
#
# Bulk Modulus (GPa) = 33.00132 33.70624 33.35378
# Shear Modulus (GPa) = 22.08283 23.86198 22.97240
#
# Velocity S-wave (km/s) = 3.51116 3.64986 3.58118
# Velocity P-wave (km/s) = 5.90435 6.04808 5.97665
#
# Compressibility (1/GPa) = 0.03030181
#
# Stress axis : x y z
#
# Youngs Moduli (GPa) = 60.73127 51.14735 81.22325
#
# Poissons Ratio (x) = 0.21552 0.07848
# Poissons Ratio (y) = 0.25590 0.31139
# Poissons Ratio (z) = 0.05868 0.19609
#
# Static dielectric constant tensor:
#      x y z
#    x 3.155380 0.000000 0.000000 
#    y 0.000000 3.249940 0.000000 
#    z 0.000000 0.000000 3.642900 
# 
# 
# High freq. dielectric constant tensor:
#      x y z
#    x 1.671310 0.000000 0.000000 
#    y 0.000000 1.682940 0.000000 
#    z 0.000000 0.000000 1.701180 
# 
# From -- ./inp_files/60693.got.cif
#   From: 2010.03.12/outbox.cif.g09.slc.cpg/sg65_31_cif.got.tgz:60693.got - 2010.04.10 20:52:16.
