data_PCOD8270562
_publ_section_title
;
Structure prediction by ZEFSAII (Michael W. Deem and Ramdas Pophale) SiO2 
 PCOD8270562
Probable space group: C M M M
;
_chemical_formula_sum "Si O2"
_cell_formula_units_Z 64
_cell_length_a 7.869411
_cell_length_b 28.655992
_cell_length_c 16.935999
_cell_angle_alpha 90.000000
_cell_angle_beta 90.000000
_cell_angle_gamma 90.000000
_cell_volume 3819.165642
_symmetry_space_group_name_H-M "C M M M"
_symmetry_group_IT_number 65
_symmetry_cell_setting 'orthorhombic'
loop_
_space_group_symop_operation_xyz
x,y,z
-x,-y,z
x,-y,-z
-x,y,-z
-x,-y,-z
x,y,-z
-x,y,z
x,-y,z
1/2+x,1/2+y,z
1/2-x,1/2-y,z
1/2+x,1/2-y,-z
1/2-x,1/2+y,-z
1/2-x,1/2-y,-z
1/2+x,1/2+y,-z
1/2-x,1/2+y,z
1/2+x,1/2-y,z
loop_
_atom_site_type_symbol
_atom_site_label
_atom_site_fract_x
_atom_site_fract_y
_atom_site_fract_z
Si Si1 0.699751 0.200361 0.411814
Si Si2 0.804357 0.394981 0.655713
Si Si3 0.189746 0.053841 0.194136
Si Si4 0.500000 0.944596 0.088119
Si Si5 0.696836 0.554886 0.500000
O O1 0.780460 0.197370 0.500000
O O2 0.500000 0.195272 0.418386
O O3 0.750000 0.250000 0.372588
O O4 0.767419 0.157506 0.358921
O O5 0.694478 0.417441 0.724979
O O6 0.787995 0.424626 0.576427
O O7 0.000000 0.394636 0.682439
O O8 0.329555 0.072961 0.132422
O O9 0.000000 0.059351 0.157785
O O10 0.228506 0.000000 0.214638
O O11 0.500000 0.000000 0.083193
O O12 0.500000 0.923145 0.000000
O O13 0.723533 0.500000 0.500000
O O14 0.500000 0.568927 0.500000
#
# Coordination Sequence:
#
# PCOD8270562 Si02
#       5
#    16  16  16   8   8
#     4   9  18  32  47  65  89 121 165 210 252 294
#     4  11  20  33  49  67  95 132 169 207 251 294
#     4  10  20  33  50  74 103 135 168 205 248 294
#     4   9  18  34  54  75 101 133 165 200 248 302
#     4  11  23  33  42  63  92 127 176 216 242 287
#
# _framework density 16.757586
#
# number of rings (size 3 to 8) (size 9 to 14) (size 15 to 20)
#    0.000    2.000    2.500    1.875    0.000    6.500 
#    0.000    2.500    0.000    0.000    0.000    0.000 
#    0.000    1.000    0.500    0.000    0.000    0.000 
#
# Total GULP energy -396773.071925 kJ/mol
# GULP energy per Si atom -12399.158498 kJ/mol
# Density = 1.671945 g / cm^3
# Si number density = 16.757586 Si / 1000 Ang^3
#
#
#
# Elastic Constant Matrix: (Units=GPa)
#
#
# Indices 1 2 3 4 5 6 
#
# 1 80.6094 27.1496 36.4787 0.0000 0.0000 0.0000
# 2 27.1496 91.8550 34.8826 0.0000 0.0000 0.0000
# 3 36.4787 34.8826 101.0501 0.0000 0.0000 0.0000
# 4 0.0000 0.0000 0.0000 -2.0590 0.0000 0.0000
# 5 0.0000 0.0000 0.0000 0.0000 15.9668 0.0000
# 6 0.0000 0.0000 0.0000 0.0000 0.0000 20.7535
#
#
#
# Elastic Compliance Matrix: (Units=1/GPa)
#
#
# Indices 1 2 3 4 5 6 
#
# 1 0.015436 -0.002815 -0.004600 0.000000 0.000000 0.000000
# 2 -0.002815 0.013043 -0.003486 0.000000 0.000000 0.000000
# 3 -0.004600 -0.003486 0.012760 0.000000 0.000000 0.000000
# 4 0.000000 0.000000 0.000000 -0.485679 0.000000 0.000000
# 5 0.000000 0.000000 0.000000 0.000000 0.062630 0.000000
# 6 0.000000 0.000000 0.000000 0.000000 0.000000 0.048185
#
#
# Mechanical properties :
#
#
# Convention : Reuss Voigt Hill
#
# Bulk Modulus (GPa) = 51.45334 52.28179 51.86757
# Shear Modulus (GPa) = -16.37496 18.59919 1.11211
#
# Velocity S-wave (km/s) = -3.12936 3.33513 0.81553
# Velocity P-wave (km/s) = 4.20880 6.78950 5.64851
#
# Compressibility (1/GPa) = 0.01943509
#
# Stress axis : x y z
#
# Youngs Moduli (GPa) = 64.78569 76.67138 78.36888
#
# Poissons Ratio (x) = 0.21585 0.36052
# Poissons Ratio (y) = 0.18239 0.27320
# Poissons Ratio (z) = 0.29804 0.26728
#
# Static dielectric constant tensor:
#      x y z
#    x 3.220460 0.000000 0.000000 
#    y 0.000000 3.211900 0.000000 
#    z 0.000000 0.000000 3.006430 
# 
# 
# High freq. dielectric constant tensor:
#      x y z
#    x 1.658390 0.000000 0.000000 
#    y 0.000000 1.628170 0.000000 
#    z 0.000000 0.000000 1.609290 
# 
# From -- ./inp_files/36054.got.cif
#   From: 2010.03.12/outbox.cif.g09.slc.cpg/sg65_19_cif.got.tgz:36054.got - 2010.04.10 20:52:16.
