data_PCOD8270859
_publ_section_title
;
Structure prediction by ZEFSAII (Michael W. Deem and Ramdas Pophale) SiO2 
 PCOD8270859
Probable space group: C M M M
;
_chemical_formula_sum "Si O2"
_cell_formula_units_Z 96
_cell_length_a 23.843201
_cell_length_b 24.227983
_cell_length_c 8.471640
_cell_angle_alpha 90.000000
_cell_angle_beta 90.000000
_cell_angle_gamma 90.000000
_cell_volume 4893.834885
_symmetry_space_group_name_H-M "C M M M"
_symmetry_group_IT_number 65
_symmetry_cell_setting 'orthorhombic'
loop_
_space_group_symop_operation_xyz
x,y,z
-x,-y,z
x,-y,-z
-x,y,-z
-x,-y,-z
x,y,-z
-x,y,z
x,-y,z
1/2+x,1/2+y,z
1/2-x,1/2-y,z
1/2+x,1/2-y,-z
1/2-x,1/2+y,-z
1/2-x,1/2-y,-z
1/2+x,1/2+y,-z
1/2-x,1/2+y,z
1/2+x,1/2-y,z
loop_
_atom_site_type_symbol
_atom_site_label
_atom_site_fract_x
_atom_site_fract_y
_atom_site_fract_z
Si Si1 0.339711 0.937020 0.182677
Si Si2 0.563540 0.873711 0.684631
Si Si3 0.857290 0.841115 0.687669
Si Si4 0.936887 0.061610 0.312487
Si Si5 0.270277 0.158626 0.683227
Si Si6 0.632392 0.224115 0.816023
O O1 0.403888 0.921589 0.221317
O O2 0.298818 0.900447 0.289188
O O3 0.328407 0.000000 0.226993
O O4 0.327519 0.924846 0.000000
O O5 0.567785 0.885990 0.500000
O O6 0.500000 0.874216 0.744782
O O7 0.590156 0.814269 0.719337
O O8 0.862024 0.836765 0.500000
O O9 0.892896 0.893253 0.753372
O O10 0.793168 0.846751 0.744399
O O11 0.881940 0.786196 0.766127
O O12 0.935284 0.062207 0.500000
O O13 0.000000 0.076157 0.254512
O O14 0.920176 0.000000 0.252305
O O15 0.272090 0.174030 0.500000
O O16 0.303354 0.207256 0.774571
O O17 0.621853 0.215621 0.000000
#
# Coordination Sequence:
#
# PCOD8270859 Si02
#       6
#    16  16  16  16  16  16
#     4  10  21  36  54  77 107 142 177 216 264 317
#     4  10  21  37  57  79 104 137 177 221 266 310
#     4  10  20  33  53  81 107 134 174 218 259 309
#     4   8  15  30  52  77 104 132 164 206 254 301
#     4  10  20  34  53  76 105 139 175 220 266 308
#     4  11  22  35  53  76 106 141 174 213 262 316
#
# _framework density 19.616517999999999
#
# number of rings (size 3 to 8) (size 9 to 14) (size 15 to 20)
#    0.000    2.167    0.000    6.000    0.000    7.667 
#    0.000    5.000    0.000    0.500    0.000    1.167 
#    0.000    0.000    0.000    0.000    0.000    0.000 
#
# Total GULP energy -595229.108582 kJ/mol
# GULP energy per Si atom -12400.606429 kJ/mol
# Density = 1.957187 g / cm^3
# Si number density = 19.616518 Si / 1000 Ang^3
#
#
#
# Elastic Constant Matrix: (Units=GPa)
#
#
# Indices 1 2 3 4 5 6 
#
# 1 60.1707 16.4956 1.3690 0.0000 0.0000 0.0000
# 2 16.4956 112.3818 9.5081 0.0000 0.0000 0.0000
# 3 1.3690 9.5081 28.9801 0.0000 0.0000 0.0000
# 4 0.0000 0.0000 0.0000 23.6775 0.0000 0.0000
# 5 0.0000 0.0000 0.0000 0.0000 4.2472 0.0000
# 6 0.0000 0.0000 0.0000 0.0000 0.0000 23.6298
#
#
#
# Elastic Compliance Matrix: (Units=1/GPa)
#
#
# Indices 1 2 3 4 5 6 
#
# 1 0.017316 -0.002543 0.000016 0.000000 0.000000 0.000000
# 2 -0.002543 0.009526 -0.003005 0.000000 0.000000 0.000000
# 3 0.000016 -0.003005 0.035492 0.000000 0.000000 0.000000
# 4 0.000000 0.000000 0.000000 0.042234 0.000000 0.000000
# 5 0.000000 0.000000 0.000000 0.000000 0.235452 0.000000
# 6 0.000000 0.000000 0.000000 0.000000 0.000000 0.042319
#
#
# Mechanical properties :
#
#
# Convention : Reuss Voigt Hill
#
# Bulk Modulus (GPa) = 19.50466 28.47534 23.99000
# Shear Modulus (GPa) = 12.18048 21.92155 17.05102
#
# Velocity S-wave (km/s) = 2.49455 3.34654 2.95145
# Velocity P-wave (km/s) = 4.27336 5.42954 4.88577
#
# Compressibility (1/GPa) = 0.05126979
#
# Stress axis : x y z
#
# Youngs Moduli (GPa) = 57.74939 104.97838 28.17564
#
# Poissons Ratio (x) = 0.26697 -0.00046
# Poissons Ratio (y) = 0.14686 0.08467
# Poissons Ratio (z) = -0.00094 0.31548
#
# Static dielectric constant tensor:
#      x y z
#    x 3.743120 0.000000 0.000000 
#    y 0.000000 3.686910 0.000000 
#    z 0.000000 0.000000 3.330910 
# 
# 
# High freq. dielectric constant tensor:
#      x y z
#    x 1.761580 0.000000 0.000000 
#    y 0.000000 1.769860 0.000000 
#    z 0.000000 0.000000 1.748140 
# 
# From -- ./inp_files/14298.got.cif
#   From: 2010.03.12/outbox.cif.g09.slc.cpg/sg65_8_cif.got.tgz:14298.got - 2010.04.10 20:52:16.
