data_PCOD8270669
_publ_section_title
;
Structure prediction by ZEFSAII (Michael W. Deem and Ramdas Pophale) SiO2 
 PCOD8270669
Probable space group: C M M M
;
_chemical_formula_sum "Si O2"
_cell_formula_units_Z 96
_cell_length_a 9.009873
_cell_length_b 31.333946
_cell_length_c 18.725781
_cell_angle_alpha 90.000000
_cell_angle_beta 90.000000
_cell_angle_gamma 90.000000
_cell_volume 5286.566504
_symmetry_space_group_name_H-M "C M M M"
_symmetry_group_IT_number 65
_symmetry_cell_setting 'orthorhombic'
loop_
_space_group_symop_operation_xyz
x,y,z
-x,-y,z
x,-y,-z
-x,y,-z
-x,-y,-z
x,y,-z
-x,y,z
x,-y,z
1/2+x,1/2+y,z
1/2-x,1/2-y,z
1/2+x,1/2-y,-z
1/2-x,1/2+y,-z
1/2-x,1/2-y,-z
1/2+x,1/2+y,-z
1/2-x,1/2+y,z
1/2+x,1/2-y,z
loop_
_atom_site_type_symbol
_atom_site_label
_atom_site_fract_x
_atom_site_fract_y
_atom_site_fract_z
Si Si1 0.326486 0.207197 0.081256
Si Si2 0.170562 0.869208 0.336134
Si Si3 0.831887 0.045491 0.816303
Si Si4 0.666579 0.363512 0.166715
Si Si5 0.673504 0.793466 0.417322
Si Si6 0.672516 0.046942 0.329210
O O1 0.500000 0.214213 0.086966
O O2 0.250000 0.250000 0.110681
O O3 0.282529 0.167569 0.130080
O O4 0.275782 0.198137 0.000000
O O5 0.192413 0.864864 0.251393
O O6 0.263581 0.832233 0.372342
O O7 0.232208 0.914914 0.364659
O O8 0.000000 0.865163 0.359009
O O9 0.805152 0.088091 0.863792
O O10 0.712208 0.044430 0.753907
O O11 0.000000 0.049627 0.783877
O O12 0.818588 0.000000 0.859169
O O13 0.500000 0.348037 0.148371
O O14 0.709484 0.801919 0.500000
O O15 0.500000 0.789102 0.402701
O O16 0.750000 0.750000 0.390827
O O17 0.500000 0.058321 0.337395
O O18 0.706295 0.000000 0.363895
#
# Coordination Sequence:
#
# PCOD8270669 Si02
#       6
#    16  16  16  16  16  16
#     4  10  21  36  53  71  92 123 162 201 244 295
#     4  10  20  33  51  76 104 133 166 204 246 290
#     4   8  14  26  44  67  97 130 162 196 235 283
#     4   9  18  31  49  75 102 128 160 199 242 284
#     4  10  21  37  56  76  99 130 167 204 245 295
#     4   9  16  26  43  69 100 132 165 201 243 290
#
# _framework density 18.159234000000001
#
# number of rings (size 3 to 8) (size 9 to 14) (size 15 to 20)
#    0.000    2.667    0.000    3.000    0.000    7.000 
#    0.000    0.000    0.000    1.000    0.000    7.000 
#    0.000    0.000    0.000    0.000    0.000    0.000 
#
# Total GULP energy -594817.404443 kJ/mol
# GULP energy per Si atom -12392.029259 kJ/mol
# Density = 1.811790 g / cm^3
# Si number density = 18.159234 Si / 1000 Ang^3
#
#
#
# Elastic Constant Matrix: (Units=GPa)
#
#
# Indices 1 2 3 4 5 6 
#
# 1 79.5747 55.8990 22.7697 0.0000 0.0000 0.0000
# 2 55.8990 172.9107 39.3607 0.0000 0.0000 0.0000
# 3 22.7697 39.3607 28.3433 0.0000 0.0000 0.0000
# 4 0.0000 0.0000 0.0000 -16.0300 0.0000 0.0000
# 5 0.0000 0.0000 0.0000 0.0000 21.7726 0.0000
# 6 0.0000 0.0000 0.0000 0.0000 0.0000 36.8413
#
#
#
# Elastic Compliance Matrix: (Units=1/GPa)
#
#
# Indices 1 2 3 4 5 6 
#
# 1 0.017763 -0.003647 -0.009205 0.000000 0.000000 0.000000
# 2 -0.003647 0.009205 -0.009854 0.000000 0.000000 0.000000
# 3 -0.009205 -0.009854 0.056361 0.000000 0.000000 0.000000
# 4 0.000000 0.000000 0.000000 -0.062383 0.000000 0.000000
# 5 0.000000 0.000000 0.000000 0.000000 0.045929 0.000000
# 6 0.000000 0.000000 0.000000 0.000000 0.000000 0.027143
#
#
# Mechanical properties :
#
#
# Convention : Reuss Voigt Hill
#
# Bulk Modulus (GPa) = 26.37333 57.43194 41.90263
# Shear Modulus (GPa) = 32.87956 19.37004 26.12480
#
# Velocity S-wave (km/s) = 4.25976 3.26955 3.79707
# Velocity P-wave (km/s) = 6.22487 6.77855 6.50760
#
# Compressibility (1/GPa) = 0.03791710
#
# Stress axis : x y z
#
# Youngs Moduli (GPa) = 56.29782 108.63142 17.74273
#
# Poissons Ratio (x) = 0.39617 0.16332
# Poissons Ratio (y) = 0.20531 0.17484
# Poissons Ratio (z) = 0.51823 1.07045
#
# Static dielectric constant tensor:
#      x y z
#    x 3.410090 0.000000 0.000000 
#    y 0.000000 3.840730 0.000000 
#    z 0.000000 0.000000 2.858030 
# 
# 
# High freq. dielectric constant tensor:
#      x y z
#    x 1.714550 0.000000 0.000000 
#    y 0.000000 1.732470 0.000000 
#    z 0.000000 0.000000 1.639790 
# 
# From -- ./inp_files/60247.got.cif
#   From: 2010.03.12/outbox.cif.g09.slc.cpg/sg65_31_cif.got.tgz:60247.got - 2010.04.10 20:52:16.
