data_PCOD8270330
_publ_section_title
;
Structure prediction by ZEFSAII (Michael W. Deem and Ramdas Pophale) SiO2 
 PCOD8270330
Probable space group: C M M M
;
_chemical_formula_sum "Si O2"
_cell_formula_units_Z 104
_cell_length_a 23.790496
_cell_length_b 22.566875
_cell_length_c 9.436450
_cell_angle_alpha 90.000000
_cell_angle_beta 90.000000
_cell_angle_gamma 90.000000
_cell_volume 5066.214377
_symmetry_space_group_name_H-M "C M M M"
_symmetry_group_IT_number 65
_symmetry_cell_setting 'orthorhombic'
loop_
_space_group_symop_operation_xyz
x,y,z
-x,-y,z
x,-y,-z
-x,y,-z
-x,-y,-z
x,y,-z
-x,y,z
x,-y,z
1/2+x,1/2+y,z
1/2-x,1/2-y,z
1/2+x,1/2-y,-z
1/2-x,1/2+y,-z
1/2-x,1/2-y,-z
1/2+x,1/2+y,-z
1/2-x,1/2+y,z
1/2+x,1/2-y,z
loop_
_atom_site_type_symbol
_atom_site_label
_atom_site_fract_x
_atom_site_fract_y
_atom_site_fract_z
Si Si1 0.000000 0.570848 0.836174
Si Si2 0.391961 0.930087 0.661297
Si Si3 0.560529 0.766176 0.340338
Si Si4 0.340225 0.235202 0.158761
Si Si5 0.666448 0.631816 0.834297
Si Si6 0.561946 0.625388 0.660649
Si Si7 0.210874 0.384452 0.161023
O O1 0.055512 0.595078 0.753202
O O2 0.000000 0.500000 0.834832
O O3 0.000000 0.593399 0.000000
O O4 0.394680 0.905061 0.500000
O O5 0.332267 0.913919 0.731534
O O6 0.396341 0.000000 0.657133
O O7 0.570473 0.786783 0.500000
O O8 0.500000 0.788937 0.285380
O O9 0.609205 0.795196 0.247048
O O10 0.562248 0.695704 0.328174
O O11 0.324778 0.300038 0.218015
O O12 0.289805 0.187887 0.167567
O O13 0.362463 0.242771 0.000000
O O14 0.613582 0.600724 0.755461
O O15 0.724888 0.597786 0.798898
O O16 0.653630 0.628637 0.000000
O O17 0.572190 0.604431 0.500000
O O18 0.500000 0.602314 0.711779
O O19 0.196702 0.404977 0.000000
#
# Coordination Sequence:
#
# PCOD8270330 Si02
#       7
#     8  16  16  16  16  16  16
#     4   9  17  33  59  83  99 121 155 197 251 309
#     4  10  21  37  56  77 100 125 158 204 253 299
#     4   8  14  25  39  55  79 113 152 193 235 275
#     4   9  17  29  44  63  89 123 160 198 237 279
#     4   9  17  29  46  67  94 127 163 202 239 278
#     4   8  14  25  41  61  86 118 156 195 233 273
#     4  10  20  33  48  69  96 127 162 198 240 291
#
# _framework density 20.528148999999999
#
# number of rings (size 3 to 8) (size 9 to 14) (size 15 to 20)
#    0.000    3.000    0.000    2.077    0.000    5.538 
#    1.385    3.077    0.000    4.615    0.000    0.000 
#    0.000    0.615    0.000    6.769    0.000    5.231 
#
# Total GULP energy -644322.696124 kJ/mol
# GULP energy per Si atom -12390.821079 kJ/mol
# Density = 2.048143 g / cm^3
# Si number density = 20.528149 Si / 1000 Ang^3
#
#
#
# Elastic Constant Matrix: (Units=GPa)
#
#
# Indices 1 2 3 4 5 6 
#
# 1 183.7029 8.0029 93.9952 0.0000 0.0000 0.0000
# 2 8.0029 7.6418 3.7457 0.0000 0.0000 0.0000
# 3 93.9952 3.7457 113.0158 0.0000 0.0000 0.0000
# 4 0.0000 0.0000 0.0000 12.0851 0.0000 0.0000
# 5 0.0000 0.0000 0.0000 0.0000 30.2470 0.0000
# 6 0.0000 0.0000 0.0000 0.0000 0.0000 21.9063
#
#
#
# Elastic Compliance Matrix: (Units=1/GPa)
#
#
# Indices 1 2 3 4 5 6 
#
# 1 0.009770 -0.006352 -0.007916 0.000000 0.000000 0.000000
# 2 -0.006352 0.137150 0.000738 0.000000 0.000000 0.000000
# 3 -0.007916 0.000738 0.015407 0.000000 0.000000 0.000000
# 4 0.000000 0.000000 0.000000 0.082747 0.000000 0.000000
# 5 0.000000 0.000000 0.000000 0.000000 0.033061 0.000000
# 6 0.000000 0.000000 0.000000 0.000000 0.000000 0.045649
#
#
# Mechanical properties :
#
#
# Convention : Reuss Voigt Hill
#
# Bulk Modulus (GPa) = 7.39278 57.31648 32.35463
# Shear Modulus (GPa) = 12.62837 26.08878 19.35858
#
# Velocity S-wave (km/s) = 2.48296 3.56881 3.07420
# Velocity P-wave (km/s) = 3.43936 6.70547 5.32882
#
# Compressibility (1/GPa) = 0.13526713
#
# Stress axis : x y z
#
# Youngs Moduli (GPa) = 102.34943 7.29129 64.90459
#
# Poissons Ratio (x) = 0.04632 0.51376
# Poissons Ratio (y) = 0.65015 -0.04787
# Poissons Ratio (z) = 0.81015 -0.00538
#
# Static dielectric constant tensor:
#      x y z
#    x 4.196370 0.000000 0.000000 
#    y 0.000000 3.162530 0.000000 
#    z 0.000000 0.000000 3.773010 
# 
# 
# High freq. dielectric constant tensor:
#      x y z
#    x 1.814170 0.000000 0.000000 
#    y 0.000000 1.754010 0.000000 
#    z 0.000000 0.000000 1.791930 
# 
# From -- ./inp_files/15042.got.cif
#   From: 2010.03.12/outbox.cif.g09.slc.cpg/sg65_8_cif.got.tgz:15042.got - 2010.04.10 20:52:16.
