data_PCOD8270893
_publ_section_title
;
Structure prediction by ZEFSAII (Michael W. Deem and Ramdas Pophale) SiO2 
 PCOD8270893
Probable space group: C M M M
;
_chemical_formula_sum "Si O2"
_cell_formula_units_Z 88
_cell_length_a 14.287807
_cell_length_b 23.373780
_cell_length_c 14.550596
_cell_angle_alpha 90.000000
_cell_angle_beta 90.000000
_cell_angle_gamma 90.000000
_cell_volume 4859.317877
_symmetry_space_group_name_H-M "C M M M"
_symmetry_group_IT_number 65
_symmetry_cell_setting 'orthorhombic'
loop_
_space_group_symop_operation_xyz
x,y,z
-x,-y,z
x,-y,-z
-x,y,-z
-x,-y,-z
x,y,-z
-x,y,z
x,-y,z
1/2+x,1/2+y,z
1/2-x,1/2-y,z
1/2+x,1/2-y,-z
1/2-x,1/2+y,-z
1/2-x,1/2-y,-z
1/2+x,1/2+y,-z
1/2-x,1/2+y,z
1/2+x,1/2-y,z
loop_
_atom_site_type_symbol
_atom_site_label
_atom_site_fract_x
_atom_site_fract_y
_atom_site_fract_z
Si Si1 0.698333 0.125156 0.602468
Si Si2 0.500000 0.826619 0.395007
Si Si3 0.317353 0.888556 0.108386
Si Si4 0.204343 0.812081 0.235760
Si Si5 0.500000 0.726069 0.749417
Si Si6 0.105582 0.500000 0.197210
Si Si7 0.000000 0.682381 0.895784
Si Si8 0.840041 0.500000 0.602836
O O1 0.719295 0.147611 0.500000
O O2 0.588999 0.133776 0.627821
O O3 0.759280 0.163057 0.669065
O O4 0.722613 0.057541 0.609951
O O5 0.500000 0.806073 0.500000
O O6 0.500000 0.769232 0.335777
O O7 0.229841 0.853924 0.150914
O O8 0.409566 0.853127 0.131147
O O9 0.332278 0.947548 0.161290
O O10 0.301147 0.898400 0.000000
O O11 0.250000 0.750000 0.217534
O O12 0.092960 0.812165 0.249443
O O13 0.500000 0.758497 0.844761
O O14 0.092973 0.500000 0.307891
O O15 0.000000 0.500000 0.154714
O O16 0.000000 0.700451 0.000000
O O17 0.890113 0.500000 0.500000
#
# Coordination Sequence:
#
# PCOD8270893 Si02
#       8
#    16   8  16  16   8   8   8   8
#     4  10  21  37  58  86 120 158 198 242 296 358
#     4  10  20  33  55  87 123 158 195 238 288 359
#     4  11  23  39  59  89 122 156 195 241 297 354
#     4  12  23  38  60  83 117 160 199 245 300 348
#     4  12  24  38  56  84 118 152 209 244 289 353
#     4  12  23  35  64  93 127 158 192 238 297 360
#     4  10  20  35  57  85 118 151 193 237 283 348
#     4  10  22  36  57  88 122 158 197 235 287 356
#
# _framework density 18.109537
#
# number of rings (size 3 to 8) (size 9 to 14) (size 15 to 20)
#    0.000    1.091    6.364    0.273    1.273    2.727 
#    0.000    0.000    0.000    2.182    0.000    3.182 
#    0.000    0.000    0.000    0.000    0.000    0.000 
#
# Total GULP energy -545454.430121 kJ/mol
# GULP energy per Si atom -12396.691594 kJ/mol
# Density = 1.806832 g / cm^3
# Si number density = 18.109537 Si / 1000 Ang^3
#
#
#
# Elastic Constant Matrix: (Units=GPa)
#
#
# Indices 1 2 3 4 5 6 
#
# 1 106.6094 49.8942 42.5954 0.0000 0.0000 0.0000
# 2 49.8942 112.5584 56.2167 0.0000 0.0000 0.0000
# 3 42.5954 56.2167 117.6606 0.0000 0.0000 0.0000
# 4 0.0000 0.0000 0.0000 7.9395 0.0000 0.0000
# 5 0.0000 0.0000 0.0000 0.0000 26.6719 0.0000
# 6 0.0000 0.0000 0.0000 0.0000 0.0000 24.2443
#
#
#
# Elastic Compliance Matrix: (Units=1/GPa)
#
#
# Indices 1 2 3 4 5 6 
#
# 1 0.012345 -0.004256 -0.002436 0.000000 0.000000 0.000000
# 2 -0.004256 0.013136 -0.004736 0.000000 0.000000 0.000000
# 3 -0.002436 -0.004736 0.011643 0.000000 0.000000 0.000000
# 4 0.000000 0.000000 0.000000 0.125953 0.000000 0.000000
# 5 0.000000 0.000000 0.000000 0.000000 0.037493 0.000000
# 6 0.000000 0.000000 0.000000 0.000000 0.000000 0.041247
#
#
# Mechanical properties :
#
#
# Convention : Reuss Voigt Hill
#
# Bulk Modulus (GPa) = 70.07591 70.47123 70.27357
# Shear Modulus (GPa) = 18.55787 24.31261 21.43524
#
# Velocity S-wave (km/s) = 3.20466 3.66803 3.44415
# Velocity P-wave (km/s) = 7.24380 7.54570 7.39629
#
# Compressibility (1/GPa) = 0.01427024
#
# Stress axis : x y z
#
# Youngs Moduli (GPa) = 81.00493 76.12776 85.88563
#
# Poissons Ratio (x) = 0.32397 0.20920
# Poissons Ratio (y) = 0.34473 0.40671
# Poissons Ratio (z) = 0.19731 0.36050
#
# Static dielectric constant tensor:
#      x y z
#    x 3.131290 0.000000 0.000000 
#    y 0.000000 3.379530 0.000000 
#    z 0.000000 0.000000 3.564490 
# 
# 
# High freq. dielectric constant tensor:
#      x y z
#    x 1.662760 0.000000 0.000000 
#    y 0.000000 1.702030 0.000000 
#    z 0.000000 0.000000 1.725220 
# 
# From -- ./inp_files/40278.got.cif
#   From: 2010.03.12/outbox.cif.g09.slc.cpg/sg65_21_cif.got.tgz:40278.got - 2010.04.10 20:52:16.
