data_PCOD8270384
_publ_section_title
;
Structure prediction by ZEFSAII (Michael W. Deem and Ramdas Pophale) SiO2 
 PCOD8270384
Probable space group: C M M M
;
_chemical_formula_sum "Si O2"
_cell_formula_units_Z 104
_cell_length_a 27.098324
_cell_length_b 8.772556
_cell_length_c 27.106952
_cell_angle_alpha 90.000000
_cell_angle_beta 90.000000
_cell_angle_gamma 90.000000
_cell_volume 6443.907046
_symmetry_space_group_name_H-M "C M M M"
_symmetry_group_IT_number 65
_symmetry_cell_setting 'orthorhombic'
loop_
_space_group_symop_operation_xyz
x,y,z
-x,-y,z
x,-y,-z
-x,y,-z
-x,-y,-z
x,y,-z
-x,y,z
x,-y,z
1/2+x,1/2+y,z
1/2-x,1/2-y,z
1/2+x,1/2-y,-z
1/2-x,1/2+y,-z
1/2-x,1/2-y,-z
1/2+x,1/2+y,-z
1/2-x,1/2+y,z
1/2+x,1/2-y,z
loop_
_atom_site_type_symbol
_atom_site_label
_atom_site_fract_x
_atom_site_fract_y
_atom_site_fract_z
Si Si1 0.645685 0.319481 0.094498
Si Si2 0.699164 0.676888 0.192833
Si Si3 0.804412 0.680262 0.000000
Si Si4 0.943264 0.677382 0.147536
Si Si5 0.944595 0.182045 0.657340
Si Si6 0.899593 0.819905 0.242053
Si Si7 0.441285 0.671412 0.447758
O O1 0.646057 0.500000 0.085448
O O2 0.682072 0.269541 0.138691
O O3 0.590248 0.268215 0.108219
O O4 0.664470 0.232544 0.046841
O O5 0.708309 0.500000 0.192119
O O6 0.750000 0.750000 0.209533
O O7 0.657314 0.722459 0.232234
O O8 0.750000 0.750000 0.000000
O O9 0.798813 0.500000 0.000000
O O10 0.929519 0.500000 0.145169
O O11 0.934723 0.736732 0.203013
O O12 0.000000 0.706041 0.132971
O O13 0.911378 0.238972 0.702831
O O14 0.923374 0.246871 0.604368
O O15 0.000000 0.241831 0.666768
O O16 0.944549 0.000000 0.654232
O O17 0.908938 0.000000 0.235984
O O18 0.425123 0.753912 0.500000
O O19 0.500000 0.667817 0.444616
O O20 0.420737 0.500000 0.450393
#
# Coordination Sequence:
#
# PCOD8270384 Si02
#       7
#    16  16   8  16  16  16  16
#     4  10  21  37  55  75  96 120 153 187 222 265
#     4   9  18  30  45  64  85 110 139 174 215 258
#     4  12  24  38  57  80 105 128 152 187 229 269
#     4  10  20  33  49  70  96 124 152 183 221 263
#     4   8  12  18  31  51  76 108 141 172 209 253
#     4   9  17  28  42  62  86 113 148 183 215 260
#     4   7   9  13  22  40  69 103 135 166 205 254
#
# _framework density 16.139277
#
# number of rings (size 3 to 8) (size 9 to 14) (size 15 to 20)
#    0.000    2.923    0.000    4.846    0.000    6.154 
#    0.000    0.385    0.000    2.308    0.000    0.000 
#    0.000    1.231    0.000    6.154    0.000    5.538 
#
# Total GULP energy -644245.345030 kJ/mol
# GULP energy per Si atom -12389.333558 kJ/mol
# Density = 1.610254 g / cm^3
# Si number density = 16.139277 Si / 1000 Ang^3
#
#
#
# Elastic Constant Matrix: (Units=GPa)
#
#
# Indices 1 2 3 4 5 6 
#
# 1 88.7645 27.6815 60.7073 0.0000 0.0000 0.0000
# 2 27.6815 45.4065 32.2733 0.0000 0.0000 0.0000
# 3 60.7073 32.2733 162.9752 0.0000 0.0000 0.0000
# 4 0.0000 0.0000 0.0000 8.2359 0.0000 0.0000
# 5 0.0000 0.0000 0.0000 0.0000 16.2881 0.0000
# 6 0.0000 0.0000 0.0000 0.0000 0.0000 23.1728
#
#
#
# Elastic Compliance Matrix: (Units=1/GPa)
#
#
# Indices 1 2 3 4 5 6 
#
# 1 0.016704 -0.006705 -0.004894 0.000000 0.000000 0.000000
# 2 -0.006705 0.028322 -0.003111 0.000000 0.000000 0.000000
# 3 -0.004894 -0.003111 0.008575 0.000000 0.000000 0.000000
# 4 0.000000 0.000000 0.000000 0.121420 0.000000 0.000000
# 5 0.000000 0.000000 0.000000 0.000000 0.061395 0.000000
# 6 0.000000 0.000000 0.000000 0.000000 0.000000 0.043154
#
#
# Mechanical properties :
#
#
# Convention : Reuss Voigt Hill
#
# Bulk Modulus (GPa) = 41.35510 59.83005 50.59257
# Shear Modulus (GPa) = 15.77037 21.30495 18.53766
#
# Velocity S-wave (km/s) = 3.12932 3.63722 3.39278
# Velocity P-wave (km/s) = 6.22385 7.40207 6.83839
#
# Compressibility (1/GPa) = 0.02418082
#
# Stress axis : x y z
#
# Youngs Moduli (GPa) = 59.86594 35.30841 116.61635
#
# Poissons Ratio (x) = 0.23673 0.57077
# Poissons Ratio (y) = 0.40138 0.36280
# Poissons Ratio (z) = 0.29301 0.10985
#
# Static dielectric constant tensor:
#      x y z
#    x 3.107570 0.000000 0.000000 
#    y 0.000000 2.832670 0.000000 
#    z 0.000000 0.000000 3.487210 
# 
# 
# High freq. dielectric constant tensor:
#      x y z
#    x 1.591640 0.000000 0.000000 
#    y 0.000000 1.595940 0.000000 
#    z 0.000000 0.000000 1.628700 
# 
# From -- ./inp_files/76011.got.cif
#   From: 2010.03.12/outbox.cif.g09.slc.cpg/sg65_39_cif.got.tgz:76011.got - 2010.04.10 20:52:16.
