data_PCOD8270340
_publ_section_title
;
Structure prediction by ZEFSAII (Michael W. Deem and Ramdas Pophale) SiO2 
 PCOD8270340
Probable space group: C M M M
;
_chemical_formula_sum "Si O2"
_cell_formula_units_Z 80
_cell_length_a 8.843754
_cell_length_b 23.400394
_cell_length_c 23.474786
_cell_angle_alpha 90.000000
_cell_angle_beta 90.000000
_cell_angle_gamma 90.000000
_cell_volume 4858.044239
_symmetry_space_group_name_H-M "C M M M"
_symmetry_group_IT_number 65
_symmetry_cell_setting 'orthorhombic'
loop_
_space_group_symop_operation_xyz
x,y,z
-x,-y,z
x,-y,-z
-x,y,-z
-x,-y,-z
x,y,-z
-x,y,z
x,-y,z
1/2+x,1/2+y,z
1/2-x,1/2-y,z
1/2+x,1/2-y,-z
1/2-x,1/2+y,-z
1/2-x,1/2-y,-z
1/2+x,1/2+y,-z
1/2-x,1/2+y,z
1/2+x,1/2-y,z
loop_
_atom_site_type_symbol
_atom_site_label
_atom_site_fract_x
_atom_site_fract_y
_atom_site_fract_z
Si Si1 0.326031 0.811154 0.330676
Si Si2 0.179489 0.500000 0.065720
Si Si3 0.823209 0.812306 0.438289
Si Si4 0.820526 0.885033 0.107093
Si Si5 0.177401 0.188761 0.000000
Si Si6 0.676602 0.187664 0.795811
O O1 0.500000 0.804263 0.345868
O O2 0.250000 0.750000 0.327150
O O3 0.248285 0.846116 0.383593
O O4 0.303394 0.838392 0.268102
O O5 0.244471 0.446012 0.098898
O O6 0.000000 0.500000 0.069380
O O7 0.234866 0.500000 0.000000
O O8 0.789978 0.842248 0.500000
O O9 0.750000 0.750000 0.439335
O O10 0.000000 0.806506 0.428317
O O11 0.760958 0.857634 0.165013
O O12 0.000000 0.892244 0.109241
O O13 0.767364 0.844968 0.055411
O O14 0.250000 0.250000 0.000000
O O15 0.000000 0.196712 0.000000
O O16 0.500000 0.192909 0.811887
O O17 0.750000 0.250000 0.803117
#
# Coordination Sequence:
#
# PCOD8270340 Si02
#       6
#    16   8  16  16   8  16
#     4   9  16  25  38  55  80 114 151 191 230 273
#     4  11  23  39  59  79  97 123 154 191 236 285
#     4   9  15  21  31  49  74 106 147 191 229 268
#     4  11  22  37  55  74  97 126 157 195 237 282
#     4  10  22  35  50  73  99 124 152 188 229 274
#     4  10  20  33  48  70  97 126 162 199 239 288
#
# _framework density 16.467531999999999
#
# number of rings (size 3 to 8) (size 9 to 14) (size 15 to 20)
#    0.000    2.100    1.000    4.500    0.000    7.200 
#    0.000    0.000    0.000    0.000    0.000    0.000 
#    0.000    0.000    0.000    0.900    0.000   17.200 
#
# Total GULP energy -495662.841418 kJ/mol
# GULP energy per Si atom -12391.571035 kJ/mol
# Density = 1.643005 g / cm^3
# Si number density = 16.467532 Si / 1000 Ang^3
#
#
#
# Elastic Constant Matrix: (Units=GPa)
#
#
# Indices 1 2 3 4 5 6 
#
# 1 96.4049 31.1203 58.7739 0.0000 0.0000 0.0000
# 2 31.1203 77.5720 44.9942 0.0000 0.0000 0.0000
# 3 58.7739 44.9942 148.4696 0.0000 0.0000 0.0000
# 4 0.0000 0.0000 0.0000 -0.4545 0.0000 0.0000
# 5 0.0000 0.0000 0.0000 0.0000 30.8521 0.0000
# 6 0.0000 0.0000 0.0000 0.0000 0.0000 21.8988
#
#
#
# Elastic Compliance Matrix: (Units=1/GPa)
#
#
# Indices 1 2 3 4 5 6 
#
# 1 0.014211 -0.002958 -0.004729 0.000000 0.000000 0.000000
# 2 -0.002958 0.016256 -0.003756 0.000000 0.000000 0.000000
# 3 -0.004729 -0.003756 0.009746 0.000000 0.000000 0.000000
# 4 0.000000 0.000000 0.000000 -2.200063 0.000000 0.000000
# 5 0.000000 0.000000 0.000000 0.000000 0.032413 0.000000
# 6 0.000000 0.000000 0.000000 0.000000 0.000000 0.045665
#
#
# Mechanical properties :
#
#
# Convention : Reuss Voigt Hill
#
# Bulk Modulus (GPa) = 57.71228 65.80260 61.75744
# Shear Modulus (GPa) = -2.43533 22.96314 10.26391
#
# Velocity S-wave (km/s) = -1.21741 3.73828 2.49927
# Velocity P-wave (km/s) = 5.75726 7.66021 6.77587
#
# Compressibility (1/GPa) = 0.01732733
#
# Stress axis : x y z
#
# Youngs Moduli (GPa) = 70.36808 61.51463 102.61016
#
# Poissons Ratio (x) = 0.18197 0.48526
# Poissons Ratio (y) = 0.20816 0.38535
# Poissons Ratio (z) = 0.33278 0.23102
#
# Static dielectric constant tensor:
#      x y z
#    x 3.270190 0.000000 0.000000 
#    y 0.000000 2.597290 0.000000 
#    z 0.000000 0.000000 4.310940 
# 
# 
# High freq. dielectric constant tensor:
#      x y z
#    x 1.655190 0.000000 0.000000 
#    y 0.000000 1.562460 0.000000 
#    z 0.000000 0.000000 1.661070 
# 
# From -- ./inp_files/59660.got.cif
#   From: 2010.03.12/outbox.cif.g09.slc.cpg/sg65_30_cif.got.tgz:59660.got - 2010.04.10 20:52:16.
