data_PCOD8270577
_publ_section_title
;
Structure prediction by ZEFSAII (Michael W. Deem and Ramdas Pophale) SiO2 
 PCOD8270577
Probable space group: C M M M
;
_chemical_formula_sum "Si O2"
_cell_formula_units_Z 56
_cell_length_a 8.855656
_cell_length_b 28.715746
_cell_length_c 12.213174
_cell_angle_alpha 90.000000
_cell_angle_beta 90.000000
_cell_angle_gamma 90.000000
_cell_volume 3105.770680
_symmetry_space_group_name_H-M "C M M M"
_symmetry_group_IT_number 65
_symmetry_cell_setting 'orthorhombic'
loop_
_space_group_symop_operation_xyz
x,y,z
-x,-y,z
x,-y,-z
-x,y,-z
-x,-y,-z
x,y,-z
-x,y,z
x,-y,z
1/2+x,1/2+y,z
1/2-x,1/2-y,z
1/2+x,1/2-y,-z
1/2-x,1/2+y,-z
1/2-x,1/2-y,-z
1/2+x,1/2+y,-z
1/2-x,1/2+y,z
1/2+x,1/2-y,z
loop_
_atom_site_type_symbol
_atom_site_label
_atom_site_fract_x
_atom_site_fract_y
_atom_site_fract_z
Si Si1 0.321434 0.123197 0.332047
Si Si2 0.678468 0.594657 0.875408
Si Si3 0.824918 0.700328 0.500000
Si Si4 0.678860 0.554575 0.500000
Si Si5 0.832391 0.500000 0.128597
O O1 0.500000 0.115336 0.329899
O O2 0.255949 0.130255 0.209252
O O3 0.277242 0.170758 0.393573
O O4 0.247292 0.078743 0.391831
O O5 0.500000 0.596195 0.864596
O O6 0.737214 0.544567 0.835397
O O7 0.728631 0.606363 0.000000
O O8 0.750000 0.750000 0.500000
O O9 0.000000 0.709914 0.500000
O O10 0.722712 0.500000 0.500000
O O11 0.500000 0.561578 0.500000
O O12 0.000000 0.500000 0.182898
O O13 0.851647 0.500000 0.000000
#
# Coordination Sequence:
#
# PCOD8270577 Si02
#       5
#    16  16   8   8   8
#     4  10  21  36  54  79 108 138 177 218 265 321
#     4  10  20  33  50  74 106 143 183 224 262 306
#     4   9  20  38  60  84 105 130 167 216 271 325
#     4  10  21  35  51  73 104 142 180 219 264 310
#     4   9  17  29  45  66  95 138 185 221 256 297
#
# _framework density 18.030951000000002
#
# number of rings (size 3 to 8) (size 9 to 14) (size 15 to 20)
#    0.000    2.286    0.000    3.429    2.000    8.000 
#    0.000    0.000    0.000    0.857    0.000    0.000 
#    0.000    0.000    0.000    0.000    0.000    0.000 
#
# Total GULP energy -347126.219647 kJ/mol
# GULP energy per Si atom -12397.364987 kJ/mol
# Density = 1.798991 g / cm^3
# Si number density = 18.030951 Si / 1000 Ang^3
#
#
#
# Elastic Constant Matrix: (Units=GPa)
#
#
# Indices 1 2 3 4 5 6 
#
# 1 93.9430 52.3034 57.9953 0.0000 0.0000 0.0000
# 2 52.3034 122.0514 65.1373 0.0000 0.0000 0.0000
# 3 57.9953 65.1373 141.7538 0.0000 0.0000 0.0000
# 4 0.0000 0.0000 0.0000 14.5217 0.0000 0.0000
# 5 0.0000 0.0000 0.0000 0.0000 33.6900 0.0000
# 6 0.0000 0.0000 0.0000 0.0000 0.0000 30.1152
#
#
#
# Elastic Compliance Matrix: (Units=1/GPa)
#
#
# Indices 1 2 3 4 5 6 
#
# 1 0.015855 -0.004415 -0.004458 0.000000 0.000000 0.000000
# 2 -0.004415 0.012085 -0.003747 0.000000 0.000000 0.000000
# 3 -0.004458 -0.003747 0.010600 0.000000 0.000000 0.000000
# 4 0.000000 0.000000 0.000000 0.068863 0.000000 0.000000
# 5 0.000000 0.000000 0.000000 0.000000 0.029682 0.000000
# 6 0.000000 0.000000 0.000000 0.000000 0.000000 0.033206
#
#
# Mechanical properties :
#
#
# Convention : Reuss Voigt Hill
#
# Bulk Modulus (GPa) = 75.18704 78.73557 76.96130
# Shear Modulus (GPa) = 25.00448 27.81952 26.41200
#
# Velocity S-wave (km/s) = 3.72795 3.93221 3.83144
# Velocity P-wave (km/s) = 7.76657 8.02359 7.89613
#
# Compressibility (1/GPa) = 0.01330016
#
# Stress axis : x y z
#
# Youngs Moduli (GPa) = 63.07130 82.74714 94.33997
#
# Poissons Ratio (x) = 0.36536 0.42055
# Poissons Ratio (y) = 0.27848 0.35347
# Poissons Ratio (z) = 0.28116 0.31003
#
# Static dielectric constant tensor:
#      x y z
#    x 3.409530 0.000000 0.000000 
#    y 0.000000 3.224480 0.000000 
#    z 0.000000 0.000000 3.612700 
# 
# 
# High freq. dielectric constant tensor:
#      x y z
#    x 1.713400 0.000000 0.000000 
#    y 0.000000 1.659960 0.000000 
#    z 0.000000 0.000000 1.705330 
# 
# From -- ./inp_files/20524.got.cif
#   From: 2010.03.12/outbox.cif.g09.slc.cpg/sg65_11_cif.got.tgz:20524.got - 2010.04.10 20:52:16.
