data_PCOD8270149
_publ_section_title
;
Structure prediction by ZEFSAII (Michael W. Deem and Ramdas Pophale) SiO2 
 PCOD8270149
Probable space group: C M M M
;
_chemical_formula_sum "Si O2"
_cell_formula_units_Z 88
_cell_length_a 9.151425
_cell_length_b 19.529029
_cell_length_c 27.821345
_cell_angle_alpha 90.000000
_cell_angle_beta 90.000000
_cell_angle_gamma 90.000000
_cell_volume 4972.187494
_symmetry_space_group_name_H-M "C M M M"
_symmetry_group_IT_number 65
_symmetry_cell_setting 'orthorhombic'
loop_
_space_group_symop_operation_xyz
x,y,z
-x,-y,z
x,-y,-z
-x,y,-z
-x,-y,-z
x,y,-z
-x,y,z
x,-y,z
1/2+x,1/2+y,z
1/2-x,1/2-y,z
1/2+x,1/2-y,-z
1/2-x,1/2+y,-z
1/2-x,1/2-y,-z
1/2+x,1/2+y,-z
1/2-x,1/2+y,z
1/2+x,1/2-y,z
loop_
_atom_site_type_symbol
_atom_site_label
_atom_site_fract_x
_atom_site_fract_y
_atom_site_fract_z
Si Si1 0.336158 0.081270 0.052916
Si Si2 0.827421 0.319942 0.215549
Si Si3 0.331474 0.419016 0.854590
Si Si4 0.834814 0.918521 0.500000
Si Si5 0.330217 0.182302 0.674339
Si Si6 0.670854 0.078306 0.593630
O O1 0.500000 0.107601 0.064706
O O2 0.224642 0.107799 0.093467
O O3 0.335730 0.000000 0.052314
O O4 0.287254 0.108266 0.000000
O O5 0.750000 0.250000 0.198519
O O6 0.763678 0.383532 0.186383
O O7 0.788626 0.335419 0.270944
O O8 0.000000 0.313524 0.206755
O O9 0.500000 0.398157 0.849368
O O10 0.308573 0.500000 0.849137
O O11 0.754683 0.890737 0.452389
O O12 0.000000 0.891282 0.500000
O O13 0.826492 0.000000 0.500000
O O14 0.500000 0.197243 0.669327
O O15 0.250000 0.250000 0.656112
O O16 0.280915 0.119386 0.641004
O O17 0.500000 0.085328 0.582923
O O18 0.715649 0.000000 0.603214
#
# Coordination Sequence:
#
# PCOD8270149 Si02
#       6
#    16  16  16   8  16  16
#     4   8  14  26  45  69  97 129 164 201 243 291
#     4  10  20  35  54  73  97 131 168 205 248 299
#     4  10  20  32  48  74 105 133 165 206 247 289
#     4   9  17  29  46  71 100 127 157 193 236 283
#     4   9  19  34  52  73  96 125 160 199 242 289
#     4   9  17  31  51  73  97 126 160 196 235 281
#
# _framework density 17.698447000000002
#
# number of rings (size 3 to 8) (size 9 to 14) (size 15 to 20)
#    0.000    2.818    0.000    1.909    0.000    4.727 
#    0.000    4.091    0.000    2.727    0.000    0.000 
#    0.000    0.000    0.000    0.000    0.000    0.000 
#
# Total GULP energy -545546.608029 kJ/mol
# GULP energy per Si atom -12398.786546 kJ/mol
# Density = 1.765816 g / cm^3
# Si number density = 17.698447 Si / 1000 Ang^3
#
#
#
# Elastic Constant Matrix: (Units=GPa)
#
#
# Indices 1 2 3 4 5 6 
#
# 1 88.3880 40.9595 59.8385 0.0000 0.0000 0.0000
# 2 40.9595 60.0381 55.3664 0.0000 0.0000 0.0000
# 3 59.8385 55.3664 122.1891 0.0000 0.0000 0.0000
# 4 0.0000 0.0000 0.0000 6.5842 0.0000 0.0000
# 5 0.0000 0.0000 0.0000 0.0000 27.2065 0.0000
# 6 0.0000 0.0000 0.0000 0.0000 0.0000 26.0920
#
#
#
# Elastic Compliance Matrix: (Units=1/GPa)
#
#
# Indices 1 2 3 4 5 6 
#
# 1 0.018657 -0.007391 -0.005788 0.000000 0.000000 0.000000
# 2 -0.007391 0.031540 -0.010672 0.000000 0.000000 0.000000
# 3 -0.005788 -0.010672 0.015854 0.000000 0.000000 0.000000
# 4 0.000000 0.000000 0.000000 0.151878 0.000000 0.000000
# 5 0.000000 0.000000 0.000000 0.000000 0.036756 0.000000
# 6 0.000000 0.000000 0.000000 0.000000 0.000000 0.038326
#
#
# Mechanical properties :
#
#
# Convention : Reuss Voigt Hill
#
# Bulk Modulus (GPa) = 54.49631 64.77156 59.63393
# Shear Modulus (GPa) = 14.41636 19.60661 17.01148
#
# Velocity S-wave (km/s) = 2.85714 3.33200 3.10366
# Velocity P-wave (km/s) = 6.46086 7.17494 6.82724
#
# Compressibility (1/GPa) = 0.01834987
#
# Stress axis : x y z
#
# Youngs Moduli (GPa) = 53.59907 31.70595 63.07533
#
# Poissons Ratio (x) = 0.23434 0.36507
# Poissons Ratio (y) = 0.39615 0.67313
# Poissons Ratio (z) = 0.31022 0.33836
#
# Static dielectric constant tensor:
#      x y z
#    x 3.353390 0.000000 0.000000 
#    y 0.000000 3.009760 0.000000 
#    z 0.000000 0.000000 3.558780 
# 
# 
# High freq. dielectric constant tensor:
#      x y z
#    x 1.688610 0.000000 0.000000 
#    y 0.000000 1.648990 0.000000 
#    z 0.000000 0.000000 1.694270 
# 
# From -- ./inp_files/73151.got.cif
#   From: 2010.03.12/outbox.cif.g09.slc.cpg/sg65_37_cif.got.tgz:73151.got - 2010.04.10 20:52:16.
