data_PCOD8270764
_publ_section_title
;
Structure prediction by ZEFSAII (Michael W. Deem and Ramdas Pophale) SiO2 
 PCOD8270764
Probable space group: C M M M
;
_chemical_formula_sum "Si O2"
_cell_formula_units_Z 72
_cell_length_a 9.525179
_cell_length_b 20.556219
_cell_length_c 20.000973
_cell_angle_alpha 90.000000
_cell_angle_beta 90.000000
_cell_angle_gamma 90.000000
_cell_volume 3916.223826
_symmetry_space_group_name_H-M "C M M M"
_symmetry_group_IT_number 65
_symmetry_cell_setting 'orthorhombic'
loop_
_space_group_symop_operation_xyz
x,y,z
-x,-y,z
x,-y,-z
-x,y,-z
-x,-y,-z
x,y,-z
-x,y,z
x,-y,z
1/2+x,1/2+y,z
1/2-x,1/2-y,z
1/2+x,1/2-y,-z
1/2-x,1/2+y,-z
1/2-x,1/2-y,-z
1/2+x,1/2+y,-z
1/2-x,1/2+y,z
1/2+x,1/2-y,z
loop_
_atom_site_type_symbol
_atom_site_label
_atom_site_fract_x
_atom_site_fract_y
_atom_site_fract_z
Si Si1 0.836871 0.185352 0.733810
Si Si2 0.351735 0.307148 0.000000
Si Si3 0.841180 0.113612 0.867265
Si Si4 0.162739 0.075257 0.626783
Si Si5 0.333162 0.000000 0.921445
Si Si6 0.842045 0.423168 0.500000
O O1 0.750000 0.250000 0.714542
O O2 0.796340 0.162250 0.808166
O O3 0.799852 0.123897 0.686887
O O4 0.000000 0.203939 0.728048
O O5 0.250000 0.250000 0.000000
O O6 0.333564 0.349858 0.064099
O O7 0.500000 0.271741 0.000000
O O8 0.726038 0.058587 0.877201
O O9 0.000000 0.086352 0.854004
O O10 0.257602 0.099669 0.565285
O O11 0.000000 0.081048 0.605860
O O12 0.196314 0.000000 0.647259
O O13 0.500000 0.000000 0.918727
O O14 0.283295 0.000000 0.000000
O O15 0.850636 0.500000 0.500000
O O16 0.000000 0.393369 0.500000
#
# Coordination Sequence:
#
# PCOD8270764 Si02
#       6
#    16   8  16  16   8   8
#     4  10  22  38  58  83 114 151 189 232 280 332
#     4  10  20  33  52  77 101 138 184 226 275 326
#     4  10  21  37  57  79 107 146 186 225 276 337
#     4   9  18  34  57  84 112 147 188 228 271 328
#     4  11  23  37  55  83 111 138 177 234 291 333
#     4   9  17  31  54  85 116 145 179 227 280 327
#
# _framework density 18.385058000000001
#
# number of rings (size 3 to 8) (size 9 to 14) (size 15 to 20)
#    0.000    2.222    1.111    1.333    1.556    4.444 
#    0.000    0.556    0.000    0.000    0.000    0.000 
#    0.000    0.000    0.000    0.000    0.000    0.000 
#
# Total GULP energy -446158.949219 kJ/mol
# GULP energy per Si atom -12393.304145 kJ/mol
# Density = 1.834321 g / cm^3
# Si number density = 18.385058 Si / 1000 Ang^3
#
#
#
# Elastic Constant Matrix: (Units=GPa)
#
#
# Indices 1 2 3 4 5 6 
#
# 1 96.7893 63.9154 48.4565 0.0000 0.0000 0.0000
# 2 63.9154 105.8808 48.8155 0.0000 0.0000 0.0000
# 3 48.4565 48.8155 120.8729 0.0000 0.0000 0.0000
# 4 0.0000 0.0000 0.0000 -6.0163 0.0000 0.0000
# 5 0.0000 0.0000 0.0000 0.0000 43.3441 0.0000
# 6 0.0000 0.0000 0.0000 0.0000 0.0000 35.0995
#
#
#
# Elastic Compliance Matrix: (Units=1/GPa)
#
#
# Indices 1 2 3 4 5 6 
#
# 1 0.018335 -0.009436 -0.003539 0.000000 0.000000 0.000000
# 2 -0.009436 0.016462 -0.002865 0.000000 0.000000 0.000000
# 3 -0.003539 -0.002865 0.010849 0.000000 0.000000 0.000000
# 4 0.000000 0.000000 0.000000 -0.166214 0.000000 0.000000
# 5 0.000000 0.000000 0.000000 0.000000 0.023071 0.000000
# 6 0.000000 0.000000 0.000000 0.000000 0.000000 0.028490
#
#
# Mechanical properties :
#
#
# Convention : Reuss Voigt Hill
#
# Bulk Modulus (GPa) = 71.61204 71.76865 71.69035
# Shear Modulus (GPa) = -153.04631 25.30916 -63.86858
#
# Velocity S-wave (km/s) = -9.13376 3.71430 -5.90041
# Velocity P-wave (km/s) = 8.49697 7.58392 2.70948
#
# Compressibility (1/GPa) = 0.01396413
#
# Stress axis : x y z
#
# Youngs Moduli (GPa) = 54.54091 60.74674 92.17215
#
# Poissons Ratio (x) = 0.57321 0.32623
# Poissons Ratio (y) = 0.51465 0.26411
# Poissons Ratio (z) = 0.19304 0.17406
#
# Static dielectric constant tensor:
#      x y z
#    x 3.596750 0.000000 0.000000 
#    y 0.000000 9.322780 0.000000 
#    z 0.000000 0.000000 3.474020 
# 
# 
# High freq. dielectric constant tensor:
#      x y z
#    x 1.713910 0.000000 0.000000 
#    y 0.000000 1.700520 0.000000 
#    z 0.000000 0.000000 1.718210 
# 
# From -- ./inp_files/59324.got.cif
#   From: 2010.03.12/outbox.cif.g09.slc.cpg/sg65_30_cif.got.tgz:59324.got - 2010.04.10 20:52:16.
