data_PCOD8270094
_publ_section_title
;
Structure prediction by ZEFSAII (Michael W. Deem and Ramdas Pophale) SiO2 
 PCOD8270094
Probable space group: C M M M
;
_chemical_formula_sum "Si O2"
_cell_formula_units_Z 88
_cell_length_a 20.814567
_cell_length_b 9.052824
_cell_length_c 24.405645
_cell_angle_alpha 90.000000
_cell_angle_beta 90.000000
_cell_angle_gamma 90.000000
_cell_volume 4598.770616
_symmetry_space_group_name_H-M "C M M M"
_symmetry_group_IT_number 65
_symmetry_cell_setting 'orthorhombic'
loop_
_space_group_symop_operation_xyz
x,y,z
-x,-y,z
x,-y,-z
-x,y,-z
-x,-y,-z
x,y,-z
-x,y,z
x,-y,z
1/2+x,1/2+y,z
1/2-x,1/2-y,z
1/2+x,1/2-y,-z
1/2-x,1/2+y,-z
1/2-x,1/2-y,-z
1/2+x,1/2+y,-z
1/2-x,1/2+y,z
1/2+x,1/2-y,z
loop_
_atom_site_type_symbol
_atom_site_label
_atom_site_fract_x
_atom_site_fract_y
_atom_site_fract_z
Si Si1 0.929433 0.324843 0.753733
Si Si2 0.137059 0.323821 0.939662
Si Si3 0.812987 0.325443 0.826428
Si Si4 0.000000 0.658673 0.936119
Si Si5 0.314705 0.671499 0.564213
Si Si6 0.926160 0.327454 0.629363
O O1 0.930431 0.500000 0.756064
O O2 0.874870 0.262314 0.794278
O O3 0.914594 0.275188 0.691783
O O4 0.000000 0.265093 0.772004
O O5 0.129609 0.500000 0.942168
O O6 0.184332 0.277742 0.890751
O O7 0.066682 0.256150 0.923043
O O8 0.160259 0.265518 0.000000
O O9 0.807429 0.500000 0.819316
O O10 0.750000 0.250000 0.801004
O O11 0.000000 0.500000 0.904349
O O12 0.000000 0.625838 0.000000
O O13 0.322011 0.700246 0.500000
O O14 0.308952 0.500000 0.578692
O O15 0.250000 0.750000 0.586508
O O16 0.378430 0.735835 0.591606
O O17 0.910823 0.500000 0.622394
O O18 0.000000 0.294938 0.612263
#
# Coordination Sequence:
#
# PCOD8270094 Si02
#       6
#    16  16  16   8  16  16
#     4   8  16  32  53  75  97 126 167 211 251 292
#     4   8  14  24  40  65  94 121 153 197 246 292
#     4  10  20  32  48  70  98 129 161 200 247 299
#     4   7  10  18  34  60  89 109 137 189 238 271
#     4  10  21  36  54  78 109 143 178 215 254 300
#     4   9  18  34  55  78 105 136 172 214 260 310
#
# _framework density 19.135549999999999
#
# number of rings (size 3 to 8) (size 9 to 14) (size 15 to 20)
#    0.000    3.182    0.000    2.727    1.273    2.909 
#    0.000    4.545    0.000    1.636    0.000    0.000 
#    0.000    2.182    0.000    0.000    0.000    0.000 
#
# Total GULP energy -545110.235968 kJ/mol
# GULP energy per Si atom -12388.868999 kJ/mol
# Density = 1.909200 g / cm^3
# Si number density = 19.135550 Si / 1000 Ang^3
#
#
#
# Elastic Constant Matrix: (Units=GPa)
#
#
# Indices 1 2 3 4 5 6 
#
# 1 154.0990 48.5218 68.3411 0.0000 0.0000 0.0000
# 2 48.5218 44.9507 37.1763 0.0000 0.0000 0.0000
# 3 68.3411 37.1763 77.3137 0.0000 0.0000 0.0000
# 4 0.0000 0.0000 0.0000 12.5952 0.0000 0.0000
# 5 0.0000 0.0000 0.0000 0.0000 25.3923 0.0000
# 6 0.0000 0.0000 0.0000 0.0000 0.0000 23.0154
#
#
#
# Elastic Compliance Matrix: (Units=1/GPa)
#
#
# Indices 1 2 3 4 5 6 
#
# 1 0.011816 -0.006834 -0.007158 0.000000 0.000000 0.000000
# 2 -0.006834 0.040888 -0.013620 0.000000 0.000000 0.000000
# 3 -0.007158 -0.013620 0.025811 0.000000 0.000000 0.000000
# 4 0.000000 0.000000 0.000000 0.079396 0.000000 0.000000
# 5 0.000000 0.000000 0.000000 0.000000 0.039382 0.000000
# 6 0.000000 0.000000 0.000000 0.000000 0.000000 0.043449
#
#
# Mechanical properties :
#
#
# Convention : Reuss Voigt Hill
#
# Bulk Modulus (GPa) = 42.93694 64.93796 53.93745
# Shear Modulus (GPa) = 16.46197 20.35551 18.40874
#
# Velocity S-wave (km/s) = 2.93624 3.26506 3.10501
# Velocity P-wave (km/s) = 5.82944 6.94432 6.41116
#
# Compressibility (1/GPa) = 0.02328997
#
# Stress axis : x y z
#
# Youngs Moduli (GPa) = 84.63139 24.45700 38.74316
#
# Poissons Ratio (x) = 0.16715 0.27734
# Poissons Ratio (y) = 0.57840 0.52767
# Poissons Ratio (z) = 0.60582 0.33310
#
# Static dielectric constant tensor:
#      x y z
#    x 3.832390 0.000000 0.000000 
#    y 0.000000 2.914380 0.000000 
#    z 0.000000 0.000000 3.557700 
# 
# 
# High freq. dielectric constant tensor:
#      x y z
#    x 1.758210 0.000000 0.000000 
#    y 0.000000 1.682010 0.000000 
#    z 0.000000 0.000000 1.740130 
# 
# From -- ./inp_files/71029.got.cif
#   From: 2010.03.12/outbox.cif.g09.slc.cpg/sg65_36_cif.got.tgz:71029.got - 2010.04.10 20:52:16.
