data_PCOD8270223
_publ_section_title
;
Structure prediction by ZEFSAII (Michael W. Deem and Ramdas Pophale) SiO2 
 PCOD8270223
Probable space group: C M M M
;
_chemical_formula_sum "Si O2"
_cell_formula_units_Z 88
_cell_length_a 29.579224
_cell_length_b 10.660383
_cell_length_c 14.751864
_cell_angle_alpha 90.000000
_cell_angle_beta 90.000000
_cell_angle_gamma 90.000000
_cell_volume 4651.644153
_symmetry_space_group_name_H-M "C M M M"
_symmetry_group_IT_number 65
_symmetry_cell_setting 'orthorhombic'
loop_
_space_group_symop_operation_xyz
x,y,z
-x,-y,z
x,-y,-z
-x,y,-z
-x,-y,-z
x,y,-z
-x,y,z
x,-y,z
1/2+x,1/2+y,z
1/2-x,1/2-y,z
1/2+x,1/2-y,-z
1/2-x,1/2+y,-z
1/2-x,1/2-y,-z
1/2+x,1/2+y,-z
1/2-x,1/2+y,z
1/2+x,1/2-y,z
loop_
_atom_site_type_symbol
_atom_site_label
_atom_site_fract_x
_atom_site_fract_y
_atom_site_fract_z
Si Si1 0.051239 0.000000 0.106895
Si Si2 0.627964 0.145775 0.721770
Si Si3 0.378201 0.290825 0.103500
Si Si4 0.712239 0.144920 0.603509
Si Si5 0.049669 0.649546 0.601089
Si Si6 0.723058 0.634175 0.895485
O O1 0.080133 0.878003 0.135527
O O2 0.000000 0.000000 0.148719
O O3 0.047245 0.000000 0.000000
O O4 0.624906 0.174493 0.828404
O O5 0.673914 0.189728 0.673763
O O6 0.585879 0.210042 0.669708
O O7 0.623616 0.000000 0.708951
O O8 0.330862 0.362478 0.113165
O O9 0.385007 0.243166 0.000000
O O10 0.694076 0.151534 0.500000
O O11 0.750000 0.250000 0.618607
O O12 0.728393 0.000000 0.622964
O O13 0.060951 0.697181 0.500000
O O14 0.051010 0.500000 0.602879
O O15 0.000000 0.696776 0.630784
O O16 0.738766 0.500000 0.852456
O O17 0.750000 0.750000 0.847345
O O18 0.737562 0.634251 0.000000
#
# Coordination Sequence:
#
# PCOD8270223 Si02
#       6
#     8  16  16  16  16  16
#     4   9  18  36  60  76  91 131 193 247 281 315
#     4  10  20  32  49  78 110 139 173 218 271 328
#     4  10  20  35  52  73 105 142 183 230 271 318
#     4   9  18  35  57  80 109 145 186 231 276 326
#     4   8  14  27  49  75 101 129 161 201 255 319
#     4   9  17  31  51  72  97 132 174 221 270 318
#
# _framework density 18.918043000000001
#
# number of rings (size 3 to 8) (size 9 to 14) (size 15 to 20)
#    0.000    2.818    0.909    1.091    0.000    4.727 
#    1.636    3.636    0.000    0.000    0.000    5.091 
#    0.000    2.909    0.000    0.000    0.000    0.000 
#
# Total GULP energy -545074.486711 kJ/mol
# GULP energy per Si atom -12388.056516 kJ/mol
# Density = 1.887498 g / cm^3
# Si number density = 18.918043 Si / 1000 Ang^3
#
#
#
# Elastic Constant Matrix: (Units=GPa)
#
#
# Indices 1 2 3 4 5 6 
#
# 1 125.1628 52.6184 50.0305 0.0000 0.0000 0.0000
# 2 52.6184 55.7367 22.0526 0.0000 0.0000 0.0000
# 3 50.0305 22.0526 96.3042 0.0000 0.0000 0.0000
# 4 0.0000 0.0000 0.0000 15.5790 0.0000 0.0000
# 5 0.0000 0.0000 0.0000 0.0000 16.0625 0.0000
# 6 0.0000 0.0000 0.0000 0.0000 0.0000 21.2315
#
#
#
# Elastic Compliance Matrix: (Units=1/GPa)
#
#
# Indices 1 2 3 4 5 6 
#
# 1 0.015210 -0.012352 -0.005073 0.000000 0.000000 0.000000
# 2 -0.012352 0.029760 -0.000398 0.000000 0.000000 0.000000
# 3 -0.005073 -0.000398 0.013110 0.000000 0.000000 0.000000
# 4 0.000000 0.000000 0.000000 0.064189 0.000000 0.000000
# 5 0.000000 0.000000 0.000000 0.000000 0.062257 0.000000
# 6 0.000000 0.000000 0.000000 0.000000 0.000000 0.047100
#
#
# Mechanical properties :
#
#
# Convention : Reuss Voigt Hill
#
# Bulk Modulus (GPa) = 44.57439 58.51184 51.54312
# Shear Modulus (GPa) = 18.19830 20.74140 19.46985
#
# Velocity S-wave (km/s) = 3.10490 3.31476 3.21155
# Velocity P-wave (km/s) = 6.03878 6.75621 6.40755
#
# Compressibility (1/GPa) = 0.02243441
#
# Stress axis : x y z
#
# Youngs Moduli (GPa) = 65.74477 33.60229 76.27486
#
# Poissons Ratio (x) = 0.41506 0.38697
# Poissons Ratio (y) = 0.81208 0.03034
# Poissons Ratio (z) = 0.33355 0.01336
#
# Static dielectric constant tensor:
#      x y z
#    x 3.838380 0.000000 0.000000 
#    y 0.000000 3.256950 0.000000 
#    z 0.000000 0.000000 3.418970 
# 
# 
# High freq. dielectric constant tensor:
#      x y z
#    x 1.739880 0.000000 0.000000 
#    y 0.000000 1.702090 0.000000 
#    z 0.000000 0.000000 1.722270 
# 
# From -- ./inp_files/46784.got.cif
#   From: 2010.03.12/outbox.cif.g09.slc.cpg/sg65_24_cif.got.tgz:46784.got - 2010.04.10 20:52:16.
