data_PCOD8270787
_publ_section_title
;
Structure prediction by ZEFSAII (Michael W. Deem and Ramdas Pophale) SiO2 
 PCOD8270787
Probable space group: C M M M
;
_chemical_formula_sum "Si O2"
_cell_formula_units_Z 120
_cell_length_a 25.527073
_cell_length_b 19.386144
_cell_length_c 12.495495
_cell_angle_alpha 90.000000
_cell_angle_beta 90.000000
_cell_angle_gamma 90.000000
_cell_volume 6183.664517
_symmetry_space_group_name_H-M "C M M M"
_symmetry_group_IT_number 65
_symmetry_cell_setting 'orthorhombic'
loop_
_space_group_symop_operation_xyz
x,y,z
-x,-y,z
x,-y,-z
-x,y,-z
-x,-y,-z
x,y,-z
-x,y,z
x,-y,z
1/2+x,1/2+y,z
1/2-x,1/2-y,z
1/2+x,1/2-y,-z
1/2-x,1/2+y,-z
1/2-x,1/2-y,-z
1/2+x,1/2+y,-z
1/2-x,1/2+y,z
1/2+x,1/2-y,z
loop_
_atom_site_type_symbol
_atom_site_label
_atom_site_fract_x
_atom_site_fract_y
_atom_site_fract_z
Si Si1 0.559546 0.420479 0.772924
Si Si2 0.777072 0.823420 0.284139
Si Si3 0.442769 0.817608 0.617958
Si Si4 0.059831 0.581661 0.000000
Si Si5 0.833554 0.078195 0.122884
Si Si6 0.595539 0.079421 0.770808
Si Si7 0.806614 0.421640 0.621955
Si Si8 0.111534 0.814350 0.376678
O O1 0.500000 0.399695 0.810312
O O2 0.559601 0.500000 0.738046
O O3 0.603897 0.406717 0.863688
O O4 0.578617 0.376996 0.671884
O O5 0.750000 0.750000 0.252753
O O6 0.796054 0.866188 0.180254
O O7 0.739403 0.868635 0.357260
O O8 0.826839 0.814827 0.359558
O O9 0.422186 0.840595 0.500000
O O10 0.500000 0.785350 0.606952
O O11 0.446512 0.882064 0.697703
O O12 0.406747 0.758913 0.671282
O O13 0.091729 0.606699 0.106052
O O14 0.057478 0.500000 0.000000
O O15 0.000000 0.610866 0.000000
O O16 0.821196 0.000000 0.163678
O O17 0.819202 0.085244 0.000000
O O18 0.651044 0.094194 0.714396
O O19 0.580232 0.000000 0.767785
O O20 0.827819 0.410452 0.500000
O O21 0.786369 0.500000 0.634630
O O22 0.097369 0.816589 0.500000
#
# Coordination Sequence:
#
# PCOD8270787 Si02
#       8
#    16  16  16   8  16  16  16  16
#     4   9  18  33  56  85 113 143 183 229 279 338
#     4  11  22  36  57  82 109 145 188 238 283 338
#     4  10  20  33  52  78 109 146 184 223 273 332
#     4   9  18  34  56  80 107 140 179 225 273 322
#     4   9  19  37  58  81 111 147 188 234 285 340
#     4  10  20  35  55  80 109 142 182 228 275 325
#     4  10  21  37  57  82 114 148 185 233 283 333
#     4  10  21  36  54  78 112 149 183 225 279 337
#
# _framework density 19.405968000000001
#
# number of rings (size 3 to 8) (size 9 to 14) (size 15 to 20)
#    0.000    2.200    0.000    2.800    0.000    5.867 
#    1.200    2.667   11.733    0.000    0.000    0.000 
#    0.000    0.000    0.000    0.000    0.000    0.000 
#
# Total GULP energy -743440.536201 kJ/mol
# GULP energy per Si atom -12390.675603 kJ/mol
# Density = 1.936180 g / cm^3
# Si number density = 19.405968 Si / 1000 Ang^3
#
#
#
# Elastic Constant Matrix: (Units=GPa)
#
#
# Indices 1 2 3 4 5 6 
#
# 1 102.6692 53.5227 43.4593 0.0000 0.0000 0.0000
# 2 53.5227 90.5268 48.9881 0.0000 0.0000 0.0000
# 3 43.4593 48.9881 115.8384 0.0000 0.0000 0.0000
# 4 0.0000 0.0000 0.0000 18.5684 0.0000 0.0000
# 5 0.0000 0.0000 0.0000 0.0000 19.9056 0.0000
# 6 0.0000 0.0000 0.0000 0.0000 0.0000 34.3599
#
#
#
# Elastic Compliance Matrix: (Units=1/GPa)
#
#
# Indices 1 2 3 4 5 6 
#
# 1 0.014562 -0.007331 -0.002363 0.000000 0.000000 0.000000
# 2 -0.007331 0.018015 -0.004868 0.000000 0.000000 0.000000
# 3 -0.002363 -0.004868 0.011578 0.000000 0.000000 0.000000
# 4 0.000000 0.000000 0.000000 0.053855 0.000000 0.000000
# 5 0.000000 0.000000 0.000000 0.000000 0.050237 0.000000
# 6 0.000000 0.000000 0.000000 0.000000 0.000000 0.029104
#
#
# Mechanical properties :
#
#
# Convention : Reuss Voigt Hill
#
# Bulk Modulus (GPa) = 66.52971 66.77495 66.65233
# Shear Modulus (GPa) = 23.64228 25.43772 24.54000
#
# Velocity S-wave (km/s) = 3.49420 3.62445 3.55992
# Velocity P-wave (km/s) = 7.11595 7.21108 7.16368
#
# Compressibility (1/GPa) = 0.01503088
#
# Stress axis : x y z
#
# Youngs Moduli (GPa) = 68.67235 55.50882 86.37026
#
# Poissons Ratio (x) = 0.40692 0.20409
# Poissons Ratio (y) = 0.50342 0.42048
# Poissons Ratio (z) = 0.16227 0.27023
#
# Static dielectric constant tensor:
#      x y z
#    x 3.599430 0.000000 0.000000 
#    y 0.000000 3.637420 0.000000 
#    z 0.000000 0.000000 3.547910 
# 
# 
# High freq. dielectric constant tensor:
#      x y z
#    x 1.761000 0.000000 0.000000 
#    y 0.000000 1.753940 0.000000 
#    z 0.000000 0.000000 1.745040 
# 
# From -- ./inp_files/31115.got.cif
#   From: 2010.03.12/outbox.cif.g09.slc.cpg/sg65_16_cif.got.tgz:31115.got - 2010.04.10 20:52:16.
