data_PCOD8270414
_publ_section_title
;
Structure prediction by ZEFSAII (Michael W. Deem and Ramdas Pophale) SiO2 
 PCOD8270414
Probable space group: C M M M
;
_chemical_formula_sum "Si O2"
_cell_formula_units_Z 104
_cell_length_a 8.762249
_cell_length_b 26.739072
_cell_length_c 24.365626
_cell_angle_alpha 90.000000
_cell_angle_beta 90.000000
_cell_angle_gamma 90.000000
_cell_volume 5708.729892
_symmetry_space_group_name_H-M "C M M M"
_symmetry_group_IT_number 65
_symmetry_cell_setting 'orthorhombic'
loop_
_space_group_symop_operation_xyz
x,y,z
-x,-y,z
x,-y,-z
-x,y,-z
-x,-y,-z
x,y,-z
-x,y,z
x,-y,z
1/2+x,1/2+y,z
1/2-x,1/2-y,z
1/2+x,1/2-y,-z
1/2-x,1/2+y,-z
1/2-x,1/2-y,-z
1/2+x,1/2+y,-z
1/2-x,1/2+y,z
1/2+x,1/2-y,z
loop_
_atom_site_type_symbol
_atom_site_label
_atom_site_fract_x
_atom_site_fract_y
_atom_site_fract_z
Si Si1 0.318807 0.104438 0.670119
Si Si2 0.681079 0.056046 0.439895
Si Si3 0.181554 0.500000 0.062379
Si Si4 0.678755 0.698450 0.273444
Si Si5 0.820393 0.402663 0.872786
Si Si6 0.672205 0.442905 0.768387
Si Si7 0.821778 0.802315 0.145751
O O1 0.500000 0.102324 0.675449
O O2 0.262213 0.093174 0.608055
O O3 0.257070 0.157670 0.688440
O O4 0.245054 0.061867 0.708453
O O5 0.737881 0.075111 0.500000
O O6 0.500000 0.054171 0.439220
O O7 0.744070 0.000000 0.429213
O O8 0.243971 0.449014 0.090757
O O9 0.000000 0.500000 0.066556
O O10 0.239476 0.500000 0.000000
O O11 0.500000 0.698829 0.284110
O O12 0.750000 0.750000 0.293456
O O13 0.717635 0.688917 0.209700
O O14 0.777654 0.412507 0.809905
O O15 0.746275 0.349136 0.889099
O O16 0.000000 0.397751 0.879775
O O17 0.500000 0.420316 0.769235
O O18 0.669036 0.500000 0.786527
O O19 0.750000 0.750000 0.125208
O O20 0.000000 0.799390 0.134654
#
# Coordination Sequence:
#
# PCOD8270414 Si02
#       7
#    16  16   8  16  16  16  16
#     4  11  20  30  50  76 102 133 172 214 260 320
#     4   8  15  29  48  71  99 131 169 213 257 302
#     4   9  20  38  59  85 115 149 188 227 268 313
#     4  10  20  33  49  71 103 139 170 210 260 313
#     4  11  20  33  56  82 109 144 182 223 266 318
#     4  11  22  33  46  70 108 145 173 212 264 314
#     4  10  20  34  53  78 111 147 181 222 271 324
#
# _framework density 18.217711999999999
#
# number of rings (size 3 to 8) (size 9 to 14) (size 15 to 20)
#    0.000    1.923    2.308    3.231    0.000    2.769 
#    0.000    0.000    0.000    6.462    0.000    5.385 
#    0.000    0.000    0.000    0.000    0.000    0.000 
#
# Total GULP energy -644654.252391 kJ/mol
# GULP energy per Si atom -12397.197161 kJ/mol
# Density = 1.817625 g / cm^3
# Si number density = 18.217712 Si / 1000 Ang^3
#
#
#
# Elastic Constant Matrix: (Units=GPa)
#
#
# Indices 1 2 3 4 5 6 
#
# 1 66.7099 44.7812 23.0036 0.0000 0.0000 0.0000
# 2 44.7812 149.0038 49.1986 0.0000 0.0000 0.0000
# 3 23.0036 49.1986 78.1575 0.0000 0.0000 0.0000
# 4 0.0000 0.0000 0.0000 19.9606 0.0000 0.0000
# 5 0.0000 0.0000 0.0000 0.0000 10.0701 0.0000
# 6 0.0000 0.0000 0.0000 0.0000 0.0000 31.9941
#
#
#
# Elastic Compliance Matrix: (Units=1/GPa)
#
#
# Indices 1 2 3 4 5 6 
#
# 1 0.019171 -0.004922 -0.002545 0.000000 0.000000 0.000000
# 2 -0.004922 0.009736 -0.004680 0.000000 0.000000 0.000000
# 3 -0.002545 -0.004680 0.016489 0.000000 0.000000 0.000000
# 4 0.000000 0.000000 0.000000 0.050099 0.000000 0.000000
# 5 0.000000 0.000000 0.000000 0.000000 0.099304 0.000000
# 6 0.000000 0.000000 0.000000 0.000000 0.000000 0.031256
#
#
# Mechanical properties :
#
#
# Convention : Reuss Voigt Hill
#
# Bulk Modulus (GPa) = 47.38310 58.64865 53.01588
# Shear Modulus (GPa) = 19.42642 24.19749 21.81195
#
# Velocity S-wave (km/s) = 3.26904 3.64846 3.46395
# Velocity P-wave (km/s) = 6.34938 7.07187 6.72034
#
# Compressibility (1/GPa) = 0.02110457
#
# Stress axis : x y z
#
# Youngs Moduli (GPa) = 52.16083 102.71641 60.64487
#
# Poissons Ratio (x) = 0.50552 0.15432
# Poissons Ratio (y) = 0.25671 0.28381
# Poissons Ratio (z) = 0.13273 0.48069
#
# Static dielectric constant tensor:
#      x y z
#    x 3.239020 0.000000 0.000000 
#    y 0.000000 3.559700 0.000000 
#    z 0.000000 0.000000 3.316480 
# 
# 
# High freq. dielectric constant tensor:
#      x y z
#    x 1.697280 0.000000 0.000000 
#    y 0.000000 1.715450 0.000000 
#    z 0.000000 0.000000 1.675230 
# 
# From -- ./inp_files/60417.got.cif
#   From: 2010.03.12/outbox.cif.g09.slc.cpg/sg65_31_cif.got.tgz:60417.got - 2010.04.10 20:52:16.
