data_PCOD8270718
_publ_section_title
;
Structure prediction by ZEFSAII (Michael W. Deem and Ramdas Pophale) SiO2 
 PCOD8270718
Probable space group: C M M M
;
_chemical_formula_sum "Si O2"
_cell_formula_units_Z 104
_cell_length_a 29.191824
_cell_length_b 21.007688
_cell_length_c 8.883023
_cell_angle_alpha 90.000000
_cell_angle_beta 90.000000
_cell_angle_gamma 90.000000
_cell_volume 5447.538112
_symmetry_space_group_name_H-M "C M M M"
_symmetry_group_IT_number 65
_symmetry_cell_setting 'orthorhombic'
loop_
_space_group_symop_operation_xyz
x,y,z
-x,-y,z
x,-y,-z
-x,y,-z
-x,-y,-z
x,y,-z
-x,y,z
x,-y,z
1/2+x,1/2+y,z
1/2-x,1/2-y,z
1/2+x,1/2-y,-z
1/2-x,1/2+y,-z
1/2-x,1/2-y,-z
1/2+x,1/2+y,-z
1/2-x,1/2+y,z
1/2+x,1/2-y,z
loop_
_atom_site_type_symbol
_atom_site_label
_atom_site_fract_x
_atom_site_fract_y
_atom_site_fract_z
Si Si1 0.949288 0.678995 0.668269
Si Si2 0.415797 0.928581 0.832134
Si Si3 0.447460 0.371626 0.321880
Si Si4 0.180009 0.428942 0.326171
Si Si5 0.554065 0.500000 0.832738
Si Si6 0.384640 0.733594 0.825374
Si Si7 0.704740 0.211835 0.324842
O O1 0.929534 0.689961 0.500000
O O2 0.949789 0.605056 0.712895
O O3 0.916592 0.705915 0.797262
O O4 0.000000 0.708708 0.675899
O O5 0.363619 0.922947 0.778864
O O6 0.433050 0.000000 0.834072
O O7 0.419117 0.899452 0.000000
O O8 0.446278 0.374255 0.500000
O O9 0.500000 0.356224 0.268093
O O10 0.429602 0.438342 0.257488
O O11 0.409984 0.321740 0.266470
O O12 0.164812 0.425804 0.500000
O O13 0.203444 0.500000 0.296672
O O14 0.210146 0.364855 0.289207
O O15 0.500000 0.500000 0.844376
O O16 0.575853 0.500000 0.000000
O O17 0.334683 0.751795 0.766708
O O18 0.382252 0.715268 0.000000
O O19 0.693910 0.221214 0.500000
O O20 0.750000 0.250000 0.277124
#
# Coordination Sequence:
#
# PCOD8270718 Si02
#       7
#    16  16  16  16   8  16  16
#     4  11  23  37  53  75 107 148 191 233 278 332
#     4  10  20  33  51  77 108 143 184 230 279 327
#     4  10  20  35  57  84 115 153 196 238 281 337
#     4   9  17  32  57  84 109 142 185 230 276 334
#     4   9  17  31  53  83 117 151 191 237 283 337
#     4  12  24  37  56  82 113 149 187 234 287 338
#     4  10  21  38  61  86 113 147 186 232 286 347
#
# _framework density 19.091194000000002
#
# number of rings (size 3 to 8) (size 9 to 14) (size 15 to 20)
#    0.000    1.769    1.538    3.462    0.000    6.462 
#    0.000    1.538    1.692    0.000    0.000    0.000 
#    0.000    0.000    0.000    0.000    0.000    0.000 
#
# Total GULP energy -644212.694458 kJ/mol
# GULP energy per Si atom -12388.705663 kJ/mol
# Density = 1.904774 g / cm^3
# Si number density = 19.091194 Si / 1000 Ang^3
#
#
#
# Elastic Constant Matrix: (Units=GPa)
#
#
# Indices 1 2 3 4 5 6 
#
# 1 81.9360 49.8045 33.3862 0.0000 0.0000 0.0000
# 2 49.8045 125.0548 40.2801 0.0000 0.0000 0.0000
# 3 33.3862 40.2801 88.6337 0.0000 0.0000 0.0000
# 4 0.0000 0.0000 0.0000 30.6888 0.0000 0.0000
# 5 0.0000 0.0000 0.0000 0.0000 7.4342 0.0000
# 6 0.0000 0.0000 0.0000 0.0000 0.0000 29.6191
#
#
#
# Elastic Compliance Matrix: (Units=1/GPa)
#
#
# Indices 1 2 3 4 5 6 
#
# 1 0.017204 -0.005581 -0.003944 0.000000 0.000000 0.000000
# 2 -0.005581 0.011179 -0.002978 0.000000 0.000000 0.000000
# 3 -0.003944 -0.002978 0.014121 0.000000 0.000000 0.000000
# 4 0.000000 0.000000 0.000000 0.032585 0.000000 0.000000
# 5 0.000000 0.000000 0.000000 0.000000 0.134513 0.000000
# 6 0.000000 0.000000 0.000000 0.000000 0.000000 0.033762
#
#
# Mechanical properties :
#
#
# Convention : Reuss Voigt Hill
#
# Bulk Modulus (GPa) = 57.15006 60.28513 58.71759
# Shear Modulus (GPa) = 18.23465 25.02534 21.63000
#
# Velocity S-wave (km/s) = 3.09388 3.62447 3.36963
# Velocity P-wave (km/s) = 6.53935 7.01154 6.77956
#
# Compressibility (1/GPa) = 0.01749779
#
# Stress axis : x y z
#
# Youngs Moduli (GPa) = 58.12482 89.45732 70.81542
#
# Poissons Ratio (x) = 0.49931 0.27929
# Poissons Ratio (y) = 0.32442 0.21087
# Poissons Ratio (z) = 0.22924 0.26638
#
# Static dielectric constant tensor:
#      x y z
#    x 3.164810 0.000000 0.000000 
#    y 0.000000 4.269330 0.000000 
#    z 0.000000 0.000000 3.576810 
# 
# 
# High freq. dielectric constant tensor:
#      x y z
#    x 1.697070 0.000000 0.000000 
#    y 0.000000 1.760920 0.000000 
#    z 0.000000 0.000000 1.749790 
# 
# From -- ./inp_files/18617.got.cif
#   From: 2010.03.12/outbox.cif.g09.slc.cpg/sg65_10_cif.got.tgz:18617.got - 2010.04.10 20:52:16.
