data_PCOD8270163
_publ_section_title
;
Structure prediction by ZEFSAII (Michael W. Deem and Ramdas Pophale) SiO2 
 PCOD8270163
Probable space group: C M M M
;
_chemical_formula_sum "Si O2"
_cell_formula_units_Z 72
_cell_length_a 16.197221
_cell_length_b 8.742708
_cell_length_c 24.454058
_cell_angle_alpha 90.000000
_cell_angle_beta 90.000000
_cell_angle_gamma 90.000000
_cell_volume 3462.879818
_symmetry_space_group_name_H-M "C M M M"
_symmetry_group_IT_number 65
_symmetry_cell_setting 'orthorhombic'
loop_
_space_group_symop_operation_xyz
x,y,z
-x,-y,z
x,-y,-z
-x,y,-z
-x,-y,-z
x,y,-z
-x,y,z
x,-y,z
1/2+x,1/2+y,z
1/2-x,1/2-y,z
1/2+x,1/2-y,-z
1/2-x,1/2+y,-z
1/2-x,1/2-y,-z
1/2+x,1/2+y,-z
1/2-x,1/2+y,z
1/2+x,1/2-y,z
loop_
_atom_site_type_symbol
_atom_site_label
_atom_site_fract_x
_atom_site_fract_y
_atom_site_fract_z
Si Si1 0.337028 0.179834 0.382936
Si Si2 0.834313 0.821174 0.169668
Si Si3 0.000000 0.175298 0.564610
Si Si4 0.093822 0.824589 0.718206
Si Si5 0.407242 0.681757 0.059141
O O1 0.250000 0.250000 0.404226
O O2 0.415792 0.246918 0.414703
O O3 0.347589 0.218228 0.318564
O O4 0.333869 0.000000 0.392446
O O5 0.750000 0.750000 0.190120
O O6 0.899599 0.782877 0.217494
O O7 0.859471 0.746814 0.111099
O O8 0.823720 0.000000 0.161682
O O9 0.000000 0.187720 0.500000
O O10 0.000000 0.000000 0.584958
O O11 0.000000 0.797869 0.699448
O O12 0.120930 0.000000 0.708868
O O13 0.500000 0.744768 0.061818
O O14 0.408513 0.500000 0.063969
O O15 0.368012 0.730460 0.000000
#
# Coordination Sequence:
#
# PCOD8270163 Si02
#       5
#    16  16   8  16  16
#     4  12  25  42  67  98 133 173 216 263 314 372
#     4  10  20  32  48  75 107 143 185 233 293 357
#     4  11  25  47  73 101 135 173 214 261 312 367
#     4  10  20  36  59  84 116 155 199 253 310 369
#     4   8  14  27  48  71  95 128 178 235 286 345
#
# _framework density 20.791943
#
# number of rings (size 3 to 8) (size 9 to 14) (size 15 to 20)
#    0.000    1.889    1.111    4.333    0.000    7.111 
#    0.000    0.000    0.000    2.000    0.000    1.556 
#    0.000    0.000    0.000    0.000    0.000    0.000 
#
# Total GULP energy -446222.890982 kJ/mol
# GULP energy per Si atom -12395.080305 kJ/mol
# Density = 2.074462 g / cm^3
# Si number density = 20.791943 Si / 1000 Ang^3
#
#
#
# Elastic Constant Matrix: (Units=GPa)
#
#
# Indices 1 2 3 4 5 6 
#
# 1 128.5176 53.0112 41.0658 0.0000 0.0000 0.0000
# 2 53.0112 92.6777 41.8869 0.0000 0.0000 0.0000
# 3 41.0658 41.8869 106.7326 0.0000 0.0000 0.0000
# 4 0.0000 0.0000 0.0000 20.2209 0.0000 0.0000
# 5 0.0000 0.0000 0.0000 0.0000 14.7832 0.0000
# 6 0.0000 0.0000 0.0000 0.0000 0.0000 29.3356
#
#
#
# Elastic Compliance Matrix: (Units=1/GPa)
#
#
# Indices 1 2 3 4 5 6 
#
# 1 0.010542 -0.005101 -0.002054 0.000000 0.000000 0.000000
# 2 -0.005101 0.015585 -0.004154 0.000000 0.000000 0.000000
# 3 -0.002054 -0.004154 0.011790 0.000000 0.000000 0.000000
# 4 0.000000 0.000000 0.000000 0.049454 0.000000 0.000000
# 5 0.000000 0.000000 0.000000 0.000000 0.067644 0.000000
# 6 0.000000 0.000000 0.000000 0.000000 0.000000 0.034088
#
#
# Mechanical properties :
#
#
# Convention : Reuss Voigt Hill
#
# Bulk Modulus (GPa) = 65.36558 66.65064 66.00811
# Shear Modulus (GPa) = 23.06057 25.66554 24.36306
#
# Velocity S-wave (km/s) = 3.33394 3.51721 3.42680
# Velocity P-wave (km/s) = 6.80635 6.97280 6.89008
#
# Compressibility (1/GPa) = 0.01529857
#
# Stress axis : x y z
#
# Youngs Moduli (GPa) = 94.86254 64.16267 84.82111
#
# Poissons Ratio (x) = 0.32732 0.17421
# Poissons Ratio (y) = 0.48394 0.35232
# Poissons Ratio (z) = 0.19483 0.26651
#
# Static dielectric constant tensor:
#      x y z
#    x 3.801020 0.000000 0.000000 
#    y 0.000000 3.402570 0.000000 
#    z 0.000000 0.000000 4.075520 
# 
# 
# High freq. dielectric constant tensor:
#      x y z
#    x 1.813680 0.000000 0.000000 
#    y 0.000000 1.777220 0.000000 
#    z 0.000000 0.000000 1.831250 
# 
# From -- ./inp_files/74616.got.cif
#   From: 2010.03.12/outbox.cif.g09.slc.cpg/sg65_38_cif.got.tgz:74616.got - 2010.04.10 20:52:16.
