data_PCOD8270972
_publ_section_title
;
Structure prediction by ZEFSAII (Michael W. Deem and Ramdas Pophale) SiO2 
 PCOD8270972
Probable space group: C M M M
;
_chemical_formula_sum "Si O2"
_cell_formula_units_Z 104
_cell_length_a 9.284229
_cell_length_b 19.712311
_cell_length_c 32.677224
_cell_angle_alpha 90.000000
_cell_angle_beta 90.000000
_cell_angle_gamma 90.000000
_cell_volume 5980.376711
_symmetry_space_group_name_H-M "C M M M"
_symmetry_group_IT_number 65
_symmetry_cell_setting 'orthorhombic'
loop_
_space_group_symop_operation_xyz
x,y,z
-x,-y,z
x,-y,-z
-x,y,-z
-x,-y,-z
x,y,-z
-x,y,z
x,-y,z
1/2+x,1/2+y,z
1/2-x,1/2-y,z
1/2+x,1/2-y,-z
1/2-x,1/2+y,-z
1/2-x,1/2-y,-z
1/2+x,1/2+y,-z
1/2-x,1/2+y,z
1/2+x,1/2-y,z
loop_
_atom_site_type_symbol
_atom_site_label
_atom_site_fract_x
_atom_site_fract_y
_atom_site_fract_z
Si Si1 0.830519 0.818315 0.355162
Si Si2 0.668326 0.077396 0.114130
Si Si3 0.666290 0.919175 0.588733
Si Si4 0.669575 0.926325 0.500000
Si Si5 0.166990 0.816179 0.738985
Si Si6 0.168397 0.922752 0.194232
Si Si7 0.831721 0.682942 0.046475
O O1 0.750000 0.750000 0.369632
O O2 0.770400 0.882661 0.379464
O O3 0.795935 0.833464 0.307839
O O4 0.000000 0.809945 0.363387
O O5 0.500000 0.084836 0.122753
O O6 0.750052 0.104528 0.154188
O O7 0.717200 0.121007 0.075084
O O8 0.711690 0.000000 0.104568
O O9 0.500000 0.901645 0.598650
O O10 0.710256 0.890461 0.543134
O O11 0.690752 0.000000 0.591157
O O12 0.500000 0.937525 0.500000
O O13 0.744800 0.000000 0.500000
O O14 0.250000 0.750000 0.754328
O O15 0.216733 0.879342 0.766553
O O16 0.000000 0.800464 0.744574
O O17 0.000000 0.915775 0.185578
O O18 0.212836 0.000000 0.203780
O O19 0.750000 0.750000 0.061190
O O20 0.000000 0.697656 0.050572
O O21 0.789606 0.663698 0.000000
#
# Coordination Sequence:
#
# PCOD8270972 Si02
#       7
#    16  16  16   8  16  16  16
#     4  10  20  34  51  71  98 130 163 201 244 288
#     4   9  18  32  49  70  95 122 154 192 232 273
#     4   9  17  31  52  76 100 127 161 199 240 288
#     4   7  12  26  48  71  96 127 159 193 236 285
#     4   9  19  34  51  70  93 124 159 195 235 281
#     4   9  18  33  51  70  94 124 156 190 231 279
#     4   9  18  32  49  69  94 124 156 191 231 274
#
# _framework density 17.390208999999999
#
# number of rings (size 3 to 8) (size 9 to 14) (size 15 to 20)
#    0.000    3.000    0.000    1.385    0.000    3.692 
#    0.000    6.923    0.000    3.231    0.000    4.308 
#    0.000    0.000    0.000    0.000    0.000    0.000 
#
# Total GULP energy -644633.610809 kJ/mol
# GULP energy per Si atom -12396.800208 kJ/mol
# Density = 1.735063 g / cm^3
# Si number density = 17.390209 Si / 1000 Ang^3
#
#
#
# Elastic Constant Matrix: (Units=GPa)
#
#
# Indices 1 2 3 4 5 6 
#
# 1 52.0085 43.5944 47.5216 0.0000 0.0000 0.0000
# 2 43.5944 91.7916 73.0386 0.0000 0.0000 0.0000
# 3 47.5216 73.0386 116.3729 0.0000 0.0000 0.0000
# 4 0.0000 0.0000 0.0000 19.8074 0.0000 0.0000
# 5 0.0000 0.0000 0.0000 0.0000 26.9474 0.0000
# 6 0.0000 0.0000 0.0000 0.0000 0.0000 29.3949
#
#
#
# Elastic Compliance Matrix: (Units=1/GPa)
#
#
# Indices 1 2 3 4 5 6 
#
# 1 0.035116 -0.010522 -0.007736 0.000000 0.000000 0.000000
# 2 -0.010522 0.024915 -0.011341 0.000000 0.000000 0.000000
# 3 -0.007736 -0.011341 0.018870 0.000000 0.000000 0.000000
# 4 0.000000 0.000000 0.000000 0.050486 0.000000 0.000000
# 5 0.000000 0.000000 0.000000 0.000000 0.037109 0.000000
# 6 0.000000 0.000000 0.000000 0.000000 0.000000 0.034020
#
#
# Mechanical properties :
#
#
# Convention : Reuss Voigt Hill
#
# Bulk Modulus (GPa) = 50.75211 65.38691 58.06951
# Shear Modulus (GPa) = 18.77716 21.63117 20.20417
#
# Velocity S-wave (km/s) = 3.28953 3.53068 3.41224
# Velocity P-wave (km/s) = 6.60875 7.36902 6.99922
#
# Compressibility (1/GPa) = 0.01970361
#
# Stress axis : x y z
#
# Youngs Moduli (GPa) = 28.47720 40.13598 52.99487
#
# Poissons Ratio (x) = 0.42231 0.40996
# Poissons Ratio (y) = 0.29964 0.60100
# Poissons Ratio (z) = 0.22029 0.45517
#
# Static dielectric constant tensor:
#      x y z
#    x 3.119230 0.000000 0.000000 
#    y 0.000000 3.182830 0.000000 
#    z 0.000000 0.000000 3.457900 
# 
# 
# High freq. dielectric constant tensor:
#      x y z
#    x 1.661560 0.000000 0.000000 
#    y 0.000000 1.660450 0.000000 
#    z 0.000000 0.000000 1.678530 
# 
# From -- ./inp_files/76929.got.cif
#   From: 2010.03.12/outbox.cif.g09.slc.cpg/sg65_39_cif.got.tgz:76929.got - 2010.04.10 20:52:16.
