data_PCOD8270982
_publ_section_title
;
Structure prediction by ZEFSAII (Michael W. Deem and Ramdas Pophale) SiO2 
 PCOD8270982
Probable space group: C M M M
;
_chemical_formula_sum "Si O2"
_cell_formula_units_Z 88
_cell_length_a 26.727110
_cell_length_b 19.989130
_cell_length_c 8.798509
_cell_angle_alpha 90.000000
_cell_angle_beta 90.000000
_cell_angle_gamma 90.000000
_cell_volume 4700.618182
_symmetry_space_group_name_H-M "C M M M"
_symmetry_group_IT_number 65
_symmetry_cell_setting 'orthorhombic'
loop_
_space_group_symop_operation_xyz
x,y,z
-x,-y,z
x,-y,-z
-x,y,-z
-x,-y,-z
x,y,-z
-x,y,z
x,-y,z
1/2+x,1/2+y,z
1/2-x,1/2-y,z
1/2+x,1/2-y,-z
1/2-x,1/2+y,-z
1/2-x,1/2-y,-z
1/2+x,1/2+y,-z
1/2-x,1/2+y,z
1/2+x,1/2-y,z
loop_
_atom_site_type_symbol
_atom_site_label
_atom_site_fract_x
_atom_site_fract_y
_atom_site_fract_z
Si Si1 0.335313 0.000000 0.328271
Si Si2 0.441580 0.636132 0.177544
Si Si3 0.440698 0.500000 0.329124
Si Si4 0.137684 0.229934 0.679786
Si Si5 0.333725 0.136242 0.177901
Si Si6 0.783485 0.000000 0.670914
Si Si7 0.216768 0.135441 0.177541
O O1 0.354398 0.934336 0.240241
O O2 0.275860 0.000000 0.327847
O O3 0.356215 0.000000 0.500000
O O4 0.500000 0.646098 0.212068
O O5 0.421466 0.565599 0.241849
O O6 0.412488 0.695330 0.260259
O O7 0.429767 0.638010 0.000000
O O8 0.500000 0.500000 0.330890
O O9 0.418987 0.500000 0.500000
O O10 0.138881 0.227115 0.500000
O O11 0.136141 0.306218 0.735621
O O12 0.187582 0.195709 0.744217
O O13 0.275057 0.144700 0.213271
O O14 0.344746 0.140350 0.000000
O O15 0.803718 0.934589 0.756820
O O16 0.804706 0.000000 0.500000
O O17 0.205418 0.137115 0.000000
#
# Coordination Sequence:
#
# PCOD8270982 Si02
#       7
#     8  16   8  16  16   8  16
#     4   9  17  31  52  76 102 133 170 211 253 300
#     4  10  21  38  58  78 102 134 173 215 258 306
#     4   9  17  32  55  80 105 133 168 212 259 304
#     4  12  24  35  51  76 105 136 171 213 261 309
#     4  10  20  35  54  76 104 138 174 211 253 303
#     4   9  17  30  48  71 100 135 175 216 257 299
#     4  10  20  34  51  72 102 139 177 215 254 301
#
# _framework density 18.720941
#
# number of rings (size 3 to 8) (size 9 to 14) (size 15 to 20)
#    0.000    1.909    0.000    4.636    0.000    9.455 
#    0.000    3.636    0.000    0.000    0.000    0.636 
#    0.000    5.091    0.000    0.000    0.000    0.000 
#
# Total GULP energy -545754.381335 kJ/mol
# GULP energy per Si atom -12403.508667 kJ/mol
# Density = 1.867833 g / cm^3
# Si number density = 18.720941 Si / 1000 Ang^3
#
#
#
# Elastic Constant Matrix: (Units=GPa)
#
#
# Indices 1 2 3 4 5 6 
#
# 1 43.7756 40.2627 36.2894 0.0000 0.0000 0.0000
# 2 40.2627 166.4278 76.7368 0.0000 0.0000 0.0000
# 3 36.2894 76.7368 155.2098 0.0000 0.0000 0.0000
# 4 0.0000 0.0000 0.0000 39.9344 0.0000 0.0000
# 5 0.0000 0.0000 0.0000 0.0000 21.3952 0.0000
# 6 0.0000 0.0000 0.0000 0.0000 0.0000 -21.4270
#
#
#
# Elastic Compliance Matrix: (Units=1/GPa)
#
#
# Indices 1 2 3 4 5 6 
#
# 1 0.031834 -0.005530 -0.004709 0.000000 0.000000 0.000000
# 2 -0.005530 0.008743 -0.003030 0.000000 0.000000 0.000000
# 3 -0.004709 -0.003030 0.009042 0.000000 0.000000 0.000000
# 4 0.000000 0.000000 0.000000 0.025041 0.000000 0.000000
# 5 0.000000 0.000000 0.000000 0.000000 0.046739 0.000000
# 6 0.000000 0.000000 0.000000 0.000000 0.000000 -0.046670
#
#
# Mechanical properties :
#
#
# Convention : Reuss Voigt Hill
#
# Bulk Modulus (GPa) = 43.32504 74.66566 58.99535
# Shear Modulus (GPa) = 45.88805 22.12216 34.00510
#
# Velocity S-wave (km/s) = 4.95629 3.44129 4.26657
# Velocity P-wave (km/s) = 7.47970 7.46726 7.47348
#
# Compressibility (1/GPa) = 0.02308134
#
# Stress axis : x y z
#
# Youngs Moduli (GPa) = 31.41328 114.37103 110.59697
#
# Poissons Ratio (x) = 0.63248 0.52079
# Poissons Ratio (y) = 0.17372 0.33509
# Poissons Ratio (z) = 0.14792 0.34653
#
# Static dielectric constant tensor:
#      x y z
#    x 3.048350 0.000000 0.000000 
#    y 0.000000 3.612140 0.000000 
#    z 0.000000 0.000000 3.612920 
# 
# 
# High freq. dielectric constant tensor:
#      x y z
#    x 1.683810 0.000000 0.000000 
#    y 0.000000 1.735380 0.000000 
#    z 0.000000 0.000000 1.746640 
# 
# From -- ./inp_files/18369.got.cif
#   From: 2010.03.12/outbox.cif.g09.slc.cpg/sg65_10_cif.got.tgz:18369.got - 2010.04.10 20:52:16.
