data_PCOD8270006
_publ_section_title
;
Structure prediction by ZEFSAII (Michael W. Deem and Ramdas Pophale) SiO2 
 PCOD8270006
Probable space group: C M M M
;
_chemical_formula_sum "Si O2"
_cell_formula_units_Z 80
_cell_length_a 9.048069
_cell_length_b 27.610486
_cell_length_c 18.322917
_cell_angle_alpha 90.000000
_cell_angle_beta 90.000000
_cell_angle_gamma 90.000000
_cell_volume 4577.460120
_symmetry_space_group_name_H-M "C M M M"
_symmetry_group_IT_number 65
_symmetry_cell_setting 'orthorhombic'
loop_
_space_group_symop_operation_xyz
x,y,z
-x,-y,z
x,-y,-z
-x,y,-z
-x,-y,-z
x,y,-z
-x,y,z
x,-y,z
1/2+x,1/2+y,z
1/2-x,1/2-y,z
1/2+x,1/2-y,-z
1/2-x,1/2+y,-z
1/2-x,1/2-y,-z
1/2+x,1/2+y,-z
1/2-x,1/2+y,z
1/2+x,1/2-y,z
loop_
_atom_site_type_symbol
_atom_site_label
_atom_site_fract_x
_atom_site_fract_y
_atom_site_fract_z
Si Si1 0.827141 0.944642 0.780722
Si Si2 0.828290 0.699050 0.840518
Si Si3 0.170957 0.799514 0.585283
Si Si4 0.829961 0.883225 0.918112
Si Si5 0.672550 0.137436 0.698556
O O1 0.788071 0.926027 0.862117
O O2 0.736926 0.914766 0.720418
O O3 0.000000 0.938723 0.764135
O O4 0.775867 0.000000 0.775458
O O5 0.750000 0.750000 0.845556
O O6 0.767245 0.664218 0.903560
O O7 0.794162 0.675835 0.762094
O O8 0.000000 0.706755 0.853892
O O9 0.191734 0.809369 0.500000
O O10 0.250000 0.750000 0.609293
O O11 0.245317 0.844545 0.626110
O O12 0.000000 0.795189 0.607384
O O13 0.000000 0.868071 0.908125
O O14 0.798184 0.902074 0.000000
O O15 0.500000 0.131969 0.682265
#
# Coordination Sequence:
#
# PCOD8270006 Si02
#       5
#    16  16  16  16  16
#     4   9  18  33  53  75  98 126 161 203 251 299
#     4  10  20  32  47  68  94 127 165 201 240 287
#     4  10  20  33  51  77 108 139 168 198 236 284
#     4   9  18  32  49  70  96 125 159 200 245 294
#     4  10  20  33  51  74 100 131 166 205 245 288
#
# _framework density 17.476939999999999
#
# number of rings (size 3 to 8) (size 9 to 14) (size 15 to 20)
#    0.000    2.400    0.000    2.400    0.000    6.800 
#    0.000    2.000    0.000    0.600    0.000    9.800 
#    0.000    0.000    0.000    0.000    0.000    0.000 
#
# Total GULP energy -496135.973182 kJ/mol
# GULP energy per Si atom -12403.399330 kJ/mol
# Density = 1.743716 g / cm^3
# Si number density = 17.476940 Si / 1000 Ang^3
#
#
#
# Elastic Constant Matrix: (Units=GPa)
#
#
# Indices 1 2 3 4 5 6 
#
# 1 96.7844 66.9972 51.1248 0.0000 0.0000 0.0000
# 2 66.9972 144.6707 57.4315 0.0000 0.0000 0.0000
# 3 51.1248 57.4315 78.0556 0.0000 0.0000 0.0000
# 4 0.0000 0.0000 0.0000 20.7737 0.0000 0.0000
# 5 0.0000 0.0000 0.0000 0.0000 25.1414 0.0000
# 6 0.0000 0.0000 0.0000 0.0000 0.0000 29.8146
#
#
#
# Elastic Compliance Matrix: (Units=1/GPa)
#
#
# Indices 1 2 3 4 5 6 
#
# 1 0.018225 -0.005228 -0.008090 0.000000 0.000000 0.000000
# 2 -0.005228 0.011264 -0.004863 0.000000 0.000000 0.000000
# 3 -0.008090 -0.004863 0.021689 0.000000 0.000000 0.000000
# 4 0.000000 0.000000 0.000000 0.048138 0.000000 0.000000
# 5 0.000000 0.000000 0.000000 0.000000 0.039775 0.000000
# 6 0.000000 0.000000 0.000000 0.000000 0.000000 0.033541
#
#
# Mechanical properties :
#
#
# Convention : Reuss Voigt Hill
#
# Bulk Modulus (GPa) = 67.50374 74.51307 71.00840
# Shear Modulus (GPa) = 23.37183 24.74311 24.05747
#
# Velocity S-wave (km/s) = 3.66087 3.76674 3.71418
# Velocity P-wave (km/s) = 7.52181 7.85146 7.68840
#
# Compressibility (1/GPa) = 0.01481399
#
# Stress axis : x y z
#
# Youngs Moduli (GPa) = 54.86992 88.77658 46.10713
#
# Poissons Ratio (x) = 0.46416 0.37301
# Poissons Ratio (y) = 0.28688 0.22424
# Poissons Ratio (z) = 0.44390 0.43176
#
# Static dielectric constant tensor:
#      x y z
#    x 3.337830 0.000000 0.000000 
#    y 0.000000 3.170110 0.000000 
#    z 0.000000 0.000000 3.212250 
# 
# 
# High freq. dielectric constant tensor:
#      x y z
#    x 1.684460 0.000000 0.000000 
#    y 0.000000 1.664320 0.000000 
#    z 0.000000 0.000000 1.667100 
# 
# From -- ./inp_files/49843.got.cif
#   From: 2010.03.12/outbox.cif.g09.slc.cpg/sg65_25_cif.got.tgz:49843.got - 2010.04.10 20:52:16.
