data_PCOD8270845
_publ_section_title
;
Structure prediction by ZEFSAII (Michael W. Deem and Ramdas Pophale) SiO2 
 PCOD8270845
Probable space group: C M M M
;
_chemical_formula_sum "Si O2"
_cell_formula_units_Z 72
_cell_length_a 13.842096
_cell_length_b 28.413757
_cell_length_c 9.706914
_cell_angle_alpha 90.000000
_cell_angle_beta 90.000000
_cell_angle_gamma 90.000000
_cell_volume 3817.787053
_symmetry_space_group_name_H-M "C M M M"
_symmetry_group_IT_number 65
_symmetry_cell_setting 'orthorhombic'
loop_
_space_group_symop_operation_xyz
x,y,z
-x,-y,z
x,-y,-z
-x,y,-z
-x,-y,-z
x,y,-z
-x,y,z
x,-y,z
1/2+x,1/2+y,z
1/2-x,1/2-y,z
1/2+x,1/2-y,-z
1/2-x,1/2+y,-z
1/2-x,1/2-y,-z
1/2+x,1/2+y,-z
1/2-x,1/2+y,z
1/2+x,1/2-y,z
loop_
_atom_site_type_symbol
_atom_site_label
_atom_site_fract_x
_atom_site_fract_y
_atom_site_fract_z
Si Si1 0.613230 0.314766 0.157582
Si Si2 0.275131 0.409054 0.838169
Si Si3 0.111605 0.626389 0.338831
Si Si4 0.614335 0.767948 0.347277
Si Si5 0.891927 0.000000 0.836710
O O1 0.500000 0.321264 0.185154
O O2 0.662954 0.363281 0.199919
O O3 0.658103 0.272085 0.247644
O O4 0.633948 0.301700 0.000000
O O5 0.175201 0.408664 0.753531
O O6 0.335417 0.453872 0.786218
O O7 0.251469 0.411967 0.000000
O O8 0.132330 0.618268 0.500000
O O9 0.140554 0.679685 0.295679
O O10 0.000000 0.616125 0.305366
O O11 0.656042 0.759151 0.500000
O O12 0.500000 0.763647 0.350117
O O13 0.000000 0.000000 0.773312
O O14 0.899590 0.000000 0.000000
#
# Coordination Sequence:
#
# PCOD8270845 Si02
#       5
#    16  16  16  16   8
#     4   9  17  29  46  72 105 135 165 206 254 301
#     4  10  20  33  53  79 101 128 170 213 253 299
#     4   9  19  36  54  72 100 138 174 207 247 297
#     4   8  15  29  48  69  96 134 175 207 241 293
#     4   9  18  36  60  81 104 134 165 201 250 307
#
# _framework density 18.859093000000001
#
# number of rings (size 3 to 8) (size 9 to 14) (size 15 to 20)
#    0.000    3.000    0.000    2.000    0.000    5.778 
#    0.000    7.778    0.000    6.000    0.000    0.000 
#    0.000    0.000    0.000    0.000    0.000    0.000 
#
# Total GULP energy -446351.215687 kJ/mol
# GULP energy per Si atom -12398.644880 kJ/mol
# Density = 1.881617 g / cm^3
# Si number density = 18.859093 Si / 1000 Ang^3
#
#
#
# Elastic Constant Matrix: (Units=GPa)
#
#
# Indices 1 2 3 4 5 6 
#
# 1 99.9812 71.3938 48.7428 0.0000 0.0000 0.0000
# 2 71.3938 121.2688 55.5727 0.0000 0.0000 0.0000
# 3 48.7428 55.5727 63.0839 0.0000 0.0000 0.0000
# 4 0.0000 0.0000 0.0000 105.7510 0.0000 0.0000
# 5 0.0000 0.0000 0.0000 0.0000 21.2076 0.0000
# 6 0.0000 0.0000 0.0000 0.0000 0.0000 33.1384
#
#
#
# Elastic Compliance Matrix: (Units=1/GPa)
#
#
# Indices 1 2 3 4 5 6 
#
# 1 0.019561 -0.007697 -0.008333 0.000000 0.000000 0.000000
# 2 -0.007697 0.016857 -0.008903 0.000000 0.000000 0.000000
# 3 -0.008333 -0.008903 0.030134 0.000000 0.000000 0.000000
# 4 0.000000 0.000000 0.000000 0.009456 0.000000 0.000000
# 5 0.000000 0.000000 0.000000 0.000000 0.047153 0.000000
# 6 0.000000 0.000000 0.000000 0.000000 0.000000 0.030176
#
#
# Mechanical properties :
#
#
# Convention : Reuss Voigt Hill
#
# Bulk Modulus (GPa) = 59.93367 70.63918 65.28642
# Shear Modulus (GPa) = 23.95019 39.26105 31.60562
#
# Velocity S-wave (km/s) = 3.56751 4.56764 4.09820
# Velocity P-wave (km/s) = 6.98700 8.08426 7.55558
#
# Compressibility (1/GPa) = 0.01668511
#
# Stress axis : x y z
#
# Youngs Moduli (GPa) = 51.12259 59.32079 33.18524
#
# Poissons Ratio (x) = 0.45659 0.27655
# Poissons Ratio (y) = 0.39349 0.29545
# Poissons Ratio (z) = 0.42603 0.52814
#
# Static dielectric constant tensor:
#      x y z
#    x 3.386220 0.000000 0.000000 
#    y 0.000000 3.487010 0.000000 
#    z 0.000000 0.000000 3.363480 
# 
# 
# High freq. dielectric constant tensor:
#      x y z
#    x 1.739000 0.000000 0.000000 
#    y 0.000000 1.721370 0.000000 
#    z 0.000000 0.000000 1.712200 
# 
# From -- ./inp_files/7290.got.cif
#   From: 2010.03.12/outbox.cif.g09.slc.cpg/sg65_4_cif.got.tgz:7290.got - 2010.04.10 20:52:16.
