data_PCOD8270469
_publ_section_title
;
Structure prediction by ZEFSAII (Michael W. Deem and Ramdas Pophale) SiO2 
 PCOD8270469
Probable space group: C M M M
;
_chemical_formula_sum "Si O2"
_cell_formula_units_Z 88
_cell_length_a 9.474310
_cell_length_b 18.463107
_cell_length_c 28.159675
_cell_angle_alpha 90.000000
_cell_angle_beta 90.000000
_cell_angle_gamma 90.000000
_cell_volume 4925.836761
_symmetry_space_group_name_H-M "C M M M"
_symmetry_group_IT_number 65
_symmetry_cell_setting 'orthorhombic'
loop_
_space_group_symop_operation_xyz
x,y,z
-x,-y,z
x,-y,-z
-x,y,-z
-x,-y,-z
x,y,-z
-x,y,z
x,-y,z
1/2+x,1/2+y,z
1/2-x,1/2-y,z
1/2+x,1/2-y,-z
1/2-x,1/2+y,-z
1/2-x,1/2-y,-z
1/2+x,1/2+y,-z
1/2-x,1/2+y,z
1/2+x,1/2-y,z
loop_
_atom_site_type_symbol
_atom_site_label
_atom_site_fract_x
_atom_site_fract_y
_atom_site_fract_z
Si Si1 0.163986 0.416747 0.409313
Si Si2 0.334042 0.176090 0.500000
Si Si3 0.336786 0.416830 0.318518
Si Si4 0.836017 0.178886 0.946190
Si Si5 0.667001 0.419578 0.139025
Si Si6 0.666557 0.324251 0.226887
O O1 0.200633 0.500000 0.420928
O O2 0.211308 0.369489 0.454051
O O3 0.248689 0.388950 0.363537
O O4 0.000000 0.406848 0.398034
O O5 0.500000 0.192309 0.500000
O O6 0.250000 0.250000 0.500000
O O7 0.500000 0.407644 0.331416
O O8 0.300396 0.500000 0.306260
O O9 0.294029 0.368947 0.273689
O O10 0.750000 0.250000 0.932484
O O11 0.787444 0.114823 0.911291
O O12 0.000000 0.197582 0.939144
O O13 0.803865 0.153770 0.000000
O O14 0.500000 0.425649 0.142750
O O15 0.733788 0.500000 0.142436
O O16 0.722419 0.370173 0.182025
O O17 0.500000 0.308707 0.223435
O O18 0.750000 0.250000 0.228021
#
# Coordination Sequence:
#
# PCOD8270469 Si02
#       6
#    16   8  16  16  16  16
#     4   9  18  34  55  75  96 126 162 197 235 280
#     4  10  21  35  51  73 101 130 160 196 236 280
#     4   9  18  33  52  73  96 123 158 198 237 279
#     4   9  17  29  47  71  97 125 157 195 239 286
#     4   9  17  30  49  71  94 123 161 202 240 279
#     4  10  20  33  50  71  96 127 160 195 237 285
#
# _framework density 17.864985999999998
#
# number of rings (size 3 to 8) (size 9 to 14) (size 15 to 20)
#    0.000    2.727    0.000    1.364    0.000    5.818 
#    0.000    5.455    0.000    6.000    0.000    2.545 
#    0.000    0.000    0.000    0.000    0.000    0.000 
#
# Total GULP energy -545644.476255 kJ/mol
# GULP energy per Si atom -12401.010824 kJ/mol
# Density = 1.782432 g / cm^3
# Si number density = 17.864986 Si / 1000 Ang^3
#
#
#
# Elastic Constant Matrix: (Units=GPa)
#
#
# Indices 1 2 3 4 5 6 
#
# 1 37.8512 48.4471 51.2381 0.0000 0.0000 0.0000
# 2 48.4471 140.5261 99.3989 0.0000 0.0000 0.0000
# 3 51.2381 99.3989 164.0837 0.0000 0.0000 0.0000
# 4 0.0000 0.0000 0.0000 26.3972 0.0000 0.0000
# 5 0.0000 0.0000 0.0000 0.0000 23.5361 0.0000
# 6 0.0000 0.0000 0.0000 0.0000 0.0000 29.5483
#
#
#
# Elastic Compliance Matrix: (Units=1/GPa)
#
#
# Indices 1 2 3 4 5 6 
#
# 1 0.055316 -0.011990 -0.010010 0.000000 0.000000 0.000000
# 2 -0.011990 0.015050 -0.005373 0.000000 0.000000 0.000000
# 3 -0.010010 -0.005373 0.012475 0.000000 0.000000 0.000000
# 4 0.000000 0.000000 0.000000 0.037883 0.000000 0.000000
# 5 0.000000 0.000000 0.000000 0.000000 0.042488 0.000000
# 6 0.000000 0.000000 0.000000 0.000000 0.000000 0.033843
#
#
# Mechanical properties :
#
#
# Convention : Reuss Voigt Hill
#
# Bulk Modulus (GPa) = 35.59338 82.29214 58.94276
# Shear Modulus (GPa) = 19.14487 25.45477 22.29982
#
# Velocity S-wave (km/s) = 3.27715 3.77880 3.53688
# Velocity P-wave (km/s) = 5.85546 8.07481 7.05297
#
# Compressibility (1/GPa) = 0.02809511
#
# Stress axis : x y z
#
# Youngs Moduli (GPa) = 18.07796 66.44377 80.15884
#
# Poissons Ratio (x) = 0.79666 0.80240
# Poissons Ratio (y) = 0.21675 0.43070
# Poissons Ratio (z) = 0.18096 0.35701
#
# Static dielectric constant tensor:
#      x y z
#    x 3.088100 0.000000 0.000000 
#    y 0.000000 3.358910 0.000000 
#    z 0.000000 0.000000 3.511410 
# 
# 
# High freq. dielectric constant tensor:
#      x y z
#    x 1.664690 0.000000 0.000000 
#    y 0.000000 1.691580 0.000000 
#    z 0.000000 0.000000 1.707120 
# 
# From -- ./inp_files/68927.got.cif
#   From: 2010.03.12/outbox.cif.g09.slc.cpg/sg65_35_cif.got.tgz:68927.got - 2010.04.10 20:52:16.
