data_PCOD8270366
_publ_section_title
;
Structure prediction by ZEFSAII (Michael W. Deem and Ramdas Pophale) SiO2 
 PCOD8270366
Probable space group: C M M M
;
_chemical_formula_sum "Si O2"
_cell_formula_units_Z 88
_cell_length_a 9.292424
_cell_length_b 24.845073
_cell_length_c 21.936758
_cell_angle_alpha 90.000000
_cell_angle_beta 90.000000
_cell_angle_gamma 90.000000
_cell_volume 5064.560217
_symmetry_space_group_name_H-M "C M M M"
_symmetry_group_IT_number 65
_symmetry_cell_setting 'orthorhombic'
loop_
_space_group_symop_operation_xyz
x,y,z
-x,-y,z
x,-y,-z
-x,y,-z
-x,-y,-z
x,y,-z
-x,y,z
x,-y,z
1/2+x,1/2+y,z
1/2-x,1/2-y,z
1/2+x,1/2-y,-z
1/2-x,1/2+y,-z
1/2-x,1/2-y,-z
1/2+x,1/2+y,-z
1/2-x,1/2+y,z
1/2+x,1/2-y,z
loop_
_atom_site_type_symbol
_atom_site_label
_atom_site_fract_x
_atom_site_fract_y
_atom_site_fract_z
Si Si1 0.664775 0.884191 0.930835
Si Si2 0.670092 0.500000 0.761194
Si Si3 0.170906 0.084492 0.335616
Si Si4 0.168210 0.803351 0.151269
Si Si5 0.667357 0.302538 0.293229
Si Si6 0.337063 0.000000 0.115188
Si Si7 0.671724 0.500000 0.568056
O O1 0.500000 0.870390 0.913313
O O2 0.771987 0.853838 0.885701
O O3 0.693764 0.947833 0.925779
O O4 0.697343 0.866485 0.000000
O O5 0.500000 0.500000 0.768059
O O6 0.723622 0.447469 0.724240
O O7 0.734606 0.500000 0.827357
O O8 0.226041 0.146060 0.331624
O O9 0.226157 0.053742 0.396484
O O10 0.000000 0.084446 0.335515
O O11 0.250000 0.750000 0.128839
O O12 0.198374 0.813802 0.222341
O O13 0.000000 0.796443 0.137629
O O14 0.500000 0.292529 0.304988
O O15 0.750000 0.250000 0.316966
O O16 0.500000 0.000000 0.139476
O O17 0.500000 0.500000 0.565912
O O18 0.737237 0.500000 0.500000
#
# Coordination Sequence:
#
# PCOD8270366 Si02
#       7
#    16   8  16  16  16   8   8
#     4  10  21  36  51  66  88 120 154 187 227 277
#     4   9  16  28  47  68  90 116 144 182 234 283
#     4   8  14  25  42  65  93 121 149 184 226 266
#     4  10  20  34  52  72  92 116 149 189 233 279
#     4   9  17  29  45  66  92 120 147 179 223 271
#     4  10  20  33  49  69  93 119 149 188 232 276
#     4   8  13  22  40  67  95 123 155 189 222 255
#
# _framework density 17.375644000000001
#
# number of rings (size 3 to 8) (size 9 to 14) (size 15 to 20)
#    0.000    2.818    0.000    3.000    0.000    4.727 
#    0.000    0.909    0.000    2.182    0.000    0.000 
#    0.000   12.364    0.000    0.000    0.000    0.000 
#
# Total GULP energy -545458.654230 kJ/mol
# GULP energy per Si atom -12396.787596 kJ/mol
# Density = 1.733610 g / cm^3
# Si number density = 17.375644 Si / 1000 Ang^3
#
#
#
# Elastic Constant Matrix: (Units=GPa)
#
#
# Indices 1 2 3 4 5 6 
#
# 1 49.9974 43.2108 28.5291 0.0000 0.0000 0.0000
# 2 43.2108 148.9693 47.0754 0.0000 0.0000 0.0000
# 3 28.5291 47.0754 79.5744 0.0000 0.0000 0.0000
# 4 0.0000 0.0000 0.0000 12.3119 0.0000 0.0000
# 5 0.0000 0.0000 0.0000 0.0000 9.8637 0.0000
# 6 0.0000 0.0000 0.0000 0.0000 0.0000 27.0669
#
#
#
# Elastic Compliance Matrix: (Units=1/GPa)
#
#
# Indices 1 2 3 4 5 6 
#
# 1 0.029374 -0.006386 -0.006753 0.000000 0.000000 0.000000
# 2 -0.006386 0.009645 -0.003416 0.000000 0.000000 0.000000
# 3 -0.006753 -0.003416 0.017009 0.000000 0.000000 0.000000
# 4 0.000000 0.000000 0.000000 0.081222 0.000000 0.000000
# 5 0.000000 0.000000 0.000000 0.000000 0.101381 0.000000
# 6 0.000000 0.000000 0.000000 0.000000 0.000000 0.036945
#
#
# Mechanical properties :
#
#
# Convention : Reuss Voigt Hill
#
# Bulk Modulus (GPa) = 43.63658 57.35241 50.49449
# Shear Modulus (GPa) = 15.80645 20.49689 18.15167
#
# Velocity S-wave (km/s) = 3.01938 3.43831 3.23563
# Velocity P-wave (km/s) = 6.10931 6.98868 6.56374
#
# Compressibility (1/GPa) = 0.02291656
#
# Stress axis : x y z
#
# Youngs Moduli (GPa) = 34.04383 103.68318 58.79272
#
# Poissons Ratio (x) = 0.66216 0.39703
# Poissons Ratio (y) = 0.21742 0.20084
# Poissons Ratio (z) = 0.22990 0.35419
#
# Static dielectric constant tensor:
#      x y z
#    x 2.965070 0.000000 0.000000 
#    y 0.000000 3.517420 0.000000 
#    z 0.000000 0.000000 3.166560 
# 
# 
# High freq. dielectric constant tensor:
#      x y z
#    x 1.641360 0.000000 0.000000 
#    y 0.000000 1.682750 0.000000 
#    z 0.000000 0.000000 1.649220 
# 
# From -- ./inp_files/67642.got.cif
#   From: 2010.03.12/outbox.cif.g09.slc.cpg/sg65_34_cif.got.tgz:67642.got - 2010.04.10 20:52:16.
