data_PCOD8270560
_publ_section_title
;
Structure prediction by ZEFSAII (Michael W. Deem and Ramdas Pophale) SiO2 
 PCOD8270560
Probable space group: C M M M
;
_chemical_formula_sum "Si O2"
_cell_formula_units_Z 72
_cell_length_a 9.022162
_cell_length_b 31.966841
_cell_length_c 13.480239
_cell_angle_alpha 90.000000
_cell_angle_beta 90.000000
_cell_angle_gamma 90.000000
_cell_volume 3887.835974
_symmetry_space_group_name_H-M "C M M M"
_symmetry_group_IT_number 65
_symmetry_cell_setting 'orthorhombic'
loop_
_space_group_symop_operation_xyz
x,y,z
-x,-y,z
x,-y,-z
-x,y,-z
-x,-y,-z
x,y,-z
-x,y,z
x,-y,z
1/2+x,1/2+y,z
1/2-x,1/2-y,z
1/2+x,1/2-y,-z
1/2-x,1/2+y,-z
1/2-x,1/2-y,-z
1/2+x,1/2+y,-z
1/2-x,1/2+y,z
1/2+x,1/2-y,z
loop_
_atom_site_type_symbol
_atom_site_label
_atom_site_fract_x
_atom_site_fract_y
_atom_site_fract_z
Si Si1 0.830529 0.342182 0.610737
Si Si2 0.827689 0.706921 0.801394
Si Si3 0.169622 0.869971 0.111036
Si Si4 0.327042 0.580999 0.697323
Si Si5 0.175668 0.500000 0.385829
O O1 0.806491 0.324501 0.500000
O O2 0.791180 0.305273 0.687376
O O3 0.723403 0.381538 0.625810
O O4 0.000000 0.357238 0.627083
O O5 0.750000 0.750000 0.828867
O O6 0.770437 0.670615 0.873480
O O7 0.000000 0.712867 0.820333
O O8 0.209801 0.906644 0.188672
O O9 0.000000 0.855991 0.127495
O O10 0.196039 0.887402 0.000000
O O11 0.500000 0.572332 0.680600
O O12 0.236137 0.540051 0.671250
O O13 0.229961 0.500000 0.500000
O O14 0.000000 0.500000 0.380129
#
# Coordination Sequence:
#
# PCOD8270560 Si02
#       5
#    16  16  16  16   8
#     4   9  18  33  51  71 100 138 173 206 252 308
#     4  10  20  33  50  74 103 134 171 214 256 301
#     4   9  19  37  58  77 100 132 168 208 257 308
#     4  10  20  34  54  80 105 130 167 213 254 295
#     4  11  23  37  54  77 108 144 173 199 240 295
#
# _framework density 18.519299
#
# number of rings (size 3 to 8) (size 9 to 14) (size 15 to 20)
#    0.000    2.333    0.000    2.333    0.000    7.111 
#    0.000    0.556    0.000    3.333    0.000    0.000 
#    0.000    0.000    0.000    0.000    0.000    0.000 
#
# Total GULP energy -446456.071620 kJ/mol
# GULP energy per Si atom -12401.557545 kJ/mol
# Density = 1.847715 g / cm^3
# Si number density = 18.519299 Si / 1000 Ang^3
#
#
#
# Elastic Constant Matrix: (Units=GPa)
#
#
# Indices 1 2 3 4 5 6 
#
# 1 80.5885 50.1254 34.8479 0.0000 0.0000 0.0000
# 2 50.1254 102.9394 37.9312 0.0000 0.0000 0.0000
# 3 34.8479 37.9312 116.5454 0.0000 0.0000 0.0000
# 4 0.0000 0.0000 0.0000 10.3639 0.0000 0.0000
# 5 0.0000 0.0000 0.0000 0.0000 24.8632 0.0000
# 6 0.0000 0.0000 0.0000 0.0000 0.0000 20.3911
#
#
#
# Elastic Compliance Matrix: (Units=1/GPa)
#
#
# Indices 1 2 3 4 5 6 
#
# 1 0.018669 -0.007992 -0.002981 0.000000 0.000000 0.000000
# 2 -0.007992 0.014460 -0.002316 0.000000 0.000000 0.000000
# 3 -0.002981 -0.002316 0.010226 0.000000 0.000000 0.000000
# 4 0.000000 0.000000 0.000000 0.096489 0.000000 0.000000
# 5 0.000000 0.000000 0.000000 0.000000 0.040220 0.000000
# 6 0.000000 0.000000 0.000000 0.000000 0.000000 0.049041
#
#
# Mechanical properties :
#
#
# Convention : Reuss Voigt Hill
#
# Bulk Modulus (GPa) = 59.61229 60.65360 60.13294
# Shear Modulus (GPa) = 19.13693 22.93488 21.03590
#
# Velocity S-wave (km/s) = 3.21806 3.52295 3.37395
# Velocity P-wave (km/s) = 6.78727 7.02644 6.90789
#
# Compressibility (1/GPa) = 0.01677506
#
# Stress axis : x y z
#
# Youngs Moduli (GPa) = 53.56526 69.15756 97.79404
#
# Poissons Ratio (x) = 0.55272 0.29152
# Poissons Ratio (y) = 0.42810 0.22653
# Poissons Ratio (z) = 0.15968 0.16020
#
# Static dielectric constant tensor:
#      x y z
#    x 3.494260 0.000000 0.000000 
#    y 0.000000 3.273420 0.000000 
#    z 0.000000 0.000000 3.529060 
# 
# 
# High freq. dielectric constant tensor:
#      x y z
#    x 1.727490 0.000000 0.000000 
#    y 0.000000 1.700360 0.000000 
#    z 0.000000 0.000000 1.723530 
# 
# From -- ./inp_files/36603.got.cif
#   From: 2010.03.12/outbox.cif.g09.slc.cpg/sg65_19_cif.got.tgz:36603.got - 2010.04.10 20:52:16.
