data_PCOD8270007
_publ_section_title
;
Structure prediction by ZEFSAII (Michael W. Deem and Ramdas Pophale) SiO2 
 PCOD8270007
Probable space group: C M M M
;
_chemical_formula_sum "Si O2"
_cell_formula_units_Z 128
_cell_length_a 17.098547
_cell_length_b 23.455427
_cell_length_c 19.255693
_cell_angle_alpha 90.000000
_cell_angle_beta 90.000000
_cell_angle_gamma 90.000000
_cell_volume 7722.567327
_symmetry_space_group_name_H-M "C M M M"
_symmetry_group_IT_number 65
_symmetry_cell_setting 'orthorhombic'
loop_
_space_group_symop_operation_xyz
x,y,z
-x,-y,z
x,-y,-z
-x,y,-z
-x,-y,-z
x,y,-z
-x,y,z
x,-y,z
1/2+x,1/2+y,z
1/2-x,1/2-y,z
1/2+x,1/2-y,-z
1/2-x,1/2+y,-z
1/2-x,1/2-y,-z
1/2+x,1/2+y,-z
1/2-x,1/2+y,z
1/2+x,1/2-y,z
loop_
_atom_site_type_symbol
_atom_site_label
_atom_site_fract_x
_atom_site_fract_y
_atom_site_fract_z
Si Si1 0.909833 0.245590 0.181893
Si Si2 0.314331 0.858438 0.812260
Si Si3 0.410465 0.062218 0.714230
Si Si4 0.912129 0.143601 0.079919
Si Si5 0.268700 0.565848 0.918997
Si Si6 0.754335 0.316263 0.425201
Si Si7 0.696681 0.695128 0.284776
Si Si8 0.587062 0.124591 0.577968
O O1 0.856949 0.300405 0.164035
O O2 0.891264 0.200498 0.121763
O O3 0.887231 0.216602 0.256354
O O4 0.000000 0.263678 0.184957
O O5 0.368985 0.889568 0.757847
O O6 0.297645 0.898562 0.878345
O O7 0.232543 0.845796 0.773999
O O8 0.500000 0.063028 0.737372
O O9 0.401747 0.073255 0.632023
O O10 0.373665 0.000000 0.729303
O O11 0.854059 0.091750 0.097801
O O12 0.000000 0.122603 0.097913
O O13 0.904357 0.161211 0.000000
O O14 0.268376 0.500000 0.894814
O O15 0.248269 0.570876 0.000000
O O16 0.730241 0.345131 0.500000
O O17 0.750000 0.250000 0.436567
O O18 0.696825 0.335652 0.361133
O O19 0.845099 0.329513 0.407112
O O20 0.750000 0.750000 0.295907
O O21 0.594530 0.099685 0.500000
O O22 0.500000 0.152415 0.588332
#
# Coordination Sequence:
#
# PCOD8270007 Si02
#       8
#    16  16  16  16  16  16  16  16
#     4  10  20  33  51  74 100 129 160 203 257 305
#     4  11  19  33  50  72  98 129 163 206 246 297
#     4  10  20  32  47  68  94 127 167 206 244 288
#     4   9  18  33  52  76 104 130 160 199 248 307
#     4  10  21  35  52  74 100 134 171 207 249 295
#     4   9  16  28  44  65  94 126 158 195 241 292
#     4   9  17  29  46  70  94 123 160 199 243 292
#     4   9  17  29  45  66  93 125 160 198 243 296
#
# _framework density 16.574798000000001
#
# number of rings (size 3 to 8) (size 9 to 14) (size 15 to 20)
#    0.000    2.375    2.500    0.750    0.000    1.000 
#    0.000    3.750    0.000    1.500    0.000    4.375 
#    0.000    0.000    0.000    0.000    0.000    7.625 
#
# Total GULP energy -793020.334438 kJ/mol
# GULP energy per Si atom -12390.942726 kJ/mol
# Density = 1.653707 g / cm^3
# Si number density = 16.574798 Si / 1000 Ang^3
#
#
#
# Elastic Constant Matrix: (Units=GPa)
#
#
# Indices 1 2 3 4 5 6 
#
# 1 64.4340 42.9392 41.5919 0.0000 0.0000 0.0000
# 2 42.9392 85.1481 39.9372 0.0000 0.0000 0.0000
# 3 41.5919 39.9372 92.8780 0.0000 0.0000 0.0000
# 4 0.0000 0.0000 0.0000 26.2559 0.0000 0.0000
# 5 0.0000 0.0000 0.0000 0.0000 22.3153 0.0000
# 6 0.0000 0.0000 0.0000 0.0000 0.0000 21.8488
#
#
#
# Elastic Compliance Matrix: (Units=1/GPa)
#
#
# Indices 1 2 3 4 5 6 
#
# 1 0.027342 -0.010078 -0.007911 0.000000 0.000000 0.000000
# 2 -0.010078 0.018426 -0.003410 0.000000 0.000000 0.000000
# 3 -0.007911 -0.003410 0.015776 0.000000 0.000000 0.000000
# 4 0.000000 0.000000 0.000000 0.038087 0.000000 0.000000
# 5 0.000000 0.000000 0.000000 0.000000 0.044812 0.000000
# 6 0.000000 0.000000 0.000000 0.000000 0.000000 0.045769
#
#
# Mechanical properties :
#
#
# Convention : Reuss Voigt Hill
#
# Bulk Modulus (GPa) = 53.34385 54.59962 53.97174
# Shear Modulus (GPa) = 20.89799 21.95012 21.42405
#
# Velocity S-wave (km/s) = 3.55467 3.64305 3.59913
# Velocity P-wave (km/s) = 7.00722 7.12100 7.06434
#
# Compressibility (1/GPa) = 0.01874630
#
# Stress axis : x y z
#
# Youngs Moduli (GPa) = 36.57371 54.27160 63.38916
#
# Poissons Ratio (x) = 0.54695 0.50145
# Poissons Ratio (y) = 0.36859 0.21616
# Poissons Ratio (z) = 0.28932 0.18507
#
# Static dielectric constant tensor:
#      x y z
#    x 3.134350 0.000000 0.000000 
#    y 0.000000 3.020090 0.000000 
#    z 0.000000 0.000000 3.530940 
# 
# 
# High freq. dielectric constant tensor:
#      x y z
#    x 1.623850 0.000000 0.000000 
#    y 0.000000 1.617920 0.000000 
#    z 0.000000 0.000000 1.650350 
# 
# From -- ./inp_files/64135.got.cif
#   From: 2010.03.12/outbox.cif.g09.slc.cpg/sg65_33_cif.got.tgz:64135.got - 2010.04.10 20:52:16.
