data_PCOD8270196
_publ_section_title
;
Structure prediction by ZEFSAII (Michael W. Deem and Ramdas Pophale) SiO2 
 PCOD8270196
Probable space group: C M M M
;
_chemical_formula_sum "Si O2"
_cell_formula_units_Z 104
_cell_length_a 9.243002
_cell_length_b 19.406778
_cell_length_c 32.684960
_cell_angle_alpha 90.000000
_cell_angle_beta 90.000000
_cell_angle_gamma 90.000000
_cell_volume 5862.926405
_symmetry_space_group_name_H-M "C M M M"
_symmetry_group_IT_number 65
_symmetry_cell_setting 'orthorhombic'
loop_
_space_group_symop_operation_xyz
x,y,z
-x,-y,z
x,-y,-z
-x,y,-z
-x,-y,-z
x,y,-z
-x,y,z
x,-y,z
1/2+x,1/2+y,z
1/2-x,1/2-y,z
1/2+x,1/2-y,-z
1/2-x,1/2+y,-z
1/2-x,1/2-y,-z
1/2+x,1/2+y,-z
1/2-x,1/2+y,z
1/2+x,1/2-y,z
loop_
_atom_site_type_symbol
_atom_site_label
_atom_site_fract_x
_atom_site_fract_y
_atom_site_fract_z
Si Si1 0.838503 0.917646 0.000000
Si Si2 0.332698 0.080634 0.167314
Si Si3 0.339422 0.081941 0.076219
Si Si4 0.333218 0.081607 0.376960
Si Si5 0.668675 0.680865 0.680843
Si Si6 0.667273 0.681876 0.776438
Si Si7 0.662230 0.581802 0.545117
O O1 0.763557 0.887939 0.040921
O O2 0.000000 0.889110 0.000000
O O3 0.833498 0.000000 0.000000
O O4 0.500000 0.099263 0.175556
O O5 0.287413 0.104607 0.121456
O O6 0.230342 0.117095 0.199710
O O7 0.306726 0.000000 0.172761
O O8 0.500000 0.110558 0.067813
O O9 0.342245 0.000000 0.074425
O O10 0.500000 0.103597 0.373233
O O11 0.240005 0.115783 0.341246
O O12 0.273701 0.108847 0.420715
O O13 0.313762 0.000000 0.372587
O O14 0.500000 0.686922 0.669395
O O15 0.750000 0.750000 0.666442
O O16 0.691690 0.668170 0.728708
O O17 0.500000 0.691246 0.787286
O O18 0.750000 0.750000 0.791044
O O19 0.709539 0.608895 0.500000
O O20 0.500000 0.608079 0.555420
O O21 0.663156 0.500000 0.544768
#
# Coordination Sequence:
#
# PCOD8270196 Si02
#       7
#     8  16  16  16  16  16  16
#     4   9  15  21  33  57  88 121 156 195 236 275
#     4   9  18  32  50  73 101 131 162 200 246 291
#     4   8  14  25  40  59  87 124 160 191 230 282
#     4  10  20  32  49  76 106 134 166 204 244 287
#     4  10  21  37  55  73  96 128 165 204 247 296
#     4  10  21  36  54  74  96 126 164 204 245 293
#     4   8  14  26  45  69  98 132 167 202 241 284
#
# _framework density 17.738581
#
# number of rings (size 3 to 8) (size 9 to 14) (size 15 to 20)
#    0.000    2.846    0.000    3.000    0.000    5.538 
#    0.000    6.154    0.000    0.462    0.000    0.538 
#    0.000    0.000    0.000    0.000    0.000    0.000 
#
# Total GULP energy -644659.595857 kJ/mol
# GULP energy per Si atom -12397.299920 kJ/mol
# Density = 1.769821 g / cm^3
# Si number density = 17.738581 Si / 1000 Ang^3
#
#
#
# Elastic Constant Matrix: (Units=GPa)
#
#
# Indices 1 2 3 4 5 6 
#
# 1 137.1085 44.2231 74.8320 0.0000 0.0000 0.0000
# 2 44.2231 41.0253 40.5275 0.0000 0.0000 0.0000
# 3 74.8320 40.5275 97.7714 0.0000 0.0000 0.0000
# 4 0.0000 0.0000 0.0000 2.2314 0.0000 0.0000
# 5 0.0000 0.0000 0.0000 0.0000 34.2810 0.0000
# 6 0.0000 0.0000 0.0000 0.0000 0.0000 25.9605
#
#
#
# Elastic Compliance Matrix: (Units=1/GPa)
#
#
# Indices 1 2 3 4 5 6 
#
# 1 0.013767 -0.007504 -0.007427 0.000000 0.000000 0.000000
# 2 -0.007504 0.045368 -0.013062 0.000000 0.000000 0.000000
# 3 -0.007427 -0.013062 0.021327 0.000000 0.000000 0.000000
# 4 0.000000 0.000000 0.000000 0.448151 0.000000 0.000000
# 5 0.000000 0.000000 0.000000 0.000000 0.029171 0.000000
# 6 0.000000 0.000000 0.000000 0.000000 0.000000 0.038520
#
#
# Mechanical properties :
#
#
# Convention : Reuss Voigt Hill
#
# Bulk Modulus (GPa) = 40.85629 66.11894 53.48761
# Shear Modulus (GPa) = 7.57063 20.24942 13.91003
#
# Velocity S-wave (km/s) = 2.06813 3.38234 2.80334
# Velocity P-wave (km/s) = 5.36520 7.25318 6.37942
#
# Compressibility (1/GPa) = 0.02447604
#
# Stress axis : x y z
#
# Youngs Moduli (GPa) = 72.63691 22.04216 46.88974
#
# Poissons Ratio (x) = 0.16540 0.34823
# Poissons Ratio (y) = 0.54504 0.61249
# Poissons Ratio (z) = 0.53945 0.28792
#
# Static dielectric constant tensor:
#      x y z
#    x 3.447010 0.000000 0.000000 
#    y 0.000000 2.827560 0.000000 
#    z 0.000000 0.000000 3.512930 
# 
# 
# High freq. dielectric constant tensor:
#      x y z
#    x 1.694050 0.000000 0.000000 
#    y 0.000000 1.636740 0.000000 
#    z 0.000000 0.000000 1.696490 
# 
# From -- ./inp_files/76946.got.cif
#   From: 2010.03.12/outbox.cif.g09.slc.cpg/sg65_39_cif.got.tgz:76946.got - 2010.04.10 20:52:16.
