data_PCOD8270678
_publ_section_title
;
Structure prediction by ZEFSAII (Michael W. Deem and Ramdas Pophale) SiO2 
 PCOD8270678
Probable space group: C M M M
;
_chemical_formula_sum "Si O2"
_cell_formula_units_Z 96
_cell_length_a 9.119789
_cell_length_b 19.575405
_cell_length_c 30.058696
_cell_angle_alpha 90.000000
_cell_angle_beta 90.000000
_cell_angle_gamma 90.000000
_cell_volume 5366.185515
_symmetry_space_group_name_H-M "C M M M"
_symmetry_group_IT_number 65
_symmetry_cell_setting 'orthorhombic'
loop_
_space_group_symop_operation_xyz
x,y,z
-x,-y,z
x,-y,-z
-x,y,-z
-x,-y,-z
x,y,-z
-x,y,z
x,-y,z
1/2+x,1/2+y,z
1/2-x,1/2-y,z
1/2+x,1/2-y,-z
1/2-x,1/2+y,-z
1/2-x,1/2-y,-z
1/2+x,1/2+y,-z
1/2-x,1/2+y,z
1/2+x,1/2-y,z
loop_
_atom_site_type_symbol
_atom_site_label
_atom_site_fract_x
_atom_site_fract_y
_atom_site_fract_z
Si Si1 0.162925 0.581263 0.713279
Si Si2 0.170163 0.419601 0.115179
Si Si3 0.664003 0.581281 0.202826
Si Si4 0.670229 0.920385 0.385902
Si Si5 0.671144 0.318516 0.551351
Si Si6 0.169980 0.181169 0.947781
O O1 0.158287 0.500000 0.715389
O O2 0.271146 0.610926 0.750959
O O3 0.214789 0.603529 0.664009
O O4 0.000000 0.609756 0.722819
O O5 0.193957 0.500000 0.108935
O O6 0.235939 0.393827 0.162010
O O7 0.255654 0.383465 0.075370
O O8 0.000000 0.399673 0.113818
O O9 0.500000 0.610211 0.196668
O O10 0.662430 0.500000 0.204685
O O11 0.500000 0.903986 0.394759
O O12 0.771073 0.882105 0.420875
O O13 0.701890 0.000000 0.392173
O O14 0.708218 0.333034 0.500000
O O15 0.500000 0.309251 0.559567
O O16 0.750000 0.250000 0.568034
O O17 0.250000 0.250000 0.931687
O O18 0.000000 0.185834 0.934400
O O19 0.190853 0.170239 0.000000
#
# Coordination Sequence:
#
# PCOD8270678 Si02
#       6
#    16  16  16  16  16  16
#     4   8  14  26  44  67  97 131 164 197 238 291
#     4  10  20  33  51  76 105 136 170 209 251 294
#     4   9  16  26  43  69 100 132 166 204 246 292
#     4   9  18  32  51  76 104 133 165 203 247 294
#     4  10  21  36  53  72  96 129 168 208 250 299
#     4  10  21  37  56  76 100 132 169 208 251 302
#
# _framework density 17.889803000000001
#
# number of rings (size 3 to 8) (size 9 to 14) (size 15 to 20)
#    0.000    2.667    0.000    3.000    0.000    6.667 
#    0.000    5.000    0.000    1.000    0.000    2.333 
#    0.000    0.000    0.000    0.000    0.000    0.000 
#
# Total GULP energy -595185.812194 kJ/mol
# GULP energy per Si atom -12399.704421 kJ/mol
# Density = 1.784908 g / cm^3
# Si number density = 17.889803 Si / 1000 Ang^3
#
#
#
# Elastic Constant Matrix: (Units=GPa)
#
#
# Indices 1 2 3 4 5 6 
#
# 1 134.2230 46.3263 69.5990 0.0000 0.0000 0.0000
# 2 46.3263 48.5660 43.7418 0.0000 0.0000 0.0000
# 3 69.5990 43.7418 95.2794 0.0000 0.0000 0.0000
# 4 0.0000 0.0000 0.0000 2.5870 0.0000 0.0000
# 5 0.0000 0.0000 0.0000 0.0000 37.4991 0.0000
# 6 0.0000 0.0000 0.0000 0.0000 0.0000 28.4720
#
#
#
# Elastic Compliance Matrix: (Units=1/GPa)
#
#
# Indices 1 2 3 4 5 6 
#
# 1 0.013136 -0.006629 -0.006552 0.000000 0.000000 0.000000
# 2 -0.006629 0.038452 -0.012811 0.000000 0.000000 0.000000
# 3 -0.006552 -0.012811 0.021163 0.000000 0.000000 0.000000
# 4 0.000000 0.000000 0.000000 0.386541 0.000000 0.000000
# 5 0.000000 0.000000 0.000000 0.000000 0.026667 0.000000
# 6 0.000000 0.000000 0.000000 0.000000 0.000000 0.035122
#
#
# Mechanical properties :
#
#
# Convention : Reuss Voigt Hill
#
# Bulk Modulus (GPa) = 48.15272 66.37807 57.26540
# Shear Modulus (GPa) = 8.62090 21.60505 15.11297
#
# Velocity S-wave (km/s) = 2.19758 3.47893 2.90967
# Velocity P-wave (km/s) = 5.78047 7.30217 6.58542
#
# Compressibility (1/GPa) = 0.02076726
#
# Stress axis : x y z
#
# Youngs Moduli (GPa) = 76.12930 26.00666 47.25252
#
# Poissons Ratio (x) = 0.17239 0.30960
# Poissons Ratio (y) = 0.50463 0.60534
# Poissons Ratio (z) = 0.49880 0.33317
#
# Static dielectric constant tensor:
#      x y z
#    x 3.488720 0.000000 0.000000 
#    y 0.000000 2.929560 0.000000 
#    z 0.000000 0.000000 3.439070 
# 
# 
# High freq. dielectric constant tensor:
#      x y z
#    x 1.704160 0.000000 0.000000 
#    y 0.000000 1.650150 0.000000 
#    z 0.000000 0.000000 1.700490 
# 
# From -- ./inp_files/73079.got.cif
#   From: 2010.03.12/outbox.cif.g09.slc.cpg/sg65_37_cif.got.tgz:73079.got - 2010.04.10 20:52:16.
