data_PCOD8270729
_publ_section_title
;
Structure prediction by ZEFSAII (Michael W. Deem and Ramdas Pophale) SiO2 
 PCOD8270729
Probable space group: C M M M
;
_chemical_formula_sum "Si O2"
_cell_formula_units_Z 96
_cell_length_a 17.882452
_cell_length_b 22.917346
_cell_length_c 12.927600
_cell_angle_alpha 90.000000
_cell_angle_beta 90.000000
_cell_angle_gamma 90.000000
_cell_volume 5297.967570
_symmetry_space_group_name_H-M "C M M M"
_symmetry_group_IT_number 65
_symmetry_cell_setting 'orthorhombic'
loop_
_space_group_symop_operation_xyz
x,y,z
-x,-y,z
x,-y,-z
-x,y,-z
-x,-y,-z
x,y,-z
-x,y,z
x,-y,z
1/2+x,1/2+y,z
1/2-x,1/2-y,z
1/2+x,1/2-y,-z
1/2-x,1/2+y,-z
1/2-x,1/2-y,-z
1/2+x,1/2+y,-z
1/2-x,1/2+y,z
1/2+x,1/2-y,z
loop_
_atom_site_type_symbol
_atom_site_label
_atom_site_fract_x
_atom_site_fract_y
_atom_site_fract_z
Si Si1 0.816668 0.932517 0.878940
Si Si2 0.413839 0.664827 0.224715
Si Si3 0.707029 0.310619 0.381948
Si Si4 0.415348 0.783608 0.880597
Si Si5 0.917245 0.568528 0.388214
Si Si6 0.312673 0.125649 0.232335
O O1 0.877857 0.894887 0.817050
O O2 0.732770 0.909877 0.854674
O O3 0.824454 0.000000 0.844741
O O4 0.831628 0.925421 0.000000
O O5 0.500000 0.652421 0.251329
O O6 0.374386 0.689806 0.328259
O O7 0.404318 0.714678 0.137755
O O8 0.695732 0.329865 0.500000
O O9 0.750000 0.250000 0.373697
O O10 0.756093 0.357650 0.322722
O O11 0.500000 0.802005 0.848774
O O12 0.353847 0.818751 0.816232
O O13 0.400986 0.796969 0.000000
O O14 0.884423 0.591115 0.500000
O O15 0.921512 0.500000 0.392413
O O16 0.872256 0.584687 0.286551
O O17 0.000000 0.595206 0.375500
#
# Coordination Sequence:
#
# PCOD8270729 Si02
#       6
#    16  16  16  16  16  16
#     4  10  22  37  55  81 108 139 185 235 279 322
#     4  10  21  38  58  80 108 144 181 220 271 326
#     4  10  20  35  53  79 111 140 171 212 260 317
#     4  10  20  33  51  78 109 142 180 218 263 325
#     4   9  18  32  50  74 104 139 181 224 264 312
#     4  11  19  33  54  77 107 145 174 221 267 329
#
# _framework density 18.120156999999999
#
# number of rings (size 3 to 8) (size 9 to 14) (size 15 to 20)
#    0.000    2.000    1.667    3.000    0.000    1.667 
#    0.000    3.333    0.000    4.500    0.000   11.667 
#    0.000    0.000    0.000    0.000    0.000    0.000 
#
# Total GULP energy -595039.749041 kJ/mol
# GULP energy per Si atom -12396.661438 kJ/mol
# Density = 1.807891 g / cm^3
# Si number density = 18.120157 Si / 1000 Ang^3
#
#
#
# Elastic Constant Matrix: (Units=GPa)
#
#
# Indices 1 2 3 4 5 6 
#
# 1 118.5270 47.4260 51.4367 0.0000 0.0000 0.0000
# 2 47.4260 84.2418 34.7294 0.0000 0.0000 0.0000
# 3 51.4367 34.7294 93.0199 0.0000 0.0000 0.0000
# 4 0.0000 0.0000 0.0000 25.2596 0.0000 0.0000
# 5 0.0000 0.0000 0.0000 0.0000 -122.6684 0.0000
# 6 0.0000 0.0000 0.0000 0.0000 0.0000 27.6165
#
#
#
# Elastic Compliance Matrix: (Units=1/GPa)
#
#
# Indices 1 2 3 4 5 6 
#
# 1 0.012673 -0.005018 -0.005134 0.000000 0.000000 0.000000
# 2 -0.005018 0.016017 -0.003205 0.000000 0.000000 0.000000
# 3 -0.005134 -0.003205 0.014786 0.000000 0.000000 0.000000
# 4 0.000000 0.000000 0.000000 0.039589 0.000000 0.000000
# 5 0.000000 0.000000 0.000000 0.000000 -0.008152 0.000000
# 6 0.000000 0.000000 0.000000 0.000000 0.000000 0.036210
#
#
# Mechanical properties :
#
#
# Convention : Reuss Voigt Hill
#
# Bulk Modulus (GPa) = 59.66162 62.55253 61.10708
# Shear Modulus (GPa) = 34.86155 -3.14536 15.85810
#
# Velocity S-wave (km/s) = 4.39100 -1.31894 2.96153
# Velocity P-wave (km/s) = 7.66191 5.68124 6.74468
#
# Compressibility (1/GPa) = 0.01676119
#
# Stress axis : x y z
#
# Youngs Moduli (GPa) = 78.90972 62.43396 67.63106
#
# Poissons Ratio (x) = 0.31328 0.34723
# Poissons Ratio (y) = 0.39595 0.21678
# Poissons Ratio (z) = 0.40513 0.20012
#
# Static dielectric constant tensor:
#      x y z
#    x 3.501010 0.000000 0.000000 
#    y 0.000000 3.190640 0.000000 
#    z 0.000000 0.000000 3.527220 
# 
# 
# High freq. dielectric constant tensor:
#      x y z
#    x 1.706400 0.000000 0.000000 
#    y 0.000000 1.692840 0.000000 
#    z 0.000000 0.000000 1.705530 
# 
# From -- ./inp_files/27098.got.cif
#   From: 2010.03.12/outbox.cif.g09.slc.cpg/sg65_14_cif.got.tgz:27098.got - 2010.04.10 20:52:16.
