data_PCOD8270390
_publ_section_title
;
Structure prediction by ZEFSAII (Michael W. Deem and Ramdas Pophale) SiO2 
 PCOD8270390
Probable space group: C M M M
;
_chemical_formula_sum "Si O2"
_cell_formula_units_Z 120
_cell_length_a 9.486367
_cell_length_b 26.044868
_cell_length_c 27.981955
_cell_angle_alpha 90.000000
_cell_angle_beta 90.000000
_cell_angle_gamma 90.000000
_cell_volume 6913.534537
_symmetry_space_group_name_H-M "C M M M"
_symmetry_group_IT_number 65
_symmetry_cell_setting 'orthorhombic'
loop_
_space_group_symop_operation_xyz
x,y,z
-x,-y,z
x,-y,-z
-x,y,-z
-x,-y,-z
x,y,-z
-x,y,z
x,-y,z
1/2+x,1/2+y,z
1/2-x,1/2-y,z
1/2+x,1/2-y,-z
1/2-x,1/2+y,-z
1/2-x,1/2-y,-z
1/2+x,1/2+y,-z
1/2-x,1/2+y,z
1/2+x,1/2-y,z
loop_
_atom_site_type_symbol
_atom_site_label
_atom_site_fract_x
_atom_site_fract_y
_atom_site_fract_z
Si Si1 0.832838 0.301336 0.615543
Si Si2 0.837772 0.401685 0.556024
Si Si3 0.338268 0.500000 0.443165
Si Si4 0.336978 0.559434 0.946247
Si Si5 0.341389 0.098652 0.138231
Si Si6 0.667974 0.056374 0.237358
Si Si7 0.657334 0.205132 0.813719
Si Si8 0.832524 0.342694 0.716458
O O1 0.750000 0.250000 0.599395
O O2 0.793653 0.348068 0.580343
O O3 0.775011 0.318128 0.667712
O O4 0.000000 0.290083 0.614993
O O5 0.815407 0.393801 0.500000
O O6 0.741728 0.448706 0.575483
O O7 0.000000 0.415276 0.568224
O O8 0.500000 0.500000 0.424734
O O9 0.332787 0.500000 0.500000
O O10 0.500000 0.572165 0.938845
O O11 0.306567 0.500000 0.936722
O O12 0.249677 0.592293 0.908914
O O13 0.290519 0.574271 0.000000
O O14 0.500000 0.079622 0.127675
O O15 0.276568 0.067957 0.183645
O O16 0.339586 0.158554 0.149762
O O17 0.500000 0.059913 0.234730
O O18 0.723037 0.098562 0.275629
O O19 0.720165 0.000000 0.253655
O O20 0.500000 0.225913 0.807040
O O21 0.750000 0.250000 0.836326
O O22 0.720017 0.190052 0.761689
O O23 0.000000 0.344125 0.714623
#
# Coordination Sequence:
#
# PCOD8270390 Si02
#       8
#    16  16   8  16  16  16  16  16
#     4  10  20  33  49  70  96 128 166 203 242 289
#     4   9  18  33  51  72 100 130 160 200 247 289
#     4   9  17  31  53  77  97 121 157 197 237 287
#     4   9  18  31  45  64  92 122 149 178 215 262
#     4   9  17  28  44  67  91 115 147 187 228 268
#     4   8  13  23  41  65  92 118 144 184 233 274
#     4   9  17  29  46  67  91 116 148 191 233 272
#     4   8  15  28  43  64  93 121 154 193 231 276
#
# _framework density 17.357258000000002
#
# number of rings (size 3 to 8) (size 9 to 14) (size 15 to 20)
#    0.000    3.133    0.000    3.000    0.000    3.200 
#    1.200    0.667    0.000    1.200    0.000    0.000 
#    0.000    0.000    0.000    0.000    0.000    0.000 
#
# Total GULP energy -743660.069801 kJ/mol
# GULP energy per Si atom -12394.334497 kJ/mol
# Density = 1.731775 g / cm^3
# Si number density = 17.357258 Si / 1000 Ang^3
#
#
#
# Elastic Constant Matrix: (Units=GPa)
#
#
# Indices 1 2 3 4 5 6 
#
# 1 58.5325 52.4399 32.2702 0.0000 0.0000 0.0000
# 2 52.4399 119.2864 35.0836 0.0000 0.0000 0.0000
# 3 32.2702 35.0836 64.0502 0.0000 0.0000 0.0000
# 4 0.0000 0.0000 0.0000 18.4355 0.0000 0.0000
# 5 0.0000 0.0000 0.0000 0.0000 17.3197 0.0000
# 6 0.0000 0.0000 0.0000 0.0000 0.0000 28.5636
#
#
#
# Elastic Compliance Matrix: (Units=1/GPa)
#
#
# Indices 1 2 3 4 5 6 
#
# 1 0.033116 -0.011504 -0.010383 0.000000 0.000000 0.000000
# 2 -0.011504 0.013990 -0.001867 0.000000 0.000000 0.000000
# 3 -0.010383 -0.001867 0.021867 0.000000 0.000000 0.000000
# 4 0.000000 0.000000 0.000000 0.054243 0.000000 0.000000
# 5 0.000000 0.000000 0.000000 0.000000 0.057738 0.000000
# 6 0.000000 0.000000 0.000000 0.000000 0.000000 0.035010
#
#
# Mechanical properties :
#
#
# Convention : Reuss Voigt Hill
#
# Bulk Modulus (GPa) = 46.59018 53.49518 50.04268
# Shear Modulus (GPa) = 18.47572 21.00211 19.73892
#
# Velocity S-wave (km/s) = 3.26611 3.48227 3.37592
# Velocity P-wave (km/s) = 6.41276 6.85968 6.63998
#
# Compressibility (1/GPa) = 0.02146375
#
# Stress axis : x y z
#
# Youngs Moduli (GPa) = 30.19705 71.48133 45.73200
#
# Poissons Ratio (x) = 0.82235 0.47484
# Poissons Ratio (y) = 0.34740 0.08537
# Poissons Ratio (z) = 0.31354 0.13343
#
# Static dielectric constant tensor:
#      x y z
#    x 2.955920 0.000000 0.000000 
#    y 0.000000 3.296600 0.000000 
#    z 0.000000 0.000000 3.164370 
# 
# 
# High freq. dielectric constant tensor:
#      x y z
#    x 1.638050 0.000000 0.000000 
#    y 0.000000 1.673840 0.000000 
#    z 0.000000 0.000000 1.655660 
# 
# From -- ./inp_files/73918.got.cif
#   From: 2010.03.12/outbox.cif.g09.slc.cpg/sg65_37_cif.got.tgz:73918.got - 2010.04.10 20:52:16.
