data_PCOD8270911
_publ_section_title
;
Structure prediction by ZEFSAII (Michael W. Deem and Ramdas Pophale) SiO2 
 PCOD8270911
Probable space group: C M M M
;
_chemical_formula_sum "Si O2"
_cell_formula_units_Z 104
_cell_length_a 26.505338
_cell_length_b 9.747928
_cell_length_c 24.368058
_cell_angle_alpha 90.000000
_cell_angle_beta 90.000000
_cell_angle_gamma 90.000000
_cell_volume 6296.026963
_symmetry_space_group_name_H-M "C M M M"
_symmetry_group_IT_number 65
_symmetry_cell_setting 'orthorhombic'
loop_
_space_group_symop_operation_xyz
x,y,z
-x,-y,z
x,-y,-z
-x,y,-z
-x,-y,-z
x,y,-z
-x,y,z
x,-y,z
1/2+x,1/2+y,z
1/2-x,1/2-y,z
1/2+x,1/2-y,-z
1/2-x,1/2+y,-z
1/2-x,1/2-y,-z
1/2+x,1/2+y,-z
1/2-x,1/2+y,z
1/2+x,1/2-y,z
loop_
_atom_site_type_symbol
_atom_site_label
_atom_site_fract_x
_atom_site_fract_y
_atom_site_fract_z
Si Si1 0.441274 0.000000 0.438522
Si Si2 0.060258 0.344155 0.158069
Si Si3 0.559950 0.653607 0.938807
Si Si4 0.294725 0.851347 0.500000
Si Si5 0.095436 0.247838 0.369014
Si Si6 0.699827 0.841192 0.380161
Si Si7 0.558675 0.500000 0.565072
Si Si8 0.941580 0.153263 0.254570
O O1 0.426925 0.874246 0.401083
O O2 0.500000 0.000000 0.449689
O O3 0.415030 0.000000 0.500000
O O4 0.081583 0.500000 0.159608
O O5 0.080781 0.267022 0.103584
O O6 0.081868 0.258085 0.209912
O O7 0.000000 0.348597 0.158830
O O8 0.500000 0.655678 0.938008
O O9 0.578328 0.500000 0.922176
O O10 0.579514 0.690415 0.000000
O O11 0.250000 0.750000 0.500000
O O12 0.323868 0.833252 0.557506
O O13 0.268784 0.000000 0.500000
O O14 0.153050 0.275231 0.347553
O O15 0.064069 0.216692 0.314642
O O16 0.090115 0.126082 0.411952
O O17 0.750000 0.750000 0.371741
O O18 0.710962 0.000000 0.363568
O O19 0.500000 0.500000 0.584643
O O20 0.561446 0.500000 0.500000
O O21 0.000000 0.137871 0.241040
O O22 0.916834 0.000000 0.251079
#
# Coordination Sequence:
#
# PCOD8270911 Si02
#       8
#     8  16  16   8  16  16   8  16
#     4  11  24  38  55  75  99 127 155 195 246 297
#     4   9  17  26  39  60  84 113 150 196 241 274
#     4   8  13  22  36  54  79 113 151 189 231 278
#     4   8  16  32  50  68  89 110 136 172 217 272
#     4  12  23  37  56  76  96 125 160 196 245 298
#     4  10  22  37  54  75  97 119 149 189 235 292
#     4  11  24  40  55  75 101 127 161 199 238 293
#     4  10  20  34  49  65  89 122 160 197 233 282
#
# _framework density 16.518353999999999
#
# number of rings (size 3 to 8) (size 9 to 14) (size 15 to 20)
#    0.000    2.154    1.538    2.769    4.308    3.385 
#    0.000    1.538    0.000    0.000    0.000    0.000 
#    0.000    0.000    0.000    0.000    0.000    0.769 
#
# Total GULP energy -644225.162996 kJ/mol
# GULP energy per Si atom -12388.945442 kJ/mol
# Density = 1.648076 g / cm^3
# Si number density = 16.518354 Si / 1000 Ang^3
#
#
#
# Elastic Constant Matrix: (Units=GPa)
#
#
# Indices 1 2 3 4 5 6 
#
# 1 41.0501 23.1841 2.3605 0.0000 0.0000 0.0000
# 2 23.1841 156.9106 66.1684 0.0000 0.0000 0.0000
# 3 2.3605 66.1684 102.1503 0.0000 0.0000 0.0000
# 4 0.0000 0.0000 0.0000 26.4200 0.0000 0.0000
# 5 0.0000 0.0000 0.0000 0.0000 2.8838 0.0000
# 6 0.0000 0.0000 0.0000 0.0000 0.0000 15.5508
#
#
#
# Elastic Compliance Matrix: (Units=1/GPa)
#
#
# Indices 1 2 3 4 5 6 
#
# 1 0.027112 -0.005148 0.002708 0.000000 0.000000 0.000000
# 2 -0.005148 0.009746 -0.006194 0.000000 0.000000 0.000000
# 3 0.002708 -0.006194 0.013739 0.000000 0.000000 0.000000
# 4 0.000000 0.000000 0.000000 0.037850 0.000000 0.000000
# 5 0.000000 0.000000 0.000000 0.000000 0.346770 0.000000
# 6 0.000000 0.000000 0.000000 0.000000 0.000000 0.064305
#
#
# Mechanical properties :
#
#
# Convention : Reuss Voigt Hill
#
# Bulk Modulus (GPa) = 30.00347 53.72635 41.86491
# Shear Modulus (GPa) = 9.47151 22.86411 16.16781
#
# Velocity S-wave (km/s) = 2.39716 3.72447 3.13194
# Velocity P-wave (km/s) = 5.08576 7.14783 6.20308
#
# Compressibility (1/GPa) = 0.03332948
#
# Stress axis : x y z
#
# Youngs Moduli (GPa) = 36.88379 102.61080 72.78562
#
# Poissons Ratio (x) = 0.52823 -0.19711
# Poissons Ratio (y) = 0.18987 0.45082
# Poissons Ratio (z) = -0.09988 0.63555
#
# Static dielectric constant tensor:
#      x y z
#    x 2.634130 0.000000 0.000000 
#    y 0.000000 3.446620 0.000000 
#    z 0.000000 0.000000 3.065650 
# 
# 
# High freq. dielectric constant tensor:
#      x y z
#    x 1.570820 0.000000 0.000000 
#    y 0.000000 1.660520 0.000000 
#    z 0.000000 0.000000 1.624530 
# 
# From -- ./inp_files/72195.got.cif
#   From: 2010.03.12/outbox.cif.g09.slc.cpg/sg65_37_cif.got.tgz:72195.got - 2010.04.10 20:52:16.
