data_PCOD8270495
_publ_section_title
;
Structure prediction by ZEFSAII (Michael W. Deem and Ramdas Pophale) SiO2 
 PCOD8270495
Probable space group: C M M M
;
_chemical_formula_sum "Si O2"
_cell_formula_units_Z 96
_cell_length_a 20.321293
_cell_length_b 9.140594
_cell_length_c 29.566148
_cell_angle_alpha 90.000000
_cell_angle_beta 90.000000
_cell_angle_gamma 90.000000
_cell_volume 5491.873226
_symmetry_space_group_name_H-M "C M M M"
_symmetry_group_IT_number 65
_symmetry_cell_setting 'orthorhombic'
loop_
_space_group_symop_operation_xyz
x,y,z
-x,-y,z
x,-y,-z
-x,y,-z
-x,-y,-z
x,y,-z
-x,y,z
x,-y,z
1/2+x,1/2+y,z
1/2-x,1/2-y,z
1/2+x,1/2-y,-z
1/2-x,1/2+y,-z
1/2-x,1/2-y,-z
1/2+x,1/2+y,-z
1/2-x,1/2+y,z
1/2+x,1/2-y,z
loop_
_atom_site_type_symbol
_atom_site_label
_atom_site_fract_x
_atom_site_fract_y
_atom_site_fract_z
Si Si1 0.575522 0.332382 0.552616
Si Si2 0.683310 0.171873 0.051724
Si Si3 0.426976 0.826181 0.220218
Si Si4 0.926880 0.326186 0.119106
Si Si5 0.315946 0.828367 0.713208
Si Si6 0.316561 0.171280 0.390873
O O1 0.589350 0.305780 0.500000
O O2 0.500000 0.294501 0.564192
O O3 0.590905 0.500000 0.565515
O O4 0.621545 0.225390 0.580743
O O5 0.750000 0.250000 0.066897
O O6 0.625004 0.236251 0.082931
O O7 0.693011 0.000000 0.058881
O O8 0.665402 0.209418 0.000000
O O9 0.500000 0.766752 0.232157
O O10 0.406879 0.774961 0.169674
O O11 0.375405 0.763893 0.256624
O O12 0.427669 0.000000 0.222467
O O13 0.927444 0.500000 0.116696
O O14 0.000000 0.267192 0.107172
O O15 0.250000 0.750000 0.729814
O O16 0.331227 0.790571 0.661241
O O17 0.306531 0.000000 0.720663
O O18 0.250000 0.250000 0.407482
O O19 0.307078 0.000000 0.398797
#
# Coordination Sequence:
#
# PCOD8270495 Si02
#       6
#    16  16  16  16  16  16
#     4   9  19  36  55  74  98 127 157 191 233 279
#     4   9  17  28  42  62  88 115 144 181 223 266
#     4   8  14  26  44  65  89 116 147 184 224 266
#     4   8  14  25  42  64  87 112 146 186 224 262
#     4   9  18  31  47  68  93 120 150 186 226 267
#     4  10  20  33  50  72  98 127 159 195 233 275
#
# _framework density 17.480374000000001
#
# number of rings (size 3 to 8) (size 9 to 14) (size 15 to 20)
#    0.000    3.167    0.000    2.000    0.000    3.333 
#    0.000    4.167    0.000    1.000    0.000    4.667 
#    0.000    0.000    0.000    0.000    0.000    0.000 
#
# Total GULP energy -595075.968342 kJ/mol
# GULP energy per Si atom -12397.416007 kJ/mol
# Density = 1.744059 g / cm^3
# Si number density = 17.480374 Si / 1000 Ang^3
#
#
#
# Elastic Constant Matrix: (Units=GPa)
#
#
# Indices 1 2 3 4 5 6 
#
# 1 152.6408 43.1591 91.1412 0.0000 0.0000 0.0000
# 2 43.1591 37.7806 32.6278 0.0000 0.0000 0.0000
# 3 91.1412 32.6278 94.2595 0.0000 0.0000 0.0000
# 4 0.0000 0.0000 0.0000 14.2129 0.0000 0.0000
# 5 0.0000 0.0000 0.0000 0.0000 41.6964 0.0000
# 6 0.0000 0.0000 0.0000 0.0000 0.0000 29.0824
#
#
#
# Elastic Compliance Matrix: (Units=1/GPa)
#
#
# Indices 1 2 3 4 5 6 
#
# 1 0.016828 -0.007377 -0.013718 0.000000 0.000000 0.000000
# 2 -0.007377 0.040989 -0.007056 0.000000 0.000000 0.000000
# 3 -0.013718 -0.007056 0.026315 0.000000 0.000000 0.000000
# 4 0.000000 0.000000 0.000000 0.070359 0.000000 0.000000
# 5 0.000000 0.000000 0.000000 0.000000 0.023983 0.000000
# 6 0.000000 0.000000 0.000000 0.000000 0.000000 0.034385
#
#
# Mechanical properties :
#
#
# Convention : Reuss Voigt Hill
#
# Bulk Modulus (GPa) = 35.93001 68.72633 52.32817
# Shear Modulus (GPa) = 17.95747 24.84853 21.40300
#
# Velocity S-wave (km/s) = 3.20862 3.77438 3.50294
# Velocity P-wave (km/s) = 5.85885 7.64174 6.80890
#
# Compressibility (1/GPa) = 0.02783189
#
# Stress axis : x y z
#
# Youngs Moduli (GPa) = 59.42510 24.39691 38.00086
#
# Poissons Ratio (x) = 0.17997 0.52129
# Poissons Ratio (y) = 0.43836 0.26812
# Poissons Ratio (z) = 0.81518 0.17213
#
# Static dielectric constant tensor:
#      x y z
#    x 3.499140 0.000000 0.000000 
#    y 0.000000 2.885040 0.000000 
#    z 0.000000 0.000000 3.362650 
# 
# 
# High freq. dielectric constant tensor:
#      x y z
#    x 1.683630 0.000000 0.000000 
#    y 0.000000 1.638680 0.000000 
#    z 0.000000 0.000000 1.676400 
# 
# From -- ./inp_files/73200.got.cif
#   From: 2010.03.12/outbox.cif.g09.slc.cpg/sg65_37_cif.got.tgz:73200.got - 2010.04.10 20:52:16.
