data_PCOD8270202
_publ_section_title
;
Structure prediction by ZEFSAII (Michael W. Deem and Ramdas Pophale) SiO2 
 PCOD8270202
Probable space group: C M M M
;
_chemical_formula_sum "Si O2"
_cell_formula_units_Z 104
_cell_length_a 9.044885
_cell_length_b 29.435620
_cell_length_c 22.088889
_cell_angle_alpha 90.000000
_cell_angle_beta 90.000000
_cell_angle_gamma 90.000000
_cell_volume 5880.985519
_symmetry_space_group_name_H-M "C M M M"
_symmetry_group_IT_number 65
_symmetry_cell_setting 'orthorhombic'
loop_
_space_group_symop_operation_xyz
x,y,z
-x,-y,z
x,-y,-z
-x,y,-z
-x,-y,-z
x,y,-z
-x,y,z
x,-y,z
1/2+x,1/2+y,z
1/2-x,1/2-y,z
1/2+x,1/2-y,-z
1/2-x,1/2+y,-z
1/2-x,1/2-y,-z
1/2+x,1/2+y,-z
1/2-x,1/2+y,z
1/2+x,1/2-y,z
loop_
_atom_site_type_symbol
_atom_site_label
_atom_site_fract_x
_atom_site_fract_y
_atom_site_fract_z
Si Si1 0.175214 0.140045 0.385928
Si Si2 0.326713 0.298885 0.500000
Si Si3 0.336982 0.049483 0.928430
Si Si4 0.825737 0.702922 0.292531
Si Si5 0.328958 0.795211 0.846737
Si Si6 0.671592 0.948494 0.429272
Si Si7 0.168226 0.135378 0.928925
O O1 0.222197 0.171681 0.442185
O O2 0.254639 0.160725 0.327437
O O3 0.229806 0.088266 0.393978
O O4 0.000000 0.139394 0.376592
O O5 0.500000 0.289715 0.500000
O O6 0.250000 0.250000 0.500000
O O7 0.500000 0.064610 0.904626
O O8 0.209731 0.084310 0.909032
O O9 0.296159 0.000000 0.901377
O O10 0.343499 0.046349 0.000000
O O11 0.750000 0.750000 0.313609
O O12 0.790347 0.693018 0.222499
O O13 0.000000 0.706448 0.305791
O O14 0.500000 0.786982 0.855590
O O15 0.250000 0.750000 0.868489
O O16 0.277790 0.834040 0.891280
O O17 0.705689 0.943591 0.500000
O O18 0.500000 0.938656 0.415901
O O19 0.712148 0.000000 0.408219
O O20 0.000000 0.144977 0.910644
O O21 0.195082 0.143650 0.000000
#
# Coordination Sequence:
#
# PCOD8270202 Si02
#       7
#    16   8  16  16  16  16  16
#     4  11  21  34  52  77 107 139 174 211 257 307
#     4  10  22  34  45  70 105 137 168 203 247 298
#     4   8  14  26  45  69  98 132 167 201 241 293
#     4  10  21  37  56  78 101 132 174 215 257 308
#     4  10  21  37  56  75  99 132 172 215 257 306
#     4   9  18  33  53  77 105 139 178 217 259 307
#     4  10  20  32  49  76 107 136 168 208 256 309
#
# _framework density 17.684111000000001
#
# number of rings (size 3 to 8) (size 9 to 14) (size 15 to 20)
#    0.000    2.308    0.769    3.231    0.000    6.154 
#    0.000    2.308    0.000    0.923    0.000    6.462 
#    0.000    0.000    0.000    0.000    0.000    0.000 
#
# Total GULP energy -644714.666225 kJ/mol
# GULP energy per Si atom -12398.358966 kJ/mol
# Density = 1.764386 g / cm^3
# Si number density = 17.684111 Si / 1000 Ang^3
#
#
#
# Elastic Constant Matrix: (Units=GPa)
#
#
# Indices 1 2 3 4 5 6 
#
# 1 76.2458 51.9079 34.3356 0.0000 0.0000 0.0000
# 2 51.9079 127.5433 43.2336 0.0000 0.0000 0.0000
# 3 34.3356 43.2336 47.2493 0.0000 0.0000 0.0000
# 4 0.0000 0.0000 0.0000 8.2597 0.0000 0.0000
# 5 0.0000 0.0000 0.0000 0.0000 25.1758 0.0000
# 6 0.0000 0.0000 0.0000 0.0000 0.0000 36.9267
#
#
#
# Elastic Compliance Matrix: (Units=1/GPa)
#
#
# Indices 1 2 3 4 5 6 
#
# 1 0.021495 -0.005006 -0.011040 0.000000 0.000000 0.000000
# 2 -0.005006 0.012531 -0.007829 0.000000 0.000000 0.000000
# 3 -0.011040 -0.007829 0.036350 0.000000 0.000000 0.000000
# 4 0.000000 0.000000 0.000000 0.121070 0.000000 0.000000
# 5 0.000000 0.000000 0.000000 0.000000 0.039721 0.000000
# 6 0.000000 0.000000 0.000000 0.000000 0.000000 0.027081
#
#
# Mechanical properties :
#
#
# Convention : Reuss Voigt Hill
#
# Bulk Modulus (GPa) = 44.19320 56.66584 50.42952
# Shear Modulus (GPa) = 15.94696 22.17652 19.06174
#
# Velocity S-wave (km/s) = 3.00620 3.54508 3.28670
# Velocity P-wave (km/s) = 6.09051 6.99069 6.55607
#
# Compressibility (1/GPa) = 0.02262792
#
# Stress axis : x y z
#
# Youngs Moduli (GPa) = 46.52252 79.79893 27.51027
#
# Poissons Ratio (x) = 0.39947 0.30371
# Poissons Ratio (y) = 0.23289 0.21537
# Poissons Ratio (z) = 0.51359 0.62472
#
# Static dielectric constant tensor:
#      x y z
#    x 3.352400 0.000000 0.000000 
#    y 0.000000 3.670360 0.000000 
#    z 0.000000 0.000000 3.054530 
# 
# 
# High freq. dielectric constant tensor:
#      x y z
#    x 1.693060 0.000000 0.000000 
#    y 0.000000 1.692150 0.000000 
#    z 0.000000 0.000000 1.652540 
# 
# From -- ./inp_files/60815.got.cif
#   From: 2010.03.12/outbox.cif.g09.slc.cpg/sg65_31_cif.got.tgz:60815.got - 2010.04.10 20:52:16.
