data_PCOD8270141
_publ_section_title
;
Structure prediction by ZEFSAII (Michael W. Deem and Ramdas Pophale) SiO2 
 PCOD8270141
Probable space group: C M M M
;
_chemical_formula_sum "Si O2"
_cell_formula_units_Z 104
_cell_length_a 8.742766
_cell_length_b 29.577475
_cell_length_c 20.280907
_cell_angle_alpha 90.000000
_cell_angle_beta 90.000000
_cell_angle_gamma 90.000000
_cell_volume 5244.418300
_symmetry_space_group_name_H-M "C M M M"
_symmetry_group_IT_number 65
_symmetry_cell_setting 'orthorhombic'
loop_
_space_group_symop_operation_xyz
x,y,z
-x,-y,z
x,-y,-z
-x,y,-z
-x,-y,-z
x,y,-z
-x,y,z
x,-y,z
1/2+x,1/2+y,z
1/2-x,1/2-y,z
1/2+x,1/2-y,-z
1/2-x,1/2+y,-z
1/2-x,1/2-y,-z
1/2+x,1/2+y,-z
1/2-x,1/2+y,z
1/2+x,1/2-y,z
loop_
_atom_site_type_symbol
_atom_site_label
_atom_site_fract_x
_atom_site_fract_y
_atom_site_fract_z
Si Si1 0.180518 0.699834 0.000000
Si Si2 0.818498 0.050249 0.683958
Si Si3 0.677749 0.796322 0.379457
Si Si4 0.819483 0.702603 0.227251
Si Si5 0.322102 0.384030 0.426846
Si Si6 0.681321 0.450040 0.168893
Si Si7 0.180592 0.855924 0.118749
O O1 0.250000 0.750000 0.000000
O O2 0.230424 0.671280 0.063135
O O3 0.000000 0.705518 0.000000
O O4 0.747849 0.083620 0.628954
O O5 0.755726 0.061114 0.757525
O O6 0.000000 0.054161 0.682899
O O7 0.766808 0.000000 0.663991
O O8 0.500000 0.792253 0.390045
O O9 0.750000 0.750000 0.404664
O O10 0.719937 0.805472 0.303349
O O11 0.741495 0.835888 0.424440
O O12 0.750000 0.750000 0.202510
O O13 0.730752 0.663243 0.189210
O O14 0.000000 0.701672 0.212299
O O15 0.295586 0.404694 0.500000
O O16 0.500000 0.376806 0.412705
O O17 0.500000 0.452105 0.173482
O O18 0.741496 0.500000 0.145305
O O19 0.728250 0.409452 0.118975
O O20 0.000000 0.850176 0.107630
#
# Coordination Sequence:
#
# PCOD8270141 Si02
#       7
#     8  16  16  16  16  16  16
#     4  12  26  44  61  80 113 151 188 225 261 308
#     4   8  14  27  49  78 110 140 172 215 266 315
#     4  10  21  36  54  74  99 133 174 221 271 324
#     4  10  20  34  53  79 107 135 172 218 270 324
#     4  10  20  32  48  73 104 138 177 221 270 323
#     4   8  15  29  52  82 111 139 175 220 266 312
#     4  11  21  35  58  85 113 146 182 219 263 312
#
# _framework density 19.830608000000002
#
# number of rings (size 3 to 8) (size 9 to 14) (size 15 to 20)
#    0.000    2.308    0.000    4.385    0.000    4.000 
#    0.000    1.923    0.000    4.615    0.000    7.538 
#    0.000    0.000    0.000    0.000    0.000    0.000 
#
# Total GULP energy -644602.186418 kJ/mol
# GULP energy per Si atom -12396.195893 kJ/mol
# Density = 1.978547 g / cm^3
# Si number density = 19.830608 Si / 1000 Ang^3
#
#
#
# Elastic Constant Matrix: (Units=GPa)
#
#
# Indices 1 2 3 4 5 6 
#
# 1 59.1594 34.5717 27.5101 0.0000 0.0000 0.0000
# 2 34.5717 152.9253 58.7649 0.0000 0.0000 0.0000
# 3 27.5101 58.7649 71.7306 0.0000 0.0000 0.0000
# 4 0.0000 0.0000 0.0000 30.2984 0.0000 0.0000
# 5 0.0000 0.0000 0.0000 0.0000 22.9500 0.0000
# 6 0.0000 0.0000 0.0000 0.0000 0.0000 20.0568
#
#
#
# Elastic Compliance Matrix: (Units=1/GPa)
#
#
# Indices 1 2 3 4 5 6 
#
# 1 0.021174 -0.002432 -0.006129 0.000000 0.000000 0.000000
# 2 -0.002432 0.009823 -0.007115 0.000000 0.000000 0.000000
# 3 -0.006129 -0.007115 0.022120 0.000000 0.000000 0.000000
# 4 0.000000 0.000000 0.000000 0.033005 0.000000 0.000000
# 5 0.000000 0.000000 0.000000 0.000000 0.043573 0.000000
# 6 0.000000 0.000000 0.000000 0.000000 0.000000 0.049858
#
#
# Mechanical properties :
#
#
# Convention : Reuss Voigt Hill
#
# Bulk Modulus (GPa) = 45.94041 58.38985 52.16513
# Shear Modulus (GPa) = 22.91898 25.52562 24.22230
#
# Velocity S-wave (km/s) = 3.40330 3.59163 3.49873
# Velocity P-wave (km/s) = 6.21772 6.83432 6.53330
#
# Compressibility (1/GPa) = 0.02176733
#
# Stress axis : x y z
#
# Youngs Moduli (GPa) = 47.22666 101.80320 45.20776
#
# Poissons Ratio (x) = 0.24757 0.27706
# Poissons Ratio (y) = 0.11485 0.32164
# Poissons Ratio (z) = 0.28943 0.72430
#
# Static dielectric constant tensor:
#      x y z
#    x 3.277880 0.000000 0.000000 
#    y 0.000000 3.983830 0.000000 
#    z 0.000000 0.000000 3.639990 
# 
# 
# High freq. dielectric constant tensor:
#      x y z
#    x 1.742130 0.000000 0.000000 
#    y 0.000000 1.785310 0.000000 
#    z 0.000000 0.000000 1.764890 
# 
# From -- ./inp_files/60421.got.cif
#   From: 2010.03.12/outbox.cif.g09.slc.cpg/sg65_31_cif.got.tgz:60421.got - 2010.04.10 20:52:16.
