data_PCOD8270313
_publ_section_title
;
Structure prediction by ZEFSAII (Michael W. Deem and Ramdas Pophale) SiO2 
 PCOD8270313
Probable space group: C M M M
;
_chemical_formula_sum "Si O2"
_cell_formula_units_Z 88
_cell_length_a 18.346498
_cell_length_b 29.205607
_cell_length_c 8.812950
_cell_angle_alpha 90.000000
_cell_angle_beta 90.000000
_cell_angle_gamma 90.000000
_cell_volume 4722.160249
_symmetry_space_group_name_H-M "C M M M"
_symmetry_group_IT_number 65
_symmetry_cell_setting 'orthorhombic'
loop_
_space_group_symop_operation_xyz
x,y,z
-x,-y,z
x,-y,-z
-x,y,-z
-x,-y,-z
x,y,-z
-x,y,z
x,-y,z
1/2+x,1/2+y,z
1/2-x,1/2-y,z
1/2+x,1/2-y,-z
1/2-x,1/2+y,-z
1/2-x,1/2-y,-z
1/2+x,1/2+y,-z
1/2-x,1/2+y,z
1/2+x,1/2-y,z
loop_
_atom_site_type_symbol
_atom_site_label
_atom_site_fract_x
_atom_site_fract_y
_atom_site_fract_z
Si Si1 0.354519 0.261921 0.176729
Si Si2 0.500000 0.848158 0.329134
Si Si3 0.706914 0.655509 0.320684
Si Si4 0.415574 0.406295 0.179246
Si Si5 0.000000 0.239194 0.328092
Si Si6 0.352541 0.845213 0.176840
Si Si7 0.413839 0.500000 0.669977
O O1 0.293453 0.291339 0.264980
O O2 0.431565 0.280467 0.237347
O O3 0.348561 0.208615 0.211686
O O4 0.345933 0.272610 0.000000
O O5 0.500000 0.867263 0.500000
O O6 0.500000 0.793735 0.326784
O O7 0.427165 0.866209 0.244993
O O8 0.706700 0.652384 0.500000
O O9 0.635363 0.631668 0.254175
O O10 0.781630 0.632584 0.257380
O O11 0.500000 0.397260 0.225090
O O12 0.387561 0.455226 0.240159
O O13 0.405655 0.405247 0.000000
O O14 0.000000 0.220430 0.500000
O O15 0.351023 0.856499 0.000000
O O16 0.500000 0.500000 0.661336
O O17 0.380399 0.500000 0.500000
#
# Coordination Sequence:
#
# PCOD8270313 Si02
#       7
#    16   8  16  16   8  16   8
#     4  10  20  33  48  65  91 129 169 210 256 308
#     4   9  17  31  51  71  91 118 159 206 251 297
#     4  12  24  34  48  71 101 131 166 214 261 303
#     4  10  21  37  56  77 103 137 174 210 252 305
#     4   9  17  29  45  65  87 116 159 206 247 293
#     4  10  20  35  52  70  94 129 171 212 258 309
#     4   9  17  33  57  81 105 132 165 204 249 303
#
# _framework density 18.635539000000001
#
# number of rings (size 3 to 8) (size 9 to 14) (size 15 to 20)
#    0.000    1.909    0.000    4.636    1.273    8.727 
#    0.000    0.000    0.000    0.000    0.000    0.000 
#    0.000    0.727    0.000    7.273    0.000    4.364 
#
# Total GULP energy -545543.357966 kJ/mol
# GULP energy per Si atom -12398.712681 kJ/mol
# Density = 1.859312 g / cm^3
# Si number density = 18.635539 Si / 1000 Ang^3
#
#
#
# Elastic Constant Matrix: (Units=GPa)
#
#
# Indices 1 2 3 4 5 6 
#
# 1 119.9322 7.5328 56.9373 0.0000 0.0000 0.0000
# 2 7.5328 30.7079 20.8987 0.0000 0.0000 0.0000
# 3 56.9373 20.8987 129.7534 0.0000 0.0000 0.0000
# 4 0.0000 0.0000 0.0000 21.3004 0.0000 0.0000
# 5 0.0000 0.0000 0.0000 0.0000 33.6287 0.0000
# 6 0.0000 0.0000 0.0000 0.0000 0.0000 6.4447
#
#
#
# Elastic Compliance Matrix: (Units=1/GPa)
#
#
# Indices 1 2 3 4 5 6 
#
# 1 0.010543 0.000632 -0.004728 0.000000 0.000000 0.000000
# 2 0.000632 0.036612 -0.006174 0.000000 0.000000 0.000000
# 3 -0.004728 -0.006174 0.010776 0.000000 0.000000 0.000000
# 4 0.000000 0.000000 0.000000 0.046947 0.000000 0.000000
# 5 0.000000 0.000000 0.000000 0.000000 0.029737 0.000000
# 6 0.000000 0.000000 0.000000 0.000000 0.000000 0.155166
#
#
# Mechanical properties :
#
#
# Convention : Reuss Voigt Hill
#
# Bulk Modulus (GPa) = 26.74528 50.12567 38.43548
# Shear Modulus (GPa) = 15.49018 25.27641 20.38330
#
# Velocity S-wave (km/s) = 2.88621 3.68687 3.31083
# Velocity P-wave (km/s) = 5.04875 6.71419 5.94012
#
# Compressibility (1/GPa) = 0.03738977
#
# Stress axis : x y z
#
# Youngs Moduli (GPa) = 94.84932 27.31359 92.79796
#
# Poissons Ratio (x) = -0.01725 0.43876
# Poissons Ratio (y) = -0.05990 0.57293
# Poissons Ratio (z) = 0.44846 0.16863
#
# Static dielectric constant tensor:
#      x y z
#    x 3.606710 0.000000 0.000000 
#    y 0.000000 3.005730 0.000000 
#    z 0.000000 0.000000 3.535310 
# 
# 
# High freq. dielectric constant tensor:
#      x y z
#    x 1.730530 0.000000 0.000000 
#    y 0.000000 1.659690 0.000000 
#    z 0.000000 0.000000 1.740270 
# 
# From -- ./inp_files/10204.got.cif
#   From: 2010.03.12/outbox.cif.g09.slc.cpg/sg65_6_cif.got.tgz:10204.got - 2010.04.10 20:52:16.
