data_PCOD8270080
_publ_section_title
;
Structure prediction by ZEFSAII (Michael W. Deem and Ramdas Pophale) SiO2 
 PCOD8270080
Probable space group: C M M M
;
_chemical_formula_sum "Si O2"
_cell_formula_units_Z 112
_cell_length_a 22.837971
_cell_length_b 17.199902
_cell_length_c 13.795290
_cell_angle_alpha 90.000000
_cell_angle_beta 90.000000
_cell_angle_gamma 90.000000
_cell_volume 5418.939771
_symmetry_space_group_name_H-M "C M M M"
_symmetry_group_IT_number 65
_symmetry_cell_setting 'orthorhombic'
loop_
_space_group_symop_operation_xyz
x,y,z
-x,-y,z
x,-y,-z
-x,y,-z
-x,-y,-z
x,y,-z
-x,y,z
x,-y,z
1/2+x,1/2+y,z
1/2-x,1/2-y,z
1/2+x,1/2-y,-z
1/2-x,1/2+y,-z
1/2-x,1/2-y,-z
1/2+x,1/2+y,-z
1/2-x,1/2+y,z
1/2+x,1/2-y,z
loop_
_atom_site_type_symbol
_atom_site_label
_atom_site_fract_x
_atom_site_fract_y
_atom_site_fract_z
Si Si1 0.661805 0.910407 0.723687
Si Si2 0.564917 0.673788 0.753241
Si Si3 0.568230 0.817363 0.386464
Si Si4 0.263305 0.663445 0.614227
Si Si5 0.227270 0.335326 0.888776
Si Si6 0.848807 0.911713 0.112815
Si Si7 0.381108 0.412365 0.606206
O O1 0.604378 0.886973 0.662422
O O2 0.717675 0.897737 0.655915
O O3 0.671921 0.860424 0.822518
O O4 0.655122 0.000000 0.752441
O O5 0.500000 0.685508 0.797122
O O6 0.583311 0.743949 0.681578
O O7 0.610241 0.654633 0.838960
O O8 0.565282 0.599569 0.680204
O O9 0.586953 0.803446 0.500000
O O10 0.500000 0.838873 0.381917
O O11 0.259096 0.658875 0.500000
O O12 0.250000 0.750000 0.653059
O O13 0.327700 0.638880 0.648995
O O14 0.250000 0.250000 0.861421
O O15 0.280670 0.394262 0.867752
O O16 0.206161 0.338751 0.000000
O O17 0.861819 0.000000 0.150274
O O18 0.862910 0.905491 0.000000
O O19 0.400628 0.383797 0.500000
O O20 0.359445 0.500000 0.602550
#
# Coordination Sequence:
#
# PCOD8270080 Si02
#       7
#    16  16  16  16  16  16  16
#     4  12  23  35  59  90 118 150 190 237 289 349
#     4  11  22  37  58  79 104 147 200 245 287 341
#     4  10  23  43  63  84 114 152 196 247 298 349
#     4  10  20  34  53  77 108 146 187 233 285 343
#     4  10  21  39  64  91 120 156 197 240 287 343
#     4  10  21  37  58  87 124 160 193 238 298 355
#     4  10  20  32  47  72 107 141 176 227 290 350
#
# _framework density 20.668248999999999
#
# number of rings (size 3 to 8) (size 9 to 14) (size 15 to 20)
#    0.000    1.571    0.000    5.143    0.000    6.286 
#    0.000    2.143    0.000    1.286    0.000    1.000 
#    0.000    0.000    0.000    0.000    0.000    0.000 
#
# Total GULP energy -694074.785633 kJ/mol
# GULP energy per Si atom -12394.192601 kJ/mol
# Density = 2.062121 g / cm^3
# Si number density = 20.668249 Si / 1000 Ang^3
#
#
#
# Elastic Constant Matrix: (Units=GPa)
#
#
# Indices 1 2 3 4 5 6 
#
# 1 52.0847 25.4658 46.6860 0.0000 0.0000 0.0000
# 2 25.4658 105.5700 38.6160 0.0000 0.0000 0.0000
# 3 46.6860 38.6160 86.3285 0.0000 0.0000 0.0000
# 4 0.0000 0.0000 0.0000 26.9755 0.0000 0.0000
# 5 0.0000 0.0000 0.0000 0.0000 31.5137 0.0000
# 6 0.0000 0.0000 0.0000 0.0000 0.0000 18.1158
#
#
#
# Elastic Compliance Matrix: (Units=1/GPa)
#
#
# Indices 1 2 3 4 5 6 
#
# 1 0.037595 -0.001951 -0.019458 0.000000 0.000000 0.000000
# 2 -0.001951 0.011427 -0.004056 0.000000 0.000000 0.000000
# 3 -0.019458 -0.004056 0.023921 0.000000 0.000000 0.000000
# 4 0.000000 0.000000 0.000000 0.037071 0.000000 0.000000
# 5 0.000000 0.000000 0.000000 0.000000 0.031732 0.000000
# 6 0.000000 0.000000 0.000000 0.000000 0.000000 0.055200
#
#
# Mechanical properties :
#
#
# Convention : Reuss Voigt Hill
#
# Bulk Modulus (GPa) = 45.43111 51.72427 48.57769
# Shear Modulus (GPa) = 19.59137 24.20203 21.89670
#
# Velocity S-wave (km/s) = 3.08213 3.42567 3.25843
# Velocity P-wave (km/s) = 5.89024 6.38179 6.14093
#
# Compressibility (1/GPa) = 0.02201135
#
# Stress axis : x y z
#
# Youngs Moduli (GPa) = 26.59933 87.51407 41.80422
#
# Poissons Ratio (x) = 0.17075 0.81344
# Poissons Ratio (y) = 0.05190 0.16957
# Poissons Ratio (z) = 0.51758 0.35497
#
# Static dielectric constant tensor:
#      x y z
#    x 3.586530 0.000000 0.000000 
#    y 0.000000 3.774500 0.000000 
#    z 0.000000 0.000000 3.905760 
# 
# 
# High freq. dielectric constant tensor:
#      x y z
#    x 1.789650 0.000000 0.000000 
#    y 0.000000 1.806210 0.000000 
#    z 0.000000 0.000000 1.820670 
# 
# From -- ./inp_files/45794.got.cif
#   From: 2010.03.12/outbox.cif.g09.slc.cpg/sg65_23_cif.got.tgz:45794.got - 2010.04.10 20:52:16.
