data_PCOD8270461
_publ_section_title
;
Structure prediction by ZEFSAII (Michael W. Deem and Ramdas Pophale) SiO2 
 PCOD8270461
Probable space group: C M M M
;
_chemical_formula_sum "Si O2"
_cell_formula_units_Z 88
_cell_length_a 27.273237
_cell_length_b 8.885465
_cell_length_c 21.144900
_cell_angle_alpha 90.000000
_cell_angle_beta 90.000000
_cell_angle_gamma 90.000000
_cell_volume 5124.157647
_symmetry_space_group_name_H-M "C M M M"
_symmetry_group_IT_number 65
_symmetry_cell_setting 'orthorhombic'
loop_
_space_group_symop_operation_xyz
x,y,z
-x,-y,z
x,-y,-z
-x,y,-z
-x,-y,-z
x,y,-z
-x,y,z
x,-y,z
1/2+x,1/2+y,z
1/2-x,1/2-y,z
1/2+x,1/2-y,-z
1/2-x,1/2+y,-z
1/2-x,1/2-y,-z
1/2+x,1/2+y,-z
1/2-x,1/2+y,z
1/2+x,1/2-y,z
loop_
_atom_site_type_symbol
_atom_site_label
_atom_site_fract_x
_atom_site_fract_y
_atom_site_fract_z
Si Si1 0.056308 0.675471 0.681565
Si Si2 0.445183 0.178566 0.930454
Si Si3 0.610466 0.176290 0.190748
Si Si4 0.196349 0.678355 0.500000
Si Si5 0.801799 0.174627 0.746653
Si Si6 0.355973 0.675541 0.617341
O O1 0.063846 0.500000 0.666717
O O2 0.072089 0.712318 0.753300
O O3 0.088799 0.770417 0.632210
O O4 0.000000 0.724217 0.672793
O O5 0.500000 0.243526 0.921982
O O6 0.411050 0.242697 0.874744
O O7 0.447391 0.000000 0.924348
O O8 0.424717 0.225025 0.000000
O O9 0.661531 0.259471 0.201423
O O10 0.621111 0.000000 0.186494
O O11 0.202511 0.500000 0.500000
O O12 0.250000 0.750000 0.500000
O O13 0.165870 0.728676 0.560632
O O14 0.750000 0.250000 0.756115
O O15 0.821551 0.209973 0.676891
O O16 0.796128 0.000000 0.758979
O O17 0.356795 0.500000 0.599534
#
# Coordination Sequence:
#
# PCOD8270461 Si02
#       6
#    16  16  16   8  16  16
#     4   9  17  30  49  73 101 132 165 200 239 284
#     4   8  13  22  40  69 101 129 159 195 233 276
#     4   9  16  27  46  71  98 128 161 198 239 283
#     4  12  24  38  57  78 101 128 158 195 239 287
#     4  10  20  33  50  71  95 123 156 197 242 286
#     4  10  21  36  53  75 101 128 160 197 239 286
#
# _framework density 17.173552999999998
#
# number of rings (size 3 to 8) (size 9 to 14) (size 15 to 20)
#    0.000    2.545    0.000    3.545    0.000    6.182 
#    0.000    0.455    0.000    5.455    0.000    1.273 
#    0.000    0.000    0.000    0.000    0.000    0.000 
#
# Total GULP energy -545586.181296 kJ/mol
# GULP energy per Si atom -12399.685939 kJ/mol
# Density = 1.713447 g / cm^3
# Si number density = 17.173553 Si / 1000 Ang^3
#
#
#
# Elastic Constant Matrix: (Units=GPa)
#
#
# Indices 1 2 3 4 5 6 
#
# 1 149.9690 55.9552 76.0948 0.0000 0.0000 0.0000
# 2 55.9552 68.9462 55.4175 0.0000 0.0000 0.0000
# 3 76.0948 55.4175 121.6893 0.0000 0.0000 0.0000
# 4 0.0000 0.0000 0.0000 15.5740 0.0000 0.0000
# 5 0.0000 0.0000 0.0000 0.0000 21.4086 0.0000
# 6 0.0000 0.0000 0.0000 0.0000 0.0000 27.9277
#
#
#
# Elastic Compliance Matrix: (Units=1/GPa)
#
#
# Indices 1 2 3 4 5 6 
#
# 1 0.010869 -0.005297 -0.004384 0.000000 0.000000 0.000000
# 2 -0.005297 0.025460 -0.008282 0.000000 0.000000 0.000000
# 3 -0.004384 -0.008282 0.014731 0.000000 0.000000 0.000000
# 4 0.000000 0.000000 0.000000 0.064210 0.000000 0.000000
# 5 0.000000 0.000000 0.000000 0.000000 0.046710 0.000000
# 6 0.000000 0.000000 0.000000 0.000000 0.000000 0.035807
#
#
# Mechanical properties :
#
#
# Convention : Reuss Voigt Hill
#
# Bulk Modulus (GPa) = 66.08105 79.50438 72.79271
# Shear Modulus (GPa) = 20.94166 23.19118 22.06642
#
# Velocity S-wave (km/s) = 3.49580 3.67877 3.58845
# Velocity P-wave (km/s) = 7.40649 8.02743 7.72320
#
# Compressibility (1/GPa) = 0.01513293
#
# Stress axis : x y z
#
# Youngs Moduli (GPa) = 92.00411 39.27715 67.88384
#
# Poissons Ratio (x) = 0.20805 0.29763
# Poissons Ratio (y) = 0.48735 0.56223
# Poissons Ratio (z) = 0.40338 0.32530
#
# Static dielectric constant tensor:
#      x y z
#    x 3.250320 0.000000 0.000000 
#    y 0.000000 3.074620 0.000000 
#    z 0.000000 0.000000 3.304130 
# 
# 
# High freq. dielectric constant tensor:
#      x y z
#    x 1.662530 0.000000 0.000000 
#    y 0.000000 1.649770 0.000000 
#    z 0.000000 0.000000 1.656420 
# 
# From -- ./inp_files/59779.got.cif
#   From: 2010.03.12/outbox.cif.g09.slc.cpg/sg65_30_cif.got.tgz:59779.got - 2010.04.10 20:52:16.
