data_PCOD8270466
_publ_section_title
;
Structure prediction by ZEFSAII (Michael W. Deem and Ramdas Pophale) SiO2 
 PCOD8270466
Probable space group: C M M M
;
_chemical_formula_sum "Si O2"
_cell_formula_units_Z 80
_cell_length_a 18.959653
_cell_length_b 9.028509
_cell_length_c 25.918097
_cell_angle_alpha 90.000000
_cell_angle_beta 90.000000
_cell_angle_gamma 90.000000
_cell_volume 4436.592399
_symmetry_space_group_name_H-M "C M M M"
_symmetry_group_IT_number 65
_symmetry_cell_setting 'orthorhombic'
loop_
_space_group_symop_operation_xyz
x,y,z
-x,-y,z
x,-y,-z
-x,y,-z
-x,-y,-z
x,y,-z
-x,y,z
x,-y,z
1/2+x,1/2+y,z
1/2-x,1/2-y,z
1/2+x,1/2-y,-z
1/2-x,1/2+y,-z
1/2-x,1/2-y,-z
1/2+x,1/2+y,-z
1/2-x,1/2+y,z
1/2+x,1/2-y,z
loop_
_atom_site_type_symbol
_atom_site_label
_atom_site_fract_x
_atom_site_fract_y
_atom_site_fract_z
Si Si1 0.675067 0.828307 0.651709
Si Si2 0.081072 0.826751 0.150322
Si Si3 0.825134 0.327903 0.233887
Si Si4 0.678940 0.326824 0.057971
Si Si5 0.674147 0.673055 0.556077
O O1 0.750000 0.750000 0.654120
O O2 0.641892 0.805434 0.708520
O O3 0.631787 0.749146 0.604356
O O4 0.683320 0.000000 0.638336
O O5 0.117337 0.737364 0.195851
O O6 0.115251 0.782463 0.095542
O O7 0.000000 0.779401 0.147529
O O8 0.090238 0.000000 0.161647
O O9 0.812951 0.500000 0.222056
O O10 0.750000 0.250000 0.226331
O O11 0.693438 0.500000 0.059166
O O12 0.750000 0.250000 0.078125
O O13 0.659618 0.273535 0.000000
O O14 0.636607 0.698009 0.500000
O O15 0.682843 0.500000 0.567329
O O16 0.750000 0.750000 0.553852
#
# Coordination Sequence:
#
# PCOD8270466 Si02
#       5
#    16  16  16  16  16
#     4   9  16  25  38  57  81 112 151 191 232 279
#     4  10  21  35  51  73 100 130 164 201 243 290
#     4  10  20  33  50  71  95 126 164 205 247 290
#     4   9  18  33  53  76 101 129 162 199 237 281
#     4   9  15  21  31  50  78 112 147 183 227 278
#
# _framework density 18.031858
#
# number of rings (size 3 to 8) (size 9 to 14) (size 15 to 20)
#    0.000    2.600    0.000    3.600    0.000    6.800 
#    0.000    2.000    0.000    0.000    0.000    4.200 
#    0.000    0.800    0.000    8.800    0.000    9.800 
#
# Total GULP energy -495607.175832 kJ/mol
# GULP energy per Si atom -12390.179396 kJ/mol
# Density = 1.799082 g / cm^3
# Si number density = 18.031858 Si / 1000 Ang^3
#
#
#
# Elastic Constant Matrix: (Units=GPa)
#
#
# Indices 1 2 3 4 5 6 
#
# 1 84.1836 43.8755 69.1916 0.0000 0.0000 0.0000
# 2 43.8755 100.9898 74.9442 0.0000 0.0000 0.0000
# 3 69.1916 74.9442 163.6022 0.0000 0.0000 0.0000
# 4 0.0000 0.0000 0.0000 32.7495 0.0000 0.0000
# 5 0.0000 0.0000 0.0000 0.0000 -2.1325 0.0000
# 6 0.0000 0.0000 0.0000 0.0000 0.0000 18.4440
#
#
#
# Elastic Compliance Matrix: (Units=1/GPa)
#
#
# Indices 1 2 3 4 5 6 
#
# 1 0.018977 -0.003467 -0.006437 0.000000 0.000000 0.000000
# 2 -0.003467 0.015635 -0.005696 0.000000 0.000000 0.000000
# 3 -0.006437 -0.005696 0.011444 0.000000 0.000000 0.000000
# 4 0.000000 0.000000 0.000000 0.030535 0.000000 0.000000
# 5 0.000000 0.000000 0.000000 0.000000 -0.468935 0.000000
# 6 0.000000 0.000000 0.000000 0.000000 0.000000 0.054218
#
#
# Mechanical properties :
#
#
# Convention : Reuss Voigt Hill
#
# Bulk Modulus (GPa) = 67.31768 80.53313 73.92540
# Shear Modulus (GPa) = -16.55781 20.52982 1.98601
#
# Velocity S-wave (km/s) = -3.03356 3.37787 1.05061
# Velocity P-wave (km/s) = 5.01435 7.74415 6.52364
#
# Compressibility (1/GPa) = 0.01485494
#
# Stress axis : x y z
#
# Youngs Moduli (GPa) = 52.69525 63.95778 87.38062
#
# Poissons Ratio (x) = 0.22177 0.56251
# Poissons Ratio (y) = 0.18272 0.49771
# Poissons Ratio (z) = 0.33923 0.36430
#
# Static dielectric constant tensor:
#      x y z
#    x 2.797510 0.000000 0.000000 
#    y 0.000000 3.410930 0.000000 
#    z 0.000000 0.000000 4.602000 
# 
# 
# High freq. dielectric constant tensor:
#      x y z
#    x 1.627330 0.000000 0.000000 
#    y 0.000000 1.708080 0.000000 
#    z 0.000000 0.000000 1.731560 
# 
# From -- ./inp_files/75011.got.cif
#   From: 2010.03.12/outbox.cif.g09.slc.cpg/sg65_38_cif.got.tgz:75011.got - 2010.04.10 20:52:16.
