data_PCOD8270800
_publ_section_title
;
Structure prediction by ZEFSAII (Michael W. Deem and Ramdas Pophale) SiO2 
 PCOD8270800
Probable space group: C M M M
;
_chemical_formula_sum "Si O2"
_cell_formula_units_Z 72
_cell_length_a 9.114530
_cell_length_b 17.896567
_cell_length_c 23.275282
_cell_angle_alpha 90.000000
_cell_angle_beta 90.000000
_cell_angle_gamma 90.000000
_cell_volume 3796.635995
_symmetry_space_group_name_H-M "C M M M"
_symmetry_group_IT_number 65
_symmetry_cell_setting 'orthorhombic'
loop_
_space_group_symop_operation_xyz
x,y,z
-x,-y,z
x,-y,-z
-x,y,-z
-x,-y,-z
x,y,-z
-x,y,z
x,-y,z
1/2+x,1/2+y,z
1/2-x,1/2-y,z
1/2+x,1/2-y,-z
1/2-x,1/2+y,-z
1/2-x,1/2-y,-z
1/2+x,1/2+y,-z
1/2-x,1/2+y,z
1/2+x,1/2-y,z
loop_
_atom_site_type_symbol
_atom_site_label
_atom_site_fract_x
_atom_site_fract_y
_atom_site_fract_z
Si Si1 0.164784 0.588828 0.063338
Si Si2 0.673624 0.829088 0.272992
Si Si3 0.328747 0.914261 0.612287
Si Si4 0.834297 0.911189 0.827002
Si Si5 0.165557 0.911118 0.500000
O O1 0.165357 0.500000 0.064673
O O2 0.274176 0.620053 0.112033
O O3 0.000000 0.617857 0.075847
O O4 0.216663 0.616441 0.000000
O O5 0.500000 0.820241 0.267453
O O6 0.750000 0.750000 0.267253
O O7 0.719234 0.865674 0.333320
O O8 0.729898 0.882594 0.223052
O O9 0.500000 0.907931 0.599402
O O10 0.244987 0.880841 0.557082
O O11 0.283653 0.000000 0.624359
O O12 0.000000 0.881520 0.818802
O O13 0.829574 0.000000 0.825788
O O14 0.000000 0.881208 0.500000
O O15 0.173919 0.000000 0.500000
#
# Coordination Sequence:
#
# PCOD8270800 Si02
#       5
#    16  16  16  16   8
#     4   8  14  26  46  73 104 136 170 210 256 305
#     4  11  23  38  55  75 103 139 178 219 264 312
#     4   9  18  34  56  79 103 134 171 209 252 306
#     4  10  20  33  52  79 108 138 174 216 260 308
#     4   9  17  29  50  81 110 133 161 205 256 301
#
# _framework density 18.964157
#
# number of rings (size 3 to 8) (size 9 to 14) (size 15 to 20)
#    0.000    2.556    0.000    3.000    0.000    5.778 
#    0.000    5.000    0.000    0.667    0.000    0.000 
#    0.000    0.000    0.000    0.000    0.000    0.000 
#
# Total GULP energy -446367.665850 kJ/mol
# GULP energy per Si atom -12399.101829 kJ/mol
# Density = 1.892099 g / cm^3
# Si number density = 18.964157 Si / 1000 Ang^3
#
#
#
# Elastic Constant Matrix: (Units=GPa)
#
#
# Indices 1 2 3 4 5 6 
#
# 1 96.3288 23.0637 74.0050 0.0000 0.0000 0.0000
# 2 23.0637 23.0511 22.3700 0.0000 0.0000 0.0000
# 3 74.0050 22.3700 163.3949 0.0000 0.0000 0.0000
# 4 0.0000 0.0000 0.0000 -1.8436 0.0000 0.0000
# 5 0.0000 0.0000 0.0000 0.0000 27.4968 0.0000
# 6 0.0000 0.0000 0.0000 0.0000 0.0000 21.5725
#
#
#
# Elastic Compliance Matrix: (Units=1/GPa)
#
#
# Indices 1 2 3 4 5 6 
#
# 1 0.018368 -0.011883 -0.006692 0.000000 0.000000 0.000000
# 2 -0.011883 0.057717 -0.002520 0.000000 0.000000 0.000000
# 3 -0.006692 -0.002520 0.009496 0.000000 0.000000 0.000000
# 4 0.000000 0.000000 0.000000 -0.542426 0.000000 0.000000
# 5 0.000000 0.000000 0.000000 0.000000 0.036368 0.000000
# 6 0.000000 0.000000 0.000000 0.000000 0.000000 0.046355
#
#
# Mechanical properties :
#
#
# Convention : Reuss Voigt Hill
#
# Bulk Modulus (GPa) = 23.04656 57.96136 40.50396
# Shear Modulus (GPa) = -15.74957 20.33422 2.29232
#
# Velocity S-wave (km/s) = -2.88495 3.27807 1.10063
# Velocity P-wave (km/s) = 1.04010 6.70504 4.79789
#
# Compressibility (1/GPa) = 0.04339043
#
# Stress axis : x y z
#
# Youngs Moduli (GPa) = 54.44394 17.32595 105.30612
#
# Poissons Ratio (x) = 0.20589 0.70472
# Poissons Ratio (y) = 0.64697 0.26534
# Poissons Ratio (z) = 0.36435 0.04366
#
# Static dielectric constant tensor:
#      x y z
#    x 3.629120 0.000000 0.000000 
#    y 0.000000 3.040120 0.000000 
#    z 0.000000 0.000000 3.796300 
# 
# 
# High freq. dielectric constant tensor:
#      x y z
#    x 1.742020 0.000000 0.000000 
#    y 0.000000 1.690810 0.000000 
#    z 0.000000 0.000000 1.755930 
# 
# From -- ./inp_files/59310.got.cif
#   From: 2010.03.12/outbox.cif.g09.slc.cpg/sg65_30_cif.got.tgz:59310.got - 2010.04.10 20:52:16.
