data_PCOD8270683
_publ_section_title
;
Structure prediction by ZEFSAII (Michael W. Deem and Ramdas Pophale) SiO2 
 PCOD8270683
Probable space group: C M M M
;
_chemical_formula_sum "Si O2"
_cell_formula_units_Z 96
_cell_length_a 26.819515
_cell_length_b 22.577768
_cell_length_c 8.921046
_cell_angle_alpha 90.000000
_cell_angle_beta 90.000000
_cell_angle_gamma 90.000000
_cell_volume 5401.914484
_symmetry_space_group_name_H-M "C M M M"
_symmetry_group_IT_number 65
_symmetry_cell_setting 'orthorhombic'
loop_
_space_group_symop_operation_xyz
x,y,z
-x,-y,z
x,-y,-z
-x,y,-z
-x,-y,-z
x,y,-z
-x,y,z
x,-y,z
1/2+x,1/2+y,z
1/2-x,1/2-y,z
1/2+x,1/2-y,-z
1/2-x,1/2+y,-z
1/2-x,1/2-y,-z
1/2+x,1/2+y,-z
1/2-x,1/2+y,z
1/2+x,1/2-y,z
loop_
_atom_site_type_symbol
_atom_site_label
_atom_site_fract_x
_atom_site_fract_y
_atom_site_fract_z
Si Si1 0.359671 0.300045 0.673266
Si Si2 0.375874 0.000000 0.821949
Si Si3 0.213925 0.121161 0.175534
Si Si4 0.557113 0.229206 0.171814
Si Si5 0.262033 0.000000 0.821913
Si Si6 0.900267 0.382146 0.327672
Si Si7 0.201270 0.683786 0.667699
O O1 0.372685 0.309283 0.500000
O O2 0.337544 0.360582 0.742646
O O3 0.410335 0.281632 0.756123
O O4 0.317907 0.249824 0.697221
O O5 0.318786 0.000000 0.760697
O O6 0.405827 0.943404 0.760891
O O7 0.377424 0.000000 0.000000
O O8 0.232087 0.057386 0.236701
O O9 0.256780 0.168889 0.211472
O O10 0.203766 0.119973 0.000000
O O11 0.500000 0.249141 0.185347
O O12 0.563888 0.167006 0.256382
O O13 0.573562 0.220589 0.000000
O O14 0.264388 0.000000 0.000000
O O15 0.915912 0.390842 0.500000
O O16 0.843418 0.362040 0.312708
O O17 0.224016 0.678978 0.500000
#
# Coordination Sequence:
#
# PCOD8270683 Si02
#       7
#    16   8  16  16   8  16  16
#     4  10  21  35  51  75 105 135 168 210 262 313
#     4  11  19  33  52  72 103 144 188 224 256 301
#     4  11  20  32  49  72 103 139 179 214 251 301
#     4  10  21  38  59  81 102 128 167 215 267 320
#     4   9  20  33  47  72 105 144 181 217 254 292
#     4  10  20  33  51  76 105 139 177 218 264 310
#     4   9  18  31  46  68 102 137 169 209 254 304
#
# _framework density 17.771476
#
# number of rings (size 3 to 8) (size 9 to 14) (size 15 to 20)
#    0.000    2.000    1.667    3.750    0.000    6.667 
#    0.000    2.083    0.000    2.500    0.000    0.583 
#    0.000    4.667    0.000    0.000    0.000    0.000 
#
# Total GULP energy -595282.585381 kJ/mol
# GULP energy per Si atom -12401.720529 kJ/mol
# Density = 1.773103 g / cm^3
# Si number density = 17.771476 Si / 1000 Ang^3
#
#
#
# Elastic Constant Matrix: (Units=GPa)
#
#
# Indices 1 2 3 4 5 6 
#
# 1 71.1729 33.2670 39.9062 0.0000 0.0000 0.0000
# 2 33.2670 42.1527 24.3439 0.0000 0.0000 0.0000
# 3 39.9062 24.3439 103.3424 0.0000 0.0000 0.0000
# 4 0.0000 0.0000 0.0000 26.3702 0.0000 0.0000
# 5 0.0000 0.0000 0.0000 0.0000 23.0537 0.0000
# 6 0.0000 0.0000 0.0000 0.0000 0.0000 11.8839
#
#
#
# Elastic Compliance Matrix: (Units=1/GPa)
#
#
# Indices 1 2 3 4 5 6 
#
# 1 0.024924 -0.016334 -0.005777 0.000000 0.000000 0.000000
# 2 -0.016334 0.038163 -0.002683 0.000000 0.000000 0.000000
# 3 -0.005777 -0.002683 0.012539 0.000000 0.000000 0.000000
# 4 0.000000 0.000000 0.000000 0.037922 0.000000 0.000000
# 5 0.000000 0.000000 0.000000 0.000000 0.043377 0.000000
# 6 0.000000 0.000000 0.000000 0.000000 0.000000 0.084147
#
#
# Mechanical properties :
#
#
# Convention : Reuss Voigt Hill
#
# Bulk Modulus (GPa) = 38.40250 45.74470 42.07360
# Shear Modulus (GPa) = 16.70350 20.20497 18.45423
#
# Velocity S-wave (km/s) = 3.06911 3.37550 3.22595
# Velocity P-wave (km/s) = 5.84938 6.40222 6.13203
#
# Compressibility (1/GPa) = 0.02603997
#
# Stress axis : x y z
#
# Youngs Moduli (GPa) = 40.12209 26.20330 79.74965
#
# Poissons Ratio (x) = 0.42800 0.46070
# Poissons Ratio (y) = 0.65535 0.21393
# Poissons Ratio (z) = 0.23178 0.07029
#
# Static dielectric constant tensor:
#      x y z
#    x 3.070280 0.000000 0.000000 
#    y 0.000000 3.303820 0.000000 
#    z 0.000000 0.000000 3.330120 
# 
# 
# High freq. dielectric constant tensor:
#      x y z
#    x 1.662990 0.000000 0.000000 
#    y 0.000000 1.673120 0.000000 
#    z 0.000000 0.000000 1.695220 
# 
# From -- ./inp_files/16683.got.cif
#   From: 2010.03.12/outbox.cif.g09.slc.cpg/sg65_9_cif.got.tgz:16683.got - 2010.04.10 20:52:16.
