data_PCOD8270774
_publ_section_title
;
Structure prediction by ZEFSAII (Michael W. Deem and Ramdas Pophale) SiO2 
 PCOD8270774
Probable space group: C M M M
;
_chemical_formula_sum "Si O2"
_cell_formula_units_Z 104
_cell_length_a 9.121544
_cell_length_b 27.122763
_cell_length_c 21.301454
_cell_angle_alpha 90.000000
_cell_angle_beta 90.000000
_cell_angle_gamma 90.000000
_cell_volume 5270.011163
_symmetry_space_group_name_H-M "C M M M"
_symmetry_group_IT_number 65
_symmetry_cell_setting 'orthorhombic'
loop_
_space_group_symop_operation_xyz
x,y,z
-x,-y,z
x,-y,-z
-x,y,-z
-x,-y,-z
x,y,-z
-x,y,z
x,-y,z
1/2+x,1/2+y,z
1/2-x,1/2-y,z
1/2+x,1/2-y,-z
1/2-x,1/2+y,-z
1/2-x,1/2-y,-z
1/2+x,1/2+y,-z
1/2-x,1/2+y,z
1/2+x,1/2-y,z
loop_
_atom_site_type_symbol
_atom_site_label
_atom_site_fract_x
_atom_site_fract_y
_atom_site_fract_z
Si Si1 0.842729 0.792469 0.428960
Si Si2 0.168072 0.944643 0.186974
Si Si3 0.171774 0.198486 0.246978
Si Si4 0.670811 0.895903 0.703709
Si Si5 0.666796 0.108709 0.567375
Si Si6 0.667837 0.349563 0.885621
Si Si7 0.173718 0.697251 0.000000
O O1 0.868278 0.774905 0.500000
O O2 0.750000 0.750000 0.393175
O O3 0.765732 0.844134 0.427830
O O4 0.000000 0.797003 0.394540
O O5 0.267702 0.935766 0.247814
O O6 0.205567 0.906403 0.131443
O O7 0.000000 0.936355 0.208022
O O8 0.195300 0.000000 0.161934
O O9 0.250000 0.250000 0.260687
O O10 0.243825 0.156268 0.290830
O O11 0.196341 0.184416 0.174531
O O12 0.000000 0.202128 0.262325
O O13 0.500000 0.886559 0.717958
O O14 0.693216 0.919928 0.633295
O O15 0.701519 0.080536 0.500000
O O16 0.500000 0.126825 0.565603
O O17 0.500000 0.344521 0.909130
O O18 0.779205 0.333287 0.939127
O O19 0.250000 0.750000 0.000000
O O20 0.000000 0.704607 0.000000
#
# Coordination Sequence:
#
# PCOD8270774 Si02
#       7
#    16  16  16  16  16  16   8
#     4   9  16  25  38  56  79 112 155 199 243 294
#     4   9  19  38  63  86 108 138 177 224 277 327
#     4  10  20  34  53  76 105 142 183 228 274 320
#     4  10  20  33  52  78 104 133 173 221 273 329
#     4   9  18  32  47  64  91 127 165 207 259 320
#     4   9  19  36  57  82 112 146 186 227 266 314
#     4  12  24  36  55  84 121 163 198 227 261 302
#
# _framework density 19.734303000000001
#
# number of rings (size 3 to 8) (size 9 to 14) (size 15 to 20)
#    0.000    2.462    0.000    3.462    0.000    8.308 
#    0.000    0.385    0.000    2.769    0.000    3.231 
#    0.000    0.000    0.000    0.000    0.000    0.000 
#
# Total GULP energy -644295.353698 kJ/mol
# GULP energy per Si atom -12390.295263 kJ/mol
# Density = 1.968939 g / cm^3
# Si number density = 19.734303 Si / 1000 Ang^3
#
#
#
# Elastic Constant Matrix: (Units=GPa)
#
#
# Indices 1 2 3 4 5 6 
#
# 1 104.3272 32.8086 53.0729 0.0000 0.0000 0.0000
# 2 32.8086 92.2172 37.2074 0.0000 0.0000 0.0000
# 3 53.0729 37.2074 132.9889 0.0000 0.0000 0.0000
# 4 0.0000 0.0000 0.0000 9.7738 0.0000 0.0000
# 5 0.0000 0.0000 0.0000 0.0000 16.2580 0.0000
# 6 0.0000 0.0000 0.0000 0.0000 0.0000 24.5057
#
#
#
# Elastic Compliance Matrix: (Units=1/GPa)
#
#
# Indices 1 2 3 4 5 6 
#
# 1 0.012626 -0.002772 -0.004263 0.000000 0.000000 0.000000
# 2 -0.002772 0.012832 -0.002484 0.000000 0.000000 0.000000
# 3 -0.004263 -0.002484 0.009916 0.000000 0.000000 0.000000
# 4 0.000000 0.000000 0.000000 0.102315 0.000000 0.000000
# 5 0.000000 0.000000 0.000000 0.000000 0.061508 0.000000
# 6 0.000000 0.000000 0.000000 0.000000 0.000000 0.040807
#
#
# Mechanical properties :
#
#
# Convention : Reuss Voigt Hill
#
# Bulk Modulus (GPa) = 61.21544 63.96791 62.59167
# Shear Modulus (GPa) = 18.90456 23.87047 21.38751
#
# Velocity S-wave (km/s) = 3.09844 3.48169 3.29564
# Velocity P-wave (km/s) = 6.62477 6.97480 6.80204
#
# Compressibility (1/GPa) = 0.01633575
#
# Stress axis : x y z
#
# Youngs Moduli (GPa) = 79.20413 77.92804 100.85001
#
# Poissons Ratio (x) = 0.21600 0.42993
# Poissons Ratio (y) = 0.21954 0.25052
# Poissons Ratio (z) = 0.33766 0.19358
#
# Static dielectric constant tensor:
#      x y z
#    x 3.806240 0.000000 0.000000 
#    y 0.000000 3.374020 0.000000 
#    z 0.000000 0.000000 3.848540 
# 
# 
# High freq. dielectric constant tensor:
#      x y z
#    x 1.778760 0.000000 0.000000 
#    y 0.000000 1.734690 0.000000 
#    z 0.000000 0.000000 1.773100 
# 
# From -- ./inp_files/60401.got.cif
#   From: 2010.03.12/outbox.cif.g09.slc.cpg/sg65_31_cif.got.tgz:60401.got - 2010.04.10 20:52:16.
