data_PCOD8270417
_publ_section_title
;
Structure prediction by ZEFSAII (Michael W. Deem and Ramdas Pophale) SiO2 
 PCOD8270417
Probable space group: C M M M
;
_chemical_formula_sum "Si O2"
_cell_formula_units_Z 104
_cell_length_a 30.086567
_cell_length_b 8.973851
_cell_length_c 22.690909
_cell_angle_alpha 90.000000
_cell_angle_beta 90.000000
_cell_angle_gamma 90.000000
_cell_volume 6126.372284
_symmetry_space_group_name_H-M "C M M M"
_symmetry_group_IT_number 65
_symmetry_cell_setting 'orthorhombic'
loop_
_space_group_symop_operation_xyz
x,y,z
-x,-y,z
x,-y,-z
-x,y,-z
-x,-y,-z
x,y,-z
-x,y,z
x,-y,z
1/2+x,1/2+y,z
1/2-x,1/2-y,z
1/2+x,1/2-y,-z
1/2-x,1/2+y,-z
1/2-x,1/2-y,-z
1/2+x,1/2+y,-z
1/2-x,1/2+y,z
1/2+x,1/2-y,z
loop_
_atom_site_type_symbol
_atom_site_label
_atom_site_fract_x
_atom_site_fract_y
_atom_site_fract_z
Si Si1 0.791347 0.837224 0.649458
Si Si2 0.884439 0.323489 0.781975
Si Si3 0.612162 0.676702 0.341634
Si Si4 0.048253 0.824536 0.000000
Si Si5 0.293082 0.333165 0.789068
Si Si6 0.447001 0.328233 0.127734
Si Si7 0.447999 0.169194 0.432898
O O1 0.750000 0.750000 0.621026
O O2 0.839583 0.767241 0.634519
O O3 0.786931 0.843383 0.719455
O O4 0.788334 0.000000 0.621330
O O5 0.879633 0.500000 0.777336
O O6 0.899251 0.258975 0.718956
O O7 0.837813 0.256301 0.804730
O O8 0.923383 0.281097 0.826798
O O9 0.613316 0.500000 0.329426
O O10 0.576064 0.714994 0.390477
O O11 0.071770 0.782631 0.062131
O O12 0.000000 0.746580 0.000000
O O13 0.040903 0.000000 0.000000
O O14 0.296240 0.500000 0.815749
O O15 0.250000 0.250000 0.816523
O O16 0.500000 0.304850 0.131048
O O17 0.435090 0.500000 0.142392
O O18 0.434844 0.206294 0.500000
O O19 0.500000 0.190925 0.423494
O O20 0.434156 0.000000 0.417367
#
# Coordination Sequence:
#
# PCOD8270417 Si02
#       7
#    16  16  16   8  16  16  16
#     4   8  15  26  42  65  91 118 148 183 223 269
#     4  11  21  31  45  69 101 133 162 194 238 287
#     4  10  20  33  49  71  97 124 157 197 238 281
#     4   7  12  26  49  71  88 115 158 201 239 281
#     4   9  16  28  45  66  93 124 159 197 236 279
#     4   9  17  31  50  70  94 125 161 200 240 284
#     4   9  19  36  55  73  93 119 154 195 238 287
#
# _framework density 16.975788999999999
#
# number of rings (size 3 to 8) (size 9 to 14) (size 15 to 20)
#    0.000    2.846    0.000    4.615    0.000    5.846 
#    0.000    1.154    0.000    1.846    0.000    0.538 
#    0.000    0.000    0.000    0.000    0.000    0.000 
#
# Total GULP energy -644395.174988 kJ/mol
# GULP energy per Si atom -12392.214904 kJ/mol
# Density = 1.693715 g / cm^3
# Si number density = 16.975789 Si / 1000 Ang^3
#
#
#
# Elastic Constant Matrix: (Units=GPa)
#
#
# Indices 1 2 3 4 5 6 
#
# 1 78.9164 43.7062 48.3453 0.0000 0.0000 0.0000
# 2 43.7062 100.6434 40.8972 0.0000 0.0000 0.0000
# 3 48.3453 40.8972 74.1771 0.0000 0.0000 0.0000
# 4 0.0000 0.0000 0.0000 17.5145 0.0000 0.0000
# 5 0.0000 0.0000 0.0000 0.0000 -1.0400 0.0000
# 6 0.0000 0.0000 0.0000 0.0000 0.0000 29.3308
#
#
#
# Elastic Compliance Matrix: (Units=1/GPa)
#
#
# Indices 1 2 3 4 5 6 
#
# 1 0.022892 -0.004998 -0.012164 0.000000 0.000000 0.000000
# 2 -0.004998 0.013896 -0.004404 0.000000 0.000000 0.000000
# 3 -0.012164 -0.004404 0.023837 0.000000 0.000000 0.000000
# 4 0.000000 0.000000 0.000000 0.057096 0.000000 0.000000
# 5 0.000000 0.000000 0.000000 0.000000 -0.961580 0.000000
# 6 0.000000 0.000000 0.000000 0.000000 0.000000 0.034094
#
#
# Mechanical properties :
#
#
# Convention : Reuss Voigt Hill
#
# Bulk Modulus (GPa) = 57.16649 57.73715 57.45182
# Shear Modulus (GPa) = -6.57201 17.21362 5.32080
#
# Velocity S-wave (km/s) = -1.96972 3.18781 1.77233
# Velocity P-wave (km/s) = 5.34559 6.90180 6.17293
#
# Compressibility (1/GPa) = 0.01749276
#
# Stress axis : x y z
#
# Youngs Moduli (GPa) = 43.68416 71.96194 41.95097
#
# Poissons Ratio (x) = 0.35968 0.51029
# Poissons Ratio (y) = 0.21834 0.18475
# Poissons Ratio (z) = 0.53137 0.31692
#
# Static dielectric constant tensor:
#      x y z
#    x 3.230150 0.000000 0.000000 
#    y 0.000000 3.197480 0.000000 
#    z 0.000000 0.000000 2.955800 
# 
# 
# High freq. dielectric constant tensor:
#      x y z
#    x 1.652600 0.000000 0.000000 
#    y 0.000000 1.652600 0.000000 
#    z 0.000000 0.000000 1.617340 
# 
# From -- ./inp_files/72124.got.cif
#   From: 2010.03.12/outbox.cif.g09.slc.cpg/sg65_37_cif.got.tgz:72124.got - 2010.04.10 20:52:16.
