data_PCOD8270378
_publ_section_title
;
Structure prediction by ZEFSAII (Michael W. Deem and Ramdas Pophale) SiO2 
 PCOD8270378
Probable space group: C M M M
;
_chemical_formula_sum "Si O2"
_cell_formula_units_Z 88
_cell_length_a 8.956102
_cell_length_b 18.058995
_cell_length_c 28.850048
_cell_angle_alpha 90.000000
_cell_angle_beta 90.000000
_cell_angle_gamma 90.000000
_cell_volume 4666.154869
_symmetry_space_group_name_H-M "C M M M"
_symmetry_group_IT_number 65
_symmetry_cell_setting 'orthorhombic'
loop_
_space_group_symop_operation_xyz
x,y,z
-x,-y,z
x,-y,-z
-x,y,-z
-x,-y,-z
x,y,-z
-x,y,z
x,-y,z
1/2+x,1/2+y,z
1/2-x,1/2-y,z
1/2+x,1/2-y,-z
1/2-x,1/2+y,-z
1/2-x,1/2-y,-z
1/2+x,1/2+y,-z
1/2-x,1/2+y,z
1/2+x,1/2-y,z
loop_
_atom_site_type_symbol
_atom_site_label
_atom_site_fract_x
_atom_site_fract_y
_atom_site_fract_z
Si Si1 0.322618 0.083141 0.500000
Si Si2 0.174388 0.172512 0.235857
Si Si3 0.671992 0.586321 0.328127
Si Si4 0.179031 0.083485 0.148351
Si Si5 0.323459 0.170354 0.409979
Si Si6 0.332511 0.587999 0.950953
O O1 0.500000 0.079754 0.500000
O O2 0.264061 0.125669 0.454642
O O3 0.256142 0.000000 0.500000
O O4 0.250000 0.250000 0.246735
O O5 0.209863 0.116437 0.277323
O O6 0.240296 0.136861 0.188671
O O7 0.000000 0.186627 0.230667
O O8 0.500000 0.602155 0.341175
O O9 0.708584 0.500000 0.328532
O O10 0.778835 0.626095 0.364358
O O11 0.241135 0.113807 0.098064
O O12 0.000000 0.083072 0.147569
O O13 0.236545 0.000000 0.157946
O O14 0.500000 0.180103 0.411111
O O15 0.250000 0.250000 0.409827
O O16 0.500000 0.619475 0.953041
O O17 0.337736 0.500000 0.948597
O O18 0.251621 0.612602 0.000000
#
# Coordination Sequence:
#
# PCOD8270378 Si02
#       6
#     8  16  16  16  16  16
#     4   9  19  36  57  81 108 139 176 215 252 292
#     4  10  20  33  49  69  95 128 162 197 240 290
#     4  10  21  37  56  78 103 130 165 210 256 302
#     4   8  13  23  41  63  86 116 155 195 236 283
#     4  11  22  37  58  82 110 142 174 208 249 297
#     4   7   9  14  28  54  85 111 139 184 238 282
#
# _framework density 18.859210999999998
#
# number of rings (size 3 to 8) (size 9 to 14) (size 15 to 20)
#    0.000    2.818    0.000    4.091    0.000    5.455 
#    0.000    1.364    0.000    5.455    0.000    0.000 
#    0.000    0.000    0.000    4.545    0.000    3.636 
#
# Total GULP energy -545193.804358 kJ/mol
# GULP energy per Si atom -12390.768281 kJ/mol
# Density = 1.881629 g / cm^3
# Si number density = 18.859211 Si / 1000 Ang^3
#
#
#
# Elastic Constant Matrix: (Units=GPa)
#
#
# Indices 1 2 3 4 5 6 
#
# 1 31.6133 30.5247 37.4885 0.0000 0.0000 0.0000
# 2 30.5247 118.4996 63.8439 0.0000 0.0000 0.0000
# 3 37.4885 63.8439 163.0831 0.0000 0.0000 0.0000
# 4 0.0000 0.0000 0.0000 3.5036 0.0000 0.0000
# 5 0.0000 0.0000 0.0000 0.0000 28.5051 0.0000
# 6 0.0000 0.0000 0.0000 0.0000 0.0000 9.0379
#
#
#
# Elastic Compliance Matrix: (Units=1/GPa)
#
#
# Indices 1 2 3 4 5 6 
#
# 1 0.049238 -0.008346 -0.008051 0.000000 0.000000 0.000000
# 2 -0.008346 0.012109 -0.002822 0.000000 0.000000 0.000000
# 3 -0.008051 -0.002822 0.009087 0.000000 0.000000 0.000000
# 4 0.000000 0.000000 0.000000 0.285418 0.000000 0.000000
# 5 0.000000 0.000000 0.000000 0.000000 0.035081 0.000000
# 6 0.000000 0.000000 0.000000 0.000000 0.000000 0.110645
#
#
# Mechanical properties :
#
#
# Convention : Reuss Voigt Hill
#
# Bulk Modulus (GPa) = 31.25332 64.10113 47.67722
# Shear Modulus (GPa) = 9.07963 20.29860 14.68912
#
# Velocity S-wave (km/s) = 2.19656 3.28429 2.79387
# Velocity P-wave (km/s) = 4.80011 6.96026 5.97856
#
# Compressibility (1/GPa) = 0.03199660
#
# Stress axis : x y z
#
# Youngs Moduli (GPa) = 20.30943 82.58297 110.04230
#
# Poissons Ratio (x) = 0.68920 0.88600
# Poissons Ratio (y) = 0.16949 0.31054
# Poissons Ratio (z) = 0.16352 0.23305
#
# Static dielectric constant tensor:
#      x y z
#    x 2.953710 0.000000 0.000000 
#    y 0.000000 3.346810 0.000000 
#    z 0.000000 0.000000 4.094460 
# 
# 
# High freq. dielectric constant tensor:
#      x y z
#    x 1.675380 0.000000 0.000000 
#    y 0.000000 1.717580 0.000000 
#    z 0.000000 0.000000 1.764440 
# 
# From -- ./inp_files/76606.got.cif
#   From: 2010.03.12/outbox.cif.g09.slc.cpg/sg65_39_cif.got.tgz:76606.got - 2010.04.10 20:52:16.
