data_PCOD8270805
_publ_section_title
;
Structure prediction by ZEFSAII (Michael W. Deem and Ramdas Pophale) SiO2 
 PCOD8270805
Probable space group: C M M M
;
_chemical_formula_sum "Si O2"
_cell_formula_units_Z 96
_cell_length_a 28.782977
_cell_length_b 8.951373
_cell_length_c 20.423578
_cell_angle_alpha 90.000000
_cell_angle_beta 90.000000
_cell_angle_gamma 90.000000
_cell_volume 5262.076934
_symmetry_space_group_name_H-M "C M M M"
_symmetry_group_IT_number 65
_symmetry_cell_setting 'orthorhombic'
loop_
_space_group_symop_operation_xyz
x,y,z
-x,-y,z
x,-y,-z
-x,y,-z
-x,-y,-z
x,y,-z
-x,y,z
x,-y,z
1/2+x,1/2+y,z
1/2-x,1/2-y,z
1/2+x,1/2-y,-z
1/2-x,1/2+y,-z
1/2-x,1/2-y,-z
1/2+x,1/2+y,-z
1/2-x,1/2+y,z
1/2+x,1/2-y,z
loop_
_atom_site_type_symbol
_atom_site_label
_atom_site_fract_x
_atom_site_fract_y
_atom_site_fract_z
Si Si1 0.139653 0.324686 0.178744
Si Si2 0.552421 0.672486 0.772738
Si Si3 0.551485 0.829112 0.636776
Si Si4 0.144627 0.676273 0.428443
Si Si5 0.702493 0.325887 0.924135
Si Si6 0.700503 0.176562 0.304046
O O1 0.141661 0.500000 0.166787
O O2 0.086512 0.271723 0.183316
O O3 0.160423 0.242904 0.116043
O O4 0.166973 0.277743 0.244504
O O5 0.500000 0.698952 0.798302
O O6 0.566779 0.500000 0.778225
O O7 0.556647 0.720410 0.697730
O O8 0.500000 0.812765 0.605092
O O9 0.590606 0.783258 0.584447
O O10 0.559794 0.000000 0.660850
O O11 0.158214 0.743148 0.500000
O O12 0.150753 0.500000 0.429742
O O13 0.177873 0.740653 0.371338
O O14 0.706805 0.500000 0.909399
O O15 0.750000 0.250000 0.900369
O O16 0.692836 0.292207 0.000000
O O17 0.750000 0.250000 0.292353
O O18 0.706880 0.000000 0.307416
#
# Coordination Sequence:
#
# PCOD8270805 Si02
#       6
#    16  16  16  16  16  16
#     4  11  21  35  57  82 109 141 180 224 269 316
#     4  10  20  33  52  79 109 140 174 215 267 323
#     4   9  16  29  50  74 100 130 168 215 267 323
#     4   9  17  31  49  70 100 134 171 218 268 318
#     4  10  21  37  57  84 118 152 185 220 262 315
#     4  10  21  35  50  73 100 132 174 220 267 312
#
# _framework density 18.243746999999999
#
# number of rings (size 3 to 8) (size 9 to 14) (size 15 to 20)
#    0.000    2.167    1.667    2.000    0.000    5.333 
#    0.000    1.667    0.000    2.000    0.000    5.833 
#    0.000    0.000    0.000    0.000    0.000    0.000 
#
# Total GULP energy -595182.347225 kJ/mol
# GULP energy per Si atom -12399.632234 kJ/mol
# Density = 1.820222 g / cm^3
# Si number density = 18.243747 Si / 1000 Ang^3
#
#
#
# Elastic Constant Matrix: (Units=GPa)
#
#
# Indices 1 2 3 4 5 6 
#
# 1 108.6719 39.1210 43.8755 0.0000 0.0000 0.0000
# 2 39.1210 54.8330 38.0788 0.0000 0.0000 0.0000
# 3 43.8755 38.0788 81.4489 0.0000 0.0000 0.0000
# 4 0.0000 0.0000 0.0000 19.3046 0.0000 0.0000
# 5 0.0000 0.0000 0.0000 0.0000 27.5395 0.0000
# 6 0.0000 0.0000 0.0000 0.0000 0.0000 28.5275
#
#
#
# Elastic Compliance Matrix: (Units=1/GPa)
#
#
# Indices 1 2 3 4 5 6 
#
# 1 0.013213 -0.006640 -0.004013 0.000000 0.000000 0.000000
# 2 -0.006640 0.030341 -0.010608 0.000000 0.000000 0.000000
# 3 -0.004013 -0.010608 0.019399 0.000000 0.000000 0.000000
# 4 0.000000 0.000000 0.000000 0.051801 0.000000 0.000000
# 5 0.000000 0.000000 0.000000 0.000000 0.036311 0.000000
# 6 0.000000 0.000000 0.000000 0.000000 0.000000 0.035054
#
#
# Mechanical properties :
#
#
# Convention : Reuss Voigt Hill
#
# Bulk Modulus (GPa) = 48.94669 54.12270 51.53470
# Shear Modulus (GPa) = 21.23575 23.33289 22.28432
#
# Velocity S-wave (km/s) = 3.41545 3.58012 3.49876
# Velocity P-wave (km/s) = 6.51470 6.84256 6.68064
#
# Compressibility (1/GPa) = 0.02043039
#
# Stress axis : x y z
#
# Youngs Moduli (GPa) = 75.68569 32.95850 51.54850
#
# Poissons Ratio (x) = 0.21883 0.20688
# Poissons Ratio (y) = 0.50252 0.54685
# Poissons Ratio (z) = 0.30375 0.34964
#
# Static dielectric constant tensor:
#      x y z
#    x 3.564030 0.000000 0.000000 
#    y 0.000000 3.239190 0.000000 
#    z 0.000000 0.000000 3.348390 
# 
# 
# High freq. dielectric constant tensor:
#      x y z
#    x 1.714850 0.000000 0.000000 
#    y 0.000000 1.694400 0.000000 
#    z 0.000000 0.000000 1.689960 
# 
# From -- ./inp_files/60272.got.cif
#   From: 2010.03.12/outbox.cif.g09.slc.cpg/sg65_31_cif.got.tgz:60272.got - 2010.04.10 20:52:16.
