data_PCOD8270232
_publ_section_title
;
Structure prediction by ZEFSAII (Michael W. Deem and Ramdas Pophale) SiO2 
 PCOD8270232
Probable space group: C M M M
;
_chemical_formula_sum "Si O2"
_cell_formula_units_Z 72
_cell_length_a 18.494104
_cell_length_b 7.652076
_cell_length_c 25.189436
_cell_angle_alpha 90.000000
_cell_angle_beta 90.000000
_cell_angle_gamma 90.000000
_cell_volume 3564.765893
_symmetry_space_group_name_H-M "C M M M"
_symmetry_group_IT_number 65
_symmetry_cell_setting 'orthorhombic'
loop_
_space_group_symop_operation_xyz
x,y,z
-x,-y,z
x,-y,-z
-x,y,-z
-x,-y,-z
x,y,-z
-x,y,z
x,-y,z
1/2+x,1/2+y,z
1/2-x,1/2-y,z
1/2+x,1/2-y,-z
1/2-x,1/2+y,-z
1/2-x,1/2-y,-z
1/2+x,1/2+y,-z
1/2-x,1/2+y,z
1/2+x,1/2-y,z
loop_
_atom_site_type_symbol
_atom_site_label
_atom_site_fract_x
_atom_site_fract_y
_atom_site_fract_z
Si Si1 0.666388 0.704283 0.741886
Si Si2 0.581548 0.708818 0.842789
Si Si3 0.330537 0.294686 0.058574
Si Si4 0.085440 0.500000 0.441128
Si Si5 0.915173 0.201462 0.637799
O O1 0.654383 0.500000 0.743840
O O2 0.750000 0.750000 0.741345
O O3 0.627939 0.786327 0.793737
O O4 0.627786 0.773995 0.688860
O O5 0.500000 0.778054 0.837642
O O6 0.584097 0.500000 0.842844
O O7 0.614748 0.783420 0.897755
O O8 0.340740 0.500000 0.055279
O O9 0.250000 0.250000 0.077500
O O10 0.345869 0.212615 0.000000
O O11 0.120438 0.500000 0.500000
O O12 0.110036 0.323618 0.410899
O O13 0.000000 0.500000 0.445982
O O14 0.000000 0.221768 0.649907
O O15 0.895942 0.000000 0.624011
#
# Coordination Sequence:
#
# PCOD8270232 Si02
#       5
#    16  16  16   8  16
#     4  10  20  32  50  74  97 132 168 208 259 312
#     4   9  17  30  48  70  98 128 164 212 259 307
#     4   9  17  29  47  70  95 128 167 208 254 305
#     4   9  18  32  54  84 112 140 174 216 264 307
#     4   9  18  33  53  78 107 140 177 217 261 312
#
# _framework density 20.197680999999999
#
# number of rings (size 3 to 8) (size 9 to 14) (size 15 to 20)
#    0.000    2.778    0.000    1.333    1.556    3.556 
#    0.000    4.444    0.000    2.667    0.000    3.111 
#    0.000    0.000    0.000    0.000    0.000    0.000 
#
# Total GULP energy -446268.803970 kJ/mol
# GULP energy per Si atom -12396.355666 kJ/mol
# Density = 2.015171 g / cm^3
# Si number density = 20.197681 Si / 1000 Ang^3
#
#
#
# Elastic Constant Matrix: (Units=GPa)
#
#
# Indices 1 2 3 4 5 6 
#
# 1 124.2738 15.9741 91.0928 0.0000 0.0000 0.0000
# 2 15.9741 48.6725 43.2520 0.0000 0.0000 0.0000
# 3 91.0928 43.2520 202.5906 0.0000 0.0000 0.0000
# 4 0.0000 0.0000 0.0000 6.6752 0.0000 0.0000
# 5 0.0000 0.0000 0.0000 0.0000 28.8468 0.0000
# 6 0.0000 0.0000 0.0000 0.0000 0.0000 21.1713
#
#
#
# Elastic Compliance Matrix: (Units=1/GPa)
#
#
# Indices 1 2 3 4 5 6 
#
# 1 0.012047 0.001061 -0.005643 0.000000 0.000000 0.000000
# 2 0.001061 0.025449 -0.005910 0.000000 0.000000 0.000000
# 3 -0.005643 -0.005910 0.008735 0.000000 0.000000 0.000000
# 4 0.000000 0.000000 0.000000 0.149809 0.000000 0.000000
# 5 0.000000 0.000000 0.000000 0.000000 0.034666 0.000000
# 6 0.000000 0.000000 0.000000 0.000000 0.000000 0.047234
#
#
# Mechanical properties :
#
#
# Convention : Reuss Voigt Hill
#
# Bulk Modulus (GPa) = 39.60959 75.13052 57.37005
# Shear Modulus (GPa) = 16.26855 26.35316 21.31086
#
# Velocity S-wave (km/s) = 2.84115 3.61607 3.25178
# Velocity P-wave (km/s) = 5.51511 7.39682 6.52416
#
# Compressibility (1/GPa) = 0.02524641
#
# Stress axis : x y z
#
# Youngs Moduli (GPa) = 83.00881 39.29363 114.47714
#
# Poissons Ratio (x) = -0.04169 0.64603
# Poissons Ratio (y) = -0.08808 0.67661
# Poissons Ratio (z) = 0.46844 0.23224
#
# Static dielectric constant tensor:
#      x y z
#    x 3.468370 0.000000 0.000000 
#    y 0.000000 3.530040 0.000000 
#    z 0.000000 0.000000 4.150920 
# 
# 
# High freq. dielectric constant tensor:
#      x y z
#    x 1.770350 0.000000 0.000000 
#    y 0.000000 1.769900 0.000000 
#    z 0.000000 0.000000 1.796360 
# 
# From -- ./inp_files/66989.got.cif
#   From: 2010.03.12/outbox.cif.g09.slc.cpg/sg65_34_cif.got.tgz:66989.got - 2010.04.10 20:52:16.
