data_PCOD8270365
_publ_section_title
;
Structure prediction by ZEFSAII (Michael W. Deem and Ramdas Pophale) SiO2 
 PCOD8270365
Probable space group: C M M M
;
_chemical_formula_sum "Si O2"
_cell_formula_units_Z 112
_cell_length_a 18.699097
_cell_length_b 9.826568
_cell_length_c 35.809579
_cell_angle_alpha 90.000000
_cell_angle_beta 90.000000
_cell_angle_gamma 90.000000
_cell_volume 6579.936667
_symmetry_space_group_name_H-M "C M M M"
_symmetry_group_IT_number 65
_symmetry_cell_setting 'orthorhombic'
loop_
_space_group_symop_operation_xyz
x,y,z
-x,-y,z
x,-y,-z
-x,y,-z
-x,-y,-z
x,y,-z
-x,y,z
x,-y,z
1/2+x,1/2+y,z
1/2-x,1/2-y,z
1/2+x,1/2-y,-z
1/2-x,1/2+y,-z
1/2-x,1/2-y,-z
1/2+x,1/2+y,-z
1/2-x,1/2+y,z
1/2+x,1/2-y,z
loop_
_atom_site_type_symbol
_atom_site_label
_atom_site_fract_x
_atom_site_fract_y
_atom_site_fract_z
Si Si1 0.414946 0.848785 0.895443
Si Si2 0.420460 0.838332 0.812925
Si Si3 0.820134 0.340390 0.746569
Si Si4 0.917492 0.844299 0.608757
Si Si5 0.684217 0.656139 0.457774
Si Si6 0.417541 0.155839 0.675467
Si Si7 0.414936 0.652281 0.958560
O O1 0.500000 0.854239 0.898545
O O2 0.394396 0.792592 0.854251
O O3 0.381545 0.751344 0.927216
O O4 0.383418 0.000000 0.901712
O O5 0.500000 0.778914 0.804235
O O6 0.363129 0.786855 0.782812
O O7 0.425776 0.000000 0.811583
O O8 0.799939 0.500000 0.749750
O O9 0.750000 0.250000 0.742233
O O10 0.870702 0.312539 0.711497
O O11 0.879806 0.807310 0.569965
O O12 0.888273 0.749631 0.641981
O O13 0.000000 0.814218 0.601576
O O14 0.903360 0.000000 0.620521
O O15 0.658197 0.686274 0.500000
O O16 0.708543 0.500000 0.453464
O O17 0.750000 0.750000 0.446471
O O18 0.500000 0.189864 0.685140
O O19 0.409272 0.000000 0.662753
O O20 0.500000 0.653438 0.955933
O O21 0.386447 0.500000 0.951045
O O22 0.391208 0.701094 0.000000
#
# Coordination Sequence:
#
# PCOD8270365 Si02
#       7
#    16  16  16  16  16  16  16
#     4   8  13  21  35  55  75  98 135 179 214 246
#     4   8  14  27  47  66  84 112 150 186 219 259
#     4  10  20  33  49  69  93 119 148 184 224 267
#     4   9  18  32  50  72  96 121 150 188 232 271
#     4   9  18  32  49  69  94 125 159 192 227 270
#     4   9  18  33  52  71  91 120 157 190 221 264
#     4   8  13  20  29  44  72 109 140 165 202 254
#
# _framework density 17.021439999999998
#
# number of rings (size 3 to 8) (size 9 to 14) (size 15 to 20)
#    0.000    3.286    0.000    1.714    0.000    4.000 
#    0.000    6.429    0.000    2.143    0.000    4.000 
#    0.000    0.571    0.000    1.286    0.000    3.429 
#
# Total GULP energy -694141.085211 kJ/mol
# GULP energy per Si atom -12395.376522 kJ/mol
# Density = 1.698270 g / cm^3
# Si number density = 17.021440 Si / 1000 Ang^3
#
#
#
# Elastic Constant Matrix: (Units=GPa)
#
#
# Indices 1 2 3 4 5 6 
#
# 1 57.1447 39.9344 55.4543 0.0000 0.0000 0.0000
# 2 39.9344 72.1327 72.6224 0.0000 0.0000 0.0000
# 3 55.4543 72.6224 148.3291 0.0000 0.0000 0.0000
# 4 0.0000 0.0000 0.0000 26.2972 0.0000 0.0000
# 5 0.0000 0.0000 0.0000 0.0000 3.9937 0.0000
# 6 0.0000 0.0000 0.0000 0.0000 0.0000 20.0354
#
#
#
# Elastic Compliance Matrix: (Units=1/GPa)
#
#
# Indices 1 2 3 4 5 6 
#
# 1 0.031304 -0.010941 -0.006347 0.000000 0.000000 0.000000
# 2 -0.010941 0.031164 -0.011167 0.000000 0.000000 0.000000
# 3 -0.006347 -0.011167 0.014582 0.000000 0.000000 0.000000
# 4 0.000000 0.000000 0.000000 0.038027 0.000000 0.000000
# 5 0.000000 0.000000 0.000000 0.000000 0.250394 0.000000
# 6 0.000000 0.000000 0.000000 0.000000 0.000000 0.049912
#
#
# Mechanical properties :
#
#
# Convention : Reuss Voigt Hill
#
# Bulk Modulus (GPa) = 49.65270 68.18096 58.91683
# Shear Modulus (GPa) = 10.43827 17.37164 13.90495
#
# Velocity S-wave (km/s) = 2.47906 3.19811 2.86126
# Velocity P-wave (km/s) = 6.11787 7.33349 6.75309
#
# Compressibility (1/GPa) = 0.02013989
#
# Stress axis : x y z
#
# Youngs Moduli (GPa) = 31.94456 32.08844 68.57705
#
# Poissons Ratio (x) = 0.35108 0.43523
# Poissons Ratio (y) = 0.34951 0.76583
# Poissons Ratio (z) = 0.20274 0.35835
#
# Static dielectric constant tensor:
#      x y z
#    x 2.877020 0.000000 0.000000 
#    y 0.000000 3.207700 0.000000 
#    z 0.000000 0.000000 3.497510 
# 
# 
# High freq. dielectric constant tensor:
#      x y z
#    x 1.616850 0.000000 0.000000 
#    y 0.000000 1.642350 0.000000 
#    z 0.000000 0.000000 1.670300 
# 
# From -- ./inp_files/77698.got.cif
#   From: 2010.03.12/outbox.cif.g09.slc.cpg/sg65_39_cif.got.tgz:77698.got - 2010.04.10 20:52:16.
