data_PCOD8270610
_publ_section_title
;
Structure prediction by ZEFSAII (Michael W. Deem and Ramdas Pophale) SiO2 
 PCOD8270610
Probable space group: C M M M
;
_chemical_formula_sum "Si O2"
_cell_formula_units_Z 104
_cell_length_a 8.175647
_cell_length_b 20.374247
_cell_length_c 34.644383
_cell_angle_alpha 90.000000
_cell_angle_beta 90.000000
_cell_angle_gamma 90.000000
_cell_volume 5770.806731
_symmetry_space_group_name_H-M "C M M M"
_symmetry_group_IT_number 65
_symmetry_cell_setting 'orthorhombic'
loop_
_space_group_symop_operation_xyz
x,y,z
-x,-y,z
x,-y,-z
-x,y,-z
-x,-y,-z
x,y,-z
-x,y,z
x,-y,z
1/2+x,1/2+y,z
1/2-x,1/2-y,z
1/2+x,1/2-y,-z
1/2-x,1/2+y,-z
1/2-x,1/2-y,-z
1/2+x,1/2+y,-z
1/2-x,1/2+y,z
1/2+x,1/2-y,z
loop_
_atom_site_type_symbol
_atom_site_label
_atom_site_fract_x
_atom_site_fract_y
_atom_site_fract_z
Si Si1 0.181420 0.422161 0.668560
Si Si2 0.195467 0.573420 0.753016
Si Si3 0.500000 0.078164 0.456116
Si Si4 0.191972 0.074473 0.956468
Si Si5 0.311402 0.818610 0.898398
Si Si6 0.306056 0.820606 0.187292
Si Si7 0.681144 0.578088 0.589289
O O1 0.166882 0.500000 0.667562
O O2 0.254702 0.402217 0.710501
O O3 0.295594 0.397578 0.633543
O O4 0.000000 0.392076 0.662629
O O5 0.261060 0.500000 0.762188
O O6 0.267487 0.622902 0.785087
O O7 0.000000 0.572723 0.753055
O O8 0.500000 0.102936 0.500000
O O9 0.667307 0.105615 0.436316
O O10 0.500000 0.000000 0.453409
O O11 0.280450 0.121912 0.927018
O O12 0.000000 0.084639 0.952783
O O13 0.240819 0.000000 0.946064
O O14 0.249263 0.090851 0.000000
O O15 0.500000 0.810666 0.891544
O O16 0.250000 0.750000 0.916587
O O17 0.232761 0.831354 0.856031
O O18 0.500000 0.825344 0.187682
O O19 0.250000 0.750000 0.203187
O O20 0.500000 0.602804 0.575275
O O21 0.684937 0.500000 0.587185
#
# Coordination Sequence:
#
# PCOD8270610 Si02
#       7
#    16  16   8  16  16  16  16
#     4   8  12  21  37  54  73  98 131 175 224 268
#     4   8  14  25  44  67  87 112 150 193 229 267
#     4   9  16  24  32  44  66  98 140 184 222 270
#     4   9  19  36  55  74  98 126 154 189 238 293
#     4  10  20  33  51  73  97 127 163 200 235 277
#     4   9  18  32  48  67  93 125 157 189 229 280
#     4   9  15  22  33  48  68  97 133 177 227 273
#
# _framework density 18.021742
#
# number of rings (size 3 to 8) (size 9 to 14) (size 15 to 20)
#    0.000    3.154    0.769    1.846    0.000    2.462 
#    0.000    4.615    0.000    1.385    0.000    0.000 
#    0.000    0.000    0.000    0.000    0.000    0.769 
#
# Total GULP energy -644306.971427 kJ/mol
# GULP energy per Si atom -12390.518681 kJ/mol
# Density = 1.798072 g / cm^3
# Si number density = 18.021742 Si / 1000 Ang^3
#
#
#
# Elastic Constant Matrix: (Units=GPa)
#
#
# Indices 1 2 3 4 5 6 
#
# 1 69.3053 20.8775 40.6636 0.0000 0.0000 0.0000
# 2 20.8775 65.9101 54.2867 0.0000 0.0000 0.0000
# 3 40.6636 54.2867 120.1830 0.0000 0.0000 0.0000
# 4 0.0000 0.0000 0.0000 2.0928 0.0000 0.0000
# 5 0.0000 0.0000 0.0000 0.0000 15.6475 0.0000
# 6 0.0000 0.0000 0.0000 0.0000 0.0000 16.2288
#
#
#
# Elastic Compliance Matrix: (Units=1/GPa)
#
#
# Indices 1 2 3 4 5 6 
#
# 1 0.018052 -0.001095 -0.005613 0.000000 0.000000 0.000000
# 2 -0.001095 0.024228 -0.010573 0.000000 0.000000 0.000000
# 3 -0.005613 -0.010573 0.014996 0.000000 0.000000 0.000000
# 4 0.000000 0.000000 0.000000 0.477833 0.000000 0.000000
# 5 0.000000 0.000000 0.000000 0.000000 0.063908 0.000000
# 6 0.000000 0.000000 0.000000 0.000000 0.000000 0.061619
#
#
# Mechanical properties :
#
#
# Convention : Reuss Voigt Hill
#
# Bulk Modulus (GPa) = 44.02770 54.11713 49.07241
# Shear Modulus (GPa) = 7.11471 16.09852 11.60662
#
# Velocity S-wave (km/s) = 1.98907 2.99203 2.54054
# Velocity P-wave (km/s) = 5.45514 6.48308 5.99120
#
# Compressibility (1/GPa) = 0.02271297
#
# Stress axis : x y z
#
# Youngs Moduli (GPa) = 55.39464 41.27533 66.68498
#
# Poissons Ratio (x) = 0.04518 0.37434
# Poissons Ratio (y) = 0.06064 0.70507
# Poissons Ratio (z) = 0.31096 0.43641
#
# Static dielectric constant tensor:
#      x y z
#    x 3.261320 0.000000 0.000000 
#    y 0.000000 2.912650 0.000000 
#    z 0.000000 0.000000 3.759880 
# 
# 
# High freq. dielectric constant tensor:
#      x y z
#    x 1.686400 0.000000 0.000000 
#    y 0.000000 1.641000 0.000000 
#    z 0.000000 0.000000 1.703210 
# 
# From -- ./inp_files/73571.got.cif
#   From: 2010.03.12/outbox.cif.g09.slc.cpg/sg65_37_cif.got.tgz:73571.got - 2010.04.10 20:52:16.
