data_PCOD8270193
_publ_section_title
;
Structure prediction by ZEFSAII (Michael W. Deem and Ramdas Pophale) SiO2 
 PCOD8270193
Probable space group: C M M M
;
_chemical_formula_sum "Si O2"
_cell_formula_units_Z 96
_cell_length_a 9.090245
_cell_length_b 19.558495
_cell_length_c 30.625422
_cell_angle_alpha 90.000000
_cell_angle_beta 90.000000
_cell_angle_gamma 90.000000
_cell_volume 5444.940064
_symmetry_space_group_name_H-M "C M M M"
_symmetry_group_IT_number 65
_symmetry_cell_setting 'orthorhombic'
loop_
_space_group_symop_operation_xyz
x,y,z
-x,-y,z
x,-y,-z
-x,y,-z
-x,-y,-z
x,y,-z
-x,y,z
x,-y,z
1/2+x,1/2+y,z
1/2-x,1/2-y,z
1/2+x,1/2-y,-z
1/2-x,1/2+y,-z
1/2-x,1/2-y,-z
1/2+x,1/2+y,-z
1/2-x,1/2+y,z
1/2+x,1/2-y,z
loop_
_atom_site_type_symbol
_atom_site_label
_atom_site_fract_x
_atom_site_fract_y
_atom_site_fract_z
Si Si1 0.834824 0.581173 0.952009
Si Si2 0.665849 0.418832 0.546131
Si Si3 0.671051 0.818689 0.296814
Si Si4 0.669606 0.419300 0.132508
Si Si5 0.328501 0.819178 0.195181
Si Si6 0.673258 0.579771 0.359489
O O1 0.833269 0.500000 0.952390
O O2 0.725407 0.608185 0.914586
O O3 0.000000 0.607335 0.941947
O O4 0.783853 0.607915 0.000000
O O5 0.744695 0.394865 0.500000
O O6 0.500000 0.391303 0.544454
O O7 0.663878 0.500000 0.547655
O O8 0.734167 0.394508 0.592525
O O9 0.500000 0.811440 0.307155
O O10 0.750000 0.750000 0.312990
O O11 0.701763 0.831768 0.246036
O O12 0.736963 0.882457 0.322316
O O13 0.500000 0.399318 0.137207
O O14 0.695158 0.500000 0.137175
O O15 0.761714 0.383913 0.170516
O O16 0.500000 0.812788 0.184601
O O17 0.250000 0.750000 0.179075
O O18 0.500000 0.595287 0.355277
O O19 0.704498 0.500000 0.353013
#
# Coordination Sequence:
#
# PCOD8270193 Si02
#       6
#    16  16  16  16  16  16
#     4   8  14  26  45  69  98 132 167 201 238 281
#     4   7  10  19  38  65  95 125 157 191 228 275
#     4  10  21  36  53  71  93 125 163 202 244 292
#     4  10  20  32  49  76 106 133 163 201 242 283
#     4  10  21  37  55  72  93 125 164 203 245 295
#     4   9  17  29  48  75 103 129 158 196 241 285
#
# _framework density 17.631046999999999
#
# number of rings (size 3 to 8) (size 9 to 14) (size 15 to 20)
#    0.000    3.000    0.000    3.500    0.000    4.333 
#    0.000    5.000    0.000    1.500    0.000    2.333 
#    0.000    0.000    0.000    0.000    0.000    0.000 
#
# Total GULP energy -594725.600687 kJ/mol
# GULP energy per Si atom -12390.116681 kJ/mol
# Density = 1.759092 g / cm^3
# Si number density = 17.631047 Si / 1000 Ang^3
#
#
#
# Elastic Constant Matrix: (Units=GPa)
#
#
# Indices 1 2 3 4 5 6 
#
# 1 93.3666 42.3874 63.6972 0.0000 0.0000 0.0000
# 2 42.3874 49.9843 49.9395 0.0000 0.0000 0.0000
# 3 63.6972 49.9395 109.5380 0.0000 0.0000 0.0000
# 4 0.0000 0.0000 0.0000 3.1345 0.0000 0.0000
# 5 0.0000 0.0000 0.0000 0.0000 22.3261 0.0000
# 6 0.0000 0.0000 0.0000 0.0000 0.0000 26.4737
#
#
#
# Elastic Compliance Matrix: (Units=1/GPa)
#
#
# Indices 1 2 3 4 5 6 
#
# 1 0.020088 -0.009851 -0.007190 0.000000 0.000000 0.000000
# 2 -0.009851 0.041574 -0.013225 0.000000 0.000000 0.000000
# 3 -0.007190 -0.013225 0.019340 0.000000 0.000000 0.000000
# 4 0.000000 0.000000 0.000000 0.319026 0.000000 0.000000
# 5 0.000000 0.000000 0.000000 0.000000 0.044791 0.000000
# 6 0.000000 0.000000 0.000000 0.000000 0.000000 0.037773
#
#
# Mechanical properties :
#
#
# Convention : Reuss Voigt Hill
#
# Bulk Modulus (GPa) = 48.85590 62.77080 55.81335
# Shear Modulus (GPa) = 9.09177 16.84453 12.96815
#
# Velocity S-wave (km/s) = 2.27330 3.09429 2.71501
# Velocity P-wave (km/s) = 5.88734 6.96031 6.44619
#
# Compressibility (1/GPa) = 0.02046836
#
# Stress axis : x y z
#
# Youngs Moduli (GPa) = 49.78057 24.05366 51.70680
#
# Poissons Ratio (x) = 0.23696 0.37178
# Poissons Ratio (y) = 0.49041 0.68383
# Poissons Ratio (z) = 0.35793 0.31811
#
# Static dielectric constant tensor:
#      x y z
#    x 3.181640 0.000000 0.000000 
#    y 0.000000 2.887310 0.000000 
#    z 0.000000 0.000000 3.735900 
# 
# 
# High freq. dielectric constant tensor:
#      x y z
#    x 1.667190 0.000000 0.000000 
#    y 0.000000 1.639750 0.000000 
#    z 0.000000 0.000000 1.701440 
# 
# From -- ./inp_files/73221.got.cif
#   From: 2010.03.12/outbox.cif.g09.slc.cpg/sg65_37_cif.got.tgz:73221.got - 2010.04.10 20:52:16.
