data_PCOD8270497
_publ_section_title
;
Structure prediction by ZEFSAII (Michael W. Deem and Ramdas Pophale) SiO2 
 PCOD8270497
Probable space group: C M M M
;
_chemical_formula_sum "Si O2"
_cell_formula_units_Z 88
_cell_length_a 18.336463
_cell_length_b 8.794619
_cell_length_c 28.893625
_cell_angle_alpha 90.000000
_cell_angle_beta 90.000000
_cell_angle_gamma 90.000000
_cell_volume 4659.449704
_symmetry_space_group_name_H-M "C M M M"
_symmetry_group_IT_number 65
_symmetry_cell_setting 'orthorhombic'
loop_
_space_group_symop_operation_xyz
x,y,z
-x,-y,z
x,-y,-z
-x,y,-z
-x,-y,-z
x,y,-z
-x,y,z
x,-y,z
1/2+x,1/2+y,z
1/2-x,1/2-y,z
1/2+x,1/2-y,-z
1/2-x,1/2+y,-z
1/2-x,1/2-y,-z
1/2+x,1/2+y,-z
1/2-x,1/2+y,z
1/2+x,1/2-y,z
loop_
_atom_site_type_symbol
_atom_site_label
_atom_site_fract_x
_atom_site_fract_y
_atom_site_fract_z
Si Si1 0.671794 0.179028 0.185850
Si Si2 0.914789 0.324318 0.276876
Si Si3 0.417955 0.817660 0.900721
Si Si4 0.170250 0.178844 0.358762
Si Si5 0.413413 0.166606 0.000000
Si Si6 0.329246 0.821886 0.449883
O O1 0.750000 0.250000 0.194046
O O2 0.620599 0.224691 0.228474
O O3 0.635649 0.245072 0.138925
O O4 0.680450 0.000000 0.182033
O O5 0.898205 0.500000 0.288324
O O6 0.881948 0.220008 0.316719
O O7 0.000000 0.292231 0.273003
O O8 0.500000 0.761184 0.889670
O O9 0.417499 0.000000 0.902260
O O10 0.391247 0.752150 0.951274
O O11 0.250000 0.250000 0.350993
O O12 0.131669 0.242222 0.406059
O O13 0.178920 0.000000 0.362366
O O14 0.500000 0.149338 0.000000
O O15 0.377004 0.000000 0.000000
O O16 0.368641 0.793252 0.500000
O O17 0.250000 0.750000 0.452602
O O18 0.322945 0.000000 0.439848
#
# Coordination Sequence:
#
# PCOD8270497 Si02
#       6
#    16  16  16  16   8  16
#     4  10  20  33  50  72  98 128 161 200 247 298
#     4  10  21  37  55  73  95 126 165 209 257 307
#     4   8  13  24  44  69  95 124 162 204 243 285
#     4  11  21  33  52  77 106 137 169 207 250 296
#     4   7  10  18  37  66  95 121 154 201 246 280
#     4   9  16  27  46  73 104 136 170 207 246 289
#
# _framework density 18.88635
#
# number of rings (size 3 to 8) (size 9 to 14) (size 15 to 20)
#    0.000    2.636    0.000    5.455    0.000    5.818 
#    0.000    0.455    0.000    2.182    0.000    3.818 
#    0.000    2.182    0.000    0.000    0.000    0.000 
#
# Total GULP energy -545182.830421 kJ/mol
# GULP energy per Si atom -12390.518873 kJ/mol
# Density = 1.884336 g / cm^3
# Si number density = 18.886350 Si / 1000 Ang^3
#
#
#
# Elastic Constant Matrix: (Units=GPa)
#
#
# Indices 1 2 3 4 5 6 
#
# 1 81.2583 31.7803 60.7043 0.0000 0.0000 0.0000
# 2 31.7803 73.5908 58.5276 0.0000 0.0000 0.0000
# 3 60.7043 58.5276 189.1414 0.0000 0.0000 0.0000
# 4 0.0000 0.0000 0.0000 -15.9102 0.0000 0.0000
# 5 0.0000 0.0000 0.0000 0.0000 39.5087 0.0000
# 6 0.0000 0.0000 0.0000 0.0000 0.0000 18.6539
#
#
#
# Elastic Compliance Matrix: (Units=1/GPa)
#
#
# Indices 1 2 3 4 5 6 
#
# 1 0.017027 -0.003988 -0.004230 0.000000 0.000000 0.000000
# 2 -0.003988 0.018959 -0.004586 0.000000 0.000000 0.000000
# 3 -0.004230 -0.004586 0.008064 0.000000 0.000000 0.000000
# 4 0.000000 0.000000 0.000000 -0.062853 0.000000 0.000000
# 5 0.000000 0.000000 0.000000 0.000000 0.025311 0.000000
# 6 0.000000 0.000000 0.000000 0.000000 0.000000 0.053608
#
#
# Mechanical properties :
#
#
# Convention : Reuss Voigt Hill
#
# Bulk Modulus (GPa) = 54.23385 71.77943 63.00664
# Shear Modulus (GPa) = 54.42301 21.31570 37.86935
#
# Velocity S-wave (km/s) = 5.37388 3.36315 4.48271
# Velocity P-wave (km/s) = 8.20262 7.29175 7.76056
#
# Compressibility (1/GPa) = 0.01843867
#
# Stress axis : x y z
#
# Youngs Moduli (GPa) = 58.73118 52.74614 124.00724
#
# Poissons Ratio (x) = 0.21038 0.52461
# Poissons Ratio (y) = 0.23425 0.56876
# Poissons Ratio (z) = 0.24846 0.24192
#
# Static dielectric constant tensor:
#      x y z
#    x 3.147190 0.000000 0.000000 
#    y 0.000000 3.179390 0.000000 
#    z 0.000000 0.000000 4.367210 
# 
# 
# High freq. dielectric constant tensor:
#      x y z
#    x 1.692210 0.000000 0.000000 
#    y 0.000000 1.702260 0.000000 
#    z 0.000000 0.000000 1.767370 
# 
# From -- ./inp_files/77893.got.cif
#   From: 2010.03.12/outbox.cif.g09.slc.cpg/sg65_39_cif.got.tgz:77893.got - 2010.04.10 20:52:16.
