data_PCOD8270652
_publ_section_title
;
Structure prediction by ZEFSAII (Michael W. Deem and Ramdas Pophale) SiO2 
 PCOD8270652
Probable space group: C M M M
;
_chemical_formula_sum "Si O2"
_cell_formula_units_Z 72
_cell_length_a 23.524482
_cell_length_b 9.003494
_cell_length_c 17.719453
_cell_angle_alpha 90.000000
_cell_angle_beta 90.000000
_cell_angle_gamma 90.000000
_cell_volume 3753.025021
_symmetry_space_group_name_H-M "C M M M"
_symmetry_group_IT_number 65
_symmetry_cell_setting 'orthorhombic'
loop_
_space_group_symop_operation_xyz
x,y,z
-x,-y,z
x,-y,-z
-x,y,-z
-x,-y,-z
x,y,-z
-x,y,z
x,-y,z
1/2+x,1/2+y,z
1/2-x,1/2-y,z
1/2+x,1/2-y,-z
1/2-x,1/2+y,-z
1/2-x,1/2-y,-z
1/2+x,1/2+y,-z
1/2-x,1/2+y,z
1/2+x,1/2-y,z
loop_
_atom_site_type_symbol
_atom_site_label
_atom_site_fract_x
_atom_site_fract_y
_atom_site_fract_z
Si Si1 0.117003 0.677026 0.084133
Si Si2 0.000000 0.675324 0.321124
Si Si3 0.500000 0.822546 0.152317
Si Si4 0.688793 0.324396 0.500000
Si Si5 0.377965 0.171607 0.368729
Si Si6 0.308117 0.829065 0.219241
O O1 0.115785 0.500000 0.087194
O O2 0.164762 0.736797 0.142186
O O3 0.055300 0.737769 0.108536
O O4 0.131551 0.734586 0.000000
O O5 0.056178 0.723440 0.367201
O O6 0.000000 0.500000 0.310862
O O7 0.000000 0.744058 0.237053
O O8 0.500000 0.000000 0.154259
O O9 0.696889 0.500000 0.500000
O O10 0.750000 0.250000 0.500000
O O11 0.654803 0.276498 0.573945
O O12 0.353343 0.194712 0.285448
O O13 0.372037 0.000000 0.394434
O O14 0.250000 0.750000 0.240593
O O15 0.293303 0.000000 0.208454
#
# Coordination Sequence:
#
# PCOD8270652 Si02
#       6
#    16   8   8   8  16  16
#     4   9  16  26  44  74 109 141 176 224 277 320
#     4   9  16  30  56  84 111 143 182 224 269 325
#     4   9  13  24  46  76 108 138 175 222 273 319
#     4  12  26  43  62  85 113 144 182 226 271 324
#     4  10  20  37  60  85 113 145 182 225 273 327
#     4  10  20  33  51  75 106 144 185 226 269 321
#
# _framework density 19.184525000000001
#
# number of rings (size 3 to 8) (size 9 to 14) (size 15 to 20)
#    0.000    2.222    2.222    2.000    0.000    4.889 
#    0.000    2.778    0.000    0.000    0.000    0.778 
#    0.000    1.778    0.000    0.000    0.000    0.000 
#
# Total GULP energy -446366.170930 kJ/mol
# GULP energy per Si atom -12399.060304 kJ/mol
# Density = 1.914086 g / cm^3
# Si number density = 19.184525 Si / 1000 Ang^3
#
#
#
# Elastic Constant Matrix: (Units=GPa)
#
#
# Indices 1 2 3 4 5 6 
#
# 1 150.8261 42.7725 47.4022 0.0000 0.0000 0.0000
# 2 42.7725 54.6618 39.0768 0.0000 0.0000 0.0000
# 3 47.4022 39.0768 111.0275 0.0000 0.0000 0.0000
# 4 0.0000 0.0000 0.0000 11.6515 0.0000 0.0000
# 5 0.0000 0.0000 0.0000 0.0000 12.7023 0.0000
# 6 0.0000 0.0000 0.0000 0.0000 0.0000 18.6046
#
#
#
# Elastic Compliance Matrix: (Units=1/GPa)
#
#
# Indices 1 2 3 4 5 6 
#
# 1 0.008776 -0.005597 -0.001777 0.000000 0.000000 0.000000
# 2 -0.005597 0.028014 -0.007470 0.000000 0.000000 0.000000
# 3 -0.001777 -0.007470 0.012395 0.000000 0.000000 0.000000
# 4 0.000000 0.000000 0.000000 0.085826 0.000000 0.000000
# 5 0.000000 0.000000 0.000000 0.000000 0.078726 0.000000
# 6 0.000000 0.000000 0.000000 0.000000 0.000000 0.053750
#
#
# Mechanical properties :
#
#
# Convention : Reuss Voigt Hill
#
# Bulk Modulus (GPa) = 51.29080 63.89092 57.59086
# Shear Modulus (GPa) = 16.46510 21.07595 18.77053
#
# Velocity S-wave (km/s) = 2.93277 3.31810 3.13136
# Velocity P-wave (km/s) = 6.18561 6.93220 6.56952
#
# Compressibility (1/GPa) = 0.01949667
#
# Stress axis : x y z
#
# Youngs Moduli (GPa) = 113.95013 35.69639 80.68010
#
# Poissons Ratio (x) = 0.19978 0.14336
# Poissons Ratio (y) = 0.63774 0.60270
# Poissons Ratio (z) = 0.20248 0.26666
#
# Static dielectric constant tensor:
#      x y z
#    x 3.747380 0.000000 0.000000 
#    y 0.000000 2.954650 0.000000 
#    z 0.000000 0.000000 3.661230 
# 
# 
# High freq. dielectric constant tensor:
#      x y z
#    x 1.761270 0.000000 0.000000 
#    y 0.000000 1.682720 0.000000 
#    z 0.000000 0.000000 1.757180 
# 
# From -- ./inp_files/56507.got.cif
#   From: 2010.03.12/outbox.cif.g09.slc.cpg/sg65_29_cif.got.tgz:56507.got - 2010.04.10 20:52:16.
