data_PCOD8270983
_publ_section_title
;
Structure prediction by ZEFSAII (Michael W. Deem and Ramdas Pophale) SiO2 
 PCOD8270983
Probable space group: C M M M
;
_chemical_formula_sum "Si O2"
_cell_formula_units_Z 104
_cell_length_a 8.162097
_cell_length_b 25.933137
_cell_length_c 27.224320
_cell_angle_alpha 90.000000
_cell_angle_beta 90.000000
_cell_angle_gamma 90.000000
_cell_volume 5762.538593
_symmetry_space_group_name_H-M "C M M M"
_symmetry_group_IT_number 65
_symmetry_cell_setting 'orthorhombic'
loop_
_space_group_symop_operation_xyz
x,y,z
-x,-y,z
x,-y,-z
-x,y,-z
-x,-y,-z
x,y,-z
-x,y,z
x,-y,z
1/2+x,1/2+y,z
1/2-x,1/2-y,z
1/2+x,1/2-y,-z
1/2-x,1/2+y,-z
1/2-x,1/2-y,-z
1/2+x,1/2+y,-z
1/2-x,1/2+y,z
1/2+x,1/2-y,z
loop_
_atom_site_type_symbol
_atom_site_label
_atom_site_fract_x
_atom_site_fract_y
_atom_site_fract_z
Si Si1 0.314135 0.560482 0.382776
Si Si2 0.310118 0.594478 0.274601
Si Si3 0.691443 0.600739 0.056932
Si Si4 0.688480 0.694083 0.221725
Si Si5 0.000000 0.561108 0.445064
Si Si6 0.687733 0.500000 0.890427
Si Si7 0.811539 0.695567 0.885522
Si Si8 0.183979 0.500000 0.215388
O O1 0.500000 0.571237 0.403490
O O2 0.295583 0.500000 0.371333
O O3 0.286246 0.591945 0.332900
O O4 0.169699 0.579574 0.419264
O O5 0.500000 0.587426 0.260171
O O6 0.235071 0.648694 0.255299
O O7 0.210093 0.549721 0.248535
O O8 0.500000 0.608454 0.067762
O O9 0.766038 0.551821 0.086414
O O10 0.784122 0.651943 0.074090
O O11 0.727730 0.591713 0.000000
O O12 0.500000 0.693657 0.232993
O O13 0.750000 0.750000 0.238039
O O14 0.718479 0.681903 0.164650
O O15 0.000000 0.500000 0.446891
O O16 0.000000 0.584274 0.500000
O O17 0.500000 0.500000 0.907013
O O18 0.699545 0.500000 0.831873
O O19 0.750000 0.750000 0.907436
O O20 0.000000 0.700815 0.871641
O O21 0.000000 0.500000 0.195080
#
# Coordination Sequence:
#
# PCOD8270983 Si02
#       8
#    16  16  16  16   8   8  16   8
#     4   9  17  30  48  70 102 141 181 222 265 313
#     4  10  20  34  51  72 103 142 176 211 258 311
#     4  10  21  38  59  79  98 126 164 206 253 303
#     4  10  20  35  54  75 102 137 171 209 256 308
#     4   9  18  30  46  70 104 144 184 224 266 315
#     4  10  21  38  56  74 102 134 165 203 244 305
#     4  11  22  37  56  77 102 130 164 204 254 307
#     4  12  24  31  49  79 104 135 173 210 251 300
#
# _framework density 18.047601
#
# number of rings (size 3 to 8) (size 9 to 14) (size 15 to 20)
#    0.000    1.923    0.769    4.615    1.077    7.385 
#    0.000    1.538    0.000    1.385    0.000    0.000 
#    0.000    0.615    0.308    0.000    0.000    0.000 
#
# Total GULP energy -644767.424024 kJ/mol
# GULP energy per Si atom -12399.373539 kJ/mol
# Density = 1.800652 g / cm^3
# Si number density = 18.047601 Si / 1000 Ang^3
#
#
#
# Elastic Constant Matrix: (Units=GPa)
#
#
# Indices 1 2 3 4 5 6 
#
# 1 66.4935 34.4342 33.2112 0.0000 0.0000 0.0000
# 2 34.4342 111.2226 47.5727 0.0000 0.0000 0.0000
# 3 33.2112 47.5727 92.2960 0.0000 0.0000 0.0000
# 4 0.0000 0.0000 0.0000 15.1989 0.0000 0.0000
# 5 0.0000 0.0000 0.0000 0.0000 24.0568 0.0000
# 6 0.0000 0.0000 0.0000 0.0000 0.0000 17.6019
#
#
#
# Elastic Compliance Matrix: (Units=1/GPa)
#
#
# Indices 1 2 3 4 5 6 
#
# 1 0.019575 -0.003910 -0.005029 0.000000 0.000000 0.000000
# 2 -0.003910 0.012315 -0.004941 0.000000 0.000000 0.000000
# 3 -0.005029 -0.004941 0.015191 0.000000 0.000000 0.000000
# 4 0.000000 0.000000 0.000000 0.065794 0.000000 0.000000
# 5 0.000000 0.000000 0.000000 0.000000 0.041568 0.000000
# 6 0.000000 0.000000 0.000000 0.000000 0.000000 0.056812
#
#
# Mechanical properties :
#
#
# Convention : Reuss Voigt Hill
#
# Bulk Modulus (GPa) = 51.75197 55.60534 53.67865
# Shear Modulus (GPa) = 20.37040 21.69111 21.03076
#
# Velocity S-wave (km/s) = 3.36326 3.47058 3.41734
# Velocity P-wave (km/s) = 6.61964 6.85107 6.73635
#
# Compressibility (1/GPa) = 0.01932294
#
# Stress axis : x y z
#
# Youngs Moduli (GPa) = 51.08469 81.20453 65.82939
#
# Poissons Ratio (x) = 0.31747 0.33104
# Poissons Ratio (y) = 0.19972 0.32524
# Poissons Ratio (z) = 0.25689 0.40120
#
# Static dielectric constant tensor:
#      x y z
#    x 3.389560 0.000000 0.000000 
#    y 0.000000 3.457130 0.000000 
#    z 0.000000 0.000000 3.178630 
# 
# 
# High freq. dielectric constant tensor:
#      x y z
#    x 1.703660 0.000000 0.000000 
#    y 0.000000 1.686430 0.000000 
#    z 0.000000 0.000000 1.679290 
# 
# From -- ./inp_files/73648.got.cif
#   From: 2010.03.12/outbox.cif.g09.slc.cpg/sg65_37_cif.got.tgz:73648.got - 2010.04.10 20:52:16.
