data_PCOD8270586
_publ_section_title
;
Structure prediction by ZEFSAII (Michael W. Deem and Ramdas Pophale) SiO2 
 PCOD8270586
Probable space group: C M M M
;
_chemical_formula_sum "Si O2"
_cell_formula_units_Z 96
_cell_length_a 18.698344
_cell_length_b 30.626403
_cell_length_c 9.137521
_cell_angle_alpha 90.000000
_cell_angle_beta 90.000000
_cell_angle_gamma 90.000000
_cell_volume 5232.720360
_symmetry_space_group_name_H-M "C M M M"
_symmetry_group_IT_number 65
_symmetry_cell_setting 'orthorhombic'
loop_
_space_group_symop_operation_xyz
x,y,z
-x,-y,z
x,-y,-z
-x,y,-z
-x,-y,-z
x,y,-z
-x,y,z
x,-y,z
1/2+x,1/2+y,z
1/2-x,1/2-y,z
1/2+x,1/2-y,-z
1/2-x,1/2+y,-z
1/2-x,1/2-y,-z
1/2+x,1/2+y,-z
1/2-x,1/2+y,z
1/2+x,1/2-y,z
loop_
_atom_site_type_symbol
_atom_site_label
_atom_site_fract_x
_atom_site_fract_y
_atom_site_fract_z
Si Si1 0.581603 0.708234 0.171318
Si Si2 0.918168 0.705282 0.329067
Si Si3 0.171998 0.622008 0.326590
Si Si4 0.322877 0.373730 0.173563
Si Si5 0.082063 0.449396 0.168887
Si Si6 0.920388 0.951537 0.173637
O O1 0.500000 0.698107 0.219469
O O2 0.611208 0.751644 0.249060
O O3 0.630892 0.668149 0.219548
O O4 0.586178 0.716406 0.000000
O O5 0.909187 0.713297 0.500000
O O6 0.874004 0.663564 0.275864
O O7 0.000000 0.696511 0.284767
O O8 0.179040 0.619020 0.500000
O O9 0.248699 0.627964 0.255863
O O10 0.134287 0.578262 0.270476
O O11 0.364636 0.416234 0.233695
O O12 0.310182 0.375779 0.000000
O O13 0.099200 0.500000 0.197511
O O14 0.000000 0.439158 0.210334
O O15 0.096375 0.437596 0.000000
O O16 0.000000 0.941814 0.235318
O O17 0.895443 0.000000 0.222511
O O18 0.923381 0.948293 0.000000
#
# Coordination Sequence:
#
# PCOD8270586 Si02
#       6
#    16  16  16  16  16  16
#     4   9  18  33  54  78 101 129 170 220 269 313
#     4   9  19  36  55  73  96 130 172 215 257 305
#     4  11  23  36  51  75 108 143 176 210 252 305
#     4  10  20  33  50  75 107 138 169 211 261 310
#     4   9  19  37  60  83 105 132 170 215 260 306
#     4   8  14  27  50  77 100 126 165 210 253 299
#
# _framework density 18.346097
#
# number of rings (size 3 to 8) (size 9 to 14) (size 15 to 20)
#    0.000    2.667    0.000    2.500    0.000    6.667 
#    0.000    7.500    0.000    1.500    0.000    1.167 
#    0.000    0.000    0.000    0.000    0.000    0.000 
#
# Total GULP energy -595212.842792 kJ/mol
# GULP energy per Si atom -12400.267558 kJ/mol
# Density = 1.830434 g / cm^3
# Si number density = 18.346097 Si / 1000 Ang^3
#
#
#
# Elastic Constant Matrix: (Units=GPa)
#
#
# Indices 1 2 3 4 5 6 
#
# 1 123.2457 89.6573 46.5587 0.0000 0.0000 0.0000
# 2 89.6573 154.3794 50.8104 0.0000 0.0000 0.0000
# 3 46.5587 50.8104 43.8611 0.0000 0.0000 0.0000
# 4 0.0000 0.0000 0.0000 19.1476 0.0000 0.0000
# 5 0.0000 0.0000 0.0000 0.0000 23.4325 0.0000
# 6 0.0000 0.0000 0.0000 0.0000 0.0000 13.0528
#
#
#
# Elastic Compliance Matrix: (Units=1/GPa)
#
#
# Indices 1 2 3 4 5 6 
#
# 1 0.016539 -0.006185 -0.010391 0.000000 0.000000 0.000000
# 2 -0.006185 0.012782 -0.008242 0.000000 0.000000 0.000000
# 3 -0.010391 -0.008242 0.043377 0.000000 0.000000 0.000000
# 4 0.000000 0.000000 0.000000 0.052226 0.000000 0.000000
# 5 0.000000 0.000000 0.000000 0.000000 0.042676 0.000000
# 6 0.000000 0.000000 0.000000 0.000000 0.000000 0.076612
#
#
# Mechanical properties :
#
#
# Convention : Reuss Voigt Hill
#
# Bulk Modulus (GPa) = 43.36111 77.28212 60.32161
# Shear Modulus (GPa) = 16.58183 20.09054 18.33619
#
# Velocity S-wave (km/s) = 3.00964 3.31280 3.16485
# Velocity P-wave (km/s) = 5.98027 7.53982 6.80487
#
# Compressibility (1/GPa) = 0.02306214
#
# Stress axis : x y z
#
# Youngs Moduli (GPa) = 60.46436 78.23336 23.05375
#
# Poissons Ratio (x) = 0.48388 0.23955
# Poissons Ratio (y) = 0.37398 0.19001
# Poissons Ratio (z) = 0.62827 0.64480
#
# Static dielectric constant tensor:
#      x y z
#    x 3.418420 0.000000 0.000000 
#    y 0.000000 3.603630 0.000000 
#    z 0.000000 0.000000 3.111270 
# 
# 
# High freq. dielectric constant tensor:
#      x y z
#    x 1.710950 0.000000 0.000000 
#    y 0.000000 1.725550 0.000000 
#    z 0.000000 0.000000 1.685310 
# 
# From -- ./inp_files/12323.got.cif
#   From: 2010.03.12/outbox.cif.g09.slc.cpg/sg65_7_cif.got.tgz:12323.got - 2010.04.10 20:52:16.
