data_PCOD8270827
_publ_section_title
;
Structure prediction by ZEFSAII (Michael W. Deem and Ramdas Pophale) SiO2 
 PCOD8270827
Probable space group: C M M M
;
_chemical_formula_sum "Si O2"
_cell_formula_units_Z 104
_cell_length_a 28.313879
_cell_length_b 8.638635
_cell_length_c 23.099281
_cell_angle_alpha 90.000000
_cell_angle_beta 90.000000
_cell_angle_gamma 90.000000
_cell_volume 5649.928585
_symmetry_space_group_name_H-M "C M M M"
_symmetry_group_IT_number 65
_symmetry_cell_setting 'orthorhombic'
loop_
_space_group_symop_operation_xyz
x,y,z
-x,-y,z
x,-y,-z
-x,y,-z
-x,-y,-z
x,y,-z
-x,y,z
x,-y,z
1/2+x,1/2+y,z
1/2-x,1/2-y,z
1/2+x,1/2-y,-z
1/2-x,1/2+y,-z
1/2-x,1/2-y,-z
1/2+x,1/2+y,-z
1/2-x,1/2+y,z
1/2+x,1/2-y,z
loop_
_atom_site_type_symbol
_atom_site_label
_atom_site_fract_x
_atom_site_fract_y
_atom_site_fract_z
Si Si1 0.799464 0.681914 0.564229
Si Si2 0.698080 0.319541 0.000000
Si Si3 0.446686 0.679030 0.284845
Si Si4 0.198516 0.817643 0.221816
Si Si5 0.149221 0.320132 0.890000
Si Si6 0.052615 0.677367 0.837205
Si Si7 0.857249 0.319735 0.326548
O O1 0.812757 0.745546 0.500000
O O2 0.793663 0.500000 0.562186
O O3 0.750000 0.750000 0.585869
O O4 0.839425 0.730773 0.609968
O O5 0.750000 0.250000 0.000000
O O6 0.668628 0.272773 0.055968
O O7 0.705186 0.500000 0.000000
O O8 0.500000 0.722088 0.302373
O O9 0.435658 0.500000 0.295719
O O10 0.437970 0.713158 0.217311
O O11 0.412927 0.783410 0.324724
O O12 0.250000 0.750000 0.232592
O O13 0.175426 0.733279 0.167516
O O14 0.167950 0.784416 0.278543
O O15 0.200882 0.000000 0.210207
O O16 0.159751 0.500000 0.900044
O O17 0.092788 0.287728 0.884949
O O18 0.057208 0.500000 0.815828
O O19 0.000000 0.707897 0.863328
O O20 0.847328 0.500000 0.314116
#
# Coordination Sequence:
#
# PCOD8270827 Si02
#       7
#    16   8  16  16  16  16  16
#     4   9  19  35  54  77 107 144 186 229 274 327
#     4  12  26  44  63  82 109 147 192 233 279 332
#     4  10  20  33  52  80 113 146 182 226 276 330
#     4  12  24  37  54  79 113 146 181 226 279 331
#     4  11  22  39  61  85 113 145 186 229 276 330
#     4   9  18  34  58  85 113 145 181 223 272 328
#     4  11  21  34  54  81 111 144 183 227 278 333
#
# _framework density 18.407312999999998
#
# number of rings (size 3 to 8) (size 9 to 14) (size 15 to 20)
#    0.000    1.538    1.538    4.385    0.000    4.000 
#    0.000    0.385    0.000    2.769    0.000    3.231 
#    0.000    0.000    0.000    0.000    0.000    0.000 
#
# Total GULP energy -644885.000517 kJ/mol
# GULP energy per Si atom -12401.634625 kJ/mol
# Density = 1.836542 g / cm^3
# Si number density = 18.407313 Si / 1000 Ang^3
#
#
#
# Elastic Constant Matrix: (Units=GPa)
#
#
# Indices 1 2 3 4 5 6 
#
# 1 137.1152 37.4056 63.1125 0.0000 0.0000 0.0000
# 2 37.4056 69.2669 28.1729 0.0000 0.0000 0.0000
# 3 63.1125 28.1729 104.5448 0.0000 0.0000 0.0000
# 4 0.0000 0.0000 0.0000 51.8424 0.0000 0.0000
# 5 0.0000 0.0000 0.0000 0.0000 1.8323 0.0000
# 6 0.0000 0.0000 0.0000 0.0000 0.0000 29.3457
#
#
#
# Elastic Compliance Matrix: (Units=1/GPa)
#
#
# Indices 1 2 3 4 5 6 
#
# 1 0.010838 -0.003584 -0.005577 0.000000 0.000000 0.000000
# 2 -0.003584 0.017400 -0.002525 0.000000 0.000000 0.000000
# 3 -0.005577 -0.002525 0.013612 0.000000 0.000000 0.000000
# 4 0.000000 0.000000 0.000000 0.019289 0.000000 0.000000
# 5 0.000000 0.000000 0.000000 0.000000 0.545762 0.000000
# 6 0.000000 0.000000 0.000000 0.000000 0.000000 0.034077
#
#
# Mechanical properties :
#
#
# Convention : Reuss Voigt Hill
#
# Bulk Modulus (GPa) = 54.12012 63.14544 58.63278
# Shear Modulus (GPa) = 7.45702 28.75313 18.10508
#
# Velocity S-wave (km/s) = 2.01492 3.95656 3.13961
# Velocity P-wave (km/s) = 5.90580 7.43314 6.71305
#
# Compressibility (1/GPa) = 0.01847742
#
# Stress axis : x y z
#
# Youngs Moduli (GPa) = 92.26868 57.47268 73.46273
#
# Poissons Ratio (x) = 0.20601 0.40969
# Poissons Ratio (y) = 0.33073 0.18549
# Poissons Ratio (z) = 0.51456 0.14512
#
# Static dielectric constant tensor:
#      x y z
#    x 3.722510 0.000000 0.000000 
#    y 0.000000 3.459170 0.000000 
#    z 0.000000 0.000000 5.030860 
# 
# 
# High freq. dielectric constant tensor:
#      x y z
#    x 1.726020 0.000000 0.000000 
#    y 0.000000 1.723130 0.000000 
#    z 0.000000 0.000000 1.692000 
# 
# From -- ./inp_files/66339.got.cif
#   From: 2010.03.12/outbox.cif.g09.slc.cpg/sg65_34_cif.got.tgz:66339.got - 2010.04.10 20:52:16.
