data_PCOD8270556
_publ_section_title
;
Structure prediction by ZEFSAII (Michael W. Deem and Ramdas Pophale) SiO2 
 PCOD8270556
Probable space group: C M M M
;
_chemical_formula_sum "Si O2"
_cell_formula_units_Z 96
_cell_length_a 9.017976
_cell_length_b 18.291265
_cell_length_c 30.778659
_cell_angle_alpha 90.000000
_cell_angle_beta 90.000000
_cell_angle_gamma 90.000000
_cell_volume 5076.945612
_symmetry_space_group_name_H-M "C M M M"
_symmetry_group_IT_number 65
_symmetry_cell_setting 'orthorhombic'
loop_
_space_group_symop_operation_xyz
x,y,z
-x,-y,z
x,-y,-z
-x,y,-z
-x,-y,-z
x,y,-z
-x,y,z
x,-y,z
1/2+x,1/2+y,z
1/2-x,1/2-y,z
1/2+x,1/2-y,-z
1/2-x,1/2+y,-z
1/2-x,1/2-y,-z
1/2+x,1/2+y,-z
1/2-x,1/2+y,z
1/2+x,1/2-y,z
loop_
_atom_site_type_symbol
_atom_site_label
_atom_site_fract_x
_atom_site_fract_y
_atom_site_fract_z
Si Si1 0.325833 0.674414 0.451237
Si Si2 0.176145 0.581819 0.951758
Si Si3 0.670447 0.914649 0.786143
Si Si4 0.823950 0.918689 0.628751
Si Si5 0.672864 0.173879 0.128018
Si Si6 0.824358 0.171687 0.711363
O O1 0.281956 0.649320 0.500000
O O2 0.500000 0.686931 0.447068
O O3 0.250000 0.750000 0.438598
O O4 0.269900 0.613314 0.417478
O O5 0.238037 0.500000 0.943203
O O6 0.239939 0.637741 0.915917
O O7 0.000000 0.579242 0.947907
O O8 0.224282 0.608338 0.000000
O O9 0.500000 0.899937 0.772851
O O10 0.705646 0.881657 0.833090
O O11 0.778898 0.878066 0.751663
O O12 0.706239 0.000000 0.788126
O O13 0.766194 0.867396 0.667550
O O14 0.000000 0.922865 0.630249
O O15 0.756328 0.000000 0.633948
O O16 0.500000 0.189473 0.122776
O O17 0.750000 0.250000 0.138131
O O18 0.750000 0.250000 0.715397
O O19 0.000000 0.181766 0.711269
#
# Coordination Sequence:
#
# PCOD8270556 Si02
#       6
#    16  16  16  16  16  16
#     4   9  17  30  50  74  99 129 164 202 245 294
#     4   8  14  27  49  74  97 125 165 208 246 289
#     4  10  21  37  56  77 102 132 168 211 256 302
#     4   9  18  32  50  74 102 130 164 207 251 294
#     4  10  20  33  50  74 103 133 165 203 248 296
#     4  11  22  36  55  77 103 135 170 209 253 301
#
# _framework density 18.909006999999999
#
# number of rings (size 3 to 8) (size 9 to 14) (size 15 to 20)
#    0.000    2.500    0.000    3.000    0.000    5.667 
#    0.000    2.500    0.000    4.000    0.000    3.500 
#    0.000    0.000    0.000    0.000    0.000    0.000 
#
# Total GULP energy -595176.863914 kJ/mol
# GULP energy per Si atom -12399.517998 kJ/mol
# Density = 1.886597 g / cm^3
# Si number density = 18.909007 Si / 1000 Ang^3
#
#
#
# Elastic Constant Matrix: (Units=GPa)
#
#
# Indices 1 2 3 4 5 6 
#
# 1 34.4869 36.6721 34.5914 0.0000 0.0000 0.0000
# 2 36.6721 148.7205 76.1369 0.0000 0.0000 0.0000
# 3 34.5914 76.1369 134.8498 0.0000 0.0000 0.0000
# 4 0.0000 0.0000 0.0000 39.6526 0.0000 0.0000
# 5 0.0000 0.0000 0.0000 0.0000 18.4080 0.0000
# 6 0.0000 0.0000 0.0000 0.0000 0.0000 20.6618
#
#
#
# Elastic Compliance Matrix: (Units=1/GPa)
#
#
# Indices 1 2 3 4 5 6 
#
# 1 0.043793 -0.007100 -0.007225 0.000000 0.000000 0.000000
# 2 -0.007100 0.010609 -0.004169 0.000000 0.000000 0.000000
# 3 -0.007225 -0.004169 0.011623 0.000000 0.000000 0.000000
# 4 0.000000 0.000000 0.000000 0.025219 0.000000 0.000000
# 5 0.000000 0.000000 0.000000 0.000000 0.054324 0.000000
# 6 0.000000 0.000000 0.000000 0.000000 0.000000 0.048399
#
#
# Mechanical properties :
#
#
# Convention : Reuss Voigt Hill
#
# Bulk Modulus (GPa) = 34.43810 68.09533 51.26672
# Shear Modulus (GPa) = 20.77856 27.12160 23.95008
#
# Velocity S-wave (km/s) = 3.31852 3.79135 3.56279
# Velocity P-wave (km/s) = 5.73895 7.43344 6.64047
#
# Compressibility (1/GPa) = 0.02903760
#
# Stress axis : x y z
#
# Youngs Moduli (GPa) = 22.83459 94.26127 86.03910
#
# Poissons Ratio (x) = 0.66924 0.62164
# Poissons Ratio (y) = 0.16212 0.35866
# Poissons Ratio (z) = 0.16498 0.39293
#
# Static dielectric constant tensor:
#      x y z
#    x 3.105620 0.000000 0.000000 
#    y 0.000000 3.636810 0.000000 
#    z 0.000000 0.000000 3.779100 
# 
# 
# High freq. dielectric constant tensor:
#      x y z
#    x 1.693430 0.000000 0.000000 
#    y 0.000000 1.742030 0.000000 
#    z 0.000000 0.000000 1.752770 
# 
# From -- ./inp_files/73138.got.cif
#   From: 2010.03.12/outbox.cif.g09.slc.cpg/sg65_37_cif.got.tgz:73138.got - 2010.04.10 20:52:16.
