data_PCOD8270419
_publ_section_title
;
Structure prediction by ZEFSAII (Michael W. Deem and Ramdas Pophale) SiO2 
 PCOD8270419
Probable space group: C M M M
;
_chemical_formula_sum "Si O2"
_cell_formula_units_Z 120
_cell_length_a 16.197591
_cell_length_b 22.999621
_cell_length_c 18.966686
_cell_angle_alpha 90.000000
_cell_angle_beta 90.000000
_cell_angle_gamma 90.000000
_cell_volume 7065.819882
_symmetry_space_group_name_H-M "C M M M"
_symmetry_group_IT_number 65
_symmetry_cell_setting 'orthorhombic'
loop_
_space_group_symop_operation_xyz
x,y,z
-x,-y,z
x,-y,-z
-x,y,-z
-x,-y,-z
x,y,-z
-x,y,z
x,-y,z
1/2+x,1/2+y,z
1/2-x,1/2-y,z
1/2+x,1/2-y,-z
1/2-x,1/2+y,-z
1/2-x,1/2-y,-z
1/2+x,1/2+y,-z
1/2-x,1/2+y,z
1/2+x,1/2-y,z
loop_
_atom_site_type_symbol
_atom_site_label
_atom_site_fract_x
_atom_site_fract_y
_atom_site_fract_z
Si Si1 0.160284 0.372449 0.578992
Si Si2 0.675812 0.566247 0.421091
Si Si3 0.744450 0.180819 0.919989
Si Si4 0.665506 0.224173 0.688651
Si Si5 0.592122 0.670538 0.843773
Si Si6 0.093229 0.155900 0.317855
Si Si7 0.000000 0.435278 0.584155
Si Si8 0.907749 0.692833 0.170637
O O1 0.144772 0.349040 0.500000
O O2 0.226333 0.424251 0.578163
O O3 0.189625 0.317569 0.624521
O O4 0.078361 0.399921 0.612374
O O5 0.640296 0.579295 0.500000
O O6 0.656089 0.500000 0.399682
O O7 0.642301 0.609202 0.362463
O O8 0.750000 0.250000 0.914534
O O9 0.829826 0.150850 0.891756
O O10 0.662268 0.160799 0.876863
O O11 0.732810 0.159915 0.000000
O O12 0.750000 0.250000 0.722295
O O13 0.612095 0.277925 0.659209
O O14 0.617441 0.187018 0.747483
O O15 0.500000 0.647415 0.868084
O O16 0.611700 0.648152 0.765129
O O17 0.588186 0.739594 0.847469
O O18 0.000000 0.142683 0.335945
O O19 0.000000 0.500000 0.616547
O O20 0.000000 0.439120 0.500000
O O21 0.000000 0.665730 0.158587
#
# Coordination Sequence:
#
# PCOD8270419 Si02
#       8
#    16  16  16  16  16  16   8  16
#     4  10  21  33  49  73  95 123 162 205 253 303
#     4  10  21  37  53  69  92 126 169 212 255 302
#     4   9  16  25  40  63  91 124 161 194 229 276
#     4  11  19  31  50  69  96 129 164 204 249 299
#     4   8  15  28  43  61  89 123 160 196 234 283
#     4  10  20  33  49  71  97 130 165 202 249 298
#     4   9  18  34  52  68  92 124 156 198 252 304
#     4   9  17  27  41  61  90 127 161 192 231 285
#
# _framework density 16.983167000000002
#
# number of rings (size 3 to 8) (size 9 to 14) (size 15 to 20)
#    0.000    2.467    1.333    3.600    1.867    3.467 
#    0.000    3.333    0.000    0.000    0.000    0.000 
#    0.000    0.533    0.000    2.933    0.000    4.000 
#
# Total GULP energy -743543.972738 kJ/mol
# GULP energy per Si atom -12392.399546 kJ/mol
# Density = 1.694451 g / cm^3
# Si number density = 16.983167 Si / 1000 Ang^3
#
#
#
# Elastic Constant Matrix: (Units=GPa)
#
#
# Indices 1 2 3 4 5 6 
#
# 1 125.2563 18.3333 55.2217 0.0000 0.0000 0.0000
# 2 18.3333 45.2920 37.1542 0.0000 0.0000 0.0000
# 3 55.2217 37.1542 83.6394 0.0000 0.0000 0.0000
# 4 0.0000 0.0000 0.0000 5.1689 0.0000 0.0000
# 5 0.0000 0.0000 0.0000 0.0000 21.0283 0.0000
# 6 0.0000 0.0000 0.0000 0.0000 0.0000 11.7586
#
#
#
# Elastic Compliance Matrix: (Units=1/GPa)
#
#
# Indices 1 2 3 4 5 6 
#
# 1 0.011433 0.002461 -0.008642 0.000000 0.000000 0.000000
# 2 0.002461 0.035267 -0.017291 0.000000 0.000000 0.000000
# 3 -0.008642 -0.017291 0.025343 0.000000 0.000000 0.000000
# 4 0.000000 0.000000 0.000000 0.193466 0.000000 0.000000
# 5 0.000000 0.000000 0.000000 0.000000 0.047555 0.000000
# 6 0.000000 0.000000 0.000000 0.000000 0.000000 0.085044
#
#
# Mechanical properties :
#
#
# Convention : Reuss Voigt Hill
#
# Bulk Modulus (GPa) = 39.84169 52.84510 46.34340
# Shear Modulus (GPa) = 11.02732 17.15640 14.09186
#
# Velocity S-wave (km/s) = 2.55092 3.18181 2.88367
# Velocity P-wave (km/s) = 5.67333 6.68448 6.19956
#
# Compressibility (1/GPa) = 0.02509933
#
# Stress axis : x y z
#
# Youngs Moduli (GPa) = 87.46287 28.35493 39.45845
#
# Poissons Ratio (x) = -0.06979 0.34100
# Poissons Ratio (y) = -0.21528 0.68229
# Poissons Ratio (z) = 0.75587 0.49030
#
# Static dielectric constant tensor:
#      x y z
#    x 3.592270 0.000000 0.000000 
#    y 0.000000 2.676070 0.000000 
#    z 0.000000 0.000000 3.083690 
# 
# 
# High freq. dielectric constant tensor:
#      x y z
#    x 1.677960 0.000000 0.000000 
#    y 0.000000 1.590700 0.000000 
#    z 0.000000 0.000000 1.640490 
# 
# From -- ./inp_files/63048.got.cif
#   From: 2010.03.12/outbox.cif.g09.slc.cpg/sg65_32_cif.got.tgz:63048.got - 2010.04.10 20:52:16.
