data_PCOD8270329
_publ_section_title
;
Structure prediction by ZEFSAII (Michael W. Deem and Ramdas Pophale) SiO2 
 PCOD8270329
Probable space group: C M M M
;
_chemical_formula_sum "Si O2"
_cell_formula_units_Z 104
_cell_length_a 8.707220
_cell_length_b 27.400168
_cell_length_c 23.975182
_cell_angle_alpha 90.000000
_cell_angle_beta 90.000000
_cell_angle_gamma 90.000000
_cell_volume 5719.981919
_symmetry_space_group_name_H-M "C M M M"
_symmetry_group_IT_number 65
_symmetry_cell_setting 'orthorhombic'
loop_
_space_group_symop_operation_xyz
x,y,z
-x,-y,z
x,-y,-z
-x,y,-z
-x,-y,-z
x,y,-z
-x,y,z
x,-y,z
1/2+x,1/2+y,z
1/2-x,1/2-y,z
1/2+x,1/2-y,-z
1/2-x,1/2+y,-z
1/2-x,1/2-y,-z
1/2+x,1/2+y,-z
1/2-x,1/2+y,z
1/2+x,1/2-y,z
loop_
_atom_site_type_symbol
_atom_site_label
_atom_site_fract_x
_atom_site_fract_y
_atom_site_fract_z
Si Si1 0.318819 0.198905 0.735520
Si Si2 0.182478 0.054617 0.437813
Si Si3 0.317241 0.355106 0.164619
Si Si4 0.678039 0.386095 0.665654
Si Si5 0.671903 0.500000 0.934100
Si Si6 0.322446 0.552844 0.229842
Si Si7 0.181169 0.600858 0.063857
O O1 0.500000 0.202169 0.740340
O O2 0.250000 0.250000 0.715160
O O3 0.250716 0.187803 0.797204
O O4 0.274123 0.159465 0.688566
O O5 0.234030 0.070644 0.500000
O O6 0.243211 0.095245 0.394019
O O7 0.000000 0.052842 0.433248
O O8 0.246167 0.000000 0.424945
O O9 0.500000 0.350519 0.165422
O O10 0.251350 0.405477 0.190759
O O11 0.254027 0.355397 0.101122
O O12 0.500000 0.369895 0.662972
O O13 0.699103 0.432480 0.705918
O O14 0.500000 0.500000 0.908913
O O15 0.757625 0.548682 0.913577
O O16 0.668143 0.500000 0.000000
O O17 0.500000 0.548846 0.214873
O O18 0.243322 0.500000 0.219267
O O19 0.000000 0.601454 0.069421
O O20 0.232784 0.609899 0.000000
#
# Coordination Sequence:
#
# PCOD8270329 Si02
#       7
#    16  16  16  16   8  16  16
#     4  11  22  38  58  77  99 125 162 211 267 321
#     4   8  13  22  42  76 114 149 183 216 247 284
#     4  10  20  33  52  77 102 129 167 207 251 307
#     4   9  16  28  48  74 103 135 173 213 254 300
#     4   9  17  29  45  65  91 131 179 215 244 287
#     4   8  14  24  40  65  96 129 164 203 242 284
#     4  10  20  33  48  69 101 138 173 211 254 298
#
# _framework density 18.181875000000002
#
# number of rings (size 3 to 8) (size 9 to 14) (size 15 to 20)
#    0.000    2.692    0.000    4.385    1.077    3.692 
#    0.000    0.000    0.000    9.692    0.000    1.077 
#    0.000    0.000    0.000    0.000    0.000    0.000 
#
# Total GULP energy -644464.937558 kJ/mol
# GULP energy per Si atom -12393.556491 kJ/mol
# Density = 1.814049 g / cm^3
# Si number density = 18.181875 Si / 1000 Ang^3
#
#
#
# Elastic Constant Matrix: (Units=GPa)
#
#
# Indices 1 2 3 4 5 6 
#
# 1 79.2398 28.4245 32.2412 0.0000 0.0000 0.0000
# 2 28.4245 81.4281 33.9670 0.0000 0.0000 0.0000
# 3 32.2412 33.9670 102.9606 0.0000 0.0000 0.0000
# 4 0.0000 0.0000 0.0000 17.5872 0.0000 0.0000
# 5 0.0000 0.0000 0.0000 0.0000 17.7662 0.0000
# 6 0.0000 0.0000 0.0000 0.0000 0.0000 21.0779
#
#
#
# Elastic Compliance Matrix: (Units=1/GPa)
#
#
# Indices 1 2 3 4 5 6 
#
# 1 0.015471 -0.003919 -0.003552 0.000000 0.000000 0.000000
# 2 -0.003919 0.015233 -0.003798 0.000000 0.000000 0.000000
# 3 -0.003552 -0.003798 0.012078 0.000000 0.000000 0.000000
# 4 0.000000 0.000000 0.000000 0.056859 0.000000 0.000000
# 5 0.000000 0.000000 0.000000 0.000000 0.056287 0.000000
# 6 0.000000 0.000000 0.000000 0.000000 0.000000 0.047443
#
#
# Mechanical properties :
#
#
# Convention : Reuss Voigt Hill
#
# Bulk Modulus (GPa) = 49.39759 50.32154 49.85957
# Shear Modulus (GPa) = 21.49088 22.55264 22.02176
#
# Velocity S-wave (km/s) = 3.44175 3.52574 3.48400
# Velocity P-wave (km/s) = 6.55909 6.65667 6.60806
#
# Compressibility (1/GPa) = 0.02024390
#
# Stress axis : x y z
#
# Youngs Moduli (GPa) = 64.63783 65.64608 82.79722
#
# Poissons Ratio (x) = 0.25726 0.29407
# Poissons Ratio (y) = 0.25331 0.31449
# Poissons Ratio (z) = 0.22957 0.24934
#
# Static dielectric constant tensor:
#      x y z
#    x 3.055960 0.000000 0.000000 
#    y 0.000000 3.346510 0.000000 
#    z 0.000000 0.000000 3.562240 
# 
# 
# High freq. dielectric constant tensor:
#      x y z
#    x 1.677720 0.000000 0.000000 
#    y 0.000000 1.679340 0.000000 
#    z 0.000000 0.000000 1.706230 
# 
# From -- ./inp_files/68223.got.cif
#   From: 2010.03.12/outbox.cif.g09.slc.cpg/sg65_35_cif.got.tgz:68223.got - 2010.04.10 20:52:16.
