data_PCOD8270235
_publ_section_title
;
Structure prediction by ZEFSAII (Michael W. Deem and Ramdas Pophale) SiO2 
 PCOD8270235
Probable space group: C M M M
;
_chemical_formula_sum "Si O2"
_cell_formula_units_Z 88
_cell_length_a 18.963751
_cell_length_b 27.360558
_cell_length_c 9.216935
_cell_angle_alpha 90.000000
_cell_angle_beta 90.000000
_cell_angle_gamma 90.000000
_cell_volume 4782.287918
_symmetry_space_group_name_H-M "C M M M"
_symmetry_group_IT_number 65
_symmetry_cell_setting 'orthorhombic'
loop_
_space_group_symop_operation_xyz
x,y,z
-x,-y,z
x,-y,-z
-x,y,-z
-x,-y,-z
x,y,-z
-x,y,z
x,-y,z
1/2+x,1/2+y,z
1/2-x,1/2-y,z
1/2+x,1/2-y,-z
1/2-x,1/2+y,-z
1/2-x,1/2-y,-z
1/2+x,1/2+y,-z
1/2-x,1/2+y,z
1/2+x,1/2-y,z
loop_
_atom_site_type_symbol
_atom_site_label
_atom_site_fract_x
_atom_site_fract_y
_atom_site_fract_z
Si Si1 0.580759 0.274340 0.829558
Si Si2 0.636091 0.082362 0.837040
Si Si3 0.322549 0.657666 0.670575
Si Si4 0.812020 0.690378 0.163028
Si Si5 0.731468 0.553606 0.665943
Si Si6 0.000000 0.557274 0.339574
O O1 0.500000 0.262615 0.785507
O O2 0.606164 0.322892 0.744981
O O3 0.631461 0.229966 0.780519
O O4 0.586422 0.284242 0.000000
O O5 0.648133 0.139658 0.836271
O O6 0.700193 0.053145 0.766263
O O7 0.567283 0.074535 0.745724
O O8 0.625929 0.062495 0.000000
O O9 0.325368 0.667033 0.500000
O O10 0.256180 0.688088 0.733947
O O11 0.318456 0.599453 0.707665
O O12 0.785962 0.703125 0.000000
O O13 0.756438 0.560342 0.500000
O O14 0.694083 0.500000 0.685983
O O15 0.000000 0.500000 0.353154
O O16 0.000000 0.580974 0.500000
#
# Coordination Sequence:
#
# PCOD8270235 Si02
#       6
#    16  16  16  16  16   8
#     4  10  21  36  55  76 103 140 177 209 252 312
#     4  10  20  32  50  74  99 127 169 221 258 293
#     4  10  20  34  54  80 108 134 169 215 258 302
#     4   9  19  35  55  76 102 137 174 210 252 306
#     4   9  18  34  54  74 100 134 168 204 254 314
#     4  11  23  35  45  61  95 141 177 209 258 313
#
# _framework density 18.401235
#
# number of rings (size 3 to 8) (size 9 to 14) (size 15 to 20)
#    0.000    2.273    0.000    2.455    1.273    8.000 
#    0.000    0.000    0.000    0.545    0.000    3.818 
#    0.000    0.000    0.000    0.000    0.000    0.000 
#
# Total GULP energy -545486.469286 kJ/mol
# GULP energy per Si atom -12397.419756 kJ/mol
# Density = 1.835935 g / cm^3
# Si number density = 18.401235 Si / 1000 Ang^3
#
#
#
# Elastic Constant Matrix: (Units=GPa)
#
#
# Indices 1 2 3 4 5 6 
#
# 1 75.5553 48.5209 36.0664 0.0000 0.0000 0.0000
# 2 48.5209 104.0392 29.5260 0.0000 0.0000 0.0000
# 3 36.0664 29.5260 81.9347 0.0000 0.0000 0.0000
# 4 0.0000 0.0000 0.0000 25.5209 0.0000 0.0000
# 5 0.0000 0.0000 0.0000 0.0000 45.3683 0.0000
# 6 0.0000 0.0000 0.0000 0.0000 0.0000 15.8185
#
#
#
# Elastic Compliance Matrix: (Units=1/GPa)
#
#
# Indices 1 2 3 4 5 6 
#
# 1 0.021660 -0.008238 -0.006566 0.000000 0.000000 0.000000
# 2 -0.008238 0.013840 -0.001361 0.000000 0.000000 0.000000
# 3 -0.006566 -0.001361 0.015585 0.000000 0.000000 0.000000
# 4 0.000000 0.000000 0.000000 0.039184 0.000000 0.000000
# 5 0.000000 0.000000 0.000000 0.000000 0.022042 0.000000
# 6 0.000000 0.000000 0.000000 0.000000 0.000000 0.063217
#
#
# Mechanical properties :
#
#
# Convention : Reuss Voigt Hill
#
# Bulk Modulus (GPa) = 53.31756 54.41729 53.86743
# Shear Modulus (GPa) = 23.35248 27.16927 25.26088
#
# Velocity S-wave (km/s) = 3.56627 3.84668 3.70913
# Velocity P-wave (km/s) = 6.78200 7.02610 6.90513
#
# Compressibility (1/GPa) = 0.01875555
#
# Stress axis : x y z
#
# Youngs Moduli (GPa) = 46.16806 72.25366 64.16259
#
# Poissons Ratio (x) = 0.59525 0.42127
# Poissons Ratio (y) = 0.38035 0.08733
# Poissons Ratio (z) = 0.30312 0.09834
#
# Static dielectric constant tensor:
#      x y z
#    x 100.973440 0.000000 0.000000 
#    y 0.000000 3.718940 0.000000 
#    z 0.000000 0.000000 3.627280 
# 
# 
# High freq. dielectric constant tensor:
#      x y z
#    x 1.686670 0.000000 0.000000 
#    y 0.000000 1.724150 0.000000 
#    z 0.000000 0.000000 1.719970 
# 
# From -- ./inp_files/10006.got.cif
#   From: 2010.03.12/outbox.cif.g09.slc.cpg/sg65_6_cif.got.tgz:10006.got - 2010.04.10 20:52:16.
