data_PCOD8270299
_publ_section_title
;
Structure prediction by ZEFSAII (Michael W. Deem and Ramdas Pophale) SiO2 
 PCOD8270299
Probable space group: C M M M
;
_chemical_formula_sum "Si O2"
_cell_formula_units_Z 104
_cell_length_a 8.949595
_cell_length_b 28.484029
_cell_length_c 26.017049
_cell_angle_alpha 90.000000
_cell_angle_beta 90.000000
_cell_angle_gamma 90.000000
_cell_volume 6632.279751
_symmetry_space_group_name_H-M "C M M M"
_symmetry_group_IT_number 65
_symmetry_cell_setting 'orthorhombic'
loop_
_space_group_symop_operation_xyz
x,y,z
-x,-y,z
x,-y,-z
-x,y,-z
-x,-y,-z
x,y,-z
-x,y,z
x,-y,z
1/2+x,1/2+y,z
1/2-x,1/2-y,z
1/2+x,1/2-y,-z
1/2-x,1/2+y,-z
1/2-x,1/2-y,-z
1/2+x,1/2+y,-z
1/2-x,1/2+y,z
1/2+x,1/2-y,z
loop_
_atom_site_type_symbol
_atom_site_label
_atom_site_fract_x
_atom_site_fract_y
_atom_site_fract_z
Si Si1 0.833638 0.055710 0.155246
Si Si2 0.667996 0.055826 0.056449
Si Si3 0.828300 0.298746 0.500000
Si Si4 0.326366 0.945015 0.258187
Si Si5 0.822344 0.111963 0.347856
Si Si6 0.822506 0.052750 0.556527
Si Si7 0.323629 0.800892 0.388206
O O1 0.770847 0.076954 0.101707
O O2 0.726144 0.071025 0.201696
O O3 0.000000 0.075818 0.164347
O O4 0.838458 0.000000 0.151458
O O5 0.500000 0.074723 0.064233
O O6 0.667026 0.000000 0.059858
O O7 0.728387 0.071456 0.000000
O O8 0.750000 0.250000 0.500000
O O9 0.787550 0.323207 0.445465
O O10 0.000000 0.286199 0.500000
O O11 0.500000 0.932859 0.264557
O O12 0.228736 0.916251 0.298255
O O13 0.295178 0.000000 0.267002
O O14 0.759125 0.085259 0.398297
O O15 0.749934 0.163745 0.347301
O O16 0.000000 0.116250 0.347838
O O17 0.770000 0.071154 0.500000
O O18 0.000000 0.052210 0.558858
O O19 0.761439 0.000000 0.565045
O O20 0.500000 0.796690 0.378171
O O21 0.250000 0.750000 0.381199
#
# Coordination Sequence:
#
# PCOD8270299 Si02
#       7
#    16  16   8  16  16  16  16
#     4   9  16  25  38  56  78 105 140 183 225 260
#     4   8  13  21  33  50  74 105 140 176 215 259
#     4   8  16  30  48  66  85 108 131 160 198 245
#     4  10  20  33  47  62  84 115 150 187 225 264
#     4  11  21  31  48  70  89 113 143 178 218 264
#     4   8  15  28  44  63  87 112 138 170 209 254
#     4  10  20  35  51  69  91 114 139 171 211 259
#
# _framework density 15.680882
#
# number of rings (size 3 to 8) (size 9 to 14) (size 15 to 20)
#    0.000    2.769    0.000    3.231    1.077    4.308 
#    0.000    1.538    0.000    0.000    0.000    3.231 
#    0.000    0.000    0.000    0.000    0.000    0.769 
#
# Total GULP energy -644363.428975 kJ/mol
# GULP energy per Si atom -12391.604403 kJ/mol
# Density = 1.564519 g / cm^3
# Si number density = 15.680882 Si / 1000 Ang^3
#
#
#
# Elastic Constant Matrix: (Units=GPa)
#
#
# Indices 1 2 3 4 5 6 
#
# 1 70.9298 26.2780 38.1472 0.0000 0.0000 0.0000
# 2 26.2780 45.9074 36.4496 0.0000 0.0000 0.0000
# 3 38.1472 36.4496 104.9115 0.0000 0.0000 0.0000
# 4 0.0000 0.0000 0.0000 4.2138 0.0000 0.0000
# 5 0.0000 0.0000 0.0000 0.0000 27.7351 0.0000
# 6 0.0000 0.0000 0.0000 0.0000 0.0000 16.6670
#
#
#
# Elastic Compliance Matrix: (Units=1/GPa)
#
#
# Indices 1 2 3 4 5 6 
#
# 1 0.019247 -0.007541 -0.004379 0.000000 0.000000 0.000000
# 2 -0.007541 0.033035 -0.008736 0.000000 0.000000 0.000000
# 3 -0.004379 -0.008736 0.014159 0.000000 0.000000 0.000000
# 4 0.000000 0.000000 0.000000 0.237315 0.000000 0.000000
# 5 0.000000 0.000000 0.000000 0.000000 0.036055 0.000000
# 6 0.000000 0.000000 0.000000 0.000000 0.000000 0.059999
#
#
# Mechanical properties :
#
#
# Convention : Reuss Voigt Hill
#
# Bulk Modulus (GPa) = 39.79079 47.05536 43.42307
# Shear Modulus (GPa) = 11.12354 17.78146 14.45250
#
# Velocity S-wave (km/s) = 2.66629 3.37108 3.03919
# Velocity P-wave (km/s) = 5.90840 6.72499 6.32988
#
# Compressibility (1/GPa) = 0.02513145
#
# Stress axis : x y z
#
# Youngs Moduli (GPa) = 51.95623 30.27071 70.62665
#
# Poissons Ratio (x) = 0.22826 0.30924
# Poissons Ratio (y) = 0.39179 0.61697
# Poissons Ratio (z) = 0.22749 0.26443
#
# Static dielectric constant tensor:
#      x y z
#    x 2.942290 0.000000 0.000000 
#    y 0.000000 2.568310 0.000000 
#    z 0.000000 0.000000 2.718280 
# 
# 
# High freq. dielectric constant tensor:
#      x y z
#    x 1.604370 0.000000 0.000000 
#    y 0.000000 1.543710 0.000000 
#    z 0.000000 0.000000 1.601450 
# 
# From -- ./inp_files/73754.got.cif
#   From: 2010.03.12/outbox.cif.g09.slc.cpg/sg65_37_cif.got.tgz:73754.got - 2010.04.10 20:52:16.
