data_PCOD8270042
_publ_section_title
;
Structure prediction by ZEFSAII (Michael W. Deem and Ramdas Pophale) SiO2 
 PCOD8270042
Probable space group: C M M M
;
_chemical_formula_sum "Si O2"
_cell_formula_units_Z 80
_cell_length_a 17.460631
_cell_length_b 20.656947
_cell_length_c 13.914598
_cell_angle_alpha 90.000000
_cell_angle_beta 90.000000
_cell_angle_gamma 90.000000
_cell_volume 5018.763530
_symmetry_space_group_name_H-M "C M M M"
_symmetry_group_IT_number 65
_symmetry_cell_setting 'orthorhombic'
loop_
_space_group_symop_operation_xyz
x,y,z
-x,-y,z
x,-y,-z
-x,y,-z
-x,-y,-z
x,y,-z
-x,y,z
x,-y,z
1/2+x,1/2+y,z
1/2-x,1/2-y,z
1/2+x,1/2-y,-z
1/2-x,1/2+y,-z
1/2-x,1/2-y,-z
1/2+x,1/2+y,-z
1/2-x,1/2+y,z
1/2+x,1/2-y,z
loop_
_atom_site_type_symbol
_atom_site_label
_atom_site_fract_x
_atom_site_fract_y
_atom_site_fract_z
Si Si1 0.090179 0.000000 0.393537
Si Si2 0.911683 0.924304 0.890867
Si Si3 0.585385 0.000000 0.613547
Si Si4 0.818621 0.376110 0.387659
Si Si5 0.343298 0.375624 0.292034
Si Si6 0.088309 0.753134 0.609467
O O1 0.116210 0.935948 0.340938
O O2 0.126270 0.000000 0.500000
O O3 0.000000 0.000000 0.398114
O O4 0.854976 0.883416 0.822463
O O5 0.000000 0.908983 0.865208
O O6 0.895763 0.000000 0.876107
O O7 0.893729 0.903678 0.000000
O O8 0.630714 0.063510 0.647278
O O9 0.500000 0.000000 0.659142
O O10 0.577676 0.000000 0.500000
O O11 0.795241 0.382203 0.500000
O O12 0.745098 0.373943 0.319982
O O13 0.865630 0.311548 0.367821
O O14 0.383609 0.309531 0.321901
O O15 0.102228 0.775572 0.500000
O O16 0.000000 0.737709 0.628834
#
# Coordination Sequence:
#
# PCOD8270042 Si02
#       6
#     8  16   8  16  16  16
#     4  11  21  29  40  65 100 132 157 181 220 282
#     4   9  18  33  51  70  94 126 164 202 241 290
#     4   9  17  31  49  66  90 129 172 207 235 268
#     4  10  20  32  47  70 100 131 164 203 242 283
#     4  12  20  30  48  71  99 127 158 200 248 288
#     4  10  20  33  48  67  96 137 175 199 230 286
#
# _framework density 15.940181000000001
#
# number of rings (size 3 to 8) (size 9 to 14) (size 15 to 20)
#    0.000    1.800    1.000    6.000    0.000    6.400 
#    0.000    0.000    0.000    2.400    0.000    0.000 
#    0.000    3.200    0.000    0.000    0.000    0.200 
#
# Total GULP energy -496054.231550 kJ/mol
# GULP energy per Si atom -12401.355789 kJ/mol
# Density = 1.590390 g / cm^3
# Si number density = 15.940181 Si / 1000 Ang^3
#
#
#
# Elastic Constant Matrix: (Units=GPa)
#
#
# Indices 1 2 3 4 5 6 
#
# 1 112.0425 46.4679 58.6968 0.0000 0.0000 0.0000
# 2 46.4679 109.4194 51.0218 0.0000 0.0000 0.0000
# 3 58.6968 51.0218 98.2618 0.0000 0.0000 0.0000
# 4 0.0000 0.0000 0.0000 18.9262 0.0000 0.0000
# 5 0.0000 0.0000 0.0000 0.0000 9.6138 0.0000
# 6 0.0000 0.0000 0.0000 0.0000 0.0000 26.1687
#
#
#
# Elastic Compliance Matrix: (Units=1/GPa)
#
#
# Indices 1 2 3 4 5 6 
#
# 1 0.013532 -0.002609 -0.006729 0.000000 0.000000 0.000000
# 2 -0.002609 0.012562 -0.004964 0.000000 0.000000 0.000000
# 3 -0.006729 -0.004964 0.016774 0.000000 0.000000 0.000000
# 4 0.000000 0.000000 0.000000 0.052837 0.000000 0.000000
# 5 0.000000 0.000000 0.000000 0.000000 0.104017 0.000000
# 6 0.000000 0.000000 0.000000 0.000000 0.000000 0.038214
#
#
# Mechanical properties :
#
#
# Convention : Reuss Voigt Hill
#
# Bulk Modulus (GPa) = 70.10630 70.23298 70.16964
# Shear Modulus (GPa) = 18.43017 21.84422 20.13720
#
# Velocity S-wave (km/s) = 3.40400 3.70589 3.55815
# Velocity P-wave (km/s) = 7.71530 7.90364 7.81004
#
# Compressibility (1/GPa) = 0.01426405
#
# Stress axis : x y z
#
# Youngs Moduli (GPa) = 73.89679 79.60527 59.61662
#
# Poissons Ratio (x) = 0.20772 0.40114
# Poissons Ratio (y) = 0.19282 0.29594
# Poissons Ratio (z) = 0.49723 0.39516
#
# Static dielectric constant tensor:
#      x y z
#    x 3.118600 0.000000 0.000000 
#    y 0.000000 3.275020 0.000000 
#    z 0.000000 0.000000 2.933650 
# 
# 
# High freq. dielectric constant tensor:
#      x y z
#    x 1.617090 0.000000 0.000000 
#    y 0.000000 1.618920 0.000000 
#    z 0.000000 0.000000 1.577880 
# 
# From -- ./inp_files/42372.got.cif
#   From: 2010.03.12/outbox.cif.g09.slc.cpg/sg65_22_cif.got.tgz:42372.got - 2010.04.10 20:52:16.
