data_PCOD8270259
_publ_section_title
;
Structure prediction by ZEFSAII (Michael W. Deem and Ramdas Pophale) SiO2 
 PCOD8270259
Probable space group: C M M M
;
_chemical_formula_sum "Si O2"
_cell_formula_units_Z 80
_cell_length_a 18.061014
_cell_length_b 7.770273
_cell_length_c 29.643624
_cell_angle_alpha 90.000000
_cell_angle_beta 90.000000
_cell_angle_gamma 90.000000
_cell_volume 4160.156828
_symmetry_space_group_name_H-M "C M M M"
_symmetry_group_IT_number 65
_symmetry_cell_setting 'orthorhombic'
loop_
_space_group_symop_operation_xyz
x,y,z
-x,-y,z
x,-y,-z
-x,y,-z
-x,-y,-z
x,y,-z
-x,y,z
x,-y,z
1/2+x,1/2+y,z
1/2-x,1/2-y,z
1/2+x,1/2-y,-z
1/2-x,1/2+y,-z
1/2-x,1/2-y,-z
1/2+x,1/2+y,-z
1/2-x,1/2+y,z
1/2+x,1/2-y,z
loop_
_atom_site_type_symbol
_atom_site_label
_atom_site_fract_x
_atom_site_fract_y
_atom_site_fract_z
Si Si1 0.587255 0.802326 0.821644
Si Si2 0.335015 0.798459 0.087888
Si Si3 0.587894 0.810750 0.404216
Si Si4 0.916095 0.705658 0.000000
Si Si5 0.411967 0.305230 0.500000
Si Si6 0.587652 0.500000 0.756948
Si Si7 0.911431 0.000000 0.344059
O O1 0.500000 0.789253 0.829849
O O2 0.626762 0.731128 0.866566
O O3 0.614001 0.674879 0.781857
O O4 0.609730 0.000000 0.809759
O O5 0.250000 0.750000 0.087581
O O6 0.374984 0.717767 0.044084
O O7 0.345985 0.000000 0.086082
O O8 0.500000 0.792285 0.405867
O O9 0.619452 0.784689 0.454861
O O10 0.619579 0.668471 0.369845
O O11 0.611692 0.000000 0.386983
O O12 0.913560 0.500000 0.000000
O O13 0.000000 0.773030 0.000000
O O14 0.384225 0.500000 0.500000
O O15 0.500000 0.294901 0.500000
O O16 0.500000 0.500000 0.754368
O O17 0.621087 0.500000 0.706568
O O18 0.000000 0.000000 0.343384
#
# Coordination Sequence:
#
# PCOD8270259 Si02
#       7
#    16  16  16   8   8   8   8
#     4   9  18  33  51  70  92 123 162 198 240 295
#     4  10  20  32  51  76 101 130 161 200 245 287
#     4   9  15  21  30  44  66  97 134 179 230 281
#     4   9  17  32  53  75 102 137 170 196 233 291
#     4   9  13  19  29  40  61  95 134 179 227 275
#     4   9  18  30  47  65  85 115 150 198 249 289
#     4   9  16  25  34  51  73  96 133 182 239 285
#
# _framework density 19.230045
#
# number of rings (size 3 to 8) (size 9 to 14) (size 15 to 20)
#    0.000    2.800    1.000    1.200    1.400    4.400 
#    0.000    4.000    0.000    0.600    0.000    0.000 
#    0.000    0.000    0.000    0.000    0.000    0.000 
#
# Total GULP energy -495811.328283 kJ/mol
# GULP energy per Si atom -12395.283207 kJ/mol
# Density = 1.918628 g / cm^3
# Si number density = 19.230045 Si / 1000 Ang^3
#
#
#
# Elastic Constant Matrix: (Units=GPa)
#
#
# Indices 1 2 3 4 5 6 
#
# 1 46.2014 16.1386 35.9939 0.0000 0.0000 0.0000
# 2 16.1386 118.2131 84.0334 0.0000 0.0000 0.0000
# 3 35.9939 84.0334 197.1607 0.0000 0.0000 0.0000
# 4 0.0000 0.0000 0.0000 16.9621 0.0000 0.0000
# 5 0.0000 0.0000 0.0000 0.0000 3.1061 0.0000
# 6 0.0000 0.0000 0.0000 0.0000 0.0000 13.5509
#
#
#
# Elastic Compliance Matrix: (Units=1/GPa)
#
#
# Indices 1 2 3 4 5 6 
#
# 1 0.025238 -0.000244 -0.004503 0.000000 0.000000 0.000000
# 2 -0.000244 0.012139 -0.005129 0.000000 0.000000 0.000000
# 3 -0.004503 -0.005129 0.008080 0.000000 0.000000 0.000000
# 4 0.000000 0.000000 0.000000 0.058955 0.000000 0.000000
# 5 0.000000 0.000000 0.000000 0.000000 0.321943 0.000000
# 6 0.000000 0.000000 0.000000 0.000000 0.000000 0.073796
#
#
# Mechanical properties :
#
#
# Convention : Reuss Voigt Hill
#
# Bulk Modulus (GPa) = 38.90506 70.43411 54.66958
# Shear Modulus (GPa) = 9.46124 21.75112 15.60618
#
# Velocity S-wave (km/s) = 2.22052 3.36683 2.85187
# Velocity P-wave (km/s) = 5.18166 7.19866 6.27177
#
# Compressibility (1/GPa) = 0.02570360
#
# Stress axis : x y z
#
# Youngs Moduli (GPa) = 39.62254 82.38056 123.75770
#
# Poissons Ratio (x) = 0.02012 0.55733
# Poissons Ratio (y) = 0.00968 0.63478
# Poissons Ratio (z) = 0.17844 0.42254
#
# Static dielectric constant tensor:
#      x y z
#    x 2.863290 0.000000 0.000000 
#    y 0.000000 3.605380 0.000000 
#    z 0.000000 0.000000 3.852000 
# 
# 
# High freq. dielectric constant tensor:
#      x y z
#    x 1.680340 0.000000 0.000000 
#    y 0.000000 1.751460 0.000000 
#    z 0.000000 0.000000 1.754570 
# 
# From -- ./inp_files/75133.got.cif
#   From: 2010.03.12/outbox.cif.g09.slc.cpg/sg65_38_cif.got.tgz:75133.got - 2010.04.10 20:52:16.
