data_PCOD8270153
_publ_section_title
;
Structure prediction by ZEFSAII (Michael W. Deem and Ramdas Pophale) SiO2 
 PCOD8270153
Probable space group: C M M M
;
_chemical_formula_sum "Si O2"
_cell_formula_units_Z 96
_cell_length_a 30.647815
_cell_length_b 19.279941
_cell_length_c 9.132772
_cell_angle_alpha 90.000000
_cell_angle_beta 90.000000
_cell_angle_gamma 90.000000
_cell_volume 5396.445975
_symmetry_space_group_name_H-M "C M M M"
_symmetry_group_IT_number 65
_symmetry_cell_setting 'orthorhombic'
loop_
_space_group_symop_operation_xyz
x,y,z
-x,-y,z
x,-y,-z
-x,y,-z
-x,-y,-z
x,y,-z
-x,y,z
x,-y,z
1/2+x,1/2+y,z
1/2-x,1/2-y,z
1/2+x,1/2-y,-z
1/2-x,1/2+y,-z
1/2-x,1/2-y,-z
1/2+x,1/2+y,-z
1/2-x,1/2+y,z
1/2+x,1/2-y,z
loop_
_atom_site_type_symbol
_atom_site_label
_atom_site_fract_x
_atom_site_fract_y
_atom_site_fract_z
Si Si1 0.050476 0.181450 0.670382
Si Si2 0.387187 0.417441 0.167734
Si Si3 0.949196 0.320906 0.170512
Si Si4 0.884916 0.418059 0.331931
Si Si5 0.207251 0.924194 0.173361
Si Si6 0.199490 0.417108 0.164479
O O1 0.059282 0.193172 0.500000
O O2 0.077238 0.115578 0.726336
O O3 0.066462 0.249722 0.755217
O O4 0.000000 0.166037 0.703220
O O5 0.388366 0.500000 0.187463
O O6 0.338858 0.387487 0.213968
O O7 0.397850 0.397448 0.000000
O O8 0.924061 0.385049 0.241044
O O9 0.000000 0.333966 0.200347
O O10 0.938269 0.316590 0.000000
O O11 0.888735 0.395698 0.500000
O O12 0.888774 0.500000 0.311063
O O13 0.838461 0.390481 0.271535
O O14 0.253041 0.886598 0.218930
O O15 0.206496 0.000000 0.247746
O O16 0.208520 0.933428 0.000000
O O17 0.202710 0.500000 0.166341
O O18 0.188700 0.391210 0.000000
#
# Coordination Sequence:
#
# PCOD8270153 Si02
#       6
#    16  16  16  16  16  16
#     4  10  21  36  52  70  96 130 164 199 245 300
#     4   9  17  30  50  76 103 130 164 205 244 283
#     4  10  21  37  56  74  92 121 164 207 244 288
#     4  10  20  32  48  74 106 134 159 192 238 288
#     4   7  11  22  42  68  96 126 160 198 238 278
#     4   8  13  24  44  68  95 128 164 198 232 275
#
# _framework density 17.789487000000001
#
# number of rings (size 3 to 8) (size 9 to 14) (size 15 to 20)
#    0.000    3.000    0.000    3.500    0.000    4.000 
#    0.000    4.167    0.000    4.000    0.000    7.000 
#    0.000    0.000    0.000    0.000    0.000    0.000 
#
# Total GULP energy -594783.761187 kJ/mol
# GULP energy per Si atom -12391.328358 kJ/mol
# Density = 1.774900 g / cm^3
# Si number density = 17.789487 Si / 1000 Ang^3
#
#
#
# Elastic Constant Matrix: (Units=GPa)
#
#
# Indices 1 2 3 4 5 6 
#
# 1 113.8102 42.0243 63.1638 0.0000 0.0000 0.0000
# 2 42.0243 38.9232 34.8509 0.0000 0.0000 0.0000
# 3 63.1638 34.8509 96.9074 0.0000 0.0000 0.0000
# 4 0.0000 0.0000 0.0000 26.0226 0.0000 0.0000
# 5 0.0000 0.0000 0.0000 0.0000 22.1045 0.0000
# 6 0.0000 0.0000 0.0000 0.0000 0.0000 4.3408
#
#
#
# Elastic Compliance Matrix: (Units=1/GPa)
#
#
# Indices 1 2 3 4 5 6 
#
# 1 0.017090 -0.012505 -0.006642 0.000000 0.000000 0.000000
# 2 -0.012505 0.047043 -0.008768 0.000000 0.000000 0.000000
# 3 -0.006642 -0.008768 0.017802 0.000000 0.000000 0.000000
# 4 0.000000 0.000000 0.000000 0.038428 0.000000 0.000000
# 5 0.000000 0.000000 0.000000 0.000000 0.045240 0.000000
# 6 0.000000 0.000000 0.000000 0.000000 0.000000 0.230370
#
#
# Mechanical properties :
#
#
# Convention : Reuss Voigt Hill
#
# Bulk Modulus (GPa) = 38.30577 58.85764 48.58170
# Shear Modulus (GPa) = 10.85767 17.80038 14.32902
#
# Velocity S-wave (km/s) = 2.47319 3.16668 2.84117
# Velocity P-wave (km/s) = 5.45299 6.82114 6.17507
#
# Compressibility (1/GPa) = 0.02610572
#
# Stress axis : x y z
#
# Youngs Moduli (GPa) = 58.51275 21.25723 56.17438
#
# Poissons Ratio (x) = 0.26581 0.37313
# Poissons Ratio (y) = 0.73167 0.49252
# Poissons Ratio (z) = 0.38866 0.18638
#
# Static dielectric constant tensor:
#      x y z
#    x 3.706150 0.000000 0.000000 
#    y 0.000000 2.865990 0.000000 
#    z 0.000000 0.000000 3.201830 
# 
# 
# High freq. dielectric constant tensor:
#      x y z
#    x 1.707370 0.000000 0.000000 
#    y 0.000000 1.641390 0.000000 
#    z 0.000000 0.000000 1.675670 
# 
# From -- ./inp_files/16307.got.cif
#   From: 2010.03.12/outbox.cif.g09.slc.cpg/sg65_9_cif.got.tgz:16307.got - 2010.04.10 20:52:16.
