data_PCOD8270403
_publ_section_title
;
Structure prediction by ZEFSAII (Michael W. Deem and Ramdas Pophale) SiO2 
 PCOD8270403
Probable space group: C M M M
;
_chemical_formula_sum "Si O2"
_cell_formula_units_Z 80
_cell_length_a 18.074757
_cell_length_b 8.964109
_cell_length_c 25.986736
_cell_angle_alpha 90.000000
_cell_angle_beta 90.000000
_cell_angle_gamma 90.000000
_cell_volume 4210.477302
_symmetry_space_group_name_H-M "C M M M"
_symmetry_group_IT_number 65
_symmetry_cell_setting 'orthorhombic'
loop_
_space_group_symop_operation_xyz
x,y,z
-x,-y,z
x,-y,-z
-x,y,-z
-x,-y,-z
x,y,-z
-x,y,z
x,-y,z
1/2+x,1/2+y,z
1/2-x,1/2-y,z
1/2+x,1/2-y,-z
1/2-x,1/2+y,-z
1/2-x,1/2-y,-z
1/2+x,1/2+y,-z
1/2-x,1/2+y,z
1/2+x,1/2-y,z
loop_
_atom_site_type_symbol
_atom_site_label
_atom_site_fract_x
_atom_site_fract_y
_atom_site_fract_z
Si Si1 0.416811 0.821057 0.610378
Si Si2 0.829559 0.823560 0.900120
Si Si3 0.916935 0.177194 0.000000
Si Si4 0.827244 0.325860 0.292834
Si Si5 0.412128 0.163530 0.500000
Si Si6 0.913790 0.671879 0.190586
O O1 0.500000 0.764923 0.622426
O O2 0.362362 0.760256 0.654567
O O3 0.389484 0.757034 0.554192
O O4 0.416751 0.000000 0.608908
O O5 0.750000 0.750000 0.900188
O O6 0.874404 0.764455 0.949646
O O7 0.873625 0.778618 0.849442
O O8 0.819783 0.000000 0.901233
O O9 0.000000 0.243712 0.000000
O O10 0.920398 0.000000 0.000000
O O11 0.812839 0.500000 0.298540
O O12 0.750000 0.250000 0.280379
O O13 0.883824 0.290907 0.247077
O O14 0.500000 0.147021 0.500000
O O15 0.375354 0.000000 0.500000
O O16 0.898245 0.500000 0.175999
O O17 0.000000 0.709069 0.189977
#
# Coordination Sequence:
#
# PCOD8270403 Si02
#       6
#    16  16   8  16   8  16
#     4   8  13  24  44  68  92 121 160 204 247 290
#     4  11  22  37  58  82 110 142 174 210 254 303
#     4   9  19  36  57  81 108 139 176 215 254 298
#     4  10  20  33  49  70  99 133 165 201 248 300
#     4   7  10  18  37  66  93 115 150 203 250 286
#     4  10  21  37  56  78 103 132 170 215 260 307
#
# _framework density 19.000222000000001
#
# number of rings (size 3 to 8) (size 9 to 14) (size 15 to 20)
#    0.000    2.600    0.000    3.900    0.000    6.000 
#    0.000    2.000    0.000    5.400    0.000    0.000 
#    0.000    2.400    0.000    0.000    0.000    0.000 
#
# Total GULP energy -495820.291407 kJ/mol
# GULP energy per Si atom -12395.507285 kJ/mol
# Density = 1.895698 g / cm^3
# Si number density = 19.000222 Si / 1000 Ang^3
#
#
#
# Elastic Constant Matrix: (Units=GPa)
#
#
# Indices 1 2 3 4 5 6 
#
# 1 134.0722 35.2945 66.5432 0.0000 0.0000 0.0000
# 2 35.2945 36.1872 39.1550 0.0000 0.0000 0.0000
# 3 66.5432 39.1550 150.9327 0.0000 0.0000 0.0000
# 4 0.0000 0.0000 0.0000 26.3222 0.0000 0.0000
# 5 0.0000 0.0000 0.0000 0.0000 10.1706 0.0000
# 6 0.0000 0.0000 0.0000 0.0000 0.0000 10.2627
#
#
#
# Elastic Compliance Matrix: (Units=1/GPa)
#
#
# Indices 1 2 3 4 5 6 
#
# 1 0.010841 -0.007510 -0.002831 0.000000 0.000000 0.000000
# 2 -0.007510 0.043620 -0.008005 0.000000 0.000000 0.000000
# 3 -0.002831 -0.008005 0.009950 0.000000 0.000000 0.000000
# 4 0.000000 0.000000 0.000000 0.037991 0.000000 0.000000
# 5 0.000000 0.000000 0.000000 0.000000 0.098323 0.000000
# 6 0.000000 0.000000 0.000000 0.000000 0.000000 0.097440
#
#
# Mechanical properties :
#
#
# Convention : Reuss Voigt Hill
#
# Bulk Modulus (GPa) = 36.07621 67.01971 51.54796
# Shear Modulus (GPa) = 14.53074 21.36437 17.94756
#
# Velocity S-wave (km/s) = 2.76844 3.35689 3.07676
# Velocity P-wave (km/s) = 5.40810 7.09751 6.30960
#
# Compressibility (1/GPa) = 0.02771910
#
# Stress axis : x y z
#
# Youngs Moduli (GPa) = 92.24321 22.92508 100.49846
#
# Poissons Ratio (x) = 0.17217 0.28454
# Poissons Ratio (y) = 0.69274 0.80449
# Poissons Ratio (z) = 0.26117 0.18352
#
# Static dielectric constant tensor:
#      x y z
#    x 3.468220 0.000000 0.000000 
#    y 0.000000 3.030230 0.000000 
#    z 0.000000 0.000000 3.963210 
# 
# 
# High freq. dielectric constant tensor:
#      x y z
#    x 1.735800 0.000000 0.000000 
#    y 0.000000 1.688730 0.000000 
#    z 0.000000 0.000000 1.764020 
# 
# From -- ./inp_files/75118.got.cif
#   From: 2010.03.12/outbox.cif.g09.slc.cpg/sg65_38_cif.got.tgz:75118.got - 2010.04.10 20:52:16.
