data_PCOD8270373
_publ_section_title
;
Structure prediction by ZEFSAII (Michael W. Deem and Ramdas Pophale) SiO2 
 PCOD8270373
Probable space group: C M M M
;
_chemical_formula_sum "Si O2"
_cell_formula_units_Z 80
_cell_length_a 9.128281
_cell_length_b 18.525722
_cell_length_c 25.894436
_cell_angle_alpha 90.000000
_cell_angle_beta 90.000000
_cell_angle_gamma 90.000000
_cell_volume 4378.956183
_symmetry_space_group_name_H-M "C M M M"
_symmetry_group_IT_number 65
_symmetry_cell_setting 'orthorhombic'
loop_
_space_group_symop_operation_xyz
x,y,z
-x,-y,z
x,-y,-z
-x,y,-z
-x,-y,-z
x,y,-z
-x,y,z
x,-y,z
1/2+x,1/2+y,z
1/2-x,1/2-y,z
1/2+x,1/2-y,-z
1/2-x,1/2+y,-z
1/2-x,1/2-y,-z
1/2+x,1/2+y,-z
1/2-x,1/2+y,z
1/2+x,1/2-y,z
loop_
_atom_site_type_symbol
_atom_site_label
_atom_site_fract_x
_atom_site_fract_y
_atom_site_fract_z
Si Si1 0.670505 0.177209 0.559886
Si Si2 0.824542 0.918667 0.165343
Si Si3 0.327400 0.674173 0.260895
Si Si4 0.664133 0.585746 0.054644
Si Si5 0.169283 0.083468 0.360989
O O1 0.701824 0.161828 0.500000
O O2 0.500000 0.186541 0.571589
O O3 0.750000 0.250000 0.578539
O O4 0.733569 0.109845 0.591200
O O5 0.766384 0.865660 0.209763
O O6 0.763020 0.889599 0.109259
O O7 0.000000 0.919409 0.163997
O O8 0.768051 0.000000 0.176722
O O9 0.500000 0.686351 0.257236
O O10 0.250000 0.750000 0.267186
O O11 0.284717 0.625465 0.309573
O O12 0.500000 0.616838 0.052447
O O13 0.658031 0.500000 0.057079
O O14 0.743554 0.609722 0.000000
O O15 0.000000 0.096637 0.374797
O O16 0.202751 0.000000 0.351160
#
# Coordination Sequence:
#
# PCOD8270373 Si02
#       5
#    16  16  16  16  16
#     4  10  21  37  57  80 106 136 168 200 236 282
#     4   8  13  23  41  63  87 117 153 193 235 278
#     4  10  20  33  49  69  94 125 160 196 237 287
#     4   7   9  14  28  54  85 112 141 183 233 277
#     4  10  21  36  54  76 101 129 163 204 248 293
#
# _framework density 18.269195
#
# number of rings (size 3 to 8) (size 9 to 14) (size 15 to 20)
#    0.000    3.000    0.000    3.600    0.000    6.800 
#    0.000    2.000    0.000    2.400    0.000    0.000 
#    0.000    0.000    0.000    5.000    0.000    4.000 
#
# Total GULP energy -495608.641859 kJ/mol
# GULP energy per Si atom -12390.216046 kJ/mol
# Density = 1.822761 g / cm^3
# Si number density = 18.269195 Si / 1000 Ang^3
#
#
#
# Elastic Constant Matrix: (Units=GPa)
#
#
# Indices 1 2 3 4 5 6 
#
# 1 38.6290 37.4946 47.3202 0.0000 0.0000 0.0000
# 2 37.4946 112.1863 75.4276 0.0000 0.0000 0.0000
# 3 47.3202 75.4276 147.8230 0.0000 0.0000 0.0000
# 4 0.0000 0.0000 0.0000 16.0819 0.0000 0.0000
# 5 0.0000 0.0000 0.0000 0.0000 6.6362 0.0000
# 6 0.0000 0.0000 0.0000 0.0000 0.0000 23.0585
#
#
#
# Elastic Compliance Matrix: (Units=1/GPa)
#
#
# Indices 1 2 3 4 5 6 
#
# 1 0.047476 -0.008599 -0.010810 0.000000 0.000000 0.000000
# 2 -0.008599 0.015126 -0.004966 0.000000 0.000000 0.000000
# 3 -0.010810 -0.004966 0.012759 0.000000 0.000000 0.000000
# 4 0.000000 0.000000 0.000000 0.062182 0.000000 0.000000
# 5 0.000000 0.000000 0.000000 0.000000 0.150688 0.000000
# 6 0.000000 0.000000 0.000000 0.000000 0.000000 0.043368
#
#
# Mechanical properties :
#
#
# Convention : Reuss Voigt Hill
#
# Bulk Modulus (GPa) = 37.57730 68.79147 53.18439
# Shear Modulus (GPa) = 12.84623 18.38172 15.61398
#
# Velocity S-wave (km/s) = 2.65460 3.17544 2.92663
# Velocity P-wave (km/s) = 5.47806 7.15407 6.37142
#
# Compressibility (1/GPa) = 0.02661181
#
# Stress axis : x y z
#
# Youngs Moduli (GPa) = 21.06320 66.10979 78.37649
#
# Poissons Ratio (x) = 0.56851 0.84724
# Poissons Ratio (y) = 0.18113 0.38918
# Poissons Ratio (z) = 0.22769 0.32827
#
# Static dielectric constant tensor:
#      x y z
#    x 2.917970 0.000000 0.000000 
#    y 0.000000 3.144650 0.000000 
#    z 0.000000 0.000000 3.948680 
# 
# 
# High freq. dielectric constant tensor:
#      x y z
#    x 1.655590 0.000000 0.000000 
#    y 0.000000 1.683720 0.000000 
#    z 0.000000 0.000000 1.737370 
# 
# From -- ./inp_files/72760.got.cif
#   From: 2010.03.12/outbox.cif.g09.slc.cpg/sg65_37_cif.got.tgz:72760.got - 2010.04.10 20:52:16.
