data_PCOD8270819
_publ_section_title
;
Structure prediction by ZEFSAII (Michael W. Deem and Ramdas Pophale) SiO2 
 PCOD8270819
Probable space group: C M M M
;
_chemical_formula_sum "Si O2"
_cell_formula_units_Z 80
_cell_length_a 9.062648
_cell_length_b 18.154470
_cell_length_c 25.403562
_cell_angle_alpha 90.000000
_cell_angle_beta 90.000000
_cell_angle_gamma 90.000000
_cell_volume 4179.586357
_symmetry_space_group_name_H-M "C M M M"
_symmetry_group_IT_number 65
_symmetry_cell_setting 'orthorhombic'
loop_
_space_group_symop_operation_xyz
x,y,z
-x,-y,z
x,-y,-z
-x,y,-z
-x,-y,-z
x,y,-z
-x,y,z
x,-y,z
1/2+x,1/2+y,z
1/2-x,1/2-y,z
1/2+x,1/2-y,-z
1/2-x,1/2+y,-z
1/2-x,1/2-y,-z
1/2+x,1/2+y,-z
1/2-x,1/2+y,z
1/2+x,1/2-y,z
loop_
_atom_site_type_symbol
_atom_site_label
_atom_site_fract_x
_atom_site_fract_y
_atom_site_fract_z
Si Si1 0.827872 0.675046 0.060683
Si Si2 0.167907 0.587463 0.340538
Si Si3 0.670818 0.584596 0.144820
Si Si4 0.334336 0.412489 0.557936
Si Si5 0.325718 0.328495 0.248845
O O1 0.750000 0.750000 0.079216
O O2 0.766069 0.607509 0.094352
O O3 0.000000 0.684533 0.071129
O O4 0.792624 0.657710 0.000000
O O5 0.181557 0.500000 0.337001
O O6 0.223953 0.617185 0.397247
O O7 0.270632 0.621114 0.296088
O O8 0.000000 0.613813 0.332961
O O9 0.500000 0.596934 0.131211
O O10 0.704774 0.500000 0.158042
O O11 0.720252 0.632642 0.194591
O O12 0.282463 0.384529 0.500000
O O13 0.500000 0.383953 0.569688
O O14 0.333831 0.500000 0.558359
O O15 0.500000 0.319166 0.253613
O O16 0.250000 0.250000 0.251404
#
# Coordination Sequence:
#
# PCOD8270819 Si02
#       5
#    16  16  16  16  16
#     4  10  21  37  58  84 114 149 187 225 267 317
#     4  10  20  33  52  80 111 142 179 223 269 317
#     4  10  22  39  59  84 112 143 180 223 272 323
#     4   8  14  26  46  73 105 141 179 218 263 315
#     4  11  23  39  58  79 106 140 180 224 271 326
#
# _framework density 19.140650999999998
#
# number of rings (size 3 to 8) (size 9 to 14) (size 15 to 20)
#    0.000    2.200    0.000    3.600    0.000    7.600 
#    0.000    4.000    0.000    0.600    0.000    0.000 
#    0.000    0.000    0.000    0.000    0.000    0.000 
#
# Total GULP energy -496071.904817 kJ/mol
# GULP energy per Si atom -12401.797620 kJ/mol
# Density = 1.909709 g / cm^3
# Si number density = 19.140651 Si / 1000 Ang^3
#
#
#
# Elastic Constant Matrix: (Units=GPa)
#
#
# Indices 1 2 3 4 5 6 
#
# 1 90.1722 34.0045 58.6181 0.0000 0.0000 0.0000
# 2 34.0045 43.6241 33.7770 0.0000 0.0000 0.0000
# 3 58.6181 33.7770 120.6252 0.0000 0.0000 0.0000
# 4 0.0000 0.0000 0.0000 4.2341 0.0000 0.0000
# 5 0.0000 0.0000 0.0000 0.0000 30.9039 0.0000
# 6 0.0000 0.0000 0.0000 0.0000 0.0000 29.9926
#
#
#
# Elastic Compliance Matrix: (Units=1/GPa)
#
#
# Indices 1 2 3 4 5 6 
#
# 1 0.019001 -0.009783 -0.006494 0.000000 0.000000 0.000000
# 2 -0.009783 0.034305 -0.004852 0.000000 0.000000 0.000000
# 3 -0.006494 -0.004852 0.012805 0.000000 0.000000 0.000000
# 4 0.000000 0.000000 0.000000 0.236180 0.000000 0.000000
# 5 0.000000 0.000000 0.000000 0.000000 0.032358 0.000000
# 6 0.000000 0.000000 0.000000 0.000000 0.000000 0.033342
#
#
# Mechanical properties :
#
#
# Convention : Reuss Voigt Hill
#
# Bulk Modulus (GPa) = 41.92350 56.35784 49.14067
# Shear Modulus (GPa) = 11.95601 21.56091 16.75846
#
# Velocity S-wave (km/s) = 2.50199 3.35990 2.96217
# Velocity P-wave (km/s) = 5.50427 6.67532 6.11788
#
# Compressibility (1/GPa) = 0.02385297
#
# Stress axis : x y z
#
# Youngs Moduli (GPa) = 52.63000 29.14985 78.09656
#
# Poissons Ratio (x) = 0.28516 0.50717
# Poissons Ratio (y) = 0.51486 0.37894
# Poissons Ratio (z) = 0.34178 0.14144
#
# Static dielectric constant tensor:
#      x y z
#    x 3.599690 0.000000 0.000000 
#    y 0.000000 3.242690 0.000000 
#    z 0.000000 0.000000 3.748280 
# 
# 
# High freq. dielectric constant tensor:
#      x y z
#    x 1.750170 0.000000 0.000000 
#    y 0.000000 1.719570 0.000000 
#    z 0.000000 0.000000 1.758990 
# 
# From -- ./inp_files/72828.got.cif
#   From: 2010.03.12/outbox.cif.g09.slc.cpg/sg65_37_cif.got.tgz:72828.got - 2010.04.10 20:52:16.
