data_PCOD8270809
_publ_section_title
;
Structure prediction by ZEFSAII (Michael W. Deem and Ramdas Pophale) SiO2 
 PCOD8270809
Probable space group: C M M M
;
_chemical_formula_sum "Si O2"
_cell_formula_units_Z 80
_cell_length_a 9.355285
_cell_length_b 31.316409
_cell_length_c 14.379311
_cell_angle_alpha 90.000000
_cell_angle_beta 90.000000
_cell_angle_gamma 90.000000
_cell_volume 4212.763274
_symmetry_space_group_name_H-M "C M M M"
_symmetry_group_IT_number 65
_symmetry_cell_setting 'orthorhombic'
loop_
_space_group_symop_operation_xyz
x,y,z
-x,-y,z
x,-y,-z
-x,y,-z
-x,-y,-z
x,y,-z
-x,y,z
x,-y,z
1/2+x,1/2+y,z
1/2-x,1/2-y,z
1/2+x,1/2-y,-z
1/2-x,1/2+y,-z
1/2-x,1/2-y,-z
1/2+x,1/2+y,-z
1/2-x,1/2+y,z
1/2+x,1/2-y,z
loop_
_atom_site_type_symbol
_atom_site_label
_atom_site_fract_x
_atom_site_fract_y
_atom_site_fract_z
Si Si1 0.165087 0.708874 0.708546
Si Si2 0.830153 0.624217 0.604174
Si Si3 0.166004 0.917302 0.105819
Si Si4 0.337698 0.832160 0.103346
Si Si5 0.664915 0.047645 0.732097
O O1 0.250000 0.750000 0.672283
O O2 0.223839 0.666841 0.656128
O O3 0.190620 0.703887 0.819408
O O4 0.000000 0.716328 0.684591
O O5 0.766554 0.623401 0.500000
O O6 0.774982 0.582167 0.658407
O O7 0.000000 0.623662 0.601184
O O8 0.230238 0.870561 0.121728
O O9 0.245435 0.950376 0.172796
O O10 0.000000 0.915531 0.131568
O O11 0.189686 0.932629 0.000000
O O12 0.500000 0.849609 0.114374
O O13 0.314025 0.812611 0.000000
O O14 0.500000 0.057386 0.755668
O O15 0.682574 0.000000 0.690103
#
# Coordination Sequence:
#
# PCOD8270809 Si02
#       5
#    16  16  16  16  16
#     4  10  20  34  53  79 109 142 178 217 264 317
#     4   9  18  35  57  80 108 139 174 223 277 320
#     4  10  20  33  52  79 111 146 180 217 263 315
#     4   9  17  32  54  77 105 142 181 221 265 315
#     4  10  20  35  57  83 108 139 181 222 264 319
#
# _framework density 18.989910999999999
#
# number of rings (size 3 to 8) (size 9 to 14) (size 15 to 20)
#    0.000    2.400    2.000    0.600    0.000    4.000 
#    0.000    4.000    0.000    1.800    0.000    1.400 
#    0.000    0.000    0.000    0.000    0.000    0.000 
#
# Total GULP energy -495946.456444 kJ/mol
# GULP energy per Si atom -12398.661411 kJ/mol
# Density = 1.894669 g / cm^3
# Si number density = 18.989911 Si / 1000 Ang^3
#
#
#
# Elastic Constant Matrix: (Units=GPa)
#
#
# Indices 1 2 3 4 5 6 
#
# 1 60.7296 42.3063 39.0667 0.0000 0.0000 0.0000
# 2 42.3063 139.5594 65.0958 0.0000 0.0000 0.0000
# 3 39.0667 65.0958 120.3752 0.0000 0.0000 0.0000
# 4 0.0000 0.0000 0.0000 15.2322 0.0000 0.0000
# 5 0.0000 0.0000 0.0000 0.0000 13.8491 0.0000
# 6 0.0000 0.0000 0.0000 0.0000 0.0000 24.4114
#
#
#
# Elastic Compliance Matrix: (Units=1/GPa)
#
#
# Indices 1 2 3 4 5 6 
#
# 1 0.022856 -0.004639 -0.004909 0.000000 0.000000 0.000000
# 2 -0.004639 0.010524 -0.004186 0.000000 0.000000 0.000000
# 3 -0.004909 -0.004186 0.012164 0.000000 0.000000 0.000000
# 4 0.000000 0.000000 0.000000 0.065650 0.000000 0.000000
# 5 0.000000 0.000000 0.000000 0.000000 0.072207 0.000000
# 6 0.000000 0.000000 0.000000 0.000000 0.000000 0.040964
#
#
# Mechanical properties :
#
#
# Convention : Reuss Voigt Hill
#
# Bulk Modulus (GPa) = 55.31934 68.17799 61.74866
# Shear Modulus (GPa) = 19.39048 22.31157 20.85102
#
# Velocity S-wave (km/s) = 3.19892 3.43142 3.31721
# Velocity P-wave (km/s) = 6.54510 7.18886 6.87452
#
# Compressibility (1/GPa) = 0.01807686
#
# Stress axis : x y z
#
# Youngs Moduli (GPa) = 43.75226 95.02146 82.20944
#
# Poissons Ratio (x) = 0.44078 0.40358
# Poissons Ratio (y) = 0.20296 0.34410
# Poissons Ratio (z) = 0.21479 0.39772
#
# Static dielectric constant tensor:
#      x y z
#    x 3.263320 0.000000 0.000000 
#    y 0.000000 3.304330 0.000000 
#    z 0.000000 0.000000 3.707560 
# 
# 
# High freq. dielectric constant tensor:
#      x y z
#    x 1.709230 0.000000 0.000000 
#    y 0.000000 1.728430 0.000000 
#    z 0.000000 0.000000 1.739570 
# 
# From -- ./inp_files/38549.got.cif
#   From: 2010.03.12/outbox.cif.g09.slc.cpg/sg65_20_cif.got.tgz:38549.got - 2010.04.10 20:52:16.
