data_PCOD8270157
_publ_section_title
;
Structure prediction by ZEFSAII (Michael W. Deem and Ramdas Pophale) SiO2 
 PCOD8270157
Probable space group: C M M M
;
_chemical_formula_sum "Si O2"
_cell_formula_units_Z 96
_cell_length_a 9.134002
_cell_length_b 19.111557
_cell_length_c 29.940279
_cell_angle_alpha 90.000000
_cell_angle_beta 90.000000
_cell_angle_gamma 90.000000
_cell_volume 5226.524799
_symmetry_space_group_name_H-M "C M M M"
_symmetry_group_IT_number 65
_symmetry_cell_setting 'orthorhombic'
loop_
_space_group_symop_operation_xyz
x,y,z
-x,-y,z
x,-y,-z
-x,y,-z
-x,-y,-z
x,y,-z
-x,y,z
x,-y,z
1/2+x,1/2+y,z
1/2-x,1/2-y,z
1/2+x,1/2-y,-z
1/2-x,1/2+y,-z
1/2-x,1/2-y,-z
1/2+x,1/2+y,-z
1/2-x,1/2+y,z
1/2+x,1/2-y,z
loop_
_atom_site_type_symbol
_atom_site_label
_atom_site_fract_x
_atom_site_fract_y
_atom_site_fract_z
Si Si1 0.830570 0.318977 0.804180
Si Si2 0.173031 0.321361 0.297613
Si Si3 0.669926 0.320355 0.052095
Si Si4 0.670650 0.919471 0.117290
Si Si5 0.332745 0.582981 0.365145
Si Si6 0.164365 0.416883 0.450813
O O1 0.750000 0.250000 0.821867
O O2 0.784769 0.337689 0.753679
O O3 0.788091 0.383747 0.835649
O O4 0.000000 0.301157 0.806767
O O5 0.250000 0.250000 0.313573
O O6 0.234957 0.385422 0.325935
O O7 0.000000 0.314757 0.304748
O O8 0.500000 0.312376 0.063688
O O9 0.750000 0.250000 0.068386
O O10 0.736299 0.386570 0.077389
O O11 0.696979 0.333526 0.000000
O O12 0.500000 0.909922 0.106056
O O13 0.714996 0.000000 0.121559
O O14 0.500000 0.607279 0.360033
O O15 0.317123 0.500000 0.361881
O O16 0.274065 0.611408 0.412901
O O17 0.214761 0.390025 0.500000
O O18 0.165541 0.500000 0.450685
O O19 0.000000 0.389999 0.440492
#
# Coordination Sequence:
#
# PCOD8270157 Si02
#       6
#    16  16  16  16  16  16
#     4   9  19  35  55  77 100 131 171 213 255 303
#     4  10  20  35  55  76 101 134 171 211 256 307
#     4  10  21  37  57  80 106 138 178 220 259 304
#     4  10  21  36  54  79 111 142 172 210 258 309
#     4  10  20  32  48  74 106 136 169 211 256 302
#     4   8  14  26  45  69  97 130 169 210 251 299
#
# _framework density 18.367844999999999
#
# number of rings (size 3 to 8) (size 9 to 14) (size 15 to 20)
#    0.000    2.500    0.000    2.500    0.000    6.333 
#    0.000    5.000    0.000    0.500    0.000    0.000 
#    0.000    0.000    0.000    0.000    0.000    0.000 
#
# Total GULP energy -595256.842800 kJ/mol
# GULP energy per Si atom -12401.184225 kJ/mol
# Density = 1.832604 g / cm^3
# Si number density = 18.367845 Si / 1000 Ang^3
#
#
#
# Elastic Constant Matrix: (Units=GPa)
#
#
# Indices 1 2 3 4 5 6 
#
# 1 98.4822 54.1459 59.6092 0.0000 0.0000 0.0000
# 2 54.1459 97.4430 61.2780 0.0000 0.0000 0.0000
# 3 59.6092 61.2780 103.0253 0.0000 0.0000 0.0000
# 4 0.0000 0.0000 0.0000 20.0203 0.0000 0.0000
# 5 0.0000 0.0000 0.0000 0.0000 29.2712 0.0000
# 6 0.0000 0.0000 0.0000 0.0000 0.0000 30.1916
#
#
#
# Elastic Compliance Matrix: (Units=1/GPa)
#
#
# Indices 1 2 3 4 5 6 
#
# 1 0.017163 -0.005259 -0.006802 0.000000 0.000000 0.000000
# 2 -0.005259 0.018006 -0.007667 0.000000 0.000000 0.000000
# 3 -0.006802 -0.007667 0.018202 0.000000 0.000000 0.000000
# 4 0.000000 0.000000 0.000000 0.049949 0.000000 0.000000
# 5 0.000000 0.000000 0.000000 0.000000 0.034163 0.000000
# 6 0.000000 0.000000 0.000000 0.000000 0.000000 0.033122
#
#
# Mechanical properties :
#
#
# Convention : Reuss Voigt Hill
#
# Bulk Modulus (GPa) = 71.86650 72.11298 71.98974
# Shear Modulus (GPa) = 23.28827 24.15777 23.72302
#
# Velocity S-wave (km/s) = 3.56460 3.63053 3.59772
# Velocity P-wave (km/s) = 7.49353 7.54454 7.51908
#
# Compressibility (1/GPa) = 0.01391469
#
# Stress axis : x y z
#
# Youngs Moduli (GPa) = 58.26542 55.53637 54.93870
#
# Poissons Ratio (x) = 0.29208 0.37370
# Poissons Ratio (y) = 0.30643 0.42121
# Poissons Ratio (z) = 0.39633 0.42579
#
# Static dielectric constant tensor:
#      x y z
#    x 3.472270 0.000000 0.000000 
#    y 0.000000 3.166640 0.000000 
#    z 0.000000 0.000000 3.614820 
# 
# 
# High freq. dielectric constant tensor:
#      x y z
#    x 1.717010 0.000000 0.000000 
#    y 0.000000 1.686910 0.000000 
#    z 0.000000 0.000000 1.723010 
# 
# From -- ./inp_files/73090.got.cif
#   From: 2010.03.12/outbox.cif.g09.slc.cpg/sg65_37_cif.got.tgz:73090.got - 2010.04.10 20:52:16.
