data_PCOD8270998
_publ_section_title
;
Structure prediction by ZEFSAII (Michael W. Deem and Ramdas Pophale) SiO2 
 PCOD8270998
Probable space group: C M M M
;
_chemical_formula_sum "Si O2"
_cell_formula_units_Z 80
_cell_length_a 8.854944
_cell_length_b 27.615458
_cell_length_c 18.907360
_cell_angle_alpha 90.000000
_cell_angle_beta 90.000000
_cell_angle_gamma 90.000000
_cell_volume 4623.479780
_symmetry_space_group_name_H-M "C M M M"
_symmetry_group_IT_number 65
_symmetry_cell_setting 'orthorhombic'
loop_
_space_group_symop_operation_xyz
x,y,z
-x,-y,z
x,-y,-z
-x,y,-z
-x,-y,-z
x,y,-z
-x,y,z
x,-y,z
1/2+x,1/2+y,z
1/2-x,1/2-y,z
1/2+x,1/2-y,-z
1/2-x,1/2+y,-z
1/2-x,1/2-y,-z
1/2+x,1/2+y,-z
1/2-x,1/2+y,z
1/2+x,1/2-y,z
loop_
_atom_site_type_symbol
_atom_site_label
_atom_site_fract_x
_atom_site_fract_y
_atom_site_fract_z
Si Si1 0.179882 0.445355 0.577848
Si Si2 0.674457 0.355730 0.919008
Si Si3 0.177894 0.606534 0.286193
Si Si4 0.820978 0.699264 0.205229
Si Si5 0.322388 0.944990 0.854707
O O1 0.233298 0.427283 0.500000
O O2 0.237912 0.500000 0.590933
O O3 0.249266 0.410449 0.638805
O O4 0.000000 0.445070 0.581454
O O5 0.500000 0.353832 0.897027
O O6 0.765622 0.317294 0.871974
O O7 0.734854 0.410286 0.908597
O O8 0.698299 0.340558 0.000000
O O9 0.234091 0.660000 0.263637
O O10 0.223560 0.568204 0.225627
O O11 0.000000 0.607731 0.294395
O O12 0.750000 0.750000 0.227637
O O13 0.000000 0.703742 0.202636
O O14 0.500000 0.936975 0.866062
O O15 0.274405 0.000000 0.870365
#
# Coordination Sequence:
#
# PCOD8270998 Si02
#       5
#    16  16  16  16  16
#     4   8  12  18  33  61  95 126 152 180 217 259
#     4  10  21  35  49  67  92 119 148 186 231 278
#     4   8  14  25  41  62  89 120 153 188 225 265
#     4  10  20  34  52  70  88 114 149 190 234 278
#     4   9  17  29  46  67  92 125 161 193 225 265
#
# _framework density 17.302985
#
# number of rings (size 3 to 8) (size 9 to 14) (size 15 to 20)
#    0.000    3.000    0.000    3.600    0.000    5.200 
#    0.000    2.000    0.000    0.600    0.000    0.000 
#    0.000   19.200    0.000   64.200    0.000   58.800 
#
# Total GULP energy -495790.780418 kJ/mol
# GULP energy per Si atom -12394.769510 kJ/mol
# Density = 1.726360 g / cm^3
# Si number density = 17.302985 Si / 1000 Ang^3
#
#
#
# Elastic Constant Matrix: (Units=GPa)
#
#
# Indices 1 2 3 4 5 6 
#
# 1 45.0218 28.3328 25.8698 0.0000 0.0000 0.0000
# 2 28.3328 109.5243 49.6198 0.0000 0.0000 0.0000
# 3 25.8698 49.6198 109.5458 0.0000 0.0000 0.0000
# 4 0.0000 0.0000 0.0000 18.8183 0.0000 0.0000
# 5 0.0000 0.0000 0.0000 0.0000 7.5863 0.0000
# 6 0.0000 0.0000 0.0000 0.0000 0.0000 25.6037
#
#
#
# Elastic Compliance Matrix: (Units=1/GPa)
#
#
# Indices 1 2 3 4 5 6 
#
# 1 0.027979 -0.005340 -0.004188 0.000000 0.000000 0.000000
# 2 -0.005340 0.012507 -0.004404 0.000000 0.000000 0.000000
# 3 -0.004188 -0.004404 0.012113 0.000000 0.000000 0.000000
# 4 0.000000 0.000000 0.000000 0.053140 0.000000 0.000000
# 5 0.000000 0.000000 0.000000 0.000000 0.131816 0.000000
# 6 0.000000 0.000000 0.000000 0.000000 0.000000 0.039057
#
#
# Mechanical properties :
#
#
# Convention : Reuss Voigt Hill
#
# Bulk Modulus (GPa) = 40.43180 52.41518 46.42349
# Shear Modulus (GPa) = 15.98867 21.08630 18.53748
#
# Velocity S-wave (km/s) = 3.04310 3.49471 3.27669
# Velocity P-wave (km/s) = 5.98038 6.82952 6.41901
#
# Compressibility (1/GPa) = 0.02473300
#
# Stress axis : x y z
#
# Youngs Moduli (GPa) = 35.74128 79.95439 82.55874
#
# Poissons Ratio (x) = 0.42698 0.34579
# Poissons Ratio (y) = 0.19087 0.36360
# Poissons Ratio (z) = 0.14970 0.35213
#
# Static dielectric constant tensor:
#      x y z
#    x 2.902180 0.000000 0.000000 
#    y 0.000000 3.325850 0.000000 
#    z 0.000000 0.000000 3.468580 
# 
# 
# High freq. dielectric constant tensor:
#      x y z
#    x 1.634080 0.000000 0.000000 
#    y 0.000000 1.662360 0.000000 
#    z 0.000000 0.000000 1.663540 
# 
# From -- ./inp_files/49873.got.cif
#   From: 2010.03.12/outbox.cif.g09.slc.cpg/sg65_25_cif.got.tgz:49873.got - 2010.04.10 20:52:16.
