data_PCOD8270522
_publ_section_title
;
Structure prediction by ZEFSAII (Michael W. Deem and Ramdas Pophale) SiO2 
 PCOD8270522
Probable space group: C M M M
;
_chemical_formula_sum "Si O2"
_cell_formula_units_Z 64
_cell_length_a 18.423957
_cell_length_b 8.838474
_cell_length_c 20.989069
_cell_angle_alpha 90.000000
_cell_angle_beta 90.000000
_cell_angle_gamma 90.000000
_cell_volume 3417.852963
_symmetry_space_group_name_H-M "C M M M"
_symmetry_group_IT_number 65
_symmetry_cell_setting 'orthorhombic'
loop_
_space_group_symop_operation_xyz
x,y,z
-x,-y,z
x,-y,-z
-x,y,-z
-x,-y,-z
x,y,-z
-x,y,z
x,-y,z
1/2+x,1/2+y,z
1/2-x,1/2-y,z
1/2+x,1/2-y,-z
1/2-x,1/2+y,-z
1/2-x,1/2-y,-z
1/2+x,1/2+y,-z
1/2-x,1/2+y,z
1/2+x,1/2-y,z
loop_
_atom_site_type_symbol
_atom_site_label
_atom_site_fract_x
_atom_site_fract_y
_atom_site_fract_z
Si Si1 0.413985 0.671648 0.804681
Si Si2 0.913783 0.670069 0.069838
Si Si3 0.670856 0.178213 0.306267
Si Si4 0.171348 0.822810 0.569047
O O1 0.500000 0.689517 0.800557
O O2 0.389278 0.500000 0.792246
O O3 0.384701 0.720435 0.874516
O O4 0.379563 0.781128 0.752760
O O5 0.885503 0.500000 0.082686
O O6 0.000000 0.670738 0.070162
O O7 0.886258 0.726204 0.000000
O O8 0.750000 0.250000 0.296793
O O9 0.631918 0.242985 0.370913
O O10 0.678575 0.000000 0.311745
O O11 0.132106 0.795675 0.500000
O O12 0.250000 0.750000 0.565190
O O13 0.178130 0.000000 0.583237
#
# Coordination Sequence:
#
# PCOD8270522 Si02
#       4
#    16  16  16  16
#     4  10  20  33  50  73 101 131 164 202 243 289
#     4   8  14  26  45  69  96 125 159 199 240 282
#     4  11  21  33  51  73 100 131 164 202 243 290
#     4   9  16  27  45  69  96 124 157 198 241 284
#
# _framework density 18.725204999999999
#
# number of rings (size 3 to 8) (size 9 to 14) (size 15 to 20)
#    0.000    2.500    0.000    6.000    0.000    3.500 
#    0.000    2.500    0.000    1.500    0.000    5.250 
#    0.000    0.000    0.000    0.000    0.000    0.000 
#
# Total GULP energy -396508.737664 kJ/mol
# GULP energy per Si atom -12390.898052 kJ/mol
# Density = 1.868259 g / cm^3
# Si number density = 18.725205 Si / 1000 Ang^3
#
#
#
# Elastic Constant Matrix: (Units=GPa)
#
#
# Indices 1 2 3 4 5 6 
#
# 1 16.3985 21.4876 26.1769 0.0000 0.0000 0.0000
# 2 21.4876 138.4125 71.3311 0.0000 0.0000 0.0000
# 3 26.1769 71.3311 176.3937 0.0000 0.0000 0.0000
# 4 0.0000 0.0000 0.0000 38.9699 0.0000 0.0000
# 5 0.0000 0.0000 0.0000 0.0000 22.2769 0.0000
# 6 0.0000 0.0000 0.0000 0.0000 0.0000 18.6921
#
#
#
# Elastic Compliance Matrix: (Units=1/GPa)
#
#
# Indices 1 2 3 4 5 6 
#
# 1 0.087496 -0.008706 -0.009464 0.000000 0.000000 0.000000
# 2 -0.008706 0.009993 -0.002749 0.000000 0.000000 0.000000
# 3 -0.009464 -0.002749 0.008185 0.000000 0.000000 0.000000
# 4 0.000000 0.000000 0.000000 0.025661 0.000000 0.000000
# 5 0.000000 0.000000 0.000000 0.000000 0.044890 0.000000
# 6 0.000000 0.000000 0.000000 0.000000 0.000000 0.053498
#
#
# Mechanical properties :
#
#
# Convention : Reuss Voigt Hill
#
# Bulk Modulus (GPa) = 15.66503 63.24402 39.45452
# Shear Modulus (GPa) = 17.07417 30.13504 23.60461
#
# Velocity S-wave (km/s) = 3.02293 4.01600 3.55432
# Velocity P-wave (km/s) = 4.53520 7.43992 6.16119
#
# Compressibility (1/GPa) = 0.06383647
#
# Stress axis : x y z
#
# Youngs Moduli (GPa) = 11.42909 100.06937 122.17051
#
# Poissons Ratio (x) = 0.87120 1.15621
# Poissons Ratio (y) = 0.09950 0.33586
# Poissons Ratio (z) = 0.10816 0.27510
#
# Static dielectric constant tensor:
#      x y z
#    x 2.760540 0.000000 0.000000 
#    y 0.000000 3.600070 0.000000 
#    z 0.000000 0.000000 4.431570 
# 
# 
# High freq. dielectric constant tensor:
#      x y z
#    x 1.649030 0.000000 0.000000 
#    y 0.000000 1.739020 0.000000 
#    z 0.000000 0.000000 1.758870 
# 
# From -- ./inp_files/49358.got.cif
#   From: 2010.03.12/outbox.cif.g09.slc.cpg/sg65_25_cif.got.tgz:49358.got - 2010.04.10 20:52:16.
