data_PCOD8270106
_publ_section_title
;
Structure prediction by ZEFSAII (Michael W. Deem and Ramdas Pophale) SiO2 
 PCOD8270106
Probable space group: C M M M
;
_chemical_formula_sum "Si O2"
_cell_formula_units_Z 88
_cell_length_a 9.104948
_cell_length_b 15.566055
_cell_length_c 29.716346
_cell_angle_alpha 90.000000
_cell_angle_beta 90.000000
_cell_angle_gamma 90.000000
_cell_volume 4211.641892
_symmetry_space_group_name_H-M "C M M M"
_symmetry_group_IT_number 65
_symmetry_cell_setting 'orthorhombic'
loop_
_space_group_symop_operation_xyz
x,y,z
-x,-y,z
x,-y,-z
-x,y,-z
-x,-y,-z
x,y,-z
-x,y,z
x,-y,z
1/2+x,1/2+y,z
1/2-x,1/2-y,z
1/2+x,1/2-y,-z
1/2-x,1/2+y,-z
1/2-x,1/2-y,-z
1/2+x,1/2+y,-z
1/2-x,1/2+y,z
1/2+x,1/2-y,z
loop_
_atom_site_type_symbol
_atom_site_label
_atom_site_fract_x
_atom_site_fract_y
_atom_site_fract_z
Si Si1 0.829445 0.338273 0.701184
Si Si2 0.665070 0.397856 0.049416
Si Si3 0.839572 0.097260 0.219058
Si Si4 0.327350 0.159261 0.402083
Si Si5 0.331870 0.500000 0.553238
Si Si6 0.835841 0.602928 0.864901
O O1 0.750000 0.250000 0.711722
O O2 0.754761 0.404886 0.734978
O O3 0.804048 0.366920 0.649827
O O4 0.000000 0.330021 0.712124
O O5 0.500000 0.364361 0.057354
O O6 0.666692 0.500000 0.051452
O O7 0.767323 0.360300 0.088814
O O8 0.722086 0.367625 0.000000
O O9 0.753295 0.141721 0.177736
O O10 0.000000 0.141360 0.225993
O O11 0.865220 0.000000 0.204855
O O12 0.500000 0.166540 0.413972
O O13 0.250000 0.250000 0.413095
O O14 0.252261 0.085128 0.430974
O O15 0.500000 0.500000 0.571381
O O16 0.330751 0.500000 0.500000
O O17 0.835017 0.500000 0.864399
O O18 0.000000 0.638730 0.861333
#
# Coordination Sequence:
#
# PCOD8270106 Si02
#       6
#    16  16  16  16   8  16
#     4  10  21  37  57  81 110 142 181 225 273 328
#     4   8  13  21  33  49  73 110 154 199 250 311
#     4  10  20  32  48  72 101 137 176 215 265 322
#     4  10  22  41  65  93 125 164 205 253 308 362
#     4  11  25  43  65  95 129 167 211 257 304 359
#     4   9  16  25  37  56  85 120 159 207 259 312
#
# _framework density 20.894465
#
# number of rings (size 3 to 8) (size 9 to 14) (size 15 to 20)
#    0.000    2.455    0.000    3.000    1.273    6.909 
#    0.000    1.818    0.000    0.000    0.000    0.000 
#    0.000    0.727    0.000    2.727    0.000    6.364 
#
# Total GULP energy -545417.455491 kJ/mol
# GULP energy per Si atom -12395.851261 kJ/mol
# Density = 2.084691 g / cm^3
# Si number density = 20.894465 Si / 1000 Ang^3
#
#
#
# Elastic Constant Matrix: (Units=GPa)
#
#
# Indices 1 2 3 4 5 6 
#
# 1 186.2194 43.3578 82.4465 0.0000 0.0000 0.0000
# 2 43.3578 52.4889 35.5430 0.0000 0.0000 0.0000
# 3 82.4465 35.5430 121.7514 0.0000 0.0000 0.0000
# 4 0.0000 0.0000 0.0000 -2.4653 0.0000 0.0000
# 5 0.0000 0.0000 0.0000 0.0000 36.7624 0.0000
# 6 0.0000 0.0000 0.0000 0.0000 0.0000 23.9080
#
#
#
# Elastic Compliance Matrix: (Units=1/GPa)
#
#
# Indices 1 2 3 4 5 6 
#
# 1 0.008227 -0.003768 -0.004471 0.000000 0.000000 0.000000
# 2 -0.003768 0.025472 -0.004884 0.000000 0.000000 0.000000
# 3 -0.004471 -0.004884 0.012667 0.000000 0.000000 0.000000
# 4 0.000000 0.000000 0.000000 -0.405634 0.000000 0.000000
# 5 0.000000 0.000000 0.000000 0.000000 0.027202 0.000000
# 6 0.000000 0.000000 0.000000 0.000000 0.000000 0.041827
#
#
# Mechanical properties :
#
#
# Convention : Reuss Voigt Hill
#
# Bulk Modulus (GPa) = 49.70506 75.90602 62.80554
# Shear Modulus (GPa) = -19.43352 24.91518 2.74083
#
# Velocity S-wave (km/s) = -3.05303 3.45690 1.14656
# Velocity P-wave (km/s) = 3.37821 7.23469 5.64593
#
# Compressibility (1/GPa) = 0.02011868
#
# Stress axis : x y z
#
# Youngs Moduli (GPa) = 121.55402 39.25930 78.94590
#
# Poissons Ratio (x) = 0.14794 0.35296
# Poissons Ratio (y) = 0.45803 0.38559
# Poissons Ratio (z) = 0.54346 0.19175
#
# Static dielectric constant tensor:
#      x y z
#    x 4.108680 0.000000 0.000000 
#    y 0.000000 2.922140 0.000000 
#    z 0.000000 0.000000 3.921560 
# 
# 
# High freq. dielectric constant tensor:
#      x y z
#    x 1.833120 0.000000 0.000000 
#    y 0.000000 1.776890 0.000000 
#    z 0.000000 0.000000 1.825500 
# 
# From -- ./inp_files/76596.got.cif
#   From: 2010.03.12/outbox.cif.g09.slc.cpg/sg65_39_cif.got.tgz:76596.got - 2010.04.10 20:52:16.
