data_PCOD8270568
_publ_section_title
;
Structure prediction by ZEFSAII (Michael W. Deem and Ramdas Pophale) SiO2 
 PCOD8270568
Probable space group: C M M M
;
_chemical_formula_sum "Si O2"
_cell_formula_units_Z 88
_cell_length_a 19.365193
_cell_length_b 8.351981
_cell_length_c 29.677101
_cell_angle_alpha 90.000000
_cell_angle_beta 90.000000
_cell_angle_gamma 90.000000
_cell_volume 4799.906771
_symmetry_space_group_name_H-M "C M M M"
_symmetry_group_IT_number 65
_symmetry_cell_setting 'orthorhombic'
loop_
_space_group_symop_operation_xyz
x,y,z
-x,-y,z
x,-y,-z
-x,y,-z
-x,-y,-z
x,y,-z
-x,y,z
x,-y,z
1/2+x,1/2+y,z
1/2-x,1/2-y,z
1/2+x,1/2-y,-z
1/2-x,1/2+y,-z
1/2-x,1/2-y,-z
1/2+x,1/2+y,-z
1/2-x,1/2+y,z
1/2+x,1/2-y,z
loop_
_atom_site_type_symbol
_atom_site_label
_atom_site_fract_x
_atom_site_fract_y
_atom_site_fract_z
Si Si1 0.676509 0.683329 0.784931
Si Si2 0.419959 0.816967 0.858841
Si Si3 0.081346 0.684663 0.605654
Si Si4 0.081914 0.181245 0.048893
Si Si5 0.676182 0.184086 0.689247
Si Si6 0.418239 0.500000 0.449507
O O1 0.687815 0.500000 0.776669
O O2 0.750000 0.750000 0.800974
O O3 0.619831 0.710533 0.823019
O O4 0.650750 0.751707 0.737319
O O5 0.500000 0.767672 0.856402
O O6 0.390563 0.786958 0.909412
O O7 0.408095 0.000000 0.846016
O O8 0.099591 0.500000 0.588777
O O9 0.117855 0.722807 0.652746
O O10 0.106314 0.830475 0.572955
O O11 0.000000 0.696192 0.613582
O O12 0.000000 0.188953 0.047775
O O13 0.107104 0.000000 0.056541
O O14 0.109732 0.244090 0.000000
O O15 0.750000 0.250000 0.673211
O O16 0.687792 0.000000 0.695790
O O17 0.500000 0.500000 0.450222
O O18 0.387803 0.500000 0.500000
#
# Coordination Sequence:
#
# PCOD8270568 Si02
#       6
#    16  16  16  16  16   8
#     4  11  22  36  54  74 101 135 174 213 255 313
#     4  10  20  33  50  74 104 135 168 210 258 304
#     4   9  19  34  53  80 110 140 177 221 264 308
#     4   8  14  26  45  69  97 128 164 206 250 301
#     4  10  20  34  54  78 102 136 174 211 258 309
#     4   9  18  32  54  82 110 142 177 217 264 314
#
# _framework density 18.333690000000001
#
# number of rings (size 3 to 8) (size 9 to 14) (size 15 to 20)
#    0.000    2.455    0.000    4.364    2.545    2.545 
#    0.000    5.455    0.000    1.091    0.000    0.000 
#    0.000    0.000    0.000    0.000    0.000    0.000 
#
# Total GULP energy -545221.778803 kJ/mol
# GULP energy per Si atom -12391.404064 kJ/mol
# Density = 1.829196 g / cm^3
# Si number density = 18.333690 Si / 1000 Ang^3
#
#
#
# Elastic Constant Matrix: (Units=GPa)
#
#
# Indices 1 2 3 4 5 6 
#
# 1 39.7996 29.8415 43.7112 0.0000 0.0000 0.0000
# 2 29.8415 107.2995 66.3455 0.0000 0.0000 0.0000
# 3 43.7112 66.3455 133.6517 0.0000 0.0000 0.0000
# 4 0.0000 0.0000 0.0000 35.2317 0.0000 0.0000
# 5 0.0000 0.0000 0.0000 0.0000 0.8033 0.0000
# 6 0.0000 0.0000 0.0000 0.0000 0.0000 22.4659
#
#
#
# Elastic Compliance Matrix: (Units=1/GPa)
#
#
# Indices 1 2 3 4 5 6 
#
# 1 0.040630 -0.004449 -0.011080 0.000000 0.000000 0.000000
# 2 -0.004449 0.013934 -0.005462 0.000000 0.000000 0.000000
# 3 -0.011080 -0.005462 0.013817 0.000000 0.000000 0.000000
# 4 0.000000 0.000000 0.000000 0.028384 0.000000 0.000000
# 5 0.000000 0.000000 0.000000 0.000000 1.244799 0.000000
# 6 0.000000 0.000000 0.000000 0.000000 0.000000 0.044512
#
#
# Mechanical properties :
#
#
# Convention : Reuss Voigt Hill
#
# Bulk Modulus (GPa) = 37.87834 62.28303 50.08068
# Shear Modulus (GPa) = 3.47981 21.09036 12.28509
#
# Velocity S-wave (km/s) = 1.37919 3.39538 2.59140
# Velocity P-wave (km/s) = 4.82095 7.02973 6.02738
#
# Compressibility (1/GPa) = 0.02640031
#
# Stress axis : x y z
#
# Youngs Moduli (GPa) = 24.61206 71.76524 72.37369
#
# Poissons Ratio (x) = 0.31929 0.80188
# Poissons Ratio (y) = 0.10950 0.39531
# Poissons Ratio (z) = 0.27270 0.39198
#
# Static dielectric constant tensor:
#      x y z
#    x 3.025100 0.000000 0.000000 
#    y 0.000000 3.656850 0.000000 
#    z 0.000000 0.000000 3.681050 
# 
# 
# High freq. dielectric constant tensor:
#      x y z
#    x 1.670850 0.000000 0.000000 
#    y 0.000000 1.727580 0.000000 
#    z 0.000000 0.000000 1.715100 
# 
# From -- ./inp_files/71011.got.cif
#   From: 2010.03.12/outbox.cif.g09.slc.cpg/sg65_36_cif.got.tgz:71011.got - 2010.04.10 20:52:16.
