data_PCOD8270978
_publ_section_title
;
Structure prediction by ZEFSAII (Michael W. Deem and Ramdas Pophale) SiO2 
 PCOD8270978
Probable space group: C M M M
;
_chemical_formula_sum "Si O2"
_cell_formula_units_Z 96
_cell_length_a 27.028677
_cell_length_b 9.464559
_cell_length_c 18.812095
_cell_angle_alpha 90.000000
_cell_angle_beta 90.000000
_cell_angle_gamma 90.000000
_cell_volume 4812.406830
_symmetry_space_group_name_H-M "C M M M"
_symmetry_group_IT_number 65
_symmetry_cell_setting 'orthorhombic'
loop_
_space_group_symop_operation_xyz
x,y,z
-x,-y,z
x,-y,-z
-x,y,-z
-x,-y,-z
x,y,-z
-x,y,z
x,-y,z
1/2+x,1/2+y,z
1/2-x,1/2-y,z
1/2+x,1/2-y,-z
1/2-x,1/2+y,-z
1/2-x,1/2-y,-z
1/2+x,1/2+y,-z
1/2-x,1/2+y,z
1/2+x,1/2-y,z
loop_
_atom_site_type_symbol
_atom_site_label
_atom_site_fract_x
_atom_site_fract_y
_atom_site_fract_z
Si Si1 0.945625 0.662845 0.350107
Si Si2 0.402719 0.340605 0.769815
Si Si3 0.844877 0.664167 0.581423
Si Si4 0.701791 0.666976 0.294230
Si Si5 0.614692 0.658561 0.922889
Si Si6 0.708876 0.153506 0.918842
O O1 0.943197 0.500000 0.330012
O O2 0.937814 0.742432 0.275963
O O3 0.903018 0.701364 0.406594
O O4 0.000000 0.702287 0.381301
O O5 0.411879 0.500000 0.743997
O O6 0.344168 0.304091 0.759291
O O7 0.419084 0.321378 0.852789
O O8 0.831907 0.695634 0.500000
O O9 0.834592 0.500000 0.600724
O O10 0.811294 0.766496 0.628838
O O11 0.712721 0.500000 0.302591
O O12 0.750000 0.750000 0.264821
O O13 0.637734 0.500000 0.919974
O O14 0.656269 0.774530 0.915824
O O15 0.587040 0.678299 0.000000
O O16 0.750000 0.250000 0.879541
O O17 0.706346 0.000000 0.880870
O O18 0.725547 0.131273 0.000000
#
# Coordination Sequence:
#
# PCOD8270978 Si02
#       6
#    16  16  16  16  16  16
#     4   9  18  33  54  79 104 131 163 199 243 295
#     4   9  19  34  51  73  99 129 167 209 252 299
#     4   9  18  33  53  78 107 135 164 201 244 290
#     4  10  20  34  51  71  99 136 176 212 245 286
#     4   9  17  30  47  66  90 120 156 202 255 304
#     4   9  16  25  37  55  81 113 149 188 232 284
#
# _framework density 19.948440000000002
#
# number of rings (size 3 to 8) (size 9 to 14) (size 15 to 20)
#    0.000    2.833    0.000    1.000    0.000    5.333 
#    0.000    3.333    0.000    0.500    0.000    8.167 
#    0.000    0.000    0.000    0.000    0.000    0.000 
#
# Total GULP energy -594744.722173 kJ/mol
# GULP energy per Si atom -12390.515045 kJ/mol
# Density = 1.990304 g / cm^3
# Si number density = 19.948440 Si / 1000 Ang^3
#
#
#
# Elastic Constant Matrix: (Units=GPa)
#
#
# Indices 1 2 3 4 5 6 
#
# 1 42.2642 11.3726 -7.5747 0.0000 0.0000 0.0000
# 2 11.3726 84.7381 14.7642 0.0000 0.0000 0.0000
# 3 -7.5747 14.7642 83.8827 0.0000 0.0000 0.0000
# 4 0.0000 0.0000 0.0000 21.7473 0.0000 0.0000
# 5 0.0000 0.0000 0.0000 0.0000 11.6690 0.0000
# 6 0.0000 0.0000 0.0000 0.0000 0.0000 23.7469
#
#
#
# Elastic Compliance Matrix: (Units=1/GPa)
#
#
# Indices 1 2 3 4 5 6 
#
# 1 0.025243 -0.003905 0.002967 0.000000 0.000000 0.000000
# 2 -0.003905 0.012778 -0.002602 0.000000 0.000000 0.000000
# 3 0.002967 -0.002602 0.012647 0.000000 0.000000 0.000000
# 4 0.000000 0.000000 0.000000 0.045983 0.000000 0.000000
# 5 0.000000 0.000000 0.000000 0.000000 0.085697 0.000000
# 6 0.000000 0.000000 0.000000 0.000000 0.000000 0.042111
#
#
# Mechanical properties :
#
#
# Convention : Reuss Voigt Hill
#
# Bulk Modulus (GPa) = 22.94142 27.55657 25.24899
# Shear Modulus (GPa) = 20.31952 24.25416 22.28684
#
# Velocity S-wave (km/s) = 3.19502 3.49068 3.34611
# Velocity P-wave (km/s) = 5.01360 5.48546 5.25483
#
# Compressibility (1/GPa) = 0.04358929
#
# Stress axis : x y z
#
# Youngs Moduli (GPa) = 39.61483 78.25685 79.06859
#
# Poissons Ratio (x) = 0.30557 -0.23458
# Poissons Ratio (y) = 0.15469 0.20572
# Poissons Ratio (z) = -0.11753 0.20360
#
# Static dielectric constant tensor:
#      x y z
#    x 3.385340 0.000000 0.000000 
#    y 0.000000 3.773950 0.000000 
#    z 0.000000 0.000000 3.643830 
# 
# 
# High freq. dielectric constant tensor:
#      x y z
#    x 1.740500 0.000000 0.000000 
#    y 0.000000 1.784130 0.000000 
#    z 0.000000 0.000000 1.771220 
# 
# From -- ./inp_files/60145.got.cif
#   From: 2010.03.12/outbox.cif.g09.slc.cpg/sg65_31_cif.got.tgz:60145.got - 2010.04.10 20:52:16.
