data_PCOD8270003
_publ_section_title
;
Structure prediction by ZEFSAII (Michael W. Deem and Ramdas Pophale) SiO2 
 PCOD8270003
Probable space group: C M M M
;
_chemical_formula_sum "Si O2"
_cell_formula_units_Z 96
_cell_length_a 9.045338
_cell_length_b 18.829507
_cell_length_c 31.108937
_cell_angle_alpha 90.000000
_cell_angle_beta 90.000000
_cell_angle_gamma 90.000000
_cell_volume 5298.450980
_symmetry_space_group_name_H-M "C M M M"
_symmetry_group_IT_number 65
_symmetry_cell_setting 'orthorhombic'
loop_
_space_group_symop_operation_xyz
x,y,z
-x,-y,z
x,-y,-z
-x,y,-z
-x,-y,-z
x,y,-z
-x,y,z
x,-y,z
1/2+x,1/2+y,z
1/2-x,1/2-y,z
1/2+x,1/2-y,-z
1/2-x,1/2+y,-z
1/2-x,1/2-y,-z
1/2+x,1/2+y,-z
1/2-x,1/2+y,z
1/2+x,1/2-y,z
loop_
_atom_site_type_symbol
_atom_site_label
_atom_site_fract_x
_atom_site_fract_y
_atom_site_fract_z
Si Si1 0.677043 0.919912 0.137680
Si Si2 0.828144 0.581897 0.297809
Si Si3 0.825142 0.325725 0.783813
Si Si4 0.165516 0.584334 0.045482
Si Si5 0.327277 0.822306 0.450356
Si Si6 0.168099 0.916130 0.616353
O O1 0.500000 0.920586 0.136462
O O2 0.735686 0.867035 0.174281
O O3 0.739419 0.891762 0.090941
O O4 0.733588 0.000000 0.147505
O O5 0.792324 0.500000 0.287078
O O6 0.778385 0.628523 0.257425
O O7 0.736324 0.609764 0.338595
O O8 0.000000 0.591944 0.308504
O O9 0.750000 0.250000 0.780940
O O10 0.000000 0.315906 0.786163
O O11 0.158746 0.500000 0.047374
O O12 0.000000 0.615169 0.043748
O O13 0.245678 0.607944 0.000000
O O14 0.292924 0.838647 0.500000
O O15 0.500000 0.815133 0.441409
O O16 0.250000 0.750000 0.435359
O O17 0.261303 0.886395 0.423174
O O18 0.000000 0.889057 0.613637
O O19 0.178808 0.000000 0.612878
#
# Coordination Sequence:
#
# PCOD8270003 Si02
#       6
#    16  16  16  16  16  16
#     4   8  13  23  41  63  86 115 153 193 231 275
#     4   9  18  34  54  72  92 122 162 204 243 286
#     4  10  20  32  47  68  93 122 155 193 238 285
#     4   7   9  14  28  54  85 111 138 181 234 276
#     4  10  21  37  57  80 107 140 176 212 249 290
#     4  10  21  36  55  80 108 136 166 203 248 296
#
# _framework density 18.118503
#
# number of rings (size 3 to 8) (size 9 to 14) (size 15 to 20)
#    0.000    3.000    0.000    3.000    0.000    5.667 
#    0.000    3.333    0.000    2.000    0.000    0.000 
#    0.000    0.000    0.000    4.167    0.000    3.333 
#
# Total GULP energy -594798.990950 kJ/mol
# GULP energy per Si atom -12391.645645 kJ/mol
# Density = 1.807726 g / cm^3
# Si number density = 18.118503 Si / 1000 Ang^3
#
#
#
# Elastic Constant Matrix: (Units=GPa)
#
#
# Indices 1 2 3 4 5 6 
#
# 1 51.8134 29.0708 51.7518 0.0000 0.0000 0.0000
# 2 29.0708 70.2291 63.5691 0.0000 0.0000 0.0000
# 3 51.7518 63.5691 157.2374 0.0000 0.0000 0.0000
# 4 0.0000 0.0000 0.0000 8.1864 0.0000 0.0000
# 5 0.0000 0.0000 0.0000 0.0000 11.6655 0.0000
# 6 0.0000 0.0000 0.0000 0.0000 0.0000 26.3949
#
#
#
# Elastic Compliance Matrix: (Units=1/GPa)
#
#
# Indices 1 2 3 4 5 6 
#
# 1 0.030040 -0.005497 -0.007665 0.000000 0.000000 0.000000
# 2 -0.005497 0.023463 -0.007677 0.000000 0.000000 0.000000
# 3 -0.007665 -0.007677 0.011986 0.000000 0.000000 0.000000
# 4 0.000000 0.000000 0.000000 0.122154 0.000000 0.000000
# 5 0.000000 0.000000 0.000000 0.000000 0.085723 0.000000
# 6 0.000000 0.000000 0.000000 0.000000 0.000000 0.037886
#
#
# Mechanical properties :
#
#
# Convention : Reuss Voigt Hill
#
# Bulk Modulus (GPa) = 41.99477 63.11815 52.55646
# Shear Modulus (GPa) = 13.85557 18.24190 16.04873
#
# Velocity S-wave (km/s) = 2.76836 3.17647 2.97941
# Velocity P-wave (km/s) = 5.78330 6.95451 6.39577
#
# Compressibility (1/GPa) = 0.02381249
#
# Stress axis : x y z
#
# Youngs Moduli (GPa) = 33.28922 42.62003 83.43004
#
# Poissons Ratio (x) = 0.23428 0.63947
# Poissons Ratio (y) = 0.18299 0.64046
# Poissons Ratio (z) = 0.25515 0.32718
#
# Static dielectric constant tensor:
#      x y z
#    x 3.044420 0.000000 0.000000 
#    y 0.000000 3.100170 0.000000 
#    z 0.000000 0.000000 3.834610 
# 
# 
# High freq. dielectric constant tensor:
#      x y z
#    x 1.663100 0.000000 0.000000 
#    y 0.000000 1.675640 0.000000 
#    z 0.000000 0.000000 1.727020 
# 
# From -- ./inp_files/73166.got.cif
#   From: 2010.03.12/outbox.cif.g09.slc.cpg/sg65_37_cif.got.tgz:73166.got - 2010.04.10 20:52:16.
