data_PCOD8270806
_publ_section_title
;
Structure prediction by ZEFSAII (Michael W. Deem and Ramdas Pophale) SiO2 
 PCOD8270806
Probable space group: C M M M
;
_chemical_formula_sum "Si O2"
_cell_formula_units_Z 96
_cell_length_a 9.019979
_cell_length_b 18.493828
_cell_length_c 30.639684
_cell_angle_alpha 90.000000
_cell_angle_beta 90.000000
_cell_angle_gamma 90.000000
_cell_volume 5111.126414
_symmetry_space_group_name_H-M "C M M M"
_symmetry_group_IT_number 65
_symmetry_cell_setting 'orthorhombic'
loop_
_space_group_symop_operation_xyz
x,y,z
-x,-y,z
x,-y,-z
-x,y,-z
-x,-y,-z
x,y,-z
-x,y,z
x,-y,z
1/2+x,1/2+y,z
1/2-x,1/2-y,z
1/2+x,1/2-y,-z
1/2-x,1/2+y,-z
1/2-x,1/2-y,-z
1/2+x,1/2+y,-z
1/2-x,1/2+y,z
1/2+x,1/2-y,z
loop_
_atom_site_type_symbol
_atom_site_label
_atom_site_fract_x
_atom_site_fract_y
_atom_site_fract_z
Si Si1 0.833732 0.585815 0.547956
Si Si2 0.326522 0.176044 0.949840
Si Si3 0.332568 0.414501 0.879998
Si Si4 0.824789 0.672425 0.291637
Si Si5 0.327147 0.083210 0.793092
Si Si6 0.670539 0.414568 0.367038
O O1 0.782427 0.614202 0.500000
O O2 0.833918 0.500000 0.547419
O O3 0.721516 0.613391 0.585171
O O4 0.000000 0.613843 0.558188
O O5 0.500000 0.183536 0.941717
O O6 0.250000 0.250000 0.934995
O O7 0.261825 0.111924 0.920987
O O8 0.289524 0.158002 0.000000
O O9 0.500000 0.385006 0.883051
O O10 0.327484 0.500000 0.881472
O O11 0.261738 0.386900 0.834808
O O12 0.750000 0.750000 0.292169
O O13 0.777393 0.631257 0.247689
O O14 0.770541 0.625011 0.331852
O O15 0.000000 0.681613 0.294997
O O16 0.500000 0.091440 0.803414
O O17 0.286406 0.000000 0.782746
O O18 0.500000 0.393090 0.360475
O O19 0.695615 0.500000 0.362000
#
# Coordination Sequence:
#
# PCOD8270806 Si02
#       6
#    16  16  16  16  16  16
#     4   8  14  26  46  73 104 137 174 216 260 307
#     4  10  21  37  57  80 108 144 184 225 268 315
#     4  10  21  36  56  83 113 144 177 217 265 315
#     4  11  23  38  56  78 106 140 178 220 266 316
#     4   9  19  37  59  80 104 138 179 221 266 317
#     4  10  20  33  52  79 109 141 177 218 264 314
#
# _framework density 18.782553
#
# number of rings (size 3 to 8) (size 9 to 14) (size 15 to 20)
#    0.000    2.333    0.000    3.000    0.000    6.333 
#    0.000    6.667    0.000    0.500    0.000    0.000 
#    0.000    0.000    0.000    0.000    0.000    0.000 
#
# Total GULP energy -595249.432710 kJ/mol
# GULP energy per Si atom -12401.029848 kJ/mol
# Density = 1.873980 g / cm^3
# Si number density = 18.782553 Si / 1000 Ang^3
#
#
#
# Elastic Constant Matrix: (Units=GPa)
#
#
# Indices 1 2 3 4 5 6 
#
# 1 94.5108 35.5719 65.1356 0.0000 0.0000 0.0000
# 2 35.5719 46.0846 46.0360 0.0000 0.0000 0.0000
# 3 65.1356 46.0360 139.5276 0.0000 0.0000 0.0000
# 4 0.0000 0.0000 0.0000 -0.2935 0.0000 0.0000
# 5 0.0000 0.0000 0.0000 0.0000 32.2095 0.0000
# 6 0.0000 0.0000 0.0000 0.0000 0.0000 28.0321
#
#
#
# Elastic Compliance Matrix: (Units=1/GPa)
#
#
# Indices 1 2 3 4 5 6 
#
# 1 0.017335 -0.007901 -0.005486 0.000000 0.000000 0.000000
# 2 -0.007901 0.035968 -0.008179 0.000000 0.000000 0.000000
# 3 -0.005486 -0.008179 0.012427 0.000000 0.000000 0.000000
# 4 0.000000 0.000000 0.000000 -3.407185 0.000000 0.000000
# 5 0.000000 0.000000 0.000000 0.000000 0.031047 0.000000
# 6 0.000000 0.000000 0.000000 0.000000 0.000000 0.035673
#
#
# Mechanical properties :
#
#
# Convention : Reuss Voigt Hill
#
# Bulk Modulus (GPa) = 44.25034 63.73446 53.99240
# Shear Modulus (GPa) = -1.55083 20.88158 9.66537
#
# Velocity S-wave (km/s) = -0.90965 3.33791 2.27093
# Velocity P-wave (km/s) = 4.74417 6.99014 5.97366
#
# Compressibility (1/GPa) = 0.02259869
#
# Stress axis : x y z
#
# Youngs Moduli (GPa) = 57.68601 27.80235 80.47246
#
# Poissons Ratio (x) = 0.21966 0.44146
# Poissons Ratio (y) = 0.45576 0.65819
# Poissons Ratio (z) = 0.31645 0.22740
#
# Static dielectric constant tensor:
#      x y z
#    x 3.585490 0.000000 0.000000 
#    y 0.000000 3.192660 0.000000 
#    z 0.000000 0.000000 3.695170 
# 
# 
# High freq. dielectric constant tensor:
#      x y z
#    x 1.738340 0.000000 0.000000 
#    y 0.000000 1.702150 0.000000 
#    z 0.000000 0.000000 1.743780 
# 
# From -- ./inp_files/73129.got.cif
#   From: 2010.03.12/outbox.cif.g09.slc.cpg/sg65_37_cif.got.tgz:73129.got - 2010.04.10 20:52:16.
