data_PCOD8270626
_publ_section_title
;
Structure prediction by ZEFSAII (Michael W. Deem and Ramdas Pophale) SiO2 
 PCOD8270626
Probable space group: C M M M
;
_chemical_formula_sum "Si O2"
_cell_formula_units_Z 72
_cell_length_a 18.069014
_cell_length_b 9.446102
_cell_length_c 23.301454
_cell_angle_alpha 90.000000
_cell_angle_beta 90.000000
_cell_angle_gamma 90.000000
_cell_volume 3977.132930
_symmetry_space_group_name_H-M "C M M M"
_symmetry_group_IT_number 65
_symmetry_cell_setting 'orthorhombic'
loop_
_space_group_symop_operation_xyz
x,y,z
-x,-y,z
x,-y,-z
-x,y,-z
-x,-y,-z
x,y,-z
-x,y,z
x,-y,z
1/2+x,1/2+y,z
1/2-x,1/2-y,z
1/2+x,1/2-y,-z
1/2-x,1/2+y,-z
1/2-x,1/2-y,-z
1/2+x,1/2+y,-z
1/2-x,1/2+y,z
1/2+x,1/2-y,z
loop_
_atom_site_type_symbol
_atom_site_label
_atom_site_fract_x
_atom_site_fract_y
_atom_site_fract_z
Si Si1 0.588038 0.658914 0.936427
Si Si2 0.174326 0.833588 0.390416
Si Si3 0.414387 0.663161 0.276643
Si Si4 0.582683 0.667916 0.500000
Si Si5 0.411772 0.159447 0.168301
O O1 0.500000 0.659818 0.933519
O O2 0.616705 0.500000 0.923893
O O3 0.620797 0.764839 0.888614
O O4 0.614024 0.708241 0.000000
O O5 0.250000 0.750000 0.390994
O O6 0.130868 0.795132 0.332781
O O7 0.125473 0.779162 0.443644
O O8 0.190670 0.000000 0.395064
O O9 0.500000 0.695209 0.289617
O O10 0.403095 0.500000 0.259490
O O11 0.383786 0.757530 0.224406
O O12 0.577282 0.500000 0.500000
O O13 0.500000 0.732947 0.500000
O O14 0.500000 0.161075 0.166504
O O15 0.380854 0.000000 0.170329
#
# Coordination Sequence:
#
# PCOD8270626 Si02
#       5
#    16  16  16   8  16
#     4   8  13  21  33  50  76 113 153 189 228 278
#     4  10  20  33  51  74  99 127 157 194 239 282
#     4   9  17  30  47  65  87 120 162 199 231 276
#     4   9  17  32  55  79 100 125 162 200 230 271
#     4   9  16  24  36  57  84 114 149 192 241 284
#
# _framework density 18.103494000000001
#
# number of rings (size 3 to 8) (size 9 to 14) (size 15 to 20)
#    0.000    3.000    0.000    2.333    0.000    6.667 
#    0.000    2.222    0.000    2.667    0.000    0.000 
#    0.000    0.889    0.000    2.889    0.000    5.778 
#
# Total GULP energy -446317.421745 kJ/mol
# GULP energy per Si atom -12397.706160 kJ/mol
# Density = 1.806229 g / cm^3
# Si number density = 18.103494 Si / 1000 Ang^3
#
#
#
# Elastic Constant Matrix: (Units=GPa)
#
#
# Indices 1 2 3 4 5 6 
#
# 1 68.3024 39.4706 58.1009 0.0000 0.0000 0.0000
# 2 39.4706 96.5387 91.6241 0.0000 0.0000 0.0000
# 3 58.1009 91.6241 197.1585 0.0000 0.0000 0.0000
# 4 0.0000 0.0000 0.0000 18.0400 0.0000 0.0000
# 5 0.0000 0.0000 0.0000 0.0000 0.5692 0.0000
# 6 0.0000 0.0000 0.0000 0.0000 0.0000 19.4530
#
#
#
# Elastic Compliance Matrix: (Units=1/GPa)
#
#
# Indices 1 2 3 4 5 6 
#
# 1 0.020704 -0.004785 -0.003878 0.000000 0.000000 0.000000
# 2 -0.004785 0.019638 -0.007716 0.000000 0.000000 0.000000
# 3 -0.003878 -0.007716 0.009801 0.000000 0.000000 0.000000
# 4 0.000000 0.000000 0.000000 0.055432 0.000000 0.000000
# 5 0.000000 0.000000 0.000000 0.000000 1.757002 0.000000
# 6 0.000000 0.000000 0.000000 0.000000 0.000000 0.051406
#
#
# Mechanical properties :
#
#
# Convention : Reuss Voigt Hill
#
# Bulk Modulus (GPa) = 57.51857 82.26563 69.89210
# Shear Modulus (GPa) = 2.56077 19.13271 10.84674
#
# Velocity S-wave (km/s) = 1.19063 3.25445 2.45041
# Velocity P-wave (km/s) = 5.80785 7.72415 6.83351
#
# Compressibility (1/GPa) = 0.01738569
#
# Stress axis : x y z
#
# Youngs Moduli (GPa) = 48.29885 50.92073 102.03242
#
# Poissons Ratio (x) = 0.24364 0.39566
# Poissons Ratio (y) = 0.23110 0.78732
# Poissons Ratio (z) = 0.18729 0.39292
#
# Static dielectric constant tensor:
#      x y z
#    x 2.875190 0.000000 0.000000 
#    y 0.000000 3.325190 0.000000 
#    z 0.000000 0.000000 3.665450 
# 
# 
# High freq. dielectric constant tensor:
#      x y z
#    x 1.649300 0.000000 0.000000 
#    y 0.000000 1.687410 0.000000 
#    z 0.000000 0.000000 1.721680 
# 
# From -- ./inp_files/67025.got.cif
#   From: 2010.03.12/outbox.cif.g09.slc.cpg/sg65_34_cif.got.tgz:67025.got - 2010.04.10 20:52:16.
