data_PCOD8270250
_publ_section_title
;
Structure prediction by ZEFSAII (Michael W. Deem and Ramdas Pophale) SiO2 
 PCOD8270250
Probable space group: C M M M
;
_chemical_formula_sum "Si O2"
_cell_formula_units_Z 120
_cell_length_a 27.399657
_cell_length_b 9.061269
_cell_length_c 26.315007
_cell_angle_alpha 90.000000
_cell_angle_beta 90.000000
_cell_angle_gamma 90.000000
_cell_volume 6533.375799
_symmetry_space_group_name_H-M "C M M M"
_symmetry_group_IT_number 65
_symmetry_cell_setting 'orthorhombic'
loop_
_space_group_symop_operation_xyz
x,y,z
-x,-y,z
x,-y,-z
-x,y,-z
-x,-y,-z
x,y,-z
-x,y,z
x,-y,z
1/2+x,1/2+y,z
1/2-x,1/2-y,z
1/2+x,1/2-y,-z
1/2-x,1/2+y,-z
1/2-x,1/2-y,-z
1/2+x,1/2+y,-z
1/2-x,1/2+y,z
1/2+x,1/2-y,z
loop_
_atom_site_type_symbol
_atom_site_label
_atom_site_fract_x
_atom_site_fract_y
_atom_site_fract_z
Si Si1 0.945211 0.670276 0.760212
Si Si2 0.602569 0.328308 0.851547
Si Si3 0.200819 0.826387 0.204315
Si Si4 0.698773 0.326781 0.500000
Si Si5 0.055663 0.672247 0.942034
Si Si6 0.358242 0.673129 0.600606
Si Si7 0.944610 0.332666 0.558711
Si Si8 0.651109 0.173473 0.703065
O O1 0.940618 0.500000 0.775745
O O2 0.934775 0.761954 0.810776
O O3 0.905634 0.708314 0.716628
O O4 0.000000 0.706935 0.740380
O O5 0.592057 0.500000 0.853769
O O6 0.658453 0.294200 0.836542
O O7 0.592978 0.260152 0.906642
O O8 0.250000 0.750000 0.183600
O O9 0.186898 0.752617 0.257682
O O10 0.208902 0.000000 0.212480
O O11 0.706519 0.500000 0.500000
O O12 0.750000 0.250000 0.500000
O O13 0.670198 0.276006 0.550211
O O14 0.062501 0.500000 0.931860
O O15 0.000000 0.718891 0.930099
O O16 0.068740 0.711635 0.000000
O O17 0.354768 0.500000 0.610904
O O18 0.414288 0.720066 0.593047
O O19 0.336054 0.759830 0.648279
O O20 0.939977 0.287616 0.500000
O O21 0.925831 0.500000 0.567145
O O22 0.000000 0.319450 0.577122
O O23 0.662050 0.000000 0.703272
#
# Coordination Sequence:
#
# PCOD8270250 Si02
#       8
#    16  16  16   8  16  16  16  16
#     4   9  18  33  52  74 104 142 180 214 250 302
#     4  10  20  32  50  79 110 139 176 224 273 317
#     4  10  21  38  58  80 105 135 174 223 274 327
#     4  10  24  42  59  78  99 127 164 205 251 308
#     4   9  18  32  50  75 110 152 193 226 258 305
#     4  11  22  38  56  79 109 137 168 211 260 313
#     4   9  18  33  54  79 104 134 173 210 246 298
#     4  10  21  36  55  80 107 139 174 212 260 311
#
# _framework density 18.367228000000001
#
# number of rings (size 3 to 8) (size 9 to 14) (size 15 to 20)
#    0.000    2.267    0.667    2.800    0.000    6.933 
#    0.000    4.000    0.000    0.400    0.000    0.000 
#    0.000    0.000    0.000    0.000    0.000    0.000 
#
# Total GULP energy -744112.305169 kJ/mol
# GULP energy per Si atom -12401.871753 kJ/mol
# Density = 1.832542 g / cm^3
# Si number density = 18.367228 Si / 1000 Ang^3
#
#
#
# Elastic Constant Matrix: (Units=GPa)
#
#
# Indices 1 2 3 4 5 6 
#
# 1 94.2941 46.2377 44.7346 0.0000 0.0000 0.0000
# 2 46.2377 83.7924 54.7884 0.0000 0.0000 0.0000
# 3 44.7346 54.7884 116.1882 0.0000 0.0000 0.0000
# 4 0.0000 0.0000 0.0000 33.0191 0.0000 0.0000
# 5 0.0000 0.0000 0.0000 0.0000 17.6087 0.0000
# 6 0.0000 0.0000 0.0000 0.0000 0.0000 32.1558
#
#
#
# Elastic Compliance Matrix: (Units=1/GPa)
#
#
# Indices 1 2 3 4 5 6 
#
# 1 0.015114 -0.006557 -0.002727 0.000000 0.000000 0.000000
# 2 -0.006557 0.020099 -0.006953 0.000000 0.000000 0.000000
# 3 -0.002727 -0.006953 0.012935 0.000000 0.000000 0.000000
# 4 0.000000 0.000000 0.000000 0.030285 0.000000 0.000000
# 5 0.000000 0.000000 0.000000 0.000000 0.056790 0.000000
# 6 0.000000 0.000000 0.000000 0.000000 0.000000 0.031099
#
#
# Mechanical properties :
#
#
# Convention : Reuss Voigt Hill
#
# Bulk Modulus (GPa) = 63.80027 65.08844 64.44435
# Shear Modulus (GPa) = 24.50717 26.45765 25.48241
#
# Velocity S-wave (km/s) = 3.65675 3.79949 3.72880
# Velocity P-wave (km/s) = 7.25537 7.40016 7.32812
#
# Compressibility (1/GPa) = 0.01567391
#
# Stress axis : x y z
#
# Youngs Moduli (GPa) = 66.16273 49.75438 77.30681
#
# Poissons Ratio (x) = 0.32624 0.21084
# Poissons Ratio (y) = 0.43382 0.53751
# Poissons Ratio (z) = 0.18045 0.34594
#
# Static dielectric constant tensor:
#      x y z
#    x 3.382730 0.000000 0.000000 
#    y 0.000000 3.410490 0.000000 
#    z 0.000000 0.000000 3.298180 
# 
# 
# High freq. dielectric constant tensor:
#      x y z
#    x 1.706600 0.000000 0.000000 
#    y 0.000000 1.716710 0.000000 
#    z 0.000000 0.000000 1.702260 
# 
# From -- ./inp_files/76101.got.cif
#   From: 2010.03.12/outbox.cif.g09.slc.cpg/sg65_39_cif.got.tgz:76101.got - 2010.04.10 20:52:16.
