data_PCOD8270251
_publ_section_title
;
Structure prediction by ZEFSAII (Michael W. Deem and Ramdas Pophale) SiO2 
 PCOD8270251
Probable space group: C M M M
;
_chemical_formula_sum "Si O2"
_cell_formula_units_Z 88
_cell_length_a 19.526100
_cell_length_b 13.515128
_cell_length_c 18.274630
_cell_angle_alpha 90.000000
_cell_angle_beta 90.000000
_cell_angle_gamma 90.000000
_cell_volume 4822.633572
_symmetry_space_group_name_H-M "C M M M"
_symmetry_group_IT_number 65
_symmetry_cell_setting 'orthorhombic'
loop_
_space_group_symop_operation_xyz
x,y,z
-x,-y,z
x,-y,-z
-x,y,-z
-x,-y,-z
x,y,-z
-x,y,z
x,-y,z
1/2+x,1/2+y,z
1/2-x,1/2-y,z
1/2+x,1/2-y,-z
1/2-x,1/2+y,-z
1/2-x,1/2-y,-z
1/2+x,1/2+y,-z
1/2-x,1/2+y,z
1/2+x,1/2-y,z
loop_
_atom_site_type_symbol
_atom_site_label
_atom_site_fract_x
_atom_site_fract_y
_atom_site_fract_z
Si Si1 0.342097 0.613516 0.082251
Si Si2 0.921884 0.105968 0.215278
Si Si3 0.582126 0.253320 0.658976
Si Si4 0.695850 0.883824 0.693249
Si Si5 0.817769 0.886629 0.417300
Si Si6 0.750000 0.750000 0.181832
O O1 0.316103 0.500000 0.079828
O O2 0.412608 0.623883 0.128342
O O3 0.291235 0.681036 0.127170
O O4 0.353370 0.653710 0.000000
O O5 0.892959 0.193310 0.265460
O O6 0.000000 0.097100 0.234845
O O7 0.886017 0.000000 0.235879
O O8 0.500000 0.238814 0.650298
O O9 0.621830 0.148430 0.659487
O O10 0.613398 0.321833 0.595069
O O11 0.756029 0.855111 0.636404
O O12 0.706759 0.825738 0.768804
O O13 0.693092 0.000000 0.708779
O O14 0.791953 0.869497 0.500000
O O15 0.838587 0.000000 0.404239
#
# Coordination Sequence:
#
# PCOD8270251 Si02
#       6
#    16  16  16  16  16   8
#     4  10  20  32  50  79 111 139 172 220 280 337
#     4   9  17  31  52  76 104 139 179 218 263 327
#     4  11  21  35  55  82 114 149 185 228 280 330
#     4  11  22  37  59  83 107 146 193 235 275 327
#     4  10  21  38  60  86 114 145 186 232 277 331
#     4  12  19  36  55  78 104 142 184 234 275 326
#
# _framework density 18.247291000000001
#
# number of rings (size 3 to 8) (size 9 to 14) (size 15 to 20)
#    0.000    1.636    3.636    1.364    0.000    6.545 
#    0.000    2.727    0.000    0.000    0.000    3.818 
#    0.000    2.909    0.000    0.000    0.000    0.000 
#
# Total GULP energy -545101.458436 kJ/mol
# GULP energy per Si atom -12388.669510 kJ/mol
# Density = 1.820576 g / cm^3
# Si number density = 18.247291 Si / 1000 Ang^3
#
#
#
# Elastic Constant Matrix: (Units=GPa)
#
#
# Indices 1 2 3 4 5 6 
#
# 1 79.5525 35.8052 20.3177 0.0000 0.0000 0.0000
# 2 35.8052 83.7907 26.5776 0.0000 0.0000 0.0000
# 3 20.3177 26.5776 97.0884 0.0000 0.0000 0.0000
# 4 0.0000 0.0000 0.0000 39.7435 0.0000 0.0000
# 5 0.0000 0.0000 0.0000 0.0000 13.4540 0.0000
# 6 0.0000 0.0000 0.0000 0.0000 0.0000 20.6043
#
#
#
# Elastic Compliance Matrix: (Units=1/GPa)
#
#
# Indices 1 2 3 4 5 6 
#
# 1 0.015786 -0.006240 -0.001596 0.000000 0.000000 0.000000
# 2 -0.006240 0.015536 -0.002947 0.000000 0.000000 0.000000
# 3 -0.001596 -0.002947 0.011441 0.000000 0.000000 0.000000
# 4 0.000000 0.000000 0.000000 0.025161 0.000000 0.000000
# 5 0.000000 0.000000 0.000000 0.000000 0.074327 0.000000
# 6 0.000000 0.000000 0.000000 0.000000 0.000000 0.048534
#
#
# Mechanical properties :
#
#
# Convention : Reuss Voigt Hill
#
# Bulk Modulus (GPa) = 47.17442 47.31474 47.24458
# Shear Modulus (GPa) = 22.78788 26.60910 24.69849
#
# Velocity S-wave (km/s) = 3.53772 3.82285 3.68304
# Velocity P-wave (km/s) = 6.52658 6.74326 6.63581
#
# Compressibility (1/GPa) = 0.02119793
#
# Stress axis : x y z
#
# Youngs Moduli (GPa) = 63.34664 64.36845 87.40858
#
# Poissons Ratio (x) = 0.40163 0.13946
# Poissons Ratio (y) = 0.39526 0.25760
# Poissons Ratio (z) = 0.10107 0.18970
#
# Static dielectric constant tensor:
#      x y z
#    x 3.654240 0.000000 0.000000 
#    y 0.000000 3.637030 0.000000 
#    z 0.000000 0.000000 3.488230 
# 
# 
# High freq. dielectric constant tensor:
#      x y z
#    x 1.691590 0.000000 0.000000 
#    y 0.000000 1.710240 0.000000 
#    z 0.000000 0.000000 1.708760 
# 
# From -- ./inp_files/40239.got.cif
#   From: 2010.03.12/outbox.cif.g09.slc.cpg/sg65_21_cif.got.tgz:40239.got - 2010.04.10 20:52:16.
