data_PCOD8270178
_publ_section_title
;
Structure prediction by ZEFSAII (Michael W. Deem and Ramdas Pophale) SiO2 
 PCOD8270178
Probable space group: C M M M
;
_chemical_formula_sum "Si O2"
_cell_formula_units_Z 88
_cell_length_a 26.520356
_cell_length_b 10.021828
_cell_length_c 18.435357
_cell_angle_alpha 90.000000
_cell_angle_beta 90.000000
_cell_angle_gamma 90.000000
_cell_volume 4899.794282
_symmetry_space_group_name_H-M "C M M M"
_symmetry_group_IT_number 65
_symmetry_cell_setting 'orthorhombic'
loop_
_space_group_symop_operation_xyz
x,y,z
-x,-y,z
x,-y,-z
-x,y,-z
-x,-y,-z
x,y,-z
-x,y,z
x,-y,z
1/2+x,1/2+y,z
1/2-x,1/2-y,z
1/2+x,1/2-y,-z
1/2-x,1/2+y,-z
1/2-x,1/2-y,-z
1/2+x,1/2+y,-z
1/2-x,1/2+y,z
1/2+x,1/2-y,z
loop_
_atom_site_type_symbol
_atom_site_label
_atom_site_fract_x
_atom_site_fract_y
_atom_site_fract_z
Si Si1 0.390408 0.846095 0.321382
Si Si2 0.206028 0.347856 0.085897
Si Si3 0.897266 0.342545 0.155566
Si Si4 0.794465 0.651108 0.417728
Si Si5 0.558830 0.645515 0.420653
Si Si6 0.500000 0.840932 0.916852
O O1 0.389872 0.798488 0.238496
O O2 0.337206 0.819083 0.359195
O O3 0.431272 0.757981 0.361792
O O4 0.406607 0.000000 0.328053
O O5 0.215455 0.500000 0.114121
O O6 0.250000 0.250000 0.115716
O O7 0.152012 0.291329 0.112560
O O8 0.205312 0.346131 0.000000
O O9 0.899957 0.500000 0.147813
O O10 0.949511 0.283475 0.122534
O O11 0.814066 0.676355 0.500000
O O12 0.774723 0.500000 0.409843
O O13 0.750000 0.750000 0.397414
O O14 0.580917 0.686032 0.500000
O O15 0.500000 0.630906 0.427384
O O16 0.581452 0.500000 0.397977
O O17 0.500000 0.000000 0.913005
O O18 0.500000 0.791765 0.000000
#
# Coordination Sequence:
#
# PCOD8270178 Si02
#       6
#    16  16  16  16  16   8
#     4  10  20  32  49  74 103 129 159 207 259 301
#     4   9  17  31  51  74 101 133 169 210 254 303
#     4   9  18  30  46  73 105 134 166 208 258 306
#     4   9  18  32  48  67  93 127 166 204 243 292
#     4   9  19  35  52  70  95 129 167 203 240 291
#     4   9  16  28  48  72 100 135 172 208 247 299
#
# _framework density 17.959937
#
# number of rings (size 3 to 8) (size 9 to 14) (size 15 to 20)
#    0.000    2.818    0.000    1.636    1.273    5.091 
#    0.000    3.636    0.000    0.000    0.000    0.000 
#    0.000    4.364    0.000    0.000    0.000    0.000 
#
# Total GULP energy -545349.003702 kJ/mol
# GULP energy per Si atom -12394.295539 kJ/mol
# Density = 1.791906 g / cm^3
# Si number density = 17.959937 Si / 1000 Ang^3
#
#
#
# Elastic Constant Matrix: (Units=GPa)
#
#
# Indices 1 2 3 4 5 6 
#
# 1 125.0675 43.6918 56.4294 0.0000 0.0000 0.0000
# 2 43.6918 55.6539 33.4448 0.0000 0.0000 0.0000
# 3 56.4294 33.4448 96.0352 0.0000 0.0000 0.0000
# 4 0.0000 0.0000 0.0000 9.0245 0.0000 0.0000
# 5 0.0000 0.0000 0.0000 0.0000 34.8424 0.0000
# 6 0.0000 0.0000 0.0000 0.0000 0.0000 28.5905
#
#
#
# Elastic Compliance Matrix: (Units=1/GPa)
#
#
# Indices 1 2 3 4 5 6 
#
# 1 0.012694 -0.006934 -0.005044 0.000000 0.000000 0.000000
# 2 -0.006934 0.026512 -0.005158 0.000000 0.000000 0.000000
# 3 -0.005044 -0.005158 0.015173 0.000000 0.000000 0.000000
# 4 0.000000 0.000000 0.000000 0.110810 0.000000 0.000000
# 5 0.000000 0.000000 0.000000 0.000000 0.028701 0.000000
# 6 0.000000 0.000000 0.000000 0.000000 0.000000 0.034977
#
#
# Mechanical properties :
#
#
# Convention : Reuss Voigt Hill
#
# Bulk Modulus (GPa) = 49.73729 60.43207 55.08468
# Shear Modulus (GPa) = 18.52940 24.03752 21.28346
#
# Velocity S-wave (km/s) = 3.21550 3.66238 3.44619
# Velocity P-wave (km/s) = 6.44512 7.18369 6.82440
#
# Compressibility (1/GPa) = 0.02010564
#
# Stress axis : x y z
#
# Youngs Moduli (GPa) = 78.77752 37.71868 65.90648
#
# Poissons Ratio (x) = 0.26156 0.33243
# Poissons Ratio (y) = 0.54628 0.33997
# Poissons Ratio (z) = 0.39735 0.19457
#
# Static dielectric constant tensor:
#      x y z
#    x 3.345680 0.000000 0.000000 
#    y 0.000000 3.335520 0.000000 
#    z 0.000000 0.000000 3.419230 
# 
# 
# High freq. dielectric constant tensor:
#      x y z
#    x 1.694590 0.000000 0.000000 
#    y 0.000000 1.664900 0.000000 
#    z 0.000000 0.000000 1.696330 
# 
# From -- ./inp_files/51440.got.cif
#   From: 2010.03.12/outbox.cif.g09.slc.cpg/sg65_26_cif.got.tgz:51440.got - 2010.04.10 20:52:16.
