data_PCOD8270583
_publ_section_title
;
Structure prediction by ZEFSAII (Michael W. Deem and Ramdas Pophale) SiO2 
 PCOD8270583
Probable space group: C M M M
;
_chemical_formula_sum "Si O2"
_cell_formula_units_Z 96
_cell_length_a 8.986374
_cell_length_b 30.447414
_cell_length_c 19.508212
_cell_angle_alpha 90.000000
_cell_angle_beta 90.000000
_cell_angle_gamma 90.000000
_cell_volume 5337.677966
_symmetry_space_group_name_H-M "C M M M"
_symmetry_group_IT_number 65
_symmetry_cell_setting 'orthorhombic'
loop_
_space_group_symop_operation_xyz
x,y,z
-x,-y,z
x,-y,-z
-x,y,-z
-x,-y,-z
x,y,-z
-x,y,z
x,-y,z
1/2+x,1/2+y,z
1/2-x,1/2-y,z
1/2+x,1/2-y,-z
1/2-x,1/2+y,-z
1/2-x,1/2-y,-z
1/2+x,1/2+y,-z
1/2-x,1/2+y,z
1/2+x,1/2-y,z
loop_
_atom_site_type_symbol
_atom_site_label
_atom_site_fract_x
_atom_site_fract_y
_atom_site_fract_z
Si Si1 0.669528 0.948983 0.921252
Si Si2 0.833447 0.792411 0.332805
Si Si3 0.676601 0.386448 0.818734
Si Si4 0.330344 0.449495 0.420061
Si Si5 0.675912 0.882276 0.324848
Si Si6 0.337337 0.290938 0.170404
O O1 0.500000 0.935744 0.903790
O O2 0.783855 0.922633 0.874556
O O3 0.694832 0.000000 0.906295
O O4 0.705366 0.938153 0.000000
O O5 0.750000 0.750000 0.364797
O O6 0.743392 0.836330 0.351335
O O7 0.843735 0.786475 0.251792
O O8 0.000000 0.795537 0.363882
O O9 0.500000 0.385277 0.805347
O O10 0.757068 0.397419 0.747711
O O11 0.732321 0.338749 0.846752
O O12 0.303528 0.441406 0.500000
O O13 0.500000 0.437238 0.400239
O O14 0.298600 0.500000 0.401121
O O15 0.214646 0.419721 0.379228
O O16 0.500000 0.877094 0.317820
O O17 0.500000 0.287945 0.137670
O O18 0.250000 0.250000 0.137481
#
# Coordination Sequence:
#
# PCOD8270583 Si02
#       6
#    16  16  16  16  16  16
#     4   9  19  36  55  74  98 129 165 205 252 308
#     4   9  16  28  46  70 101 134 169 207 248 296
#     4  10  20  33  50  75 104 132 167 210 251 294
#     4   9  19  37  58  76  97 130 170 210 255 307
#     4  11  21  32  50  77 107 137 169 208 254 300
#     4   8  15  26  42  66  95 126 159 197 239 284
#
# _framework density 17.98535
#
# number of rings (size 3 to 8) (size 9 to 14) (size 15 to 20)
#    0.000    2.667    0.000    4.500    0.000    6.667 
#    0.000    1.667    0.000    1.000    0.000    0.000 
#    0.000    0.000    0.000    0.000    0.000    0.000 
#
# Total GULP energy -595069.584872 kJ/mol
# GULP energy per Si atom -12397.283018 kJ/mol
# Density = 1.794441 g / cm^3
# Si number density = 17.985350 Si / 1000 Ang^3
#
#
#
# Elastic Constant Matrix: (Units=GPa)
#
#
# Indices 1 2 3 4 5 6 
#
# 1 117.7303 59.9702 37.6233 0.0000 0.0000 0.0000
# 2 59.9702 115.8671 51.1611 0.0000 0.0000 0.0000
# 3 37.6233 51.1611 49.2659 0.0000 0.0000 0.0000
# 4 0.0000 0.0000 0.0000 -5.3233 0.0000 0.0000
# 5 0.0000 0.0000 0.0000 0.0000 24.3971 0.0000
# 6 0.0000 0.0000 0.0000 0.0000 0.0000 35.2316
#
#
#
# Elastic Compliance Matrix: (Units=1/GPa)
#
#
# Indices 1 2 3 4 5 6 
#
# 1 0.012190 -0.004061 -0.005092 0.000000 0.000000 0.000000
# 2 -0.004061 0.017292 -0.014856 0.000000 0.000000 0.000000
# 3 -0.005092 -0.014856 0.039614 0.000000 0.000000 0.000000
# 4 0.000000 0.000000 0.000000 -0.187854 0.000000 0.000000
# 5 0.000000 0.000000 0.000000 0.000000 0.040988 0.000000
# 6 0.000000 0.000000 0.000000 0.000000 0.000000 0.028384
#
#
# Mechanical properties :
#
#
# Convention : Reuss Voigt Hill
#
# Bulk Modulus (GPa) = 47.44238 64.48583 55.96411
# Shear Modulus (GPa) = 883.66563 19.80168 451.73365
#
# Velocity S-wave (km/s) = 22.18990 3.32172 15.86546
# Velocity P-wave (km/s) = 26.13347 7.11647 19.15205
#
# Compressibility (1/GPa) = 0.02107820
#
# Stress axis : x y z
#
# Youngs Moduli (GPa) = 82.03602 57.83002 25.24336
#
# Poissons Ratio (x) = 0.23483 0.12854
# Poissons Ratio (y) = 0.33313 0.37502
# Poissons Ratio (z) = 0.41774 0.85913
#
# Static dielectric constant tensor:
#      x y z
#    x 3.399250 0.000000 0.000000 
#    y 0.000000 3.506980 0.000000 
#    z 0.000000 0.000000 2.867330 
# 
# 
# High freq. dielectric constant tensor:
#      x y z
#    x 1.700620 0.000000 0.000000 
#    y 0.000000 1.709850 0.000000 
#    z 0.000000 0.000000 1.649700 
# 
# From -- ./inp_files/60308.got.cif
#   From: 2010.03.12/outbox.cif.g09.slc.cpg/sg65_31_cif.got.tgz:60308.got - 2010.04.10 20:52:16.
