data_PCOD8270717
_publ_section_title
;
Structure prediction by ZEFSAII (Michael W. Deem and Ramdas Pophale) SiO2 
 PCOD8270717
Probable space group: C M M M
;
_chemical_formula_sum "Si O2"
_cell_formula_units_Z 104
_cell_length_a 21.251827
_cell_length_b 28.262371
_cell_length_c 8.542049
_cell_angle_alpha 90.000000
_cell_angle_beta 90.000000
_cell_angle_gamma 90.000000
_cell_volume 5130.585428
_symmetry_space_group_name_H-M "C M M M"
_symmetry_group_IT_number 65
_symmetry_cell_setting 'orthorhombic'
loop_
_space_group_symop_operation_xyz
x,y,z
-x,-y,z
x,-y,-z
-x,y,-z
-x,-y,-z
x,y,-z
-x,y,z
x,-y,z
1/2+x,1/2+y,z
1/2-x,1/2-y,z
1/2+x,1/2-y,-z
1/2-x,1/2+y,-z
1/2-x,1/2-y,-z
1/2+x,1/2+y,-z
1/2-x,1/2+y,z
1/2+x,1/2-y,z
loop_
_atom_site_type_symbol
_atom_site_label
_atom_site_fract_x
_atom_site_fract_y
_atom_site_fract_z
Si Si1 0.430257 0.777634 0.321833
Si Si2 0.180873 0.946385 0.320940
Si Si3 0.645507 0.687720 0.316028
Si Si4 0.500000 0.945754 0.812908
Si Si5 0.103875 0.626370 0.182793
Si Si6 0.256322 0.135787 0.182542
Si Si7 0.428940 0.398324 0.183548
O O1 0.417353 0.793222 0.500000
O O2 0.500000 0.754653 0.305817
O O3 0.376971 0.740263 0.267405
O O4 0.429484 0.823898 0.214672
O O5 0.191138 0.930468 0.500000
O O6 0.221886 0.914058 0.206825
O O7 0.107813 0.939822 0.275075
O O8 0.201852 0.000000 0.294958
O O9 0.635638 0.679638 0.500000
O O10 0.718526 0.678283 0.269866
O O11 0.602109 0.651980 0.220316
O O12 0.561934 0.917370 0.749947
O O13 0.500000 0.000000 0.749184
O O14 0.500000 0.945731 0.000000
O O15 0.174007 0.629306 0.256120
O O16 0.110193 0.618043 0.000000
O O17 0.258838 0.148422 0.000000
O O18 0.500000 0.398488 0.244974
O O19 0.425274 0.408141 0.000000
#
# Coordination Sequence:
#
# PCOD8270717 Si02
#       7
#    16  16  16   8  16  16  16
#     4  10  21  36  56  82 112 147 185 227 273 326
#     4  10  21  36  54  76 103 140 184 227 274 329
#     4  10  20  35  55  79 109 149 191 227 271 325
#     4   9  18  36  61  87 113 141 181 229 278 337
#     4  10  21  37  59  85 111 143 180 224 277 332
#     4  10  21  36  55  81 111 143 183 229 280 333
#     4  10  20  33  51  77 108 142 182 229 279 325
#
# _framework density 20.270592000000001
#
# number of rings (size 3 to 8) (size 9 to 14) (size 15 to 20)
#    0.000    2.077    0.769    4.154    0.000    7.077 
#    0.000    6.154    0.000    0.923    0.000    0.000 
#    0.000    0.000    0.000    0.000    0.000    0.000 
#
# Total GULP energy -644655.273823 kJ/mol
# GULP energy per Si atom -12397.216804 kJ/mol
# Density = 2.022446 g / cm^3
# Si number density = 20.270592 Si / 1000 Ang^3
#
#
#
# Elastic Constant Matrix: (Units=GPa)
#
#
# Indices 1 2 3 4 5 6 
#
# 1 152.5134 52.5186 12.7436 0.0000 0.0000 0.0000
# 2 52.5186 120.9694 10.4761 0.0000 0.0000 0.0000
# 3 12.7436 10.4761 29.3372 0.0000 0.0000 0.0000
# 4 0.0000 0.0000 0.0000 28.2658 0.0000 0.0000
# 5 0.0000 0.0000 0.0000 0.0000 19.5236 0.0000
# 6 0.0000 0.0000 0.0000 0.0000 0.0000 24.0282
#
#
#
# Elastic Compliance Matrix: (Units=1/GPa)
#
#
# Indices 1 2 3 4 5 6 
#
# 1 0.007852 -0.003213 -0.002264 0.000000 0.000000 0.000000
# 2 -0.003213 0.009845 -0.002120 0.000000 0.000000 0.000000
# 3 -0.002264 -0.002120 0.035827 0.000000 0.000000 0.000000
# 4 0.000000 0.000000 0.000000 0.035378 0.000000 0.000000
# 5 0.000000 0.000000 0.000000 0.000000 0.051220 0.000000
# 6 0.000000 0.000000 0.000000 0.000000 0.000000 0.041618
#
#
# Mechanical properties :
#
#
# Convention : Reuss Voigt Hill
#
# Bulk Modulus (GPa) = 26.08851 50.47742 38.28296
# Shear Modulus (GPa) = 23.84239 29.50230 26.67234
#
# Velocity S-wave (km/s) = 3.43331 3.81914 3.63135
# Velocity P-wave (km/s) = 5.34929 6.66361 6.04229
#
# Compressibility (1/GPa) = 0.03833106
#
# Stress axis : x y z
#
# Youngs Moduli (GPa) = 127.35012 101.57359 27.91212
#
# Poissons Ratio (x) = 0.32636 0.06318
# Poissons Ratio (y) = 0.40918 0.05917
# Poissons Ratio (z) = 0.28827 0.21533
#
# Static dielectric constant tensor:
#      x y z
#    x 4.072390 0.000000 0.000000 
#    y 0.000000 3.584850 0.000000 
#    z 0.000000 0.000000 3.471390 
# 
# 
# High freq. dielectric constant tensor:
#      x y z
#    x 1.800370 0.000000 0.000000 
#    y 0.000000 1.782010 0.000000 
#    z 0.000000 0.000000 1.778050 
# 
# From -- ./inp_files/12827.got.cif
#   From: 2010.03.12/outbox.cif.g09.slc.cpg/sg65_7_cif.got.tgz:12827.got - 2010.04.10 20:52:16.
