data_PCOD8270010
_publ_section_title
;
Structure prediction by ZEFSAII (Michael W. Deem and Ramdas Pophale) SiO2 
 PCOD8270010
Probable space group: C M M M
;
_chemical_formula_sum "Si O2"
_cell_formula_units_Z 104
_cell_length_a 29.326176
_cell_length_b 9.054340
_cell_length_c 20.445427
_cell_angle_alpha 90.000000
_cell_angle_beta 90.000000
_cell_angle_gamma 90.000000
_cell_volume 5428.857229
_symmetry_space_group_name_H-M "C M M M"
_symmetry_group_IT_number 65
_symmetry_cell_setting 'orthorhombic'
loop_
_space_group_symop_operation_xyz
x,y,z
-x,-y,z
x,-y,-z
-x,y,-z
-x,-y,-z
x,y,-z
-x,y,z
x,-y,z
1/2+x,1/2+y,z
1/2-x,1/2-y,z
1/2+x,1/2-y,-z
1/2-x,1/2+y,-z
1/2-x,1/2-y,-z
1/2+x,1/2+y,-z
1/2-x,1/2+y,z
1/2+x,1/2-y,z
loop_
_atom_site_type_symbol
_atom_site_label
_atom_site_fract_x
_atom_site_fract_y
_atom_site_fract_z
Si Si1 0.446999 0.832475 0.675023
Si Si2 0.384701 0.330935 0.426925
Si Si3 0.200150 0.677153 0.000000
Si Si4 0.796698 0.326118 0.613681
Si Si5 0.295131 0.828562 0.763042
Si Si6 0.049958 0.323892 0.822716
Si Si7 0.858312 0.325651 0.122135
O O1 0.500000 0.827640 0.656881
O O2 0.420749 0.730186 0.624506
O O3 0.439282 0.771793 0.748639
O O4 0.428145 0.000000 0.668941
O O5 0.405480 0.317991 0.500000
O O6 0.373832 0.500000 0.408895
O O7 0.337985 0.238910 0.427555
O O8 0.250000 0.750000 0.000000
O O9 0.170936 0.737437 0.061792
O O10 0.205976 0.500000 0.000000
O O11 0.792419 0.500000 0.601843
O O12 0.750000 0.250000 0.590457
O O13 0.807256 0.285524 0.689104
O O14 0.250000 0.750000 0.788500
O O15 0.336032 0.777033 0.809435
O O16 0.285455 0.000000 0.770160
O O17 0.048969 0.500000 0.821416
O O18 0.089198 0.266844 0.873062
O O19 0.000000 0.264335 0.845249
O O20 0.859218 0.500000 0.113963
#
# Coordination Sequence:
#
# PCOD8270010 Si02
#       7
#    16  16   8  16  16  16  16
#     4   9  18  34  57  81 101 126 164 208 254 304
#     4  11  24  38  51  71 101 136 170 203 246 302
#     4  10  20  32  47  69 101 139 174 204 237 284
#     4  10  20  35  55  76  98 127 166 213 262 308
#     4   9  17  29  47  70  95 122 156 201 249 294
#     4   8  14  27  49  75 100 125 157 201 252 300
#     4   9  16  27  44  68  99 133 165 199 241 286
#
# _framework density 19.156884999999999
#
# number of rings (size 3 to 8) (size 9 to 14) (size 15 to 20)
#    0.000    2.615    0.000    3.231    0.000    5.231 
#    0.000    1.923    0.000    3.231    0.000    0.000 
#    0.000    0.615    0.000    0.000    0.000    0.000 
#
# Total GULP energy -644566.556241 kJ/mol
# GULP energy per Si atom -12395.510697 kJ/mol
# Density = 1.911328 g / cm^3
# Si number density = 19.156885 Si / 1000 Ang^3
#
#
#
# Elastic Constant Matrix: (Units=GPa)
#
#
# Indices 1 2 3 4 5 6 
#
# 1 137.0873 32.6100 63.4857 0.0000 0.0000 0.0000
# 2 32.6100 51.7228 22.2369 0.0000 0.0000 0.0000
# 3 63.4857 22.2369 80.4820 0.0000 0.0000 0.0000
# 4 0.0000 0.0000 0.0000 15.1141 0.0000 0.0000
# 5 0.0000 0.0000 0.0000 0.0000 46.4126 0.0000
# 6 0.0000 0.0000 0.0000 0.0000 0.0000 28.8549
#
#
#
# Elastic Compliance Matrix: (Units=1/GPa)
#
#
# Indices 1 2 3 4 5 6 
#
# 1 0.012191 -0.004031 -0.008503 0.000000 0.000000 0.000000
# 2 -0.004031 0.023273 -0.003251 0.000000 0.000000 0.000000
# 3 -0.008503 -0.003251 0.020031 0.000000 0.000000 0.000000
# 4 0.000000 0.000000 0.000000 0.066164 0.000000 0.000000
# 5 0.000000 0.000000 0.000000 0.000000 0.021546 0.000000
# 6 0.000000 0.000000 0.000000 0.000000 0.000000 0.034656
#
#
# Mechanical properties :
#
#
# Convention : Reuss Voigt Hill
#
# Bulk Modulus (GPa) = 41.79594 56.21748 49.00671
# Shear Modulus (GPa) = 22.99866 28.14027 25.56947
#
# Velocity S-wave (km/s) = 3.46864 3.83683 3.65737
# Velocity P-wave (km/s) = 6.15687 7.00271 6.59337
#
# Compressibility (1/GPa) = 0.02392577
#
# Stress axis : x y z
#
# Youngs Moduli (GPa) = 82.02642 42.96892 49.92353
#
# Poissons Ratio (x) = 0.17319 0.42450
# Poissons Ratio (y) = 0.33062 0.16229
# Poissons Ratio (z) = 0.69747 0.13968
#
# Static dielectric constant tensor:
#      x y z
#    x 3.829520 0.000000 0.000000 
#    y 0.000000 3.172570 0.000000 
#    z 0.000000 0.000000 3.531100 
# 
# 
# High freq. dielectric constant tensor:
#      x y z
#    x 1.756900 0.000000 0.000000 
#    y 0.000000 1.706180 0.000000 
#    z 0.000000 0.000000 1.737410 
# 
# From -- ./inp_files/60810.got.cif
#   From: 2010.03.12/outbox.cif.g09.slc.cpg/sg65_31_cif.got.tgz:60810.got - 2010.04.10 20:52:16.
