data_PCOD8270430
_publ_section_title
;
Structure prediction by ZEFSAII (Michael W. Deem and Ramdas Pophale) SiO2 
 PCOD8270430
Probable space group: C M M M
;
_chemical_formula_sum "Si O2"
_cell_formula_units_Z 80
_cell_length_a 21.124245
_cell_length_b 14.299122
_cell_length_c 13.453947
_cell_angle_alpha 90.000000
_cell_angle_beta 90.000000
_cell_angle_gamma 90.000000
_cell_volume 4063.874427
_symmetry_space_group_name_H-M "C M M M"
_symmetry_group_IT_number 65
_symmetry_cell_setting 'orthorhombic'
loop_
_space_group_symop_operation_xyz
x,y,z
-x,-y,z
x,-y,-z
-x,y,-z
-x,-y,-z
x,y,-z
-x,y,z
x,-y,z
1/2+x,1/2+y,z
1/2-x,1/2-y,z
1/2+x,1/2-y,-z
1/2-x,1/2+y,-z
1/2-x,1/2-y,-z
1/2+x,1/2+y,-z
1/2-x,1/2+y,z
1/2+x,1/2-y,z
loop_
_atom_site_type_symbol
_atom_site_label
_atom_site_fract_x
_atom_site_fract_y
_atom_site_fract_z
Si Si1 0.926305 0.713418 0.211883
Si Si2 0.257633 0.388934 0.694523
Si Si3 0.845940 0.262171 0.613795
Si Si4 0.683972 0.109630 0.110713
Si Si5 0.574787 0.399168 0.109899
O O1 0.909327 0.704853 0.328493
O O2 0.885063 0.644849 0.144328
O O3 0.904798 0.818183 0.183472
O O4 0.000000 0.691766 0.193427
O O5 0.265226 0.500000 0.677086
O O6 0.203948 0.347214 0.621499
O O7 0.321161 0.333592 0.665605
O O8 0.238307 0.363655 0.808904
O O9 0.863232 0.242703 0.500000
O O10 0.677134 0.000000 0.106809
O O11 0.701312 0.148174 0.000000
O O12 0.500000 0.403937 0.102675
O O13 0.601171 0.500000 0.148685
O O14 0.602691 0.379575 0.000000
#
# Coordination Sequence:
#
# PCOD8270430 Si02
#       5
#    16  16  16  16  16
#     4  10  20  33  49  72 105 141 173 207 248 297
#     4   9  18  35  57  78 101 128 163 213 267 312
#     4  10  21  35  52  76 100 129 175 219 259 308
#     4   9  18  33  54  80 108 136 166 203 251 309
#     4   8  14  26  44  64  88 122 162 199 235 280
#
# _framework density 19.685648
#
# number of rings (size 3 to 8) (size 9 to 14) (size 15 to 20)
#    0.000    2.800    0.000    2.400    0.000    4.400 
#    0.000   10.000    0.000    2.400    0.000    9.800 
#    0.000    0.000    0.000    0.000    0.000    0.000 
#
# Total GULP energy -495626.902794 kJ/mol
# GULP energy per Si atom -12390.672570 kJ/mol
# Density = 1.964084 g / cm^3
# Si number density = 19.685648 Si / 1000 Ang^3
#
#
#
# Elastic Constant Matrix: (Units=GPa)
#
#
# Indices 1 2 3 4 5 6 
#
# 1 17.3009 -0.4884 21.0419 0.0000 0.0000 0.0000
# 2 -0.4884 50.3092 22.9595 0.0000 0.0000 0.0000
# 3 21.0419 22.9595 138.1388 0.0000 0.0000 0.0000
# 4 0.0000 0.0000 0.0000 21.8567 0.0000 0.0000
# 5 0.0000 0.0000 0.0000 0.0000 14.8491 0.0000
# 6 0.0000 0.0000 0.0000 0.0000 0.0000 18.8906
#
#
#
# Elastic Compliance Matrix: (Units=1/GPa)
#
#
# Indices 1 2 3 4 5 6 
#
# 1 0.072706 0.006233 -0.012111 0.000000 0.000000 0.000000
# 2 0.006233 0.022043 -0.004613 0.000000 0.000000 0.000000
# 3 -0.012111 -0.004613 0.009851 0.000000 0.000000 0.000000
# 4 0.000000 0.000000 0.000000 0.045753 0.000000 0.000000
# 5 0.000000 0.000000 0.000000 0.000000 0.067344 0.000000
# 6 0.000000 0.000000 0.000000 0.000000 0.000000 0.052936
#
#
# Mechanical properties :
#
#
# Convention : Reuss Voigt Hill
#
# Bulk Modulus (GPa) = 11.95925 32.53054 22.24490
# Shear Modulus (GPa) = 15.65008 21.93499 18.79254
#
# Velocity S-wave (km/s) = 2.82263 3.34168 3.09306
# Velocity P-wave (km/s) = 4.08795 5.60803 4.90720
#
# Compressibility (1/GPa) = 0.08361726
#
# Stress axis : x y z
#
# Youngs Moduli (GPa) = 13.75404 45.36618 101.51688
#
# Poissons Ratio (x) = -0.28276 1.22945
# Poissons Ratio (y) = -0.08573 0.46830
# Poissons Ratio (z) = 0.16657 0.20928
#
# Static dielectric constant tensor:
#      x y z
#    x 3.226800 0.000000 0.000000 
#    y 0.000000 3.917070 0.000000 
#    z 0.000000 0.000000 3.776350 
# 
# 
# High freq. dielectric constant tensor:
#      x y z
#    x 1.740110 0.000000 0.000000 
#    y 0.000000 1.770890 0.000000 
#    z 0.000000 0.000000 1.763970 
# 
# From -- ./inp_files/24632.got.cif
#   From: 2010.03.12/outbox.cif.g09.slc.cpg/sg65_13_cif.got.tgz:24632.got - 2010.04.10 20:52:16.
