data_PCOD8270089
_publ_section_title
;
Structure prediction by ZEFSAII (Michael W. Deem and Ramdas Pophale) SiO2 
 PCOD8270089
Probable space group: C M M M
;
_chemical_formula_sum "Si O2"
_cell_formula_units_Z 56
_cell_length_a 9.314922
_cell_length_b 33.537308
_cell_length_c 10.328011
_cell_angle_alpha 90.000000
_cell_angle_beta 90.000000
_cell_angle_gamma 90.000000
_cell_volume 3226.443867
_symmetry_space_group_name_H-M "C M M M"
_symmetry_group_IT_number 65
_symmetry_cell_setting 'orthorhombic'
loop_
_space_group_symop_operation_xyz
x,y,z
-x,-y,z
x,-y,-z
-x,y,-z
-x,-y,-z
x,y,-z
-x,y,z
x,-y,z
1/2+x,1/2+y,z
1/2-x,1/2-y,z
1/2+x,1/2-y,-z
1/2-x,1/2+y,-z
1/2-x,1/2-y,-z
1/2+x,1/2+y,-z
1/2-x,1/2+y,z
1/2+x,1/2-y,z
loop_
_atom_site_type_symbol
_atom_site_label
_atom_site_fract_x
_atom_site_fract_y
_atom_site_fract_z
Si Si1 0.667291 0.709202 0.000000
Si Si2 0.171269 0.586189 0.148669
Si Si3 0.668403 0.291566 0.500000
Si Si4 0.332038 0.341171 0.751299
Si Si5 0.343500 0.000000 0.153002
O O1 0.750000 0.750000 0.000000
O O2 0.713613 0.684855 0.874090
O O3 0.500000 0.718975 0.000000
O O4 0.245326 0.617539 0.244388
O O5 0.232067 0.542054 0.190710
O O6 0.000000 0.587875 0.164256
O O7 0.214896 0.595439 0.000000
O O8 0.500000 0.282159 0.500000
O O9 0.750000 0.250000 0.500000
O O10 0.714295 0.317004 0.375449
O O11 0.500000 0.351259 0.751470
O O12 0.500000 0.000000 0.219119
O O13 0.364292 0.000000 0.000000
#
# Coordination Sequence:
#
# PCOD8270089 Si02
#       5
#     8  16   8  16   8
#     4  10  20  32  48  69  94 121 153 198 245 286
#     4   9  16  28  49  76 102 130 163 199 241 289
#     4  10  22  38  54  71  96 131 167 204 247 294
#     4  10  20  34  50  71 100 129 159 201 248 291
#     4   7  12  24  43  70 103 130 156 196 241 282
#
# _framework density 17.356570999999999
#
# number of rings (size 3 to 8) (size 9 to 14) (size 15 to 20)
#    0.000    2.714    1.429    2.571    0.000    2.286 
#    0.000    0.714    0.000    3.429    0.000    6.000 
#    0.000    0.000    0.000    0.000    0.000    0.000 
#
# Total GULP energy -347025.000728 kJ/mol
# GULP energy per Si atom -12393.750026 kJ/mol
# Density = 1.731707 g / cm^3
# Si number density = 17.356571 Si / 1000 Ang^3
#
#
#
# Elastic Constant Matrix: (Units=GPa)
#
#
# Indices 1 2 3 4 5 6 
#
# 1 35.6549 59.1801 28.4600 0.0000 0.0000 0.0000
# 2 59.1801 193.3039 74.1377 0.0000 0.0000 0.0000
# 3 28.4600 74.1377 111.8792 0.0000 0.0000 0.0000
# 4 0.0000 0.0000 0.0000 22.1547 0.0000 0.0000
# 5 0.0000 0.0000 0.0000 0.0000 10.6226 0.0000
# 6 0.0000 0.0000 0.0000 0.0000 0.0000 26.8304
#
#
#
# Elastic Compliance Matrix: (Units=1/GPa)
#
#
# Indices 1 2 3 4 5 6 
#
# 1 0.058347 -0.016317 -0.004029 0.000000 0.000000 0.000000
# 2 -0.016317 0.011499 -0.003469 0.000000 0.000000 0.000000
# 3 -0.004029 -0.003469 0.012262 0.000000 0.000000 0.000000
# 4 0.000000 0.000000 0.000000 0.045137 0.000000 0.000000
# 5 0.000000 0.000000 0.000000 0.000000 0.094139 0.000000
# 6 0.000000 0.000000 0.000000 0.000000 0.000000 0.037271
#
#
# Mechanical properties :
#
#
# Convention : Reuss Voigt Hill
#
# Bulk Modulus (GPa) = 29.00578 73.82152 51.41365
# Shear Modulus (GPa) = 15.73415 23.85887 19.79651
#
# Velocity S-wave (km/s) = 3.01412 3.71162 3.38091
# Velocity P-wave (km/s) = 5.37226 7.80979 6.70276
#
# Compressibility (1/GPa) = 0.03447588
#
# Stress axis : x y z
#
# Youngs Moduli (GPa) = 17.13893 86.96110 81.55152
#
# Poissons Ratio (x) = 1.41899 0.32860
# Poissons Ratio (y) = 0.27966 0.28293
# Poissons Ratio (z) = 0.06906 0.30169
#
# Static dielectric constant tensor:
#      x y z
#    x 2.972790 0.000000 0.000000 
#    y 0.000000 3.519760 0.000000 
#    z 0.000000 0.000000 2.992620 
# 
# 
# High freq. dielectric constant tensor:
#      x y z
#    x 1.645950 0.000000 0.000000 
#    y 0.000000 1.691060 0.000000 
#    z 0.000000 0.000000 1.642800 
# 
# From -- ./inp_files/20814.got.cif
#   From: 2010.03.12/outbox.cif.g09.slc.cpg/sg65_11_cif.got.tgz:20814.got - 2010.04.10 20:52:16.
