data_PCOD8270708
_publ_section_title
;
Structure prediction by ZEFSAII (Michael W. Deem and Ramdas Pophale) SiO2 
 PCOD8270708
Probable space group: C M M M
;
_chemical_formula_sum "Si O2"
_cell_formula_units_Z 104
_cell_length_a 21.030473
_cell_length_b 28.716254
_cell_length_c 9.139197
_cell_angle_alpha 90.000000
_cell_angle_beta 90.000000
_cell_angle_gamma 90.000000
_cell_volume 5519.310991
_symmetry_space_group_name_H-M "C M M M"
_symmetry_group_IT_number 65
_symmetry_cell_setting 'orthorhombic'
loop_
_space_group_symop_operation_xyz
x,y,z
-x,-y,z
x,-y,-z
-x,y,-z
-x,-y,-z
x,y,-z
-x,y,z
x,-y,z
1/2+x,1/2+y,z
1/2-x,1/2-y,z
1/2+x,1/2-y,-z
1/2-x,1/2+y,-z
1/2-x,1/2-y,-z
1/2+x,1/2+y,-z
1/2-x,1/2+y,z
1/2+x,1/2-y,z
loop_
_atom_site_type_symbol
_atom_site_label
_atom_site_fract_x
_atom_site_fract_y
_atom_site_fract_z
Si Si1 0.324186 0.701091 0.171190
Si Si2 0.266411 0.054488 0.165100
Si Si3 0.374723 0.892198 0.673678
Si Si4 0.000000 0.446690 0.673626
Si Si5 0.570305 0.642318 0.331151
Si Si6 0.859023 0.052103 0.333913
Si Si7 0.680630 0.807217 0.828309
O O1 0.377616 0.671737 0.248729
O O2 0.331863 0.754450 0.222190
O O3 0.254274 0.680896 0.210433
O O4 0.335163 0.697930 0.000000
O O5 0.316073 0.077458 0.273237
O O6 0.196492 0.066243 0.222700
O O7 0.279469 0.000000 0.167697
O O8 0.273118 0.074444 0.000000
O O9 0.374017 0.887837 0.500000
O O10 0.438650 0.917933 0.729191
O O11 0.368016 0.840602 0.741839
O O12 0.000000 0.500000 0.736282
O O13 0.000000 0.449516 0.500000
O O14 0.574113 0.656217 0.500000
O O15 0.500000 0.652934 0.268672
O O16 0.582963 0.587349 0.309194
O O17 0.832703 0.055604 0.500000
O O18 0.883978 0.000000 0.301053
O O19 0.668341 0.813369 0.000000
#
# Coordination Sequence:
#
# PCOD8270708 Si02
#       7
#    16  16  16   8  16  16  16
#     4   9  19  37  59  80 105 140 178 217 266 325
#     4  10  20  33  51  77 108 139 173 219 271 315
#     4  11  21  34  55  81 106 139 179 221 269 322
#     4   9  20  38  55  73 105 147 185 219 260 319
#     4  10  21  35  51  76 109 143 178 218 262 307
#     4   9  18  33  53  77 105 139 180 221 262 313
#     4   9  19  37  59  82 107 134 171 222 274 320
#
# _framework density 18.842931
#
# number of rings (size 3 to 8) (size 9 to 14) (size 15 to 20)
#    0.000    2.385    0.000    3.231    0.000    6.462 
#    1.385    4.615    0.000    2.769    0.000    3.231 
#    0.000    0.000    0.000    0.000    0.000    0.000 
#
# Total GULP energy -644725.525467 kJ/mol
# GULP energy per Si atom -12398.567797 kJ/mol
# Density = 1.880004 g / cm^3
# Si number density = 18.842931 Si / 1000 Ang^3
#
#
#
# Elastic Constant Matrix: (Units=GPa)
#
#
# Indices 1 2 3 4 5 6 
#
# 1 98.9840 72.6198 33.6108 0.0000 0.0000 0.0000
# 2 72.6198 97.5523 41.0915 0.0000 0.0000 0.0000
# 3 33.6108 41.0915 52.3539 0.0000 0.0000 0.0000
# 4 0.0000 0.0000 0.0000 31.6314 0.0000 0.0000
# 5 0.0000 0.0000 0.0000 0.0000 10.2333 0.0000
# 6 0.0000 0.0000 0.0000 0.0000 0.0000 28.4993
#
#
#
# Elastic Compliance Matrix: (Units=1/GPa)
#
#
# Indices 1 2 3 4 5 6 
#
# 1 0.022389 -0.015854 -0.001930 0.000000 0.000000 0.000000
# 2 -0.015854 0.026540 -0.010653 0.000000 0.000000 0.000000
# 3 -0.001930 -0.010653 0.028701 0.000000 0.000000 0.000000
# 4 0.000000 0.000000 0.000000 0.031614 0.000000 0.000000
# 5 0.000000 0.000000 0.000000 0.000000 0.097720 0.000000
# 6 0.000000 0.000000 0.000000 0.000000 0.000000 0.035089
#
#
# Mechanical properties :
#
#
# Convention : Reuss Voigt Hill
#
# Bulk Modulus (GPa) = 48.17742 60.39272 54.28507
# Shear Modulus (GPa) = 16.34806 20.84399 18.59603
#
# Velocity S-wave (km/s) = 2.94869 3.32956 3.14490
# Velocity P-wave (km/s) = 6.10053 6.84847 6.48529
#
# Compressibility (1/GPa) = 0.02075661
#
# Stress axis : x y z
#
# Youngs Moduli (GPa) = 44.66397 37.67884 34.84194
#
# Poissons Ratio (x) = 0.59736 0.06726
# Poissons Ratio (y) = 0.70810 0.37116
# Poissons Ratio (z) = 0.08622 0.40138
#
# Static dielectric constant tensor:
#      x y z
#    x 3.474260 0.000000 0.000000 
#    y 0.000000 3.691400 0.000000 
#    z 0.000000 0.000000 3.373940 
# 
# 
# High freq. dielectric constant tensor:
#      x y z
#    x 1.720480 0.000000 0.000000 
#    y 0.000000 1.745950 0.000000 
#    z 0.000000 0.000000 1.721110 
# 
# From -- ./inp_files/12742.got.cif
#   From: 2010.03.12/outbox.cif.g09.slc.cpg/sg65_7_cif.got.tgz:12742.got - 2010.04.10 20:52:16.
