data_PCOD8270990
_publ_section_title
;
Structure prediction by ZEFSAII (Michael W. Deem and Ramdas Pophale) SiO2 
 PCOD8270990
Probable space group: C M M M
;
_chemical_formula_sum "Si O2"
_cell_formula_units_Z 88
_cell_length_a 9.126977
_cell_length_b 26.958493
_cell_length_c 21.048398
_cell_angle_alpha 90.000000
_cell_angle_beta 90.000000
_cell_angle_gamma 90.000000
_cell_volume 5178.948763
_symmetry_space_group_name_H-M "C M M M"
_symmetry_group_IT_number 65
_symmetry_cell_setting 'orthorhombic'
loop_
_space_group_symop_operation_xyz
x,y,z
-x,-y,z
x,-y,-z
-x,y,-z
-x,-y,-z
x,y,-z
-x,y,z
x,-y,z
1/2+x,1/2+y,z
1/2-x,1/2-y,z
1/2+x,1/2-y,-z
1/2-x,1/2+y,-z
1/2-x,1/2-y,-z
1/2+x,1/2+y,-z
1/2-x,1/2+y,z
1/2+x,1/2-y,z
loop_
_atom_site_type_symbol
_atom_site_label
_atom_site_fract_x
_atom_site_fract_y
_atom_site_fract_z
Si Si1 0.327185 0.555848 0.071042
Si Si2 0.330556 0.798898 0.256972
Si Si3 0.171340 0.443014 0.685721
Si Si4 0.330277 0.302067 0.500000
Si Si5 0.666168 0.103092 0.816554
Si Si6 0.827071 0.853520 0.630596
O O1 0.500000 0.558550 0.076387
O O2 0.272929 0.500000 0.085915
O O3 0.261169 0.593843 0.121263
O O4 0.277090 0.571173 0.000000
O O5 0.500000 0.787960 0.272767
O O6 0.250000 0.750000 0.231518
O O7 0.315835 0.839485 0.201740
O O8 0.251927 0.816739 0.320843
O O9 0.204758 0.500000 0.669709
O O10 0.219967 0.431130 0.757946
O O11 0.264407 0.409287 0.637549
O O12 0.000000 0.429797 0.677866
O O13 0.500000 0.289037 0.500000
O O14 0.250000 0.250000 0.500000
O O15 0.286984 0.334760 0.560697
O O16 0.500000 0.089710 0.833421
O O17 0.000000 0.853740 0.643795
#
# Coordination Sequence:
#
# PCOD8270990 Si02
#       6
#    16  16  16   8  16  16
#     4   9  18  31  46  68  99 130 159 193 232 276
#     4  10  20  34  51  73  99 125 157 199 244 287
#     4   9  18  33  51  72 100 130 161 200 242 283
#     4  10  22  36  51  72  97 125 158 199 243 288
#     4   9  18  31  48  71  97 124 156 196 238 280
#     4  10  20  34  51  73  99 127 161 198 240 289
#
# _framework density 16.991865000000001
#
# number of rings (size 3 to 8) (size 9 to 14) (size 15 to 20)
#    0.000    2.545    0.000    3.818    0.000    8.364 
#    0.000    1.364    0.000    3.273    0.000    0.000 
#    0.000    0.000    0.000    0.000    0.000    0.000 
#
# Total GULP energy -545639.227314 kJ/mol
# GULP energy per Si atom -12400.891530 kJ/mol
# Density = 1.695319 g / cm^3
# Si number density = 16.991865 Si / 1000 Ang^3
#
#
#
# Elastic Constant Matrix: (Units=GPa)
#
#
# Indices 1 2 3 4 5 6 
#
# 1 80.3380 54.4284 55.6870 0.0000 0.0000 0.0000
# 2 54.4284 110.9071 58.2362 0.0000 0.0000 0.0000
# 3 55.6870 58.2362 119.0791 0.0000 0.0000 0.0000
# 4 0.0000 0.0000 0.0000 19.7602 0.0000 0.0000
# 5 0.0000 0.0000 0.0000 0.0000 28.1876 0.0000
# 6 0.0000 0.0000 0.0000 0.0000 0.0000 33.1645
#
#
#
# Elastic Compliance Matrix: (Units=1/GPa)
#
#
# Indices 1 2 3 4 5 6 
#
# 1 0.022063 -0.007279 -0.006758 0.000000 0.000000 0.000000
# 2 -0.007279 0.014534 -0.003704 0.000000 0.000000 0.000000
# 3 -0.006758 -0.003704 0.013369 0.000000 0.000000 0.000000
# 4 0.000000 0.000000 0.000000 0.050607 0.000000 0.000000
# 5 0.000000 0.000000 0.000000 0.000000 0.035477 0.000000
# 6 0.000000 0.000000 0.000000 0.000000 0.000000 0.030153
#
#
# Mechanical properties :
#
#
# Convention : Reuss Voigt Hill
#
# Bulk Modulus (GPa) = 69.03787 71.89193 70.46490
# Shear Modulus (GPa) = 24.21164 25.68730 24.94947
#
# Velocity S-wave (km/s) = 3.77887 3.89233 3.83602
# Velocity P-wave (km/s) = 7.73033 7.91213 7.82176
#
# Compressibility (1/GPa) = 0.01448480
#
# Stress axis : x y z
#
# Youngs Moduli (GPa) = 45.32405 68.80609 74.79776
#
# Poissons Ratio (x) = 0.50085 0.50548
# Poissons Ratio (y) = 0.32992 0.27702
# Poissons Ratio (z) = 0.30630 0.25483
#
# Static dielectric constant tensor:
#      x y z
#    x 3.194390 0.000000 0.000000 
#    y 0.000000 3.245770 0.000000 
#    z 0.000000 0.000000 3.090170 
# 
# 
# High freq. dielectric constant tensor:
#      x y z
#    x 1.660120 0.000000 0.000000 
#    y 0.000000 1.654550 0.000000 
#    z 0.000000 0.000000 1.642210 
# 
# From -- ./inp_files/60201.got.cif
#   From: 2010.03.12/outbox.cif.g09.slc.cpg/sg65_31_cif.got.tgz:60201.got - 2010.04.10 20:52:16.
