data_PCOD8270339
_publ_section_title
;
Structure prediction by ZEFSAII (Michael W. Deem and Ramdas Pophale) SiO2 
 PCOD8270339
Probable space group: C M M M
;
_chemical_formula_sum "Si O2"
_cell_formula_units_Z 72
_cell_length_a 14.409265
_cell_length_b 31.269241
_cell_length_c 8.643104
_cell_angle_alpha 90.000000
_cell_angle_beta 90.000000
_cell_angle_gamma 90.000000
_cell_volume 3894.295538
_symmetry_space_group_name_H-M "C M M M"
_symmetry_group_IT_number 65
_symmetry_cell_setting 'orthorhombic'
loop_
_space_group_symop_operation_xyz
x,y,z
-x,-y,z
x,-y,-z
-x,y,-z
-x,-y,-z
x,y,-z
-x,y,z
x,-y,z
1/2+x,1/2+y,z
1/2-x,1/2-y,z
1/2+x,1/2-y,-z
1/2-x,1/2+y,-z
1/2-x,1/2-y,-z
1/2+x,1/2+y,-z
1/2-x,1/2+y,z
1/2+x,1/2-y,z
loop_
_atom_site_type_symbol
_atom_site_label
_atom_site_fract_x
_atom_site_fract_y
_atom_site_fract_z
Si Si1 0.700988 0.366169 0.319167
Si Si2 0.307504 0.452014 0.181592
Si Si3 0.000000 0.261967 0.682666
Si Si4 0.000000 0.166521 0.320109
Si Si5 0.688308 0.210699 0.818298
Si Si6 0.500000 0.548075 0.669667
O O1 0.715957 0.358634 0.500000
O O2 0.742171 0.413179 0.272631
O O3 0.591889 0.360258 0.272057
O O4 0.761330 0.332999 0.223924
O O5 0.276404 0.500000 0.236535
O O6 0.413629 0.442714 0.221899
O O7 0.290608 0.447526 0.000000
O O8 0.910939 0.288130 0.737605
O O9 0.000000 0.260301 0.500000
O O10 0.000000 0.213916 0.756835
O O11 0.000000 0.175558 0.500000
O O12 0.750000 0.250000 0.755910
O O13 0.673609 0.213702 0.000000
O O14 0.500000 0.500000 0.615192
O O15 0.500000 0.573690 0.500000
#
# Coordination Sequence:
#
# PCOD8270339 Si02
#       6
#    16  16   8   8  16   8
#     4  11  21  35  55  80 109 146 190 231 274 325
#     4  10  20  33  48  70 103 141 180 226 279 328
#     4  11  21  38  60  80 108 146 187 227 272 324
#     4   9  19  32  50  77 108 142 184 230 271 316
#     4  11  23  38  56  82 114 145 181 225 276 330
#     4   9  16  27  44  66  95 134 179 222 263 316
#
# _framework density 18.488579999999999
#
# number of rings (size 3 to 8) (size 9 to 14) (size 15 to 20)
#    0.000    1.667    2.222    3.333    0.000    4.444 
#    0.000    1.667    0.000    0.000    0.000    0.778 
#    0.000    6.222    0.000    0.000    0.000    0.000 
#
# Total GULP energy -446130.660057 kJ/mol
# GULP energy per Si atom -12392.518335 kJ/mol
# Density = 1.844650 g / cm^3
# Si number density = 18.488580 Si / 1000 Ang^3
#
#
#
# Elastic Constant Matrix: (Units=GPa)
#
#
# Indices 1 2 3 4 5 6 
#
# 1 81.3970 34.0736 21.7283 0.0000 0.0000 0.0000
# 2 34.0736 130.1375 15.0837 0.0000 0.0000 0.0000
# 3 21.7283 15.0837 51.7216 0.0000 0.0000 0.0000
# 4 0.0000 0.0000 0.0000 29.2399 0.0000 0.0000
# 5 0.0000 0.0000 0.0000 0.0000 23.7353 0.0000
# 6 0.0000 0.0000 0.0000 0.0000 0.0000 -53.3292
#
#
#
# Elastic Compliance Matrix: (Units=1/GPa)
#
#
# Indices 1 2 3 4 5 6 
#
# 1 0.015117 -0.003335 -0.005378 0.000000 0.000000 0.000000
# 2 -0.003335 0.008689 -0.001133 0.000000 0.000000 0.000000
# 3 -0.005378 -0.001133 0.021924 0.000000 0.000000 0.000000
# 4 0.000000 0.000000 0.000000 0.034200 0.000000 0.000000
# 5 0.000000 0.000000 0.000000 0.000000 0.042131 0.000000
# 6 0.000000 0.000000 0.000000 0.000000 0.000000 -0.018751
#
#
# Mechanical properties :
#
#
# Convention : Reuss Voigt Hill
#
# Bulk Modulus (GPa) = 38.40534 45.00303 41.70419
# Shear Modulus (GPa) = 37.97064 12.75390 25.36227
#
# Velocity S-wave (km/s) = 4.53673 2.62930 3.70777
# Velocity P-wave (km/s) = 6.94695 5.79754 6.39811
#
# Compressibility (1/GPa) = 0.02603805
#
# Stress axis : x y z
#
# Youngs Moduli (GPa) = 66.15038 115.09319 45.61191
#
# Poissons Ratio (x) = 0.38380 0.24531
# Poissons Ratio (y) = 0.22059 0.05168
# Poissons Ratio (z) = 0.35577 0.13040
#
# Static dielectric constant tensor:
#      x y z
#    x -4.257200 0.000000 0.000000 
#    y 0.000000 3.770350 0.000000 
#    z 0.000000 0.000000 3.307220 
# 
# 
# High freq. dielectric constant tensor:
#      x y z
#    x 1.665390 0.000000 0.000000 
#    y 0.000000 1.737180 0.000000 
#    z 0.000000 0.000000 1.719300 
# 
# From -- ./inp_files/7730.got.cif
#   From: 2010.03.12/outbox.cif.g09.slc.cpg/sg65_4_cif.got.tgz:7730.got - 2010.04.10 20:52:16.
