data_PCOD8270214
_publ_section_title
;
Structure prediction by ZEFSAII (Michael W. Deem and Ramdas Pophale) SiO2 
 PCOD8270214
Probable space group: C M M M
;
_chemical_formula_sum "Si O2"
_cell_formula_units_Z 72
_cell_length_a 18.066704
_cell_length_b 7.645851
_cell_length_c 24.831466
_cell_angle_alpha 90.000000
_cell_angle_beta 90.000000
_cell_angle_gamma 90.000000
_cell_volume 3430.102672
_symmetry_space_group_name_H-M "C M M M"
_symmetry_group_IT_number 65
_symmetry_cell_setting 'orthorhombic'
loop_
_space_group_symop_operation_xyz
x,y,z
-x,-y,z
x,-y,-z
-x,y,-z
-x,-y,-z
x,y,-z
-x,y,z
x,-y,z
1/2+x,1/2+y,z
1/2-x,1/2-y,z
1/2+x,1/2-y,-z
1/2-x,1/2+y,-z
1/2-x,1/2-y,-z
1/2+x,1/2+y,-z
1/2-x,1/2+y,z
1/2+x,1/2-y,z
loop_
_atom_site_type_symbol
_atom_site_label
_atom_site_fract_x
_atom_site_fract_y
_atom_site_fract_z
Si Si1 0.083555 0.291966 0.559070
Si Si2 0.585043 0.000000 0.063627
Si Si3 0.085438 0.293247 0.231780
Si Si4 0.834718 0.803266 0.874378
Si Si5 0.665414 0.795176 0.661969
O O1 0.110293 0.224906 0.500000
O O2 0.086187 0.500000 0.559887
O O3 0.135648 0.211819 0.605926
O O4 0.000000 0.227929 0.569826
O O5 0.623671 0.174331 0.085136
O O6 0.500000 0.000000 0.083203
O O7 0.591647 0.000000 0.000000
O O8 0.096538 0.500000 0.225258
O O9 0.128417 0.198918 0.184068
O O10 0.118947 0.221453 0.287750
O O11 0.000000 0.239748 0.229698
O O12 0.750000 0.750000 0.868438
O O13 0.840596 0.000000 0.897680
O O14 0.750000 0.750000 0.670566
O O15 0.652809 0.000000 0.659402
#
# Coordination Sequence:
#
# PCOD8270214 Si02
#       5
#    16   8  16  16  16
#     4   8  14  27  48  72  98 132 183 241 292 352
#     4  11  26  48  72 102 141 179 220 272 323 378
#     4  10  20  36  59  85 119 158 202 258 317 379
#     4  12  24  43  69 101 134 176 220 269 325 385
#     4  10  20  32  49  76 108 147 189 238 299 363
#
# _framework density 20.990624
#
# number of rings (size 3 to 8) (size 9 to 14) (size 15 to 20)
#    0.000    1.889    2.222    2.667    0.000    8.444 
#    0.000    1.111    0.000    2.000    0.000    1.556 
#    0.000    0.000    0.000    0.000    0.000    0.000 
#
# Total GULP energy -446388.640918 kJ/mol
# GULP energy per Si atom -12399.684470 kJ/mol
# Density = 2.094285 g / cm^3
# Si number density = 20.990624 Si / 1000 Ang^3
#
#
#
# Elastic Constant Matrix: (Units=GPa)
#
#
# Indices 1 2 3 4 5 6 
#
# 1 171.5210 40.2981 75.1690 0.0000 0.0000 0.0000
# 2 40.2981 88.3792 35.9778 0.0000 0.0000 0.0000
# 3 75.1690 35.9778 128.9734 0.0000 0.0000 0.0000
# 4 0.0000 0.0000 0.0000 -1.7872 0.0000 0.0000
# 5 0.0000 0.0000 0.0000 0.0000 31.9474 0.0000
# 6 0.0000 0.0000 0.0000 0.0000 0.0000 26.0712
#
#
#
# Elastic Compliance Matrix: (Units=1/GPa)
#
#
# Indices 1 2 3 4 5 6 
#
# 1 0.008134 -0.002007 -0.004181 0.000000 0.000000 0.000000
# 2 -0.002007 0.013260 -0.002529 0.000000 0.000000 0.000000
# 3 -0.004181 -0.002529 0.010896 0.000000 0.000000 0.000000
# 4 0.000000 0.000000 0.000000 -0.559532 0.000000 0.000000
# 5 0.000000 0.000000 0.000000 0.000000 0.031301 0.000000
# 6 0.000000 0.000000 0.000000 0.000000 0.000000 0.038357
#
#
# Mechanical properties :
#
#
# Convention : Reuss Voigt Hill
#
# Bulk Modulus (GPa) = 67.31514 76.86257 72.08885
# Shear Modulus (GPa) = -11.48900 27.07486 7.79293
#
# Velocity S-wave (km/s) = -2.34207 3.59535 1.92890
# Velocity P-wave (km/s) = 4.98248 7.34387 6.27525
#
# Compressibility (1/GPa) = 0.01485550
#
# Stress axis : x y z
#
# Youngs Moduli (GPa) = 122.94155 75.41744 91.77878
#
# Poissons Ratio (x) = 0.15135 0.38371
# Poissons Ratio (y) = 0.24673 0.23212
# Poissons Ratio (z) = 0.51400 0.19074
#
# Static dielectric constant tensor:
#      x y z
#    x 3.843820 0.000000 0.000000 
#    y 0.000000 3.586790 0.000000 
#    z 0.000000 0.000000 4.082330 
# 
# 
# High freq. dielectric constant tensor:
#      x y z
#    x 1.828470 0.000000 0.000000 
#    y 0.000000 1.803440 0.000000 
#    z 0.000000 0.000000 1.831630 
# 
# From -- ./inp_files/64312.got.cif
#   From: 2010.03.12/outbox.cif.g09.slc.cpg/sg65_33_cif.got.tgz:64312.got - 2010.04.10 20:52:16.
