data_PCOD8270820
_publ_section_title
;
Structure prediction by ZEFSAII (Michael W. Deem and Ramdas Pophale) SiO2 
 PCOD8270820
Probable space group: C M M M
;
_chemical_formula_sum "Si O2"
_cell_formula_units_Z 72
_cell_length_a 18.659415
_cell_length_b 9.056431
_cell_length_c 22.837639
_cell_angle_alpha 90.000000
_cell_angle_beta 90.000000
_cell_angle_gamma 90.000000
_cell_volume 3859.280190
_symmetry_space_group_name_H-M "C M M M"
_symmetry_group_IT_number 65
_symmetry_cell_setting 'orthorhombic'
loop_
_space_group_symop_operation_xyz
x,y,z
-x,-y,z
x,-y,-z
-x,y,-z
-x,-y,-z
x,y,-z
-x,y,z
x,-y,z
1/2+x,1/2+y,z
1/2-x,1/2-y,z
1/2+x,1/2-y,-z
1/2-x,1/2+y,-z
1/2-x,1/2-y,-z
1/2+x,1/2+y,-z
1/2-x,1/2+y,z
1/2+x,1/2-y,z
loop_
_atom_site_type_symbol
_atom_site_label
_atom_site_fract_x
_atom_site_fract_y
_atom_site_fract_z
Si Si1 0.585029 0.833825 0.158497
Si Si2 0.085043 0.836851 0.729867
Si Si3 0.172960 0.324595 0.500000
Si Si4 0.677158 0.672783 0.932696
Si Si5 0.083438 0.827357 0.401228
O O1 0.500000 0.826723 0.157178
O O2 0.614776 0.774238 0.220814
O O3 0.612084 0.733668 0.105489
O O4 0.613285 0.000000 0.150662
O O5 0.107698 0.785840 0.664845
O O6 0.000000 0.843985 0.732148
O O7 0.116158 0.000000 0.743004
O O8 0.181546 0.500000 0.500000
O O9 0.250000 0.250000 0.500000
O O10 0.130072 0.274798 0.557202
O O11 0.685405 0.500000 0.922510
O O12 0.750000 0.750000 0.911887
O O13 0.660154 0.711243 0.000000
O O14 0.000000 0.791327 0.411471
O O15 0.097840 0.000000 0.414045
#
# Coordination Sequence:
#
# PCOD8270820 Si02
#       5
#    16  16   8  16  16
#     4  10  20  33  52  80 112 142 172 212 260 307
#     4   8  15  30  53  79 106 137 172 211 256 306
#     4  12  25  38  53  75 107 143 177 218 265 310
#     4  10  21  37  56  76 101 136 177 220 264 312
#     4   9  18  35  59  83 107 137 173 213 258 310
#
# _framework density 18.656330000000001
#
# number of rings (size 3 to 8) (size 9 to 14) (size 15 to 20)
#    0.000    2.444    0.000    4.000    0.000    5.778 
#    0.000    5.556    0.000    5.333    0.000    0.000 
#    0.000    0.000    0.000    0.000    0.000    0.000 
#
# Total GULP energy -446381.585635 kJ/mol
# GULP energy per Si atom -12399.488490 kJ/mol
# Density = 1.861387 g / cm^3
# Si number density = 18.656330 Si / 1000 Ang^3
#
#
#
# Elastic Constant Matrix: (Units=GPa)
#
#
# Indices 1 2 3 4 5 6 
#
# 1 53.9879 45.7621 44.4156 0.0000 0.0000 0.0000
# 2 45.7621 121.5096 71.2687 0.0000 0.0000 0.0000
# 3 44.4156 71.2687 128.7710 0.0000 0.0000 0.0000
# 4 0.0000 0.0000 0.0000 35.0926 0.0000 0.0000
# 5 0.0000 0.0000 0.0000 0.0000 0.5776 0.0000
# 6 0.0000 0.0000 0.0000 0.0000 0.0000 30.1726
#
#
#
# Elastic Compliance Matrix: (Units=1/GPa)
#
#
# Indices 1 2 3 4 5 6 
#
# 1 0.030119 -0.007773 -0.006086 0.000000 0.000000 0.000000
# 2 -0.007773 0.014192 -0.005173 0.000000 0.000000 0.000000
# 3 -0.006086 -0.005173 0.012728 0.000000 0.000000 0.000000
# 4 0.000000 0.000000 0.000000 0.028496 0.000000 0.000000
# 5 0.000000 0.000000 0.000000 0.000000 1.731159 0.000000
# 6 0.000000 0.000000 0.000000 0.000000 0.000000 0.033143
#
#
# Mechanical properties :
#
#
# Convention : Reuss Voigt Hill
#
# Bulk Modulus (GPa) = 52.70719 69.68459 61.19589
# Shear Modulus (GPa) = 2.63960 22.69005 12.66482
#
# Velocity S-wave (km/s) = 1.19077 3.49121 2.60830
# Velocity P-wave (km/s) = 5.49577 7.32695 6.47641
#
# Compressibility (1/GPa) = 0.01897274
#
# Stress axis : x y z
#
# Youngs Moduli (GPa) = 33.20183 70.46448 78.56587
#
# Poissons Ratio (x) = 0.54774 0.47818
# Poissons Ratio (y) = 0.25809 0.40644
# Poissons Ratio (z) = 0.20208 0.36453
#
# Static dielectric constant tensor:
#      x y z
#    x 3.118370 0.000000 0.000000 
#    y 0.000000 3.591320 0.000000 
#    z 0.000000 0.000000 3.666230 
# 
# 
# High freq. dielectric constant tensor:
#      x y z
#    x 1.692810 0.000000 0.000000 
#    y 0.000000 1.728800 0.000000 
#    z 0.000000 0.000000 1.738460 
# 
# From -- ./inp_files/59235.got.cif
#   From: 2010.03.12/outbox.cif.g09.slc.cpg/sg65_30_cif.got.tgz:59235.got - 2010.04.10 20:52:16.
