data_PCOD8270824
_publ_section_title
;
Structure prediction by ZEFSAII (Michael W. Deem and Ramdas Pophale) SiO2 
 PCOD8270824
Probable space group: C M M M
;
_chemical_formula_sum "Si O2"
_cell_formula_units_Z 72
_cell_length_a 9.003638
_cell_length_b 17.871505
_cell_length_c 23.098868
_cell_angle_alpha 90.000000
_cell_angle_beta 90.000000
_cell_angle_gamma 90.000000
_cell_volume 3716.805623
_symmetry_space_group_name_H-M "C M M M"
_symmetry_group_IT_number 65
_symmetry_cell_setting 'orthorhombic'
loop_
_space_group_symop_operation_xyz
x,y,z
-x,-y,z
x,-y,-z
-x,y,-z
-x,-y,-z
x,y,-z
-x,y,z
x,-y,z
1/2+x,1/2+y,z
1/2-x,1/2-y,z
1/2+x,1/2-y,-z
1/2-x,1/2+y,-z
1/2-x,1/2-y,-z
1/2+x,1/2+y,-z
1/2-x,1/2+y,z
1/2+x,1/2-y,z
loop_
_atom_site_type_symbol
_atom_site_label
_atom_site_fract_x
_atom_site_fract_y
_atom_site_fract_z
Si Si1 0.824949 0.830018 0.500000
Si Si2 0.666703 0.911203 0.936485
Si Si3 0.671964 0.587799 0.176654
Si Si4 0.329492 0.087327 0.602587
Si Si5 0.326673 0.171477 0.719746
O O1 0.750000 0.750000 0.500000
O O2 0.778302 0.874611 0.556886
O O3 0.000000 0.819208 0.500000
O O4 0.500000 0.882581 0.923038
O O5 0.777787 0.882709 0.886656
O O6 0.667741 0.000000 0.937562
O O7 0.718443 0.881489 0.000000
O O8 0.500000 0.606278 0.184637
O O9 0.705416 0.500000 0.183968
O O10 0.764495 0.632656 0.223428
O O11 0.500000 0.103832 0.585319
O O12 0.292398 0.118112 0.665825
O O13 0.295339 0.000000 0.602873
O O14 0.500000 0.185164 0.728492
O O15 0.250000 0.250000 0.707630
#
# Coordination Sequence:
#
# PCOD8270824 Si02
#       5
#     8  16  16  16  16
#     4  12  25  40  61  89 121 157 193 230 275 326
#     4   8  14  26  46  73 105 141 181 225 273 326
#     4  10  20  33  52  80 112 145 183 229 278 329
#     4  10  22  41  64  89 117 149 186 230 279 330
#     4  11  23  39  59  82 110 146 187 230 279 334
#
# _framework density 19.371473999999999
#
# number of rings (size 3 to 8) (size 9 to 14) (size 15 to 20)
#    0.000    2.000    0.000    4.667    0.000    8.000 
#    0.000    2.222    0.000    0.667    0.000    0.000 
#    0.000    0.000    0.000    0.000    0.000    0.000 
#
# Total GULP energy -446444.701823 kJ/mol
# GULP energy per Si atom -12401.241717 kJ/mol
# Density = 1.932738 g / cm^3
# Si number density = 19.371474 Si / 1000 Ang^3
#
#
#
# Elastic Constant Matrix: (Units=GPa)
#
#
# Indices 1 2 3 4 5 6 
#
# 1 122.2070 59.7636 70.3870 0.0000 0.0000 0.0000
# 2 59.7636 94.1730 56.5881 0.0000 0.0000 0.0000
# 3 70.3870 56.5881 134.5095 0.0000 0.0000 0.0000
# 4 0.0000 0.0000 0.0000 -765.4854 0.0000 0.0000
# 5 0.0000 0.0000 0.0000 0.0000 61.2417 0.0000
# 6 0.0000 0.0000 0.0000 0.0000 0.0000 29.8242
#
#
#
# Elastic Compliance Matrix: (Units=1/GPa)
#
#
# Indices 1 2 3 4 5 6 
#
# 1 0.013802 -0.005914 -0.004734 0.000000 0.000000 0.000000
# 2 -0.005914 0.016745 -0.003950 0.000000 0.000000 0.000000
# 3 -0.004734 -0.003950 0.011574 0.000000 0.000000 0.000000
# 4 0.000000 0.000000 0.000000 -0.001306 0.000000 0.000000
# 5 0.000000 0.000000 0.000000 0.000000 0.016329 0.000000
# 6 0.000000 0.000000 0.000000 0.000000 0.000000 0.033530
#
#
# Mechanical properties :
#
#
# Convention : Reuss Voigt Hill
#
# Bulk Modulus (GPa) = 77.37479 80.48524 78.93002
# Shear Modulus (GPa) = 40.26485 -123.94052 -41.83784
#
# Velocity S-wave (km/s) = 4.56407 -8.00749 -4.65237
# Velocity P-wave (km/s) = 8.23430 6.62228 3.46043
#
# Compressibility (1/GPa) = 0.01292411
#
# Stress axis : x y z
#
# Youngs Moduli (GPa) = 72.45442 59.71760 86.40361
#
# Poissons Ratio (x) = 0.35317 0.40906
# Poissons Ratio (y) = 0.42850 0.34130
# Poissons Ratio (z) = 0.34302 0.23589
#
# Static dielectric constant tensor:
#      x y z
#    x 3.625400 0.000000 0.000000 
#    y 0.000000 3.460080 0.000000 
#    z 0.000000 0.000000 3.876220 
# 
# 
# High freq. dielectric constant tensor:
#      x y z
#    x 1.757210 0.000000 0.000000 
#    y 0.000000 1.734610 0.000000 
#    z 0.000000 0.000000 1.773610 
# 
# From -- ./inp_files/59194.got.cif
#   From: 2010.03.12/outbox.cif.g09.slc.cpg/sg65_30_cif.got.tgz:59194.got - 2010.04.10 20:52:16.
