data_PCOD8270657
_publ_section_title
;
Structure prediction by ZEFSAII (Michael W. Deem and Ramdas Pophale) SiO2 
 PCOD8270657
Probable space group: C M M M
;
_chemical_formula_sum "Si O2"
_cell_formula_units_Z 80
_cell_length_a 7.709519
_cell_length_b 34.156931
_cell_length_c 17.355582
_cell_angle_alpha 90.000000
_cell_angle_beta 90.000000
_cell_angle_gamma 90.000000
_cell_volume 4570.306301
_symmetry_space_group_name_H-M "C M M M"
_symmetry_group_IT_number 65
_symmetry_cell_setting 'orthorhombic'
loop_
_space_group_symop_operation_xyz
x,y,z
-x,-y,z
x,-y,-z
-x,y,-z
-x,-y,-z
x,y,-z
-x,y,z
x,-y,z
1/2+x,1/2+y,z
1/2-x,1/2-y,z
1/2+x,1/2-y,-z
1/2-x,1/2+y,-z
1/2-x,1/2-y,-z
1/2+x,1/2+y,-z
1/2-x,1/2+y,z
1/2+x,1/2-y,z
loop_
_atom_site_type_symbol
_atom_site_label
_atom_site_fract_x
_atom_site_fract_y
_atom_site_fract_z
Si Si1 0.794427 0.356592 0.914420
Si Si2 0.500000 0.544127 0.286225
Si Si3 0.307825 0.917818 0.207304
Si Si4 0.193380 0.350276 0.666921
Si Si5 0.203051 0.294805 0.204849
Si Si6 0.000000 0.888659 0.587604
O O1 0.748042 0.397735 0.872921
O O2 0.715132 0.320081 0.865477
O O3 0.000000 0.352313 0.919407
O O4 0.711979 0.356277 0.000000
O O5 0.500000 0.500000 0.318197
O O6 0.330576 0.549757 0.232875
O O7 0.500000 0.573090 0.358866
O O8 0.500000 0.937001 0.199437
O O9 0.315665 0.884050 0.270254
O O10 0.263601 0.311427 0.711666
O O11 0.329567 0.361997 0.600986
O O12 0.000000 0.344032 0.630964
O O13 0.250000 0.250000 0.194741
O O14 0.000000 0.301247 0.201833
O O15 0.000000 0.903301 0.500000
#
# Coordination Sequence:
#
# PCOD8270657 Si02
#       6
#    16   8  16  16  16   8
#     4   8  14  27  46  66  93 128 165 204 241 279
#     4  10  20  33  51  76 102 121 147 194 240 287
#     4   8  15  30  50  68  91 127 168 196 226 275
#     4   8  16  31  48  69  93 123 165 201 225 270
#     4   9  17  27  43  68  94 126 163 200 244 283
#     4  10  20  33  54  77  95 122 154 187 237 298
#
# _framework density 17.504297000000001
#
# number of rings (size 3 to 8) (size 9 to 14) (size 15 to 20)
#    0.000    3.400    0.000    2.400    1.400    1.400 
#    1.800    0.500    0.000    1.800    0.000    8.400 
#    0.000    0.000    0.000    0.000    0.000    0.000 
#
# Total GULP energy -495623.734709 kJ/mol
# GULP energy per Si atom -12390.593368 kJ/mol
# Density = 1.746446 g / cm^3
# Si number density = 17.504297 Si / 1000 Ang^3
#
#
#
# Elastic Constant Matrix: (Units=GPa)
#
#
# Indices 1 2 3 4 5 6 
#
# 1 77.8691 31.4204 41.5763 0.0000 0.0000 0.0000
# 2 31.4204 62.2779 59.0418 0.0000 0.0000 0.0000
# 3 41.5763 59.0418 94.9869 0.0000 0.0000 0.0000
# 4 0.0000 0.0000 0.0000 15.0910 0.0000 0.0000
# 5 0.0000 0.0000 0.0000 0.0000 13.3238 0.0000
# 6 0.0000 0.0000 0.0000 0.0000 0.0000 19.8631
#
#
#
# Elastic Compliance Matrix: (Units=1/GPa)
#
#
# Indices 1 2 3 4 5 6 
#
# 1 0.017107 -0.003730 -0.005169 0.000000 0.000000 0.000000
# 2 -0.003730 0.039908 -0.023173 0.000000 0.000000 0.000000
# 3 -0.005169 -0.023173 0.027194 0.000000 0.000000 0.000000
# 4 0.000000 0.000000 0.000000 0.066264 0.000000 0.000000
# 5 0.000000 0.000000 0.000000 0.000000 0.075054 0.000000
# 6 0.000000 0.000000 0.000000 0.000000 0.000000 0.050344
#
#
# Mechanical properties :
#
#
# Convention : Reuss Voigt Hill
#
# Bulk Modulus (GPa) = 49.84017 55.46789 52.65403
# Shear Modulus (GPa) = 14.42144 16.52863 15.47504
#
# Velocity S-wave (km/s) = 2.87344 3.07622 2.97656
# Velocity P-wave (km/s) = 6.28839 6.66141 6.47759
#
# Compressibility (1/GPa) = 0.02006414
#
# Stress axis : x y z
#
# Youngs Moduli (GPa) = 58.45477 25.05753 36.77233
#
# Poissons Ratio (x) = 0.09347 0.19009
# Poissons Ratio (y) = 0.21805 0.85213
# Poissons Ratio (z) = 0.30217 0.58066
#
# Static dielectric constant tensor:
#      x y z
#    x 3.538260 0.000000 0.000000 
#    y 0.000000 2.671760 0.000000 
#    z 0.000000 0.000000 3.230300 
# 
# 
# High freq. dielectric constant tensor:
#      x y z
#    x 1.676650 0.000000 0.000000 
#    y 0.000000 1.647110 0.000000 
#    z 0.000000 0.000000 1.652470 
# 
# From -- ./inp_files/50198.got.cif
#   From: 2010.03.12/outbox.cif.g09.slc.cpg/sg65_26_cif.got.tgz:50198.got - 2010.04.10 20:52:16.
