data_PCOD8270276
_publ_section_title
;
Structure prediction by ZEFSAII (Michael W. Deem and Ramdas Pophale) SiO2 
 PCOD8270276
Probable space group: C M M M
;
_chemical_formula_sum "Si O2"
_cell_formula_units_Z 72
_cell_length_a 17.612576
_cell_length_b 19.368216
_cell_length_c 12.072113
_cell_angle_alpha 90.000000
_cell_angle_beta 90.000000
_cell_angle_gamma 90.000000
_cell_volume 4118.089603
_symmetry_space_group_name_H-M "C M M M"
_symmetry_group_IT_number 65
_symmetry_cell_setting 'orthorhombic'
loop_
_space_group_symop_operation_xyz
x,y,z
-x,-y,z
x,-y,-z
-x,y,-z
-x,-y,-z
x,y,-z
-x,y,z
x,-y,z
1/2+x,1/2+y,z
1/2-x,1/2-y,z
1/2+x,1/2-y,-z
1/2-x,1/2+y,-z
1/2-x,1/2-y,-z
1/2+x,1/2+y,-z
1/2-x,1/2+y,z
1/2+x,1/2-y,z
loop_
_atom_site_type_symbol
_atom_site_label
_atom_site_fract_x
_atom_site_fract_y
_atom_site_fract_z
Si Si1 0.582846 0.645659 0.000000
Si Si2 0.710702 0.676252 0.376369
Si Si3 0.410972 0.000000 0.129895
Si Si4 0.765186 0.919328 0.000000
Si Si5 0.677207 0.872231 0.793316
Si Si6 0.087341 0.769590 0.222170
O O1 0.643799 0.584437 0.000000
O O2 0.592706 0.693978 0.105187
O O3 0.500000 0.610183 0.000000
O O4 0.695464 0.647704 0.500000
O O5 0.750000 0.750000 0.380908
O O6 0.768674 0.623868 0.314857
O O7 0.630326 0.683445 0.313244
O O8 0.381222 0.065107 0.198379
O O9 0.500000 0.000000 0.136163
O O10 0.384986 0.000000 0.000000
O O11 0.733868 0.876858 0.103612
O O12 0.741502 0.000000 0.000000
O O13 0.628011 0.803386 0.793158
O O14 0.000000 0.759371 0.260324
#
# Coordination Sequence:
#
# PCOD8270276 Si02
#       6
#     8  16   8   8  16  16
#     4  10  21  34  51  80 109 133 175 226 279 330
#     4   9  19  34  54  76  99 134 183 229 269 313
#     4  11  22  34  51  81 119 152 182 215 264 328
#     4  12  21  34  55  79 106 150 185 216 266 326
#     4  11  19  34  53  77 110 145 181 222 265 320
#     4  10  20  32  52  80 110 139 172 220 279 329
#
# _framework density 17.483834999999999
#
# number of rings (size 3 to 8) (size 9 to 14) (size 15 to 20)
#    0.000    1.667    4.444    1.333    0.000    1.556 
#    0.000    0.556    0.000    2.667    0.000    0.000 
#    0.000    5.333    0.000    0.000    0.000    0.000 
#
# Total GULP energy -446232.187353 kJ/mol
# GULP energy per Si atom -12395.338538 kJ/mol
# Density = 1.744404 g / cm^3
# Si number density = 17.483835 Si / 1000 Ang^3
#
#
#
# Elastic Constant Matrix: (Units=GPa)
#
#
# Indices 1 2 3 4 5 6 
#
# 1 157.8262 47.4125 63.6245 0.0000 0.0000 0.0000
# 2 47.4125 59.5717 34.0181 0.0000 0.0000 0.0000
# 3 63.6245 34.0181 140.7840 0.0000 0.0000 0.0000
# 4 0.0000 0.0000 0.0000 15.2532 0.0000 0.0000
# 5 0.0000 0.0000 0.0000 0.0000 -95.5322 0.0000
# 6 0.0000 0.0000 0.0000 0.0000 0.0000 -17.6582
#
#
#
# Elastic Compliance Matrix: (Units=1/GPa)
#
#
# Indices 1 2 3 4 5 6 
#
# 1 0.009167 -0.005720 -0.002761 0.000000 0.000000 0.000000
# 2 -0.005720 0.023042 -0.002983 0.000000 0.000000 0.000000
# 3 -0.002761 -0.002983 0.009072 0.000000 0.000000 0.000000
# 4 0.000000 0.000000 0.000000 0.065560 0.000000 0.000000
# 5 0.000000 0.000000 0.000000 0.000000 -0.010468 0.000000
# 6 0.000000 0.000000 0.000000 0.000000 0.000000 -0.056631
#
#
# Mechanical properties :
#
#
# Convention : Reuss Voigt Hill
#
# Bulk Modulus (GPa) = 54.48363 72.03246 63.25805
# Shear Modulus (GPa) = 72.68816 -5.37899 33.65459
#
# Velocity S-wave (km/s) = 6.45482 -1.75591 4.39212
# Velocity P-wave (km/s) = 9.31574 6.09737 7.87277
#
# Compressibility (1/GPa) = 0.01835414
#
# Stress axis : x y z
#
# Youngs Moduli (GPa) = 109.08317 43.39907 110.23418
#
# Poissons Ratio (x) = 0.24822 0.30435
# Poissons Ratio (y) = 0.62391 0.32881
# Poissons Ratio (z) = 0.30117 0.12945
#
# Static dielectric constant tensor:
#      x y z
#    x 3.583690 0.000000 0.000000 
#    y 0.000000 3.052870 0.000000 
#    z 0.000000 0.000000 3.505520 
# 
# 
# High freq. dielectric constant tensor:
#      x y z
#    x 1.698110 0.000000 0.000000 
#    y 0.000000 1.649690 0.000000 
#    z 0.000000 0.000000 1.668200 
# 
# From -- ./inp_files/26380.got.cif
#   From: 2010.03.12/outbox.cif.g09.slc.cpg/sg65_14_cif.got.tgz:26380.got - 2010.04.10 20:52:16.
