data_PCOD8270524
_publ_section_title
;
Structure prediction by ZEFSAII (Michael W. Deem and Ramdas Pophale) SiO2 
 PCOD8270524
Probable space group: C M M M
;
_chemical_formula_sum "Si O2"
_cell_formula_units_Z 96
_cell_length_a 8.969174
_cell_length_b 26.151480
_cell_length_c 22.673305
_cell_angle_alpha 90.000000
_cell_angle_beta 90.000000
_cell_angle_gamma 90.000000
_cell_volume 5318.186357
_symmetry_space_group_name_H-M "C M M M"
_symmetry_group_IT_number 65
_symmetry_cell_setting 'orthorhombic'
loop_
_space_group_symop_operation_xyz
x,y,z
-x,-y,z
x,-y,-z
-x,y,-z
-x,-y,-z
x,y,-z
-x,y,z
x,-y,z
1/2+x,1/2+y,z
1/2-x,1/2-y,z
1/2+x,1/2-y,-z
1/2-x,1/2+y,-z
1/2-x,1/2-y,-z
1/2+x,1/2+y,-z
1/2-x,1/2+y,z
1/2+x,1/2-y,z
loop_
_atom_site_type_symbol
_atom_site_label
_atom_site_fract_x
_atom_site_fract_y
_atom_site_fract_z
Si Si1 0.664263 0.619458 0.850749
Si Si2 0.821281 0.131837 0.661044
Si Si3 0.328202 0.939817 0.247534
Si Si4 0.828411 0.697215 0.069559
Si Si5 0.326842 0.803130 0.569079
Si Si6 0.656858 0.294613 0.242800
O O1 0.500000 0.598998 0.872169
O O2 0.755775 0.575904 0.815632
O O3 0.755312 0.645425 0.904167
O O4 0.631719 0.662932 0.804693
O O5 0.753171 0.082439 0.694023
O O6 0.749726 0.146122 0.598012
O O7 0.769622 0.180817 0.699520
O O8 0.000000 0.124943 0.657083
O O9 0.500000 0.921829 0.247296
O O10 0.313302 0.000000 0.253088
O O11 0.750000 0.750000 0.090481
O O12 0.000000 0.700258 0.089957
O O13 0.813220 0.691267 0.000000
O O14 0.303952 0.811296 0.500000
O O15 0.500000 0.800609 0.586505
O O16 0.250000 0.750000 0.589346
O O17 0.500000 0.270325 0.261560
O O18 0.750000 0.250000 0.213607
#
# Coordination Sequence:
#
# PCOD8270524 Si02
#       6
#    16  16  16  16  16  16
#     4  10  20  33  50  73 101 133 169 209 254 303
#     4  10  20  33  50  73 101 133 169 209 254 303
#     4  10  21  37  57  79 102 130 165 208 261 315
#     4  10  20  33  50  74 106 143 179 212 248 295
#     4  10  20  33  50  74 106 143 179 212 248 295
#     4   9  18  28  40  64  95 126 158 194 239 290
#
# _framework density 18.051266999999999
#
# number of rings (size 3 to 8) (size 9 to 14) (size 15 to 20)
#    0.000    2.167    0.000    4.500    0.000   10.000 
#    0.000    0.000    0.000    1.000    0.000    7.000 
#    0.000    0.000    0.000    0.000    0.000    0.000 
#
# Total GULP energy -594694.707039 kJ/mol
# GULP energy per Si atom -12389.473063 kJ/mol
# Density = 1.801018 g / cm^3
# Si number density = 18.051267 Si / 1000 Ang^3
#
#
#
# Elastic Constant Matrix: (Units=GPa)
#
#
# Indices 1 2 3 4 5 6 
#
# 1 139.5028 54.1940 40.2615 0.0000 0.0000 0.0000
# 2 54.1940 71.4062 27.9217 0.0000 0.0000 0.0000
# 3 40.2615 27.9217 60.1655 0.0000 0.0000 0.0000
# 4 0.0000 0.0000 0.0000 30.5509 0.0000 0.0000
# 5 0.0000 0.0000 0.0000 0.0000 31.2398 0.0000
# 6 0.0000 0.0000 0.0000 0.0000 0.0000 25.5413
#
#
#
# Elastic Compliance Matrix: (Units=1/GPa)
#
#
# Indices 1 2 3 4 5 6 
#
# 1 0.010991 -0.006677 -0.004256 0.000000 0.000000 0.000000
# 2 -0.006677 0.021166 -0.005354 0.000000 0.000000 0.000000
# 3 -0.004256 -0.005354 0.021954 0.000000 0.000000 0.000000
# 4 0.000000 0.000000 0.000000 0.032732 0.000000 0.000000
# 5 0.000000 0.000000 0.000000 0.000000 0.032010 0.000000
# 6 0.000000 0.000000 0.000000 0.000000 0.000000 0.039152
#
#
# Mechanical properties :
#
#
# Convention : Reuss Voigt Hill
#
# Bulk Modulus (GPa) = 46.43600 57.31432 51.87516
# Shear Modulus (GPa) = 25.28340 27.37956 26.33148
#
# Velocity S-wave (km/s) = 3.74658 3.89879 3.82344
# Velocity P-wave (km/s) = 6.67054 7.21715 6.94922
#
# Compressibility (1/GPa) = 0.02153502
#
# Stress axis : x y z
#
# Youngs Moduli (GPa) = 90.98749 47.24617 45.55040
#
# Poissons Ratio (x) = 0.31547 0.19386
# Poissons Ratio (y) = 0.60753 0.24390
# Poissons Ratio (z) = 0.38723 0.25298
#
# Static dielectric constant tensor:
#      x y z
#    x 3.730840 0.000000 0.000000 
#    y 0.000000 2.970500 0.000000 
#    z 0.000000 0.000000 3.614820 
# 
# 
# High freq. dielectric constant tensor:
#      x y z
#    x 1.721010 0.000000 0.000000 
#    y 0.000000 1.667060 0.000000 
#    z 0.000000 0.000000 1.692320 
# 
# From -- ./inp_files/67848.got.cif
#   From: 2010.03.12/outbox.cif.g09.slc.cpg/sg65_34_cif.got.tgz:67848.got - 2010.04.10 20:52:16.
