data_PCOD8270502
_publ_section_title
;
Structure prediction by ZEFSAII (Michael W. Deem and Ramdas Pophale) SiO2 
 PCOD8270502
Probable space group: C M M M
;
_chemical_formula_sum "Si O2"
_cell_formula_units_Z 96
_cell_length_a 9.079325
_cell_length_b 27.059310
_cell_length_c 18.786981
_cell_angle_alpha 90.000000
_cell_angle_beta 90.000000
_cell_angle_gamma 90.000000
_cell_volume 4615.590560
_symmetry_space_group_name_H-M "C M M M"
_symmetry_group_IT_number 65
_symmetry_cell_setting 'orthorhombic'
loop_
_space_group_symop_operation_xyz
x,y,z
-x,-y,z
x,-y,-z
-x,y,-z
-x,-y,-z
x,y,-z
-x,y,z
x,-y,z
1/2+x,1/2+y,z
1/2-x,1/2-y,z
1/2+x,1/2-y,-z
1/2-x,1/2+y,-z
1/2-x,1/2-y,-z
1/2+x,1/2+y,-z
1/2-x,1/2+y,z
1/2+x,1/2-y,z
loop_
_atom_site_type_symbol
_atom_site_label
_atom_site_fract_x
_atom_site_fract_y
_atom_site_fract_z
Si Si1 0.838273 0.294180 0.419265
Si Si2 0.328735 0.902689 0.283695
Si Si3 0.826916 0.104352 0.421270
Si Si4 0.829164 0.846312 0.919682
Si Si5 0.672683 0.199928 0.788509
Si Si6 0.832352 0.945093 0.153442
O O1 0.869232 0.278323 0.500000
O O2 0.750000 0.250000 0.379929
O O3 0.735537 0.341085 0.416588
O O4 0.000000 0.303311 0.382459
O O5 0.500000 0.911408 0.293216
O O6 0.250831 0.923465 0.355687
O O7 0.292544 0.844554 0.267382
O O8 0.273530 0.936651 0.220060
O O9 0.790509 0.081547 0.500000
O O10 0.000000 0.105027 0.408648
O O11 0.733310 0.813569 0.866505
O O12 0.799436 0.904757 0.907341
O O13 0.000000 0.833661 0.906899
O O14 0.780923 0.833705 0.000000
O O15 0.500000 0.208932 0.796021
O O16 0.750000 0.250000 0.760994
O O17 0.000000 0.939705 0.180551
O O18 0.803280 0.000000 0.122233
#
# Coordination Sequence:
#
# PCOD8270502 Si02
#       6
#    16  16  16  16  16  16
#     4   9  16  26  40  59  86 120 158 200 246 298
#     4  10  21  36  54  77 105 138 178 223 269 321
#     4  10  20  33  50  72  98 130 168 213 269 327
#     4   9  18  33  54  82 115 147 179 217 260 308
#     4  10  21  36  54  76 104 143 188 228 266 309
#     4   9  18  34  57  83 110 141 176 215 262 316
#
# _framework density 20.799073
#
# number of rings (size 3 to 8) (size 9 to 14) (size 15 to 20)
#    0.000    2.500    0.000    2.000    0.000    7.000 
#    0.000    3.333    0.000    0.500    0.000    8.167 
#    0.000    0.000    0.000    0.000    0.000    0.000 
#
# Total GULP energy -594913.968916 kJ/mol
# GULP energy per Si atom -12394.041019 kJ/mol
# Density = 2.075173 g / cm^3
# Si number density = 20.799073 Si / 1000 Ang^3
#
#
#
# Elastic Constant Matrix: (Units=GPa)
#
#
# Indices 1 2 3 4 5 6 
#
# 1 96.5451 10.5956 50.2494 0.0000 0.0000 0.0000
# 2 10.5956 46.0693 -5.5062 0.0000 0.0000 0.0000
# 3 50.2494 -5.5062 112.3627 0.0000 0.0000 0.0000
# 4 0.0000 0.0000 0.0000 24.8895 0.0000 0.0000
# 5 0.0000 0.0000 0.0000 0.0000 23.5879 0.0000
# 6 0.0000 0.0000 0.0000 0.0000 0.0000 21.9851
#
#
#
# Elastic Compliance Matrix: (Units=1/GPa)
#
#
# Indices 1 2 3 4 5 6 
#
# 1 0.014215 -0.004053 -0.006555 0.000000 0.000000 0.000000
# 2 -0.004053 0.022990 0.002939 0.000000 0.000000 0.000000
# 3 -0.006555 0.002939 0.011975 0.000000 0.000000 0.000000
# 4 0.000000 0.000000 0.000000 0.040178 0.000000 0.000000
# 5 0.000000 0.000000 0.000000 0.000000 0.042395 0.000000
# 6 0.000000 0.000000 0.000000 0.000000 0.000000 0.045485
#
#
# Mechanical properties :
#
#
# Convention : Reuss Voigt Hill
#
# Bulk Modulus (GPa) = 29.54961 40.62831 35.08896
# Shear Modulus (GPa) = 24.52707 27.40171 25.96439
#
# Velocity S-wave (km/s) = 3.43773 3.63361 3.53702
# Velocity P-wave (km/s) = 5.47680 6.09756 5.79550
#
# Compressibility (1/GPa) = 0.03384139
#
# Stress axis : x y z
#
# Youngs Moduli (GPa) = 70.35023 43.49750 83.50439
#
# Poissons Ratio (x) = 0.17629 0.54741
# Poissons Ratio (y) = 0.28511 -0.24542
# Poissons Ratio (z) = 0.46118 -0.12784
#
# Static dielectric constant tensor:
#      x y z
#    x 3.422820 0.000000 0.000000 
#    y 0.000000 3.514460 0.000000 
#    z 0.000000 0.000000 4.017640 
# 
# 
# High freq. dielectric constant tensor:
#      x y z
#    x 1.819750 0.000000 0.000000 
#    y 0.000000 1.785020 0.000000 
#    z 0.000000 0.000000 1.815260 
# 
# From -- ./inp_files/60282.got.cif
#   From: 2010.03.12/outbox.cif.g09.slc.cpg/sg65_31_cif.got.tgz:60282.got - 2010.04.10 20:52:16.
