data_PCOD8270943
_publ_section_title
;
Structure prediction by ZEFSAII (Michael W. Deem and Ramdas Pophale) SiO2 
 PCOD8270943
Probable space group: C M M M
;
_chemical_formula_sum "Si O2"
_cell_formula_units_Z 104
_cell_length_a 9.221179
_cell_length_b 26.984340
_cell_length_c 26.567294
_cell_angle_alpha 90.000000
_cell_angle_beta 90.000000
_cell_angle_gamma 90.000000
_cell_volume 6610.671470
_symmetry_space_group_name_H-M "C M M M"
_symmetry_group_IT_number 65
_symmetry_cell_setting 'orthorhombic'
loop_
_space_group_symop_operation_xyz
x,y,z
-x,-y,z
x,-y,-z
-x,y,-z
-x,-y,-z
x,y,-z
-x,y,z
x,-y,z
1/2+x,1/2+y,z
1/2-x,1/2-y,z
1/2+x,1/2-y,-z
1/2-x,1/2+y,-z
1/2-x,1/2-y,-z
1/2+x,1/2+y,-z
1/2-x,1/2+y,z
1/2+x,1/2-y,z
loop_
_atom_site_type_symbol
_atom_site_label
_atom_site_fract_x
_atom_site_fract_y
_atom_site_fract_z
Si Si1 0.832769 0.054749 0.612118
Si Si2 0.669307 0.652496 0.557493
Si Si3 0.331657 0.942546 0.805249
Si Si4 0.829540 0.701264 0.646631
Si Si5 0.168339 0.398959 0.700445
Si Si6 0.836217 0.941029 0.096672
Si Si7 0.164255 0.440866 0.000000
O O1 0.791795 0.095269 0.569959
O O2 0.748086 0.063357 0.663664
O O3 0.000000 0.059070 0.626440
O O4 0.794955 0.000000 0.590910
O O5 0.711813 0.662740 0.500000
O O6 0.500000 0.663272 0.567436
O O7 0.765055 0.688477 0.591820
O O8 0.500000 0.935053 0.818408
O O9 0.283108 0.909778 0.757474
O O10 0.239364 0.922505 0.852227
O O11 0.298448 0.000000 0.793617
O O12 0.750000 0.750000 0.667660
O O13 0.794629 0.657727 0.686298
O O14 0.000000 0.710869 0.641025
O O15 0.000000 0.410260 0.693759
O O16 0.746991 0.920192 0.049107
O O17 0.000000 0.920446 0.094431
O O18 0.835520 0.000000 0.095085
O O19 0.164097 0.500000 0.000000
O O20 0.000000 0.420577 0.000000
#
# Coordination Sequence:
#
# PCOD8270943 Si02
#       7
#    16  16  16  16  16  16   8
#     4   9  17  28  43  64  88 113 140 169 202 241
#     4   9  18  32  48  66  88 112 138 168 202 243
#     4   9  16  26  40  58  81 109 140 171 203 241
#     4  10  20  34  51  68  85 106 134 169 211 257
#     4   9  18  31  46  63  83 109 140 173 208 249
#     4   9  16  24  34  51  76 106 141 179 214 244
#     4   9  15  23  35  49  69 103 146 185 216 245
#
# _framework density 15.732139
#
# number of rings (size 3 to 8) (size 9 to 14) (size 15 to 20)
#    0.000    2.846    0.000    1.615    0.000    5.846 
#    0.000    3.077    0.000    0.000    0.000    4.308 
#    0.000    0.000    0.000    0.692    0.000    8.385 
#
# Total GULP energy -644754.803745 kJ/mol
# GULP energy per Si atom -12399.130841 kJ/mol
# Density = 1.569633 g / cm^3
# Si number density = 15.732139 Si / 1000 Ang^3
#
#
#
# Elastic Constant Matrix: (Units=GPa)
#
#
# Indices 1 2 3 4 5 6 
#
# 1 77.1370 25.8181 52.2198 0.0000 0.0000 0.0000
# 2 25.8181 57.0367 27.4397 0.0000 0.0000 0.0000
# 3 52.2198 27.4397 117.4047 0.0000 0.0000 0.0000
# 4 0.0000 0.0000 0.0000 11.7682 0.0000 0.0000
# 5 0.0000 0.0000 0.0000 0.0000 27.5307 0.0000
# 6 0.0000 0.0000 0.0000 0.0000 0.0000 17.3890
#
#
#
# Elastic Compliance Matrix: (Units=1/GPa)
#
#
# Indices 1 2 3 4 5 6 
#
# 1 0.019901 -0.005352 -0.007601 0.000000 0.000000 0.000000
# 2 -0.005352 0.021193 -0.002573 0.000000 0.000000 0.000000
# 3 -0.007601 -0.002573 0.012500 0.000000 0.000000 0.000000
# 4 0.000000 0.000000 0.000000 0.084975 0.000000 0.000000
# 5 0.000000 0.000000 0.000000 0.000000 0.036323 0.000000
# 6 0.000000 0.000000 0.000000 0.000000 0.000000 0.057508
#
#
# Mechanical properties :
#
#
# Convention : Reuss Voigt Hill
#
# Bulk Modulus (GPa) = 44.36033 51.39262 47.87647
# Shear Modulus (GPa) = 18.45271 21.07764 19.76518
#
# Velocity S-wave (km/s) = 3.42852 3.66427 3.54836
# Velocity P-wave (km/s) = 6.62808 7.11623 6.87649
#
# Compressibility (1/GPa) = 0.02254267
#
# Stress axis : x y z
#
# Youngs Moduli (GPa) = 50.24964 47.18589 80.00288
#
# Poissons Ratio (x) = 0.25252 0.60808
# Poissons Ratio (y) = 0.26891 0.20584
# Poissons Ratio (z) = 0.38193 0.12140
#
# Static dielectric constant tensor:
#      x y z
#    x 3.085560 0.000000 0.000000 
#    y 0.000000 2.816380 0.000000 
#    z 0.000000 0.000000 3.024250 
# 
# 
# High freq. dielectric constant tensor:
#      x y z
#    x 1.612330 0.000000 0.000000 
#    y 0.000000 1.562420 0.000000 
#    z 0.000000 0.000000 1.599050 
# 
# From -- ./inp_files/68192.got.cif
#   From: 2010.03.12/outbox.cif.g09.slc.cpg/sg65_35_cif.got.tgz:68192.got - 2010.04.10 20:52:16.
