data_PCOD8270959
_publ_section_title
;
Structure prediction by ZEFSAII (Michael W. Deem and Ramdas Pophale) SiO2 
 PCOD8270959
Probable space group: C M M M
;
_chemical_formula_sum "Si O2"
_cell_formula_units_Z 96
_cell_length_a 18.033797
_cell_length_b 8.925669
_cell_length_c 31.532763
_cell_angle_alpha 90.000000
_cell_angle_beta 90.000000
_cell_angle_gamma 90.000000
_cell_volume 5075.630293
_symmetry_space_group_name_H-M "C M M M"
_symmetry_group_IT_number 65
_symmetry_cell_setting 'orthorhombic'
loop_
_space_group_symop_operation_xyz
x,y,z
-x,-y,z
x,-y,-z
-x,y,-z
-x,-y,-z
x,y,-z
-x,y,z
x,-y,z
1/2+x,1/2+y,z
1/2-x,1/2-y,z
1/2+x,1/2-y,-z
1/2-x,1/2+y,-z
1/2-x,1/2-y,-z
1/2+x,1/2+y,-z
1/2-x,1/2+y,z
1/2+x,1/2-y,z
loop_
_atom_site_type_symbol
_atom_site_label
_atom_site_fract_x
_atom_site_fract_y
_atom_site_fract_z
Si Si1 0.088291 0.168246 0.288133
Si Si2 0.588176 0.668653 0.453562
Si Si3 0.170188 0.324560 0.953974
Si Si4 0.412017 0.830021 0.204013
Si Si5 0.169167 0.177744 0.871575
Si Si6 0.411476 0.167794 0.628654
O O1 0.117116 0.268499 0.249081
O O2 0.119383 0.235779 0.332022
O O3 0.000000 0.168466 0.288985
O O4 0.118967 0.000000 0.283011
O O5 0.613676 0.729715 0.500000
O O6 0.500000 0.670107 0.451301
O O7 0.617298 0.500000 0.447267
O O8 0.621111 0.769102 0.415656
O O9 0.177993 0.500000 0.943653
O O10 0.250000 0.250000 0.957077
O O11 0.129448 0.242267 0.914611
O O12 0.129843 0.301617 0.000000
O O13 0.500000 0.823327 0.201958
O O14 0.381137 0.723147 0.167717
O O15 0.383291 0.000000 0.198294
O O16 0.250000 0.250000 0.866227
O O17 0.175517 0.000000 0.874197
O O18 0.500000 0.172444 0.628096
O O19 0.382010 0.000000 0.634201
#
# Coordination Sequence:
#
# PCOD8270959 Si02
#       6
#    16  16  16  16  16  16
#     4   9  16  26  40  57  77 103 138 178 219 264
#     4   8  13  20  28  38  55  82 117 158 205 255
#     4   9  16  27  45  69  96 124 155 191 230 271
#     4  10  20  34  51  70  94 123 156 195 238 282
#     4  11  21  33  51  74 101 129 159 194 232 276
#     4   9  15  21  30  45  65  90 123 165 211 256
#
# _framework density 18.913906999999998
#
# number of rings (size 3 to 8) (size 9 to 14) (size 15 to 20)
#    0.000    2.667    0.000    5.000    0.000    6.333 
#    0.000    1.667    0.000    0.500    0.000    3.500 
#    0.000    0.000    0.000    0.000    0.000    0.833 
#
# Total GULP energy -594842.093368 kJ/mol
# GULP energy per Si atom -12392.543612 kJ/mol
# Density = 1.887086 g / cm^3
# Si number density = 18.913907 Si / 1000 Ang^3
#
#
#
# Elastic Constant Matrix: (Units=GPa)
#
#
# Indices 1 2 3 4 5 6 
#
# 1 6.3547 13.3866 14.8685 0.0000 0.0000 0.0000
# 2 13.3866 157.9394 80.3553 0.0000 0.0000 0.0000
# 3 14.8685 80.3553 185.3144 0.0000 0.0000 0.0000
# 4 0.0000 0.0000 0.0000 40.3436 0.0000 0.0000
# 5 0.0000 0.0000 0.0000 0.0000 -15.1831 0.0000
# 6 0.0000 0.0000 0.0000 0.0000 0.0000 12.8561
#
#
#
# Elastic Compliance Matrix: (Units=1/GPa)
#
#
# Indices 1 2 3 4 5 6 
#
# 1 0.209619 -0.011817 -0.011695 0.000000 0.000000 0.000000
# 2 -0.011817 0.008790 -0.002863 0.000000 0.000000 0.000000
# 3 -0.011695 -0.002863 0.007576 0.000000 0.000000 0.000000
# 4 0.000000 0.000000 0.000000 0.024787 0.000000 0.000000
# 5 0.000000 0.000000 0.000000 0.000000 -0.065863 0.000000
# 6 0.000000 0.000000 0.000000 0.000000 0.000000 0.077784
#
#
# Mechanical properties :
#
#
# Convention : Reuss Voigt Hill
#
# Bulk Modulus (GPa) = 5.77249 62.98102 34.37676
# Shear Modulus (GPa) = 13.39804 23.66985 18.53395
#
# Velocity S-wave (km/s) = 2.66441 3.54143 3.13375
# Velocity P-wave (km/s) = 3.53893 7.07766 5.59542
#
# Compressibility (1/GPa) = 0.17323556
#
# Stress axis : x y z
#
# Youngs Moduli (GPa) = 4.77055 113.76696 131.99380
#
# Poissons Ratio (x) = 1.34438 1.54361
# Poissons Ratio (y) = 0.05637 0.37794
# Poissons Ratio (z) = 0.05579 0.32575
#
# Static dielectric constant tensor:
#      x y z
#    x 2.621230 0.000000 0.000000 
#    y 0.000000 3.688280 0.000000 
#    z 0.000000 0.000000 4.214660 
# 
# 
# High freq. dielectric constant tensor:
#      x y z
#    x 1.637650 0.000000 0.000000 
#    y 0.000000 1.750260 0.000000 
#    z 0.000000 0.000000 1.765250 
# 
# From -- ./inp_files/75685.got.cif
#   From: 2010.03.12/outbox.cif.g09.slc.cpg/sg65_38_cif.got.tgz:75685.got - 2010.04.10 20:52:16.
