data_PCOD8270559
_publ_section_title
;
Structure prediction by ZEFSAII (Michael W. Deem and Ramdas Pophale) SiO2 
 PCOD8270559
Probable space group: C M M M
;
_chemical_formula_sum "Si O2"
_cell_formula_units_Z 88
_cell_length_a 9.009592
_cell_length_b 19.676068
_cell_length_c 27.492379
_cell_angle_alpha 90.000000
_cell_angle_beta 90.000000
_cell_angle_gamma 90.000000
_cell_volume 4873.665983
_symmetry_space_group_name_H-M "C M M M"
_symmetry_group_IT_number 65
_symmetry_cell_setting 'orthorhombic'
loop_
_space_group_symop_operation_xyz
x,y,z
-x,-y,z
x,-y,-z
-x,y,-z
-x,-y,-z
x,y,-z
-x,y,z
x,-y,z
1/2+x,1/2+y,z
1/2-x,1/2-y,z
1/2+x,1/2-y,-z
1/2-x,1/2+y,-z
1/2-x,1/2-y,-z
1/2+x,1/2+y,-z
1/2-x,1/2+y,z
1/2+x,1/2-y,z
loop_
_atom_site_type_symbol
_atom_site_label
_atom_site_fract_x
_atom_site_fract_y
_atom_site_fract_z
Si Si1 0.172807 0.920114 0.193167
Si Si2 0.667453 0.080793 0.904468
Si Si3 0.330029 0.579027 0.444688
Si Si4 0.332051 0.418883 0.000000
Si Si5 0.172382 0.681914 0.622955
Si Si6 0.674758 0.180402 0.735223
O O1 0.241592 0.894280 0.142407
O O2 0.256268 0.883062 0.236769
O O3 0.000000 0.901451 0.193555
O O4 0.198981 0.000000 0.200342
O O5 0.500000 0.109581 0.902073
O O6 0.665091 0.000000 0.906509
O O7 0.747984 0.109568 0.952494
O O8 0.296081 0.601045 0.500000
O O9 0.500000 0.595415 0.431586
O O10 0.296495 0.500000 0.437779
O O11 0.223487 0.618300 0.408426
O O12 0.331940 0.500000 0.000000
O O13 0.500000 0.391194 0.000000
O O14 0.250000 0.750000 0.603685
O O15 0.213103 0.667934 0.678906
O O16 0.000000 0.692871 0.615560
O O17 0.500000 0.184636 0.744990
O O18 0.750000 0.250000 0.753654
#
# Coordination Sequence:
#
# PCOD8270559 Si02
#       6
#    16  16  16   8  16  16
#     4  10  20  33  50  74 103 134 169 209 254 304
#     4   9  16  26  41  63  93 128 165 206 252 300
#     4   9  19  36  56  78 106 139 172 207 250 300
#     4   9  15  23  37  59  90 127 164 203 250 303
#     4  10  21  36  55  78 103 133 170 212 255 300
#     4  10  21  37  55  75 101 133 170 211 255 304
#
# _framework density 18.056222999999999
#
# number of rings (size 3 to 8) (size 9 to 14) (size 15 to 20)
#    0.000    2.455    0.000    3.000    0.000    8.364 
#    0.000    4.545    0.000    0.000    0.000    0.636 
#    0.000    0.000    0.000    0.000    0.000    0.000 
#
# Total GULP energy -545703.134465 kJ/mol
# GULP energy per Si atom -12402.343965 kJ/mol
# Density = 1.801513 g / cm^3
# Si number density = 18.056223 Si / 1000 Ang^3
#
#
#
# Elastic Constant Matrix: (Units=GPa)
#
#
# Indices 1 2 3 4 5 6 
#
# 1 122.6767 42.2863 64.4104 0.0000 0.0000 0.0000
# 2 42.2863 53.0566 49.0360 0.0000 0.0000 0.0000
# 3 64.4104 49.0360 103.7207 0.0000 0.0000 0.0000
# 4 0.0000 0.0000 0.0000 2.7835 0.0000 0.0000
# 5 0.0000 0.0000 0.0000 0.0000 38.5244 0.0000
# 6 0.0000 0.0000 0.0000 0.0000 0.0000 30.1341
#
#
#
# Elastic Compliance Matrix: (Units=1/GPa)
#
#
# Indices 1 2 3 4 5 6 
#
# 1 0.012822 -0.005080 -0.005561 0.000000 0.000000 0.000000
# 2 -0.005080 0.035487 -0.013622 0.000000 0.000000 0.000000
# 3 -0.005561 -0.013622 0.019535 0.000000 0.000000 0.000000
# 4 0.000000 0.000000 0.000000 0.359264 0.000000 0.000000
# 5 0.000000 0.000000 0.000000 0.000000 0.025958 0.000000
# 6 0.000000 0.000000 0.000000 0.000000 0.000000 0.033185
#
#
# Mechanical properties :
#
#
# Convention : Reuss Voigt Hill
#
# Bulk Modulus (GPa) = 51.76717 65.65771 58.71244
# Shear Modulus (GPa) = 9.23845 22.53648 15.88747
#
# Velocity S-wave (km/s) = 2.26442 3.53672 2.96951
# Velocity P-wave (km/s) = 5.96398 7.28833 6.65916
#
# Compressibility (1/GPa) = 0.01931726
#
# Stress axis : x y z
#
# Youngs Moduli (GPa) = 77.98930 28.17968 51.19028
#
# Poissons Ratio (x) = 0.14315 0.28467
# Poissons Ratio (y) = 0.39617 0.69734
# Poissons Ratio (z) = 0.43370 0.38388
#
# Static dielectric constant tensor:
#      x y z
#    x 3.480460 0.000000 0.000000 
#    y 0.000000 2.993320 0.000000 
#    z 0.000000 0.000000 3.416410 
# 
# 
# High freq. dielectric constant tensor:
#      x y z
#    x 1.715760 0.000000 0.000000 
#    y 0.000000 1.663010 0.000000 
#    z 0.000000 0.000000 1.706400 
# 
# From -- ./inp_files/67456.got.cif
#   From: 2010.03.12/outbox.cif.g09.slc.cpg/sg65_34_cif.got.tgz:67456.got - 2010.04.10 20:52:16.
