data_PCOD8270712
_publ_section_title
;
Structure prediction by ZEFSAII (Michael W. Deem and Ramdas Pophale) SiO2 
 PCOD8270712
Probable space group: C M M M
;
_chemical_formula_sum "Si O2"
_cell_formula_units_Z 104
_cell_length_a 22.321054
_cell_length_b 14.587639
_cell_length_c 17.487123
_cell_angle_alpha 90.000000
_cell_angle_beta 90.000000
_cell_angle_gamma 90.000000
_cell_volume 5694.007963
_symmetry_space_group_name_H-M "C M M M"
_symmetry_group_IT_number 65
_symmetry_cell_setting 'orthorhombic'
loop_
_space_group_symop_operation_xyz
x,y,z
-x,-y,z
x,-y,-z
-x,y,-z
-x,-y,-z
x,y,-z
-x,y,z
x,-y,z
1/2+x,1/2+y,z
1/2-x,1/2-y,z
1/2+x,1/2-y,-z
1/2-x,1/2+y,-z
1/2-x,1/2-y,-z
1/2+x,1/2+y,-z
1/2-x,1/2+y,z
1/2+x,1/2-y,z
loop_
_atom_site_type_symbol
_atom_site_label
_atom_site_fract_x
_atom_site_fract_y
_atom_site_fract_z
Si Si1 0.365695 0.399680 0.159926
Si Si2 0.568696 0.601636 0.317263
Si Si3 0.760209 0.602376 0.088070
Si Si4 0.929513 0.728506 0.584092
Si Si5 0.122658 0.299381 0.866413
Si Si6 0.429427 0.105912 0.721931
Si Si7 0.567551 0.096695 0.000000
O O1 0.387491 0.500000 0.126637
O O2 0.384198 0.394149 0.248150
O O3 0.294520 0.391614 0.147530
O O4 0.392394 0.308561 0.120882
O O5 0.500000 0.623519 0.289577
O O6 0.570646 0.500000 0.353997
O O7 0.590881 0.674644 0.379742
O O8 0.788070 0.500000 0.093518
O O9 0.808558 0.678038 0.113268
O O10 0.739925 0.621945 0.000000
O O11 0.899606 0.716564 0.500000
O O12 0.911086 0.643529 0.638285
O O13 0.000000 0.729736 0.574241
O O14 0.107561 0.333067 0.781506
O O15 0.079342 0.348635 0.924000
O O16 0.500000 0.118552 0.737117
O O17 0.410354 0.000000 0.727917
O O18 0.500000 0.069520 0.000000
O O19 0.604205 0.000000 0.000000
#
# Coordination Sequence:
#
# PCOD8270712 Si02
#       7
#    16  16  16  16  16  16   8
#     4  10  22  36  53  77 105 138 174 215 261 312
#     4   9  17  32  53  76 105 140 176 214 257 309
#     4  10  21  37  57  80 106 134 173 224 271 312
#     4   9  17  30  49  76 109 140 172 212 261 317
#     4  12  21  35  58  77 104 142 179 219 265 312
#     4  10  20  33  51  77 108 141 178 218 262 317
#     4  11  24  38  54  79 107 137 175 221 270 315
#
# _framework density 18.264814000000001
#
# number of rings (size 3 to 8) (size 9 to 14) (size 15 to 20)
#    0.000    1.923    2.308    2.308    1.077    3.077 
#    0.000    3.077    0.000    0.462    0.000    2.154 
#    0.000    3.692    0.000    0.000    0.000    0.000 
#
# Total GULP energy -644273.972255 kJ/mol
# GULP energy per Si atom -12389.884082 kJ/mol
# Density = 1.822324 g / cm^3
# Si number density = 18.264814 Si / 1000 Ang^3
#
#
#
# Elastic Constant Matrix: (Units=GPa)
#
#
# Indices 1 2 3 4 5 6 
#
# 1 50.7692 21.5004 38.5627 0.0000 0.0000 0.0000
# 2 21.5004 170.1633 50.1788 0.0000 0.0000 0.0000
# 3 38.5627 50.1788 109.9474 0.0000 0.0000 0.0000
# 4 0.0000 0.0000 0.0000 23.0797 0.0000 0.0000
# 5 0.0000 0.0000 0.0000 0.0000 210.7608 0.0000
# 6 0.0000 0.0000 0.0000 0.0000 0.0000 -348.0853
#
#
#
# Elastic Compliance Matrix: (Units=1/GPa)
#
#
# Indices 1 2 3 4 5 6 
#
# 1 0.026925 -0.000713 -0.009118 0.000000 0.000000 0.000000
# 2 -0.000713 0.006810 -0.002858 0.000000 0.000000 0.000000
# 3 -0.009118 -0.002858 0.013598 0.000000 0.000000 0.000000
# 4 0.000000 0.000000 0.000000 0.043328 0.000000 0.000000
# 5 0.000000 0.000000 0.000000 0.000000 0.004745 0.000000
# 6 0.000000 0.000000 0.000000 0.000000 0.000000 -0.002873
#
#
# Mechanical properties :
#
#
# Convention : Reuss Voigt Hill
#
# Bulk Modulus (GPa) = 45.54971 61.26263 53.40617
# Shear Modulus (GPa) = 39.92729 -8.13977 15.89376
#
# Velocity S-wave (km/s) = 4.68056 -2.11334 2.95309
# Velocity P-wave (km/s) = 7.36226 5.25920 6.39774
#
# Compressibility (1/GPa) = 0.02195404
#
# Stress axis : x y z
#
# Youngs Moduli (GPa) = 37.14041 146.85363 73.54287
#
# Poissons Ratio (x) = 0.10474 0.67057
# Poissons Ratio (y) = 0.02649 0.21016
# Poissons Ratio (z) = 0.33865 0.41965
#
# Static dielectric constant tensor:
#      x y z
#    x 3.060360 0.000000 0.000000 
#    y 0.000000 3.856070 0.000000 
#    z 0.000000 0.000000 3.542130 
# 
# 
# High freq. dielectric constant tensor:
#      x y z
#    x 1.668310 0.000000 0.000000 
#    y 0.000000 1.738390 0.000000 
#    z 0.000000 0.000000 1.692530 
# 
# From -- ./inp_files/55868.got.cif
#   From: 2010.03.12/outbox.cif.g09.slc.cpg/sg65_28_cif.got.tgz:55868.got - 2010.04.10 20:52:16.
