data_PCOD8270336
_publ_section_title
;
Structure prediction by ZEFSAII (Michael W. Deem and Ramdas Pophale) SiO2 
 PCOD8270336
Probable space group: C M M M
;
_chemical_formula_sum "Si O2"
_cell_formula_units_Z 104
_cell_length_a 8.896646
_cell_length_b 27.258381
_cell_length_c 23.956259
_cell_angle_alpha 90.000000
_cell_angle_beta 90.000000
_cell_angle_gamma 90.000000
_cell_volume 5809.588441
_symmetry_space_group_name_H-M "C M M M"
_symmetry_group_IT_number 65
_symmetry_cell_setting 'orthorhombic'
loop_
_space_group_symop_operation_xyz
x,y,z
-x,-y,z
x,-y,-z
-x,y,-z
-x,-y,-z
x,y,-z
-x,y,z
x,-y,z
1/2+x,1/2+y,z
1/2-x,1/2-y,z
1/2+x,1/2-y,-z
1/2-x,1/2+y,-z
1/2-x,1/2-y,-z
1/2+x,1/2+y,-z
1/2-x,1/2+y,z
1/2+x,1/2-y,z
loop_
_atom_site_type_symbol
_atom_site_label
_atom_site_fract_x
_atom_site_fract_y
_atom_site_fract_z
Si Si1 0.176202 0.100287 0.064606
Si Si2 0.821111 0.055297 0.561534
Si Si3 0.322889 0.393794 0.670130
Si Si4 0.828998 0.445606 0.234645
Si Si5 0.667738 0.000000 0.934104
Si Si6 0.824578 0.353413 0.161888
Si Si7 0.820977 0.199237 0.261475
O O1 0.252089 0.144456 0.100093
O O2 0.000000 0.098997 0.076215
O O3 0.244048 0.048446 0.084738
O O4 0.212435 0.110849 0.000000
O O5 0.765051 0.072329 0.500000
O O6 0.758552 0.093227 0.608378
O O7 0.000000 0.055046 0.562971
O O8 0.763008 0.000000 0.573808
O O9 0.500000 0.392615 0.668292
O O10 0.273988 0.436972 0.711556
O O11 0.264644 0.341418 0.693560
O O12 0.797307 0.500000 0.210657
O O13 0.791328 0.407090 0.186660
O O14 0.000000 0.439494 0.254671
O O15 0.500000 0.000000 0.906904
O O16 0.652880 0.000000 0.000000
O O17 0.742445 0.312990 0.199909
O O18 0.000000 0.340287 0.158196
O O19 0.750000 0.250000 0.282194
O O20 0.000000 0.202790 0.258485
#
# Coordination Sequence:
#
# PCOD8270336 Si02
#       7
#    16  16  16  16   8  16  16
#     4  10  20  33  48  69  99 132 166 204 244 288
#     4   8  13  22  40  69 103 135 166 201 239 278
#     4   9  17  29  47  71  95 123 163 206 244 287
#     4   9  18  30  43  64  96 130 159 193 238 286
#     4   9  17  29  45  65  91 129 173 207 236 277
#     4  10  20  33  51  73  97 126 162 200 243 296
#     4  10  20  35  54  74  96 121 157 204 256 307
#
# _framework density 17.901440000000001
#
# number of rings (size 3 to 8) (size 9 to 14) (size 15 to 20)
#    0.000    2.692    0.000    2.538    1.077    4.000 
#    0.000    0.000    0.000    1.385    0.000    2.154 
#    0.000    0.000    0.000    0.000    0.000    0.462 
#
# Total GULP energy -644589.374680 kJ/mol
# GULP energy per Si atom -12395.949513 kJ/mol
# Density = 1.786070 g / cm^3
# Si number density = 17.901440 Si / 1000 Ang^3
#
#
#
# Elastic Constant Matrix: (Units=GPa)
#
#
# Indices 1 2 3 4 5 6 
#
# 1 56.7025 24.4572 31.5312 0.0000 0.0000 0.0000
# 2 24.4572 76.5937 34.7187 0.0000 0.0000 0.0000
# 3 31.5312 34.7187 98.3557 0.0000 0.0000 0.0000
# 4 0.0000 0.0000 0.0000 19.8577 0.0000 0.0000
# 5 0.0000 0.0000 0.0000 0.0000 14.9156 0.0000
# 6 0.0000 0.0000 0.0000 0.0000 0.0000 25.3326
#
#
#
# Elastic Compliance Matrix: (Units=1/GPa)
#
#
# Indices 1 2 3 4 5 6 
#
# 1 0.022814 -0.004726 -0.005646 0.000000 0.000000 0.000000
# 2 -0.004726 0.016522 -0.004317 0.000000 0.000000 0.000000
# 3 -0.005646 -0.004317 0.013501 0.000000 0.000000 0.000000
# 4 0.000000 0.000000 0.000000 0.050358 0.000000 0.000000
# 5 0.000000 0.000000 0.000000 0.000000 0.067044 0.000000
# 6 0.000000 0.000000 0.000000 0.000000 0.000000 0.039475
#
#
# Mechanical properties :
#
#
# Convention : Reuss Voigt Hill
#
# Bulk Modulus (GPa) = 42.62615 45.89624 44.26119
# Shear Modulus (GPa) = 20.25034 21.41750 20.83392
#
# Velocity S-wave (km/s) = 3.36700 3.46267 3.41517
# Velocity P-wave (km/s) = 6.24330 6.45606 6.35057
#
# Compressibility (1/GPa) = 0.02345978
#
# Stress axis : x y z
#
# Youngs Moduli (GPa) = 43.83359 60.52650 74.06888
#
# Poissons Ratio (x) = 0.28602 0.41816
# Poissons Ratio (y) = 0.20714 0.31976
# Poissons Ratio (z) = 0.24747 0.26130
#
# Static dielectric constant tensor:
#      x y z
#    x 3.197190 0.000000 0.000000 
#    y 0.000000 3.236510 0.000000 
#    z 0.000000 0.000000 3.560560 
# 
# 
# High freq. dielectric constant tensor:
#      x y z
#    x 1.683210 0.000000 0.000000 
#    y 0.000000 1.666240 0.000000 
#    z 0.000000 0.000000 1.690130 
# 
# From -- ./inp_files/68281.got.cif
#   From: 2010.03.12/outbox.cif.g09.slc.cpg/sg65_35_cif.got.tgz:68281.got - 2010.04.10 20:52:16.
