data_PCOD8270969
_publ_section_title
;
Structure prediction by ZEFSAII (Michael W. Deem and Ramdas Pophale) SiO2 
 PCOD8270969
Probable space group: C M M M
;
_chemical_formula_sum "Si O2"
_cell_formula_units_Z 104
_cell_length_a 9.349966
_cell_length_b 26.562073
_cell_length_c 22.888170
_cell_angle_alpha 90.000000
_cell_angle_beta 90.000000
_cell_angle_gamma 90.000000
_cell_volume 5684.379546
_symmetry_space_group_name_H-M "C M M M"
_symmetry_group_IT_number 65
_symmetry_cell_setting 'orthorhombic'
loop_
_space_group_symop_operation_xyz
x,y,z
-x,-y,z
x,-y,-z
-x,y,-z
-x,-y,-z
x,y,-z
-x,y,z
x,-y,z
1/2+x,1/2+y,z
1/2-x,1/2-y,z
1/2+x,1/2-y,-z
1/2-x,1/2+y,-z
1/2-x,1/2-y,-z
1/2+x,1/2+y,-z
1/2-x,1/2+y,z
1/2+x,1/2-y,z
loop_
_atom_site_type_symbol
_atom_site_label
_atom_site_fract_x
_atom_site_fract_y
_atom_site_fract_z
Si Si1 0.670274 0.600022 0.869411
Si Si2 0.329531 0.500000 0.066358
Si Si3 0.333658 0.297603 0.333643
Si Si4 0.665737 0.700823 0.931614
Si Si5 0.165027 0.897164 0.262559
Si Si6 0.336769 0.055779 0.361269
Si Si7 0.167002 0.348739 0.432854
O O1 0.500000 0.600311 0.872008
O O2 0.729794 0.550190 0.901791
O O3 0.727248 0.650888 0.900167
O O4 0.726016 0.599556 0.802915
O O5 0.500000 0.500000 0.067889
O O6 0.273149 0.500000 0.000000
O O7 0.500000 0.285500 0.343450
O O8 0.250000 0.250000 0.307270
O O9 0.310011 0.341238 0.286682
O O10 0.263074 0.310371 0.396108
O O11 0.500000 0.709281 0.916425
O O12 0.750000 0.750000 0.908982
O O13 0.690290 0.692585 0.000000
O O14 0.245749 0.936993 0.302777
O O15 0.000000 0.912347 0.263920
O O16 0.500000 0.063483 0.342438
O O17 0.295327 0.094613 0.412332
O O18 0.308402 0.000000 0.386267
O O19 0.211240 0.343460 0.500000
O O20 0.000000 0.336409 0.423148
#
# Coordination Sequence:
#
# PCOD8270969 Si02
#       7
#    16   8  16  16  16  16  16
#     4   9  17  29  46  71 100 129 164 206 248 293
#     4   9  16  26  44  72 103 133 164 203 252 298
#     4  10  20  34  51  71  97 130 164 201 246 294
#     4   9  17  30  48  70  97 127 160 201 247 294
#     4   9  19  33  49  71  97 126 163 203 243 288
#     4   9  18  32  50  72  99 129 159 196 241 288
#     4   9  18  33  52  74  99 127 162 201 241 289
#
# _framework density 18.295752
#
# number of rings (size 3 to 8) (size 9 to 14) (size 15 to 20)
#    0.000    2.846    0.000    0.923    1.077    4.308 
#    0.000    2.308    0.000    0.000    0.000    4.308 
#    0.000    3.692    0.000    0.000    0.000    0.000 
#
# Total GULP energy -644779.698655 kJ/mol
# GULP energy per Si atom -12399.609590 kJ/mol
# Density = 1.825411 g / cm^3
# Si number density = 18.295752 Si / 1000 Ang^3
#
#
#
# Elastic Constant Matrix: (Units=GPa)
#
#
# Indices 1 2 3 4 5 6 
#
# 1 45.2633 28.5986 25.4408 0.0000 0.0000 0.0000
# 2 28.5986 105.6313 34.9369 0.0000 0.0000 0.0000
# 3 25.4408 34.9369 107.0149 0.0000 0.0000 0.0000
# 4 0.0000 0.0000 0.0000 15.8509 0.0000 0.0000
# 5 0.0000 0.0000 0.0000 0.0000 17.9594 0.0000
# 6 0.0000 0.0000 0.0000 0.0000 0.0000 24.8729
#
#
#
# Elastic Compliance Matrix: (Units=1/GPa)
#
#
# Indices 1 2 3 4 5 6 
#
# 1 0.028699 -0.006181 -0.004805 0.000000 0.000000 0.000000
# 2 -0.006181 0.011944 -0.002430 0.000000 0.000000 0.000000
# 3 -0.004805 -0.002430 0.011280 0.000000 0.000000 0.000000
# 4 0.000000 0.000000 0.000000 0.063088 0.000000 0.000000
# 5 0.000000 0.000000 0.000000 0.000000 0.055681 0.000000
# 6 0.000000 0.000000 0.000000 0.000000 0.000000 0.040204
#
#
# Mechanical properties :
#
#
# Convention : Reuss Voigt Hill
#
# Bulk Modulus (GPa) = 39.85371 48.42912 44.14141
# Shear Modulus (GPa) = 20.31770 22.99886 21.65828
#
# Velocity S-wave (km/s) = 3.33605 3.54935 3.44435
# Velocity P-wave (km/s) = 6.05552 6.58216 6.32432
#
# Compressibility (1/GPa) = 0.02509177
#
# Stress axis : x y z
#
# Youngs Moduli (GPa) = 34.84473 83.72432 88.65214
#
# Poissons Ratio (x) = 0.51748 0.42595
# Poissons Ratio (y) = 0.21537 0.21542
# Poissons Ratio (z) = 0.16742 0.20345
#
# Static dielectric constant tensor:
#      x y z
#    x 3.148240 0.000000 0.000000 
#    y 0.000000 3.547730 0.000000 
#    z 0.000000 0.000000 3.359010 
# 
# 
# High freq. dielectric constant tensor:
#      x y z
#    x 1.677910 0.000000 0.000000 
#    y 0.000000 1.720870 0.000000 
#    z 0.000000 0.000000 1.705190 
# 
# From -- ./inp_files/68158.got.cif
#   From: 2010.03.12/outbox.cif.g09.slc.cpg/sg65_35_cif.got.tgz:68158.got - 2010.04.10 20:52:16.
