data_PCOD8270468
_publ_section_title
;
Structure prediction by ZEFSAII (Michael W. Deem and Ramdas Pophale) SiO2 
 PCOD8270468
Probable space group: C M M M
;
_chemical_formula_sum "Si O2"
_cell_formula_units_Z 96
_cell_length_a 8.974252
_cell_length_b 27.083080
_cell_length_c 23.652186
_cell_angle_alpha 90.000000
_cell_angle_beta 90.000000
_cell_angle_gamma 90.000000
_cell_volume 5748.672910
_symmetry_space_group_name_H-M "C M M M"
_symmetry_group_IT_number 65
_symmetry_cell_setting 'orthorhombic'
loop_
_space_group_symop_operation_xyz
x,y,z
-x,-y,z
x,-y,-z
-x,y,-z
-x,-y,-z
x,y,-z
-x,y,z
x,-y,z
1/2+x,1/2+y,z
1/2-x,1/2-y,z
1/2+x,1/2-y,-z
1/2-x,1/2+y,-z
1/2-x,1/2-y,-z
1/2+x,1/2+y,-z
1/2-x,1/2+y,z
1/2+x,1/2-y,z
loop_
_atom_site_type_symbol
_atom_site_label
_atom_site_fract_x
_atom_site_fract_y
_atom_site_fract_z
Si Si1 0.673522 0.390366 0.275074
Si Si2 0.326330 0.144839 0.104612
Si Si3 0.675313 0.443512 0.388219
Si Si4 0.327277 0.801717 0.221162
Si Si5 0.822732 0.196367 0.000000
Si Si6 0.173032 0.943309 0.160231
Si Si7 0.331143 0.058724 0.500000
O O1 0.500000 0.377407 0.277408
O O2 0.730133 0.413795 0.333462
O O3 0.762988 0.340069 0.266329
O O4 0.707021 0.429146 0.225044
O O5 0.500000 0.143915 0.087933
O O6 0.294970 0.179618 0.158031
O O7 0.272498 0.089345 0.117955
O O8 0.228287 0.166193 0.054410
O O9 0.500000 0.439318 0.396583
O O10 0.724486 0.500000 0.379340
O O11 0.752122 0.420336 0.443766
O O12 0.500000 0.795335 0.232937
O O13 0.250000 0.750000 0.230819
O O14 0.750000 0.250000 0.000000
O O15 0.000000 0.202256 0.000000
O O16 0.000000 0.934277 0.146007
O O17 0.218410 0.000000 0.151017
O O18 0.500000 0.077127 0.500000
O O19 0.316782 0.000000 0.500000
#
# Coordination Sequence:
#
# PCOD8270468 Si02
#       7
#    16  16  16  16   8  16   8
#     4   9  17  29  47  71  97 125 159 197 236 280
#     4  10  21  36  53  75 101 128 160 196 236 283
#     4   9  16  27  44  66  93 126 162 196 230 273
#     4  10  20  33  50  71  96 125 155 191 236 283
#     4  12  24  38  57  78  99 124 156 197 243 289
#     4   9  17  31  51  74 101 132 163 196 236 282
#     4   9  17  27  39  59  90 127 162 197 237 275
#
# _framework density 16.699506
#
# number of rings (size 3 to 8) (size 9 to 14) (size 15 to 20)
#    0.000    2.417    0.000    3.000    0.000    7.333 
#    0.000    0.417    0.000    5.500    0.000    0.583 
#    0.000    0.000    0.000    0.000    0.000    0.000 
#
# Total GULP energy -595300.320070 kJ/mol
# GULP energy per Si atom -12402.090001 kJ/mol
# Density = 1.666150 g / cm^3
# Si number density = 16.699506 Si / 1000 Ang^3
#
#
#
# Elastic Constant Matrix: (Units=GPa)
#
#
# Indices 1 2 3 4 5 6 
#
# 1 87.0160 56.6094 62.6138 0.0000 0.0000 0.0000
# 2 56.6094 118.1309 61.8586 0.0000 0.0000 0.0000
# 3 62.6138 61.8586 123.2558 0.0000 0.0000 0.0000
# 4 0.0000 0.0000 0.0000 7.9747 0.0000 0.0000
# 5 0.0000 0.0000 0.0000 0.0000 24.2344 0.0000
# 6 0.0000 0.0000 0.0000 0.0000 0.0000 28.5368
#
#
#
# Elastic Compliance Matrix: (Units=1/GPa)
#
#
# Indices 1 2 3 4 5 6 
#
# 1 0.020866 -0.006034 -0.007571 0.000000 0.000000 0.000000
# 2 -0.006034 0.013228 -0.003573 0.000000 0.000000 0.000000
# 3 -0.007571 -0.003573 0.013753 0.000000 0.000000 0.000000
# 4 0.000000 0.000000 0.000000 0.125396 0.000000 0.000000
# 5 0.000000 0.000000 0.000000 0.000000 0.041264 0.000000
# 6 0.000000 0.000000 0.000000 0.000000 0.000000 0.035042
#
#
# Mechanical properties :
#
#
# Convention : Reuss Voigt Hill
#
# Bulk Modulus (GPa) = 74.13661 76.72960 75.43311
# Shear Modulus (GPa) = 17.33680 21.97057 19.65369
#
# Velocity S-wave (km/s) = 3.22555 3.63111 3.43432
# Velocity P-wave (km/s) = 7.63957 7.97665 7.80993
#
# Compressibility (1/GPa) = 0.01348861
#
# Stress axis : x y z
#
# Youngs Moduli (GPa) = 47.92460 75.59665 72.71237
#
# Poissons Ratio (x) = 0.45619 0.55054
# Poissons Ratio (y) = 0.28920 0.25982
# Poissons Ratio (z) = 0.36286 0.27013
#
# Static dielectric constant tensor:
#      x y z
#    x 3.165590 0.000000 0.000000 
#    y 0.000000 3.132580 0.000000 
#    z 0.000000 0.000000 3.182270 
# 
# 
# High freq. dielectric constant tensor:
#      x y z
#    x 1.649290 0.000000 0.000000 
#    y 0.000000 1.627810 0.000000 
#    z 0.000000 0.000000 1.637950 
# 
# From -- ./inp_files/67901.got.cif
#   From: 2010.03.12/outbox.cif.g09.slc.cpg/sg65_34_cif.got.tgz:67901.got - 2010.04.10 20:52:16.
