data_PCOD8270695
_publ_section_title
;
Structure prediction by ZEFSAII (Michael W. Deem and Ramdas Pophale) SiO2 
 PCOD8270695
Probable space group: C M M M
;
_chemical_formula_sum "Si O2"
_cell_formula_units_Z 88
_cell_length_a 26.471302
_cell_length_b 8.748874
_cell_length_c 19.677630
_cell_angle_alpha 90.000000
_cell_angle_beta 90.000000
_cell_angle_gamma 90.000000
_cell_volume 4557.222731
_symmetry_space_group_name_H-M "C M M M"
_symmetry_group_IT_number 65
_symmetry_cell_setting 'orthorhombic'
loop_
_space_group_symop_operation_xyz
x,y,z
-x,-y,z
x,-y,-z
-x,y,-z
-x,-y,-z
x,y,-z
-x,y,z
x,-y,z
1/2+x,1/2+y,z
1/2-x,1/2-y,z
1/2+x,1/2-y,-z
1/2-x,1/2+y,-z
1/2-x,1/2-y,-z
1/2+x,1/2+y,-z
1/2-x,1/2+y,z
1/2+x,1/2-y,z
loop_
_atom_site_type_symbol
_atom_site_label
_atom_site_fract_x
_atom_site_fract_y
_atom_site_fract_z
Si Si1 0.445486 0.668131 0.919997
Si Si2 0.306291 0.818270 0.660764
Si Si3 0.696730 0.679651 0.794286
Si Si4 0.500000 0.825916 0.580812
Si Si5 0.152566 0.675298 0.077795
Si Si6 0.895849 0.174463 0.580617
O O1 0.500000 0.711976 0.888353
O O2 0.428248 0.500000 0.892794
O O3 0.405607 0.798361 0.900649
O O4 0.450785 0.658492 0.000000
O O5 0.250000 0.750000 0.645632
O O6 0.333197 0.756084 0.731371
O O7 0.346433 0.768786 0.603752
O O8 0.301284 0.000000 0.663254
O O9 0.695568 0.500000 0.787483
O O10 0.750000 0.750000 0.777776
O O11 0.684384 0.722812 0.871522
O O12 0.500000 0.819151 0.500000
O O13 0.448860 0.744557 0.608585
O O14 0.500000 0.000000 0.607136
O O15 0.166965 0.500000 0.087410
O O16 0.162761 0.728324 0.000000
O O17 0.896099 0.182164 0.500000
O O18 0.891900 0.000000 0.606540
#
# Coordination Sequence:
#
# PCOD8270695 Si02
#       6
#    16  16  16   8  16  16
#     4   8  14  26  45  69  97 129 164 202 249 306
#     4  11  22  38  59  82 111 147 188 231 280 337
#     4  11  22  38  58  77 102 137 177 219 269 327
#     4   9  17  31  53  83 117 153 192 231 276 327
#     4  10  20  33  51  77 106 135 172 218 267 319
#     4  10  20  35  57  86 119 154 192 233 276 325
#
# _framework density 19.310006000000001
#
# number of rings (size 3 to 8) (size 9 to 14) (size 15 to 20)
#    0.000    2.091    0.000    6.273    0.000    4.364 
#    0.000    1.818    2.000    0.000    0.000    0.000 
#    0.000    0.000    0.000    0.000    0.000    0.000 
#
# Total GULP energy -545078.242670 kJ/mol
# GULP energy per Si atom -12388.141879 kJ/mol
# Density = 1.926606 g / cm^3
# Si number density = 19.310006 Si / 1000 Ang^3
#
#
#
# Elastic Constant Matrix: (Units=GPa)
#
#
# Indices 1 2 3 4 5 6 
#
# 1 85.7213 46.2105 26.3679 0.0000 0.0000 0.0000
# 2 46.2105 153.6758 34.5171 0.0000 0.0000 0.0000
# 3 26.3679 34.5171 45.9380 0.0000 0.0000 0.0000
# 4 0.0000 0.0000 0.0000 24.4041 0.0000 0.0000
# 5 0.0000 0.0000 0.0000 0.0000 7.8909 0.0000
# 6 0.0000 0.0000 0.0000 0.0000 0.0000 35.9661
#
#
#
# Elastic Compliance Matrix: (Units=1/GPa)
#
#
# Indices 1 2 3 4 5 6 
#
# 1 0.015354 -0.003173 -0.006429 0.000000 0.000000 0.000000
# 2 -0.003173 0.008484 -0.004554 0.000000 0.000000 0.000000
# 3 -0.006429 -0.004554 0.028880 0.000000 0.000000 0.000000
# 4 0.000000 0.000000 0.000000 0.040977 0.000000 0.000000
# 5 0.000000 0.000000 0.000000 0.000000 0.126728 0.000000
# 6 0.000000 0.000000 0.000000 0.000000 0.000000 0.027804
#
#
# Mechanical properties :
#
#
# Convention : Reuss Voigt Hill
#
# Bulk Modulus (GPa) = 40.97145 55.50288 48.23717
# Shear Modulus (GPa) = 17.56407 25.53489 21.54948
#
# Velocity S-wave (km/s) = 3.01920 3.64038 3.34424
# Velocity P-wave (km/s) = 5.78082 6.81728 6.32033
#
# Compressibility (1/GPa) = 0.02440724
#
# Stress axis : x y z
#
# Youngs Moduli (GPa) = 65.13114 117.86783 34.62605
#
# Poissons Ratio (x) = 0.37398 0.22260
# Poissons Ratio (y) = 0.20665 0.15767
# Poissons Ratio (z) = 0.41871 0.53672
#
# Static dielectric constant tensor:
#      x y z
#    x 3.865680 0.000000 0.000000 
#    y 0.000000 3.672680 0.000000 
#    z 0.000000 0.000000 3.503190 
# 
# 
# High freq. dielectric constant tensor:
#      x y z
#    x 1.750530 0.000000 0.000000 
#    y 0.000000 1.762990 0.000000 
#    z 0.000000 0.000000 1.722230 
# 
# From -- ./inp_files/65175.got.cif
#   From: 2010.03.12/outbox.cif.g09.slc.cpg/sg65_33_cif.got.tgz:65175.got - 2010.04.10 20:52:16.
