data_PCOD8270265
_publ_section_title
;
Structure prediction by ZEFSAII (Michael W. Deem and Ramdas Pophale) SiO2 
 PCOD8270265
Probable space group: C M M M
;
_chemical_formula_sum "Si O2"
_cell_formula_units_Z 88
_cell_length_a 9.235760
_cell_length_b 22.969424
_cell_length_c 22.708390
_cell_angle_alpha 90.000000
_cell_angle_beta 90.000000
_cell_angle_gamma 90.000000
_cell_volume 4817.359839
_symmetry_space_group_name_H-M "C M M M"
_symmetry_group_IT_number 65
_symmetry_cell_setting 'orthorhombic'
loop_
_space_group_symop_operation_xyz
x,y,z
-x,-y,z
x,-y,-z
-x,y,-z
-x,-y,-z
x,y,-z
-x,y,z
x,-y,z
1/2+x,1/2+y,z
1/2-x,1/2-y,z
1/2+x,1/2-y,-z
1/2-x,1/2+y,-z
1/2-x,1/2-y,-z
1/2+x,1/2+y,-z
1/2-x,1/2+y,z
1/2+x,1/2-y,z
loop_
_atom_site_type_symbol
_atom_site_label
_atom_site_fract_x
_atom_site_fract_y
_atom_site_fract_z
Si Si1 0.168984 0.810901 0.500000
Si Si2 0.832534 0.889603 0.170402
Si Si3 0.333636 0.309207 0.278516
Si Si4 0.168502 0.807740 0.933123
Si Si5 0.829960 0.886676 0.612548
Si Si6 0.827935 0.500000 0.645755
Si Si7 0.328406 0.000000 0.217633
O O1 0.250000 0.750000 0.500000
O O2 0.213908 0.847944 0.443168
O O3 0.000000 0.796751 0.500000
O O4 0.800832 0.838310 0.216218
O O5 0.790891 0.863544 0.106600
O O6 0.731938 0.944082 0.183852
O O7 0.000000 0.909520 0.173523
O O8 0.500000 0.293623 0.286969
O O9 0.250000 0.250000 0.284314
O O10 0.281969 0.352705 0.329171
O O11 0.250000 0.750000 0.911114
O O12 0.000000 0.793540 0.927029
O O13 0.212528 0.823384 0.000000
O O14 0.000000 0.902350 0.612530
O O15 0.736864 0.945124 0.611426
O O16 0.777950 0.500000 0.714256
O O17 0.000000 0.500000 0.640404
O O18 0.500000 0.000000 0.212722
#
# Coordination Sequence:
#
# PCOD8270265 Si02
#       7
#     8  16  16  16  16   8   8
#     4  10  22  39  60  85 113 148 184 220 269 322
#     4  10  20  35  55  78 106 144 183 219 269 327
#     4  10  20  32  51  78 106 138 176 219 267 317
#     4   9  18  33  54  81 112 145 181 221 266 319
#     4  10  21  38  58  80 110 147 183 219 266 327
#     4  11  23  38  58  84 109 140 182 231 280 320
#     4  11  23  37  55  81 109 139 180 231 280 322
#
# _framework density 18.267268999999999
#
# number of rings (size 3 to 8) (size 9 to 14) (size 15 to 20)
#    0.000    2.000    1.818    1.636    0.000    4.000 
#    0.000    2.273    0.000    2.727    0.000    0.000 
#    0.000    0.000    0.000    0.000    0.000    0.000 
#
# Total GULP energy -545755.863795 kJ/mol
# GULP energy per Si atom -12403.542359 kJ/mol
# Density = 1.822569 g / cm^3
# Si number density = 18.267269 Si / 1000 Ang^3
#
#
#
# Elastic Constant Matrix: (Units=GPa)
#
#
# Indices 1 2 3 4 5 6 
#
# 1 64.4841 68.0433 38.3279 0.0000 0.0000 0.0000
# 2 68.0433 144.6754 53.2098 0.0000 0.0000 0.0000
# 3 38.3279 53.2098 102.3976 0.0000 0.0000 0.0000
# 4 0.0000 0.0000 0.0000 21.0320 0.0000 0.0000
# 5 0.0000 0.0000 0.0000 0.0000 11.0154 0.0000
# 6 0.0000 0.0000 0.0000 0.0000 0.0000 42.3797
#
#
#
# Elastic Compliance Matrix: (Units=1/GPa)
#
#
# Indices 1 2 3 4 5 6 
#
# 1 0.032954 -0.013552 -0.005292 0.000000 0.000000 0.000000
# 2 -0.013552 0.014118 -0.002264 0.000000 0.000000 0.000000
# 3 -0.005292 -0.002264 0.012923 0.000000 0.000000 0.000000
# 4 0.000000 0.000000 0.000000 0.047547 0.000000 0.000000
# 5 0.000000 0.000000 0.000000 0.000000 0.090782 0.000000
# 6 0.000000 0.000000 0.000000 0.000000 0.000000 0.023596
#
#
# Mechanical properties :
#
#
# Convention : Reuss Voigt Hill
#
# Bulk Modulus (GPa) = 56.24826 70.07991 63.16409
# Shear Modulus (GPa) = 18.51417 25.01714 21.76566
#
# Velocity S-wave (km/s) = 3.18703 3.70470 3.45557
# Velocity P-wave (km/s) = 6.66345 7.53304 7.11155
#
# Compressibility (1/GPa) = 0.01777833
#
# Stress axis : x y z
#
# Youngs Moduli (GPa) = 30.34573 70.82930 77.37993
#
# Poissons Ratio (x) = 0.95989 0.40953
# Poissons Ratio (y) = 0.41125 0.17518
# Poissons Ratio (z) = 0.16060 0.16035
#
# Static dielectric constant tensor:
#      x y z
#    x 3.293570 0.000000 0.000000 
#    y 0.000000 2.653760 0.000000 
#    z 0.000000 0.000000 3.574540 
# 
# 
# High freq. dielectric constant tensor:
#      x y z
#    x 1.702020 0.000000 0.000000 
#    y 0.000000 1.710490 0.000000 
#    z 0.000000 0.000000 1.715520 
# 
# From -- ./inp_files/59866.got.cif
#   From: 2010.03.12/outbox.cif.g09.slc.cpg/sg65_30_cif.got.tgz:59866.got - 2010.04.10 20:52:16.
