data_PCOD8270966
_publ_section_title
;
Structure prediction by ZEFSAII (Michael W. Deem and Ramdas Pophale) SiO2 
 PCOD8270966
Probable space group: C M M M
;
_chemical_formula_sum "Si O2"
_cell_formula_units_Z 120
_cell_length_a 27.298226
_cell_length_b 27.658975
_cell_length_c 8.850991
_cell_angle_alpha 90.000000
_cell_angle_beta 90.000000
_cell_angle_gamma 90.000000
_cell_volume 6682.860657
_symmetry_space_group_name_H-M "C M M M"
_symmetry_group_IT_number 65
_symmetry_cell_setting 'orthorhombic'
loop_
_space_group_symop_operation_xyz
x,y,z
-x,-y,z
x,-y,-z
-x,y,-z
-x,-y,-z
x,y,-z
-x,y,z
x,-y,z
1/2+x,1/2+y,z
1/2-x,1/2-y,z
1/2+x,1/2-y,-z
1/2-x,1/2+y,-z
1/2-x,1/2-y,-z
1/2+x,1/2+y,-z
1/2-x,1/2+y,z
1/2+x,1/2-y,z
loop_
_atom_site_type_symbol
_atom_site_label
_atom_site_fract_x
_atom_site_fract_y
_atom_site_fract_z
Si Si1 0.299398 0.220189 0.668825
Si Si2 0.808862 0.443873 0.323689
Si Si3 0.444743 0.811622 0.672821
Si Si4 0.500000 0.056885 0.330499
Si Si5 0.749750 0.634660 0.178466
Si Si6 0.947155 0.210468 0.172512
Si Si7 0.905037 0.599794 0.821385
Si Si8 0.343021 0.692908 0.174460
O O1 0.315905 0.204698 0.500000
O O2 0.250000 0.250000 0.662272
O O3 0.291446 0.172931 0.771549
O O4 0.339680 0.255480 0.741333
O O5 0.815805 0.433643 0.500000
O O6 0.800072 0.500000 0.290064
O O7 0.760976 0.415730 0.261649
O O8 0.856477 0.425897 0.236620
O O9 0.428535 0.814382 0.500000
O O10 0.500000 0.832001 0.696265
O O11 0.442319 0.756502 0.722005
O O12 0.406939 0.844284 0.767845
O O13 0.500000 0.079446 0.500000
O O14 0.548430 0.072112 0.243052
O O15 0.500000 0.000000 0.342133
O O16 0.695669 0.652801 0.233077
O O17 0.752493 0.627098 0.000000
O O18 0.899748 0.175533 0.199867
O O19 0.000000 0.184283 0.205285
O O20 0.945993 0.228706 0.000000
O O21 0.905543 0.597552 0.000000
O O22 0.330619 0.702458 0.000000
#
# Coordination Sequence:
#
# PCOD8270966 Si02
#       8
#    16  16  16   8  16  16  16  16
#     4   9  17  29  46  70  99 131 168 207 248 296
#     4  11  25  43  59  75  99 131 168 215 272 327
#     4  10  20  34  51  71 100 137 176 215 256 300
#     4  11  23  39  57  75  97 125 161 213 271 319
#     4  10  20  35  55  77 102 132 168 213 262 314
#     4   9  18  32  50  73 106 143 178 211 247 297
#     4  12  24  37  56  77  99 129 170 217 266 318
#     4   9  18  32  51  76 106 138 172 211 256 303
#
# _framework density 17.956382000000001
#
# number of rings (size 3 to 8) (size 9 to 14) (size 15 to 20)
#    0.000    1.933    0.667    3.400    1.867    6.400 
#    0.000    0.000    0.000    0.000    0.000    0.000 
#    0.000    0.533    0.000    6.667    0.000    1.067 
#
# Total GULP energy -743772.553933 kJ/mol
# GULP energy per Si atom -12396.209232 kJ/mol
# Density = 1.791551 g / cm^3
# Si number density = 17.956382 Si / 1000 Ang^3
#
#
#
# Elastic Constant Matrix: (Units=GPa)
#
#
# Indices 1 2 3 4 5 6 
#
# 1 131.1510 42.4028 38.6798 0.0000 0.0000 0.0000
# 2 42.4028 59.0313 34.1664 0.0000 0.0000 0.0000
# 3 38.6798 34.1664 107.3729 0.0000 0.0000 0.0000
# 4 0.0000 0.0000 0.0000 22.0504 0.0000 0.0000
# 5 0.0000 0.0000 0.0000 0.0000 18.7077 0.0000
# 6 0.0000 0.0000 0.0000 0.0000 0.0000 28.9763
#
#
#
# Elastic Compliance Matrix: (Units=1/GPa)
#
#
# Indices 1 2 3 4 5 6 
#
# 1 0.010161 -0.006350 -0.001640 0.000000 0.000000 0.000000
# 2 -0.006350 0.024732 -0.005582 0.000000 0.000000 0.000000
# 3 -0.001640 -0.005582 0.011680 0.000000 0.000000 0.000000
# 4 0.000000 0.000000 0.000000 0.045351 0.000000 0.000000
# 5 0.000000 0.000000 0.000000 0.000000 0.053454 0.000000
# 6 0.000000 0.000000 0.000000 0.000000 0.000000 0.034511
#
#
# Mechanical properties :
#
#
# Convention : Reuss Voigt Hill
#
# Bulk Modulus (GPa) = 51.46768 58.67258 55.07013
# Shear Modulus (GPa) = 23.41801 26.10065 24.75933
#
# Velocity S-wave (km/s) = 3.61523 3.81669 3.71733
# Velocity P-wave (km/s) = 6.79348 7.22280 7.01143
#
# Compressibility (1/GPa) = 0.01942967
#
# Stress axis : x y z
#
# Youngs Moduli (GPa) = 98.41086 40.43282 85.61298
#
# Poissons Ratio (x) = 0.25674 0.14040
# Poissons Ratio (y) = 0.62490 0.47793
# Poissons Ratio (z) = 0.16139 0.22571
#
# Static dielectric constant tensor:
#      x y z
#    x 3.641780 0.000000 0.000000 
#    y 0.000000 3.110800 0.000000 
#    z 0.000000 0.000000 3.463810 
# 
# 
# High freq. dielectric constant tensor:
#      x y z
#    x 1.701960 0.000000 0.000000 
#    y 0.000000 1.649900 0.000000 
#    z 0.000000 0.000000 1.707610 
# 
# From -- ./inp_files/17119.got.cif
#   From: 2010.03.12/outbox.cif.g09.slc.cpg/sg65_9_cif.got.tgz:17119.got - 2010.04.10 20:52:16.
