data_PCOD8270041
_publ_section_title
;
Structure prediction by ZEFSAII (Michael W. Deem and Ramdas Pophale) SiO2 
 PCOD8270041
Probable space group: C M M M
;
_chemical_formula_sum "Si O2"
_cell_formula_units_Z 96
_cell_length_a 18.814749
_cell_length_b 9.057881
_cell_length_c 30.640173
_cell_angle_alpha 90.000000
_cell_angle_beta 90.000000
_cell_angle_gamma 90.000000
_cell_volume 5221.752132
_symmetry_space_group_name_H-M "C M M M"
_symmetry_group_IT_number 65
_symmetry_cell_setting 'orthorhombic'
loop_
_space_group_symop_operation_xyz
x,y,z
-x,-y,z
x,-y,-z
-x,y,-z
-x,-y,-z
x,y,-z
-x,y,z
x,-y,z
1/2+x,1/2+y,z
1/2-x,1/2-y,z
1/2+x,1/2-y,-z
1/2-x,1/2+y,-z
1/2-x,1/2-y,-z
1/2+x,1/2+y,-z
1/2-x,1/2+y,z
1/2+x,1/2-y,z
loop_
_atom_site_type_symbol
_atom_site_label
_atom_site_fract_x
_atom_site_fract_y
_atom_site_fract_z
Si Si1 0.584562 0.833485 0.203866
Si Si2 0.420557 0.675332 0.451440
Si Si3 0.174558 0.174560 0.627002
Si Si4 0.177536 0.672125 0.949348
Si Si5 0.918187 0.171928 0.290088
Si Si6 0.584286 0.331588 0.118338
O O1 0.500000 0.830289 0.203393
O O2 0.612063 0.760104 0.248509
O O3 0.614032 0.741721 0.162732
O O4 0.613824 0.000000 0.200982
O O5 0.396352 0.725309 0.500000
O O6 0.500000 0.735906 0.441619
O O7 0.422666 0.500000 0.448291
O O8 0.365114 0.737513 0.416050
O O9 0.250000 0.250000 0.631172
O O10 0.127459 0.220123 0.668385
O O11 0.184958 0.000000 0.624278
O O12 0.183586 0.500000 0.938719
O O13 0.250000 0.750000 0.934484
O O14 0.112816 0.742486 0.923023
O O15 0.161871 0.701572 0.000000
O O16 0.000000 0.212222 0.299996
O O17 0.910198 0.000000 0.279491
O O18 0.500000 0.321955 0.116493
O O19 0.610795 0.500000 0.116705
#
# Coordination Sequence:
#
# PCOD8270041 Si02
#       6
#    16  16  16  16  16  16
#     4   9  17  30  50  76 103 129 161 205 256 305
#     4   8  14  27  49  74  96 122 163 209 244 281
#     4  10  20  32  47  70 100 131 161 198 246 295
#     4  10  21  37  56  77 104 139 177 216 258 306
#     4   9  17  31  51  71  92 123 165 207 244 288
#     4  10  20  34  54  80 109 139 172 212 257 305
#
# _framework density 18.384633000000001
#
# number of rings (size 3 to 8) (size 9 to 14) (size 15 to 20)
#    0.000    2.667    0.000    2.500    0.000    7.333 
#    0.000    2.500    0.000    3.500    0.000    1.167 
#    0.000    0.000    0.000    0.000    0.000    0.000 
#
# Total GULP energy -595207.962451 kJ/mol
# GULP energy per Si atom -12400.165884 kJ/mol
# Density = 1.834279 g / cm^3
# Si number density = 18.384633 Si / 1000 Ang^3
#
#
#
# Elastic Constant Matrix: (Units=GPa)
#
#
# Indices 1 2 3 4 5 6 
#
# 1 72.2915 39.1931 60.0941 0.0000 0.0000 0.0000
# 2 39.1931 90.9006 67.0366 0.0000 0.0000 0.0000
# 3 60.0941 67.0366 142.2824 0.0000 0.0000 0.0000
# 4 0.0000 0.0000 0.0000 22.1072 0.0000 0.0000
# 5 0.0000 0.0000 0.0000 0.0000 8.6887 0.0000
# 6 0.0000 0.0000 0.0000 0.0000 0.0000 27.8808
#
#
#
# Elastic Compliance Matrix: (Units=1/GPa)
#
#
# Indices 1 2 3 4 5 6 
#
# 1 0.022264 -0.004084 -0.007479 0.000000 0.000000 0.000000
# 2 -0.004084 0.017608 -0.006571 0.000000 0.000000 0.000000
# 3 -0.007479 -0.006571 0.013283 0.000000 0.000000 0.000000
# 4 0.000000 0.000000 0.000000 0.045234 0.000000 0.000000
# 5 0.000000 0.000000 0.000000 0.000000 0.115092 0.000000
# 6 0.000000 0.000000 0.000000 0.000000 0.000000 0.035867
#
#
# Mechanical properties :
#
#
# Convention : Reuss Voigt Hill
#
# Bulk Modulus (GPa) = 59.21787 70.90245 65.06016
# Shear Modulus (GPa) = 17.16762 21.01205 19.08984
#
# Velocity S-wave (km/s) = 3.05913 3.38437 3.22585
# Velocity P-wave (km/s) = 6.69016 7.34315 7.02424
#
# Compressibility (1/GPa) = 0.01688679
#
# Stress axis : x y z
#
# Youngs Moduli (GPa) = 44.91479 56.79287 75.28233
#
# Poissons Ratio (x) = 0.23193 0.56307
# Poissons Ratio (y) = 0.18342 0.49469
# Poissons Ratio (z) = 0.33594 0.37320
#
# Static dielectric constant tensor:
#      x y z
#    x 3.165500 0.000000 0.000000 
#    y 0.000000 3.308560 0.000000 
#    z 0.000000 0.000000 3.608980 
# 
# 
# High freq. dielectric constant tensor:
#      x y z
#    x 1.688730 0.000000 0.000000 
#    y 0.000000 1.700130 0.000000 
#    z 0.000000 0.000000 1.727410 
# 
# From -- ./inp_files/73160.got.cif
#   From: 2010.03.12/outbox.cif.g09.slc.cpg/sg65_37_cif.got.tgz:73160.got - 2010.04.10 20:52:16.
