data_PCOD8270886
_publ_section_title
;
Structure prediction by ZEFSAII (Michael W. Deem and Ramdas Pophale) SiO2 
 PCOD8270886
Probable space group: C M M M
;
_chemical_formula_sum "Si O2"
_cell_formula_units_Z 80
_cell_length_a 12.549450
_cell_length_b 28.287761
_cell_length_c 12.132680
_cell_angle_alpha 90.000000
_cell_angle_beta 90.000000
_cell_angle_gamma 90.000000
_cell_volume 4307.050956
_symmetry_space_group_name_H-M "C M M M"
_symmetry_group_IT_number 65
_symmetry_cell_setting 'orthorhombic'
loop_
_space_group_symop_operation_xyz
x,y,z
-x,-y,z
x,-y,-z
-x,y,-z
-x,-y,-z
x,y,-z
-x,y,z
x,-y,z
1/2+x,1/2+y,z
1/2-x,1/2-y,z
1/2+x,1/2-y,-z
1/2-x,1/2+y,-z
1/2-x,1/2-y,-z
1/2+x,1/2+y,-z
1/2-x,1/2+y,z
1/2+x,1/2-y,z
loop_
_atom_site_type_symbol
_atom_site_label
_atom_site_fract_x
_atom_site_fract_y
_atom_site_fract_z
Si Si1 0.125525 0.624138 0.625993
Si Si2 0.382671 0.056052 0.000000
Si Si3 0.235959 0.444236 0.779860
Si Si4 0.713685 0.801584 0.207821
Si Si5 0.880265 0.873821 0.127155
Si Si6 0.878005 0.729464 0.000000
O O1 0.162118 0.628345 0.500000
O O2 0.173944 0.575454 0.674109
O O3 0.169114 0.669972 0.688449
O O4 0.000000 0.620963 0.637365
O O5 0.326230 0.073299 0.110903
O O6 0.500000 0.078238 0.000000
O O7 0.386624 0.000000 0.000000
O O8 0.250449 0.500000 0.768769
O O9 0.349186 0.418364 0.794714
O O10 0.750000 0.750000 0.249752
O O11 0.816300 0.826658 0.155325
O O12 0.621570 0.799895 0.113604
O O13 0.000000 0.860920 0.155643
O O14 0.865017 0.888304 0.000000
O O15 0.750000 0.750000 0.000000
O O16 0.000000 0.755592 0.000000
#
# Coordination Sequence:
#
# PCOD8270886 Si02
#       6
#    16   8  16  16  16   8
#     4  10  22  38  56  80 109 145 192 243 292 343
#     4   9  16  27  47  76 105 134 169 211 268 338
#     4  10  20  35  54  79 110 144 181 227 284 346
#     4  10  21  37  57  84 115 152 192 234 290 350
#     4  10  20  34  53  82 118 150 185 229 279 342
#     4  10  20  33  54  87 120 153 189 234 292 358
#
# _framework density 18.574193000000001
#
# number of rings (size 3 to 8) (size 9 to 14) (size 15 to 20)
#    0.000    2.100    2.000    1.200    0.000    6.400 
#    0.000    5.000    0.000    9.600    0.000    5.600 
#    0.000    0.000    0.000    0.000    0.000    0.000 
#
# Total GULP energy -495526.103686 kJ/mol
# GULP energy per Si atom -12388.152592 kJ/mol
# Density = 1.853192 g / cm^3
# Si number density = 18.574193 Si / 1000 Ang^3
#
#
#
# Elastic Constant Matrix: (Units=GPa)
#
#
# Indices 1 2 3 4 5 6 
#
# 1 110.0423 36.6289 45.3778 0.0000 0.0000 0.0000
# 2 36.6289 115.5745 34.0428 0.0000 0.0000 0.0000
# 3 45.3778 34.0428 111.9377 0.0000 0.0000 0.0000
# 4 0.0000 0.0000 0.0000 24.4690 0.0000 0.0000
# 5 0.0000 0.0000 0.0000 0.0000 21.5738 0.0000
# 6 0.0000 0.0000 0.0000 0.0000 0.0000 20.0070
#
#
#
# Elastic Compliance Matrix: (Units=1/GPa)
#
#
# Indices 1 2 3 4 5 6 
#
# 1 0.011535 -0.002503 -0.003915 0.000000 0.000000 0.000000
# 2 -0.002503 0.010047 -0.002041 0.000000 0.000000 0.000000
# 3 -0.003915 -0.002041 0.011141 0.000000 0.000000 0.000000
# 4 0.000000 0.000000 0.000000 0.040868 0.000000 0.000000
# 5 0.000000 0.000000 0.000000 0.000000 0.046353 0.000000
# 6 0.000000 0.000000 0.000000 0.000000 0.000000 0.049983
#
#
# Mechanical properties :
#
#
# Convention : Reuss Voigt Hill
#
# Bulk Modulus (GPa) = 63.26734 63.29483 63.28108
# Shear Modulus (GPa) = 26.02657 27.97696 27.00176
#
# Velocity S-wave (km/s) = 3.74735 3.88523 3.81691
# Velocity P-wave (km/s) = 7.27045 7.36732 7.31904
#
# Compressibility (1/GPa) = 0.01580594
#
# Stress axis : x y z
#
# Youngs Moduli (GPa) = 86.69403 99.53493 89.75614
#
# Poissons Ratio (x) = 0.24909 0.35139
# Poissons Ratio (y) = 0.21696 0.18319
# Poissons Ratio (z) = 0.33940 0.20315
#
# Static dielectric constant tensor:
#      x y z
#    x 3.784800 0.000000 0.000000 
#    y 0.000000 3.282460 0.000000 
#    z 0.000000 0.000000 3.517670 
# 
# 
# High freq. dielectric constant tensor:
#      x y z
#    x 1.725610 0.000000 0.000000 
#    y 0.000000 1.719100 0.000000 
#    z 0.000000 0.000000 1.704610 
# 
# From -- ./inp_files/22893.got.cif
#   From: 2010.03.12/outbox.cif.g09.slc.cpg/sg65_12_cif.got.tgz:22893.got - 2010.04.10 20:52:16.
