data_PCOD8270022
_publ_section_title
;
Structure prediction by ZEFSAII (Michael W. Deem and Ramdas Pophale) SiO2 
 PCOD8270022
Probable space group: C M M M
;
_chemical_formula_sum "Si O2"
_cell_formula_units_Z 88
_cell_length_a 9.143457
_cell_length_b 18.674638
_cell_length_c 28.535239
_cell_angle_alpha 90.000000
_cell_angle_beta 90.000000
_cell_angle_gamma 90.000000
_cell_volume 4872.413448
_symmetry_space_group_name_H-M "C M M M"
_symmetry_group_IT_number 65
_symmetry_cell_setting 'orthorhombic'
loop_
_space_group_symop_operation_xyz
x,y,z
-x,-y,z
x,-y,-z
-x,y,-z
-x,-y,-z
x,y,-z
-x,y,z
x,-y,z
1/2+x,1/2+y,z
1/2-x,1/2-y,z
1/2+x,1/2-y,-z
1/2-x,1/2+y,-z
1/2-x,1/2-y,-z
1/2+x,1/2+y,-z
1/2-x,1/2+y,z
1/2+x,1/2-y,z
loop_
_atom_site_type_symbol
_atom_site_label
_atom_site_fract_x
_atom_site_fract_y
_atom_site_fract_z
Si Si1 0.165499 0.914640 0.000000
Si Si2 0.165457 0.414579 0.908835
Si Si3 0.826362 0.419985 0.552080
Si Si4 0.669655 0.082549 0.273492
Si Si5 0.172695 0.674813 0.636787
Si Si6 0.834943 0.085272 0.818238
O O1 0.248848 0.885392 0.045795
O O2 0.000000 0.885158 0.000000
O O3 0.164834 0.000000 0.000000
O O4 0.165674 0.500000 0.908623
O O5 0.245650 0.384432 0.862606
O O6 0.000000 0.385292 0.909904
O O7 0.777609 0.394800 0.500000
O O8 0.765605 0.500000 0.562060
O O9 0.764776 0.364832 0.590480
O O10 0.000000 0.422430 0.555662
O O11 0.500000 0.091922 0.261170
O O12 0.715992 0.127092 0.318785
O O13 0.760501 0.112687 0.229495
O O14 0.707118 0.000000 0.283988
O O15 0.250000 0.750000 0.641815
O O16 0.000000 0.686487 0.633521
O O17 0.000000 0.114699 0.820588
O O18 0.832547 0.000000 0.819426
#
# Coordination Sequence:
#
# PCOD8270022 Si02
#       6
#     8  16  16  16  16  16
#     4   9  15  21  29  43  67 101 140 181 224 269
#     4   9  15  22  32  47  70 102 140 179 220 270
#     4   8  14  27  49  74  96 121 158 199 231 264
#     4   9  17  30  47  64  83 112 152 193 229 269
#     4  10  20  32  47  69  96 124 153 188 232 279
#     4   9  16  25  38  57  79 103 136 181 230 275
#
# _framework density 18.060865
#
# number of rings (size 3 to 8) (size 9 to 14) (size 15 to 20)
#    0.000    3.000    0.000    2.455    0.000    8.727 
#    0.000    0.000    0.000    1.636    0.000    1.273 
#    0.000    0.000    0.000    0.818    0.000   12.000 
#
# Total GULP energy -545499.630371 kJ/mol
# GULP energy per Si atom -12397.718872 kJ/mol
# Density = 1.801976 g / cm^3
# Si number density = 18.060865 Si / 1000 Ang^3
#
#
#
# Elastic Constant Matrix: (Units=GPa)
#
#
# Indices 1 2 3 4 5 6 
#
# 1 103.2641 30.9094 82.1117 0.0000 0.0000 0.0000
# 2 30.9094 54.7453 55.6661 0.0000 0.0000 0.0000
# 3 82.1117 55.6661 192.8553 0.0000 0.0000 0.0000
# 4 0.0000 0.0000 0.0000 1.2135 0.0000 0.0000
# 5 0.0000 0.0000 0.0000 0.0000 20.2304 0.0000
# 6 0.0000 0.0000 0.0000 0.0000 0.0000 15.8020
#
#
#
# Elastic Compliance Matrix: (Units=1/GPa)
#
#
# Indices 1 2 3 4 5 6 
#
# 1 0.014934 -0.002783 -0.005555 0.000000 0.000000 0.000000
# 2 -0.002783 0.026373 -0.006427 0.000000 0.000000 0.000000
# 3 -0.005555 -0.006427 0.009406 0.000000 0.000000 0.000000
# 4 0.000000 0.000000 0.000000 0.824032 0.000000 0.000000
# 5 0.000000 0.000000 0.000000 0.000000 0.049431 0.000000
# 6 0.000000 0.000000 0.000000 0.000000 0.000000 0.063283
#
#
# Mechanical properties :
#
#
# Convention : Reuss Voigt Hill
#
# Bulk Modulus (GPa) = 47.21099 76.47101 61.84100
# Shear Modulus (GPa) = 4.88257 19.59435 12.23846
#
# Velocity S-wave (km/s) = 1.64598 3.29736 2.60594
# Velocity P-wave (km/s) = 5.45977 7.54516 6.58553
#
# Compressibility (1/GPa) = 0.02118151
#
# Stress axis : x y z
#
# Youngs Moduli (GPa) = 66.96001 37.91697 106.31899
#
# Poissons Ratio (x) = 0.10554 0.59062
# Poissons Ratio (y) = 0.18638 0.68335
# Poissons Ratio (z) = 0.37197 0.24371
#
# Static dielectric constant tensor:
#      x y z
#    x 3.250140 0.000000 0.000000 
#    y 0.000000 2.813070 0.000000 
#    z 0.000000 0.000000 3.651570 
# 
# 
# High freq. dielectric constant tensor:
#      x y z
#    x 1.685200 0.000000 0.000000 
#    y 0.000000 1.637500 0.000000 
#    z 0.000000 0.000000 1.720530 
# 
# From -- ./inp_files/76667.got.cif
#   From: 2010.03.12/outbox.cif.g09.slc.cpg/sg65_39_cif.got.tgz:76667.got - 2010.04.10 20:52:16.
