data_PCOD8270871
_publ_section_title
;
Structure prediction by ZEFSAII (Michael W. Deem and Ramdas Pophale) SiO2 
 PCOD8270871
Probable space group: C M M M
;
_chemical_formula_sum "Si O2"
_cell_formula_units_Z 104
_cell_length_a 16.831643
_cell_length_b 17.878035
_cell_length_c 17.480508
_cell_angle_alpha 90.000000
_cell_angle_beta 90.000000
_cell_angle_gamma 90.000000
_cell_volume 5260.176828
_symmetry_space_group_name_H-M "C M M M"
_symmetry_group_IT_number 65
_symmetry_cell_setting 'orthorhombic'
loop_
_space_group_symop_operation_xyz
x,y,z
-x,-y,z
x,-y,-z
-x,y,-z
-x,-y,-z
x,y,-z
-x,y,z
x,-y,z
1/2+x,1/2+y,z
1/2-x,1/2-y,z
1/2+x,1/2-y,-z
1/2-x,1/2+y,-z
1/2-x,1/2-y,-z
1/2+x,1/2+y,-z
1/2-x,1/2+y,z
1/2+x,1/2-y,z
loop_
_atom_site_type_symbol
_atom_site_label
_atom_site_fract_x
_atom_site_fract_y
_atom_site_fract_z
Si Si1 0.590158 0.835329 0.847183
Si Si2 0.875807 0.911757 0.288182
Si Si3 0.500000 0.411583 0.586553
Si Si4 0.193769 0.588702 0.279928
Si Si5 0.588573 0.334454 0.866687
Si Si6 0.817993 0.087436 0.000000
Si Si7 0.411628 0.911053 0.416050
Si Si8 0.367991 0.087232 0.000000
O O1 0.500000 0.839687 0.813453
O O2 0.654831 0.874644 0.793882
O O3 0.618247 0.750276 0.857818
O O4 0.590166 0.876846 0.927427
O O5 0.784355 0.886732 0.291566
O O6 0.915181 0.873128 0.215590
O O7 0.921524 0.886171 0.365762
O O8 0.884586 0.000000 0.277273
O O9 0.500000 0.500000 0.578270
O O10 0.500000 0.376638 0.500000
O O11 0.185438 0.500000 0.271047
O O12 0.148701 0.621092 0.353948
O O13 0.500000 0.335700 0.901982
O O14 0.647065 0.377356 0.923189
O O15 0.725240 0.104172 0.000000
O O16 0.837627 0.000000 0.000000
O O17 0.385139 0.882803 0.500000
O O18 0.500000 0.881659 0.397127
O O19 0.410963 0.000000 0.414234
O O20 0.386027 0.000000 0.000000
#
# Coordination Sequence:
#
# PCOD8270871 Si02
#       8
#    16  16   8  16  16   8  16   8
#     4  11  24  39  57  82 112 153 199 237 284 340
#     4  10  20  35  57  84 114 148 185 232 290 342
#     4   9  18  34  58  87 117 151 189 229 283 349
#     4  10  20  33  53  83 114 146 190 237 280 338
#     4  11  23  39  58  82 114 148 191 238 288 341
#     4  11  24  39  60  88 114 145 188 239 294 348
#     4   8  14  26  46  73 106 142 177 221 278 328
#     4  11  24  41  58  82 116 151 192 240 286 334
#
# _framework density 19.771198999999999
#
# number of rings (size 3 to 8) (size 9 to 14) (size 15 to 20)
#    0.000    1.923    0.769    3.692    0.000   10.769 
#    0.000    3.077    0.000    0.923    0.000    2.154 
#    0.000    0.000    0.000    0.000    0.000    0.000 
#
# Total GULP energy -644800.510897 kJ/mol
# GULP energy per Si atom -12400.009825 kJ/mol
# Density = 1.972620 g / cm^3
# Si number density = 19.771199 Si / 1000 Ang^3
#
#
#
# Elastic Constant Matrix: (Units=GPa)
#
#
# Indices 1 2 3 4 5 6 
#
# 1 119.6101 36.0764 54.1941 0.0000 0.0000 0.0000
# 2 36.0764 51.8751 31.8178 0.0000 0.0000 0.0000
# 3 54.1941 31.8178 135.9580 0.0000 0.0000 0.0000
# 4 0.0000 0.0000 0.0000 -19.9532 0.0000 0.0000
# 5 0.0000 0.0000 0.0000 0.0000 26.9408 0.0000
# 6 0.0000 0.0000 0.0000 0.0000 0.0000 280.8589
#
#
#
# Elastic Compliance Matrix: (Units=1/GPa)
#
#
# Indices 1 2 3 4 5 6 
#
# 1 0.011670 -0.006145 -0.003214 0.000000 0.000000 0.000000
# 2 -0.006145 0.025743 -0.003575 0.000000 0.000000 0.000000
# 3 -0.003214 -0.003575 0.009473 0.000000 0.000000 0.000000
# 4 0.000000 0.000000 0.000000 -0.050117 0.000000 0.000000
# 5 0.000000 0.000000 0.000000 0.000000 0.037118 0.000000
# 6 0.000000 0.000000 0.000000 0.000000 0.000000 0.003561
#
#
# Mechanical properties :
#
#
# Convention : Reuss Voigt Hill
#
# Bulk Modulus (GPa) = 47.57651 61.29108 54.43379
# Shear Modulus (GPa) = 71.10211 69.92630 70.51421
#
# Velocity S-wave (km/s) = 6.00338 5.95353 5.97851
# Velocity P-wave (km/s) = 8.49528 8.85025 8.67458
#
# Compressibility (1/GPa) = 0.02101878
#
# Stress axis : x y z
#
# Youngs Moduli (GPa) = 85.69018 38.84509 105.56380
#
# Poissons Ratio (x) = 0.23869 0.33925
# Poissons Ratio (y) = 0.52654 0.37742
# Poissons Ratio (z) = 0.27538 0.13888
#
# Static dielectric constant tensor:
#      x y z
#    x 3.793230 0.000000 0.000000 
#    y 0.000000 3.351290 0.000000 
#    z 0.000000 0.000000 3.712920 
# 
# 
# High freq. dielectric constant tensor:
#      x y z
#    x 1.784170 0.000000 0.000000 
#    y 0.000000 1.743680 0.000000 
#    z 0.000000 0.000000 1.778360 
# 
# From -- ./inp_files/54646.got.cif
#   From: 2010.03.12/outbox.cif.g09.slc.cpg/sg65_28_cif.got.tgz:54646.got - 2010.04.10 20:52:16.
