data_PCOD8270144
_publ_section_title
;
Structure prediction by ZEFSAII (Michael W. Deem and Ramdas Pophale) SiO2 
 PCOD8270144
Probable space group: C M M M
;
_chemical_formula_sum "Si O2"
_cell_formula_units_Z 96
_cell_length_a 9.292179
_cell_length_b 30.446338
_cell_length_c 19.332958
_cell_angle_alpha 90.000000
_cell_angle_beta 90.000000
_cell_angle_gamma 90.000000
_cell_volume 5469.541717
_symmetry_space_group_name_H-M "C M M M"
_symmetry_group_IT_number 65
_symmetry_cell_setting 'orthorhombic'
loop_
_space_group_symop_operation_xyz
x,y,z
-x,-y,z
x,-y,-z
-x,y,-z
-x,-y,-z
x,y,-z
-x,y,z
x,-y,z
1/2+x,1/2+y,z
1/2-x,1/2-y,z
1/2+x,1/2-y,-z
1/2-x,1/2+y,-z
1/2-x,1/2-y,-z
1/2+x,1/2+y,-z
1/2-x,1/2+y,z
1/2+x,1/2-y,z
loop_
_atom_site_type_symbol
_atom_site_label
_atom_site_fract_x
_atom_site_fract_y
_atom_site_fract_z
Si Si1 0.158436 0.789639 0.417963
Si Si2 0.164270 0.550648 0.677739
Si Si3 0.333720 0.377678 0.918516
Si Si4 0.836403 0.292126 0.917651
Si Si5 0.171175 0.113771 0.577747
Si Si6 0.164808 0.449039 0.837112
O O1 0.149180 0.784593 0.500000
O O2 0.250000 0.750000 0.384925
O O3 0.225817 0.837432 0.400486
O O4 0.000000 0.785772 0.385381
O O5 0.199648 0.500000 0.663877
O O6 0.268172 0.578682 0.630360
O O7 0.193341 0.562464 0.757286
O O8 0.000000 0.561071 0.658124
O O9 0.500000 0.371119 0.898132
O O10 0.244509 0.335728 0.891205
O O11 0.273064 0.421320 0.883473
O O12 0.315223 0.383360 0.000000
O O13 0.750000 0.250000 0.888676
O O14 0.000000 0.291648 0.889153
O O15 0.837319 0.290874 0.000000
O O16 0.223774 0.102483 0.500000
O O17 0.000000 0.113010 0.580563
O O18 0.196816 0.500000 0.851404
O O19 0.000000 0.437989 0.856866
#
# Coordination Sequence:
#
# PCOD8270144 Si02
#       6
#    16  16  16  16  16  16
#     4   8  14  25  41  63  92 123 154 188 226 271
#     4   9  19  35  52  70  93 123 161 202 241 284
#     4  10  20  32  48  74 104 129 158 199 243 286
#     4   9  16  27  45  69  98 131 164 197 236 283
#     4   9  18  31  47  71 101 128 156 194 239 285
#     4   9  19  36  54  70  92 125 163 201 244 294
#
# _framework density 17.551743999999999
#
# number of rings (size 3 to 8) (size 9 to 14) (size 15 to 20)
#    0.000    3.000    0.000    3.000    0.000    6.000 
#    0.000    6.667    0.000    1.000    0.000    2.333 
#    0.000    0.000    0.000    0.000    0.000    0.000 
#
# Total GULP energy -595061.618336 kJ/mol
# GULP energy per Si atom -12397.117049 kJ/mol
# Density = 1.751180 g / cm^3
# Si number density = 17.551744 Si / 1000 Ang^3
#
#
#
# Elastic Constant Matrix: (Units=GPa)
#
#
# Indices 1 2 3 4 5 6 
#
# 1 103.7198 66.7784 36.6250 0.0000 0.0000 0.0000
# 2 66.7784 114.9419 42.7805 0.0000 0.0000 0.0000
# 3 36.6250 42.7805 36.9220 0.0000 0.0000 0.0000
# 4 0.0000 0.0000 0.0000 -5.7557 0.0000 0.0000
# 5 0.0000 0.0000 0.0000 0.0000 25.4593 0.0000
# 6 0.0000 0.0000 0.0000 0.0000 0.0000 39.1089
#
#
#
# Elastic Compliance Matrix: (Units=1/GPa)
#
#
# Indices 1 2 3 4 5 6 
#
# 1 0.017145 -0.006384 -0.009610 0.000000 0.000000 0.000000
# 2 -0.006384 0.017674 -0.014146 0.000000 0.000000 0.000000
# 3 -0.009610 -0.014146 0.053007 0.000000 0.000000 0.000000
# 4 0.000000 0.000000 0.000000 -0.173740 0.000000 0.000000
# 5 0.000000 0.000000 0.000000 0.000000 0.039278 0.000000
# 6 0.000000 0.000000 0.000000 0.000000 0.000000 0.025570
#
#
# Mechanical properties :
#
#
# Convention : Reuss Voigt Hill
#
# Bulk Modulus (GPa) = 36.30219 60.88350 48.59285
# Shear Modulus (GPa) = 103.31455 19.05581 61.18518
#
# Velocity S-wave (km/s) = 7.68054 3.29856 5.91063
# Velocity P-wave (km/s) = 9.96905 7.01931 8.62127
#
# Compressibility (1/GPa) = 0.02754654
#
# Stress axis : x y z
#
# Youngs Moduli (GPa) = 58.32556 56.58057 18.86537
#
# Poissons Ratio (x) = 0.36121 0.18130
# Poissons Ratio (y) = 0.37235 0.26686
# Poissons Ratio (z) = 0.56052 0.80036
#
# Static dielectric constant tensor:
#      x y z
#    x 3.341730 0.000000 0.000000 
#    y 0.000000 3.404110 0.000000 
#    z 0.000000 0.000000 2.857210 
# 
# 
# High freq. dielectric constant tensor:
#      x y z
#    x 1.681150 0.000000 0.000000 
#    y 0.000000 1.690760 0.000000 
#    z 0.000000 0.000000 1.634780 
# 
# From -- ./inp_files/60157.got.cif
#   From: 2010.03.12/outbox.cif.g09.slc.cpg/sg65_31_cif.got.tgz:60157.got - 2010.04.10 20:52:16.
