data_PCOD8270208
_publ_section_title
;
Structure prediction by ZEFSAII (Michael W. Deem and Ramdas Pophale) SiO2 
 PCOD8270208
Probable space group: C M M M
;
_chemical_formula_sum "Si O2"
_cell_formula_units_Z 88
_cell_length_a 18.484943
_cell_length_b 9.150836
_cell_length_c 27.653158
_cell_angle_alpha 90.000000
_cell_angle_beta 90.000000
_cell_angle_gamma 90.000000
_cell_volume 4677.605838
_symmetry_space_group_name_H-M "C M M M"
_symmetry_group_IT_number 65
_symmetry_cell_setting 'orthorhombic'
loop_
_space_group_symop_operation_xyz
x,y,z
-x,-y,z
x,-y,-z
-x,y,-z
-x,-y,-z
x,y,-z
-x,y,z
x,-y,z
1/2+x,1/2+y,z
1/2-x,1/2-y,z
1/2+x,1/2-y,-z
1/2-x,1/2+y,-z
1/2-x,1/2-y,-z
1/2+x,1/2+y,-z
1/2-x,1/2+y,z
1/2+x,1/2-y,z
loop_
_atom_site_type_symbol
_atom_site_label
_atom_site_fract_x
_atom_site_fract_y
_atom_site_fract_z
Si Si1 0.416320 0.330064 0.593535
Si Si2 0.677035 0.829839 0.219691
Si Si3 0.326324 0.328477 0.500000
Si Si4 0.913979 0.664247 0.053287
Si Si5 0.414160 0.335303 0.854901
Si Si6 0.823246 0.670139 0.668092
O O1 0.500000 0.296293 0.583576
O O2 0.403932 0.500000 0.605201
O O3 0.371647 0.279993 0.546719
O O4 0.390627 0.235869 0.639175
O O5 0.750000 0.750000 0.203279
O O6 0.611160 0.762496 0.189851
O O7 0.660658 0.801146 0.275801
O O8 0.684674 0.000000 0.208107
O O9 0.312402 0.500000 0.500000
O O10 0.250000 0.250000 0.500000
O O11 0.885974 0.500000 0.063346
O O12 0.882918 0.770837 0.094653
O O13 0.000000 0.665723 0.054683
O O14 0.887567 0.716905 0.000000
O O15 0.500000 0.331224 0.854900
O O16 0.385010 0.500000 0.849366
O O17 0.814313 0.500000 0.656348
O O18 0.750000 0.750000 0.651343
#
# Coordination Sequence:
#
# PCOD8270208 Si02
#       6
#    16  16   8  16  16  16
#     4  10  21  37  57  81 111 145 178 217 265 313
#     4  10  21  37  56  76 102 137 175 216 262 314
#     4  10  21  37  57  81 109 144 185 222 260 310
#     4   8  14  26  45  69  98 133 172 213 258 308
#     4  10  20  32  49  76 107 137 172 215 260 309
#     4  10  21  37  57  80 105 136 176 219 262 313
#
# _framework density 18.813041999999999
#
# number of rings (size 3 to 8) (size 9 to 14) (size 15 to 20)
#    0.000    2.364    0.000    3.000    0.000    8.000 
#    0.000    5.455    0.000    2.182    0.000    0.000 
#    0.000    0.000    0.000    0.000    0.000    0.000 
#
# Total GULP energy -545678.098400 kJ/mol
# GULP energy per Si atom -12401.774964 kJ/mol
# Density = 1.877022 g / cm^3
# Si number density = 18.813042 Si / 1000 Ang^3
#
#
#
# Elastic Constant Matrix: (Units=GPa)
#
#
# Indices 1 2 3 4 5 6 
#
# 1 77.7747 47.0175 51.5241 0.0000 0.0000 0.0000
# 2 47.0175 113.7852 68.1344 0.0000 0.0000 0.0000
# 3 51.5241 68.1344 109.9183 0.0000 0.0000 0.0000
# 4 0.0000 0.0000 0.0000 33.7722 0.0000 0.0000
# 5 0.0000 0.0000 0.0000 0.0000 19.5046 0.0000
# 6 0.0000 0.0000 0.0000 0.0000 0.0000 31.5645
#
#
#
# Elastic Compliance Matrix: (Units=1/GPa)
#
#
# Indices 1 2 3 4 5 6 
#
# 1 0.019824 -0.004178 -0.006703 0.000000 0.000000 0.000000
# 2 -0.004178 0.014856 -0.007251 0.000000 0.000000 0.000000
# 3 -0.006703 -0.007251 0.016734 0.000000 0.000000 0.000000
# 4 0.000000 0.000000 0.000000 0.029610 0.000000 0.000000
# 5 0.000000 0.000000 0.000000 0.000000 0.051270 0.000000
# 6 0.000000 0.000000 0.000000 0.000000 0.000000 0.031681
#
#
# Mechanical properties :
#
#
# Convention : Reuss Voigt Hill
#
# Bulk Modulus (GPa) = 65.99857 70.53667 68.26762
# Shear Modulus (GPa) = 24.35600 25.95507 25.15554
#
# Velocity S-wave (km/s) = 3.60201 3.71837 3.66065
# Velocity P-wave (km/s) = 7.24270 7.48398 7.36433
#
# Compressibility (1/GPa) = 0.01515184
#
# Stress axis : x y z
#
# Youngs Moduli (GPa) = 50.44476 67.31063 59.75890
#
# Poissons Ratio (x) = 0.28122 0.40054
# Poissons Ratio (y) = 0.21075 0.43329
# Poissons Ratio (z) = 0.33811 0.48804
#
# Static dielectric constant tensor:
#      x y z
#    x 3.171860 0.000000 0.000000 
#    y 0.000000 3.584520 0.000000 
#    z 0.000000 0.000000 3.625630 
# 
# 
# High freq. dielectric constant tensor:
#      x y z
#    x 1.705850 0.000000 0.000000 
#    y 0.000000 1.736010 0.000000 
#    z 0.000000 0.000000 1.741980 
# 
# From -- ./inp_files/70956.got.cif
#   From: 2010.03.12/outbox.cif.g09.slc.cpg/sg65_36_cif.got.tgz:70956.got - 2010.04.10 20:52:16.
