data_PCOD8270690
_publ_section_title
;
Structure prediction by ZEFSAII (Michael W. Deem and Ramdas Pophale) SiO2 
 PCOD8270690
Probable space group: C M M M
;
_chemical_formula_sum "Si O2"
_cell_formula_units_Z 104
_cell_length_a 24.335955
_cell_length_b 28.637792
_cell_length_c 7.993125
_cell_angle_alpha 90.000000
_cell_angle_beta 90.000000
_cell_angle_gamma 90.000000
_cell_volume 5570.632759
_symmetry_space_group_name_H-M "C M M M"
_symmetry_group_IT_number 65
_symmetry_cell_setting 'orthorhombic'
loop_
_space_group_symop_operation_xyz
x,y,z
-x,-y,z
x,-y,-z
-x,y,-z
-x,-y,-z
x,y,-z
-x,y,z
x,-y,z
1/2+x,1/2+y,z
1/2-x,1/2-y,z
1/2+x,1/2-y,-z
1/2-x,1/2+y,-z
1/2-x,1/2-y,-z
1/2+x,1/2+y,-z
1/2-x,1/2+y,z
1/2+x,1/2-y,z
loop_
_atom_site_type_symbol
_atom_site_label
_atom_site_fract_x
_atom_site_fract_y
_atom_site_fract_z
Si Si1 0.186154 0.694017 0.197621
Si Si2 0.655591 0.384987 0.684042
Si Si3 0.934903 0.444884 0.500000
Si Si4 0.062203 0.947219 0.807860
Si Si5 0.747845 0.052395 0.807489
Si Si6 0.307486 0.705058 0.189589
Si Si7 0.868185 0.399880 0.197771
O O1 0.248717 0.689776 0.269666
O O2 0.166580 0.746018 0.258858
O O3 0.145875 0.652932 0.262462
O O4 0.186308 0.686246 0.000000
O O5 0.658566 0.364344 0.500000
O O6 0.600635 0.414529 0.700304
O O7 0.709129 0.415866 0.711881
O O8 0.651429 0.338619 0.797926
O O9 0.920246 0.500000 0.500000
O O10 0.912283 0.421267 0.327793
O O11 0.000000 0.437041 0.500000
O O12 0.000000 0.929900 0.785314
O O13 0.068321 0.000000 0.742536
O O14 0.080570 0.944488 0.000000
O O15 0.686472 0.069858 0.781395
O O16 0.751967 0.000000 0.736476
O O17 0.765050 0.054127 0.000000
O O18 0.294561 0.717426 0.000000
O O19 0.887964 0.401791 0.000000
#
# Coordination Sequence:
#
# PCOD8270690 Si02
#       7
#    16  16   8  16  16  16  16
#     4   8  15  30  56  83 107 141 183 223 272 328
#     4  12  23  31  45  77 115 147 178 221 276 328
#     4  11  26  44  62  87 116 152 195 234 282 346
#     4   9  19  37  58  74  92 132 189 236 272 317
#     4  10  20  33  51  76 108 148 185 221 275 335
#     4   9  16  31  52  76 110 146 180 221 267 327
#     4  10  20  38  62  88 116 149 189 236 286 338
#
# _framework density 18.669333999999999
#
# number of rings (size 3 to 8) (size 9 to 14) (size 15 to 20)
#    0.000    2.231    1.538    3.692    1.077    4.000 
#    1.385    2.308    0.000    0.923    0.000    2.154 
#    0.000    0.000    0.000    0.000    0.000    0.000 
#
# Total GULP energy -644233.296619 kJ/mol
# GULP energy per Si atom -12389.101858 kJ/mol
# Density = 1.862684 g / cm^3
# Si number density = 18.669334 Si / 1000 Ang^3
#
#
#
# Elastic Constant Matrix: (Units=GPa)
#
#
# Indices 1 2 3 4 5 6 
#
# 1 74.0387 47.1166 33.2315 0.0000 0.0000 0.0000
# 2 47.1166 151.5051 36.2053 0.0000 0.0000 0.0000
# 3 33.2315 36.2053 59.8965 0.0000 0.0000 0.0000
# 4 0.0000 0.0000 0.0000 4.1784 0.0000 0.0000
# 5 0.0000 0.0000 0.0000 0.0000 23.2813 0.0000
# 6 0.0000 0.0000 0.0000 0.0000 0.0000 5.8948
#
#
#
# Elastic Compliance Matrix: (Units=1/GPa)
#
#
# Indices 1 2 3 4 5 6 
#
# 1 0.020014 -0.004173 -0.008581 0.000000 0.000000 0.000000
# 2 -0.004173 0.008585 -0.002874 0.000000 0.000000 0.000000
# 3 -0.008581 -0.002874 0.023194 0.000000 0.000000 0.000000
# 4 0.000000 0.000000 0.000000 0.239327 0.000000 0.000000
# 5 0.000000 0.000000 0.000000 0.000000 0.042953 0.000000
# 6 0.000000 0.000000 0.000000 0.000000 0.000000 0.169642
#
#
# Mechanical properties :
#
#
# Convention : Reuss Voigt Hill
#
# Bulk Modulus (GPa) = 48.69645 57.61634 53.15639
# Shear Modulus (GPa) = 9.22820 17.93001 13.57910
#
# Velocity S-wave (km/s) = 2.22569 3.10239 2.69987
# Velocity P-wave (km/s) = 5.72234 6.61526 6.18493
#
# Compressibility (1/GPa) = 0.02053538
#
# Stress axis : x y z
#
# Youngs Moduli (GPa) = 49.96504 116.48060 43.11508
#
# Poissons Ratio (x) = 0.48613 0.36999
# Poissons Ratio (y) = 0.20853 0.12391
# Poissons Ratio (z) = 0.42877 0.33475
#
# Static dielectric constant tensor:
#      x y z
#    x 3.127600 0.000000 0.000000 
#    y 0.000000 3.701180 0.000000 
#    z 0.000000 0.000000 3.290860 
# 
# 
# High freq. dielectric constant tensor:
#      x y z
#    x 1.685500 0.000000 0.000000 
#    y 0.000000 1.743170 0.000000 
#    z 0.000000 0.000000 1.710360 
# 
# From -- ./inp_files/15060.got.cif
#   From: 2010.03.12/outbox.cif.g09.slc.cpg/sg65_8_cif.got.tgz:15060.got - 2010.04.10 20:52:16.
