data_PCOD8270353
_publ_section_title
;
Structure prediction by ZEFSAII (Michael W. Deem and Ramdas Pophale) SiO2 
 PCOD8270353
Probable space group: C M M M
;
_chemical_formula_sum "Si O2"
_cell_formula_units_Z 88
_cell_length_a 9.667135
_cell_length_b 18.211297
_cell_length_c 28.729767
_cell_angle_alpha 90.000000
_cell_angle_beta 90.000000
_cell_angle_gamma 90.000000
_cell_volume 5057.906124
_symmetry_space_group_name_H-M "C M M M"
_symmetry_group_IT_number 65
_symmetry_cell_setting 'orthorhombic'
loop_
_space_group_symop_operation_xyz
x,y,z
-x,-y,z
x,-y,-z
-x,y,-z
-x,-y,-z
x,y,-z
-x,y,z
x,-y,z
1/2+x,1/2+y,z
1/2-x,1/2-y,z
1/2+x,1/2-y,-z
1/2-x,1/2+y,-z
1/2-x,1/2-y,-z
1/2+x,1/2+y,-z
1/2-x,1/2+y,z
1/2+x,1/2-y,z
loop_
_atom_site_type_symbol
_atom_site_label
_atom_site_fract_x
_atom_site_fract_y
_atom_site_fract_z
Si Si1 0.159466 0.415279 0.365395
Si Si2 0.836085 0.581711 0.186777
Si Si3 0.838847 0.676311 0.100751
Si Si4 0.162697 0.676500 0.274281
Si Si5 0.844475 0.912740 0.448684
Si Si6 0.844410 0.680588 0.000000
O O1 0.197935 0.500000 0.355834
O O2 0.198283 0.370512 0.319657
O O3 0.244240 0.381406 0.408795
O O4 0.000000 0.406831 0.378561
O O5 0.771575 0.500000 0.190102
O O6 0.785081 0.618473 0.138743
O O7 0.784915 0.630141 0.230041
O O8 0.000000 0.575811 0.187947
O O9 0.750000 0.750000 0.105495
O O10 0.000000 0.695962 0.109481
O O11 0.818428 0.638374 0.049169
O O12 0.250000 0.750000 0.276129
O O13 0.000000 0.694909 0.270990
O O14 0.798730 0.884053 0.500000
O O15 0.000000 0.886168 0.437784
O O16 0.837030 0.000000 0.448611
O O17 0.750000 0.750000 0.000000
O O18 0.000000 0.710619 0.000000
#
# Coordination Sequence:
#
# PCOD8270353 Si02
#       6
#    16  16  16  16  16   8
#     4   9  17  29  46  68  92 118 149 185 223 262
#     4   9  17  30  48  68  90 118 151 186 227 273
#     4   9  16  27  45  67  91 120 153 188 225 266
#     4  10  20  33  49  68  90 117 150 187 225 269
#     4   8  14  25  42  66  95 123 149 179 218 263
#     4   8  14  24  39  63  91 117 149 186 222 262
#
# _framework density 17.398503999999999
#
# number of rings (size 3 to 8) (size 9 to 14) (size 15 to 20)
#    0.000    3.091    0.000    1.636    0.000    3.273 
#    0.000    2.273    0.000    6.545    0.000    0.000 
#    0.000    7.273    0.000    0.000    0.000    0.000 
#
# Total GULP energy -545230.243206 kJ/mol
# GULP energy per Si atom -12391.596437 kJ/mol
# Density = 1.735890 g / cm^3
# Si number density = 17.398504 Si / 1000 Ang^3
#
#
#
# Elastic Constant Matrix: (Units=GPa)
#
#
# Indices 1 2 3 4 5 6 
#
# 1 48.1517 39.0305 61.4502 0.0000 0.0000 0.0000
# 2 39.0305 88.7749 71.2198 0.0000 0.0000 0.0000
# 3 61.4502 71.2198 194.7352 0.0000 0.0000 0.0000
# 4 0.0000 0.0000 0.0000 15.6687 0.0000 0.0000
# 5 0.0000 0.0000 0.0000 0.0000 21.2807 0.0000
# 6 0.0000 0.0000 0.0000 0.0000 0.0000 20.3073
#
#
#
# Elastic Compliance Matrix: (Units=1/GPa)
#
#
# Indices 1 2 3 4 5 6 
#
# 1 0.040999 -0.010821 -0.008980 0.000000 0.000000 0.000000
# 2 -0.010821 0.018798 -0.003460 0.000000 0.000000 0.000000
# 3 -0.008980 -0.003460 0.009234 0.000000 0.000000 0.000000
# 4 0.000000 0.000000 0.000000 0.063822 0.000000 0.000000
# 5 0.000000 0.000000 0.000000 0.000000 0.046991 0.000000
# 6 0.000000 0.000000 0.000000 0.000000 0.000000 0.049243
#
#
# Mechanical properties :
#
#
# Convention : Reuss Voigt Hill
#
# Bulk Modulus (GPa) = 44.42742 75.00698 59.71720
# Shear Modulus (GPa) = 17.66074 22.11541 19.88807
#
# Velocity S-wave (km/s) = 3.18948 3.56913 3.38463
# Velocity P-wave (km/s) = 6.25734 7.75820 7.04784
#
# Compressibility (1/GPa) = 0.02250862
#
# Stress axis : x y z
#
# Youngs Moduli (GPa) = 24.39062 53.19688 108.29121
#
# Poissons Ratio (x) = 0.57567 0.97245
# Poissons Ratio (y) = 0.26394 0.37471
# Poissons Ratio (z) = 0.21903 0.18407
#
# Static dielectric constant tensor:
#      x y z
#    x 3.113290 0.000000 0.000000 
#    y 0.000000 3.047800 0.000000 
#    z 0.000000 0.000000 3.855530 
# 
# 
# High freq. dielectric constant tensor:
#      x y z
#    x 1.650640 0.000000 0.000000 
#    y 0.000000 1.633830 0.000000 
#    z 0.000000 0.000000 1.698600 
# 
# From -- ./inp_files/69805.got.cif
#   From: 2010.03.12/outbox.cif.g09.slc.cpg/sg65_35_cif.got.tgz:69805.got - 2010.04.10 20:52:16.
