data_PCOD8270083
_publ_section_title
;
Structure prediction by ZEFSAII (Michael W. Deem and Ramdas Pophale) SiO2 
 PCOD8270083
Probable space group: C M M M
;
_chemical_formula_sum "Si O2"
_cell_formula_units_Z 104
_cell_length_a 8.671888
_cell_length_b 26.799983
_cell_length_c 23.977264
_cell_angle_alpha 90.000000
_cell_angle_beta 90.000000
_cell_angle_gamma 90.000000
_cell_volume 5572.470830
_symmetry_space_group_name_H-M "C M M M"
_symmetry_group_IT_number 65
_symmetry_cell_setting 'orthorhombic'
loop_
_space_group_symop_operation_xyz
x,y,z
-x,-y,z
x,-y,-z
-x,y,-z
-x,-y,-z
x,y,-z
-x,y,z
x,-y,z
1/2+x,1/2+y,z
1/2-x,1/2-y,z
1/2+x,1/2-y,-z
1/2-x,1/2+y,-z
1/2-x,1/2-y,-z
1/2+x,1/2+y,-z
1/2-x,1/2+y,z
1/2+x,1/2-y,z
loop_
_atom_site_type_symbol
_atom_site_label
_atom_site_fract_x
_atom_site_fract_y
_atom_site_fract_z
Si Si1 0.175853 0.113930 0.661608
Si Si2 0.678483 0.056780 0.436084
Si Si3 0.183382 0.500000 0.063562
Si Si4 0.819134 0.698879 0.271627
Si Si5 0.820896 0.401646 0.873351
Si Si6 0.675246 0.443166 0.770296
Si Si7 0.818041 0.802847 0.150811
O O1 0.222777 0.094356 0.601094
O O2 0.285929 0.158650 0.680651
O O3 0.197316 0.069157 0.705520
O O4 0.000000 0.132829 0.659649
O O5 0.705753 0.072245 0.500000
O O6 0.500000 0.061751 0.419943
O O7 0.733955 0.000000 0.426407
O O8 0.247599 0.449110 0.092229
O O9 0.000000 0.500000 0.068768
O O10 0.239897 0.500000 0.000000
O O11 0.750000 0.750000 0.295316
O O12 0.734370 0.685484 0.213884
O O13 0.000000 0.703619 0.259782
O O14 0.791671 0.411243 0.807867
O O15 0.739214 0.348817 0.888532
O O16 0.000000 0.395132 0.885862
O O17 0.500000 0.431793 0.789482
O O18 0.720122 0.500000 0.779085
O O19 0.750000 0.750000 0.129574
O O20 0.000000 0.799285 0.148090
#
# Coordination Sequence:
#
# PCOD8270083 Si02
#       7
#    16  16   8  16  16  16  16
#     4  11  21  33  51  77 107 143 179 219 271 328
#     4   9  19  36  55  75 102 139 182 227 271 318
#     4   9  20  38  59  85 117 153 194 235 276 327
#     4  11  21  34  52  76 107 142 179 219 266 325
#     4  11  20  33  55  82 110 148 189 228 275 330
#     4  10  20  32  47  72 110 147 176 218 273 323
#     4  11  21  35  54  80 113 149 185 229 279 334
#
# _framework density 18.663174999999999
#
# number of rings (size 3 to 8) (size 9 to 14) (size 15 to 20)
#    0.000    1.615    2.308    5.538    0.000    1.846 
#    0.000    0.769    0.000    4.615    0.000    0.000 
#    0.000    0.000    0.000    0.000    0.000    0.000 
#
# Total GULP energy -644787.772457 kJ/mol
# GULP energy per Si atom -12399.764855 kJ/mol
# Density = 1.862070 g / cm^3
# Si number density = 18.663175 Si / 1000 Ang^3
#
#
#
# Elastic Constant Matrix: (Units=GPa)
#
#
# Indices 1 2 3 4 5 6 
#
# 1 100.2525 49.6327 22.4221 0.0000 0.0000 0.0000
# 2 49.6327 146.4510 42.6494 0.0000 0.0000 0.0000
# 3 22.4221 42.6494 64.0149 0.0000 0.0000 0.0000
# 4 0.0000 0.0000 0.0000 16.5306 0.0000 0.0000
# 5 0.0000 0.0000 0.0000 0.0000 15.5238 0.0000
# 6 0.0000 0.0000 0.0000 0.0000 0.0000 32.3166
#
#
#
# Elastic Compliance Matrix: (Units=1/GPa)
#
#
# Indices 1 2 3 4 5 6 
#
# 1 0.012165 -0.003576 -0.001879 0.000000 0.000000 0.000000
# 2 -0.003576 0.009523 -0.005092 0.000000 0.000000 0.000000
# 3 -0.001879 -0.005092 0.019672 0.000000 0.000000 0.000000
# 4 0.000000 0.000000 0.000000 0.060494 0.000000 0.000000
# 5 0.000000 0.000000 0.000000 0.000000 0.064417 0.000000
# 6 0.000000 0.000000 0.000000 0.000000 0.000000 0.030944
#
#
# Mechanical properties :
#
#
# Convention : Reuss Voigt Hill
#
# Bulk Modulus (GPa) = 49.34128 60.01409 54.67769
# Shear Modulus (GPa) = 22.21589 25.94182 24.07885
#
# Velocity S-wave (km/s) = 3.45390 3.73232 3.59580
# Velocity P-wave (km/s) = 6.51161 7.12740 6.82645
#
# Compressibility (1/GPa) = 0.02026701
#
# Stress axis : x y z
#
# Youngs Moduli (GPa) = 82.20128 105.00908 50.83353
#
# Poissons Ratio (x) = 0.37548 0.09550
# Poissons Ratio (y) = 0.29393 0.25885
# Poissons Ratio (z) = 0.15444 0.53472
#
# Static dielectric constant tensor:
#      x y z
#    x 3.363760 0.000000 0.000000 
#    y 0.000000 3.868450 0.000000 
#    z 0.000000 0.000000 3.114960 
# 
# 
# High freq. dielectric constant tensor:
#      x y z
#    x 1.724100 0.000000 0.000000 
#    y 0.000000 1.737090 0.000000 
#    z 0.000000 0.000000 1.685870 
# 
# From -- ./inp_files/68279.got.cif
#   From: 2010.03.12/outbox.cif.g09.slc.cpg/sg65_35_cif.got.tgz:68279.got - 2010.04.10 20:52:16.
