data_PCOD8270291
_publ_section_title
;
Structure prediction by ZEFSAII (Michael W. Deem and Ramdas Pophale) SiO2 
 PCOD8270291
Probable space group: C M M M
;
_chemical_formula_sum "Si O2"
_cell_formula_units_Z 104
_cell_length_a 18.042556
_cell_length_b 25.744992
_cell_length_c 14.471489
_cell_angle_alpha 90.000000
_cell_angle_beta 90.000000
_cell_angle_gamma 90.000000
_cell_volume 6722.085653
_symmetry_space_group_name_H-M "C M M M"
_symmetry_group_IT_number 65
_symmetry_cell_setting 'orthorhombic'
loop_
_space_group_symop_operation_xyz
x,y,z
-x,-y,z
x,-y,-z
-x,y,-z
-x,-y,-z
x,y,-z
-x,y,z
x,-y,z
1/2+x,1/2+y,z
1/2-x,1/2-y,z
1/2+x,1/2-y,-z
1/2-x,1/2+y,-z
1/2-x,1/2-y,-z
1/2+x,1/2+y,-z
1/2-x,1/2+y,z
1/2+x,1/2-y,z
loop_
_atom_site_type_symbol
_atom_site_label
_atom_site_fract_x
_atom_site_fract_y
_atom_site_fract_z
Si Si1 0.585141 0.654317 0.210009
Si Si2 0.683312 0.057348 0.109616
Si Si3 0.588219 0.610803 0.601944
Si Si4 0.162911 0.754341 0.893565
Si Si5 0.419967 0.500000 0.391509
Si Si6 0.083920 0.349705 0.110112
Si Si7 0.647959 0.559282 0.108543
O O1 0.500000 0.671326 0.199205
O O2 0.608956 0.651871 0.318392
O O3 0.636887 0.696351 0.163294
O O4 0.594771 0.598063 0.163301
O O5 0.627852 0.100599 0.151178
O O6 0.767265 0.071251 0.137259
O O7 0.661544 0.000000 0.147771
O O8 0.677031 0.056596 0.000000
O O9 0.617211 0.628865 0.500000
O O10 0.500000 0.603559 0.597878
O O11 0.622817 0.554153 0.631667
O O12 0.250000 0.750000 0.880698
O O13 0.123466 0.702681 0.854720
O O14 0.141369 0.763522 0.000000
O O15 0.500000 0.500000 0.340562
O O16 0.433412 0.500000 0.500000
O O17 0.000000 0.351217 0.147580
O O18 0.085844 0.351280 0.000000
O O19 0.627182 0.500000 0.134974
O O20 0.636621 0.568435 0.000000
#
# Coordination Sequence:
#
# PCOD8270291 Si02
#       7
#    16  16  16  16   8  16  16
#     4  11  21  29  44  66  85 108 144 186 220 251
#     4   8  14  26  42  57  77 108 140 166 200 251
#     4   8  15  27  42  61  85 111 138 173 217 261
#     4  10  20  33  46  58  79 114 151 181 213 260
#     4   7  10  20  38  56  77 107 137 163 197 244
#     4   9  16  25  39  59  80 100 129 176 222 249
#     4   9  18  30  40  54  83 120 150 173 202 247
#
# _framework density 15.471387999999999
#
# number of rings (size 3 to 8) (size 9 to 14) (size 15 to 20)
#    0.000    3.000    0.000    3.692    1.077    4.923 
#    0.000    2.308    0.000    0.462    0.000    0.000 
#    0.000    0.000    0.000    0.000    0.000    0.769 
#
# Total GULP energy -644355.090609 kJ/mol
# GULP energy per Si atom -12391.444050 kJ/mol
# Density = 1.543617 g / cm^3
# Si number density = 15.471388 Si / 1000 Ang^3
#
#
#
# Elastic Constant Matrix: (Units=GPa)
#
#
# Indices 1 2 3 4 5 6 
#
# 1 42.3368 26.6273 20.3235 0.0000 0.0000 0.0000
# 2 26.6273 90.7745 38.8330 0.0000 0.0000 0.0000
# 3 20.3235 38.8330 54.7765 0.0000 0.0000 0.0000
# 4 0.0000 0.0000 0.0000 13.5833 0.0000 0.0000
# 5 0.0000 0.0000 0.0000 0.0000 6.2885 0.0000
# 6 0.0000 0.0000 0.0000 0.0000 0.0000 26.4749
#
#
#
# Elastic Compliance Matrix: (Units=1/GPa)
#
#
# Indices 1 2 3 4 5 6 
#
# 1 0.030830 -0.005957 -0.007216 0.000000 0.000000 0.000000
# 2 -0.005957 0.016963 -0.009815 0.000000 0.000000 0.000000
# 3 -0.007216 -0.009815 0.027892 0.000000 0.000000 0.000000
# 4 0.000000 0.000000 0.000000 0.073620 0.000000 0.000000
# 5 0.000000 0.000000 0.000000 0.000000 0.159020 0.000000
# 6 0.000000 0.000000 0.000000 0.000000 0.000000 0.037772
#
#
# Mechanical properties :
#
#
# Convention : Reuss Voigt Hill
#
# Bulk Modulus (GPa) = 33.65999 39.93949 36.79974
# Shear Modulus (GPa) = 12.43858 16.07627 14.25742
#
# Velocity S-wave (km/s) = 2.83852 3.22700 3.03897
# Velocity P-wave (km/s) = 5.70495 6.30522 6.01258
#
# Compressibility (1/GPa) = 0.02970886
#
# Stress axis : x y z
#
# Youngs Moduli (GPa) = 32.43542 58.95337 35.85293
#
# Poissons Ratio (x) = 0.35117 0.25871
# Poissons Ratio (y) = 0.19321 0.35191
# Poissons Ratio (z) = 0.23405 0.57864
#
# Static dielectric constant tensor:
#      x y z
#    x 2.806380 0.000000 0.000000 
#    y 0.000000 3.166860 0.000000 
#    z 0.000000 0.000000 2.728710 
# 
# 
# High freq. dielectric constant tensor:
#      x y z
#    x 1.569820 0.000000 0.000000 
#    y 0.000000 1.600440 0.000000 
#    z 0.000000 0.000000 1.546320 
# 
# From -- ./inp_files/43248.got.cif
#   From: 2010.03.12/outbox.cif.g09.slc.cpg/sg65_22_cif.got.tgz:43248.got - 2010.04.10 20:52:16.
