data_PCOD8270101
_publ_section_title
;
Structure prediction by ZEFSAII (Michael W. Deem and Ramdas Pophale) SiO2 
 PCOD8270101
Probable space group: C M M M
;
_chemical_formula_sum "Si O2"
_cell_formula_units_Z 72
_cell_length_a 16.781712
_cell_length_b 15.164864
_cell_length_c 15.976431
_cell_angle_alpha 90.000000
_cell_angle_beta 90.000000
_cell_angle_gamma 90.000000
_cell_volume 4065.879952
_symmetry_space_group_name_H-M "C M M M"
_symmetry_group_IT_number 65
_symmetry_cell_setting 'orthorhombic'
loop_
_space_group_symop_operation_xyz
x,y,z
-x,-y,z
x,-y,-z
-x,y,-z
-x,-y,-z
x,y,-z
-x,y,z
x,-y,z
1/2+x,1/2+y,z
1/2-x,1/2-y,z
1/2+x,1/2-y,-z
1/2-x,1/2+y,-z
1/2-x,1/2-y,-z
1/2+x,1/2+y,-z
1/2-x,1/2+y,z
1/2+x,1/2-y,z
loop_
_atom_site_type_symbol
_atom_site_label
_atom_site_fract_x
_atom_site_fract_y
_atom_site_fract_z
Si Si1 0.132495 0.400868 0.402926
Si Si2 0.088384 0.757545 0.708927
Si Si3 0.784366 0.901977 0.699586
Si Si4 0.409990 0.897342 0.000000
Si Si5 0.187451 0.319296 0.849361
O O1 0.122361 0.378953 0.500000
O O2 0.099801 0.500000 0.382965
O O3 0.084770 0.327558 0.351300
O O4 0.225239 0.396322 0.378880
O O5 0.146101 0.834190 0.675712
O O6 0.117756 0.731412 0.800760
O O7 0.000000 0.796799 0.716075
O O8 0.736363 0.880188 0.784652
O O9 0.820379 0.000000 0.709309
O O10 0.357314 0.873737 0.080187
O O11 0.500000 0.854401 0.000000
O O12 0.422753 0.000000 0.000000
O O13 0.250000 0.250000 0.889890
#
# Coordination Sequence:
#
# PCOD8270101 Si02
#       5
#    16  16  16   8  16
#     4   9  18  33  52  71  92 124 165 201 233 278
#     4  10  20  32  48  72 100 126 154 196 245 285
#     4   9  18  33  52  71  93 125 163 199 234 278
#     4  11  21  30  46  74 103 125 148 188 242 291
#     4   9  18  34  52  68  91 126 165 196 226 274
#
# _framework density 17.708344
#
# number of rings (size 3 to 8) (size 9 to 14) (size 15 to 20)
#    0.000    2.556    0.000    3.667    0.000    4.000 
#    0.000    1.111    0.000    0.000    0.000    4.667 
#    0.000   16.000    0.000    0.000    0.000    0.000 
#
# Total GULP energy -446183.360013 kJ/mol
# GULP energy per Si atom -12393.982223 kJ/mol
# Density = 1.766804 g / cm^3
# Si number density = 17.708344 Si / 1000 Ang^3
#
#
#
# Elastic Constant Matrix: (Units=GPa)
#
#
# Indices 1 2 3 4 5 6 
#
# 1 108.0206 36.5723 29.1421 0.0000 0.0000 0.0000
# 2 36.5723 79.8252 13.7608 0.0000 0.0000 0.0000
# 3 29.1421 13.7608 61.7103 0.0000 0.0000 0.0000
# 4 0.0000 0.0000 0.0000 25.2092 0.0000 0.0000
# 5 0.0000 0.0000 0.0000 0.0000 14.0657 0.0000
# 6 0.0000 0.0000 0.0000 0.0000 0.0000 12.8584
#
#
#
# Elastic Compliance Matrix: (Units=1/GPa)
#
#
# Indices 1 2 3 4 5 6 
#
# 1 0.012125 -0.004751 -0.004667 0.000000 0.000000 0.000000
# 2 -0.004751 0.014890 -0.001077 0.000000 0.000000 0.000000
# 3 -0.004667 -0.001077 0.018649 0.000000 0.000000 0.000000
# 4 0.000000 0.000000 0.000000 0.039668 0.000000 0.000000
# 5 0.000000 0.000000 0.000000 0.000000 0.071095 0.000000
# 6 0.000000 0.000000 0.000000 0.000000 0.000000 0.077770
#
#
# Mechanical properties :
#
#
# Convention : Reuss Voigt Hill
#
# Bulk Modulus (GPa) = 40.52665 45.38963 42.95814
# Shear Modulus (GPa) = 18.98188 21.76538 20.37363
#
# Velocity S-wave (km/s) = 3.27757 3.50966 3.39560
# Velocity P-wave (km/s) = 6.10398 6.48930 6.29959
#
# Compressibility (1/GPa) = 0.02467512
#
# Stress axis : x y z
#
# Youngs Moduli (GPa) = 82.47530 67.16139 53.62341
#
# Poissons Ratio (x) = 0.31906 0.25023
# Poissons Ratio (y) = 0.39181 0.05774
# Poissons Ratio (z) = 0.38487 0.07232
#
# Static dielectric constant tensor:
#      x y z
#    x 3.235500 0.000000 0.000000 
#    y 0.000000 3.386690 0.000000 
#    z 0.000000 0.000000 3.127500 
# 
# 
# High freq. dielectric constant tensor:
#      x y z
#    x 1.681770 0.000000 0.000000 
#    y 0.000000 1.685410 0.000000 
#    z 0.000000 0.000000 1.674200 
# 
# From -- ./inp_files/39746.got.cif
#   From: 2010.03.12/outbox.cif.g09.slc.cpg/sg65_20_cif.got.tgz:39746.got - 2010.04.10 20:52:16.
