data_PCOD8270976
_publ_section_title
;
Structure prediction by ZEFSAII (Michael W. Deem and Ramdas Pophale) SiO2 
 PCOD8270976
Probable space group: C M M M
;
_chemical_formula_sum "Si O2"
_cell_formula_units_Z 88
_cell_length_a 27.056294
_cell_length_b 19.012383
_cell_length_c 9.747974
_cell_angle_alpha 90.000000
_cell_angle_beta 90.000000
_cell_angle_gamma 90.000000
_cell_volume 5014.402901
_symmetry_space_group_name_H-M "C M M M"
_symmetry_group_IT_number 65
_symmetry_cell_setting 'orthorhombic'
loop_
_space_group_symop_operation_xyz
x,y,z
-x,-y,z
x,-y,-z
-x,y,-z
-x,-y,-z
x,y,-z
-x,y,z
x,-y,z
1/2+x,1/2+y,z
1/2-x,1/2-y,z
1/2+x,1/2-y,-z
1/2-x,1/2+y,-z
1/2-x,1/2-y,-z
1/2+x,1/2+y,-z
1/2-x,1/2+y,z
1/2+x,1/2-y,z
loop_
_atom_site_type_symbol
_atom_site_label
_atom_site_fract_x
_atom_site_fract_y
_atom_site_fract_z
Si Si1 0.094510 0.660218 0.337681
Si Si2 0.191603 0.417764 0.659754
Si Si3 0.000000 0.579305 0.663933
Si Si4 0.557437 0.690679 0.342746
Si Si5 0.779922 0.916537 0.151663
Si Si6 0.390371 0.418789 0.160044
O O1 0.093090 0.651894 0.500000
O O2 0.145462 0.626926 0.282422
O O3 0.048542 0.617086 0.275334
O O4 0.089608 0.741833 0.295740
O O5 0.201144 0.403799 0.500000
O O6 0.181296 0.500000 0.687943
O O7 0.239790 0.389374 0.739493
O O8 0.000000 0.500000 0.717798
O O9 0.000000 0.582713 0.500000
O O10 0.569152 0.670874 0.500000
O O11 0.500000 0.709853 0.325309
O O12 0.570770 0.625090 0.248047
O O13 0.834860 0.892367 0.195870
O O14 0.779947 0.000000 0.145936
O O15 0.767005 0.886966 0.000000
O O16 0.397364 0.500000 0.200391
O O17 0.401464 0.407410 0.000000
#
# Coordination Sequence:
#
# PCOD8270976 Si02
#       6
#    16  16   8  16  16  16
#     4   9  16  28  43  66 101 134 162 196 239 282
#     4   9  16  26  45  74 102 127 161 203 239 275
#     4   9  14  22  42  68  94 129 170 204 233 271
#     4  10  20  34  51  71  99 133 162 194 242 294
#     4   8  15  30  50  70  94 124 156 194 244 294
#     4   9  19  36  56  75  94 120 159 204 245 291
#
# _framework density 17.549447000000001
#
# number of rings (size 3 to 8) (size 9 to 14) (size 15 to 20)
#    0.000    3.000    0.909    1.636    0.000    4.000 
#    0.000    5.455    0.000    5.455    0.000    0.000 
#    0.000    4.364    0.000    0.000    0.000    0.000 
#
# Total GULP energy -545467.480457 kJ/mol
# GULP energy per Si atom -12396.988192 kJ/mol
# Density = 1.750950 g / cm^3
# Si number density = 17.549447 Si / 1000 Ang^3
#
#
#
# Elastic Constant Matrix: (Units=GPa)
#
#
# Indices 1 2 3 4 5 6 
#
# 1 70.8955 33.3996 34.7839 0.0000 0.0000 0.0000
# 2 33.3996 77.8193 34.7304 0.0000 0.0000 0.0000
# 3 34.7839 34.7304 48.6431 0.0000 0.0000 0.0000
# 4 0.0000 0.0000 0.0000 13.2928 0.0000 0.0000
# 5 0.0000 0.0000 0.0000 0.0000 8.1330 0.0000
# 6 0.0000 0.0000 0.0000 0.0000 0.0000 21.8891
#
#
#
# Elastic Compliance Matrix: (Units=1/GPa)
#
#
# Indices 1 2 3 4 5 6 
#
# 1 0.022402 -0.003618 -0.013436 0.000000 0.000000 0.000000
# 2 -0.003618 0.019444 -0.011296 0.000000 0.000000 0.000000
# 3 -0.013436 -0.011296 0.038230 0.000000 0.000000 0.000000
# 4 0.000000 0.000000 0.000000 0.075229 0.000000 0.000000
# 5 0.000000 0.000000 0.000000 0.000000 0.122956 0.000000
# 6 0.000000 0.000000 0.000000 0.000000 0.000000 0.045685
#
#
# Mechanical properties :
#
#
# Convention : Reuss Voigt Hill
#
# Bulk Modulus (GPa) = 42.77647 44.79842 43.78744
# Shear Modulus (GPa) = 12.87205 14.95924 13.91565
#
# Velocity S-wave (km/s) = 2.71121 2.92277 2.81897
# Velocity P-wave (km/s) = 5.85052 6.08050 5.96662
#
# Compressibility (1/GPa) = 0.02337734
#
# Stress axis : x y z
#
# Youngs Moduli (GPa) = 44.63872 51.42851 26.15713
#
# Poissons Ratio (x) = 0.18609 0.35144
# Poissons Ratio (y) = 0.16152 0.29546
# Poissons Ratio (z) = 0.59976 0.58091
#
# Static dielectric constant tensor:
#      x y z
#    x 3.450190 0.000000 0.000000 
#    y 0.000000 3.069940 0.000000 
#    z 0.000000 0.000000 3.001240 
# 
# 
# High freq. dielectric constant tensor:
#      x y z
#    x 1.686620 0.000000 0.000000 
#    y 0.000000 1.661700 0.000000 
#    z 0.000000 0.000000 1.642870 
# 
# From -- ./inp_files/18303.got.cif
#   From: 2010.03.12/outbox.cif.g09.slc.cpg/sg65_10_cif.got.tgz:18303.got - 2010.04.10 20:52:16.
