data_PCOD8270685
_publ_section_title
;
Structure prediction by ZEFSAII (Michael W. Deem and Ramdas Pophale) SiO2 
 PCOD8270685
Probable space group: C M M M
;
_chemical_formula_sum "Si O2"
_cell_formula_units_Z 96
_cell_length_a 18.787678
_cell_length_b 30.625150
_cell_length_c 9.122458
_cell_angle_alpha 90.000000
_cell_angle_beta 90.000000
_cell_angle_gamma 90.000000
_cell_volume 5248.838440
_symmetry_space_group_name_H-M "C M M M"
_symmetry_group_IT_number 65
_symmetry_cell_setting 'orthorhombic'
loop_
_space_group_symop_operation_xyz
x,y,z
-x,-y,z
x,-y,-z
-x,y,-z
-x,-y,-z
x,y,-z
-x,y,z
x,-y,z
1/2+x,1/2+y,z
1/2-x,1/2-y,z
1/2+x,1/2-y,-z
1/2-x,1/2+y,-z
1/2-x,1/2-y,-z
1/2+x,1/2+y,-z
1/2-x,1/2+y,z
1/2+x,1/2-y,z
loop_
_atom_site_type_symbol
_atom_site_label
_atom_site_fract_x
_atom_site_fract_y
_atom_site_fract_z
Si Si1 0.582343 0.707109 0.168791
Si Si2 0.917869 0.704681 0.327753
Si Si3 0.168691 0.629317 0.173542
Si Si4 0.332087 0.377041 0.172330
Si Si5 0.079647 0.451887 0.174100
Si Si6 0.919394 0.050010 0.328538
O O1 0.500000 0.695248 0.189075
O O2 0.604573 0.748196 0.266584
O O3 0.626683 0.665888 0.226980
O O4 0.600410 0.717945 0.000000
O O5 0.904461 0.704090 0.500000
O O6 0.868432 0.669555 0.251375
O O7 0.000000 0.694694 0.288434
O O8 0.250574 0.628058 0.219881
O O9 0.133294 0.584684 0.233785
O O10 0.158637 0.634652 0.000000
O O11 0.363838 0.420041 0.244650
O O12 0.340371 0.382888 0.000000
O O13 0.103377 0.500000 0.230802
O O14 0.000000 0.441300 0.230940
O O15 0.080121 0.451763 0.000000
O O16 0.911289 0.058506 0.500000
O O17 0.000000 0.060950 0.278589
O O18 0.901292 0.000000 0.289849
#
# Coordination Sequence:
#
# PCOD8270685 Si02
#       6
#    16  16  16  16  16  16
#     4   9  18  34  54  73  97 131 169 210 258 310
#     4  10  21  36  54  76 100 129 171 218 257 300
#     4  10  20  33  51  76 106 138 168 204 257 314
#     4  10  21  34  51  79 109 136 170 214 261 309
#     4   8  14  26  46  71  96 125 165 207 242 285
#     4   9  19  36  56  77 103 139 181 219 257 306
#
# _framework density 18.289760999999999
#
# number of rings (size 3 to 8) (size 9 to 14) (size 15 to 20)
#    0.000    2.667    0.000    2.500    0.000    5.667 
#    0.000    7.500    0.000    0.500    0.000    2.333 
#    0.000    0.000    0.000    0.000    0.000    0.000 
#
# Total GULP energy -595222.727450 kJ/mol
# GULP energy per Si atom -12400.473489 kJ/mol
# Density = 1.824813 g / cm^3
# Si number density = 18.289761 Si / 1000 Ang^3
#
#
#
# Elastic Constant Matrix: (Units=GPa)
#
#
# Indices 1 2 3 4 5 6 
#
# 1 129.1297 104.0128 46.2784 0.0000 0.0000 0.0000
# 2 104.0128 160.5238 48.6915 0.0000 0.0000 0.0000
# 3 46.2784 48.6915 43.0805 0.0000 0.0000 0.0000
# 4 0.0000 0.0000 0.0000 22.1086 0.0000 0.0000
# 5 0.0000 0.0000 0.0000 0.0000 18.9768 0.0000
# 6 0.0000 0.0000 0.0000 0.0000 0.0000 9.2327
#
#
#
# Elastic Compliance Matrix: (Units=1/GPa)
#
#
# Indices 1 2 3 4 5 6 
#
# 1 0.018494 -0.009065 -0.009621 0.000000 0.000000 0.000000
# 2 -0.009065 0.013923 -0.005998 0.000000 0.000000 0.000000
# 3 -0.009621 -0.005998 0.040327 0.000000 0.000000 0.000000
# 4 0.000000 0.000000 0.000000 0.045231 0.000000 0.000000
# 5 0.000000 0.000000 0.000000 0.000000 0.052696 0.000000
# 6 0.000000 0.000000 0.000000 0.000000 0.000000 0.108310
#
#
# Mechanical properties :
#
#
# Convention : Reuss Voigt Hill
#
# Bulk Modulus (GPa) = 42.78043 81.18880 61.98462
# Shear Modulus (GPa) = 14.87465 18.98039 16.92752
#
# Velocity S-wave (km/s) = 2.85490 3.22492 3.04553
# Velocity P-wave (km/s) = 5.85734 7.63895 6.80668
#
# Compressibility (1/GPa) = 0.02337517
#
# Stress axis : x y z
#
# Youngs Moduli (GPa) = 54.07152 71.82477 24.79710
#
# Poissons Ratio (x) = 0.65109 0.23858
# Poissons Ratio (y) = 0.49016 0.14874
# Poissons Ratio (z) = 0.52023 0.43082
#
# Static dielectric constant tensor:
#      x y z
#    x 3.455620 0.000000 0.000000 
#    y 0.000000 3.573540 0.000000 
#    z 0.000000 0.000000 3.093390 
# 
# 
# High freq. dielectric constant tensor:
#      x y z
#    x 1.708090 0.000000 0.000000 
#    y 0.000000 1.722740 0.000000 
#    z 0.000000 0.000000 1.683060 
# 
# From -- ./inp_files/12324.got.cif
#   From: 2010.03.12/outbox.cif.g09.slc.cpg/sg65_7_cif.got.tgz:12324.got - 2010.04.10 20:52:16.
