data_PCOD8270034
_publ_section_title
;
Structure prediction by ZEFSAII (Michael W. Deem and Ramdas Pophale) SiO2 
 PCOD8270034
Probable space group: C M M M
;
_chemical_formula_sum "Si O2"
_cell_formula_units_Z 104
_cell_length_a 27.228301
_cell_length_b 9.004664
_cell_length_c 23.902235
_cell_angle_alpha 90.000000
_cell_angle_beta 90.000000
_cell_angle_gamma 90.000000
_cell_volume 5860.390654
_symmetry_space_group_name_H-M "C M M M"
_symmetry_group_IT_number 65
_symmetry_cell_setting 'orthorhombic'
loop_
_space_group_symop_operation_xyz
x,y,z
-x,-y,z
x,-y,-z
-x,y,-z
-x,-y,-z
x,y,-z
-x,y,z
x,-y,z
1/2+x,1/2+y,z
1/2-x,1/2-y,z
1/2+x,1/2-y,-z
1/2-x,1/2+y,-z
1/2-x,1/2-y,-z
1/2+x,1/2+y,-z
1/2-x,1/2+y,z
1/2+x,1/2-y,z
loop_
_atom_site_type_symbol
_atom_site_label
_atom_site_fract_x
_atom_site_fract_y
_atom_site_fract_z
Si Si1 0.700292 0.671616 0.278365
Si Si2 0.634602 0.171004 0.061142
Si Si3 0.856445 0.824244 0.169637
Si Si4 0.443670 0.324854 0.000000
Si Si5 0.056872 0.670992 0.563798
Si Si6 0.100581 0.174029 0.334447
Si Si7 0.943472 0.673391 0.230211
O O1 0.712181 0.500000 0.278573
O O2 0.750000 0.750000 0.296960
O O3 0.683120 0.721788 0.216462
O O4 0.657457 0.711822 0.322144
O O5 0.663020 0.255683 0.110916
O O6 0.581298 0.250812 0.054970
O O7 0.627466 0.000000 0.077747
O O8 0.661949 0.185378 0.000000
O O9 0.909486 0.756222 0.184958
O O10 0.861987 0.000000 0.165095
O O11 0.434502 0.500000 0.000000
O O12 0.500000 0.281603 0.000000
O O13 0.072211 0.702955 0.500000
O O14 0.066839 0.500000 0.579169
O O15 0.089552 0.776539 0.602532
O O16 0.000000 0.709754 0.572903
O O17 0.065414 0.261828 0.292104
O O18 0.090542 0.000000 0.326296
O O19 0.930287 0.500000 0.230698
O O20 0.000000 0.700415 0.213612
#
# Coordination Sequence:
#
# PCOD8270034 Si02
#       7
#    16  16  16   8  16  16  16
#     4   9  20  36  54  78 101 126 162 208 259 310
#     4   9  19  32  48  69  93 125 163 199 240 294
#     4  10  20  34  52  74 100 128 163 206 255 304
#     4   9  17  29  45  65  90 125 166 203 241 283
#     4   9  18  32  50  75 108 145 183 216 246 289
#     4  10  20  33  50  75 105 133 168 211 256 303
#     4  10  20  32  47  69  98 133 170 205 246 297
#
# _framework density 17.746257
#
# number of rings (size 3 to 8) (size 9 to 14) (size 15 to 20)
#    0.462    2.077    0.000    3.692    0.000    8.615 
#    0.000    0.769    0.000    0.923    0.000    0.000 
#    0.000    0.000    0.000    0.000    0.000    0.000 
#
# Total GULP energy -644586.967010 kJ/mol
# GULP energy per Si atom -12395.903212 kJ/mol
# Density = 1.770587 g / cm^3
# Si number density = 17.746257 Si / 1000 Ang^3
#
#
#
# Elastic Constant Matrix: (Units=GPa)
#
#
# Indices 1 2 3 4 5 6 
#
# 1 67.6492 34.6026 29.2935 0.0000 0.0000 0.0000
# 2 34.6026 86.7308 39.8170 0.0000 0.0000 0.0000
# 3 29.2935 39.8170 102.2581 0.0000 0.0000 0.0000
# 4 0.0000 0.0000 0.0000 35.4543 0.0000 0.0000
# 5 0.0000 0.0000 0.0000 0.0000 14.7556 0.0000
# 6 0.0000 0.0000 0.0000 0.0000 0.0000 25.5154
#
#
#
# Elastic Compliance Matrix: (Units=1/GPa)
#
#
# Indices 1 2 3 4 5 6 
#
# 1 0.019341 -0.006299 -0.003088 0.000000 0.000000 0.000000
# 2 -0.006299 0.016091 -0.004461 0.000000 0.000000 0.000000
# 3 -0.003088 -0.004461 0.012401 0.000000 0.000000 0.000000
# 4 0.000000 0.000000 0.000000 0.028205 0.000000 0.000000
# 5 0.000000 0.000000 0.000000 0.000000 0.067771 0.000000
# 6 0.000000 0.000000 0.000000 0.000000 0.000000 0.039192
#
#
# Mechanical properties :
#
#
# Convention : Reuss Voigt Hill
#
# Bulk Modulus (GPa) = 49.65928 51.56273 50.61100
# Shear Modulus (GPa) = 22.99809 25.34004 24.16906
#
# Velocity S-wave (km/s) = 3.60382 3.78287 3.69443
# Velocity P-wave (km/s) = 6.73501 6.94253 6.83956
#
# Compressibility (1/GPa) = 0.02013722
#
# Stress axis : x y z
#
# Youngs Moduli (GPa) = 51.70327 62.14676 80.63988
#
# Poissons Ratio (x) = 0.39145 0.24901
# Poissons Ratio (y) = 0.32567 0.35974
# Poissons Ratio (z) = 0.15966 0.27724
#
# Static dielectric constant tensor:
#      x y z
#    x 2.991370 0.000000 0.000000 
#    y 0.000000 3.304380 0.000000 
#    z 0.000000 0.000000 3.306100 
# 
# 
# High freq. dielectric constant tensor:
#      x y z
#    x 1.653660 0.000000 0.000000 
#    y 0.000000 1.698910 0.000000 
#    z 0.000000 0.000000 1.683380 
# 
# From -- ./inp_files/71858.got.cif
#   From: 2010.03.12/outbox.cif.g09.slc.cpg/sg65_36_cif.got.tgz:71858.got - 2010.04.10 20:52:16.
