data_PCOD8270841
_publ_section_title
;
Structure prediction by ZEFSAII (Michael W. Deem and Ramdas Pophale) SiO2 
 PCOD8270841
Probable space group: C M M M
;
_chemical_formula_sum "Si O2"
_cell_formula_units_Z 64
_cell_length_a 21.333725
_cell_length_b 8.768845
_cell_length_c 17.166353
_cell_angle_alpha 90.000000
_cell_angle_beta 90.000000
_cell_angle_gamma 90.000000
_cell_volume 3211.346182
_symmetry_space_group_name_H-M "C M M M"
_symmetry_group_IT_number 65
_symmetry_cell_setting 'orthorhombic'
loop_
_space_group_symop_operation_xyz
x,y,z
-x,-y,z
x,-y,-z
-x,y,-z
-x,-y,-z
x,y,-z
-x,y,z
x,-y,z
1/2+x,1/2+y,z
1/2-x,1/2-y,z
1/2+x,1/2-y,-z
1/2-x,1/2+y,-z
1/2-x,1/2-y,-z
1/2+x,1/2+y,-z
1/2-x,1/2+y,z
1/2+x,1/2-y,z
loop_
_atom_site_type_symbol
_atom_site_label
_atom_site_fract_x
_atom_site_fract_y
_atom_site_fract_z
Si Si1 0.070882 0.175464 0.408372
Si Si2 0.627510 0.320607 0.159003
Si Si3 0.684617 0.678957 0.000000
Si Si4 0.682323 0.179670 0.311573
Si Si5 0.000000 0.820798 0.910458
O O1 0.079508 0.194723 0.500000
O O2 0.125722 0.271235 0.368117
O O3 0.000000 0.229642 0.384662
O O4 0.079006 0.000000 0.383047
O O5 0.637672 0.500000 0.175126
O O6 0.663282 0.227499 0.224917
O O7 0.555490 0.274237 0.148173
O O8 0.652243 0.261522 0.076976
O O9 0.750000 0.750000 0.000000
O O10 0.685694 0.500000 0.000000
O O11 0.750000 0.250000 0.335326
O O12 0.690123 0.000000 0.316626
O O13 0.000000 0.000000 0.925692
O O14 0.000000 0.749729 0.000000
#
# Coordination Sequence:
#
# PCOD8270841 Si02
#       5
#    16  16   8  16   8
#     4   9  20  42  71  99 126 159 199 242 295 362
#     4  10  20  36  58  85 116 154 200 250 302 359
#     4  10  20  33  53  77 107 148 199 249 300 357
#     4  12  26  42  61  89 126 165 207 253 303 360
#     4   9  16  32  59  87 112 147 198 249 301 366
#
# _framework density 19.929337
#
# number of rings (size 3 to 8) (size 9 to 14) (size 15 to 20)
#    0.000    1.875    1.250    3.750    1.750    4.500 
#    0.000    1.250    0.000    0.750    0.000    0.000 
#    0.000    0.000    0.000    0.000    0.000    0.000 
#
# Total GULP energy -396445.324563 kJ/mol
# GULP energy per Si atom -12388.916393 kJ/mol
# Density = 1.988398 g / cm^3
# Si number density = 19.929337 Si / 1000 Ang^3
#
#
#
# Elastic Constant Matrix: (Units=GPa)
#
#
# Indices 1 2 3 4 5 6 
#
# 1 180.7554 62.1526 56.8904 0.0000 0.0000 0.0000
# 2 62.1526 88.0228 42.9381 0.0000 0.0000 0.0000
# 3 56.8904 42.9381 87.3578 0.0000 0.0000 0.0000
# 4 0.0000 0.0000 0.0000 22.4790 0.0000 0.0000
# 5 0.0000 0.0000 0.0000 0.0000-1277.4417 0.0000
# 6 0.0000 0.0000 0.0000 0.0000 0.0000 29.0090
#
#
#
# Elastic Compliance Matrix: (Units=1/GPa)
#
#
# Indices 1 2 3 4 5 6 
#
# 1 0.007922 -0.004047 -0.003169 0.000000 0.000000 0.000000
# 2 -0.004047 0.017012 -0.005726 0.000000 0.000000 0.000000
# 3 -0.003169 -0.005726 0.016326 0.000000 0.000000 0.000000
# 4 0.000000 0.000000 0.000000 0.044486 0.000000 0.000000
# 5 0.000000 0.000000 0.000000 0.000000 -0.000783 0.000000
# 6 0.000000 0.000000 0.000000 0.000000 0.000000 0.034472
#
#
# Mechanical properties :
#
#
# Convention : Reuss Voigt Hill
#
# Bulk Modulus (GPa) = 65.04658 75.56647 70.30652
# Shear Modulus (GPa) = 33.23509 -232.24707 -99.50599
#
# Velocity S-wave (km/s) = 4.08811 -10.80686 -7.07374
# Velocity P-wave (km/s) = 7.41573 10.84980 5.60023
#
# Compressibility (1/GPa) = 0.01537360
#
# Stress axis : x y z
#
# Youngs Moduli (GPa) = 126.23803 58.78365 61.25369
#
# Poissons Ratio (x) = 0.23791 0.19414
# Poissons Ratio (y) = 0.51092 0.35072
# Poissons Ratio (z) = 0.40011 0.33658
#
# Static dielectric constant tensor:
#      x y z
#    x 4.459130 0.000000 0.000000 
#    y 0.000000 3.337930 0.000000 
#    z 0.000000 0.000000 3.726770 
# 
# 
# High freq. dielectric constant tensor:
#      x y z
#    x 1.802400 0.000000 0.000000 
#    y 0.000000 1.746200 0.000000 
#    z 0.000000 0.000000 1.783750 
# 
# From -- ./inp_files/55295.got.cif
#   From: 2010.03.12/outbox.cif.g09.slc.cpg/sg65_28_cif.got.tgz:55295.got - 2010.04.10 20:52:16.
