data_PCOD8270719
_publ_section_title
;
Structure prediction by ZEFSAII (Michael W. Deem and Ramdas Pophale) SiO2 
 PCOD8270719
Probable space group: C M M M
;
_chemical_formula_sum "Si O2"
_cell_formula_units_Z 112
_cell_length_a 13.083133
_cell_length_b 23.597674
_cell_length_c 17.585580
_cell_angle_alpha 90.000000
_cell_angle_beta 90.000000
_cell_angle_gamma 90.000000
_cell_volume 5429.222622
_symmetry_space_group_name_H-M "C M M M"
_symmetry_group_IT_number 65
_symmetry_cell_setting 'orthorhombic'
loop_
_space_group_symop_operation_xyz
x,y,z
-x,-y,z
x,-y,-z
-x,y,-z
-x,-y,-z
x,y,-z
-x,y,z
x,-y,z
1/2+x,1/2+y,z
1/2-x,1/2-y,z
1/2+x,1/2-y,-z
1/2-x,1/2+y,-z
1/2-x,1/2-y,-z
1/2+x,1/2+y,-z
1/2-x,1/2+y,z
1/2+x,1/2-y,z
loop_
_atom_site_type_symbol
_atom_site_label
_atom_site_fract_x
_atom_site_fract_y
_atom_site_fract_z
Si Si1 0.304202 0.937195 0.836904
Si Si2 0.880922 0.671381 0.915999
Si Si3 0.383237 0.718160 0.341452
Si Si4 0.121418 0.779366 0.168944
Si Si5 0.692536 0.169975 0.411743
Si Si6 0.118481 0.564289 0.673344
Si Si7 0.383003 0.606844 0.089441
O O1 0.366776 0.891624 0.884670
O O2 0.313907 0.923394 0.747862
O O3 0.185515 0.937091 0.863030
O O4 0.349270 0.000000 0.852749
O O5 0.830670 0.719873 0.861753
O O6 0.000000 0.684353 0.921642
O O7 0.831599 0.674982 0.000000
O O8 0.500000 0.698531 0.351441
O O9 0.343282 0.710539 0.255226
O O10 0.372552 0.784016 0.364617
O O11 0.312920 0.678249 0.394053
O O12 0.156371 0.830639 0.113769
O O13 0.000000 0.774909 0.167563
O O14 0.672290 0.180345 0.500000
O O15 0.656057 0.106846 0.391707
O O16 0.135109 0.500000 0.643967
O O17 0.000000 0.575005 0.693383
O O18 0.500000 0.596636 0.112994
O O19 0.367162 0.598469 0.000000
#
# Coordination Sequence:
#
# PCOD8270719 Si02
#       7
#    16  16  16  16  16  16  16
#     4  11  23  38  55  77 107 143 187 231 272 331
#     4  10  20  33  51  77 109 143 180 229 287 335
#     4  10  20  35  57  85 120 160 195 229 278 341
#     4   9  18  34  56  80 107 142 186 232 275 323
#     4  11  23  37  57  88 121 150 186 233 284 343
#     4  10  22  41  64  86 109 143 186 233 287 343
#     4  10  21  37  57  81 111 148 191 240 287 325
#
# _framework density 20.629104000000002
#
# number of rings (size 3 to 8) (size 9 to 14) (size 15 to 20)
#    0.000    1.857    0.000    4.286    0.000    9.143 
#    0.000    3.571    0.000    1.286    0.000    1.000 
#    0.000    0.000    0.000    0.000    0.000    0.000 
#
# Total GULP energy -694505.472146 kJ/mol
# GULP energy per Si atom -12401.883431 kJ/mol
# Density = 2.058215 g / cm^3
# Si number density = 20.629104 Si / 1000 Ang^3
#
#
#
# Elastic Constant Matrix: (Units=GPa)
#
#
# Indices 1 2 3 4 5 6 
#
# 1 62.7889 15.2338 12.8970 0.0000 0.0000 0.0000
# 2 15.2338 101.1862 38.5607 0.0000 0.0000 0.0000
# 3 12.8970 38.5607 101.7639 0.0000 0.0000 0.0000
# 4 0.0000 0.0000 0.0000 28.3985 0.0000 0.0000
# 5 0.0000 0.0000 0.0000 0.0000 25.1793 0.0000
# 6 0.0000 0.0000 0.0000 0.0000 0.0000 30.8820
#
#
#
# Elastic Compliance Matrix: (Units=1/GPa)
#
#
# Indices 1 2 3 4 5 6 
#
# 1 0.016690 -0.001995 -0.001359 0.000000 0.000000 0.000000
# 2 -0.001995 0.011789 -0.004214 0.000000 0.000000 0.000000
# 3 -0.001359 -0.004214 0.011596 0.000000 0.000000 0.000000
# 4 0.000000 0.000000 0.000000 0.035213 0.000000 0.000000
# 5 0.000000 0.000000 0.000000 0.000000 0.039715 0.000000
# 6 0.000000 0.000000 0.000000 0.000000 0.000000 0.032381
#
#
# Mechanical properties :
#
#
# Convention : Reuss Voigt Hill
#
# Bulk Modulus (GPa) = 40.09969 44.34688 42.22329
# Shear Modulus (GPa) = 29.26830 30.16181 29.71506
#
# Velocity S-wave (km/s) = 3.77076 3.82789 3.79943
# Velocity P-wave (km/s) = 6.19991 6.40944 6.30554
#
# Compressibility (1/GPa) = 0.02493785
#
# Stress axis : x y z
#
# Youngs Moduli (GPa) = 59.91785 84.82402 86.23764
#
# Poissons Ratio (x) = 0.16919 0.11722
# Poissons Ratio (y) = 0.11951 0.36344
# Poissons Ratio (z) = 0.08145 0.35748
#
# Static dielectric constant tensor:
#      x y z
#    x 3.847410 0.000000 0.000000 
#    y 0.000000 3.723970 0.000000 
#    z 0.000000 0.000000 3.714840 
# 
# 
# High freq. dielectric constant tensor:
#      x y z
#    x 1.819680 0.000000 0.000000 
#    y 0.000000 1.799490 0.000000 
#    z 0.000000 0.000000 1.801740 
# 
# From -- ./inp_files/40860.got.cif
#   From: 2010.03.12/outbox.cif.g09.slc.cpg/sg65_21_cif.got.tgz:40860.got - 2010.04.10 20:52:16.
