data_PCOD8270112
_publ_section_title
;
Structure prediction by ZEFSAII (Michael W. Deem and Ramdas Pophale) SiO2 
 PCOD8270112
Probable space group: C M M M
;
_chemical_formula_sum "Si O2"
_cell_formula_units_Z 80
_cell_length_a 18.676945
_cell_length_b 9.367906
_cell_length_c 25.698260
_cell_angle_alpha 90.000000
_cell_angle_beta 90.000000
_cell_angle_gamma 90.000000
_cell_volume 4496.266897
_symmetry_space_group_name_H-M "C M M M"
_symmetry_group_IT_number 65
_symmetry_cell_setting 'orthorhombic'
loop_
_space_group_symop_operation_xyz
x,y,z
-x,-y,z
x,-y,-z
-x,y,-z
-x,-y,-z
x,y,-z
-x,y,z
x,-y,z
1/2+x,1/2+y,z
1/2-x,1/2-y,z
1/2+x,1/2-y,-z
1/2-x,1/2+y,-z
1/2-x,1/2-y,-z
1/2+x,1/2+y,-z
1/2-x,1/2+y,z
1/2+x,1/2-y,z
loop_
_atom_site_type_symbol
_atom_site_label
_atom_site_fract_x
_atom_site_fract_y
_atom_site_fract_z
Si Si1 0.914847 0.160104 0.556863
Si Si2 0.585091 0.839265 0.234115
Si Si3 0.678840 0.834211 0.060951
Si Si4 0.085062 0.162833 0.863198
Si Si5 0.585149 0.840058 0.651295
O O1 0.892167 0.222543 0.500000
O O2 0.880383 0.248386 0.604508
O O3 0.000000 0.161818 0.561077
O O4 0.885828 0.000000 0.562132
O O5 0.500000 0.842467 0.232129
O O6 0.614746 0.730302 0.190755
O O7 0.610028 0.785403 0.291487
O O8 0.613874 0.000000 0.223397
O O9 0.750000 0.750000 0.077667
O O10 0.612752 0.758720 0.089363
O O11 0.685388 0.000000 0.077343
O O12 0.664243 0.819314 0.000000
O O13 0.000000 0.167842 0.865280
O O14 0.112783 0.000000 0.867534
O O15 0.500000 0.834172 0.648169
O O16 0.612775 0.000000 0.643297
#
# Coordination Sequence:
#
# PCOD8270112 Si02
#       5
#    16  16  16  16  16
#     4   8  13  19  25  35  54  82 118 161 207 253
#     4   8  14  25  39  55  78 107 139 177 221 267
#     4  10  21  37  56  75  96 124 156 189 227 273
#     4  10  20  32  48  72  99 125 155 192 231 271
#     4   8  13  20  30  44  62  88 124 166 211 256
#
# _framework density 17.792538
#
# number of rings (size 3 to 8) (size 9 to 14) (size 15 to 20)
#    0.000    3.200    0.000    3.000    0.000    4.000 
#    0.000    8.000    0.000    0.000    0.000    0.000 
#    0.000    0.000    0.000    0.000    0.000    1.000 
#
# Total GULP energy -495662.887217 kJ/mol
# GULP energy per Si atom -12391.572180 kJ/mol
# Density = 1.775204 g / cm^3
# Si number density = 17.792538 Si / 1000 Ang^3
#
#
#
# Elastic Constant Matrix: (Units=GPa)
#
#
# Indices 1 2 3 4 5 6 
#
# 1 13.2516 20.7455 22.3270 0.0000 0.0000 0.0000
# 2 20.7455 126.3762 76.9753 0.0000 0.0000 0.0000
# 3 22.3270 76.9753 120.5082 0.0000 0.0000 0.0000
# 4 0.0000 0.0000 0.0000 38.3642 0.0000 0.0000
# 5 0.0000 0.0000 0.0000 0.0000 1.2217 0.0000
# 6 0.0000 0.0000 0.0000 0.0000 0.0000 16.2099
#
#
#
# Elastic Compliance Matrix: (Units=1/GPa)
#
#
# Indices 1 2 3 4 5 6 
#
# 1 0.116680 -0.009799 -0.015359 0.000000 0.000000 0.000000
# 2 -0.009799 0.013775 -0.006983 0.000000 0.000000 0.000000
# 3 -0.015359 -0.006983 0.015604 0.000000 0.000000 0.000000
# 4 0.000000 0.000000 0.000000 0.026066 0.000000 0.000000
# 5 0.000000 0.000000 0.000000 0.000000 0.818534 0.000000
# 6 0.000000 0.000000 0.000000 0.000000 0.000000 0.061691
#
#
# Mechanical properties :
#
#
# Convention : Reuss Voigt Hill
#
# Bulk Modulus (GPa) = 12.22832 55.58129 33.90481
# Shear Modulus (GPa) = 4.37105 20.49836 12.43470
#
# Velocity S-wave (km/s) = 1.56908 3.39791 2.64649
# Velocity P-wave (km/s) = 3.18909 6.83379 5.33250
#
# Compressibility (1/GPa) = 0.08177736
#
# Stress axis : x y z
#
# Youngs Moduli (GPa) = 8.57048 72.59531 64.08446
#
# Poissons Ratio (x) = 0.71135 0.98425
# Poissons Ratio (y) = 0.08398 0.44753
# Poissons Ratio (z) = 0.13163 0.50696
#
# Static dielectric constant tensor:
#      x y z
#    x 2.576930 0.000000 0.000000 
#    y 0.000000 3.546590 0.000000 
#    z 0.000000 0.000000 3.732890 
# 
# 
# High freq. dielectric constant tensor:
#      x y z
#    x 1.608110 0.000000 0.000000 
#    y 0.000000 1.692960 0.000000 
#    z 0.000000 0.000000 1.706910 
# 
# From -- ./inp_files/72778.got.cif
#   From: 2010.03.12/outbox.cif.g09.slc.cpg/sg65_37_cif.got.tgz:72778.got - 2010.04.10 20:52:16.
