data_PCOD8270228
_publ_section_title
;
Structure prediction by ZEFSAII (Michael W. Deem and Ramdas Pophale) SiO2 
 PCOD8270228
Probable space group: C M M M
;
_chemical_formula_sum "Si O2"
_cell_formula_units_Z 72
_cell_length_a 15.113774
_cell_length_b 29.327148
_cell_length_c 9.243156
_cell_angle_alpha 90.000000
_cell_angle_beta 90.000000
_cell_angle_gamma 90.000000
_cell_volume 4096.972393
_symmetry_space_group_name_H-M "C M M M"
_symmetry_group_IT_number 65
_symmetry_cell_setting 'orthorhombic'
loop_
_space_group_symop_operation_xyz
x,y,z
-x,-y,z
x,-y,-z
-x,y,-z
-x,-y,-z
x,y,-z
-x,y,z
x,-y,z
1/2+x,1/2+y,z
1/2-x,1/2-y,z
1/2+x,1/2-y,-z
1/2-x,1/2+y,-z
1/2-x,1/2-y,-z
1/2+x,1/2+y,-z
1/2-x,1/2+y,z
1/2+x,1/2-y,z
loop_
_atom_site_type_symbol
_atom_site_label
_atom_site_fract_x
_atom_site_fract_y
_atom_site_fract_z
Si Si1 0.000000 0.946188 0.659892
Si Si2 0.900045 0.293688 0.832181
Si Si3 0.102083 0.797961 0.330576
Si Si4 0.329713 0.449246 0.166086
Si Si5 0.741428 0.643761 0.166284
O O1 0.087091 0.930706 0.743973
O O2 0.000000 0.923509 0.500000
O O3 0.000000 0.000000 0.646874
O O4 0.871190 0.250095 0.740016
O O5 0.836111 0.335471 0.789193
O O6 0.000000 0.308956 0.794817
O O7 0.890697 0.280497 0.000000
O O8 0.119873 0.794153 0.500000
O O9 0.163099 0.836970 0.264519
O O10 0.000000 0.810101 0.296580
O O11 0.297706 0.500000 0.216405
O O12 0.253091 0.411305 0.188635
O O13 0.359794 0.451495 0.000000
O O14 0.719224 0.655628 0.000000
#
# Coordination Sequence:
#
# PCOD8270228 Si02
#       5
#     8  16  16  16  16
#     4   9  17  29  45  65  91 123 157 193 233 277
#     4   9  18  34  53  71  94 125 161 200 240 284
#     4  10  21  34  48  71 102 130 156 192 239 288
#     4   9  18  32  48  67  94 127 161 196 234 279
#     4  10  20  32  50  73  95 126 165 199 235 283
#
# _framework density 17.573951999999998
#
# number of rings (size 3 to 8) (size 9 to 14) (size 15 to 20)
#    0.000    2.556    0.000    1.667    1.556    7.111 
#    0.000    0.000    0.000    0.667    0.000    4.667 
#    0.000    0.000    0.000   13.111    0.000   13.778 
#
# Total GULP energy -446297.136309 kJ/mol
# GULP energy per Si atom -12397.142675 kJ/mol
# Density = 1.753395 g / cm^3
# Si number density = 17.573952 Si / 1000 Ang^3
#
#
#
# Elastic Constant Matrix: (Units=GPa)
#
#
# Indices 1 2 3 4 5 6 
#
# 1 75.3341 64.6108 32.0273 0.0000 0.0000 0.0000
# 2 64.6108 122.6866 39.3343 0.0000 0.0000 0.0000
# 3 32.0273 39.3343 64.1636 0.0000 0.0000 0.0000
# 4 0.0000 0.0000 0.0000 9.1522 0.0000 0.0000
# 5 0.0000 0.0000 0.0000 0.0000 17.2390 0.0000
# 6 0.0000 0.0000 0.0000 0.0000 0.0000 26.7650
#
#
#
# Elastic Compliance Matrix: (Units=1/GPa)
#
#
# Indices 1 2 3 4 5 6 
#
# 1 0.025756 -0.011752 -0.005652 0.000000 0.000000 0.000000
# 2 -0.011752 0.015507 -0.003640 0.000000 0.000000 0.000000
# 3 -0.005652 -0.003640 0.020638 0.000000 0.000000 0.000000
# 4 0.000000 0.000000 0.000000 0.109263 0.000000 0.000000
# 5 0.000000 0.000000 0.000000 0.000000 0.058008 0.000000
# 6 0.000000 0.000000 0.000000 0.000000 0.000000 0.037362
#
#
# Mechanical properties :
#
#
# Convention : Reuss Voigt Hill
#
# Bulk Modulus (GPa) = 50.47243 59.34768 54.91005
# Shear Modulus (GPa) = 15.86159 19.04536 17.45347
#
# Velocity S-wave (km/s) = 3.00753 3.29557 3.15484
# Velocity P-wave (km/s) = 6.39083 6.95159 6.67710
#
# Compressibility (1/GPa) = 0.01981280
#
# Stress axis : x y z
#
# Youngs Moduli (GPa) = 38.82555 64.48725 48.45471
#
# Poissons Ratio (x) = 0.75786 0.27386
# Poissons Ratio (y) = 0.45628 0.17638
# Poissons Ratio (z) = 0.21944 0.23475
#
# Static dielectric constant tensor:
#      x y z
#    x 3.197490 0.000000 0.000000 
#    y 0.000000 3.334880 0.000000 
#    z 0.000000 0.000000 3.377370 
# 
# 
# High freq. dielectric constant tensor:
#      x y z
#    x 1.654580 0.000000 0.000000 
#    y 0.000000 1.678010 0.000000 
#    z 0.000000 0.000000 1.680220 
# 
# From -- ./inp_files/7228.got.cif
#   From: 2010.03.12/outbox.cif.g09.slc.cpg/sg65_4_cif.got.tgz:7228.got - 2010.04.10 20:52:16.
