data_PCOD8270488
_publ_section_title
;
Structure prediction by ZEFSAII (Michael W. Deem and Ramdas Pophale) SiO2 
 PCOD8270488
Probable space group: C M M M
;
_chemical_formula_sum "Si O2"
_cell_formula_units_Z 88
_cell_length_a 18.099606
_cell_length_b 9.157409
_cell_length_c 28.619392
_cell_angle_alpha 90.000000
_cell_angle_beta 90.000000
_cell_angle_gamma 90.000000
_cell_volume 4743.535290
_symmetry_space_group_name_H-M "C M M M"
_symmetry_group_IT_number 65
_symmetry_cell_setting 'orthorhombic'
loop_
_space_group_symop_operation_xyz
x,y,z
-x,-y,z
x,-y,-z
-x,y,-z
-x,-y,-z
x,y,-z
-x,y,z
x,-y,z
1/2+x,1/2+y,z
1/2-x,1/2-y,z
1/2+x,1/2-y,-z
1/2-x,1/2+y,-z
1/2-x,1/2-y,-z
1/2+x,1/2+y,-z
1/2-x,1/2+y,z
1/2+x,1/2-y,z
loop_
_atom_site_type_symbol
_atom_site_label
_atom_site_fract_x
_atom_site_fract_y
_atom_site_fract_z
Si Si1 0.912166 0.335797 0.808993
Si Si2 0.088324 0.836671 0.000000
Si Si3 0.912176 0.834362 0.280162
Si Si4 0.917526 0.326792 0.551642
Si Si5 0.327814 0.174290 0.640073
Si Si6 0.087798 0.335871 0.088206
O O1 0.882671 0.500000 0.799302
O O2 0.881969 0.225637 0.769550
O O3 0.885561 0.281378 0.860409
O O4 0.000000 0.338292 0.807768
O O5 0.121104 0.762272 0.953251
O O6 0.000000 0.828730 0.000000
O O7 0.117906 0.000000 0.000000
O O8 0.883037 0.728037 0.320157
O O9 0.000000 0.829217 0.281923
O O10 0.883238 0.000000 0.286755
O O11 0.891721 0.273652 0.500000
O O12 0.920511 0.500000 0.553094
O O13 0.860298 0.270219 0.590414
O O14 0.000000 0.265902 0.562179
O O15 0.250000 0.250000 0.647920
O O16 0.320100 0.000000 0.642440
O O17 0.115669 0.500000 0.079890
O O18 0.000000 0.330314 0.086209
#
# Coordination Sequence:
#
# PCOD8270488 Si02
#       6
#    16   8  16  16  16  16
#     4   8  14  25  41  60  81 109 149 194 238 286
#     4   9  15  19  25  41  67 101 140 181 226 277
#     4  10  20  33  50  72  97 125 160 204 250 296
#     4   8  15  30  53  79 103 129 165 205 242 284
#     4  11  22  35  52  74 102 135 168 203 245 292
#     4   8  13  21  32  46  68 101 141 183 226 276
#
# _framework density 18.551565
#
# number of rings (size 3 to 8) (size 9 to 14) (size 15 to 20)
#    0.000    3.000    0.000    3.545    0.000    4.000 
#    0.000    3.636    0.000    1.636    0.000    6.364 
#    0.000    0.000    0.000    0.818    0.000   11.636 
#
# Total GULP energy -545293.589565 kJ/mol
# GULP energy per Si atom -12393.036126 kJ/mol
# Density = 1.850934 g / cm^3
# Si number density = 18.551565 Si / 1000 Ang^3
#
#
#
# Elastic Constant Matrix: (Units=GPa)
#
#
# Indices 1 2 3 4 5 6 
#
# 1 22.1823 19.9041 23.6975 0.0000 0.0000 0.0000
# 2 19.9041 94.4863 67.6107 0.0000 0.0000 0.0000
# 3 23.6975 67.6107 163.6745 0.0000 0.0000 0.0000
# 4 0.0000 0.0000 0.0000 15.8289 0.0000 0.0000
# 5 0.0000 0.0000 0.0000 0.0000 0.6244 0.0000
# 6 0.0000 0.0000 0.0000 0.0000 0.0000 14.0285
#
#
#
# Elastic Compliance Matrix: (Units=1/GPa)
#
#
# Indices 1 2 3 4 5 6 
#
# 1 0.058092 -0.008829 -0.004764 0.000000 0.000000 0.000000
# 2 -0.008829 0.016366 -0.005482 0.000000 0.000000 0.000000
# 3 -0.004764 -0.005482 0.009064 0.000000 0.000000 0.000000
# 4 0.000000 0.000000 0.000000 0.063176 0.000000 0.000000
# 5 0.000000 0.000000 0.000000 0.000000 1.601460 0.000000
# 6 0.000000 0.000000 0.000000 0.000000 0.000000 0.071283
#
#
# Mechanical properties :
#
#
# Convention : Reuss Voigt Hill
#
# Bulk Modulus (GPa) = 22.03959 55.86307 38.95133
# Shear Modulus (GPa) = 2.66992 17.37174 10.02083
#
# Velocity S-wave (km/s) = 1.20096 3.06339 2.32666
# Velocity P-wave (km/s) = 3.71874 6.53377 5.31598
#
# Compressibility (1/GPa) = 0.04537289
#
# Stress axis : x y z
#
# Youngs Moduli (GPa) = 17.21402 61.10120 110.32549
#
# Poissons Ratio (x) = 0.53943 0.52558
# Poissons Ratio (y) = 0.15197 0.60484
# Poissons Ratio (z) = 0.08201 0.33498
#
# Static dielectric constant tensor:
#      x y z
#    x 2.860910 0.000000 0.000000 
#    y 0.000000 3.383440 0.000000 
#    z 0.000000 0.000000 3.960230 
# 
# 
# High freq. dielectric constant tensor:
#      x y z
#    x 1.657700 0.000000 0.000000 
#    y 0.000000 1.704990 0.000000 
#    z 0.000000 0.000000 1.742660 
# 
# From -- ./inp_files/77883.got.cif
#   From: 2010.03.12/outbox.cif.g09.slc.cpg/sg65_39_cif.got.tgz:77883.got - 2010.04.10 20:52:16.
