data_PCOD8270360
_publ_section_title
;
Structure prediction by ZEFSAII (Michael W. Deem and Ramdas Pophale) SiO2 
 PCOD8270360
Probable space group: C M M M
;
_chemical_formula_sum "Si O2"
_cell_formula_units_Z 88
_cell_length_a 20.040082
_cell_length_b 9.307336
_cell_length_c 27.614981
_cell_angle_alpha 90.000000
_cell_angle_beta 90.000000
_cell_angle_gamma 90.000000
_cell_volume 5150.740088
_symmetry_space_group_name_H-M "C M M M"
_symmetry_group_IT_number 65
_symmetry_cell_setting 'orthorhombic'
loop_
_space_group_symop_operation_xyz
x,y,z
-x,-y,z
x,-y,-z
-x,y,-z
-x,-y,-z
x,y,-z
-x,y,z
x,-y,z
1/2+x,1/2+y,z
1/2-x,1/2-y,z
1/2+x,1/2-y,-z
1/2-x,1/2+y,-z
1/2-x,1/2-y,-z
1/2+x,1/2+y,-z
1/2-x,1/2+y,z
1/2+x,1/2-y,z
loop_
_atom_site_type_symbol
_atom_site_label
_atom_site_fract_x
_atom_site_fract_y
_atom_site_fract_z
Si Si1 0.426004 0.170597 0.446084
Si Si2 0.420229 0.160307 0.000000
Si Si3 0.577705 0.332048 0.197888
Si Si4 0.184326 0.332880 0.626711
Si Si5 0.920881 0.841364 0.089233
Si Si6 0.682703 0.831643 0.261248
O O1 0.403408 0.219246 0.500000
O O2 0.500000 0.231326 0.434881
O O3 0.375508 0.231055 0.405827
O O4 0.427825 0.000000 0.443271
O O5 0.391654 0.236073 0.951697
O O6 0.500000 0.162692 0.000000
O O7 0.392028 0.000000 0.000000
O O8 0.500000 0.298589 0.207005
O O9 0.592420 0.500000 0.207401
O O10 0.598626 0.289530 0.143061
O O11 0.620061 0.232282 0.233023
O O12 0.196364 0.500000 0.616557
O O13 0.250000 0.250000 0.610434
O O14 0.167172 0.304107 0.682530
O O15 0.000000 0.848246 0.085363
O O16 0.891494 0.000000 0.079531
O O17 0.750000 0.750000 0.245288
O O18 0.690958 0.000000 0.249598
#
# Coordination Sequence:
#
# PCOD8270360 Si02
#       6
#    16   8  16  16  16  16
#     4   8  14  26  45  68  93 121 153 188 225 268
#     4   9  15  21  33  57  88 119 150 187 228 267
#     4   9  18  32  49  70  96 124 156 196 239 283
#     4   9  18  31  47  68  92 118 151 191 232 274
#     4   8  14  25  40  58  84 119 153 184 224 275
#     4  10  20  33  49  68  93 125 159 197 239 284
#
# _framework density 17.084923
#
# number of rings (size 3 to 8) (size 9 to 14) (size 15 to 20)
#    0.000    3.182    0.000    2.455    0.000    4.000 
#    0.000    3.636    0.000    0.545    0.000    1.909 
#    0.000    0.000    0.000    0.000    0.000    0.000 
#
# Total GULP energy -545406.987901 kJ/mol
# GULP energy per Si atom -12395.613361 kJ/mol
# Density = 1.704604 g / cm^3
# Si number density = 17.084923 Si / 1000 Ang^3
#
#
#
# Elastic Constant Matrix: (Units=GPa)
#
#
# Indices 1 2 3 4 5 6 
#
# 1 87.4519 49.9884 71.1743 0.0000 0.0000 0.0000
# 2 49.9884 79.6671 57.7366 0.0000 0.0000 0.0000
# 3 71.1743 57.7366 113.1121 0.0000 0.0000 0.0000
# 4 0.0000 0.0000 0.0000 18.8815 0.0000 0.0000
# 5 0.0000 0.0000 0.0000 0.0000 4.8155 0.0000
# 6 0.0000 0.0000 0.0000 0.0000 0.0000 23.9850
#
#
#
# Elastic Compliance Matrix: (Units=1/GPa)
#
#
# Indices 1 2 3 4 5 6 
#
# 1 0.025674 -0.006986 -0.012589 0.000000 0.000000 0.000000
# 2 -0.006986 0.021823 -0.006743 0.000000 0.000000 0.000000
# 3 -0.012589 -0.006743 0.020204 0.000000 0.000000 0.000000
# 4 0.000000 0.000000 0.000000 0.052962 0.000000 0.000000
# 5 0.000000 0.000000 0.000000 0.000000 0.207661 0.000000
# 6 0.000000 0.000000 0.000000 0.000000 0.000000 0.041693
#
#
# Mechanical properties :
#
#
# Convention : Reuss Voigt Hill
#
# Bulk Modulus (GPa) = 66.38205 70.89217 68.63711
# Shear Modulus (GPa) = 11.69112 16.29186 13.99149
#
# Velocity S-wave (km/s) = 2.61874 3.09136 2.86481
# Velocity P-wave (km/s) = 6.93414 7.37062 7.15571
#
# Compressibility (1/GPa) = 0.01506431
#
# Stress axis : x y z
#
# Youngs Moduli (GPa) = 38.95006 45.82385 49.49427
#
# Poissons Ratio (x) = 0.32012 0.62309
# Poissons Ratio (y) = 0.27210 0.33376
# Poissons Ratio (z) = 0.49035 0.30901
#
# Static dielectric constant tensor:
#      x y z
#    x 3.020670 0.000000 0.000000 
#    y 0.000000 3.120800 0.000000 
#    z 0.000000 0.000000 3.389270 
# 
# 
# High freq. dielectric constant tensor:
#      x y z
#    x 1.627410 0.000000 0.000000 
#    y 0.000000 1.643400 0.000000 
#    z 0.000000 0.000000 1.667720 
# 
# From -- ./inp_files/70964.got.cif
#   From: 2010.03.12/outbox.cif.g09.slc.cpg/sg65_36_cif.got.tgz:70964.got - 2010.04.10 20:52:16.
