data_PCOD8270775
_publ_section_title
;
Structure prediction by ZEFSAII (Michael W. Deem and Ramdas Pophale) SiO2 
 PCOD8270775
Probable space group: C M M M
;
_chemical_formula_sum "Si O2"
_cell_formula_units_Z 96
_cell_length_a 27.117283
_cell_length_b 20.101844
_cell_length_c 9.321644
_cell_angle_alpha 90.000000
_cell_angle_beta 90.000000
_cell_angle_gamma 90.000000
_cell_volume 5081.297055
_symmetry_space_group_name_H-M "C M M M"
_symmetry_group_IT_number 65
_symmetry_cell_setting 'orthorhombic'
loop_
_space_group_symop_operation_xyz
x,y,z
-x,-y,z
x,-y,-z
-x,y,-z
-x,-y,-z
x,y,-z
-x,y,z
x,-y,z
1/2+x,1/2+y,z
1/2-x,1/2-y,z
1/2+x,1/2-y,-z
1/2-x,1/2+y,-z
1/2-x,1/2-y,-z
1/2+x,1/2+y,-z
1/2-x,1/2+y,z
1/2+x,1/2-y,z
loop_
_atom_site_type_symbol
_atom_site_label
_atom_site_fract_x
_atom_site_fract_y
_atom_site_fract_z
Si Si1 0.398038 0.307770 0.833160
Si Si2 0.737485 0.076361 0.666761
Si Si3 0.442986 0.576653 0.664903
Si Si4 0.284871 0.308766 0.166131
Si Si5 0.126327 0.426811 0.670445
Si Si6 0.056689 0.689066 0.334112
O O1 0.408506 0.380206 0.767932
O O2 0.341281 0.288086 0.807418
O O3 0.432727 0.255010 0.754912
O O4 0.411498 0.308873 0.000000
O O5 0.742775 0.093117 0.500000
O O6 0.774723 0.122732 0.752518
O O7 0.681740 0.090656 0.719966
O O8 0.751823 0.000000 0.697025
O O9 0.431195 0.594173 0.500000
O O10 0.500000 0.591984 0.698191
O O11 0.430812 0.500000 0.696293
O O12 0.250000 0.250000 0.226712
O O13 0.273636 0.321362 0.000000
O O14 0.124242 0.428909 0.500000
O O15 0.111367 0.500000 0.729850
O O16 0.088826 0.371648 0.730382
O O17 0.069932 0.702870 0.500000
O O18 0.000000 0.668841 0.316300
#
# Coordination Sequence:
#
# PCOD8270775 Si02
#       6
#    16  16  16  16  16  16
#     4  11  23  36  52  75 103 136 172 211 256 303
#     4   9  18  33  54  79 104 132 168 208 252 303
#     4   9  19  37  59  80 103 133 168 206 250 302
#     4  10  22  38  53  72 101 136 174 214 254 300
#     4   8  15  30  52  78 107 135 166 208 253 297
#     4  10  20  33  52  78 105 135 172 211 251 298
#
# _framework density 18.892814999999999
#
# number of rings (size 3 to 8) (size 9 to 14) (size 15 to 20)
#    0.000    2.500    0.000    3.500    0.000    6.000 
#    0.000    5.833    0.000    1.500    0.000    1.167 
#    0.000    0.000    0.000    0.000    0.000    0.000 
#
# Total GULP energy -595288.383649 kJ/mol
# GULP energy per Si atom -12401.841326 kJ/mol
# Density = 1.884981 g / cm^3
# Si number density = 18.892815 Si / 1000 Ang^3
#
#
#
# Elastic Constant Matrix: (Units=GPa)
#
#
# Indices 1 2 3 4 5 6 
#
# 1 53.1875 25.5504 27.8493 0.0000 0.0000 0.0000
# 2 25.5504 89.2262 37.4895 0.0000 0.0000 0.0000
# 3 27.8493 37.4895 59.5434 0.0000 0.0000 0.0000
# 4 0.0000 0.0000 0.0000 13.0036 0.0000 0.0000
# 5 0.0000 0.0000 0.0000 0.0000 25.6195 0.0000
# 6 0.0000 0.0000 0.0000 0.0000 0.0000 39.8094
#
#
#
# Elastic Compliance Matrix: (Units=1/GPa)
#
#
# Indices 1 2 3 4 5 6 
#
# 1 0.025521 -0.003118 -0.009974 0.000000 0.000000 0.000000
# 2 -0.003118 0.015620 -0.008376 0.000000 0.000000 0.000000
# 3 -0.009974 -0.008376 0.026733 0.000000 0.000000 0.000000
# 4 0.000000 0.000000 0.000000 0.076902 0.000000 0.000000
# 5 0.000000 0.000000 0.000000 0.000000 0.039033 0.000000
# 6 0.000000 0.000000 0.000000 0.000000 0.000000 0.025120
#
#
# Mechanical properties :
#
#
# Convention : Reuss Voigt Hill
#
# Bulk Modulus (GPa) = 40.09797 42.63727 41.36762
# Shear Modulus (GPa) = 19.21772 23.09103 21.15438
#
# Velocity S-wave (km/s) = 3.19281 3.49981 3.34983
# Velocity P-wave (km/s) = 5.90441 6.24087 6.07497
#
# Compressibility (1/GPa) = 0.02493892
#
# Stress axis : x y z
#
# Youngs Moduli (GPa) = 39.18282 64.02219 37.40673
#
# Poissons Ratio (x) = 0.19959 0.37309
# Poissons Ratio (y) = 0.12215 0.31333
# Poissons Ratio (z) = 0.39080 0.53626
#
# Static dielectric constant tensor:
#      x y z
#    x 3.448690 0.000000 0.000000 
#    y 0.000000 3.610570 0.000000 
#    z 0.000000 0.000000 3.202190 
# 
# 
# High freq. dielectric constant tensor:
#      x y z
#    x 1.735040 0.000000 0.000000 
#    y 0.000000 1.743000 0.000000 
#    z 0.000000 0.000000 1.708320 
# 
# From -- ./inp_files/16323.got.cif
#   From: 2010.03.12/outbox.cif.g09.slc.cpg/sg65_9_cif.got.tgz:16323.got - 2010.04.10 20:52:16.
