data_PCOD8270838
_publ_section_title
;
Structure prediction by ZEFSAII (Michael W. Deem and Ramdas Pophale) SiO2 
 PCOD8270838
Probable space group: C M M M
;
_chemical_formula_sum "Si O2"
_cell_formula_units_Z 88
_cell_length_a 7.923591
_cell_length_b 26.257863
_cell_length_c 23.451090
_cell_angle_alpha 90.000000
_cell_angle_beta 90.000000
_cell_angle_gamma 90.000000
_cell_volume 4879.153277
_symmetry_space_group_name_H-M "C M M M"
_symmetry_group_IT_number 65
_symmetry_cell_setting 'orthorhombic'
loop_
_space_group_symop_operation_xyz
x,y,z
-x,-y,z
x,-y,-z
-x,y,-z
-x,-y,-z
x,y,-z
-x,y,z
x,-y,z
1/2+x,1/2+y,z
1/2-x,1/2-y,z
1/2+x,1/2-y,-z
1/2-x,1/2+y,-z
1/2-x,1/2-y,-z
1/2+x,1/2+y,-z
1/2-x,1/2+y,z
1/2+x,1/2-y,z
loop_
_atom_site_type_symbol
_atom_site_label
_atom_site_fract_x
_atom_site_fract_y
_atom_site_fract_z
Si Si1 0.500000 0.625421 0.066622
Si Si2 0.500000 0.440316 0.828437
Si Si3 0.811319 0.696295 0.932630
Si Si4 0.307432 0.900145 0.371582
Si Si5 0.693755 0.939924 0.249351
Si Si6 0.807292 0.803797 0.437579
Si Si7 0.808128 0.000000 0.432682
O O1 0.500000 0.575669 0.105560
O O2 0.329846 0.655248 0.083780
O O3 0.500000 0.610277 0.000000
O O4 0.500000 0.500000 0.827759
O O5 0.672220 0.420824 0.797979
O O6 0.750000 0.750000 0.906367
O O7 0.000000 0.682125 0.909275
O O8 0.821814 0.701613 0.000000
O O9 0.500000 0.885051 0.372994
O O10 0.250837 0.911703 0.307128
O O11 0.213396 0.850777 0.394819
O O12 0.280596 0.949473 0.410308
O O13 0.500000 0.926525 0.231278
O O14 0.709503 0.000000 0.260454
O O15 0.717753 0.812786 0.500000
O O16 0.750000 0.750000 0.409778
O O17 0.000000 0.798323 0.450342
O O18 0.794277 0.000000 0.500000
O O19 0.000000 0.000000 0.411335
#
# Coordination Sequence:
#
# PCOD8270838 Si02
#       7
#     8   8  16  16  16  16   8
#     4  10  20  33  52  84 118 146 187 222 268 339
#     4  10  22  37  58  80 106 152 186 227 283 318
#     4   9  15  26  48  79 113 146 177 214 259 315
#     4  11  21  34  55  80 106 139 178 227 280 330
#     4   9  19  36  57  82 105 134 187 237 276 332
#     4  10  21  36  53  76 106 143 186 226 266 324
#     4  11  23  33  47  79 119 147 169 214 281 342
#
# _framework density 18.035916
#
# number of rings (size 3 to 8) (size 9 to 14) (size 15 to 20)
#    0.000    2.091    1.818    1.909    2.545    4.909 
#    0.000    0.000    0.000    1.091    0.000    5.091 
#    0.000    0.000    0.000    0.000    0.000    0.000 
#
# Total GULP energy -545292.663586 kJ/mol
# GULP energy per Si atom -12393.015081 kJ/mol
# Density = 1.799487 g / cm^3
# Si number density = 18.035916 Si / 1000 Ang^3
#
#
#
# Elastic Constant Matrix: (Units=GPa)
#
#
# Indices 1 2 3 4 5 6 
#
# 1 108.5594 22.9200 40.4985 0.0000 0.0000 0.0000
# 2 22.9200 80.2805 41.3422 0.0000 0.0000 0.0000
# 3 40.4985 41.3422 81.0179 0.0000 0.0000 0.0000
# 4 0.0000 0.0000 0.0000 25.7968 0.0000 0.0000
# 5 0.0000 0.0000 0.0000 0.0000 14.5597 0.0000
# 6 0.0000 0.0000 0.0000 0.0000 0.0000 25.3439
#
#
#
# Elastic Compliance Matrix: (Units=1/GPa)
#
#
# Indices 1 2 3 4 5 6 
#
# 1 0.011334 -0.000432 -0.005445 0.000000 0.000000 0.000000
# 2 -0.000432 0.016913 -0.008415 0.000000 0.000000 0.000000
# 3 -0.005445 -0.008415 0.019359 0.000000 0.000000 0.000000
# 4 0.000000 0.000000 0.000000 0.038764 0.000000 0.000000
# 5 0.000000 0.000000 0.000000 0.000000 0.068683 0.000000
# 6 0.000000 0.000000 0.000000 0.000000 0.000000 0.039457
#
#
# Mechanical properties :
#
#
# Convention : Reuss Voigt Hill
#
# Bulk Modulus (GPa) = 52.56924 53.26434 52.91679
# Shear Modulus (GPa) = 21.79273 24.14654 22.96963
#
# Velocity S-wave (km/s) = 3.47983 3.66294 3.57255
# Velocity P-wave (km/s) = 6.73467 6.89100 6.81329
#
# Compressibility (1/GPa) = 0.01902253
#
# Stress axis : x y z
#
# Youngs Moduli (GPa) = 88.22958 59.12664 51.65629
#
# Poissons Ratio (x) = 0.02552 0.28128
# Poissons Ratio (y) = 0.03809 0.43467
# Poissons Ratio (z) = 0.48044 0.49753
#
# Static dielectric constant tensor:
#      x y z
#    x 3.728650 0.000000 0.000000 
#    y 0.000000 3.306100 0.000000 
#    z 0.000000 0.000000 3.068640 
# 
# 
# High freq. dielectric constant tensor:
#      x y z
#    x 1.719350 0.000000 0.000000 
#    y 0.000000 1.684060 0.000000 
#    z 0.000000 0.000000 1.665990 
# 
# From -- ./inp_files/59902.got.cif
#   From: 2010.03.12/outbox.cif.g09.slc.cpg/sg65_30_cif.got.tgz:59902.got - 2010.04.10 20:52:16.
