data_PCOD8270714
_publ_section_title
;
Structure prediction by ZEFSAII (Michael W. Deem and Ramdas Pophale) SiO2 
 PCOD8270714
Probable space group: C M M M
;
_chemical_formula_sum "Si O2"
_cell_formula_units_Z 88
_cell_length_a 19.021790
_cell_length_b 30.026842
_cell_length_c 8.075804
_cell_angle_alpha 90.000000
_cell_angle_beta 90.000000
_cell_angle_gamma 90.000000
_cell_volume 4612.610800
_symmetry_space_group_name_H-M "C M M M"
_symmetry_group_IT_number 65
_symmetry_cell_setting 'orthorhombic'
loop_
_space_group_symop_operation_xyz
x,y,z
-x,-y,z
x,-y,-z
-x,y,-z
-x,-y,-z
x,y,-z
-x,y,z
x,-y,z
1/2+x,1/2+y,z
1/2-x,1/2-y,z
1/2+x,1/2-y,-z
1/2-x,1/2+y,-z
1/2-x,1/2-y,-z
1/2+x,1/2+y,-z
1/2-x,1/2+y,z
1/2+x,1/2-y,z
loop_
_atom_site_type_symbol
_atom_site_label
_atom_site_fract_x
_atom_site_fract_y
_atom_site_fract_z
Si Si1 0.578797 0.947283 0.000000
Si Si2 0.578866 0.756700 0.690187
Si Si3 0.173532 0.447830 0.308567
Si Si4 0.786047 0.294742 0.810419
Si Si5 0.789808 0.879396 0.313027
Si Si6 0.922315 0.838780 0.811542
O O1 0.616727 0.931636 0.828926
O O2 0.500000 0.927131 0.000000
O O3 0.575272 0.000000 0.000000
O O4 0.584897 0.770350 0.500000
O O5 0.500000 0.764014 0.758201
O O6 0.630080 0.788912 0.793126
O O7 0.599679 0.704714 0.707469
O O8 0.149795 0.436547 0.500000
O O9 0.187879 0.500000 0.290460
O O10 0.246215 0.423221 0.262406
O O11 0.750000 0.250000 0.739556
O O12 0.760503 0.336877 0.707824
O O13 0.764412 0.302617 0.000000
O O14 0.814461 0.882939 0.500000
O O15 0.862588 0.876398 0.210690
O O16 0.000000 0.856574 0.757840
O O17 0.924009 0.823241 0.000000
#
# Coordination Sequence:
#
# PCOD8270714 Si02
#       6
#     8  16  16  16  16  16
#     4   9  18  34  60  90 114 145 187 227 277 337
#     4  10  20  34  52  73 101 138 179 224 270 318
#     4   9  20  38  59  87 118 147 184 231 281 331
#     4  11  22  34  51  76 105 140 179 222 268 320
#     4  11  22  35  57  82 106 142 182 225 273 325
#     4  10  20  33  51  77 108 141 180 225 271 321
#
# _framework density 19.078133000000001
#
# number of rings (size 3 to 8) (size 9 to 14) (size 15 to 20)
#    0.000    1.909    1.818    2.182    2.545    3.273 
#    0.000    2.727    0.000    1.636    0.000    3.818 
#    0.000    0.000    0.000    0.000    0.000    0.000 
#
# Total GULP energy -545477.793901 kJ/mol
# GULP energy per Si atom -12397.222589 kJ/mol
# Density = 1.903471 g / cm^3
# Si number density = 19.078133 Si / 1000 Ang^3
#
#
#
# Elastic Constant Matrix: (Units=GPa)
#
#
# Indices 1 2 3 4 5 6 
#
# 1 146.5338 40.8375 41.7907 0.0000 0.0000 0.0000
# 2 40.8375 50.2288 19.5167 0.0000 0.0000 0.0000
# 3 41.7907 19.5167 70.5615 0.0000 0.0000 0.0000
# 4 0.0000 0.0000 0.0000 17.8518 0.0000 0.0000
# 5 0.0000 0.0000 0.0000 0.0000 30.7228 0.0000
# 6 0.0000 0.0000 0.0000 0.0000 0.0000 24.7136
#
#
#
# Elastic Compliance Matrix: (Units=1/GPa)
#
#
# Indices 1 2 3 4 5 6 
#
# 1 0.009741 -0.006362 -0.004009 0.000000 0.000000 0.000000
# 2 -0.006362 0.026461 -0.003551 0.000000 0.000000 0.000000
# 3 -0.004009 -0.003551 0.017529 0.000000 0.000000 0.000000
# 4 0.000000 0.000000 0.000000 0.056017 0.000000 0.000000
# 5 0.000000 0.000000 0.000000 0.000000 0.032549 0.000000
# 6 0.000000 0.000000 0.000000 0.000000 0.000000 0.040464
#
#
# Mechanical properties :
#
#
# Convention : Reuss Voigt Hill
#
# Bulk Modulus (GPa) = 38.63077 52.40155 45.51616
# Shear Modulus (GPa) = 22.80677 25.66958 24.23818
#
# Velocity S-wave (km/s) = 3.46127 3.67208 3.56823
# Velocity P-wave (km/s) = 6.02217 6.74577 6.39421
#
# Compressibility (1/GPa) = 0.02588610
#
# Stress axis : x y z
#
# Youngs Moduli (GPa) = 102.66128 37.79161 57.04861
#
# Poissons Ratio (x) = 0.24042 0.22874
# Poissons Ratio (y) = 0.65309 0.20259
# Poissons Ratio (z) = 0.41162 0.13420
#
# Static dielectric constant tensor:
#      x y z
#    x 3.701980 0.000000 0.000000 
#    y 0.000000 3.148740 0.000000 
#    z 0.000000 0.000000 3.553840 
# 
# 
# High freq. dielectric constant tensor:
#      x y z
#    x 1.749580 0.000000 0.000000 
#    y 0.000000 1.696850 0.000000 
#    z 0.000000 0.000000 1.752090 
# 
# From -- ./inp_files/10077.got.cif
#   From: 2010.03.12/outbox.cif.g09.slc.cpg/sg65_6_cif.got.tgz:10077.got - 2010.04.10 20:52:16.
