data_PCOD8270117
_publ_section_title
;
Structure prediction by ZEFSAII (Michael W. Deem and Ramdas Pophale) SiO2 
 PCOD8270117
Probable space group: C M M M
;
_chemical_formula_sum "Si O2"
_cell_formula_units_Z 72
_cell_length_a 8.158181
_cell_length_b 19.885739
_cell_length_c 24.590984
_cell_angle_alpha 90.000000
_cell_angle_beta 90.000000
_cell_angle_gamma 90.000000
_cell_volume 3989.431190
_symmetry_space_group_name_H-M "C M M M"
_symmetry_group_IT_number 65
_symmetry_cell_setting 'orthorhombic'
loop_
_space_group_symop_operation_xyz
x,y,z
-x,-y,z
x,-y,-z
-x,y,-z
-x,-y,-z
x,y,-z
-x,y,z
x,-y,z
1/2+x,1/2+y,z
1/2-x,1/2-y,z
1/2+x,1/2-y,-z
1/2-x,1/2+y,-z
1/2-x,1/2-y,-z
1/2+x,1/2+y,-z
1/2-x,1/2+y,z
1/2+x,1/2-y,z
loop_
_atom_site_type_symbol
_atom_site_label
_atom_site_fract_x
_atom_site_fract_y
_atom_site_fract_z
Si Si1 0.690271 0.575174 0.649087
Si Si2 0.185487 0.421000 0.761662
Si Si3 0.500000 0.080111 0.061802
Si Si4 0.692582 0.177677 0.562066
Si Si5 0.182125 0.919881 0.126428
O O1 0.500000 0.570686 0.660171
O O2 0.761983 0.500000 0.638779
O O3 0.768113 0.610061 0.702982
O O4 0.724578 0.619412 0.596538
O O5 0.214229 0.500000 0.755993
O O6 0.294886 0.393429 0.811593
O O7 0.000000 0.402964 0.776532
O O8 0.667876 0.108299 0.089547
O O9 0.500000 0.000000 0.065388
O O10 0.500000 0.105607 0.000000
O O11 0.751609 0.168441 0.500000
O O12 0.500000 0.171364 0.567682
O O13 0.750000 0.250000 0.584208
O O14 0.000000 0.896372 0.106052
O O15 0.191680 0.000000 0.125500
#
# Coordination Sequence:
#
# PCOD8270117 Si02
#       5
#    16  16   8  16  16
#     4  10  20  32  48  73 100 124 156 201 246 289
#     4   9  15  25  41  60  84 112 144 187 237 284
#     4   9  16  24  32  46  70 102 145 191 229 271
#     4  10  21  37  55  72  93 125 162 198 239 294
#     4   9  15  23  35  50  71 103 142 185 233 281
#
# _framework density 18.047687
#
# number of rings (size 3 to 8) (size 9 to 14) (size 15 to 20)
#    0.000    2.556    1.111    2.000    0.000    6.222 
#    0.000    4.444    0.000    0.000    0.000    0.000 
#    0.000    0.000    0.000    0.000    0.000    1.111 
#
# Total GULP energy -446173.275945 kJ/mol
# GULP energy per Si atom -12393.702110 kJ/mol
# Density = 1.800661 g / cm^3
# Si number density = 18.047687 Si / 1000 Ang^3
#
#
#
# Elastic Constant Matrix: (Units=GPa)
#
#
# Indices 1 2 3 4 5 6 
#
# 1 94.2589 13.9843 49.8079 0.0000 0.0000 0.0000
# 2 13.9843 38.1279 32.5778 0.0000 0.0000 0.0000
# 3 49.8079 32.5778 115.8143 0.0000 0.0000 0.0000
# 4 0.0000 0.0000 0.0000 0.8826 0.0000 0.0000
# 5 0.0000 0.0000 0.0000 0.0000 28.1662 0.0000
# 6 0.0000 0.0000 0.0000 0.0000 0.0000 14.8170
#
#
#
# Elastic Compliance Matrix: (Units=1/GPa)
#
#
# Indices 1 2 3 4 5 6 
#
# 1 0.013729 0.000012 -0.005908 0.000000 0.000000 0.000000
# 2 0.000012 0.034526 -0.009717 0.000000 0.000000 0.000000
# 3 -0.005908 -0.009717 0.013909 0.000000 0.000000 0.000000
# 4 0.000000 0.000000 0.000000 1.133074 0.000000 0.000000
# 5 0.000000 0.000000 0.000000 0.000000 0.035504 0.000000
# 6 0.000000 0.000000 0.000000 0.000000 0.000000 0.067490
#
#
# Mechanical properties :
#
#
# Convention : Reuss Voigt Hill
#
# Bulk Modulus (GPa) = 32.32259 48.99346 40.65802
# Shear Modulus (GPa) = 3.73199 18.89523 11.31361
#
# Velocity S-wave (km/s) = 1.43956 3.23919 2.50646
# Velocity P-wave (km/s) = 4.55099 6.41836 5.56358
#
# Compressibility (1/GPa) = 0.03093811
#
# Stress axis : x y z
#
# Youngs Moduli (GPa) = 72.83811 28.96400 71.89741
#
# Poissons Ratio (x) = -0.00036 0.42477
# Poissons Ratio (y) = -0.00091 0.69864
# Poissons Ratio (z) = 0.43032 0.28145
#
# Static dielectric constant tensor:
#      x y z
#    x 3.545600 0.000000 0.000000 
#    y 0.000000 2.705680 0.000000 
#    z 0.000000 0.000000 3.487900 
# 
# 
# High freq. dielectric constant tensor:
#      x y z
#    x 1.718450 0.000000 0.000000 
#    y 0.000000 1.614530 0.000000 
#    z 0.000000 0.000000 1.706070 
# 
# From -- ./inp_files/59234.got.cif
#   From: 2010.03.12/outbox.cif.g09.slc.cpg/sg65_30_cif.got.tgz:59234.got - 2010.04.10 20:52:16.
