data_PCOD8270097
_publ_section_title
;
Structure prediction by ZEFSAII (Michael W. Deem and Ramdas Pophale) SiO2 
 PCOD8270097
Probable space group: C M M M
;
_chemical_formula_sum "Si O2"
_cell_formula_units_Z 72
_cell_length_a 19.379671
_cell_length_b 9.009507
_cell_length_c 24.682861
_cell_angle_alpha 90.000000
_cell_angle_beta 90.000000
_cell_angle_gamma 90.000000
_cell_volume 4309.659162
_symmetry_space_group_name_H-M "C M M M"
_symmetry_group_IT_number 65
_symmetry_cell_setting 'orthorhombic'
loop_
_space_group_symop_operation_xyz
x,y,z
-x,-y,z
x,-y,-z
-x,y,-z
-x,-y,-z
x,y,-z
-x,y,z
x,-y,z
1/2+x,1/2+y,z
1/2-x,1/2-y,z
1/2+x,1/2-y,-z
1/2-x,1/2+y,-z
1/2-x,1/2-y,-z
1/2+x,1/2+y,-z
1/2-x,1/2+y,z
1/2+x,1/2-y,z
loop_
_atom_site_type_symbol
_atom_site_label
_atom_site_fract_x
_atom_site_fract_y
_atom_site_fract_z
Si Si1 0.320277 0.672883 0.563107
Si Si2 0.000000 0.175101 0.062564
Si Si3 0.923056 0.338243 0.146840
Si Si4 0.081207 0.671195 0.643751
Si Si5 0.417765 0.666001 0.752031
O O1 0.333210 0.702539 0.500000
O O2 0.315266 0.500000 0.576685
O O3 0.250000 0.750000 0.582755
O O4 0.384299 0.743993 0.594079
O O5 0.069237 0.244419 0.090577
O O6 0.000000 0.000000 0.071754
O O7 0.000000 0.219664 0.000000
O O8 0.887006 0.500000 0.136998
O O9 0.885449 0.244036 0.194051
O O10 0.000000 0.368604 0.169175
O O11 0.103150 0.500000 0.643242
O O12 0.106946 0.741531 0.700089
O O13 0.000000 0.691583 0.636625
O O14 0.500000 0.657452 0.755438
O O15 0.387129 0.500000 0.748376
#
# Coordination Sequence:
#
# PCOD8270097 Si02
#       5
#    16   8  16  16  16
#     4  10  21  37  55  72  92 120 153 187 228 280
#     4   9  15  21  29  43  65  97 140 183 218 257
#     4   8  14  21  31  45  66  96 131 172 215 259
#     4  10  20  32  48  71  97 121 150 189 230 273
#     4   9  15  24  39  57  80 107 138 176 219 264
#
# _framework density 16.706657
#
# number of rings (size 3 to 8) (size 9 to 14) (size 15 to 20)
#    0.667    2.111    0.000    2.667    0.000    6.667 
#    0.000    2.222    0.000    0.000    0.000    0.000 
#    0.000    0.000    0.000    0.000    0.000    1.111 
#
# Total GULP energy -446087.831789 kJ/mol
# GULP energy per Si atom -12391.328661 kJ/mol
# Density = 1.666863 g / cm^3
# Si number density = 16.706657 Si / 1000 Ang^3
#
#
#
# Elastic Constant Matrix: (Units=GPa)
#
#
# Indices 1 2 3 4 5 6 
#
# 1 19.5753 25.8811 28.8581 0.0000 0.0000 0.0000
# 2 25.8811 154.0995 78.5246 0.0000 0.0000 0.0000
# 3 28.8581 78.5246 118.6201 0.0000 0.0000 0.0000
# 4 0.0000 0.0000 0.0000 32.2395 0.0000 0.0000
# 5 0.0000 0.0000 0.0000 0.0000 1.2654 0.0000
# 6 0.0000 0.0000 0.0000 0.0000 0.0000 17.4177
#
#
#
# Elastic Compliance Matrix: (Units=1/GPa)
#
#
# Indices 1 2 3 4 5 6 
#
# 1 0.082612 -0.005483 -0.016468 0.000000 0.000000 0.000000
# 2 -0.005483 0.010157 -0.005390 0.000000 0.000000 0.000000
# 3 -0.016468 -0.005390 0.016005 0.000000 0.000000 0.000000
# 4 0.000000 0.000000 0.000000 0.031018 0.000000 0.000000
# 5 0.000000 0.000000 0.000000 0.000000 0.790293 0.000000
# 6 0.000000 0.000000 0.000000 0.000000 0.000000 0.057413
#
#
# Mechanical properties :
#
#
# Convention : Reuss Voigt Hill
#
# Bulk Modulus (GPa) = 18.48729 62.09139 40.28934
# Shear Modulus (GPa) = 4.71605 20.78658 12.75132
#
# Velocity S-wave (km/s) = 1.68196 3.53116 2.76569
# Velocity P-wave (km/s) = 3.85510 7.33974 5.86232
#
# Compressibility (1/GPa) = 0.05409121
#
# Stress axis : x y z
#
# Youngs Moduli (GPa) = 12.10480 98.45879 62.48225
#
# Poissons Ratio (x) = 0.53984 1.02898
# Poissons Ratio (y) = 0.06637 0.33675
# Poissons Ratio (z) = 0.19935 0.53065
#
# Static dielectric constant tensor:
#      x y z
#    x 2.501440 0.000000 0.000000 
#    y 0.000000 3.462120 0.000000 
#    z 0.000000 0.000000 3.120650 
# 
# 
# High freq. dielectric constant tensor:
#      x y z
#    x 1.561730 0.000000 0.000000 
#    y 0.000000 1.671840 0.000000 
#    z 0.000000 0.000000 1.646260 
# 
# From -- ./inp_files/74998.got.cif
#   From: 2010.03.12/outbox.cif.g09.slc.cpg/sg65_38_cif.got.tgz:74998.got - 2010.04.10 20:52:16.
