data_PCOD8270836
_publ_section_title
;
Structure prediction by ZEFSAII (Michael W. Deem and Ramdas Pophale) SiO2 
 PCOD8270836
Probable space group: C M M M
;
_chemical_formula_sum "Si O2"
_cell_formula_units_Z 104
_cell_length_a 13.414278
_cell_length_b 18.390015
_cell_length_c 21.645922
_cell_angle_alpha 90.000000
_cell_angle_beta 90.000000
_cell_angle_gamma 90.000000
_cell_volume 5339.805952
_symmetry_space_group_name_H-M "C M M M"
_symmetry_group_IT_number 65
_symmetry_cell_setting 'orthorhombic'
loop_
_space_group_symop_operation_xyz
x,y,z
-x,-y,z
x,-y,-z
-x,y,-z
-x,-y,-z
x,y,-z
-x,y,z
x,-y,z
1/2+x,1/2+y,z
1/2-x,1/2-y,z
1/2+x,1/2-y,-z
1/2-x,1/2+y,-z
1/2-x,1/2-y,-z
1/2+x,1/2+y,-z
1/2-x,1/2+y,z
1/2+x,1/2-y,z
loop_
_atom_site_type_symbol
_atom_site_label
_atom_site_fract_x
_atom_site_fract_y
_atom_site_fract_z
Si Si1 0.385888 0.500000 0.572580
Si Si2 0.720648 0.421620 0.929207
Si Si3 0.886462 0.585537 0.722414
Si Si4 0.240763 0.136387 0.383316
Si Si5 0.112905 0.741018 0.569779
Si Si6 0.383456 0.721869 0.069912
Si Si7 0.613777 0.861430 0.857704
O O1 0.500000 0.500000 0.600053
O O2 0.395293 0.500000 0.500000
O O3 0.322323 0.568835 0.593244
O O4 0.667036 0.500000 0.919920
O O5 0.649739 0.357162 0.905634
O O6 0.822204 0.424029 0.889935
O O7 0.749849 0.409457 0.000000
O O8 0.868334 0.500000 0.734617
O O9 0.798505 0.616560 0.679420
O O10 0.874955 0.632591 0.784330
O O11 0.000000 0.596506 0.696186
O O12 0.161286 0.203199 0.380370
O O13 0.328061 0.164067 0.429588
O O14 0.118761 0.773167 0.500000
O O15 0.000000 0.726895 0.590025
O O16 0.500000 0.721028 0.072019
O O17 0.343139 0.784435 0.115954
O O18 0.345563 0.737694 0.000000
O O19 0.500000 0.872449 0.878010
#
# Coordination Sequence:
#
# PCOD8270836 Si02
#       7
#     8  16  16  16  16  16  16
#     4  11  22  36  61  97 127 153 193 242 294 352
#     4  10  20  33  52  82 117 150 185 231 291 351
#     4  10  21  38  58  81 113 153 196 240 289 354
#     4  11  20  37  59  85 119 158 194 237 291 343
#     4  10  21  38  60  87 120 156 194 237 286 345
#     4   9  18  34  56  82 112 146 189 241 290 340
#     4  10  20  35  56  79 106 145 191 238 288 338
#
# _framework density 19.476362999999999
#
# number of rings (size 3 to 8) (size 9 to 14) (size 15 to 20)
#    0.000    1.923    0.769    4.154    0.000    4.615 
#    5.538    2.308    0.000    2.769    0.000    0.000 
#    0.000    0.000    0.000    0.000    0.000    0.000 
#
# Total GULP energy -644229.794898 kJ/mol
# GULP energy per Si atom -12389.034517 kJ/mol
# Density = 1.943203 g / cm^3
# Si number density = 19.476363 Si / 1000 Ang^3
#
#
#
# Elastic Constant Matrix: (Units=GPa)
#
#
# Indices 1 2 3 4 5 6 
#
# 1 115.4754 63.4514 35.2752 0.0000 0.0000 0.0000
# 2 63.4514 134.5441 50.7069 0.0000 0.0000 0.0000
# 3 35.2752 50.7069 74.4336 0.0000 0.0000 0.0000
# 4 0.0000 0.0000 0.0000 109.3350 0.0000 0.0000
# 5 0.0000 0.0000 0.0000 0.0000 30.2160 0.0000
# 6 0.0000 0.0000 0.0000 0.0000 0.0000 27.2581
#
#
#
# Elastic Compliance Matrix: (Units=1/GPa)
#
#
# Indices 1 2 3 4 5 6 
#
# 1 0.012017 -0.004737 -0.002468 0.000000 0.000000 0.000000
# 2 -0.004737 0.011867 -0.005839 0.000000 0.000000 0.000000
# 3 -0.002468 -0.005839 0.018582 0.000000 0.000000 0.000000
# 4 0.000000 0.000000 0.000000 0.009146 0.000000 0.000000
# 5 0.000000 0.000000 0.000000 0.000000 0.033095 0.000000
# 6 0.000000 0.000000 0.000000 0.000000 0.000000 0.036686
#
#
# Mechanical properties :
#
#
# Convention : Reuss Voigt Hill
#
# Bulk Modulus (GPa) = 61.05882 69.25779 65.15831
# Shear Modulus (GPa) = 32.69219 45.02978 38.86098
#
# Velocity S-wave (km/s) = 4.10146 4.81357 4.47171
# Velocity P-wave (km/s) = 7.33809 8.15665 7.75818
#
# Compressibility (1/GPa) = 0.01637765
#
# Stress axis : x y z
#
# Youngs Moduli (GPa) = 83.21820 84.26544 53.81436
#
# Poissons Ratio (x) = 0.39916 0.13281
# Poissons Ratio (y) = 0.39420 0.31425
# Poissons Ratio (z) = 0.20537 0.49207
#
# Static dielectric constant tensor:
#      x y z
#    x 3.783320 0.000000 0.000000 
#    y 0.000000 3.854600 0.000000 
#    z 0.000000 0.000000 3.372670 
# 
# 
# High freq. dielectric constant tensor:
#      x y z
#    x 1.772330 0.000000 0.000000 
#    y 0.000000 1.767350 0.000000 
#    z 0.000000 0.000000 1.728050 
# 
# From -- ./inp_files/62863.got.cif
#   From: 2010.03.12/outbox.cif.g09.slc.cpg/sg65_32_cif.got.tgz:62863.got - 2010.04.10 20:52:16.
