data_PCOD8270536
_publ_section_title
;
Structure prediction by ZEFSAII (Michael W. Deem and Ramdas Pophale) SiO2 
 PCOD8270536
Probable space group: C M M M
;
_chemical_formula_sum "Si O2"
_cell_formula_units_Z 80
_cell_length_a 18.032779
_cell_length_b 27.596301
_cell_length_c 8.668413
_cell_angle_alpha 90.000000
_cell_angle_beta 90.000000
_cell_angle_gamma 90.000000
_cell_volume 4313.731684
_symmetry_space_group_name_H-M "C M M M"
_symmetry_group_IT_number 65
_symmetry_cell_setting 'orthorhombic'
loop_
_space_group_symop_operation_xyz
x,y,z
-x,-y,z
x,-y,-z
-x,y,-z
-x,-y,-z
x,y,-z
-x,y,z
x,-y,z
1/2+x,1/2+y,z
1/2-x,1/2-y,z
1/2+x,1/2-y,-z
1/2-x,1/2+y,-z
1/2-x,1/2-y,-z
1/2+x,1/2+y,-z
1/2-x,1/2+y,z
1/2+x,1/2-y,z
loop_
_atom_site_type_symbol
_atom_site_label
_atom_site_fract_x
_atom_site_fract_y
_atom_site_fract_z
Si Si1 0.358646 0.188071 0.320027
Si Si2 0.773394 0.445562 0.319822
Si Si3 0.284499 0.352117 0.178644
Si Si4 0.584464 0.284440 0.822439
Si Si5 0.416839 0.094295 0.179594
O O1 0.367014 0.177592 0.500000
O O2 0.273057 0.181317 0.272034
O O3 0.385747 0.241808 0.284567
O O4 0.409765 0.150399 0.227490
O O5 0.765490 0.435738 0.500000
O O6 0.748830 0.500000 0.276269
O O7 0.720062 0.408026 0.231536
O O8 0.859236 0.438357 0.273889
O O9 0.367145 0.332525 0.209965
O O10 0.262888 0.348819 0.000000
O O11 0.500000 0.297227 0.779569
O O12 0.592070 0.268069 0.000000
O O13 0.500000 0.076223 0.215755
O O14 0.398336 0.089245 0.000000
#
# Coordination Sequence:
#
# PCOD8270536 Si02
#       5
#    16  16  16  16  16
#     4  11  21  32  50  76 106 140 174 205 241 290
#     4  10  21  36  54  75  99 129 165 208 257 304
#     4  10  20  35  56  77  99 132 170 208 250 295
#     4  10  21  36  53  75 104 135 168 207 250 296
#     4  10  20  33  50  73 103 138 173 209 247 289
#
# _framework density 18.545428000000001
#
# number of rings (size 3 to 8) (size 9 to 14) (size 15 to 20)
#    0.000    1.800    0.000    7.200    0.000   10.400 
#    0.000    2.000    0.000    0.600    0.000    4.200 
#    0.000    0.000    0.000    0.000    0.000    0.000 
#
# Total GULP energy -496074.825286 kJ/mol
# GULP energy per Si atom -12401.870632 kJ/mol
# Density = 1.850322 g / cm^3
# Si number density = 18.545428 Si / 1000 Ang^3
#
#
#
# Elastic Constant Matrix: (Units=GPa)
#
#
# Indices 1 2 3 4 5 6 
#
# 1 97.9267 47.6390 18.9954 0.0000 0.0000 0.0000
# 2 47.6390 96.1406 22.8741 0.0000 0.0000 0.0000
# 3 18.9954 22.8741 45.1495 0.0000 0.0000 0.0000
# 4 0.0000 0.0000 0.0000 30.4955 0.0000 0.0000
# 5 0.0000 0.0000 0.0000 0.0000 4.1624 0.0000
# 6 0.0000 0.0000 0.0000 0.0000 0.0000 11.1713
#
#
#
# Elastic Compliance Matrix: (Units=1/GPa)
#
#
# Indices 1 2 3 4 5 6 
#
# 1 0.013728 -0.006172 -0.002649 0.000000 0.000000 0.000000
# 2 -0.006172 0.014602 -0.004801 0.000000 0.000000 0.000000
# 3 -0.002649 -0.004801 0.025695 0.000000 0.000000 0.000000
# 4 0.000000 0.000000 0.000000 0.032792 0.000000 0.000000
# 5 0.000000 0.000000 0.000000 0.000000 0.240245 0.000000
# 6 0.000000 0.000000 0.000000 0.000000 0.000000 0.089515
#
#
# Mechanical properties :
#
#
# Convention : Reuss Voigt Hill
#
# Bulk Modulus (GPa) = 37.33908 46.47044 41.90476
# Shear Modulus (GPa) = 11.04365 19.14638 15.09501
#
# Velocity S-wave (km/s) = 2.44292 3.21659 2.85607
# Velocity P-wave (km/s) = 5.30421 6.23757 5.78973
#
# Compressibility (1/GPa) = 0.02678159
#
# Stress axis : x y z
#
# Youngs Moduli (GPa) = 72.84277 68.48284 38.91754
#
# Poissons Ratio (x) = 0.42270 0.10308
# Poissons Ratio (y) = 0.44961 0.18685
# Poissons Ratio (z) = 0.19294 0.32879
#
# Static dielectric constant tensor:
#      x y z
#    x 3.368110 0.000000 0.000000 
#    y 0.000000 3.333300 0.000000 
#    z 0.000000 0.000000 3.469130 
# 
# 
# High freq. dielectric constant tensor:
#      x y z
#    x 1.704000 0.000000 0.000000 
#    y 0.000000 1.709130 0.000000 
#    z 0.000000 0.000000 1.730970 
# 
# From -- ./inp_files/9603.got.cif
#   From: 2010.03.12/outbox.cif.g09.slc.cpg/sg65_5_cif.got.tgz:9603.got - 2010.04.10 20:52:16.
