data_PCOD8270964
_publ_section_title
;
Structure prediction by ZEFSAII (Michael W. Deem and Ramdas Pophale) SiO2 
 PCOD8270964
Probable space group: C M M M
;
_chemical_formula_sum "Si O2"
_cell_formula_units_Z 104
_cell_length_a 19.949943
_cell_length_b 32.604695
_cell_length_c 8.913877
_cell_angle_alpha 90.000000
_cell_angle_beta 90.000000
_cell_angle_gamma 90.000000
_cell_volume 5798.136539
_symmetry_space_group_name_H-M "C M M M"
_symmetry_group_IT_number 65
_symmetry_cell_setting 'orthorhombic'
loop_
_space_group_symop_operation_xyz
x,y,z
-x,-y,z
x,-y,-z
-x,y,-z
-x,-y,-z
x,y,-z
-x,y,z
x,-y,z
1/2+x,1/2+y,z
1/2-x,1/2-y,z
1/2+x,1/2-y,-z
1/2-x,1/2+y,-z
1/2-x,1/2-y,-z
1/2+x,1/2+y,-z
1/2-x,1/2+y,z
1/2+x,1/2-y,z
loop_
_atom_site_type_symbol
_atom_site_label
_atom_site_fract_x
_atom_site_fract_y
_atom_site_fract_z
Si Si1 0.809533 0.627109 0.673016
Si Si2 0.500000 0.455742 0.324834
Si Si3 0.923084 0.227233 0.824075
Si Si4 0.166210 0.160799 0.675433
Si Si5 0.876103 0.918920 0.172237
Si Si6 0.733590 0.954121 0.174924
Si Si7 0.575739 0.812922 0.327493
O O1 0.814197 0.616187 0.500000
O O2 0.746194 0.657263 0.704008
O O3 0.808266 0.582668 0.751694
O O4 0.875262 0.651068 0.729060
O O5 0.500000 0.500000 0.245618
O O6 0.500000 0.460299 0.500000
O O7 0.434431 0.432420 0.278846
O O8 0.867180 0.203264 0.727360
O O9 0.913321 0.274322 0.779653
O O10 0.000000 0.213352 0.786197
O O11 0.908526 0.221838 0.000000
O O12 0.150042 0.153141 0.500000
O O13 0.134016 0.127946 0.785525
O O14 0.811807 0.946683 0.207985
O O15 0.897769 0.922224 0.000000
O O16 0.715006 0.000000 0.236169
O O17 0.718630 0.952080 0.000000
O O18 0.592038 0.800637 0.500000
O O19 0.500000 0.829477 0.313354
#
# Coordination Sequence:
#
# PCOD8270964 Si02
#       7
#    16   8  16  16  16  16  16
#     4   9  19  34  53  79 105 131 167 210 255 305
#     4  11  23  35  47  67  95 129 171 215 261 311
#     4  10  21  35  51  73 102 136 177 216 252 299
#     4  10  20  34  51  73 103 135 170 211 258 306
#     4  10  20  34  51  70  96 130 170 215 259 301
#     4   9  18  33  53  76 101 131 167 206 251 304
#     4   9  18  35  57  78 102 133 168 206 254 308
#
# _framework density 17.936796999999999
#
# number of rings (size 3 to 8) (size 9 to 14) (size 15 to 20)
#    0.000    2.385    0.000    2.077    1.077    4.923 
#    0.000    3.077    0.000    0.462    0.000    3.231 
#    0.000    0.000    0.000    0.000    0.000    0.000 
#
# Total GULP energy -644587.270390 kJ/mol
# GULP energy per Si atom -12395.909046 kJ/mol
# Density = 1.789597 g / cm^3
# Si number density = 17.936797 Si / 1000 Ang^3
#
#
#
# Elastic Constant Matrix: (Units=GPa)
#
#
# Indices 1 2 3 4 5 6 
#
# 1 92.3297 64.4507 29.9201 0.0000 0.0000 0.0000
# 2 64.4507 110.7212 30.8368 0.0000 0.0000 0.0000
# 3 29.9201 30.8368 47.8344 0.0000 0.0000 0.0000
# 4 0.0000 0.0000 0.0000 30.1358 0.0000 0.0000
# 5 0.0000 0.0000 0.0000 0.0000 23.2562 0.0000
# 6 0.0000 0.0000 0.0000 0.0000 0.0000 10.4172
#
#
#
# Elastic Compliance Matrix: (Units=1/GPa)
#
#
# Indices 1 2 3 4 5 6 
#
# 1 0.019546 -0.009717 -0.005961 0.000000 0.000000 0.000000
# 2 -0.009717 0.015839 -0.004133 0.000000 0.000000 0.000000
# 3 -0.005961 -0.004133 0.027298 0.000000 0.000000 0.000000
# 4 0.000000 0.000000 0.000000 0.033183 0.000000 0.000000
# 5 0.000000 0.000000 0.000000 0.000000 0.042999 0.000000
# 6 0.000000 0.000000 0.000000 0.000000 0.000000 0.095995
#
#
# Mechanical properties :
#
#
# Convention : Reuss Voigt Hill
#
# Bulk Modulus (GPa) = 43.36415 55.70004 49.53210
# Shear Modulus (GPa) = 17.71976 21.14033 19.43005
#
# Velocity S-wave (km/s) = 3.14650 3.43680 3.29485
# Velocity P-wave (km/s) = 6.11794 6.84615 6.49226
#
# Compressibility (1/GPa) = 0.02306052
#
# Stress axis : x y z
#
# Youngs Moduli (GPa) = 51.16211 63.13490 36.63211
#
# Poissons Ratio (x) = 0.61350 0.21838
# Poissons Ratio (y) = 0.49716 0.15139
# Poissons Ratio (z) = 0.30500 0.26092
#
# Static dielectric constant tensor:
#      x y z
#    x 3.393650 0.000000 0.000000 
#    y 0.000000 3.373780 0.000000 
#    z 0.000000 0.000000 3.313440 
# 
# 
# High freq. dielectric constant tensor:
#      x y z
#    x 1.680890 0.000000 0.000000 
#    y 0.000000 1.692130 0.000000 
#    z 0.000000 0.000000 1.697920 
# 
# From -- ./inp_files/12800.got.cif
#   From: 2010.03.12/outbox.cif.g09.slc.cpg/sg65_7_cif.got.tgz:12800.got - 2010.04.10 20:52:16.
