data_PCOD8270835
_publ_section_title
;
Structure prediction by ZEFSAII (Michael W. Deem and Ramdas Pophale) SiO2 
 PCOD8270835
Probable space group: C M M M
;
_chemical_formula_sum "Si O2"
_cell_formula_units_Z 96
_cell_length_a 22.946032
_cell_length_b 9.350789
_cell_length_c 22.971190
_cell_angle_alpha 90.000000
_cell_angle_beta 90.000000
_cell_angle_gamma 90.000000
_cell_volume 4928.779009
_symmetry_space_group_name_H-M "C M M M"
_symmetry_group_IT_number 65
_symmetry_cell_setting 'orthorhombic'
loop_
_space_group_symop_operation_xyz
x,y,z
-x,-y,z
x,-y,-z
-x,y,-z
-x,-y,-z
x,y,-z
-x,y,z
x,-y,z
1/2+x,1/2+y,z
1/2-x,1/2-y,z
1/2+x,1/2-y,-z
1/2-x,1/2+y,-z
1/2-x,1/2-y,-z
1/2+x,1/2+y,-z
1/2-x,1/2+y,z
1/2+x,1/2-y,z
loop_
_atom_site_type_symbol
_atom_site_label
_atom_site_fract_x
_atom_site_fract_y
_atom_site_fract_z
Si Si1 0.000000 0.340412 0.068279
Si Si2 0.885363 0.166212 0.067158
Si Si3 0.353492 0.662570 0.668334
Si Si4 0.250000 0.750000 0.748105
Si Si5 0.309648 0.835027 0.435037
Si Si6 0.338428 0.155000 0.159808
Si Si7 0.933116 0.337883 0.251527
O O1 0.943004 0.251639 0.086073
O O2 0.000000 0.500000 0.097425
O O3 0.000000 0.360349 0.000000
O O4 0.833103 0.225595 0.108730
O O5 0.895608 0.000000 0.079586
O O6 0.868228 0.192372 0.000000
O O7 0.366352 0.500000 0.650375
O O8 0.293825 0.663652 0.706211
O O9 0.351974 0.759970 0.610734
O O10 0.408071 0.723791 0.703270
O O11 0.287980 0.847406 0.791336
O O12 0.336845 0.826161 0.500000
O O13 0.250000 0.750000 0.432986
O O14 0.298616 0.000000 0.417112
O O15 0.400268 0.180624 0.190680
O O16 0.336918 0.000000 0.129261
O O17 0.924998 0.500000 0.275522
O O18 0.000000 0.300813 0.239683
#
# Coordination Sequence:
#
# PCOD8270835 Si02
#       7
#     8  16  16   8  16  16  16
#     4   9  17  31  53  77 101 133 173 213 256 317
#     4  10  21  36  53  77 108 139 173 219 278 333
#     4  11  21  34  58  85 114 150 186 228 275 328
#     4  10  22  38  56  80 112 146 184 226 274 328
#     4  10  20  33  52  81 116 151 188 230 276 325
#     4  10  21  36  58  82 107 142 184 227 270 327
#     4   9  20  38  57  80 112 148 184 226 276 327
#
# _framework density 19.477440999999999
#
# number of rings (size 3 to 8) (size 9 to 14) (size 15 to 20)
#    0.000    2.083    0.833    2.250    1.167    8.000 
#    0.000    0.417    0.000    0.500    0.000    3.500 
#    0.000    0.000    0.000    0.000    0.000    0.000 
#
# Total GULP energy -594967.913068 kJ/mol
# GULP energy per Si atom -12395.164856 kJ/mol
# Density = 1.943311 g / cm^3
# Si number density = 19.477441 Si / 1000 Ang^3
#
#
#
# Elastic Constant Matrix: (Units=GPa)
#
#
# Indices 1 2 3 4 5 6 
#
# 1 74.2291 27.9908 28.6497 0.0000 0.0000 0.0000
# 2 27.9908 157.0427 63.8268 0.0000 0.0000 0.0000
# 3 28.6497 63.8268 95.7551 0.0000 0.0000 0.0000
# 4 0.0000 0.0000 0.0000 30.6362 0.0000 0.0000
# 5 0.0000 0.0000 0.0000 0.0000 17.6486 0.0000
# 6 0.0000 0.0000 0.0000 0.0000 0.0000 18.4013
#
#
#
# Elastic Compliance Matrix: (Units=1/GPa)
#
#
# Indices 1 2 3 4 5 6 
#
# 1 0.015393 -0.001196 -0.003808 0.000000 0.000000 0.000000
# 2 -0.001196 0.008827 -0.005526 0.000000 0.000000 0.000000
# 3 -0.003808 -0.005526 0.015266 0.000000 0.000000 0.000000
# 4 0.000000 0.000000 0.000000 0.032641 0.000000 0.000000
# 5 0.000000 0.000000 0.000000 0.000000 0.056662 0.000000
# 6 0.000000 0.000000 0.000000 0.000000 0.000000 0.054344
#
#
# Mechanical properties :
#
#
# Convention : Reuss Voigt Hill
#
# Bulk Modulus (GPa) = 54.27249 63.10682 58.68965
# Shear Modulus (GPa) = 23.77174 27.10786 25.43980
#
# Velocity S-wave (km/s) = 3.49732 3.73467 3.61794
# Velocity P-wave (km/s) = 6.65080 7.14614 6.90291
#
# Compressibility (1/GPa) = 0.01842554
#
# Stress axis : x y z
#
# Youngs Moduli (GPa) = 64.96635 113.29338 65.50478
#
# Poissons Ratio (x) = 0.13546 0.24947
# Poissons Ratio (y) = 0.07768 0.36196
# Poissons Ratio (z) = 0.24742 0.62603
#
# Static dielectric constant tensor:
#      x y z
#    x 3.358200 0.000000 0.000000 
#    y 0.000000 3.589390 0.000000 
#    z 0.000000 0.000000 3.676280 
# 
# 
# High freq. dielectric constant tensor:
#      x y z
#    x 1.728800 0.000000 0.000000 
#    y 0.000000 1.767620 0.000000 
#    z 0.000000 0.000000 1.757890 
# 
# From -- ./inp_files/71460.got.cif
#   From: 2010.03.12/outbox.cif.g09.slc.cpg/sg65_36_cif.got.tgz:71460.got - 2010.04.10 20:52:16.
