data_PCOD8270713
_publ_section_title
;
Structure prediction by ZEFSAII (Michael W. Deem and Ramdas Pophale) SiO2 
 PCOD8270713
Probable space group: C M M M
;
_chemical_formula_sum "Si O2"
_cell_formula_units_Z 104
_cell_length_a 28.785960
_cell_length_b 8.780860
_cell_length_c 22.743786
_cell_angle_alpha 90.000000
_cell_angle_beta 90.000000
_cell_angle_gamma 90.000000
_cell_volume 5748.844093
_symmetry_space_group_name_H-M "C M M M"
_symmetry_group_IT_number 65
_symmetry_cell_setting 'orthorhombic'
loop_
_space_group_symop_operation_xyz
x,y,z
-x,-y,z
x,-y,-z
-x,y,-z
-x,-y,-z
x,y,-z
-x,y,z
x,-y,z
1/2+x,1/2+y,z
1/2-x,1/2-y,z
1/2+x,1/2-y,-z
1/2-x,1/2+y,-z
1/2-x,1/2-y,-z
1/2+x,1/2+y,-z
1/2-x,1/2+y,z
1/2+x,1/2-y,z
loop_
_atom_site_type_symbol
_atom_site_label
_atom_site_fract_x
_atom_site_fract_y
_atom_site_fract_z
Si Si1 0.201243 0.178343 0.931561
Si Si2 0.054240 0.822474 0.786960
Si Si3 0.054781 0.177164 0.000000
Si Si4 0.891962 0.320157 0.107883
Si Si5 0.795597 0.329654 0.430168
Si Si6 0.554625 0.170230 0.332841
Si Si7 0.110070 0.178845 0.432605
O O1 0.250000 0.250000 0.911111
O O2 0.159993 0.253760 0.894476
O O3 0.202635 0.000000 0.918646
O O4 0.192020 0.213458 0.000000
O O5 0.085144 0.722985 0.830484
O O6 0.069980 0.776009 0.721498
O O7 0.000000 0.784971 0.797560
O O8 0.064316 0.000000 0.796978
O O9 0.075877 0.251926 0.057468
O O10 0.000000 0.203745 0.000000
O O11 0.067958 0.000000 0.000000
O O12 0.889519 0.500000 0.100577
O O13 0.791827 0.334580 0.500000
O O14 0.799877 0.500000 0.404573
O O15 0.750000 0.250000 0.403259
O O16 0.839551 0.231292 0.410030
O O17 0.500000 0.164578 0.337328
O O18 0.571580 0.240102 0.393805
O O19 0.574776 0.000000 0.324129
O O20 0.102007 0.228902 0.500000
O O21 0.105865 0.000000 0.425042
#
# Coordination Sequence:
#
# PCOD8270713 Si02
#       7
#    16  16   8  16  16  16  16
#     4  10  20  35  56  80 111 146 184 227 272 322
#     4  10  21  38  59  80 105 141 183 224 268 322
#     4  11  23  37  52  75 110 147 181 221 271 321
#     4  12  23  35  55  82 112 144 181 223 271 321
#     4   9  16  27  45  70 101 135 170 209 255 308
#     4  10  21  37  56  78 105 138 179 225 271 321
#     4  10  20  33  51  77 108 141 178 220 268 322
#
# _framework density 18.090593999999999
#
# number of rings (size 3 to 8) (size 9 to 14) (size 15 to 20)
#    0.000    1.769    0.769    4.385    0.000    8.000 
#    0.000    1.538    0.000    0.923    0.000    6.462 
#    0.000    0.000    0.000    0.000    0.000    0.000 
#
# Total GULP energy -644972.466370 kJ/mol
# GULP energy per Si atom -12403.316661 kJ/mol
# Density = 1.804942 g / cm^3
# Si number density = 18.090594 Si / 1000 Ang^3
#
#
#
# Elastic Constant Matrix: (Units=GPa)
#
#
# Indices 1 2 3 4 5 6 
#
# 1 73.4004 56.5894 49.0103 0.0000 0.0000 0.0000
# 2 56.5894 118.3043 37.7340 0.0000 0.0000 0.0000
# 3 49.0103 37.7340 78.6329 0.0000 0.0000 0.0000
# 4 0.0000 0.0000 0.0000 26.8915 0.0000 0.0000
# 5 0.0000 0.0000 0.0000 0.0000 6.1723 0.0000
# 6 0.0000 0.0000 0.0000 0.0000 0.0000 35.5176
#
#
#
# Elastic Compliance Matrix: (Units=1/GPa)
#
#
# Indices 1 2 3 4 5 6 
#
# 1 0.031311 -0.010334 -0.014556 0.000000 0.000000 0.000000
# 2 -0.010334 0.013391 0.000015 0.000000 0.000000 0.000000
# 3 -0.014556 0.000015 0.021783 0.000000 0.000000 0.000000
# 4 0.000000 0.000000 0.000000 0.037186 0.000000 0.000000
# 5 0.000000 0.000000 0.000000 0.000000 0.162014 0.000000
# 6 0.000000 0.000000 0.000000 0.000000 0.000000 0.028155
#
#
# Mechanical properties :
#
#
# Convention : Reuss Voigt Hill
#
# Bulk Modulus (GPa) = 59.75939 61.88944 60.82442
# Shear Modulus (GPa) = 14.31973 22.18323 18.25148
#
# Velocity S-wave (km/s) = 2.81651 3.50556 3.17975
# Velocity P-wave (km/s) = 6.60924 7.11831 6.86850
#
# Compressibility (1/GPa) = 0.01673377
#
# Stress axis : x y z
#
# Youngs Moduli (GPa) = 31.93811 74.67569 45.90809
#
# Poissons Ratio (x) = 0.77172 0.66824
# Poissons Ratio (y) = 0.33006 -0.00069
# Poissons Ratio (z) = 0.46489 -0.00112
#
# Static dielectric constant tensor:
#      x y z
#    x 3.401960 0.000000 0.000000 
#    y 0.000000 3.563180 0.000000 
#    z 0.000000 0.000000 3.165290 
# 
# 
# High freq. dielectric constant tensor:
#      x y z
#    x 1.703590 0.000000 0.000000 
#    y 0.000000 1.721940 0.000000 
#    z 0.000000 0.000000 1.671890 
# 
# From -- ./inp_files/66423.got.cif
#   From: 2010.03.12/outbox.cif.g09.slc.cpg/sg65_34_cif.got.tgz:66423.got - 2010.04.10 20:52:16.
