data_PCOD8270899
_publ_section_title
;
Structure prediction by ZEFSAII (Michael W. Deem and Ramdas Pophale) SiO2 
 PCOD8270899
Probable space group: C M M M
;
_chemical_formula_sum "Si O2"
_cell_formula_units_Z 104
_cell_length_a 23.588117
_cell_length_b 9.186252
_cell_length_c 25.673277
_cell_angle_alpha 90.000000
_cell_angle_beta 90.000000
_cell_angle_gamma 90.000000
_cell_volume 5563.049635
_symmetry_space_group_name_H-M "C M M M"
_symmetry_group_IT_number 65
_symmetry_cell_setting 'orthorhombic'
loop_
_space_group_symop_operation_xyz
x,y,z
-x,-y,z
x,-y,-z
-x,y,-z
-x,-y,-z
x,y,-z
-x,y,z
x,-y,z
1/2+x,1/2+y,z
1/2-x,1/2-y,z
1/2+x,1/2-y,-z
1/2-x,1/2+y,-z
1/2-x,1/2-y,-z
1/2+x,1/2+y,-z
1/2-x,1/2+y,z
1/2+x,1/2-y,z
loop_
_atom_site_type_symbol
_atom_site_label
_atom_site_fract_x
_atom_site_fract_y
_atom_site_fract_z
Si Si1 0.378968 0.325827 0.057978
Si Si2 0.000000 0.842650 0.938828
Si Si3 0.690165 0.826310 0.500000
Si Si4 0.345228 0.158725 0.750758
Si Si5 0.191405 0.828400 0.155272
Si Si6 0.250000 0.750000 0.673754
Si Si7 0.434361 0.833812 0.334473
Si Si8 0.652523 0.664193 0.599282
O O1 0.383644 0.500000 0.057897
O O2 0.440961 0.260118 0.074620
O O3 0.334666 0.271325 0.100866
O O4 0.360690 0.271499 0.000000
O O5 0.000000 0.000000 0.910234
O O6 0.000000 0.869813 0.000000
O O7 0.750000 0.750000 0.500000
O O8 0.658039 0.774698 0.551449
O O9 0.696571 0.000000 0.500000
O O10 0.345488 0.283078 0.794768
O O11 0.291694 0.158160 0.710937
O O12 0.404579 0.180802 0.721504
O O13 0.343745 0.000000 0.777757
O O14 0.250000 0.750000 0.162930
O O15 0.199224 0.000000 0.154998
O O16 0.291663 0.657796 0.636266
O O17 0.500000 0.789931 0.329038
O O18 0.403778 0.720082 0.372225
O O19 0.427770 0.000000 0.355115
O O20 0.642128 0.500000 0.579429
#
# Coordination Sequence:
#
# PCOD8270899 Si02
#       8
#    16   8   8  16  16   8  16  16
#     4   8  15  29  49  73 100 132 172 218 269 325
#     4   7  10  22  46  70  93 123 161 209 261 310
#     4  12  24  38  57  86 125 158 190 230 280 334
#     4  10  20  35  56  79 107 143 183 223 270 328
#     4  11  22  34  50  75 107 141 176 220 272 327
#     4  10  20  33  58  82 111 142 184 228 282 328
#     4   9  20  40  62  83 111 149 191 230 275 334
#     4  11  22  36  59  89 120 150 188 235 283 328
#
# _framework density 18.694780999999999
#
# number of rings (size 3 to 8) (size 9 to 14) (size 15 to 20)
#    0.000    2.231    1.538    3.000    0.000    4.308 
#    1.385    0.385    0.000    3.692    0.000    0.000 
#    0.000    7.385    0.000    0.000    0.000    0.000 
#
# Total GULP energy -644318.561369 kJ/mol
# GULP energy per Si atom -12390.741565 kJ/mol
# Density = 1.865223 g / cm^3
# Si number density = 18.694781 Si / 1000 Ang^3
#
#
#
# Elastic Constant Matrix: (Units=GPa)
#
#
# Indices 1 2 3 4 5 6 
#
# 1 110.9819 38.0878 42.0555 0.0000 0.0000 0.0000
# 2 38.0878 97.5612 42.2664 0.0000 0.0000 0.0000
# 3 42.0555 42.2664 105.9106 0.0000 0.0000 0.0000
# 4 0.0000 0.0000 0.0000 9.9446 0.0000 0.0000
# 5 0.0000 0.0000 0.0000 0.0000 20.5927 0.0000
# 6 0.0000 0.0000 0.0000 0.0000 0.0000 15.4096
#
#
#
# Elastic Compliance Matrix: (Units=1/GPa)
#
#
# Indices 1 2 3 4 5 6 
#
# 1 0.011279 -0.002978 -0.003290 0.000000 0.000000 0.000000
# 2 -0.002978 0.013179 -0.004077 0.000000 0.000000 0.000000
# 3 -0.003290 -0.004077 0.012375 0.000000 0.000000 0.000000
# 4 0.000000 0.000000 0.000000 0.100557 0.000000 0.000000
# 5 0.000000 0.000000 0.000000 0.000000 0.048561 0.000000
# 6 0.000000 0.000000 0.000000 0.000000 0.000000 0.064895
#
#
# Mechanical properties :
#
#
# Convention : Reuss Voigt Hill
#
# Bulk Modulus (GPa) = 61.94570 62.14147 62.04359
# Shear Modulus (GPa) = 18.05588 21.99230 20.02409
#
# Velocity S-wave (km/s) = 3.11114 3.43357 3.27633
# Velocity P-wave (km/s) = 6.79064 7.00224 6.89725
#
# Compressibility (1/GPa) = 0.01614317
#
# Stress axis : x y z
#
# Youngs Moduli (GPa) = 88.65758 75.87959 80.80488
#
# Poissons Ratio (x) = 0.22596 0.26588
# Poissons Ratio (y) = 0.26402 0.32943
# Poissons Ratio (z) = 0.29172 0.30935
#
# Static dielectric constant tensor:
#      x y z
#    x 3.608050 0.000000 0.000000 
#    y 0.000000 3.201140 0.000000 
#    z 0.000000 0.000000 2.719310 
# 
# 
# High freq. dielectric constant tensor:
#      x y z
#    x 1.724230 0.000000 0.000000 
#    y 0.000000 1.702580 0.000000 
#    z 0.000000 0.000000 1.720200 
# 
# From -- ./inp_files/75837.got.cif
#   From: 2010.03.12/outbox.cif.g09.slc.cpg/sg65_38_cif.got.tgz:75837.got - 2010.04.10 20:52:16.
