data_PCOD8270306
_publ_section_title
;
Structure prediction by ZEFSAII (Michael W. Deem and Ramdas Pophale) SiO2 
 PCOD8270306
Probable space group: C M M M
;
_chemical_formula_sum "Si O2"
_cell_formula_units_Z 88
_cell_length_a 27.259694
_cell_length_b 20.142372
_cell_length_c 8.871913
_cell_angle_alpha 90.000000
_cell_angle_beta 90.000000
_cell_angle_gamma 90.000000
_cell_volume 4871.344718
_symmetry_space_group_name_H-M "C M M M"
_symmetry_group_IT_number 65
_symmetry_cell_setting 'orthorhombic'
loop_
_space_group_symop_operation_xyz
x,y,z
-x,-y,z
x,-y,-z
-x,y,-z
-x,-y,-z
x,y,-z
-x,y,z
x,-y,z
1/2+x,1/2+y,z
1/2-x,1/2-y,z
1/2+x,1/2-y,-z
1/2-x,1/2+y,-z
1/2-x,1/2-y,-z
1/2+x,1/2+y,-z
1/2-x,1/2+y,z
1/2+x,1/2-y,z
loop_
_atom_site_type_symbol
_atom_site_label
_atom_site_fract_x
_atom_site_fract_y
_atom_site_fract_z
Si Si1 0.784404 0.366274 0.324569
Si Si2 0.215580 0.500000 0.830069
Si Si3 0.169123 0.866067 0.675467
Si Si4 0.442157 0.000000 0.836232
Si Si5 0.856992 0.267056 0.821178
Si Si6 0.554733 0.857626 0.180054
Si Si7 0.332110 0.500000 0.170600
O O1 0.796998 0.365953 0.500000
O O2 0.804625 0.434791 0.253877
O O3 0.726833 0.358521 0.294738
O O4 0.809894 0.304185 0.245515
O O5 0.273779 0.500000 0.826305
O O6 0.195407 0.500000 0.000000
O O7 0.156643 0.864253 0.500000
O O8 0.140715 0.807289 0.759084
O O9 0.148650 0.934844 0.743361
O O10 0.428525 0.930331 0.753068
O O11 0.500000 0.000000 0.859666
O O12 0.416056 0.000000 0.000000
O O13 0.906738 0.302774 0.764678
O O14 0.852563 0.266080 0.000000
O O15 0.500000 0.838374 0.237587
O O16 0.554400 0.862990 0.000000
O O17 0.352106 0.500000 0.000000
#
# Coordination Sequence:
#
# PCOD8270306 Si02
#       7
#    16   8  16   8  16  16   8
#     4  10  20  33  47  65  95 133 166 197 237 286
#     4   9  17  30  48  69  93 124 163 204 239 274
#     4  10  20  34  50  68  95 131 164 193 234 289
#     4   7  10  21  42  63  86 119 155 190 229 274
#     4  11  21  30  46  72  98 126 162 204 244 281
#     4   8  15  28  45  67  95 125 159 201 247 290
#     4   9  17  31  52  74  94 118 155 201 239 277
#
# _framework density 18.064827000000001
#
# number of rings (size 3 to 8) (size 9 to 14) (size 15 to 20)
#    0.000    2.636    0.000    3.818    0.000    7.273 
#    0.000    1.818    0.000    2.182    0.000    0.636 
#    0.000   15.273    0.000    0.000    0.000    0.000 
#
# Total GULP energy -545417.490028 kJ/mol
# GULP energy per Si atom -12395.852046 kJ/mol
# Density = 1.802371 g / cm^3
# Si number density = 18.064827 Si / 1000 Ang^3
#
#
#
# Elastic Constant Matrix: (Units=GPa)
#
#
# Indices 1 2 3 4 5 6 
#
# 1 50.2406 47.5076 30.5145 0.0000 0.0000 0.0000
# 2 47.5076 174.9396 59.9487 0.0000 0.0000 0.0000
# 3 30.5145 59.9487 88.7271 0.0000 0.0000 0.0000
# 4 0.0000 0.0000 0.0000 32.6506 0.0000 0.0000
# 5 0.0000 0.0000 0.0000 0.0000 8.7026 0.0000
# 6 0.0000 0.0000 0.0000 0.0000 0.0000 14.1387
#
#
#
# Elastic Compliance Matrix: (Units=1/GPa)
#
#
# Indices 1 2 3 4 5 6 
#
# 1 0.029097 -0.005820 -0.006075 0.000000 0.000000 0.000000
# 2 -0.005820 0.008603 -0.003811 0.000000 0.000000 0.000000
# 3 -0.006075 -0.003811 0.015934 0.000000 0.000000 0.000000
# 4 0.000000 0.000000 0.000000 0.030627 0.000000 0.000000
# 5 0.000000 0.000000 0.000000 0.000000 0.114909 0.000000
# 6 0.000000 0.000000 0.000000 0.000000 0.000000 0.070728
#
#
# Mechanical properties :
#
#
# Convention : Reuss Voigt Hill
#
# Bulk Modulus (GPa) = 44.99771 65.53875 55.26823
# Shear Modulus (GPa) = 16.19606 22.82748 19.51177
#
# Velocity S-wave (km/s) = 2.99750 3.55863 3.29005
# Velocity P-wave (km/s) = 6.07808 7.29683 6.71516
#
# Compressibility (1/GPa) = 0.02222335
#
# Stress axis : x y z
#
# Youngs Moduli (GPa) = 34.36749 116.24237 62.75731
#
# Poissons Ratio (x) = 0.67655 0.38122
# Poissons Ratio (y) = 0.20003 0.23916
# Poissons Ratio (z) = 0.20877 0.44298
#
# Static dielectric constant tensor:
#      x y z
#    x 3.041180 0.000000 0.000000 
#    y 0.000000 3.633700 0.000000 
#    z 0.000000 0.000000 3.184000 
# 
# 
# High freq. dielectric constant tensor:
#      x y z
#    x 1.655520 0.000000 0.000000 
#    y 0.000000 1.712840 0.000000 
#    z 0.000000 0.000000 1.683720 
# 
# From -- ./inp_files/10202.got.cif
#   From: 2010.03.12/outbox.cif.g09.slc.cpg/sg65_6_cif.got.tgz:10202.got - 2010.04.10 20:52:16.
