data_PCOD8270865
_publ_section_title
;
Structure prediction by ZEFSAII (Michael W. Deem and Ramdas Pophale) SiO2 
 PCOD8270865
Probable space group: C M M M
;
_chemical_formula_sum "Si O2"
_cell_formula_units_Z 88
_cell_length_a 9.288014
_cell_length_b 28.261948
_cell_length_c 18.113893
_cell_angle_alpha 90.000000
_cell_angle_beta 90.000000
_cell_angle_gamma 90.000000
_cell_volume 4754.849249
_symmetry_space_group_name_H-M "C M M M"
_symmetry_group_IT_number 65
_symmetry_cell_setting 'orthorhombic'
loop_
_space_group_symop_operation_xyz
x,y,z
-x,-y,z
x,-y,-z
-x,y,-z
-x,-y,-z
x,y,-z
-x,y,z
x,-y,z
1/2+x,1/2+y,z
1/2-x,1/2-y,z
1/2+x,1/2-y,-z
1/2-x,1/2+y,-z
1/2-x,1/2-y,-z
1/2+x,1/2+y,-z
1/2-x,1/2+y,z
1/2+x,1/2-y,z
loop_
_atom_site_type_symbol
_atom_site_label
_atom_site_fract_x
_atom_site_fract_y
_atom_site_fract_z
Si Si1 0.831260 0.702015 0.220507
Si Si2 0.830973 0.700933 0.500000
Si Si3 0.829837 0.644723 0.080951
Si Si4 0.332783 0.861119 0.361190
Si Si5 0.664941 0.947329 0.162101
Si Si6 0.167315 0.053331 0.312458
O O1 0.750000 0.750000 0.239157
O O2 0.771671 0.680907 0.143019
O O3 0.796848 0.664296 0.284059
O O4 0.000000 0.713003 0.217084
O O5 0.750000 0.750000 0.500000
O O6 0.783010 0.672204 0.572190
O O7 0.000000 0.711315 0.500000
O O8 0.787725 0.590718 0.100829
O O9 0.000000 0.649480 0.077926
O O10 0.763841 0.656757 0.000000
O O11 0.500000 0.873758 0.368030
O O12 0.244144 0.909916 0.367421
O O13 0.500000 0.937857 0.187614
O O14 0.765988 0.940949 0.231892
O O15 0.681073 0.000000 0.128116
O O16 0.000000 0.065724 0.307329
O O17 0.191934 0.000000 0.342362
#
# Coordination Sequence:
#
# PCOD8270865 Si02
#       6
#    16   8  16  16  16  16
#     4  10  20  34  52  74 100 134 175 217 261 310
#     4  10  22  38  59  86 115 143 176 221 269 316
#     4   9  17  30  48  73 105 136 171 217 262 308
#     4  10  20  37  58  81 108 140 177 215 260 314
#     4   9  16  29  51  76 103 137 174 215 263 314
#     4  10  20  33  53  82 111 140 176 217 261 312
#
# _framework density 18.507421999999998
#
# number of rings (size 3 to 8) (size 9 to 14) (size 15 to 20)
#    0.000    2.364    1.818    1.091    0.000    3.273 
#    0.000    2.273    0.000    4.364    0.000    2.545 
#    0.000    0.000    0.000    0.000    0.000    0.000 
#
# Total GULP energy -545549.221377 kJ/mol
# GULP energy per Si atom -12398.845940 kJ/mol
# Density = 1.846530 g / cm^3
# Si number density = 18.507422 Si / 1000 Ang^3
#
#
#
# Elastic Constant Matrix: (Units=GPa)
#
#
# Indices 1 2 3 4 5 6 
#
# 1 61.7331 58.9598 36.6875 0.0000 0.0000 0.0000
# 2 58.9598 122.1563 48.2093 0.0000 0.0000 0.0000
# 3 36.6875 48.2093 104.2677 0.0000 0.0000 0.0000
# 4 0.0000 0.0000 0.0000 22.5950 0.0000 0.0000
# 5 0.0000 0.0000 0.0000 0.0000 9.2927 0.0000
# 6 0.0000 0.0000 0.0000 0.0000 0.0000 32.1116
#
#
#
# Elastic Compliance Matrix: (Units=1/GPa)
#
#
# Indices 1 2 3 4 5 6 
#
# 1 0.032089 -0.013494 -0.005051 0.000000 0.000000 0.000000
# 2 -0.013494 0.015688 -0.002505 0.000000 0.000000 0.000000
# 3 -0.005051 -0.002505 0.012527 0.000000 0.000000 0.000000
# 4 0.000000 0.000000 0.000000 0.044258 0.000000 0.000000
# 5 0.000000 0.000000 0.000000 0.000000 0.107611 0.000000
# 6 0.000000 0.000000 0.000000 0.000000 0.000000 0.031141
#
#
# Mechanical properties :
#
#
# Convention : Reuss Voigt Hill
#
# Bulk Modulus (GPa) = 54.94219 63.98559 59.46389
# Shear Modulus (GPa) = 17.15361 22.41991 19.78676
#
# Velocity S-wave (km/s) = 3.04772 3.48429 3.27330
# Velocity P-wave (km/s) = 6.49121 7.12987 6.81802
#
# Compressibility (1/GPa) = 0.01820095
#
# Stress axis : x y z
#
# Youngs Moduli (GPa) = 31.16329 63.74203 79.83044
#
# Poissons Ratio (x) = 0.86016 0.40326
# Poissons Ratio (y) = 0.42053 0.20001
# Poissons Ratio (z) = 0.15742 0.15971
#
# Static dielectric constant tensor:
#      x y z
#    x 3.211820 0.000000 0.000000 
#    y 0.000000 3.574990 0.000000 
#    z 0.000000 0.000000 3.506890 
# 
# 
# High freq. dielectric constant tensor:
#      x y z
#    x 1.691890 0.000000 0.000000 
#    y 0.000000 1.730760 0.000000 
#    z 0.000000 0.000000 1.706200 
# 
# From -- ./inp_files/50290.got.cif
#   From: 2010.03.12/outbox.cif.g09.slc.cpg/sg65_26_cif.got.tgz:50290.got - 2010.04.10 20:52:16.
