data_PCOD8270452
_publ_section_title
;
Structure prediction by ZEFSAII (Michael W. Deem and Ramdas Pophale) SiO2 
 PCOD8270452
Probable space group: C M M M
;
_chemical_formula_sum "Si O2"
_cell_formula_units_Z 88
_cell_length_a 9.207988
_cell_length_b 18.514827
_cell_length_c 28.352889
_cell_angle_alpha 90.000000
_cell_angle_beta 90.000000
_cell_angle_gamma 90.000000
_cell_volume 4833.722571
_symmetry_space_group_name_H-M "C M M M"
_symmetry_group_IT_number 65
_symmetry_cell_setting 'orthorhombic'
loop_
_space_group_symop_operation_xyz
x,y,z
-x,-y,z
x,-y,-z
-x,y,-z
-x,-y,-z
x,y,-z
-x,y,z
x,-y,z
1/2+x,1/2+y,z
1/2-x,1/2-y,z
1/2+x,1/2-y,-z
1/2-x,1/2+y,-z
1/2-x,1/2-y,-z
1/2+x,1/2+y,-z
1/2-x,1/2+y,z
1/2+x,1/2-y,z
loop_
_atom_site_type_symbol
_atom_site_label
_atom_site_fract_x
_atom_site_fract_y
_atom_site_fract_z
Si Si1 0.331683 0.416661 0.317443
Si Si2 0.827709 0.080389 0.861595
Si Si3 0.330201 0.677011 0.053236
Si Si4 0.335564 0.413792 0.500000
Si Si5 0.336042 0.085965 0.590650
Si Si6 0.671249 0.674130 0.774044
O O1 0.500000 0.407277 0.330393
O O2 0.295894 0.500000 0.306229
O O3 0.239301 0.386975 0.361423
O O4 0.286617 0.370488 0.272302
O O5 0.778317 0.114284 0.911466
O O6 0.769459 0.129333 0.818823
O O7 0.000000 0.075567 0.858469
O O8 0.760658 0.000000 0.857899
O O9 0.500000 0.692283 0.058681
O O10 0.250000 0.750000 0.067627
O O11 0.290496 0.652920 0.000000
O O12 0.335233 0.500000 0.500000
O O13 0.500000 0.384310 0.500000
O O14 0.252963 0.383575 0.546041
O O15 0.500000 0.115995 0.588613
O O16 0.335091 0.000000 0.589175
O O17 0.500000 0.687137 0.777626
O O18 0.750000 0.750000 0.772524
#
# Coordination Sequence:
#
# PCOD8270452 Si02
#       6
#    16  16  16   8  16  16
#     4   9  17  30  47  66  89 119 156 194 233 280
#     4   9  17  30  49  72  96 123 159 202 243 283
#     4   9  17  29  47  71  98 129 163 199 240 286
#     4   9  15  23  37  59  90 127 162 193 228 275
#     4   9  16  25  39  62  92 123 154 192 238 281
#     4  10  20  33  50  70  92 121 156 195 239 287
#
# _framework density 18.205431999999998
#
# number of rings (size 3 to 8) (size 9 to 14) (size 15 to 20)
#    0.000    2.818    0.000    1.909    0.000    6.545 
#    0.000    1.818    0.000    3.273    0.000    3.182 
#    0.000    0.000    0.000    0.000    0.000    0.000 
#
# Total GULP energy -545581.775910 kJ/mol
# GULP energy per Si atom -12399.585816 kJ/mol
# Density = 1.816400 g / cm^3
# Si number density = 18.205432 Si / 1000 Ang^3
#
#
#
# Elastic Constant Matrix: (Units=GPa)
#
#
# Indices 1 2 3 4 5 6 
#
# 1 70.0655 39.0443 61.9183 0.0000 0.0000 0.0000
# 2 39.0443 102.7343 77.3003 0.0000 0.0000 0.0000
# 3 61.9183 77.3003 170.0628 0.0000 0.0000 0.0000
# 4 0.0000 0.0000 0.0000 9.0475 0.0000 0.0000
# 5 0.0000 0.0000 0.0000 0.0000 19.8923 0.0000
# 6 0.0000 0.0000 0.0000 0.0000 0.0000 21.4759
#
#
#
# Elastic Compliance Matrix: (Units=1/GPa)
#
#
# Indices 1 2 3 4 5 6 
#
# 1 0.021851 -0.003523 -0.006354 0.000000 0.000000 0.000000
# 2 -0.003523 0.015361 -0.005700 0.000000 0.000000 0.000000
# 3 -0.006354 -0.005700 0.010784 0.000000 0.000000 0.000000
# 4 0.000000 0.000000 0.000000 0.110528 0.000000 0.000000
# 5 0.000000 0.000000 0.000000 0.000000 0.050271 0.000000
# 6 0.000000 0.000000 0.000000 0.000000 0.000000 0.046564
#
#
# Mechanical properties :
#
#
# Convention : Reuss Voigt Hill
#
# Bulk Modulus (GPa) = 59.37353 77.70982 68.54168
# Shear Modulus (GPa) = 17.11580 21.05647 19.08613
#
# Velocity S-wave (km/s) = 3.06951 3.40458 3.24138
# Velocity P-wave (km/s) = 6.72654 7.63102 7.19301
#
# Compressibility (1/GPa) = 0.01684252
#
# Stress axis : x y z
#
# Youngs Moduli (GPa) = 45.76404 65.09817 92.72676
#
# Poissons Ratio (x) = 0.22937 0.58921
# Poissons Ratio (y) = 0.16125 0.52850
# Poissons Ratio (z) = 0.29080 0.37103
#
# Static dielectric constant tensor:
#      x y z
#    x 3.223860 0.000000 0.000000 
#    y 0.000000 3.126190 0.000000 
#    z 0.000000 0.000000 3.606590 
# 
# 
# High freq. dielectric constant tensor:
#      x y z
#    x 1.685100 0.000000 0.000000 
#    y 0.000000 1.671590 0.000000 
#    z 0.000000 0.000000 1.724700 
# 
# From -- ./inp_files/76580.got.cif
#   From: 2010.03.12/outbox.cif.g09.slc.cpg/sg65_39_cif.got.tgz:76580.got - 2010.04.10 20:52:16.
