data_PCOD8270778
_publ_section_title
;
Structure prediction by ZEFSAII (Michael W. Deem and Ramdas Pophale) SiO2 
 PCOD8270778
Probable space group: C M M M
;
_chemical_formula_sum "Si O2"
_cell_formula_units_Z 80
_cell_length_a 29.163469
_cell_length_b 8.886894
_cell_length_c 16.713025
_cell_angle_alpha 90.000000
_cell_angle_beta 90.000000
_cell_angle_gamma 90.000000
_cell_volume 4331.559107
_symmetry_space_group_name_H-M "C M M M"
_symmetry_group_IT_number 65
_symmetry_cell_setting 'orthorhombic'
loop_
_space_group_symop_operation_xyz
x,y,z
-x,-y,z
x,-y,-z
-x,y,-z
-x,-y,-z
x,y,-z
-x,y,z
x,-y,z
1/2+x,1/2+y,z
1/2-x,1/2-y,z
1/2+x,1/2-y,-z
1/2-x,1/2+y,-z
1/2-x,1/2-y,-z
1/2+x,1/2+y,-z
1/2-x,1/2+y,z
1/2+x,1/2-y,z
loop_
_atom_site_type_symbol
_atom_site_label
_atom_site_fract_x
_atom_site_fract_y
_atom_site_fract_z
Si Si1 0.448704 0.176717 0.000000
Si Si2 0.129187 0.679013 0.880974
Si Si3 0.203295 0.677665 0.590690
Si Si4 0.121923 0.677586 0.700097
Si Si5 0.199256 0.819668 0.000000
Si Si6 0.446218 0.671070 0.411071
O O1 0.419080 0.225065 0.077636
O O2 0.500000 0.251676 0.000000
O O3 0.455592 0.000000 0.000000
O O4 0.137443 0.500000 0.888027
O O5 0.126014 0.737855 0.790275
O O6 0.172021 0.762696 0.921705
O O7 0.192495 0.728740 0.500000
O O8 0.207705 0.500000 0.596976
O O9 0.250000 0.750000 0.621902
O O10 0.163777 0.741778 0.647742
O O11 0.122172 0.500000 0.701154
O O12 0.075278 0.729655 0.658805
O O13 0.250000 0.750000 0.000000
O O14 0.202334 0.000000 0.000000
O O15 0.432375 0.730136 0.500000
O O16 0.500000 0.683370 0.399834
O O17 0.429636 0.500000 0.401482
#
# Coordination Sequence:
#
# PCOD8270778 Si02
#       6
#     8  16  16  16   8  16
#     4   8  14  28  51  73  96 130 164 196 242 301
#     4   9  19  35  53  78 109 135 168 213 259 313
#     4   9  18  32  48  68  96 129 166 206 248 297
#     4  10  20  33  52  78 106 134 168 216 266 310
#     4  11  22  38  60  80 103 138 176 214 261 314
#     4   9  19  35  52  72 103 144 186 224 263 309
#
# _framework density 18.469100000000001
#
# number of rings (size 3 to 8) (size 9 to 14) (size 15 to 20)
#    0.000    2.700    0.000    2.700    0.000    4.800 
#    0.000    7.000    0.000    4.800    0.000    0.000 
#    0.000    0.000    0.000    0.000    0.000    0.000 
#
# Total GULP energy -495902.141642 kJ/mol
# GULP energy per Si atom -12397.553541 kJ/mol
# Density = 1.842706 g / cm^3
# Si number density = 18.469100 Si / 1000 Ang^3
#
#
#
# Elastic Constant Matrix: (Units=GPa)
#
#
# Indices 1 2 3 4 5 6 
#
# 1 127.0600 30.9765 73.9212 0.0000 0.0000 0.0000
# 2 30.9765 29.5181 30.2305 0.0000 0.0000 0.0000
# 3 73.9212 30.2305 159.6095 0.0000 0.0000 0.0000
# 4 0.0000 0.0000 0.0000 21.4524 0.0000 0.0000
# 5 0.0000 0.0000 0.0000 0.0000 13.9559 0.0000
# 6 0.0000 0.0000 0.0000 0.0000 0.0000 30.4360
#
#
#
# Elastic Compliance Matrix: (Units=1/GPa)
#
#
# Indices 1 2 3 4 5 6 
#
# 1 0.012390 -0.008840 -0.004064 0.000000 0.000000 0.000000
# 2 -0.008840 0.048337 -0.005061 0.000000 0.000000 0.000000
# 3 -0.004064 -0.005061 0.009106 0.000000 0.000000 0.000000
# 4 0.000000 0.000000 0.000000 0.046615 0.000000 0.000000
# 5 0.000000 0.000000 0.000000 0.000000 0.071654 0.000000
# 6 0.000000 0.000000 0.000000 0.000000 0.000000 0.032856
#
#
# Mechanical properties :
#
#
# Convention : Reuss Voigt Hill
#
# Bulk Modulus (GPa) = 29.49559 65.16044 47.32802
# Shear Modulus (GPa) = 18.64358 25.23950 21.94154
#
# Velocity S-wave (km/s) = 3.18063 3.70074 3.45050
# Velocity P-wave (km/s) = 5.43078 7.32243 6.44637
#
# Compressibility (1/GPa) = 0.03390337
#
# Stress axis : x y z
#
# Youngs Moduli (GPa) = 80.71241 20.68790 109.81776
#
# Poissons Ratio (x) = 0.18288 0.44628
# Poissons Ratio (y) = 0.71349 0.55580
# Poissons Ratio (z) = 0.32800 0.10470
#
# Static dielectric constant tensor:
#      x y z
#    x 3.522680 0.000000 0.000000 
#    y 0.000000 3.196710 0.000000 
#    z 0.000000 0.000000 3.632400 
# 
# 
# High freq. dielectric constant tensor:
#      x y z
#    x 1.722430 0.000000 0.000000 
#    y 0.000000 1.692780 0.000000 
#    z 0.000000 0.000000 1.719610 
# 
# From -- ./inp_files/57285.got.cif
#   From: 2010.03.12/outbox.cif.g09.slc.cpg/sg65_29_cif.got.tgz:57285.got - 2010.04.10 20:52:16.
