data_PCOD8270025
_publ_section_title
;
Structure prediction by ZEFSAII (Michael W. Deem and Ramdas Pophale) SiO2 
 PCOD8270025
Probable space group: C M M M
;
_chemical_formula_sum "Si O2"
_cell_formula_units_Z 104
_cell_length_a 27.108104
_cell_length_b 8.766464
_cell_length_c 26.432942
_cell_angle_alpha 90.000000
_cell_angle_beta 90.000000
_cell_angle_gamma 90.000000
_cell_volume 6281.582960
_symmetry_space_group_name_H-M "C M M M"
_symmetry_group_IT_number 65
_symmetry_cell_setting 'orthorhombic'
loop_
_space_group_symop_operation_xyz
x,y,z
-x,-y,z
x,-y,-z
-x,y,-z
-x,-y,-z
x,y,-z
-x,y,z
x,-y,z
1/2+x,1/2+y,z
1/2-x,1/2-y,z
1/2+x,1/2-y,-z
1/2-x,1/2+y,-z
1/2-x,1/2-y,-z
1/2+x,1/2+y,-z
1/2-x,1/2+y,z
1/2+x,1/2-y,z
loop_
_atom_site_type_symbol
_atom_site_label
_atom_site_fract_x
_atom_site_fract_y
_atom_site_fract_z
Si Si1 0.303030 0.820629 0.352071
Si Si2 0.943546 0.176313 0.298353
Si Si3 0.606048 0.322244 0.403133
Si Si4 0.303710 0.178608 0.945213
Si Si5 0.195992 0.179377 0.845498
Si Si6 0.354917 0.176899 0.248068
Si Si7 0.056003 0.680445 0.500000
O O1 0.250000 0.750000 0.361980
O O2 0.340104 0.745308 0.391948
O O3 0.319774 0.781455 0.295095
O O4 0.301800 0.000000 0.361477
O O5 0.930388 0.210306 0.356445
O O6 0.911075 0.280544 0.261370
O O7 0.000000 0.221263 0.289072
O O8 0.933224 0.000000 0.285606
O O9 0.611324 0.500000 0.414798
O O10 0.583796 0.239112 0.450981
O O11 0.250000 0.250000 0.948099
O O12 0.330202 0.258560 0.897291
O O13 0.299454 0.000000 0.934282
O O14 0.330263 0.207970 0.000000
O O15 0.250000 0.250000 0.837654
O O16 0.161342 0.222972 0.799207
O O17 0.201477 0.000000 0.848660
O O18 0.351541 0.000000 0.233847
O O19 0.056896 0.500000 0.500000
O O20 0.000000 0.742728 0.500000
#
# Coordination Sequence:
#
# PCOD8270025 Si02
#       7
#    16  16  16  16  16  16   8
#     4  10  20  34  52  73  98 129 162 196 234 277
#     4   9  18  33  52  73  97 124 154 190 233 280
#     4  10  20  35  55  77 100 127 159 193 231 278
#     4   9  16  26  40  58  83 117 156 195 234 277
#     4  11  20  29  43  63  91 125 160 198 237 277
#     4  10  20  32  47  69  96 125 159 196 233 278
#     4  11  23  37  54  77 104 129 155 193 237 279
#
# _framework density 16.556336000000002
#
# number of rings (size 3 to 8) (size 9 to 14) (size 15 to 20)
#    0.000    2.077    0.000    5.308    0.000    6.154 
#    0.000    0.385    0.000    0.000    0.000    0.000 
#    0.000    0.615    0.000    6.462    0.000    2.769 
#
# Total GULP energy -644766.790198 kJ/mol
# GULP energy per Si atom -12399.361350 kJ/mol
# Density = 1.651865 g / cm^3
# Si number density = 16.556336 Si / 1000 Ang^3
#
#
#
# Elastic Constant Matrix: (Units=GPa)
#
#
# Indices 1 2 3 4 5 6 
#
# 1 93.7946 37.8737 48.5717 0.0000 0.0000 0.0000
# 2 37.8737 98.9784 55.1850 0.0000 0.0000 0.0000
# 3 48.5717 55.1850 118.8266 0.0000 0.0000 0.0000
# 4 0.0000 0.0000 0.0000 20.1155 0.0000 0.0000
# 5 0.0000 0.0000 0.0000 0.0000 14.3068 0.0000
# 6 0.0000 0.0000 0.0000 0.0000 0.0000 26.0623
#
#
#
# Elastic Compliance Matrix: (Units=1/GPa)
#
#
# Indices 1 2 3 4 5 6 
#
# 1 0.014136 -0.002952 -0.004407 0.000000 0.000000 0.000000
# 2 -0.002952 0.014250 -0.005411 0.000000 0.000000 0.000000
# 3 -0.004407 -0.005411 0.012730 0.000000 0.000000 0.000000
# 4 0.000000 0.000000 0.000000 0.049713 0.000000 0.000000
# 5 0.000000 0.000000 0.000000 0.000000 0.069897 0.000000
# 6 0.000000 0.000000 0.000000 0.000000 0.000000 0.038370
#
#
# Mechanical properties :
#
#
# Convention : Reuss Voigt Hill
#
# Bulk Modulus (GPa) = 64.20485 66.09561 65.15023
# Shear Modulus (GPa) = 21.75546 23.42821 22.59184
#
# Velocity S-wave (km/s) = 3.62888 3.76581 3.69798
# Velocity P-wave (km/s) = 7.51147 7.67572 7.59404
#
# Compressibility (1/GPa) = 0.01557515
#
# Stress axis : x y z
#
# Youngs Moduli (GPa) = 70.74216 70.17691 78.55312
#
# Poissons Ratio (x) = 0.20714 0.34621
# Poissons Ratio (y) = 0.20881 0.42507
# Poissons Ratio (z) = 0.31179 0.37974
#
# Static dielectric constant tensor:
#      x y z
#    x 2.932720 0.000000 0.000000 
#    y 0.000000 3.263460 0.000000 
#    z 0.000000 0.000000 3.446680 
# 
# 
# High freq. dielectric constant tensor:
#      x y z
#    x 1.605880 0.000000 0.000000 
#    y 0.000000 1.656260 0.000000 
#    z 0.000000 0.000000 1.639540 
# 
# From -- ./inp_files/75781.got.cif
#   From: 2010.03.12/outbox.cif.g09.slc.cpg/sg65_38_cif.got.tgz:75781.got - 2010.04.10 20:52:16.
