data_PCOD8270028
_publ_section_title
;
Structure prediction by ZEFSAII (Michael W. Deem and Ramdas Pophale) SiO2 
 PCOD8270028
Probable space group: C M M M
;
_chemical_formula_sum "Si O2"
_cell_formula_units_Z 64
_cell_length_a 33.464244
_cell_length_b 9.618102
_cell_length_c 10.417095
_cell_angle_alpha 90.000000
_cell_angle_beta 90.000000
_cell_angle_gamma 90.000000
_cell_volume 3352.872366
_symmetry_space_group_name_H-M "C M M M"
_symmetry_group_IT_number 65
_symmetry_cell_setting 'orthorhombic'
loop_
_space_group_symop_operation_xyz
x,y,z
-x,-y,z
x,-y,-z
-x,y,-z
-x,-y,-z
x,y,-z
-x,y,z
x,-y,z
1/2+x,1/2+y,z
1/2-x,1/2-y,z
1/2+x,1/2-y,-z
1/2-x,1/2+y,-z
1/2-x,1/2-y,-z
1/2+x,1/2+y,-z
1/2-x,1/2+y,z
1/2+x,1/2-y,z
loop_
_atom_site_type_symbol
_atom_site_label
_atom_site_fract_x
_atom_site_fract_y
_atom_site_fract_z
Si Si1 0.000000 0.842868 0.152385
Si Si2 0.782694 0.848512 0.145376
Si Si3 0.341647 0.842076 0.751583
Si Si4 0.426769 0.157682 0.148466
Si Si5 0.709010 0.838942 0.500000
O O1 0.039334 0.761946 0.200187
O O2 0.000000 0.000000 0.207366
O O3 0.000000 0.843405 0.000000
O O4 0.750000 0.750000 0.217234
O O5 0.824755 0.768817 0.146489
O O6 0.784675 0.000000 0.214042
O O7 0.769161 0.872367 0.000000
O O8 0.389338 0.822054 0.755298
O O9 0.320573 0.803508 0.617809
O O10 0.330974 0.000000 0.792883
O O11 0.442943 0.000000 0.158516
O O12 0.414794 0.189284 0.000000
O O13 0.750000 0.750000 0.500000
O O14 0.721652 0.000000 0.500000
#
# Coordination Sequence:
#
# PCOD8270028 Si02
#       5
#     8  16  16  16   8
#     4   9  17  29  47  74 107 136 160 193 240 295
#     4  10  20  32  47  69  97 127 159 199 249 304
#     4  10  20  34  52  73  98 129 168 212 254 298
#     4   9  17  30  50  75 102 132 164 199 244 300
#     4  10  22  38  54  73  98 131 173 218 259 300
#
# _framework density 19.088111999999999
#
# number of rings (size 3 to 8) (size 9 to 14) (size 15 to 20)
#    0.000    2.375    0.000    2.625    0.000    8.000 
#    0.000    2.500    0.000    0.750    0.000    5.250 
#    0.000    0.000    0.000    0.000    0.000    0.000 
#
# Total GULP energy -396536.308880 kJ/mol
# GULP energy per Si atom -12391.759652 kJ/mol
# Density = 1.904467 g / cm^3
# Si number density = 19.088112 Si / 1000 Ang^3
#
#
#
# Elastic Constant Matrix: (Units=GPa)
#
#
# Indices 1 2 3 4 5 6 
#
# 1 146.9841 94.6908 39.4496 0.0000 0.0000 0.0000
# 2 94.6908 165.0688 26.8279 0.0000 0.0000 0.0000
# 3 39.4496 26.8279 44.9928 0.0000 0.0000 0.0000
# 4 0.0000 0.0000 0.0000 13.8060 0.0000 0.0000
# 5 0.0000 0.0000 0.0000 0.0000 25.0950 0.0000
# 6 0.0000 0.0000 0.0000 0.0000 0.0000 36.4318
#
#
#
# Elastic Compliance Matrix: (Units=1/GPa)
#
#
# Indices 1 2 3 4 5 6 
#
# 1 0.012752 -0.006088 -0.007551 0.000000 0.000000 0.000000
# 2 -0.006088 0.009615 -0.000395 0.000000 0.000000 0.000000
# 3 -0.007551 -0.000395 0.029082 0.000000 0.000000 0.000000
# 4 0.000000 0.000000 0.000000 0.072432 0.000000 0.000000
# 5 0.000000 0.000000 0.000000 0.000000 0.039849 0.000000
# 6 0.000000 0.000000 0.000000 0.000000 0.000000 0.027449
#
#
# Mechanical properties :
#
#
# Convention : Reuss Voigt Hill
#
# Bulk Modulus (GPa) = 42.77002 75.44247 59.10624
# Shear Modulus (GPa) = 22.02258 28.13837 25.08047
#
# Velocity S-wave (km/s) = 3.40035 3.84361 3.62875
# Velocity P-wave (km/s) = 6.15400 7.70109 6.97060
#
# Compressibility (1/GPa) = 0.02338087
#
# Stress axis : x y z
#
# Youngs Moduli (GPa) = 78.41843 104.00854 34.38555
#
# Poissons Ratio (x) = 0.63320 0.25964
# Poissons Ratio (y) = 0.47741 0.01358
# Poissons Ratio (z) = 0.59214 0.04108
#
# Static dielectric constant tensor:
#      x y z
#    x 3.461190 0.000000 0.000000 
#    y 0.000000 3.882750 0.000000 
#    z 0.000000 0.000000 3.146120 
# 
# 
# High freq. dielectric constant tensor:
#      x y z
#    x 1.738790 0.000000 0.000000 
#    y 0.000000 1.754430 0.000000 
#    z 0.000000 0.000000 1.697020 
# 
# From -- ./inp_files/20971.got.cif
#   From: 2010.03.12/outbox.cif.g09.slc.cpg/sg65_11_cif.got.tgz:20971.got - 2010.04.10 20:52:16.
