data_PCOD8270847
_publ_section_title
;
Structure prediction by ZEFSAII (Michael W. Deem and Ramdas Pophale) SiO2 
 PCOD8270847
Probable space group: C M M M
;
_chemical_formula_sum "Si O2"
_cell_formula_units_Z 80
_cell_length_a 8.915388
_cell_length_b 19.477864
_cell_length_c 25.441276
_cell_angle_alpha 90.000000
_cell_angle_beta 90.000000
_cell_angle_gamma 90.000000
_cell_volume 4417.946650
_symmetry_space_group_name_H-M "C M M M"
_symmetry_group_IT_number 65
_symmetry_cell_setting 'orthorhombic'
loop_
_space_group_symop_operation_xyz
x,y,z
-x,-y,z
x,-y,-z
-x,y,-z
-x,-y,-z
x,y,-z
-x,y,z
x,-y,z
1/2+x,1/2+y,z
1/2-x,1/2-y,z
1/2+x,1/2-y,-z
1/2-x,1/2+y,-z
1/2-x,1/2-y,-z
1/2+x,1/2+y,-z
1/2-x,1/2+y,z
1/2+x,1/2-y,z
loop_
_atom_site_type_symbol
_atom_site_label
_atom_site_fract_x
_atom_site_fract_y
_atom_site_fract_z
Si Si1 0.171711 0.921127 0.938917
Si Si2 0.672468 0.920992 0.559952
Si Si3 0.822909 0.324720 0.141658
Si Si4 0.826235 0.823046 0.640687
Si Si5 0.824354 0.176293 0.243691
O O1 0.283628 0.872679 0.907222
O O2 0.000000 0.904547 0.923708
O O3 0.209047 0.000000 0.925756
O O4 0.198825 0.906260 0.000000
O O5 0.701133 0.898222 0.500000
O O6 0.500000 0.909317 0.575197
O O7 0.775081 0.876474 0.597407
O O8 0.717414 0.000000 0.567389
O O9 0.750000 0.250000 0.133443
O O10 0.757454 0.361653 0.194858
O O11 0.000000 0.316576 0.146227
O O12 0.750000 0.750000 0.632309
O O13 0.794628 0.856390 0.698642
O O14 0.000000 0.808741 0.633398
O O15 0.750000 0.250000 0.245915
O O16 0.000000 0.181520 0.231291
#
# Coordination Sequence:
#
# PCOD8270847 Si02
#       5
#    16  16  16  16  16
#     4   9  19  37  58  77 101 135 171 209 257 307
#     4   9  19  36  55  74 100 135 171 209 256 305
#     4  11  21  33  53  79 106 136 171 211 253 299
#     4  10  20  33  53  79 104 133 169 210 254 300
#     4   9  17  31  50  73 102 134 168 207 253 302
#
# _framework density 18.107959000000001
#
# number of rings (size 3 to 8) (size 9 to 14) (size 15 to 20)
#    0.000    2.400    0.000    5.400    0.000    4.800 
#    0.000    3.000    0.000    1.200    0.000    0.000 
#    0.000    0.000    0.000    0.000    0.000    0.000 
#
# Total GULP energy -495796.008810 kJ/mol
# GULP energy per Si atom -12394.900220 kJ/mol
# Density = 1.806674 g / cm^3
# Si number density = 18.107959 Si / 1000 Ang^3
#
#
#
# Elastic Constant Matrix: (Units=GPa)
#
#
# Indices 1 2 3 4 5 6 
#
# 1 120.6717 45.1109 64.7200 0.0000 0.0000 0.0000
# 2 45.1109 62.9872 56.9661 0.0000 0.0000 0.0000
# 3 64.7200 56.9661 117.9639 0.0000 0.0000 0.0000
# 4 0.0000 0.0000 0.0000 -35.5880 0.0000 0.0000
# 5 0.0000 0.0000 0.0000 0.0000 31.8430 0.0000
# 6 0.0000 0.0000 0.0000 0.0000 0.0000 29.2816
#
#
#
# Elastic Compliance Matrix: (Units=1/GPa)
#
#
# Indices 1 2 3 4 5 6 
#
# 1 0.012539 -0.004898 -0.004514 0.000000 0.000000 0.000000
# 2 -0.004898 0.030100 -0.011849 0.000000 0.000000 0.000000
# 3 -0.004514 -0.011849 0.016676 0.000000 0.000000 0.000000
# 4 0.000000 0.000000 0.000000 -0.028099 0.000000 0.000000
# 5 0.000000 0.000000 0.000000 0.000000 0.031404 0.000000
# 6 0.000000 0.000000 0.000000 0.000000 0.000000 0.034151
#
#
# Mechanical properties :
#
#
# Convention : Reuss Voigt Hill
#
# Bulk Modulus (GPa) = 59.54630 70.57964 65.06297
# Shear Modulus (GPa) = 34.50922 14.09571 24.30246
#
# Velocity S-wave (km/s) = 4.37022 2.79306 3.66743
# Velocity P-wave (km/s) = 7.64334 7.03301 7.34452
#
# Compressibility (1/GPa) = 0.01679365
#
# Stress axis : x y z
#
# Youngs Moduli (GPa) = 79.75128 33.22293 59.96746
#
# Poissons Ratio (x) = 0.16271 0.27071
# Poissons Ratio (y) = 0.39058 0.71052
# Poissons Ratio (z) = 0.36003 0.39364
#
# Static dielectric constant tensor:
#      x y z
#    x 3.356460 0.000000 0.000000 
#    y 0.000000 3.017360 0.000000 
#    z 0.000000 0.000000 3.960280 
# 
# 
# High freq. dielectric constant tensor:
#      x y z
#    x 1.709940 0.000000 0.000000 
#    y 0.000000 1.668860 0.000000 
#    z 0.000000 0.000000 1.719290 
# 
# From -- ./inp_files/72817.got.cif
#   From: 2010.03.12/outbox.cif.g09.slc.cpg/sg65_37_cif.got.tgz:72817.got - 2010.04.10 20:52:16.
