data_PCOD8270941
_publ_section_title
;
Structure prediction by ZEFSAII (Michael W. Deem and Ramdas Pophale) SiO2 
 PCOD8270941
Probable space group: C M M M
;
_chemical_formula_sum "Si O2"
_cell_formula_units_Z 80
_cell_length_a 28.646779
_cell_length_b 8.108010
_cell_length_c 22.251391
_cell_angle_alpha 90.000000
_cell_angle_beta 90.000000
_cell_angle_gamma 90.000000
_cell_volume 5168.294331
_symmetry_space_group_name_H-M "C M M M"
_symmetry_group_IT_number 65
_symmetry_cell_setting 'orthorhombic'
loop_
_space_group_symop_operation_xyz
x,y,z
-x,-y,z
x,-y,-z
-x,y,-z
-x,-y,-z
x,y,-z
-x,y,z
x,-y,z
1/2+x,1/2+y,z
1/2-x,1/2-y,z
1/2+x,1/2-y,-z
1/2-x,1/2+y,-z
1/2-x,1/2-y,-z
1/2+x,1/2+y,-z
1/2-x,1/2+y,z
1/2+x,1/2-y,z
loop_
_atom_site_type_symbol
_atom_site_label
_atom_site_fract_x
_atom_site_fract_y
_atom_site_fract_z
Si Si1 0.699756 0.694221 0.068551
Si Si2 0.446301 0.806564 0.768737
Si Si3 0.944337 0.500000 0.431581
Si Si4 0.949214 0.189560 0.000000
Si Si5 0.555365 0.683431 0.359564
Si Si6 0.605656 0.809328 0.885875
O O1 0.694451 0.500000 0.071995
O O2 0.750000 0.750000 0.093472
O O3 0.660914 0.776708 0.110762
O O4 0.693558 0.757535 0.000000
O O5 0.500000 0.766562 0.784268
O O6 0.429454 0.711695 0.709277
O O7 0.414666 0.739239 0.823413
O O8 0.439413 0.000000 0.756912
O O9 0.926997 0.500000 0.500000
O O10 0.924265 0.667679 0.400638
O O11 0.000000 0.500000 0.426994
O O12 0.919578 0.227006 0.058493
O O13 0.000000 0.281435 0.000000
O O14 0.959746 0.000000 0.000000
O O15 0.500000 0.689842 0.364254
O O16 0.573114 0.500000 0.379978
O O17 0.594125 0.000000 0.889060
#
# Coordination Sequence:
#
# PCOD8270941 Si02
#       6
#    16  16   8   8  16  16
#     4  10  20  34  51  67  86 108 136 178 227 275
#     4   9  17  30  45  61  85 117 151 187 223 265
#     4   9  16  26  40  58  84 113 145 189 227 258
#     4  11  23  35  44  59  88 117 143 185 233 269
#     4   9  16  26  41  59  81 112 149 187 224 262
#     4  11  21  32  49  68  86 111 146 184 227 279
#
# _framework density 15.478994
#
# number of rings (size 3 to 8) (size 9 to 14) (size 15 to 20)
#    0.000    2.200    2.000    2.100    0.000    4.400 
#    0.000    4.000    0.000    0.000    0.000    0.000 
#    0.000    0.000    0.000    0.000    0.000    1.000 
#
# Total GULP energy -495883.111276 kJ/mol
# GULP energy per Si atom -12397.077782 kJ/mol
# Density = 1.544376 g / cm^3
# Si number density = 15.478994 Si / 1000 Ang^3
#
#
#
# Elastic Constant Matrix: (Units=GPa)
#
#
# Indices 1 2 3 4 5 6 
#
# 1 68.3652 14.0043 33.6400 0.0000 0.0000 0.0000
# 2 14.0043 82.1135 50.8995 0.0000 0.0000 0.0000
# 3 33.6400 50.8995 103.5644 0.0000 0.0000 0.0000
# 4 0.0000 0.0000 0.0000 11.1564 0.0000 0.0000
# 5 0.0000 0.0000 0.0000 0.0000 2.2741 0.0000
# 6 0.0000 0.0000 0.0000 0.0000 0.0000 16.4319
#
#
#
# Elastic Compliance Matrix: (Units=1/GPa)
#
#
# Indices 1 2 3 4 5 6 
#
# 1 0.017444 0.000773 -0.006046 0.000000 0.000000 0.000000
# 2 0.000773 0.017548 -0.008875 0.000000 0.000000 0.000000
# 3 -0.006046 -0.008875 0.015982 0.000000 0.000000 0.000000
# 4 0.000000 0.000000 0.000000 0.089635 0.000000 0.000000
# 5 0.000000 0.000000 0.000000 0.000000 0.439740 0.000000
# 6 0.000000 0.000000 0.000000 0.000000 0.000000 0.060857
#
#
# Mechanical properties :
#
#
# Convention : Reuss Voigt Hill
#
# Bulk Modulus (GPa) = 44.09875 50.12564 47.11220
# Shear Modulus (GPa) = 7.38485 16.33909 11.86197
#
# Velocity S-wave (km/s) = 2.18660 3.25247 2.77126
# Velocity P-wave (km/s) = 5.90984 6.82335 6.38296
#
# Compressibility (1/GPa) = 0.02267638
#
# Stress axis : x y z
#
# Youngs Moduli (GPa) = 57.32615 56.98626 62.57137
#
# Poissons Ratio (x) = -0.04403 0.37830
# Poissons Ratio (y) = -0.04429 0.55535
# Poissons Ratio (z) = 0.34659 0.50578
#
# Static dielectric constant tensor:
#      x y z
#    x 2.750220 0.000000 0.000000 
#    y 0.000000 3.138240 0.000000 
#    z 0.000000 0.000000 2.962030 
# 
# 
# High freq. dielectric constant tensor:
#      x y z
#    x 1.545290 0.000000 0.000000 
#    y 0.000000 1.609440 0.000000 
#    z 0.000000 0.000000 1.576350 
# 
# From -- ./inp_files/66162.got.cif
#   From: 2010.03.12/outbox.cif.g09.slc.cpg/sg65_34_cif.got.tgz:66162.got - 2010.04.10 20:52:16.
