data_PCOD8270018
_publ_section_title
;
Structure prediction by ZEFSAII (Michael W. Deem and Ramdas Pophale) SiO2 
 PCOD8270018
Probable space group: C M M M
;
_chemical_formula_sum "Si O2"
_cell_formula_units_Z 96
_cell_length_a 24.989720
_cell_length_b 25.078505
_cell_length_c 9.125081
_cell_angle_alpha 90.000000
_cell_angle_beta 90.000000
_cell_angle_gamma 90.000000
_cell_volume 5718.732227
_symmetry_space_group_name_H-M "C M M M"
_symmetry_group_IT_number 65
_symmetry_cell_setting 'orthorhombic'
loop_
_space_group_symop_operation_xyz
x,y,z
-x,-y,z
x,-y,-z
-x,y,-z
-x,-y,-z
x,y,-z
-x,y,z
x,-y,z
1/2+x,1/2+y,z
1/2-x,1/2-y,z
1/2+x,1/2-y,-z
1/2-x,1/2+y,-z
1/2-x,1/2-y,-z
1/2+x,1/2+y,-z
1/2-x,1/2+y,z
1/2+x,1/2-y,z
loop_
_atom_site_type_symbol
_atom_site_label
_atom_site_fract_x
_atom_site_fract_y
_atom_site_fract_z
Si Si1 0.242114 0.563270 0.662699
Si Si2 0.139156 0.436909 0.167878
Si Si3 0.437206 0.139371 0.329622
Si Si4 0.063588 0.744261 0.834601
Si Si5 0.640224 0.559234 0.325640
Si Si6 0.561756 0.349612 0.327823
O O1 0.232104 0.587256 0.500000
O O2 0.240601 0.500000 0.652659
O O3 0.196128 0.584276 0.771322
O O4 0.300801 0.579813 0.723662
O O5 0.134128 0.500000 0.185942
O O6 0.091196 0.411692 0.260112
O O7 0.134366 0.419051 0.000000
O O8 0.423253 0.143359 0.500000
O O9 0.500000 0.132023 0.302778
O O10 0.415020 0.192708 0.251916
O O11 0.083999 0.797407 0.753933
O O12 0.000000 0.743815 0.832794
O O13 0.085953 0.743121 0.000000
O O14 0.639322 0.556186 0.500000
O O15 0.628089 0.500000 0.261725
O O16 0.595386 0.600039 0.268213
O O17 0.569877 0.340382 0.500000
O O18 0.500000 0.360929 0.289830
#
# Coordination Sequence:
#
# PCOD8270018 Si02
#       6
#    16  16  16  16  16  16
#     4   8  14  27  46  64  85 118 159 195 224 261
#     4  10  20  32  47  69  96 123 150 182 223 270
#     4  10  20  33  50  71  93 118 150 186 223 266
#     4   9  17  30  47  65  88 120 156 190 225 268
#     4   8  14  25  43  68  95 123 156 193 231 269
#     4   9  16  26  43  68  96 124 155 191 229 271
#
# _framework density 16.786937999999999
#
# number of rings (size 3 to 8) (size 9 to 14) (size 15 to 20)
#    0.000    3.000    0.000    2.500    0.000    4.667 
#    0.000    4.167    0.000    2.500    0.000    9.333 
#    0.000    0.000    0.000    0.000    0.000    0.000 
#
# Total GULP energy -595052.559127 kJ/mol
# GULP energy per Si atom -12396.928315 kJ/mol
# Density = 1.674873 g / cm^3
# Si number density = 16.786938 Si / 1000 Ang^3
#
#
#
# Elastic Constant Matrix: (Units=GPa)
#
#
# Indices 1 2 3 4 5 6 
#
# 1 78.5034 48.8945 47.9700 0.0000 0.0000 0.0000
# 2 48.8945 78.6838 45.8097 0.0000 0.0000 0.0000
# 3 47.9700 45.8097 90.6445 0.0000 0.0000 0.0000
# 4 0.0000 0.0000 0.0000 20.6908 0.0000 0.0000
# 5 0.0000 0.0000 0.0000 0.0000 15.3813 0.0000
# 6 0.0000 0.0000 0.0000 0.0000 0.0000 5.5597
#
#
#
# Elastic Compliance Matrix: (Units=1/GPa)
#
#
# Indices 1 2 3 4 5 6 
#
# 1 0.023711 -0.010526 -0.007229 0.000000 0.000000 0.000000
# 2 -0.010526 0.022680 -0.005892 0.000000 0.000000 0.000000
# 3 -0.007229 -0.005892 0.017835 0.000000 0.000000 0.000000
# 4 0.000000 0.000000 0.000000 0.048331 0.000000 0.000000
# 5 0.000000 0.000000 0.000000 0.000000 0.065014 0.000000
# 6 0.000000 0.000000 0.000000 0.000000 0.000000 0.179866
#
#
# Mechanical properties :
#
#
# Convention : Reuss Voigt Hill
#
# Bulk Modulus (GPa) = 59.05238 59.24224 59.14731
# Shear Modulus (GPa) = 12.18403 15.33687 13.76045
#
# Velocity S-wave (km/s) = 2.69700 3.02589 2.86617
# Velocity P-wave (km/s) = 6.70465 6.89749 6.80175
#
# Compressibility (1/GPa) = 0.01693412
#
# Stress axis : x y z
#
# Youngs Moduli (GPa) = 42.17410 44.09192 56.06907
#
# Poissons Ratio (x) = 0.46410 0.40531
# Poissons Ratio (y) = 0.44391 0.33034
# Poissons Ratio (z) = 0.30487 0.25977
#
# Static dielectric constant tensor:
#      x y z
#    x 3.189490 0.000000 0.000000 
#    y 0.000000 3.138760 0.000000 
#    z 0.000000 0.000000 3.156540 
# 
# 
# High freq. dielectric constant tensor:
#      x y z
#    x 1.630310 0.000000 0.000000 
#    y 0.000000 1.631390 0.000000 
#    z 0.000000 0.000000 1.638160 
# 
# From -- ./inp_files/14326.got.cif
#   From: 2010.03.12/outbox.cif.g09.slc.cpg/sg65_8_cif.got.tgz:14326.got - 2010.04.10 20:52:16.
