data_PCOD8270821
_publ_section_title
;
Structure prediction by ZEFSAII (Michael W. Deem and Ramdas Pophale) SiO2 
 PCOD8270821
Probable space group: C M M M
;
_chemical_formula_sum "Si O2"
_cell_formula_units_Z 120
_cell_length_a 28.612510
_cell_length_b 9.925165
_cell_length_c 22.793724
_cell_angle_alpha 90.000000
_cell_angle_beta 90.000000
_cell_angle_gamma 90.000000
_cell_volume 6473.050245
_symmetry_space_group_name_H-M "C M M M"
_symmetry_group_IT_number 65
_symmetry_cell_setting 'orthorhombic'
loop_
_space_group_symop_operation_xyz
x,y,z
-x,-y,z
x,-y,-z
-x,y,-z
-x,-y,-z
x,y,-z
-x,y,z
x,-y,z
1/2+x,1/2+y,z
1/2-x,1/2-y,z
1/2+x,1/2-y,-z
1/2-x,1/2+y,-z
1/2-x,1/2-y,-z
1/2+x,1/2+y,-z
1/2-x,1/2+y,z
1/2+x,1/2-y,z
loop_
_atom_site_type_symbol
_atom_site_label
_atom_site_fract_x
_atom_site_fract_y
_atom_site_fract_z
Si Si1 0.447200 0.848538 0.377984
Si Si2 0.873450 0.845873 0.932837
Si Si3 0.294564 0.341195 0.159447
Si Si4 0.365094 0.659076 0.395783
Si Si5 0.351886 0.649854 0.267827
Si Si6 0.448604 0.246382 0.750389
Si Si7 0.446946 0.149360 0.122178
Si Si8 0.704850 0.656447 0.500000
O O1 0.500000 0.812437 0.397992
O O2 0.412416 0.742284 0.409410
O O3 0.443648 0.845202 0.307380
O O4 0.434068 0.000000 0.398017
O O5 0.827313 0.814524 0.896038
O O6 0.916222 0.757471 0.911074
O O7 0.889021 0.000000 0.924181
O O8 0.861706 0.812412 0.000000
O O9 0.281946 0.500000 0.164669
O O10 0.250000 0.250000 0.148804
O O11 0.320397 0.280833 0.217680
O O12 0.377821 0.500000 0.394270
O O13 0.345175 0.711970 0.332925
O O14 0.325870 0.691284 0.443295
O O15 0.333013 0.500000 0.270479
O O16 0.406715 0.645632 0.250080
O O17 0.500000 0.317809 0.751097
O O18 0.442229 0.154633 0.807472
O O19 0.500000 0.177715 0.103027
O O20 0.431286 0.000000 0.102712
O O21 0.720171 0.500000 0.500000
O O22 0.750000 0.750000 0.500000
#
# Coordination Sequence:
#
# PCOD8270821 Si02
#       8
#    16  16  16  16  16  16  16   8
#     4   9  17  30  50  79 114 147 179 217 260 309
#     4  10  22  40  58  75 101 138 178 219 263 315
#     4  10  21  38  56  78 104 130 167 218 272 321
#     4   9  19  35  55  79 109 143 180 220 262 311
#     4   9  17  32  53  79 110 139 171 216 263 310
#     4   9  16  28  49  78 111 144 175 210 257 311
#     4  10  20  33  52  80 112 143 175 213 257 309
#     4  10  22  40  59  80 107 141 182 227 271 320
#
# _framework density 18.538401
#
# number of rings (size 3 to 8) (size 9 to 14) (size 15 to 20)
#    0.000    2.533    1.333    0.400    0.000    4.800 
#    0.000    6.333    0.000    2.000    0.000    0.000 
#    0.000    0.000    0.000    0.000    0.000    0.000 
#
# Total GULP energy -743598.237322 kJ/mol
# GULP energy per Si atom -12393.303955 kJ/mol
# Density = 1.849621 g / cm^3
# Si number density = 18.538401 Si / 1000 Ang^3
#
#
#
# Elastic Constant Matrix: (Units=GPa)
#
#
# Indices 1 2 3 4 5 6 
#
# 1 135.0652 75.4919 74.2649 0.0000 0.0000 0.0000
# 2 75.4919 84.4339 48.1860 0.0000 0.0000 0.0000
# 3 74.2649 48.1860 109.3730 0.0000 0.0000 0.0000
# 4 0.0000 0.0000 0.0000 16.6957 0.0000 0.0000
# 5 0.0000 0.0000 0.0000 0.0000 21.0688 0.0000
# 6 0.0000 0.0000 0.0000 0.0000 0.0000 38.2861
#
#
#
# Elastic Compliance Matrix: (Units=1/GPa)
#
#
# Indices 1 2 3 4 5 6 
#
# 1 0.017956 -0.012151 -0.006839 0.000000 0.000000 0.000000
# 2 -0.012151 0.024045 -0.002343 0.000000 0.000000 0.000000
# 3 -0.006839 -0.002343 0.014818 0.000000 0.000000 0.000000
# 4 0.000000 0.000000 0.000000 0.059896 0.000000 0.000000
# 5 0.000000 0.000000 0.000000 0.000000 0.047464 0.000000
# 6 0.000000 0.000000 0.000000 0.000000 0.000000 0.026119
#
#
# Mechanical properties :
#
#
# Convention : Reuss Voigt Hill
#
# Bulk Modulus (GPa) = 70.65034 80.52865 75.58949
# Shear Modulus (GPa) = 21.03661 23.93872 22.48767
#
# Velocity S-wave (km/s) = 3.37227 3.59737 3.48664
# Velocity P-wave (km/s) = 7.30452 7.79666 7.55460
#
# Compressibility (1/GPa) = 0.01415421
#
# Stress axis : x y z
#
# Youngs Moduli (GPa) = 55.69242 41.58883 67.48328
#
# Poissons Ratio (x) = 0.50536 0.46149
# Poissons Ratio (y) = 0.67674 0.15808
# Poissons Ratio (z) = 0.38086 0.09742
#
# Static dielectric constant tensor:
#      x y z
#    x 3.362530 0.000000 0.000000 
#    y 0.000000 3.212570 0.000000 
#    z 0.000000 0.000000 3.543160 
# 
# 
# High freq. dielectric constant tensor:
#      x y z
#    x 1.712100 0.000000 0.000000 
#    y 0.000000 1.701440 0.000000 
#    z 0.000000 0.000000 1.720500 
# 
# From -- ./inp_files/66095.got.cif
#   From: 2010.03.12/outbox.cif.g09.slc.cpg/sg65_34_cif.got.tgz:66095.got - 2010.04.10 20:52:16.
