data_PCOD8270649
_publ_section_title
;
Structure prediction by ZEFSAII (Michael W. Deem and Ramdas Pophale) SiO2 
 PCOD8270649
Probable space group: C M M M
;
_chemical_formula_sum "Si O2"
_cell_formula_units_Z 80
_cell_length_a 18.461534
_cell_length_b 27.008249
_cell_length_c 8.648960
_cell_angle_alpha 90.000000
_cell_angle_beta 90.000000
_cell_angle_gamma 90.000000
_cell_volume 4312.490009
_symmetry_space_group_name_H-M "C M M M"
_symmetry_group_IT_number 65
_symmetry_cell_setting 'orthorhombic'
loop_
_space_group_symop_operation_xyz
x,y,z
-x,-y,z
x,-y,-z
-x,y,-z
-x,-y,-z
x,y,-z
-x,y,z
x,-y,z
1/2+x,1/2+y,z
1/2-x,1/2-y,z
1/2+x,1/2-y,-z
1/2-x,1/2+y,-z
1/2-x,1/2-y,-z
1/2+x,1/2+y,-z
1/2-x,1/2+y,z
1/2+x,1/2-y,z
loop_
_atom_site_type_symbol
_atom_site_label
_atom_site_fract_x
_atom_site_fract_y
_atom_site_fract_z
Si Si1 0.656311 0.055789 0.819752
Si Si2 0.918045 0.352600 0.680761
Si Si3 0.285232 0.199331 0.818162
Si Si4 0.917765 0.943093 0.177369
Si Si5 0.213087 0.106785 0.320604
O O1 0.596489 0.094667 0.762094
O O2 0.731863 0.063558 0.730201
O O3 0.628598 0.000000 0.787676
O O4 0.670760 0.064754 0.000000
O O5 0.905519 0.360221 0.500000
O O6 0.863531 0.310212 0.740479
O O7 0.000000 0.335929 0.718480
O O8 0.250000 0.250000 0.755435
O O9 0.229879 0.155854 0.776482
O O10 0.297726 0.201757 0.000000
O O11 0.868575 0.909707 0.287315
O O12 0.000000 0.925141 0.199891
O O13 0.910095 0.000000 0.227353
O O14 0.893490 0.936488 0.000000
O O15 0.222908 0.118679 0.500000
#
# Coordination Sequence:
#
# PCOD8270649 Si02
#       5
#    16  16  16  16  16
#     4  10  20  33  51  75 104 141 181 215 248 294
#     4  10  21  36  55  80 109 139 169 207 258 309
#     4  10  21  38  60  81 100 130 173 216 258 305
#     4   9  18  33  52  73 101 139 178 215 256 302
#     4  11  21  32  51  77 105 136 169 212 263 311
#
# _framework density 18.550767
#
# number of rings (size 3 to 8) (size 9 to 14) (size 15 to 20)
#    0.000    2.000    0.000    7.200    0.000    8.400 
#    0.000    4.000    0.000    1.200    0.000    0.000 
#    0.000    0.000    0.000    0.000    0.000    0.000 
#
# Total GULP energy -496065.266604 kJ/mol
# GULP energy per Si atom -12401.631665 kJ/mol
# Density = 1.850854 g / cm^3
# Si number density = 18.550767 Si / 1000 Ang^3
#
#
#
# Elastic Constant Matrix: (Units=GPa)
#
#
# Indices 1 2 3 4 5 6 
#
# 1 122.4053 53.1532 29.6202 0.0000 0.0000 0.0000
# 2 53.1532 103.2356 23.5129 0.0000 0.0000 0.0000
# 3 29.6202 23.5129 58.8416 0.0000 0.0000 0.0000
# 4 0.0000 0.0000 0.0000 8.7638 0.0000 0.0000
# 5 0.0000 0.0000 0.0000 0.0000 32.1716 0.0000
# 6 0.0000 0.0000 0.0000 0.0000 0.0000 19.4584
#
#
#
# Elastic Compliance Matrix: (Units=1/GPa)
#
#
# Indices 1 2 3 4 5 6 
#
# 1 0.011198 -0.004930 -0.003667 0.000000 0.000000 0.000000
# 2 -0.004930 0.012827 -0.002644 0.000000 0.000000 0.000000
# 3 -0.003667 -0.002644 0.019897 0.000000 0.000000 0.000000
# 4 0.000000 0.000000 0.000000 0.114105 0.000000 0.000000
# 5 0.000000 0.000000 0.000000 0.000000 0.031083 0.000000
# 6 0.000000 0.000000 0.000000 0.000000 0.000000 0.051392
#
#
# Mechanical properties :
#
#
# Convention : Reuss Voigt Hill
#
# Bulk Modulus (GPa) = 46.64110 55.22835 50.93472
# Shear Modulus (GPa) = 18.50955 23.95851 21.23403
#
# Velocity S-wave (km/s) = 3.16219 3.59766 3.38693
# Velocity P-wave (km/s) = 6.20722 6.86248 6.54306
#
# Compressibility (1/GPa) = 0.02144032
#
# Stress axis : x y z
#
# Youngs Moduli (GPa) = 89.30317 77.95912 50.25869
#
# Poissons Ratio (x) = 0.38436 0.18428
# Poissons Ratio (y) = 0.44029 0.13288
# Poissons Ratio (z) = 0.32745 0.20611
#
# Static dielectric constant tensor:
#      x y z
#    x 3.400790 0.000000 0.000000 
#    y 0.000000 3.347980 0.000000 
#    z 0.000000 0.000000 3.462640 
# 
# 
# High freq. dielectric constant tensor:
#      x y z
#    x 1.719000 0.000000 0.000000 
#    y 0.000000 1.703610 0.000000 
#    z 0.000000 0.000000 1.729290 
# 
# From -- ./inp_files/9662.got.cif
#   From: 2010.03.12/outbox.cif.g09.slc.cpg/sg65_5_cif.got.tgz:9662.got - 2010.04.10 20:52:16.
