data_PCOD8270749
_publ_section_title
;
Structure prediction by ZEFSAII (Michael W. Deem and Ramdas Pophale) SiO2 
 PCOD8270749
Probable space group: C M M M
;
_chemical_formula_sum "Si O2"
_cell_formula_units_Z 80
_cell_length_a 17.813746
_cell_length_b 30.830379
_cell_length_c 7.746461
_cell_angle_alpha 90.000000
_cell_angle_beta 90.000000
_cell_angle_gamma 90.000000
_cell_volume 4254.391555
_symmetry_space_group_name_H-M "C M M M"
_symmetry_group_IT_number 65
_symmetry_cell_setting 'orthorhombic'
loop_
_space_group_symop_operation_xyz
x,y,z
-x,-y,z
x,-y,-z
-x,y,-z
-x,-y,-z
x,y,-z
-x,y,z
x,-y,z
1/2+x,1/2+y,z
1/2-x,1/2-y,z
1/2+x,1/2-y,-z
1/2-x,1/2+y,-z
1/2-x,1/2-y,-z
1/2+x,1/2+y,-z
1/2-x,1/2+y,z
1/2+x,1/2-y,z
loop_
_atom_site_type_symbol
_atom_site_label
_atom_site_fract_x
_atom_site_fract_y
_atom_site_fract_z
Si Si1 0.718545 0.451786 0.202446
Si Si2 0.833461 0.181792 0.190936
Si Si3 0.314269 0.870353 0.799360
Si Si4 0.588697 0.163930 0.500000
Si Si5 0.838068 0.756859 0.500000
Si Si6 0.416316 0.600633 0.695905
O O1 0.742939 0.500000 0.262669
O O2 0.782539 0.417519 0.256495
O O3 0.638500 0.440520 0.287156
O O4 0.706191 0.449312 0.000000
O O5 0.749242 0.165927 0.234231
O O6 0.860997 0.216956 0.328300
O O7 0.887839 0.140292 0.187666
O O8 0.835961 0.202902 0.000000
O O9 0.383085 0.859927 0.673592
O O10 0.340177 0.870145 0.000000
O O11 0.500000 0.161454 0.500000
O O12 0.614695 0.213362 0.500000
O O13 0.750000 0.750000 0.500000
O O14 0.415832 0.617209 0.500000
O O15 0.500000 0.586916 0.754411
#
# Coordination Sequence:
#
# PCOD8270749 Si02
#       6
#    16  16  16   8   8  16
#     4   9  19  35  57  85 112 146 196 241 280 332
#     4  10  20  36  61  85 108 152 203 233 271 332
#     4   9  19  38  61  84 113 149 189 231 277 334
#     4  12  26  40  59  87 115 147 185 227 291 352
#     4  12  22  38  60  84 115 146 180 239 286 328
#     4  10  20  33  51  79 121 162 194 232 279 328
#
# _framework density 18.804099999999998
#
# number of rings (size 3 to 8) (size 9 to 14) (size 15 to 20)
#    0.000    2.000    3.000    1.800    4.200    4.800 
#    0.000    2.000    0.000    1.200    0.000    2.800 
#    0.000    0.000    0.000    0.000    0.000    0.000 
#
# Total GULP energy -495991.734247 kJ/mol
# GULP energy per Si atom -12399.793356 kJ/mol
# Density = 1.876130 g / cm^3
# Si number density = 18.804100 Si / 1000 Ang^3
#
#
#
# Elastic Constant Matrix: (Units=GPa)
#
#
# Indices 1 2 3 4 5 6 
#
# 1 123.5605 56.5508 53.6053 0.0000 0.0000 0.0000
# 2 56.5508 116.0181 51.8603 0.0000 0.0000 0.0000
# 3 53.6053 51.8603 106.0665 0.0000 0.0000 0.0000
# 4 0.0000 0.0000 0.0000 24.0626 0.0000 0.0000
# 5 0.0000 0.0000 0.0000 0.0000 18.1772 0.0000
# 6 0.0000 0.0000 0.0000 0.0000 0.0000 15.2796
#
#
#
# Elastic Compliance Matrix: (Units=1/GPa)
#
#
# Indices 1 2 3 4 5 6 
#
# 1 0.011586 -0.003877 -0.003959 0.000000 0.000000 0.000000
# 2 -0.003877 0.012328 -0.004068 0.000000 0.000000 0.000000
# 3 -0.003959 -0.004068 0.013418 0.000000 0.000000 0.000000
# 4 0.000000 0.000000 0.000000 0.041558 0.000000 0.000000
# 5 0.000000 0.000000 0.000000 0.000000 0.055014 0.000000
# 6 0.000000 0.000000 0.000000 0.000000 0.000000 0.065447
#
#
# Mechanical properties :
#
#
# Convention : Reuss Voigt Hill
#
# Bulk Modulus (GPa) = 73.95414 74.40866 74.18140
# Shear Modulus (GPa) = 21.96190 23.74578 22.85384
#
# Velocity S-wave (km/s) = 3.42121 3.55744 3.48999
# Velocity P-wave (km/s) = 7.41757 7.51866 7.46828
#
# Compressibility (1/GPa) = 0.01352189
#
# Stress axis : x y z
#
# Youngs Moduli (GPa) = 86.31475 81.11873 74.52593
#
# Poissons Ratio (x) = 0.31452 0.29509
# Poissons Ratio (y) = 0.33466 0.30317
# Poissons Ratio (z) = 0.34176 0.32999
#
# Static dielectric constant tensor:
#      x y z
#    x 3.181970 0.000000 0.000000 
#    y 0.000000 3.607720 0.000000 
#    z 0.000000 0.000000 3.608460 
# 
# 
# High freq. dielectric constant tensor:
#      x y z
#    x 1.695710 0.000000 0.000000 
#    y 0.000000 1.722590 0.000000 
#    z 0.000000 0.000000 1.744910 
# 
# From -- ./inp_files/9913.got.cif
#   From: 2010.03.12/outbox.cif.g09.slc.cpg/sg65_5_cif.got.tgz:9913.got - 2010.04.10 20:52:16.
