data_PCOD8270909
_publ_section_title
;
Structure prediction by ZEFSAII (Michael W. Deem and Ramdas Pophale) SiO2 
 PCOD8270909
Probable space group: C M M M
;
_chemical_formula_sum "Si O2"
_cell_formula_units_Z 80
_cell_length_a 18.280936
_cell_length_b 17.237821
_cell_length_c 16.631222
_cell_angle_alpha 90.000000
_cell_angle_beta 90.000000
_cell_angle_gamma 90.000000
_cell_volume 5240.888927
_symmetry_space_group_name_H-M "C M M M"
_symmetry_group_IT_number 65
_symmetry_cell_setting 'orthorhombic'
loop_
_space_group_symop_operation_xyz
x,y,z
-x,-y,z
x,-y,-z
-x,y,-z
-x,-y,-z
x,y,-z
-x,y,z
x,-y,z
1/2+x,1/2+y,z
1/2-x,1/2-y,z
1/2+x,1/2-y,-z
1/2-x,1/2+y,-z
1/2-x,1/2-y,-z
1/2+x,1/2+y,-z
1/2-x,1/2+y,z
1/2+x,1/2-y,z
loop_
_atom_site_type_symbol
_atom_site_label
_atom_site_fract_x
_atom_site_fract_y
_atom_site_fract_z
Si Si1 0.582996 0.708159 0.407498
Si Si2 0.655699 0.145440 0.330440
Si Si3 0.086128 0.409124 0.825730
Si Si4 0.204222 0.089841 0.592775
Si Si5 0.079686 0.500000 0.405874
Si Si6 0.919980 0.591620 0.000000
O O1 0.583800 0.734434 0.500000
O O2 0.500000 0.699066 0.376140
O O3 0.625466 0.772269 0.357198
O O4 0.623522 0.625816 0.396257
O O5 0.636428 0.137563 0.236457
O O6 0.742058 0.138249 0.348445
O O7 0.620135 0.077025 0.380941
O O8 0.097244 0.500000 0.808981
O O9 0.000000 0.387971 0.817393
O O10 0.117376 0.385040 0.914906
O O11 0.230312 0.098271 0.500000
O O12 0.201506 0.000000 0.618543
O O13 0.072030 0.500000 0.500000
O O14 0.000000 0.500000 0.364281
O O15 0.929748 0.500000 0.000000
O O16 0.000000 0.630098 0.000000
#
# Coordination Sequence:
#
# PCOD8270909 Si02
#       6
#    16  16  16  16   8   8
#     4  10  21  34  47  64  87 117 154 193 227 259
#     4  12  19  28  44  66  93 117 146 181 222 271
#     4   9  15  24  38  59  88 121 153 181 211 259
#     4  10  20  34  49  64  85 117 155 191 227 264
#     4  11  20  26  36  57  90 126 150 171 203 252
#     4   7  12  22  36  54  81 118 154 182 209 247
#
# _framework density 15.264586
#
# number of rings (size 3 to 8) (size 9 to 14) (size 15 to 20)
#    0.000    2.000    2.000    5.400    0.000    3.600 
#    0.000    2.000    0.000    0.000    0.000    2.800 
#    0.000    0.000    0.000    0.000    0.000   19.600 
#
# Total GULP energy -495742.834641 kJ/mol
# GULP energy per Si atom -12393.570866 kJ/mol
# Density = 1.522984 g / cm^3
# Si number density = 15.264586 Si / 1000 Ang^3
#
#
#
# Elastic Constant Matrix: (Units=GPa)
#
#
# Indices 1 2 3 4 5 6 
#
# 1 78.4634 41.4774 30.1469 0.0000 0.0000 0.0000
# 2 41.4774 53.7712 33.0493 0.0000 0.0000 0.0000
# 3 30.1469 33.0493 93.2463 0.0000 0.0000 0.0000
# 4 0.0000 0.0000 0.0000 13.7961 0.0000 0.0000
# 5 0.0000 0.0000 0.0000 0.0000 13.9943 0.0000
# 6 0.0000 0.0000 0.0000 0.0000 0.0000 21.3472
#
#
#
# Elastic Compliance Matrix: (Units=1/GPa)
#
#
# Indices 1 2 3 4 5 6 
#
# 1 0.021658 -0.015857 -0.001382 0.000000 0.000000 0.000000
# 2 -0.015857 0.035387 -0.007415 0.000000 0.000000 0.000000
# 3 -0.001382 -0.007415 0.013799 0.000000 0.000000 0.000000
# 4 0.000000 0.000000 0.000000 0.072484 0.000000 0.000000
# 5 0.000000 0.000000 0.000000 0.000000 0.071457 0.000000
# 6 0.000000 0.000000 0.000000 0.000000 0.000000 0.046845
#
#
# Mechanical properties :
#
#
# Convention : Reuss Voigt Hill
#
# Bulk Modulus (GPa) = 46.43543 48.31422 47.37482
# Shear Modulus (GPa) = 15.71748 17.88136 16.79942
#
# Velocity S-wave (km/s) = 3.21233 3.42633 3.32105
# Velocity P-wave (km/s) = 6.65170 6.88279 6.76823
#
# Compressibility (1/GPa) = 0.02153528
#
# Stress axis : x y z
#
# Youngs Moduli (GPa) = 46.17218 28.25932 72.46728
#
# Poissons Ratio (x) = 0.44811 0.10015
# Poissons Ratio (y) = 0.73215 0.53738
# Poissons Ratio (z) = 0.06381 0.20956
#
# Static dielectric constant tensor:
#      x y z
#    x 2.934040 0.000000 0.000000 
#    y 0.000000 2.602830 0.000000 
#    z 0.000000 0.000000 3.063340 
# 
# 
# High freq. dielectric constant tensor:
#      x y z
#    x 1.570400 0.000000 0.000000 
#    y 0.000000 1.564200 0.000000 
#    z 0.000000 0.000000 1.570530 
# 
# From -- ./inp_files/54430.got.cif
#   From: 2010.03.12/outbox.cif.g09.slc.cpg/sg65_28_cif.got.tgz:54430.got - 2010.04.10 20:52:16.
