data_PCOD8270973
_publ_section_title
;
Structure prediction by ZEFSAII (Michael W. Deem and Ramdas Pophale) SiO2 
 PCOD8270973
Probable space group: C M M M
;
_chemical_formula_sum "Si O2"
_cell_formula_units_Z 72
_cell_length_a 8.812833
_cell_length_b 18.411567
_cell_length_c 23.596630
_cell_angle_alpha 90.000000
_cell_angle_beta 90.000000
_cell_angle_gamma 90.000000
_cell_volume 3828.743530
_symmetry_space_group_name_H-M "C M M M"
_symmetry_group_IT_number 65
_symmetry_cell_setting 'orthorhombic'
loop_
_space_group_symop_operation_xyz
x,y,z
-x,-y,z
x,-y,-z
-x,y,-z
-x,-y,-z
x,y,-z
-x,y,z
x,-y,z
1/2+x,1/2+y,z
1/2-x,1/2-y,z
1/2+x,1/2-y,-z
1/2-x,1/2+y,-z
1/2-x,1/2-y,-z
1/2+x,1/2+y,-z
1/2-x,1/2+y,z
1/2+x,1/2-y,z
loop_
_atom_site_type_symbol
_atom_site_label
_atom_site_fract_x
_atom_site_fract_y
_atom_site_fract_z
Si Si1 0.670678 0.413572 0.113090
Si Si2 0.322328 0.171183 0.561403
Si Si3 0.826817 0.585985 0.227339
Si Si4 0.178882 0.829404 0.672640
Si Si5 0.828789 0.586680 0.000000
O O1 0.500000 0.383349 0.118291
O O2 0.670195 0.500000 0.111135
O O3 0.768125 0.386087 0.166499
O O4 0.744928 0.382629 0.055662
O O5 0.294924 0.131885 0.500000
O O6 0.500000 0.177761 0.574082
O O7 0.250000 0.250000 0.557839
O O8 0.242279 0.131818 0.614840
O O9 0.811416 0.500000 0.231926
O O10 0.722236 0.620319 0.275160
O O11 0.000000 0.611459 0.234953
O O12 0.250000 0.750000 0.680686
O O13 0.000000 0.822220 0.668683
O O14 0.826467 0.500000 0.000000
O O15 0.000000 0.615998 0.000000
#
# Coordination Sequence:
#
# PCOD8270973 Si02
#       5
#    16  16  16  16   8
#     4   9  16  26  41  63  91 122 157 197 241 287
#     4   9  16  27  45  69  96 124 156 196 241 286
#     4  10  20  34  51  71  98 131 165 201 244 294
#     4  11  21  33  51  74 101 130 163 202 242 287
#     4   9  15  23  37  59  88 121 156 195 240 285
#
# _framework density 18.805126000000001
#
# number of rings (size 3 to 8) (size 9 to 14) (size 15 to 20)
#    0.000    2.333    0.000    5.667    0.000    6.667 
#    0.000    0.000    0.000    0.667    0.000    5.444 
#    0.000    0.000    0.000    0.000    0.000    0.000 
#
# Total GULP energy -446214.440853 kJ/mol
# GULP energy per Si atom -12394.845579 kJ/mol
# Density = 1.876232 g / cm^3
# Si number density = 18.805126 Si / 1000 Ang^3
#
#
#
# Elastic Constant Matrix: (Units=GPa)
#
#
# Indices 1 2 3 4 5 6 
#
# 1 161.4173 19.7835 73.3194 0.0000 0.0000 0.0000
# 2 19.7835 12.2254 23.5198 0.0000 0.0000 0.0000
# 3 73.3194 23.5198 184.8184 0.0000 0.0000 0.0000
# 4 0.0000 0.0000 0.0000 22.2789 0.0000 0.0000
# 5 0.0000 0.0000 0.0000 0.0000 39.6761 0.0000
# 6 0.0000 0.0000 0.0000 0.0000 0.0000 17.2986
#
#
#
# Elastic Compliance Matrix: (Units=1/GPa)
#
#
# Indices 1 2 3 4 5 6 
#
# 1 0.008299 -0.009396 -0.002097 0.000000 0.000000 0.000000
# 2 -0.009396 0.118955 -0.011410 0.000000 0.000000 0.000000
# 3 -0.002097 -0.011410 0.007695 0.000000 0.000000 0.000000
# 4 0.000000 0.000000 0.000000 0.044885 0.000000 0.000000
# 5 0.000000 0.000000 0.000000 0.000000 0.025204 0.000000
# 6 0.000000 0.000000 0.000000 0.000000 0.000000 0.057808
#
#
# Mechanical properties :
#
#
# Convention : Reuss Voigt Hill
#
# Bulk Modulus (GPa) = 11.21811 65.74516 38.48163
# Shear Modulus (GPa) = 14.77688 31.97329 23.37509
#
# Velocity S-wave (km/s) = 2.80624 4.12787 3.52947
# Velocity P-wave (km/s) = 4.05935 7.59976 6.09240
#
# Compressibility (1/GPa) = 0.08914156
#
# Stress axis : x y z
#
# Youngs Moduli (GPa) = 120.49580 8.40657 129.96256
#
# Poissons Ratio (x) = 0.07899 0.27247
# Poissons Ratio (y) = 1.13222 1.48293
# Poissons Ratio (z) = 0.25263 0.09592
#
# Static dielectric constant tensor:
#      x y z
#    x 3.695570 0.000000 0.000000 
#    y 0.000000 2.717780 0.000000 
#    z 0.000000 0.000000 4.194740 
# 
# 
# High freq. dielectric constant tensor:
#      x y z
#    x 1.752660 0.000000 0.000000 
#    y 0.000000 1.645430 0.000000 
#    z 0.000000 0.000000 1.760560 
# 
# From -- ./inp_files/64983.got.cif
#   From: 2010.03.12/outbox.cif.g09.slc.cpg/sg65_33_cif.got.tgz:64983.got - 2010.04.10 20:52:16.
