data_PCOD8270867
_publ_section_title
;
Structure prediction by ZEFSAII (Michael W. Deem and Ramdas Pophale) SiO2 
 PCOD8270867
Probable space group: C M M M
;
_chemical_formula_sum "Si O2"
_cell_formula_units_Z 104
_cell_length_a 8.059667
_cell_length_b 29.963769
_cell_length_c 23.963248
_cell_angle_alpha 90.000000
_cell_angle_beta 90.000000
_cell_angle_gamma 90.000000
_cell_volume 5787.076470
_symmetry_space_group_name_H-M "C M M M"
_symmetry_group_IT_number 65
_symmetry_cell_setting 'orthorhombic'
loop_
_space_group_symop_operation_xyz
x,y,z
-x,-y,z
x,-y,-z
-x,y,-z
-x,-y,-z
x,y,-z
-x,y,z
x,-y,z
1/2+x,1/2+y,z
1/2-x,1/2-y,z
1/2+x,1/2-y,-z
1/2-x,1/2+y,-z
1/2-x,1/2-y,-z
1/2+x,1/2+y,-z
1/2-x,1/2+y,z
1/2+x,1/2-y,z
loop_
_atom_site_type_symbol
_atom_site_label
_atom_site_fract_x
_atom_site_fract_y
_atom_site_fract_z
Si Si1 0.812706 0.500000 0.061815
Si Si2 0.693885 0.394582 0.738682
Si Si3 0.196236 0.799489 0.000000
Si Si4 0.815790 0.073265 0.857125
Si Si5 0.190813 0.701182 0.228593
Si Si6 0.311866 0.837605 0.886592
Si Si7 0.311890 0.948238 0.635884
Si Si8 0.500000 0.552664 0.562004
O O1 0.783533 0.542625 0.100497
O O2 0.000000 0.500000 0.044475
O O3 0.718941 0.500000 0.000000
O O4 0.500000 0.403859 0.729385
O O5 0.757749 0.420545 0.794536
O O6 0.719750 0.340904 0.741548
O O7 0.798647 0.416541 0.689434
O O8 0.250000 0.750000 0.000000
O O9 0.286326 0.818030 0.053483
O O10 0.500000 0.692351 0.000000
O O11 0.818429 0.122422 0.882736
O O12 0.000000 0.053546 0.853720
O O13 0.250000 0.750000 0.249898
O O14 0.224758 0.698488 0.162047
O O15 0.000000 0.696573 0.244037
O O16 0.500000 0.855541 0.879934
O O17 0.500000 0.942748 0.611392
O O18 0.170299 0.931985 0.592457
O O19 0.280573 0.000000 0.652450
O O20 0.500000 0.500000 0.557381
O O21 0.500000 0.573956 0.500000
#
# Coordination Sequence:
#
# PCOD8270867 Si02
#       8
#     8  16   8  16  16  16  16   8
#     4  11  25  41  55  71  97 133 173 222 274 329
#     4  10  20  35  55  79 111 144 181 229 278 328
#     4  12  24  36  52  73  94 119 154 200 250 312
#     4  10  22  38  56  77  98 130 171 217 270 324
#     4  10  20  34  53  76 103 137 173 215 272 332
#     4  10  21  37  55  73  97 125 160 204 259 321
#     4  10  20  33  53  82 116 158 197 235 280 325
#     4   9  18  34  54  80 118 160 198 238 276 318
#
# _framework density 17.971077000000001
#
# number of rings (size 3 to 8) (size 9 to 14) (size 15 to 20)
#    0.000    1.846    0.769    3.231    2.154    5.846 
#    0.000    1.538    0.000    0.000    0.000    0.000 
#    0.000    0.615    0.308    0.000    0.000    0.000 
#
# Total GULP energy -644330.890480 kJ/mol
# GULP energy per Si atom -12390.978663 kJ/mol
# Density = 1.793017 g / cm^3
# Si number density = 17.971077 Si / 1000 Ang^3
#
#
#
# Elastic Constant Matrix: (Units=GPa)
#
#
# Indices 1 2 3 4 5 6 
#
# 1 90.3596 24.1111 36.0145 0.0000 0.0000 0.0000
# 2 24.1111 73.8404 42.1069 0.0000 0.0000 0.0000
# 3 36.0145 42.1069 108.5521 0.0000 0.0000 0.0000
# 4 0.0000 0.0000 0.0000 11.6410 0.0000 0.0000
# 5 0.0000 0.0000 0.0000 0.0000 20.7761 0.0000
# 6 0.0000 0.0000 0.0000 0.0000 0.0000 22.0684
#
#
#
# Elastic Compliance Matrix: (Units=1/GPa)
#
#
# Indices 1 2 3 4 5 6 
#
# 1 0.013051 -0.002301 -0.003437 0.000000 0.000000 0.000000
# 2 -0.002301 0.017795 -0.006139 0.000000 0.000000 0.000000
# 3 -0.003437 -0.006139 0.012734 0.000000 0.000000 0.000000
# 4 0.000000 0.000000 0.000000 0.085903 0.000000 0.000000
# 5 0.000000 0.000000 0.000000 0.000000 0.048132 0.000000
# 6 0.000000 0.000000 0.000000 0.000000 0.000000 0.045314
#
#
# Mechanical properties :
#
#
# Convention : Reuss Voigt Hill
#
# Bulk Modulus (GPa) = 50.44306 53.02412 51.73359
# Shear Modulus (GPa) = 19.74003 22.26507 21.00255
#
# Velocity S-wave (km/s) = 3.31786 3.52368 3.42231
# Velocity P-wave (km/s) = 6.54275 6.79149 6.66828
#
# Compressibility (1/GPa) = 0.01982433
#
# Stress axis : x y z
#
# Youngs Moduli (GPa) = 76.62270 56.19574 78.53102
#
# Poissons Ratio (x) = 0.12933 0.26993
# Poissons Ratio (y) = 0.17635 0.48210
# Poissons Ratio (z) = 0.26337 0.34499
#
# Static dielectric constant tensor:
#      x y z
#    x 3.529240 0.000000 0.000000 
#    y 0.000000 3.253330 0.000000 
#    z 0.000000 0.000000 3.208420 
# 
# 
# High freq. dielectric constant tensor:
#      x y z
#    x 1.709820 0.000000 0.000000 
#    y 0.000000 1.683350 0.000000 
#    z 0.000000 0.000000 1.668040 
# 
# From -- ./inp_files/68302.got.cif
#   From: 2010.03.12/outbox.cif.g09.slc.cpg/sg65_35_cif.got.tgz:68302.got - 2010.04.10 20:52:16.
