data_PCOD8270125
_publ_section_title
;
Structure prediction by ZEFSAII (Michael W. Deem and Ramdas Pophale) SiO2 
 PCOD8270125
Probable space group: C M M M
;
_chemical_formula_sum "Si O2"
_cell_formula_units_Z 96
_cell_length_a 30.375647
_cell_length_b 19.314452
_cell_length_c 9.350957
_cell_angle_alpha 90.000000
_cell_angle_beta 90.000000
_cell_angle_gamma 90.000000
_cell_volume 5486.103386
_symmetry_space_group_name_H-M "C M M M"
_symmetry_group_IT_number 65
_symmetry_cell_setting 'orthorhombic'
loop_
_space_group_symop_operation_xyz
x,y,z
-x,-y,z
x,-y,-z
-x,y,-z
-x,-y,-z
x,y,-z
-x,y,z
x,-y,z
1/2+x,1/2+y,z
1/2-x,1/2-y,z
1/2+x,1/2-y,-z
1/2-x,1/2+y,-z
1/2-x,1/2-y,-z
1/2+x,1/2+y,-z
1/2-x,1/2+y,z
1/2+x,1/2-y,z
loop_
_atom_site_type_symbol
_atom_site_label
_atom_site_fract_x
_atom_site_fract_y
_atom_site_fract_z
Si Si1 0.705071 0.917527 0.339081
Si Si2 0.448788 0.165270 0.337135
Si Si3 0.884105 0.921711 0.830761
Si Si4 0.449528 0.324702 0.335468
Si Si5 0.286286 0.417702 0.159042
Si Si6 0.379590 0.918622 0.834533
O O1 0.701955 0.888264 0.500000
O O2 0.749507 0.887744 0.266502
O O3 0.663230 0.891138 0.249476
O O4 0.706345 0.000000 0.339664
O O5 0.436072 0.145917 0.500000
O O6 0.500000 0.150906 0.310933
O O7 0.437521 0.245064 0.306793
O O8 0.422514 0.118076 0.227163
O O9 0.919415 0.871910 0.761745
O O10 0.834978 0.896697 0.786343
O O11 0.892426 0.000000 0.776746
O O12 0.889028 0.918243 0.000000
O O13 0.441290 0.343733 0.500000
O O14 0.500000 0.338956 0.293785
O O15 0.283363 0.500000 0.151475
O O16 0.277477 0.387725 0.000000
O O17 0.385882 0.000000 0.812904
O O18 0.373735 0.899197 0.000000
#
# Coordination Sequence:
#
# PCOD8270125 Si02
#       6
#    16  16  16  16  16  16
#     4   9  16  26  43  68  96 126 160 194 230 277
#     4   9  19  36  54  70  92 125 163 200 240 288
#     4   9  18  31  48  73 102 130 161 198 240 285
#     4   9  19  35  52  70  94 126 163 201 242 288
#     4   8  14  26  43  64  94 128 158 191 233 279
#     4  10  20  32  48  73 102 128 156 194 239 284
#
# _framework density 17.498757999999999
#
# number of rings (size 3 to 8) (size 9 to 14) (size 15 to 20)
#    0.000    3.000    0.000    3.000    0.000    6.000 
#    0.000    6.667    0.000    1.000    0.000    7.000 
#    0.000    0.000    0.000    0.000    0.000    0.000 
#
# Total GULP energy -595103.770692 kJ/mol
# GULP energy per Si atom -12397.995223 kJ/mol
# Density = 1.745893 g / cm^3
# Si number density = 17.498758 Si / 1000 Ang^3
#
#
#
# Elastic Constant Matrix: (Units=GPa)
#
#
# Indices 1 2 3 4 5 6 
#
# 1 121.1195 46.4738 74.7579 0.0000 0.0000 0.0000
# 2 46.4738 39.3472 41.2290 0.0000 0.0000 0.0000
# 3 74.7579 41.2290 109.6176 0.0000 0.0000 0.0000
# 4 0.0000 0.0000 0.0000 25.7889 0.0000 0.0000
# 5 0.0000 0.0000 0.0000 0.0000 38.8994 0.0000
# 6 0.0000 0.0000 0.0000 0.0000 0.0000 -6.3849
#
#
#
# Elastic Compliance Matrix: (Units=1/GPa)
#
#
# Indices 1 2 3 4 5 6 
#
# 1 0.017857 -0.013749 -0.007007 0.000000 0.000000 0.000000
# 2 -0.013749 0.052532 -0.010382 0.000000 0.000000 0.000000
# 3 -0.007007 -0.010382 0.017806 0.000000 0.000000 0.000000
# 4 0.000000 0.000000 0.000000 0.038776 0.000000 0.000000
# 5 0.000000 0.000000 0.000000 0.000000 0.025707 0.000000
# 6 0.000000 0.000000 0.000000 0.000000 0.000000 -0.156619
#
#
# Mechanical properties :
#
#
# Convention : Reuss Voigt Hill
#
# Bulk Modulus (GPa) = 38.58038 66.11174 52.34606
# Shear Modulus (GPa) = 74.65616 18.83557 46.74587
#
# Velocity S-wave (km/s) = 6.53883 3.28440 5.17415
# Velocity P-wave (km/s) = 8.89403 7.22813 8.10400
#
# Compressibility (1/GPa) = 0.02591991
#
# Stress axis : x y z
#
# Youngs Moduli (GPa) = 56.00191 19.03605 56.16139
#
# Poissons Ratio (x) = 0.26172 0.39351
# Poissons Ratio (y) = 0.76996 0.58304
# Poissons Ratio (z) = 0.39239 0.19762
#
# Static dielectric constant tensor:
#      x y z
#    x 3.404720 0.000000 0.000000 
#    y 0.000000 2.862120 0.000000 
#    z 0.000000 0.000000 3.321360 
# 
# 
# High freq. dielectric constant tensor:
#      x y z
#    x 1.688030 0.000000 0.000000 
#    y 0.000000 1.632960 0.000000 
#    z 0.000000 0.000000 1.680010 
# 
# From -- ./inp_files/12269.got.cif
#   From: 2010.03.12/outbox.cif.g09.slc.cpg/sg65_7_cif.got.tgz:12269.got - 2010.04.10 20:52:16.
