data_PCOD8270853
_publ_section_title
;
Structure prediction by ZEFSAII (Michael W. Deem and Ramdas Pophale) SiO2 
 PCOD8270853
Probable space group: C M M M
;
_chemical_formula_sum "Si O2"
_cell_formula_units_Z 96
_cell_length_a 8.928789
_cell_length_b 18.935926
_cell_length_c 30.730577
_cell_angle_alpha 90.000000
_cell_angle_beta 90.000000
_cell_angle_gamma 90.000000
_cell_volume 5195.768857
_symmetry_space_group_name_H-M "C M M M"
_symmetry_group_IT_number 65
_symmetry_cell_setting 'orthorhombic'
loop_
_space_group_symop_operation_xyz
x,y,z
-x,-y,z
x,-y,-z
-x,y,-z
-x,-y,-z
x,y,-z
-x,y,z
x,-y,z
1/2+x,1/2+y,z
1/2-x,1/2-y,z
1/2+x,1/2-y,-z
1/2-x,1/2+y,-z
1/2-x,1/2-y,-z
1/2+x,1/2+y,-z
1/2-x,1/2+y,z
1/2+x,1/2-y,z
loop_
_atom_site_type_symbol
_atom_site_label
_atom_site_fract_x
_atom_site_fract_y
_atom_site_fract_z
Si Si1 0.822202 0.327295 0.799260
Si Si2 0.324434 0.325705 0.285630
Si Si3 0.674622 0.321346 0.048732
Si Si4 0.825667 0.917926 0.127342
Si Si5 0.326981 0.675242 0.381097
Si Si6 0.171140 0.417710 0.450967
O O1 0.750000 0.250000 0.806194
O O2 0.759283 0.364076 0.754621
O O3 0.777276 0.378818 0.837946
O O4 0.000000 0.319615 0.797081
O O5 0.500000 0.320313 0.274885
O O6 0.250000 0.250000 0.288420
O O7 0.296017 0.360035 0.333294
O O8 0.500000 0.306219 0.048381
O O9 0.750000 0.250000 0.066724
O O10 0.713995 0.386700 0.079926
O O11 0.732609 0.339535 0.000000
O O12 0.000000 0.905881 0.138819
O O13 0.783804 0.000000 0.126778
O O14 0.500000 0.690982 0.386684
O O15 0.250000 0.750000 0.387675
O O16 0.277939 0.621150 0.417671
O O17 0.204860 0.391470 0.500000
O O18 0.205298 0.500000 0.447415
O O19 0.000000 0.401385 0.438681
#
# Coordination Sequence:
#
# PCOD8270853 Si02
#       6
#    16  16  16  16  16  16
#     4  11  21  34  55  79 103 134 174 215 255 304
#     4   9  17  31  51  76 104 133 168 210 257 306
#     4   9  18  33  54  79 104 133 172 214 255 303
#     4  10  21  36  53  75 106 141 174 213 261 306
#     4  10  20  33  53  80 107 135 168 210 258 307
#     4   9  19  36  55  74 100 136 175 214 257 305
#
# _framework density 18.476572999999998
#
# number of rings (size 3 to 8) (size 9 to 14) (size 15 to 20)
#    0.000    2.333    0.000    4.500    0.000    5.667 
#    0.000    3.333    0.000    1.000    0.000    3.500 
#    0.000    0.000    0.000    0.000    0.000    0.000 
#
# Total GULP energy -594977.212987 kJ/mol
# GULP energy per Si atom -12395.358604 kJ/mol
# Density = 1.843452 g / cm^3
# Si number density = 18.476573 Si / 1000 Ang^3
#
#
#
# Elastic Constant Matrix: (Units=GPa)
#
#
# Indices 1 2 3 4 5 6 
#
# 1 102.2072 44.1540 64.6104 0.0000 0.0000 0.0000
# 2 44.1540 78.4888 61.3451 0.0000 0.0000 0.0000
# 3 64.6104 61.3451 136.2334 0.0000 0.0000 0.0000
# 4 0.0000 0.0000 0.0000 -9.9647 0.0000 0.0000
# 5 0.0000 0.0000 0.0000 0.0000 29.2126 0.0000
# 6 0.0000 0.0000 0.0000 0.0000 0.0000 27.2285
#
#
#
# Elastic Compliance Matrix: (Units=1/GPa)
#
#
# Indices 1 2 3 4 5 6 
#
# 1 0.014902 -0.004412 -0.005081 0.000000 0.000000 0.000000
# 2 -0.004412 0.020966 -0.007348 0.000000 0.000000 0.000000
# 3 -0.005081 -0.007348 0.013059 0.000000 0.000000 0.000000
# 4 0.000000 0.000000 0.000000 -0.100355 0.000000 0.000000
# 5 0.000000 0.000000 0.000000 0.000000 0.034232 0.000000
# 6 0.000000 0.000000 0.000000 0.000000 0.000000 0.036726
#
#
# Mechanical properties :
#
#
# Convention : Reuss Voigt Hill
#
# Bulk Modulus (GPa) = 65.59773 73.01648 69.30711
# Shear Modulus (GPa) = 85.77235 19.08329 52.42782
#
# Velocity S-wave (km/s) = 6.82078 3.21727 5.33263
# Velocity P-wave (km/s) = 9.87982 7.30789 8.68954
#
# Compressibility (1/GPa) = 0.01524443
#
# Stress axis : x y z
#
# Youngs Moduli (GPa) = 67.10582 47.69617 76.57663
#
# Poissons Ratio (x) = 0.21044 0.38906
# Poissons Ratio (y) = 0.29608 0.56271
# Poissons Ratio (z) = 0.34094 0.35049
#
# Static dielectric constant tensor:
#      x y z
#    x 3.473600 0.000000 0.000000 
#    y 0.000000 3.094610 0.000000 
#    z 0.000000 0.000000 4.118110 
# 
# 
# High freq. dielectric constant tensor:
#      x y z
#    x 1.720930 0.000000 0.000000 
#    y 0.000000 1.683500 0.000000 
#    z 0.000000 0.000000 1.737890 
# 
# From -- ./inp_files/73088.got.cif
#   From: 2010.03.12/outbox.cif.g09.slc.cpg/sg65_37_cif.got.tgz:73088.got - 2010.04.10 20:52:16.
