data_PCOD8270564
_publ_section_title
;
Structure prediction by ZEFSAII (Michael W. Deem and Ramdas Pophale) SiO2 
 PCOD8270564
Probable space group: C M M M
;
_chemical_formula_sum "Si O2"
_cell_formula_units_Z 80
_cell_length_a 22.511189
_cell_length_b 15.675653
_cell_length_c 11.945650
_cell_angle_alpha 90.000000
_cell_angle_beta 90.000000
_cell_angle_gamma 90.000000
_cell_volume 4215.352152
_symmetry_space_group_name_H-M "C M M M"
_symmetry_group_IT_number 65
_symmetry_cell_setting 'orthorhombic'
loop_
_space_group_symop_operation_xyz
x,y,z
-x,-y,z
x,-y,-z
-x,y,-z
-x,-y,-z
x,y,-z
-x,y,z
x,-y,z
1/2+x,1/2+y,z
1/2-x,1/2-y,z
1/2+x,1/2-y,-z
1/2-x,1/2+y,-z
1/2-x,1/2-y,-z
1/2+x,1/2+y,-z
1/2-x,1/2+y,z
1/2+x,1/2-y,z
loop_
_atom_site_type_symbol
_atom_site_label
_atom_site_fract_x
_atom_site_fract_y
_atom_site_fract_z
Si Si1 0.000000 0.600929 0.674729
Si Si2 0.324299 0.092322 0.872547
Si Si3 0.597733 0.100619 0.500000
Si Si4 0.265387 0.101441 0.500000
Si Si5 0.724830 0.342094 0.265503
Si Si6 0.000000 0.273863 0.873971
Si Si7 0.873924 0.226853 0.871780
O O1 0.059989 0.630013 0.608527
O O2 0.000000 0.500000 0.690191
O O3 0.000000 0.644799 0.794100
O O4 0.264856 0.089015 0.798025
O O5 0.365331 0.172409 0.840041
O O6 0.356750 0.000000 0.851501
O O7 0.303606 0.100291 0.000000
O O8 0.665943 0.136732 0.500000
O O9 0.602909 0.000000 0.500000
O O10 0.227386 0.137630 0.603404
O O11 0.264762 0.000000 0.500000
O O12 0.750000 0.250000 0.235613
O O13 0.658409 0.338611 0.213530
O O14 0.056150 0.211725 0.855822
O O15 0.000000 0.312011 0.000000
O O16 0.853185 0.209491 0.000000
#
# Coordination Sequence:
#
# PCOD8270564 Si02
#       7
#     8  16   8   8  16   8  16
#     4   9  18  33  51  71 101 146 186 214 248 296
#     4   9  17  30  50  76 104 137 174 210 255 310
#     4   8  18  34  50  69  98 140 182 213 248 292
#     4  11  22  35  53  78 107 134 172 227 271 310
#     4  10  20  33  50  74 103 139 176 211 261 313
#     4  10  21  34  50  76 103 137 177 216 260 305
#     4   9  19  35  52  73 106 140 175 217 260 311
#
# _framework density 18.978248000000001
#
# number of rings (size 3 to 8) (size 9 to 14) (size 15 to 20)
#    0.000    2.600    0.000    2.100    5.600    3.400 
#    0.000    2.000    0.000    0.000    0.000    3.500 
#    0.000   11.200    0.000    0.000    0.000    0.000 
#
# Total GULP energy -495647.122462 kJ/mol
# GULP energy per Si atom -12391.178062 kJ/mol
# Density = 1.893505 g / cm^3
# Si number density = 18.978248 Si / 1000 Ang^3
#
#
#
# Elastic Constant Matrix: (Units=GPa)
#
#
# Indices 1 2 3 4 5 6 
#
# 1 125.6844 22.8212 62.9628 0.0000 0.0000 0.0000
# 2 22.8212 28.5080 11.9206 0.0000 0.0000 0.0000
# 3 62.9628 11.9206 114.2706 0.0000 0.0000 0.0000
# 4 0.0000 0.0000 0.0000 26.5737 0.0000 0.0000
# 5 0.0000 0.0000 0.0000 0.0000 21.8260 0.0000
# 6 0.0000 0.0000 0.0000 0.0000 0.0000 14.9918
#
#
#
# Elastic Compliance Matrix: (Units=1/GPa)
#
#
# Indices 1 2 3 4 5 6 
#
# 1 0.012300 -0.007332 -0.006012 0.000000 0.000000 0.000000
# 2 -0.007332 0.041049 -0.000242 0.000000 0.000000 0.000000
# 3 -0.006012 -0.000242 0.012089 0.000000 0.000000 0.000000
# 4 0.000000 0.000000 0.000000 0.037631 0.000000 0.000000
# 5 0.000000 0.000000 0.000000 0.000000 0.045817 0.000000
# 6 0.000000 0.000000 0.000000 0.000000 0.000000 0.066703
#
#
# Mechanical properties :
#
#
# Convention : Reuss Voigt Hill
#
# Bulk Modulus (GPa) = 26.13393 51.54135 38.83764
# Shear Modulus (GPa) = 19.56821 24.06219 21.81520
#
# Velocity S-wave (km/s) = 3.21454 3.56460 3.39408
# Velocity P-wave (km/s) = 5.25148 6.64521 5.98903
#
# Compressibility (1/GPa) = 0.03826444
#
# Stress axis : x y z
#
# Youngs Moduli (GPa) = 81.30319 24.36135 82.71904
#
# Poissons Ratio (x) = 0.17862 0.49732
# Poissons Ratio (y) = 0.59613 0.02003
# Poissons Ratio (z) = 0.48881 0.00590
#
# Static dielectric constant tensor:
#      x y z
#    x 3.674870 0.000000 0.000000 
#    y 0.000000 3.164470 0.000000 
#    z 0.000000 0.000000 3.540440 
# 
# 
# High freq. dielectric constant tensor:
#      x y z
#    x 1.724910 0.000000 0.000000 
#    y 0.000000 1.690620 0.000000 
#    z 0.000000 0.000000 1.748570 
# 
# From -- ./inp_files/30737.got.cif
#   From: 2010.03.12/outbox.cif.g09.slc.cpg/sg65_16_cif.got.tgz:30737.got - 2010.04.10 20:52:16.
