data_PCOD8270160
_publ_section_title
;
Structure prediction by ZEFSAII (Michael W. Deem and Ramdas Pophale) SiO2 
 PCOD8270160
Probable space group: C M M M
;
_chemical_formula_sum "Si O2"
_cell_formula_units_Z 104
_cell_length_a 8.989416
_cell_length_b 30.351157
_cell_length_c 22.488413
_cell_angle_alpha 90.000000
_cell_angle_beta 90.000000
_cell_angle_gamma 90.000000
_cell_volume 6135.720080
_symmetry_space_group_name_H-M "C M M M"
_symmetry_group_IT_number 65
_symmetry_cell_setting 'orthorhombic'
loop_
_space_group_symop_operation_xyz
x,y,z
-x,-y,z
x,-y,-z
-x,y,-z
-x,-y,-z
x,y,-z
-x,y,z
x,-y,z
1/2+x,1/2+y,z
1/2-x,1/2-y,z
1/2+x,1/2-y,-z
1/2-x,1/2+y,-z
1/2-x,1/2-y,-z
1/2+x,1/2+y,-z
1/2-x,1/2+y,z
1/2+x,1/2-y,z
loop_
_atom_site_type_symbol
_atom_site_label
_atom_site_fract_x
_atom_site_fract_y
_atom_site_fract_z
Si Si1 0.322290 0.882716 0.774385
Si Si2 0.165790 0.552040 0.565147
Si Si3 0.667396 0.810506 0.066219
Si Si4 0.664257 0.090989 0.097685
Si Si5 0.844652 0.950274 0.000000
Si Si6 0.325889 0.551474 0.682499
Si Si7 0.177219 0.794291 0.812539
O O1 0.500000 0.876122 0.770191
O O2 0.272638 0.905077 0.835932
O O3 0.265582 0.915513 0.723907
O O4 0.244888 0.834673 0.774136
O O5 0.215328 0.570474 0.500000
O O6 0.159710 0.500000 0.561593
O O7 0.283408 0.566049 0.615462
O O8 0.000000 0.569822 0.580988
O O9 0.500000 0.793827 0.082073
O O10 0.666309 0.862944 0.063584
O O11 0.781165 0.794913 0.117023
O O12 0.715339 0.793743 0.000000
O O13 0.500000 0.071124 0.100406
O O14 0.760146 0.057323 0.060964
O O15 0.000000 0.922764 0.000000
O O16 0.888091 0.000000 0.000000
O O17 0.500000 0.558894 0.692204
O O18 0.282914 0.500000 0.694549
O O19 0.250000 0.750000 0.785179
O O20 0.000000 0.794097 0.805695
#
# Coordination Sequence:
#
# PCOD8270160 Si02
#       7
#    16  16  16  16   8  16  16
#     4  10  21  37  55  73  96 129 168 209 254 299
#     4   8  14  26  45  69  99 137 177 212 246 287
#     4   9  17  32  52  71  92 116 146 186 235 293
#     4   9  18  34  51  65  82 112 151 193 240 291
#     4  11  23  33  43  63  88 113 146 193 245 295
#     4  10  20  32  48  74 107 140 174 212 252 296
#     4  11  22  36  53  74  99 126 159 199 250 306
#
# _framework density 16.949926000000001
#
# number of rings (size 3 to 8) (size 9 to 14) (size 15 to 20)
#    0.000    2.385    0.769    3.923    0.000    6.154 
#    0.000    4.615    0.000    0.000    0.000    0.000 
#    0.000    0.615    0.000    2.308    0.000    3.538 
#
# Total GULP energy -644335.910248 kJ/mol
# GULP energy per Si atom -12391.075197 kJ/mol
# Density = 1.691135 g / cm^3
# Si number density = 16.949926 Si / 1000 Ang^3
#
#
#
# Elastic Constant Matrix: (Units=GPa)
#
#
# Indices 1 2 3 4 5 6 
#
# 1 93.1565 43.9384 39.8435 0.0000 0.0000 0.0000
# 2 43.9384 73.5782 43.4183 0.0000 0.0000 0.0000
# 3 39.8435 43.4183 94.3145 0.0000 0.0000 0.0000
# 4 0.0000 0.0000 0.0000 -5.3895 0.0000 0.0000
# 5 0.0000 0.0000 0.0000 0.0000 19.2731 0.0000
# 6 0.0000 0.0000 0.0000 0.0000 0.0000 22.6898
#
#
#
# Elastic Compliance Matrix: (Units=1/GPa)
#
#
# Indices 1 2 3 4 5 6 
#
# 1 0.015601 -0.007451 -0.003160 0.000000 0.000000 0.000000
# 2 -0.007451 0.022219 -0.007081 0.000000 0.000000 0.000000
# 3 -0.003160 -0.007081 0.015198 0.000000 0.000000 0.000000
# 4 0.000000 0.000000 0.000000 -0.185546 0.000000 0.000000
# 5 0.000000 0.000000 0.000000 0.000000 0.051886 0.000000
# 6 0.000000 0.000000 0.000000 0.000000 0.000000 0.044073
#
#
# Mechanical properties :
#
#
# Convention : Reuss Voigt Hill
#
# Bulk Modulus (GPa) = 56.71369 57.27220 56.99294
# Shear Modulus (GPa) = 1065.45617 16.23795 540.84706
#
# Velocity S-wave (km/s) = 25.09891 3.09851 17.88233
# Velocity P-wave (km/s) = 29.55456 6.83106 21.44919
#
# Compressibility (1/GPa) = 0.01763243
#
# Stress axis : x y z
#
# Youngs Moduli (GPa) = 64.09905 45.00638 65.79975
#
# Poissons Ratio (x) = 0.33536 0.20795
# Poissons Ratio (y) = 0.47763 0.46592
# Poissons Ratio (z) = 0.20258 0.31868
#
# Static dielectric constant tensor:
#      x y z
#    x 3.237670 0.000000 0.000000 
#    y 0.000000 3.010740 0.000000 
#    z 0.000000 0.000000 3.246970 
# 
# 
# High freq. dielectric constant tensor:
#      x y z
#    x 1.663460 0.000000 0.000000 
#    y 0.000000 1.628660 0.000000 
#    z 0.000000 0.000000 1.634590 
# 
# From -- ./inp_files/60824.got.cif
#   From: 2010.03.12/outbox.cif.g09.slc.cpg/sg65_31_cif.got.tgz:60824.got - 2010.04.10 20:52:16.
