data_PCOD8270898
_publ_section_title
;
Structure prediction by ZEFSAII (Michael W. Deem and Ramdas Pophale) SiO2 
 PCOD8270898
Probable space group: C M M M
;
_chemical_formula_sum "Si O2"
_cell_formula_units_Z 104
_cell_length_a 7.746424
_cell_length_b 28.719863
_cell_length_c 25.137922
_cell_angle_alpha 90.000000
_cell_angle_beta 90.000000
_cell_angle_gamma 90.000000
_cell_volume 5592.590268
_symmetry_space_group_name_H-M "C M M M"
_symmetry_group_IT_number 65
_symmetry_cell_setting 'orthorhombic'
loop_
_space_group_symop_operation_xyz
x,y,z
-x,-y,z
x,-y,-z
-x,y,-z
-x,-y,-z
x,y,-z
-x,y,z
x,-y,z
1/2+x,1/2+y,z
1/2-x,1/2-y,z
1/2+x,1/2-y,-z
1/2-x,1/2+y,-z
1/2-x,1/2-y,-z
1/2+x,1/2+y,-z
1/2-x,1/2+y,z
1/2+x,1/2-y,z
loop_
_atom_site_type_symbol
_atom_site_label
_atom_site_fract_x
_atom_site_fract_y
_atom_site_fract_z
Si Si1 0.189666 0.551187 0.437367
Si Si2 0.000000 0.052143 0.711201
Si Si3 0.000000 0.152262 0.331774
Si Si4 0.195894 0.799620 0.942399
Si Si5 0.804247 0.551413 0.206672
Si Si6 0.197773 0.644757 0.155512
Si Si7 0.294496 0.803874 0.738056
Si Si8 0.000000 0.117433 0.437618
O O1 0.188048 0.546137 0.500000
O O2 0.233029 0.500000 0.413068
O O3 0.331693 0.588241 0.421138
O O4 0.000000 0.567511 0.417049
O O5 0.000000 0.095613 0.671492
O O6 0.826670 0.057698 0.745335
O O7 0.000000 0.000000 0.684812
O O8 0.175602 0.173927 0.308008
O O9 0.000000 0.161146 0.396322
O O10 0.250000 0.750000 0.917328
O O11 0.218966 0.840187 0.899657
O O12 0.000000 0.796679 0.956534
O O13 0.291017 0.808875 0.000000
O O14 0.784046 0.500000 0.180957
O O15 0.764148 0.589753 0.161654
O O16 0.000000 0.559037 0.228447
O O17 0.268110 0.672091 0.207152
O O18 0.000000 0.657214 0.150282
O O19 0.500000 0.811830 0.726571
O O20 0.250000 0.750000 0.742354
O O21 0.000000 0.132891 0.500000
#
# Coordination Sequence:
#
# PCOD8270898 Si02
#       8
#    16   8   8  16  16  16  16   8
#     4   8  14  27  49  76 107 145 187 231 276 322
#     4  10  20  34  54  81 114 155 188 221 275 337
#     4  12  24  38  60  85 118 154 179 242 290 337
#     4  10  21  34  50  75 110 149 185 226 275 331
#     4   9  18  33  52  77 110 145 186 230 275 327
#     4  10  20  33  56  83 108 144 184 226 276 336
#     4  11  23  39  60  89 115 142 184 234 297 350
#     4  10  21  35  53  78 110 148 194 231 279 343
#
# _framework density 18.596032999999998
#
# number of rings (size 3 to 8) (size 9 to 14) (size 15 to 20)
#    0.000    2.154    2.308    1.615    2.154    4.308 
#    0.000    0.000    0.000    2.769    0.000    3.231 
#    0.000    0.000    0.000    0.000    0.000    0.000 
#
# Total GULP energy -644199.047739 kJ/mol
# GULP energy per Si atom -12388.443226 kJ/mol
# Density = 1.855371 g / cm^3
# Si number density = 18.596033 Si / 1000 Ang^3
#
#
#
# Elastic Constant Matrix: (Units=GPa)
#
#
# Indices 1 2 3 4 5 6 
#
# 1 92.3306 32.0164 41.2460 0.0000 0.0000 0.0000
# 2 32.0164 111.2381 52.6031 0.0000 0.0000 0.0000
# 3 41.2460 52.6031 101.4297 0.0000 0.0000 0.0000
# 4 0.0000 0.0000 0.0000 21.9394 0.0000 0.0000
# 5 0.0000 0.0000 0.0000 0.0000 17.4122 0.0000
# 6 0.0000 0.0000 0.0000 0.0000 0.0000 15.1588
#
#
#
# Elastic Compliance Matrix: (Units=1/GPa)
#
#
# Indices 1 2 3 4 5 6 
#
# 1 0.013475 -0.001705 -0.004595 0.000000 0.000000 0.000000
# 2 -0.001705 0.012127 -0.005596 0.000000 0.000000 0.000000
# 3 -0.004595 -0.005596 0.014630 0.000000 0.000000 0.000000
# 4 0.000000 0.000000 0.000000 0.045580 0.000000 0.000000
# 5 0.000000 0.000000 0.000000 0.000000 0.057431 0.000000
# 6 0.000000 0.000000 0.000000 0.000000 0.000000 0.065968
#
#
# Mechanical properties :
#
#
# Convention : Reuss Voigt Hill
#
# Bulk Modulus (GPa) = 60.83104 61.85880 61.34492
# Shear Modulus (GPa) = 20.96596 22.84428 21.90512
#
# Velocity S-wave (km/s) = 3.36138 3.50873 3.43584
# Velocity P-wave (km/s) = 6.91723 7.05348 6.98569
#
# Compressibility (1/GPa) = 0.01643898
#
# Stress axis : x y z
#
# Youngs Moduli (GPa) = 74.21334 82.46308 68.35476
#
# Poissons Ratio (x) = 0.14063 0.31409
# Poissons Ratio (y) = 0.12656 0.38249
# Poissons Ratio (z) = 0.34101 0.46143
#
# Static dielectric constant tensor:
#      x y z
#    x 3.845150 0.000000 0.000000 
#    y 0.000000 3.465550 0.000000 
#    z 0.000000 0.000000 3.337060 
# 
# 
# High freq. dielectric constant tensor:
#      x y z
#    x 1.740140 0.000000 0.000000 
#    y 0.000000 1.707900 0.000000 
#    z 0.000000 0.000000 1.695710 
# 
# From -- ./inp_files/68332.got.cif
#   From: 2010.03.12/outbox.cif.g09.slc.cpg/sg65_35_cif.got.tgz:68332.got - 2010.04.10 20:52:16.
