data_PCOD8270180
_publ_section_title
;
Structure prediction by ZEFSAII (Michael W. Deem and Ramdas Pophale) SiO2 
 PCOD8270180
Probable space group: C M M M
;
_chemical_formula_sum "Si O2"
_cell_formula_units_Z 128
_cell_length_a 9.701232
_cell_length_b 29.866997
_cell_length_c 24.488251
_cell_angle_alpha 90.000000
_cell_angle_beta 90.000000
_cell_angle_gamma 90.000000
_cell_volume 7095.389109
_symmetry_space_group_name_H-M "C M M M"
_symmetry_group_IT_number 65
_symmetry_cell_setting 'orthorhombic'
loop_
_space_group_symop_operation_xyz
x,y,z
-x,-y,z
x,-y,-z
-x,y,-z
-x,-y,-z
x,y,-z
-x,y,z
x,-y,z
1/2+x,1/2+y,z
1/2-x,1/2-y,z
1/2+x,1/2-y,-z
1/2-x,1/2+y,-z
1/2-x,1/2-y,-z
1/2+x,1/2+y,-z
1/2-x,1/2+y,z
1/2+x,1/2-y,z
loop_
_atom_site_type_symbol
_atom_site_label
_atom_site_fract_x
_atom_site_fract_y
_atom_site_fract_z
Si Si1 0.337258 0.125009 0.860741
Si Si2 0.836731 0.549464 0.060191
Si Si3 0.346461 0.288569 0.581040
Si Si4 0.161772 0.882087 0.247764
Si Si5 0.662649 0.612119 0.438957
Si Si6 0.658867 0.792654 0.937865
Si Si7 0.336325 0.550738 0.658445
Si Si8 0.650216 0.713006 0.708844
O O1 0.500000 0.121460 0.848585
O O2 0.278407 0.084565 0.897000
O O3 0.253705 0.120349 0.805566
O O4 0.301411 0.169775 0.893963
O O5 0.793246 0.500000 0.079813
O O6 0.000000 0.554037 0.056921
O O7 0.775401 0.559172 0.000000
O O8 0.500000 0.285310 0.555162
O O9 0.250000 0.250000 0.554677
O O10 0.279940 0.337384 0.568918
O O11 0.357033 0.279848 0.644841
O O12 0.206350 0.923992 0.285681
O O13 0.199216 0.837356 0.280834
O O14 0.000000 0.884911 0.232841
O O15 0.699561 0.594840 0.500000
O O16 0.500000 0.614712 0.429551
O O17 0.724739 0.577599 0.394170
O O18 0.500000 0.778843 0.931798
O O19 0.750000 0.750000 0.923427
O O20 0.687538 0.809638 0.000000
O O21 0.500000 0.549328 0.653763
O O22 0.276628 0.500000 0.659253
O O23 0.500000 0.720904 0.735340
O O24 0.750000 0.750000 0.736099
#
# Coordination Sequence:
#
# PCOD8270180 Si02
#       8
#    16  16  16  16  16  16  16  16
#     4  10  20  32  49  75 102 126 159 204 244 282
#     4   8  14  27  49  74  97 122 153 191 238 288
#     4   9  16  28  46  69  97 128 158 191 234 283
#     4  10  20  34  49  68  97 132 164 196 241 293
#     4   9  16  27  46  72 100 127 159 204 251 291
#     4   9  18  33  52  73 100 134 169 205 246 291
#     4   9  17  31  50  69  93 128 167 203 244 298
#     4   9  17  30  48  66  89 123 160 194 229 275
#
# _framework density 18.039885000000002
#
# number of rings (size 3 to 8) (size 9 to 14) (size 15 to 20)
#    0.000    2.875    1.250    0.750    0.000    4.000 
#    0.000    3.750    0.000    1.125    0.000    0.875 
#    0.000    0.000    0.000    2.250    0.000    2.500 
#
# Total GULP energy -793161.453468 kJ/mol
# GULP energy per Si atom -12393.147710 kJ/mol
# Density = 1.799883 g / cm^3
# Si number density = 18.039885 Si / 1000 Ang^3
#
#
#
# Elastic Constant Matrix: (Units=GPa)
#
#
# Indices 1 2 3 4 5 6 
#
# 1 39.3436 47.8423 39.3052 0.0000 0.0000 0.0000
# 2 47.8423 156.5054 68.9473 0.0000 0.0000 0.0000
# 3 39.3052 68.9473 107.7585 0.0000 0.0000 0.0000
# 4 0.0000 0.0000 0.0000 12.3727 0.0000 0.0000
# 5 0.0000 0.0000 0.0000 0.0000 -4.8079 0.0000
# 6 0.0000 0.0000 0.0000 0.0000 0.0000 17.9562
#
#
#
# Elastic Compliance Matrix: (Units=1/GPa)
#
#
# Indices 1 2 3 4 5 6 
#
# 1 0.048960 -0.009886 -0.011533 0.000000 0.000000 0.000000
# 2 -0.009886 0.010894 -0.003364 0.000000 0.000000 0.000000
# 3 -0.011533 -0.003364 0.015639 0.000000 0.000000 0.000000
# 4 0.000000 0.000000 0.000000 0.080823 0.000000 0.000000
# 5 0.000000 0.000000 0.000000 0.000000 -0.207992 0.000000
# 6 0.000000 0.000000 0.000000 0.000000 0.000000 0.055691
#
#
# Mechanical properties :
#
#
# Convention : Reuss Voigt Hill
#
# Bulk Modulus (GPa) = 38.57006 68.42189 53.49598
# Shear Modulus (GPa) = 80.35531 14.93839 47.64685
#
# Velocity S-wave (km/s) = 6.68130 2.88075 5.14483
# Velocity P-wave (km/s) = 8.99703 7.00539 8.06294
#
# Compressibility (1/GPa) = 0.02592684
#
# Stress axis : x y z
#
# Youngs Moduli (GPa) = 20.42473 91.79642 63.94170
#
# Poissons Ratio (x) = 0.90749 0.73744
# Poissons Ratio (y) = 0.20192 0.21511
# Poissons Ratio (z) = 0.23556 0.30882
#
# Static dielectric constant tensor:
#      x y z
#    x 3.104240 0.000000 0.000000 
#    y 0.000000 3.623770 0.000000 
#    z 0.000000 0.000000 3.050790 
# 
# 
# High freq. dielectric constant tensor:
#      x y z
#    x 1.647250 0.000000 0.000000 
#    y 0.000000 1.706930 0.000000 
#    z 0.000000 0.000000 1.700210 
# 
# From -- ./inp_files/69357.got.cif
#   From: 2010.03.12/outbox.cif.g09.slc.cpg/sg65_35_cif.got.tgz:69357.got - 2010.04.10 20:52:16.
