data_PCOD8270825
_publ_section_title
;
Structure prediction by ZEFSAII (Michael W. Deem and Ramdas Pophale) SiO2 
 PCOD8270825
Probable space group: C M M M
;
_chemical_formula_sum "Si O2"
_cell_formula_units_Z 96
_cell_length_a 17.845567
_cell_length_b 25.107052
_cell_length_c 11.616141
_cell_angle_alpha 90.000000
_cell_angle_beta 90.000000
_cell_angle_gamma 90.000000
_cell_volume 5204.607080
_symmetry_space_group_name_H-M "C M M M"
_symmetry_group_IT_number 65
_symmetry_cell_setting 'orthorhombic'
loop_
_space_group_symop_operation_xyz
x,y,z
-x,-y,z
x,-y,-z
-x,y,-z
-x,-y,-z
x,y,-z
-x,y,z
x,-y,z
1/2+x,1/2+y,z
1/2-x,1/2-y,z
1/2+x,1/2-y,-z
1/2-x,1/2+y,-z
1/2-x,1/2-y,-z
1/2+x,1/2+y,-z
1/2-x,1/2+y,z
1/2+x,1/2-y,z
loop_
_atom_site_type_symbol
_atom_site_label
_atom_site_fract_x
_atom_site_fract_y
_atom_site_fract_z
Si Si1 0.412124 0.859452 0.866147
Si Si2 0.340790 0.560799 0.867377
Si Si3 0.416326 0.655775 0.746488
Si Si4 0.661571 0.749252 0.129103
Si Si5 0.689751 0.938456 0.737618
Si Si6 0.583400 0.616935 0.500000
Si Si7 0.260103 0.562605 0.500000
O O1 0.500000 0.854049 0.843696
O O2 0.372378 0.804839 0.827221
O O3 0.381402 0.905999 0.783854
O O4 0.395048 0.872464 0.000000
O O5 0.366108 0.500000 0.845794
O O6 0.395375 0.597666 0.794143
O O7 0.255330 0.569033 0.830160
O O8 0.347014 0.577125 0.000000
O O9 0.500000 0.669158 0.787621
O O10 0.362011 0.701301 0.790011
O O11 0.409605 0.655350 0.609311
O O12 0.750000 0.750000 0.133311
O O13 0.632434 0.738056 0.000000
O O14 0.718284 0.915545 0.614208
O O15 0.665523 0.000000 0.726697
O O16 0.500000 0.589002 0.500000
O O17 0.651422 0.575213 0.500000
O O18 0.255042 0.500000 0.500000
#
# Coordination Sequence:
#
# PCOD8270825 Si02
#       7
#    16  16  16  16  16   8   8
#     4  10  21  37  58  86 119 151 188 236 288 346
#     4  10  20  33  52  80 112 146 186 231 280 338
#     4  11  22  37  56  79 113 150 186 232 284 337
#     4  10  21  37  59  86 113 146 188 232 281 340
#     4  10  20  36  58  83 113 148 189 237 286 337
#     4  10  22  37  56  83 114 151 195 240 284 333
#     4  10  20  37  60  83 110 153 201 239 279 336
#
# _framework density 18.445195999999999
#
# number of rings (size 3 to 8) (size 9 to 14) (size 15 to 20)
#    0.000    1.833    1.667    2.500    0.000    5.167 
#    0.000    5.000    0.000    1.500    0.000    0.000 
#    0.000    0.000    0.000    0.000    0.000    0.000 
#
# Total GULP energy -595286.233687 kJ/mol
# GULP energy per Si atom -12401.796535 kJ/mol
# Density = 1.840321 g / cm^3
# Si number density = 18.445196 Si / 1000 Ang^3
#
#
#
# Elastic Constant Matrix: (Units=GPa)
#
#
# Indices 1 2 3 4 5 6 
#
# 1 91.9091 44.0547 44.6285 0.0000 0.0000 0.0000
# 2 44.0547 87.7414 52.4794 0.0000 0.0000 0.0000
# 3 44.6285 52.4794 111.7858 0.0000 0.0000 0.0000
# 4 0.0000 0.0000 0.0000 21.9195 0.0000 0.0000
# 5 0.0000 0.0000 0.0000 0.0000 29.2717 0.0000
# 6 0.0000 0.0000 0.0000 0.0000 0.0000 27.1187
#
#
#
# Elastic Compliance Matrix: (Units=1/GPa)
#
#
# Indices 1 2 3 4 5 6 
#
# 1 0.015236 -0.005578 -0.003464 0.000000 0.000000 0.000000
# 2 -0.005578 0.017889 -0.006171 0.000000 0.000000 0.000000
# 3 -0.003464 -0.006171 0.013226 0.000000 0.000000 0.000000
# 4 0.000000 0.000000 0.000000 0.045621 0.000000 0.000000
# 5 0.000000 0.000000 0.000000 0.000000 0.034163 0.000000
# 6 0.000000 0.000000 0.000000 0.000000 0.000000 0.036875
#
#
# Mechanical properties :
#
#
# Convention : Reuss Voigt Hill
#
# Bulk Modulus (GPa) = 62.79791 63.75128 63.27460
# Shear Modulus (GPa) = 25.15789 25.68024 25.41906
#
# Velocity S-wave (km/s) = 3.69714 3.73533 3.71629
# Velocity P-wave (km/s) = 7.23497 7.29665 7.26588
#
# Compressibility (1/GPa) = 0.01592410
#
# Stress axis : x y z
#
# Youngs Moduli (GPa) = 65.63358 55.90019 75.60962
#
# Poissons Ratio (x) = 0.31182 0.26191
# Poissons Ratio (y) = 0.36611 0.46661
# Poissons Ratio (z) = 0.22736 0.34498
#
# Static dielectric constant tensor:
#      x y z
#    x 3.340880 0.000000 0.000000 
#    y 0.000000 3.265580 0.000000 
#    z 0.000000 0.000000 3.638590 
# 
# 
# High freq. dielectric constant tensor:
#      x y z
#    x 1.715990 0.000000 0.000000 
#    y 0.000000 1.706580 0.000000 
#    z 0.000000 0.000000 1.719220 
# 
# From -- ./inp_files/27199.got.cif
#   From: 2010.03.12/outbox.cif.g09.slc.cpg/sg65_14_cif.got.tgz:27199.got - 2010.04.10 20:52:16.
