data_PCOD8270912
_publ_section_title
;
Structure prediction by ZEFSAII (Michael W. Deem and Ramdas Pophale) SiO2 
 PCOD8270912
Probable space group: C M M M
;
_chemical_formula_sum "Si O2"
_cell_formula_units_Z 96
_cell_length_a 29.984794
_cell_length_b 19.438118
_cell_length_c 9.295888
_cell_angle_alpha 90.000000
_cell_angle_beta 90.000000
_cell_angle_gamma 90.000000
_cell_volume 5418.089394
_symmetry_space_group_name_H-M "C M M M"
_symmetry_group_IT_number 65
_symmetry_cell_setting 'orthorhombic'
loop_
_space_group_symop_operation_xyz
x,y,z
-x,-y,z
x,-y,-z
-x,y,-z
-x,-y,-z
x,y,-z
-x,y,z
x,-y,z
1/2+x,1/2+y,z
1/2-x,1/2-y,z
1/2+x,1/2-y,-z
1/2-x,1/2+y,-z
1/2-x,1/2-y,-z
1/2+x,1/2+y,-z
1/2-x,1/2+y,z
1/2+x,1/2-y,z
loop_
_atom_site_type_symbol
_atom_site_label
_atom_site_fract_x
_atom_site_fract_y
_atom_site_fract_z
Si Si1 0.664753 0.421511 0.336139
Si Si2 0.552442 0.778904 0.331298
Si Si3 0.267873 0.077286 0.667806
Si Si4 0.052044 0.572306 0.331793
Si Si5 0.292864 0.792668 0.831206
Si Si6 0.124000 0.198311 0.169173
O O1 0.657910 0.396479 0.500000
O O2 0.649068 0.500000 0.319544
O O3 0.716200 0.414163 0.291609
O O4 0.635091 0.376825 0.229131
O O5 0.562895 0.770288 0.500000
O O6 0.500000 0.770084 0.302778
O O7 0.569914 0.854344 0.273243
O O8 0.577983 0.721775 0.240789
O O9 0.275651 0.090274 0.500000
O O10 0.296168 0.133171 0.755366
O O11 0.283781 0.000000 0.708961
O O12 0.061253 0.572029 0.500000
O O13 0.072725 0.500000 0.266719
O O14 0.000000 0.571068 0.300317
O O15 0.250000 0.750000 0.775282
O O16 0.336801 0.750796 0.788426
O O17 0.289100 0.805645 0.000000
O O18 0.117327 0.192925 0.000000
#
# Coordination Sequence:
#
# PCOD8270912 Si02
#       6
#    16  16  16  16  16  16
#     4   9  18  33  53  77 103 130 165 210 257 307
#     4   9  18  33  53  76 102 134 172 214 262 312
#     4   9  18  32  51  76 103 133 172 216 260 302
#     4   7  10  20  42  70  94 117 153 201 246 288
#     4  10  20  34  49  71 104 140 175 207 244 300
#     4  11  22  34  51  76 105 137 173 212 253 301
#
# _framework density 17.718423000000001
#
# number of rings (size 3 to 8) (size 9 to 14) (size 15 to 20)
#    0.000    2.833    1.667    3.000    0.000    2.667 
#    0.000    2.500    0.000    4.000    0.000    5.833 
#    0.000    0.000    0.000    0.000    0.000    0.000 
#
# Total GULP energy -594804.153650 kJ/mol
# GULP energy per Si atom -12391.753201 kJ/mol
# Density = 1.767810 g / cm^3
# Si number density = 17.718423 Si / 1000 Ang^3
#
#
#
# Elastic Constant Matrix: (Units=GPa)
#
#
# Indices 1 2 3 4 5 6 
#
# 1 55.1837 36.0124 34.4892 0.0000 0.0000 0.0000
# 2 36.0124 114.6748 49.6744 0.0000 0.0000 0.0000
# 3 34.4892 49.6744 58.3312 0.0000 0.0000 0.0000
# 4 0.0000 0.0000 0.0000 25.3007 0.0000 0.0000
# 5 0.0000 0.0000 0.0000 0.0000 21.6592 0.0000
# 6 0.0000 0.0000 0.0000 0.0000 0.0000 23.0841
#
#
#
# Elastic Compliance Matrix: (Units=1/GPa)
#
#
# Indices 1 2 3 4 5 6 
#
# 1 0.029255 -0.002685 -0.015011 0.000000 0.000000 0.000000
# 2 -0.002685 0.014064 -0.010389 0.000000 0.000000 0.000000
# 3 -0.015011 -0.010389 0.034867 0.000000 0.000000 0.000000
# 4 0.000000 0.000000 0.000000 0.039525 0.000000 0.000000
# 5 0.000000 0.000000 0.000000 0.000000 0.046170 0.000000
# 6 0.000000 0.000000 0.000000 0.000000 0.000000 0.043320
#
#
# Mechanical properties :
#
#
# Convention : Reuss Voigt Hill
#
# Bulk Modulus (GPa) = 45.42354 52.06021 48.74187
# Shear Modulus (GPa) = 18.47003 21.20970 19.83987
#
# Velocity S-wave (km/s) = 3.23216 3.46358 3.34987
# Velocity P-wave (km/s) = 6.29453 6.74099 6.52158
#
# Compressibility (1/GPa) = 0.02201502
#
# Stress axis : x y z
#
# Youngs Moduli (GPa) = 34.18190 71.10454 28.68079
#
# Poissons Ratio (x) = 0.19090 0.43054
# Poissons Ratio (y) = 0.09177 0.29797
# Poissons Ratio (z) = 0.51311 0.73872
#
# Static dielectric constant tensor:
#      x y z
#    x 2.955480 0.000000 0.000000 
#    y 0.000000 3.540720 0.000000 
#    z 0.000000 0.000000 2.993310 
# 
# 
# High freq. dielectric constant tensor:
#      x y z
#    x 1.651710 0.000000 0.000000 
#    y 0.000000 1.699220 0.000000 
#    z 0.000000 0.000000 1.660990 
# 
# From -- ./inp_files/16333.got.cif
#   From: 2010.03.12/outbox.cif.g09.slc.cpg/sg65_9_cif.got.tgz:16333.got - 2010.04.10 20:52:16.
