data_PCOD8270734
_publ_section_title
;
Structure prediction by ZEFSAII (Michael W. Deem and Ramdas Pophale) SiO2 
 PCOD8270734
Probable space group: C M M M
;
_chemical_formula_sum "Si O2"
_cell_formula_units_Z 104
_cell_length_a 8.840983
_cell_length_b 28.345679
_cell_length_c 23.133716
_cell_angle_alpha 90.000000
_cell_angle_beta 90.000000
_cell_angle_gamma 90.000000
_cell_volume 5797.394042
_symmetry_space_group_name_H-M "C M M M"
_symmetry_group_IT_number 65
_symmetry_cell_setting 'orthorhombic'
loop_
_space_group_symop_operation_xyz
x,y,z
-x,-y,z
x,-y,-z
-x,y,-z
-x,-y,-z
x,y,-z
-x,y,z
x,-y,z
1/2+x,1/2+y,z
1/2-x,1/2-y,z
1/2+x,1/2-y,-z
1/2-x,1/2+y,-z
1/2-x,1/2-y,-z
1/2+x,1/2+y,-z
1/2-x,1/2+y,z
1/2+x,1/2-y,z
loop_
_atom_site_type_symbol
_atom_site_label
_atom_site_fract_x
_atom_site_fract_y
_atom_site_fract_z
Si Si1 0.827015 0.947706 0.165861
Si Si2 0.824015 0.150161 0.882677
Si Si3 0.822879 0.859121 0.671722
Si Si4 0.177354 0.798578 0.435528
Si Si5 0.825363 0.446534 0.713515
Si Si6 0.678738 0.199083 0.774097
Si Si7 0.321752 0.301312 0.000000
O O1 0.795030 0.906527 0.119175
O O2 0.719129 0.938713 0.219992
O O3 0.000000 0.944412 0.187847
O O4 0.795999 0.000000 0.138866
O O5 0.728639 0.176681 0.834378
O O6 0.000000 0.161730 0.872361
O O7 0.767767 0.169132 0.944365
O O8 0.775552 0.839236 0.609118
O O9 0.775732 0.913906 0.671941
O O10 0.730731 0.833579 0.721798
O O11 0.000000 0.852932 0.683786
O O12 0.234960 0.812298 0.500000
O O13 0.250000 0.750000 0.414091
O O14 0.000000 0.790651 0.435609
O O15 0.794110 0.500000 0.694185
O O16 0.000000 0.432795 0.706942
O O17 0.500000 0.204018 0.773308
O O18 0.750000 0.250000 0.765666
O O19 0.250000 0.250000 0.000000
O O20 0.500000 0.294835 0.000000
#
# Coordination Sequence:
#
# PCOD8270734 Si02
#       7
#    16  16  16  16  16  16   8
#     4   9  17  31  53  78 105 138 173 211 261 320
#     4  10  20  36  55  77 106 138 177 220 266 318
#     4  11  21  34  54  80 109 140 176 218 266 319
#     4   9  19  35  54  77 106 141 180 219 260 311
#     4  10  20  33  51  78 110 141 176 218 264 316
#     4  12  24  36  52  76 107 139 174 219 270 319
#     4  10  22  38  55  75 101 139 182 226 266 317
#
# _framework density 17.939094999999998
#
# number of rings (size 3 to 8) (size 9 to 14) (size 15 to 20)
#    0.000    1.846    1.538    3.231    0.000    5.231 
#    0.000    0.385    0.000    2.769    0.000    3.231 
#    0.000    4.308    0.000    0.000    0.000    0.000 
#
# Total GULP energy -644825.250247 kJ/mol
# GULP energy per Si atom -12400.485582 kJ/mol
# Density = 1.789827 g / cm^3
# Si number density = 17.939095 Si / 1000 Ang^3
#
#
#
# Elastic Constant Matrix: (Units=GPa)
#
#
# Indices 1 2 3 4 5 6 
#
# 1 70.7219 39.1590 40.6677 0.0000 0.0000 0.0000
# 2 39.1590 131.4529 63.4816 0.0000 0.0000 0.0000
# 3 40.6677 63.4816 110.8978 0.0000 0.0000 0.0000
# 4 0.0000 0.0000 0.0000 2.2065 0.0000 0.0000
# 5 0.0000 0.0000 0.0000 0.0000 9.0959 0.0000
# 6 0.0000 0.0000 0.0000 0.0000 0.0000 25.9618
#
#
#
# Elastic Compliance Matrix: (Units=1/GPa)
#
#
# Indices 1 2 3 4 5 6 
#
# 1 0.018812 -0.003141 -0.005101 0.000000 0.000000 0.000000
# 2 -0.003141 0.011038 -0.005167 0.000000 0.000000 0.000000
# 3 -0.005101 -0.005167 0.013845 0.000000 0.000000 0.000000
# 4 0.000000 0.000000 0.000000 0.453201 0.000000 0.000000
# 5 0.000000 0.000000 0.000000 0.000000 0.109940 0.000000
# 6 0.000000 0.000000 0.000000 0.000000 0.000000 0.038518
#
#
# Mechanical properties :
#
#
# Convention : Reuss Voigt Hill
#
# Bulk Modulus (GPa) = 59.24525 66.63214 62.93869
# Shear Modulus (GPa) = 7.37683 18.77047 13.07365
#
# Velocity S-wave (km/s) = 2.03004 3.23823 2.70252
# Velocity P-wave (km/s) = 6.21227 7.15582 6.70067
#
# Compressibility (1/GPa) = 0.01687899
#
# Stress axis : x y z
#
# Youngs Moduli (GPa) = 53.15741 90.59567 72.22563
#
# Poissons Ratio (x) = 0.28453 0.36841
# Poissons Ratio (y) = 0.16695 0.37318
# Poissons Ratio (z) = 0.27114 0.46809
#
# Static dielectric constant tensor:
#      x y z
#    x 3.341720 0.000000 0.000000 
#    y 0.000000 3.660440 0.000000 
#    z 0.000000 0.000000 3.368420 
# 
# 
# High freq. dielectric constant tensor:
#      x y z
#    x 1.697510 0.000000 0.000000 
#    y 0.000000 1.706950 0.000000 
#    z 0.000000 0.000000 1.672490 
# 
# From -- ./inp_files/60823.got.cif
#   From: 2010.03.12/outbox.cif.g09.slc.cpg/sg65_31_cif.got.tgz:60823.got - 2010.04.10 20:52:16.
