data_PCOD8270057
_publ_section_title
;
Structure prediction by ZEFSAII (Michael W. Deem and Ramdas Pophale) SiO2 
 PCOD8270057
Probable space group: C M M M
;
_chemical_formula_sum "Si O2"
_cell_formula_units_Z 88
_cell_length_a 9.316772
_cell_length_b 18.519543
_cell_length_c 28.359871
_cell_angle_alpha 90.000000
_cell_angle_beta 90.000000
_cell_angle_gamma 90.000000
_cell_volume 4893.279062
_symmetry_space_group_name_H-M "C M M M"
_symmetry_group_IT_number 65
_symmetry_cell_setting 'orthorhombic'
loop_
_space_group_symop_operation_xyz
x,y,z
-x,-y,z
x,-y,-z
-x,y,-z
-x,-y,-z
x,y,-z
-x,y,z
x,-y,z
1/2+x,1/2+y,z
1/2-x,1/2-y,z
1/2+x,1/2-y,-z
1/2-x,1/2+y,-z
1/2-x,1/2-y,-z
1/2+x,1/2+y,-z
1/2-x,1/2+y,z
1/2+x,1/2-y,z
loop_
_atom_site_type_symbol
_atom_site_label
_atom_site_fract_x
_atom_site_fract_y
_atom_site_fract_z
Si Si1 0.331592 0.824896 0.000000
Si Si2 0.166984 0.416498 0.909426
Si Si3 0.829672 0.419376 0.552381
Si Si4 0.665558 0.083509 0.271032
Si Si5 0.168958 0.675754 0.637884
Si Si6 0.837865 0.085892 0.818803
O O1 0.250000 0.750000 0.000000
O O2 0.285464 0.870701 0.045477
O O3 0.500000 0.809408 0.000000
O O4 0.203026 0.500000 0.919919
O O5 0.256079 0.385892 0.865138
O O6 0.000000 0.406870 0.897640
O O7 0.782453 0.393533 0.500000
O O8 0.769244 0.500000 0.562107
O O9 0.769840 0.363907 0.591166
O O10 0.000000 0.422290 0.556178
O O11 0.500000 0.094094 0.257312
O O12 0.707392 0.126239 0.317770
O O13 0.759170 0.115028 0.227961
O O14 0.700459 0.000000 0.280864
O O15 0.250000 0.750000 0.644098
O O16 0.000000 0.690287 0.634087
O O17 0.000000 0.115564 0.819449
O O18 0.833169 0.000000 0.818417
#
# Coordination Sequence:
#
# PCOD8270057 Si02
#       6
#     8  16  16  16  16  16
#     4  10  21  35  51  73 101 132 164 198 238 284
#     4   9  17  32  54  76  98 127 164 201 236 280
#     4   8  14  27  49  74  96 121 159 204 242 279
#     4   9  17  31  51  71  92 123 163 202 237 278
#     4  10  20  32  47  70  99 129 161 197 239 287
#     4   9  17  29  48  76 103 123 151 197 249 292
#
# _framework density 17.983851000000001
#
# number of rings (size 3 to 8) (size 9 to 14) (size 15 to 20)
#    0.000    2.909    0.000    1.909    0.000    7.273 
#    0.000    0.909    0.000    4.364    0.000    1.273 
#    0.000    0.000    0.000    0.000    0.000    0.000 
#
# Total GULP energy -545558.495083 kJ/mol
# GULP energy per Si atom -12399.056706 kJ/mol
# Density = 1.794292 g / cm^3
# Si number density = 17.983851 Si / 1000 Ang^3
#
#
#
# Elastic Constant Matrix: (Units=GPa)
#
#
# Indices 1 2 3 4 5 6 
#
# 1 65.0137 43.2673 71.9771 0.0000 0.0000 0.0000
# 2 43.2673 86.9655 74.6209 0.0000 0.0000 0.0000
# 3 71.9771 74.6209 184.3227 0.0000 0.0000 0.0000
# 4 0.0000 0.0000 0.0000 3.3275 0.0000 0.0000
# 5 0.0000 0.0000 0.0000 0.0000 16.7007 0.0000
# 6 0.0000 0.0000 0.0000 0.0000 0.0000 24.8223
#
#
#
# Elastic Compliance Matrix: (Units=1/GPa)
#
#
# Indices 1 2 3 4 5 6 
#
# 1 0.029949 -0.007455 -0.008677 0.000000 0.000000 0.000000
# 2 -0.007455 0.019475 -0.004973 0.000000 0.000000 0.000000
# 3 -0.008677 -0.004973 0.010827 0.000000 0.000000 0.000000
# 4 0.000000 0.000000 0.000000 0.300527 0.000000 0.000000
# 5 0.000000 0.000000 0.000000 0.000000 0.059878 0.000000
# 6 0.000000 0.000000 0.000000 0.000000 0.000000 0.040286
#
#
# Mechanical properties :
#
#
# Convention : Reuss Voigt Hill
#
# Bulk Modulus (GPa) = 55.42984 79.55916 67.49450
# Shear Modulus (GPa) = 9.81998 18.73252 14.27625
#
# Velocity S-wave (km/s) = 2.33929 3.23093 2.82057
# Velocity P-wave (km/s) = 6.17943 7.63242 6.94403
#
# Compressibility (1/GPa) = 0.01804083
#
# Stress axis : x y z
#
# Youngs Moduli (GPa) = 33.39013 51.34770 92.36348
#
# Poissons Ratio (x) = 0.38281 0.80142
# Poissons Ratio (y) = 0.24893 0.45933
# Poissons Ratio (z) = 0.28972 0.25535
#
# Static dielectric constant tensor:
#      x y z
#    x 3.143740 0.000000 0.000000 
#    y 0.000000 3.110210 0.000000 
#    z 0.000000 0.000000 3.603710 
# 
# 
# High freq. dielectric constant tensor:
#      x y z
#    x 1.671580 0.000000 0.000000 
#    y 0.000000 1.671790 0.000000 
#    z 0.000000 0.000000 1.714400 
# 
# From -- ./inp_files/73185.got.cif
#   From: 2010.03.12/outbox.cif.g09.slc.cpg/sg65_37_cif.got.tgz:73185.got - 2010.04.10 20:52:16.
