data_PCOD8270009
_publ_section_title
;
Structure prediction by ZEFSAII (Michael W. Deem and Ramdas Pophale) SiO2 
 PCOD8270009
Probable space group: C M M M
;
_chemical_formula_sum "Si O2"
_cell_formula_units_Z 120
_cell_length_a 8.692873
_cell_length_b 28.113741
_cell_length_c 28.813266
_cell_angle_alpha 90.000000
_cell_angle_beta 90.000000
_cell_angle_gamma 90.000000
_cell_volume 7041.650453
_symmetry_space_group_name_H-M "C M M M"
_symmetry_group_IT_number 65
_symmetry_cell_setting 'orthorhombic'
loop_
_space_group_symop_operation_xyz
x,y,z
-x,-y,z
x,-y,-z
-x,y,-z
-x,-y,-z
x,y,-z
-x,y,z
x,-y,z
1/2+x,1/2+y,z
1/2-x,1/2-y,z
1/2+x,1/2-y,-z
1/2-x,1/2+y,-z
1/2-x,1/2-y,-z
1/2+x,1/2+y,-z
1/2-x,1/2+y,z
1/2+x,1/2-y,z
loop_
_atom_site_type_symbol
_atom_site_label
_atom_site_fract_x
_atom_site_fract_y
_atom_site_fract_z
Si Si1 0.821318 0.138443 0.264365
Si Si2 0.818982 0.197944 0.000000
Si Si3 0.180949 0.801756 0.548975
Si Si4 0.320906 0.446074 0.880771
Si Si5 0.180216 0.644862 0.086732
Si Si6 0.320407 0.301984 0.172899
Si Si7 0.818047 0.197825 0.649253
Si Si8 0.823622 0.553680 0.782543
O O1 0.790769 0.174938 0.222733
O O2 0.755890 0.162391 0.311261
O O3 0.727813 0.089635 0.257684
O O4 0.000000 0.125504 0.268727
O O5 0.750000 0.250000 0.000000
O O6 0.767305 0.170346 0.045414
O O7 0.000000 0.202674 0.000000
O O8 0.230463 0.828348 0.500000
O O9 0.250000 0.750000 0.547710
O O10 0.230758 0.824701 0.598555
O O11 0.000000 0.796230 0.549555
O O12 0.500000 0.435233 0.887651
O O13 0.278868 0.500000 0.895020
O O14 0.223787 0.411026 0.913621
O O15 0.281659 0.436802 0.827162
O O16 0.232610 0.666623 0.135325
O O17 0.000000 0.651525 0.079517
O O18 0.500000 0.299648 0.160246
O O19 0.250000 0.250000 0.173142
O O20 0.750000 0.250000 0.656731
O O21 0.000000 0.202848 0.654183
O O22 0.800735 0.500000 0.763980
O O23 0.000000 0.562842 0.796810
#
# Coordination Sequence:
#
# PCOD8270009 Si02
#       8
#    16   8  16  16  16  16  16  16
#     4  10  20  32  47  68  98 132 166 201 244 298
#     4  12  26  46  67  86 111 140 174 213 255 299
#     4   8  13  22  37  56  81 116 160 206 247 287
#     4  10  20  36  59  85 111 138 168 204 249 299
#     4  12  24  40  61  85 110 137 172 211 252 296
#     4  11  22  35  51  73 101 135 173 207 245 291
#     4   9  17  28  41  62  92 129 168 204 245 292
#     4  10  20  33  51  75 100 128 164 204 246 295
#
# _framework density 17.041459
#
# number of rings (size 3 to 8) (size 9 to 14) (size 15 to 20)
#    0.000    1.867    1.333    3.800    0.000    2.667 
#    0.000    0.333    0.000    2.000    0.000    0.000 
#    0.000    0.533    0.000    6.667    0.000    1.067 
#
# Total GULP energy -743712.743066 kJ/mol
# GULP energy per Si atom -12395.212384 kJ/mol
# Density = 1.700267 g / cm^3
# Si number density = 17.041459 Si / 1000 Ang^3
#
#
#
# Elastic Constant Matrix: (Units=GPa)
#
#
# Indices 1 2 3 4 5 6 
#
# 1 73.6429 37.8536 34.2727 0.0000 0.0000 0.0000
# 2 37.8536 104.9066 47.7639 0.0000 0.0000 0.0000
# 3 34.2727 47.7639 112.0016 0.0000 0.0000 0.0000
# 4 0.0000 0.0000 0.0000 5.8978 0.0000 0.0000
# 5 0.0000 0.0000 0.0000 0.0000 47.3669 0.0000
# 6 0.0000 0.0000 0.0000 0.0000 0.0000 28.9765
#
#
#
# Elastic Compliance Matrix: (Units=1/GPa)
#
#
# Indices 1 2 3 4 5 6 
#
# 1 0.017616 -0.004842 -0.003325 0.000000 0.000000 0.000000
# 2 -0.004842 0.013160 -0.004131 0.000000 0.000000 0.000000
# 3 -0.003325 -0.004131 0.011708 0.000000 0.000000 0.000000
# 4 0.000000 0.000000 0.000000 0.169556 0.000000 0.000000
# 5 0.000000 0.000000 0.000000 0.000000 0.021112 0.000000
# 6 0.000000 0.000000 0.000000 0.000000 0.000000 0.034511
#
#
# Mechanical properties :
#
#
# Convention : Reuss Voigt Hill
#
# Bulk Modulus (GPa) = 55.90654 58.92573 57.41614
# Shear Modulus (GPa) = 16.76613 27.82561 22.29587
#
# Velocity S-wave (km/s) = 3.14003 4.04520 3.62101
# Velocity P-wave (km/s) = 6.78408 7.51473 7.15873
#
# Compressibility (1/GPa) = 0.01788699
#
# Stress axis : x y z
#
# Youngs Moduli (GPa) = 56.76777 75.98710 85.41524
#
# Poissons Ratio (x) = 0.36795 0.28404
# Poissons Ratio (y) = 0.27488 0.35281
# Poissons Ratio (z) = 0.18878 0.31387
#
# Static dielectric constant tensor:
#      x y z
#    x 3.211990 0.000000 0.000000 
#    y 0.000000 3.228130 0.000000 
#    z 0.000000 0.000000 3.629270 
# 
# 
# High freq. dielectric constant tensor:
#      x y z
#    x 1.666860 0.000000 0.000000 
#    y 0.000000 1.638970 0.000000 
#    z 0.000000 0.000000 1.653820 
# 
# From -- ./inp_files/73864.got.cif
#   From: 2010.03.12/outbox.cif.g09.slc.cpg/sg65_37_cif.got.tgz:73864.got - 2010.04.10 20:52:16.
