data_PCOD8270947
_publ_section_title
;
Structure prediction by ZEFSAII (Michael W. Deem and Ramdas Pophale) SiO2 
 PCOD8270947
Probable space group: C M M M
;
_chemical_formula_sum "Si O2"
_cell_formula_units_Z 80
_cell_length_a 8.998010
_cell_length_b 28.355752
_cell_length_c 20.950183
_cell_angle_alpha 90.000000
_cell_angle_beta 90.000000
_cell_angle_gamma 90.000000
_cell_volume 5345.341566
_symmetry_space_group_name_H-M "C M M M"
_symmetry_group_IT_number 65
_symmetry_cell_setting 'orthorhombic'
loop_
_space_group_symop_operation_xyz
x,y,z
-x,-y,z
x,-y,-z
-x,y,-z
-x,-y,-z
x,y,-z
-x,y,z
x,-y,z
1/2+x,1/2+y,z
1/2-x,1/2-y,z
1/2+x,1/2-y,-z
1/2-x,1/2+y,-z
1/2-x,1/2-y,-z
1/2+x,1/2+y,-z
1/2-x,1/2+y,z
1/2+x,1/2-y,z
loop_
_atom_site_type_symbol
_atom_site_label
_atom_site_fract_x
_atom_site_fract_y
_atom_site_fract_z
Si Si1 0.334400 0.556310 0.500000
Si Si2 0.328209 0.555882 0.000000
Si Si3 0.164935 0.556153 0.377470
Si Si4 0.823388 0.552365 0.238561
Si Si5 0.177155 0.608594 0.884510
Si Si6 0.172245 0.201349 0.925315
O O1 0.326808 0.500000 0.500000
O O2 0.500000 0.575529 0.500000
O O3 0.259773 0.576933 0.435919
O O4 0.247047 0.575458 0.062011
O O5 0.314436 0.500000 0.000000
O O6 0.500000 0.572532 0.000000
O O7 0.159530 0.500000 0.380958
O O8 0.233867 0.570398 0.308169
O O9 0.000000 0.577140 0.385102
O O10 0.759828 0.500000 0.223458
O O11 0.772238 0.588039 0.183707
O O12 0.000000 0.549274 0.241973
O O13 0.243044 0.660847 0.887006
O O14 0.000000 0.609813 0.893241
O O15 0.250000 0.250000 0.906330
O O16 0.000000 0.203350 0.905601
O O17 0.190842 0.190582 0.000000
#
# Coordination Sequence:
#
# PCOD8270947 Si02
#       6
#     8   8  16  16  16  16
#     4   9  15  21  31  51  77 101 132 175 214 245
#     4  11  23  35  44  59  86 117 149 183 215 249
#     4   8  13  23  38  53  72 103 141 175 206 241
#     4   8  15  27  42  61  84 111 146 182 210 245
#     4  11  20  31  49  68  86 110 142 179 221 262
#     4  10  20  34  51  68  88 108 134 173 218 266
#
# _framework density 14.966303
#
# number of rings (size 3 to 8) (size 9 to 14) (size 15 to 20)
#    0.000    2.600    1.000    3.600    0.000    3.600 
#    0.000    2.000    0.000    4.800    0.000    0.000 
#    0.000    0.000    0.000    0.900    0.000   10.100 
#
# Total GULP energy -495828.681894 kJ/mol
# GULP energy per Si atom -12395.717047 kJ/mol
# Density = 1.493224 g / cm^3
# Si number density = 14.966303 Si / 1000 Ang^3
#
#
#
# Elastic Constant Matrix: (Units=GPa)
#
#
# Indices 1 2 3 4 5 6 
#
# 1 91.7485 38.8946 57.1226 0.0000 0.0000 0.0000
# 2 38.8946 73.9911 52.7056 0.0000 0.0000 0.0000
# 3 57.1226 52.7056 141.9684 0.0000 0.0000 0.0000
# 4 0.0000 0.0000 0.0000 3.9366 0.0000 0.0000
# 5 0.0000 0.0000 0.0000 0.0000 5.0739 0.0000
# 6 0.0000 0.0000 0.0000 0.0000 0.0000 20.0587
#
#
#
# Elastic Compliance Matrix: (Units=1/GPa)
#
#
# Indices 1 2 3 4 5 6 
#
# 1 0.015869 -0.005157 -0.004470 0.000000 0.000000 0.000000
# 2 -0.005157 0.020050 -0.005369 0.000000 0.000000 0.000000
# 3 -0.004470 -0.005369 0.010836 0.000000 0.000000 0.000000
# 4 0.000000 0.000000 0.000000 0.254027 0.000000 0.000000
# 5 0.000000 0.000000 0.000000 0.000000 0.197088 0.000000
# 6 0.000000 0.000000 0.000000 0.000000 0.000000 0.049854
#
#
# Mechanical properties :
#
#
# Convention : Reuss Voigt Hill
#
# Bulk Modulus (GPa) = 59.65780 67.23929 63.44854
# Shear Modulus (GPa) = 8.57186 16.41285 12.49236
#
# Velocity S-wave (km/s) = 2.39580 3.31517 2.89225
# Velocity P-wave (km/s) = 6.89936 7.72518 7.32392
#
# Compressibility (1/GPa) = 0.01676227
#
# Stress axis : x y z
#
# Youngs Moduli (GPa) = 63.01602 49.87446 92.28846
#
# Poissons Ratio (x) = 0.25722 0.41256
# Poissons Ratio (y) = 0.32500 0.49545
# Poissons Ratio (z) = 0.28171 0.26775
#
# Static dielectric constant tensor:
#      x y z
#    x 2.921770 0.000000 0.000000 
#    y 0.000000 2.613320 0.000000 
#    z 0.000000 0.000000 3.182910 
# 
# 
# High freq. dielectric constant tensor:
#      x y z
#    x 1.571560 0.000000 0.000000 
#    y 0.000000 1.527930 0.000000 
#    z 0.000000 0.000000 1.573100 
# 
# From -- ./inp_files/60069.got.cif
#   From: 2010.03.12/outbox.cif.g09.slc.cpg/sg65_31_cif.got.tgz:60069.got - 2010.04.10 20:52:16.
