data_PCOD8270731
_publ_section_title
;
Structure prediction by ZEFSAII (Michael W. Deem and Ramdas Pophale) SiO2 
 PCOD8270731
Probable space group: C M M M
;
_chemical_formula_sum "Si O2"
_cell_formula_units_Z 88
_cell_length_a 18.094897
_cell_length_b 27.415731
_cell_length_c 9.111376
_cell_angle_alpha 90.000000
_cell_angle_beta 90.000000
_cell_angle_gamma 90.000000
_cell_volume 4520.015401
_symmetry_space_group_name_H-M "C M M M"
_symmetry_group_IT_number 65
_symmetry_cell_setting 'orthorhombic'
loop_
_space_group_symop_operation_xyz
x,y,z
-x,-y,z
x,-y,-z
-x,y,-z
-x,-y,-z
x,y,-z
-x,y,z
x,-y,z
1/2+x,1/2+y,z
1/2-x,1/2-y,z
1/2+x,1/2-y,-z
1/2-x,1/2+y,-z
1/2-x,1/2-y,-z
1/2+x,1/2+y,-z
1/2-x,1/2+y,z
1/2+x,1/2-y,z
loop_
_atom_site_type_symbol
_atom_site_label
_atom_site_fract_x
_atom_site_fract_y
_atom_site_fract_z
Si Si1 0.183834 0.055852 0.829658
Si Si2 0.415482 0.172283 0.168223
Si Si3 0.326561 0.908620 0.326008
Si Si4 0.172503 0.231992 0.168780
Si Si5 0.081994 0.857829 0.172133
Si Si6 0.918418 0.500000 0.325559
O O1 0.245732 0.082947 0.736341
O O2 0.109813 0.086943 0.799857
O O3 0.171450 0.000000 0.777531
O O4 0.206473 0.057481 0.000000
O O5 0.500000 0.166891 0.221897
O O6 0.361147 0.141226 0.268947
O O7 0.391476 0.228069 0.186133
O O8 0.407286 0.155244 0.000000
O O9 0.322363 0.907033 0.500000
O O10 0.377270 0.952435 0.266763
O O11 0.250000 0.250000 0.243886
O O12 0.139079 0.182280 0.240712
O O13 0.191413 0.220810 0.000000
O O14 0.000000 0.853039 0.242450
O O15 0.076469 0.847003 0.000000
O O16 0.921101 0.500000 0.500000
O O17 0.000000 0.500000 0.257384
#
# Coordination Sequence:
#
# PCOD8270731 Si02
#       6
#    16  16  16  16  16   8
#     4  10  20  34  54  80 109 138 173 224 275 315
#     4  10  20  33  51  78 110 140 174 220 268 310
#     4  11  21  35  54  75 103 141 181 218 260 318
#     4   9  16  28  49  77 109 143 177 214 259 313
#     4   9  17  30  51  80 111 143 179 218 264 319
#     4   9  18  32  49  69  94 127 170 214 253 301
#
# _framework density 19.468961
#
# number of rings (size 3 to 8) (size 9 to 14) (size 15 to 20)
#    0.000    2.273    0.909    2.727    0.000    6.545 
#    0.000    1.818    0.000    7.636    0.000    1.273 
#    0.000    0.000    0.000    0.000    0.000    0.000 
#
# Total GULP energy -545493.228833 kJ/mol
# GULP energy per Si atom -12397.573383 kJ/mol
# Density = 1.942465 g / cm^3
# Si number density = 19.468961 Si / 1000 Ang^3
#
#
#
# Elastic Constant Matrix: (Units=GPa)
#
#
# Indices 1 2 3 4 5 6 
#
# 1 144.8736 61.0064 23.6576 0.0000 0.0000 0.0000
# 2 61.0064 117.3526 23.1128 0.0000 0.0000 0.0000
# 3 23.6576 23.1128 33.4138 0.0000 0.0000 0.0000
# 4 0.0000 0.0000 0.0000 8.1814 0.0000 0.0000
# 5 0.0000 0.0000 0.0000 0.0000 8.7813 0.0000
# 6 0.0000 0.0000 0.0000 0.0000 0.0000 34.5448
#
#
#
# Elastic Compliance Matrix: (Units=1/GPa)
#
#
# Indices 1 2 3 4 5 6 
#
# 1 0.009220 -0.004060 -0.003719 0.000000 0.000000 0.000000
# 2 -0.004060 0.011654 -0.005186 0.000000 0.000000 0.000000
# 3 -0.003719 -0.005186 0.036148 0.000000 0.000000 0.000000
# 4 0.000000 0.000000 0.000000 0.122229 0.000000 0.000000
# 5 0.000000 0.000000 0.000000 0.000000 0.113879 0.000000
# 6 0.000000 0.000000 0.000000 0.000000 0.000000 0.028948
#
#
# Mechanical properties :
#
#
# Convention : Reuss Voigt Hill
#
# Bulk Modulus (GPa) = 32.16433 56.79930 44.48182
# Shear Modulus (GPa) = 13.95199 22.82569 18.38884
#
# Velocity S-wave (km/s) = 2.67989 3.42777 3.07664
# Velocity P-wave (km/s) = 5.11199 6.70103 5.95971
#
# Compressibility (1/GPa) = 0.03109034
#
# Stress axis : x y z
#
# Youngs Moduli (GPa) = 108.46276 85.81054 27.66388
#
# Poissons Ratio (x) = 0.34843 0.10288
# Poissons Ratio (y) = 0.44041 0.14347
# Poissons Ratio (z) = 0.40338 0.44502
#
# Static dielectric constant tensor:
#      x y z
#    x 3.734710 0.000000 0.000000 
#    y 0.000000 3.689800 0.000000 
#    z 0.000000 0.000000 2.997920 
# 
# 
# High freq. dielectric constant tensor:
#      x y z
#    x 1.769760 0.000000 0.000000 
#    y 0.000000 1.772430 0.000000 
#    z 0.000000 0.000000 1.694990 
# 
# From -- ./inp_files/10072.got.cif
#   From: 2010.03.12/outbox.cif.g09.slc.cpg/sg65_6_cif.got.tgz:10072.got - 2010.04.10 20:52:16.
