data_PCOD8270789
_publ_section_title
;
Structure prediction by ZEFSAII (Michael W. Deem and Ramdas Pophale) SiO2 
 PCOD8270789
Probable space group: C M M M
;
_chemical_formula_sum "Si O2"
_cell_formula_units_Z 80
_cell_length_a 21.951798
_cell_length_b 8.818660
_cell_length_c 21.983670
_cell_angle_alpha 90.000000
_cell_angle_beta 90.000000
_cell_angle_gamma 90.000000
_cell_volume 4255.718495
_symmetry_space_group_name_H-M "C M M M"
_symmetry_group_IT_number 65
_symmetry_cell_setting 'orthorhombic'
loop_
_space_group_symop_operation_xyz
x,y,z
-x,-y,z
x,-y,-z
-x,y,-z
-x,-y,-z
x,y,-z
-x,y,z
x,-y,z
1/2+x,1/2+y,z
1/2-x,1/2-y,z
1/2+x,1/2-y,-z
1/2-x,1/2+y,-z
1/2-x,1/2-y,-z
1/2+x,1/2+y,-z
1/2-x,1/2+y,z
1/2+x,1/2-y,z
loop_
_atom_site_type_symbol
_atom_site_label
_atom_site_fract_x
_atom_site_fract_y
_atom_site_fract_z
Si Si1 0.000000 0.324423 0.432240
Si Si2 0.887248 0.825168 0.615629
Si Si3 0.813600 0.177123 0.500000
Si Si4 0.311422 0.676763 0.733982
Si Si5 0.068944 0.826079 0.071900
Si Si6 0.684060 0.180519 0.862493
O O1 0.054481 0.277518 0.389215
O O2 0.000000 0.500000 0.443389
O O3 0.000000 0.245823 0.500000
O O4 0.844869 0.765566 0.561465
O O5 0.861127 0.798138 0.682398
O O6 0.904096 0.000000 0.605239
O O7 0.750000 0.250000 0.500000
O O8 0.806606 0.000000 0.500000
O O9 0.301430 0.500000 0.749051
O O10 0.250000 0.750000 0.707925
O O11 0.331196 0.764211 0.794626
O O12 0.125212 0.728779 0.098106
O O13 0.000000 0.772788 0.092704
O O14 0.078136 0.000000 0.092379
O O15 0.072880 0.810737 0.000000
O O16 0.750000 0.250000 0.884151
O O17 0.690361 0.000000 0.865292
#
# Coordination Sequence:
#
# PCOD8270789 Si02
#       6
#     8  16   8  16  16  16
#     4  11  23  37  55  79 105 137 176 225 278 323
#     4  10  21  37  57  77 104 142 180 219 271 333
#     4  10  20  33  52  79 105 132 170 218 269 326
#     4  10  20  36  58  83 110 145 184 226 279 331
#     4   9  19  38  63  89 119 155 194 238 287 339
#     4  11  22  37  59  86 119 157 195 239 286 336
#
# _framework density 18.798234999999998
#
# number of rings (size 3 to 8) (size 9 to 14) (size 15 to 20)
#    0.000    1.900    1.000    5.100    0.000    4.000 
#    1.800    1.000    0.000    0.000    0.000    0.000 
#    0.000    0.000    0.000    0.000    0.000    0.000 
#
# Total GULP energy -495714.010422 kJ/mol
# GULP energy per Si atom -12392.850261 kJ/mol
# Density = 1.875545 g / cm^3
# Si number density = 18.798235 Si / 1000 Ang^3
#
#
#
# Elastic Constant Matrix: (Units=GPa)
#
#
# Indices 1 2 3 4 5 6 
#
# 1 156.2693 70.8141 55.7150 0.0000 0.0000 0.0000
# 2 70.8141 103.1671 44.5634 0.0000 0.0000 0.0000
# 3 55.7150 44.5634 69.9091 0.0000 0.0000 0.0000
# 4 0.0000 0.0000 0.0000 88.6715 0.0000 0.0000
# 5 0.0000 0.0000 0.0000 0.0000 27.3334 0.0000
# 6 0.0000 0.0000 0.0000 0.0000 0.0000 37.3123
#
#
#
# Elastic Compliance Matrix: (Units=1/GPa)
#
#
# Indices 1 2 3 4 5 6 
#
# 1 0.010504 -0.004960 -0.005210 0.000000 0.000000 0.000000
# 2 -0.004960 0.015718 -0.006067 0.000000 0.000000 0.000000
# 3 -0.005210 -0.006067 0.022324 0.000000 0.000000 0.000000
# 4 0.000000 0.000000 0.000000 0.011278 0.000000 0.000000
# 5 0.000000 0.000000 0.000000 0.000000 0.036585 0.000000
# 6 0.000000 0.000000 0.000000 0.000000 0.000000 0.026801
#
#
# Mechanical properties :
#
#
# Convention : Reuss Voigt Hill
#
# Bulk Modulus (GPa) = 62.21554 74.61449 68.41501
# Shear Modulus (GPa) = 31.04829 41.21364 36.13096
#
# Velocity S-wave (km/s) = 4.06847 4.68741 4.38886
# Velocity P-wave (km/s) = 7.43224 8.31109 7.88392
#
# Compressibility (1/GPa) = 0.01607316
#
# Stress axis : x y z
#
# Youngs Moduli (GPa) = 95.19999 63.62200 44.79565
#
# Poissons Ratio (x) = 0.31554 0.23338
# Poissons Ratio (y) = 0.47216 0.27176
# Poissons Ratio (z) = 0.49599 0.38597
#
# Static dielectric constant tensor:
#      x y z
#    x 3.569610 0.000000 0.000000 
#    y 0.000000 3.535050 0.000000 
#    z 0.000000 0.000000 3.390210 
# 
# 
# High freq. dielectric constant tensor:
#      x y z
#    x 1.739000 0.000000 0.000000 
#    y 0.000000 1.730160 0.000000 
#    z 0.000000 0.000000 1.727390 
# 
# From -- ./inp_files/70803.got.cif
#   From: 2010.03.12/outbox.cif.g09.slc.cpg/sg65_36_cif.got.tgz:70803.got - 2010.04.10 20:52:16.
