data_PCOD8270628
_publ_section_title
;
Structure prediction by ZEFSAII (Michael W. Deem and Ramdas Pophale) SiO2 
 PCOD8270628
Probable space group: C M M M
;
_chemical_formula_sum "Si O2"
_cell_formula_units_Z 64
_cell_length_a 13.870683
_cell_length_b 33.053207
_cell_length_c 7.502946
_cell_angle_alpha 90.000000
_cell_angle_beta 90.000000
_cell_angle_gamma 90.000000
_cell_volume 3439.879827
_symmetry_space_group_name_H-M "C M M M"
_symmetry_group_IT_number 65
_symmetry_cell_setting 'orthorhombic'
loop_
_space_group_symop_operation_xyz
x,y,z
-x,-y,z
x,-y,-z
-x,y,-z
-x,-y,-z
x,y,-z
-x,y,z
x,-y,z
1/2+x,1/2+y,z
1/2-x,1/2-y,z
1/2+x,1/2-y,-z
1/2-x,1/2+y,-z
1/2-x,1/2-y,-z
1/2+x,1/2+y,-z
1/2-x,1/2+y,z
1/2+x,1/2-y,z
loop_
_atom_site_type_symbol
_atom_site_label
_atom_site_fract_x
_atom_site_fract_y
_atom_site_fract_z
Si Si1 0.885889 0.821495 0.000000
Si Si2 0.793899 0.124303 0.706302
Si Si3 0.608641 0.169962 0.702441
Si Si4 0.113563 0.268554 0.000000
Si Si5 0.891820 0.044268 0.711018
O O1 0.852413 0.843353 0.820585
O O2 0.839260 0.776168 0.000000
O O3 0.000000 0.819778 0.000000
O O4 0.825154 0.129673 0.500000
O O5 0.679293 0.131574 0.730699
O O6 0.818960 0.079195 0.777373
O O7 0.613480 0.185691 0.500000
O O8 0.500000 0.156080 0.753339
O O9 0.645213 0.206720 0.824730
O O10 0.000000 0.262681 0.000000
O O11 0.891571 0.042607 0.500000
O O12 0.000000 0.054345 0.779079
O O13 0.859692 0.000000 0.785299
#
# Coordination Sequence:
#
# PCOD8270628 Si02
#       5
#     8  16  16   8  16
#     4  11  23  35  49  73 102 129 161 202 246 293
#     4  10  20  33  51  74  99 129 164 202 243 287
#     4   9  18  33  52  72  95 127 167 206 243 285
#     4   9  19  35  51  68  96 131 163 201 247 291
#     4   8  14  27  48  71  96 128 161 192 234 290
#
# _framework density 18.6053
#
# number of rings (size 3 to 8) (size 9 to 14) (size 15 to 20)
#    0.000    2.750    0.000    2.250    0.000    4.500 
#    0.000    5.625    0.000    3.000    0.000    5.250 
#    0.000    5.000    0.000    0.500    0.000    0.000 
#
# Total GULP energy -396607.775859 kJ/mol
# GULP energy per Si atom -12393.992996 kJ/mol
# Density = 1.856295 g / cm^3
# Si number density = 18.605300 Si / 1000 Ang^3
#
#
#
# Elastic Constant Matrix: (Units=GPa)
#
#
# Indices 1 2 3 4 5 6 
#
# 1 90.4495 81.1249 36.0886 0.0000 0.0000 0.0000
# 2 81.1249 184.0613 51.4199 0.0000 0.0000 0.0000
# 3 36.0886 51.4199 78.8616 0.0000 0.0000 0.0000
# 4 0.0000 0.0000 0.0000 -54.9268 0.0000 0.0000
# 5 0.0000 0.0000 0.0000 0.0000 17.4426 0.0000
# 6 0.0000 0.0000 0.0000 0.0000 0.0000 32.2164
#
#
#
# Elastic Compliance Matrix: (Units=1/GPa)
#
#
# Indices 1 2 3 4 5 6 
#
# 1 0.019268 -0.007372 -0.004011 0.000000 0.000000 0.000000
# 2 -0.007372 0.009464 -0.002797 0.000000 0.000000 0.000000
# 3 -0.004011 -0.002797 0.016339 0.000000 0.000000 0.000000
# 4 0.000000 0.000000 0.000000 -0.018206 0.000000 0.000000
# 5 0.000000 0.000000 0.000000 0.000000 0.057331 0.000000
# 6 0.000000 0.000000 0.000000 0.000000 0.000000 0.031040
#
#
# Mechanical properties :
#
#
# Convention : Reuss Voigt Hill
#
# Bulk Modulus (GPa) = 59.83764 76.73768 68.28766
# Shear Modulus (GPa) = 33.51974 11.26238 22.39106
#
# Velocity S-wave (km/s) = 4.24916 2.46302 3.47288
# Velocity P-wave (km/s) = 7.50368 7.03016 7.27078
#
# Compressibility (1/GPa) = 0.01671189
#
# Stress axis : x y z
#
# Youngs Moduli (GPa) = 51.89923 105.66903 61.20138
#
# Poissons Ratio (x) = 0.77899 0.24546
# Poissons Ratio (y) = 0.38260 0.17118
# Poissons Ratio (z) = 0.20815 0.29555
#
# Static dielectric constant tensor:
#      x y z
#    x 3.521410 0.000000 0.000000 
#    y 0.000000 3.785930 0.000000 
#    z 0.000000 0.000000 3.388340 
# 
# 
# High freq. dielectric constant tensor:
#      x y z
#    x 1.713570 0.000000 0.000000 
#    y 0.000000 1.711960 0.000000 
#    z 0.000000 0.000000 1.723640 
# 
# From -- ./inp_files/7108.got.cif
#   From: 2010.03.12/outbox.cif.g09.slc.cpg/sg65_4_cif.got.tgz:7108.got - 2010.04.10 20:52:16.
