data_PCOD8270607
_publ_section_title
;
Structure prediction by ZEFSAII (Michael W. Deem and Ramdas Pophale) SiO2 
 PCOD8270607
Probable space group: C M M M
;
_chemical_formula_sum "Si O2"
_cell_formula_units_Z 72
_cell_length_a 8.917676
_cell_length_b 27.079901
_cell_length_c 15.935489
_cell_angle_alpha 90.000000
_cell_angle_beta 90.000000
_cell_angle_gamma 90.000000
_cell_volume 3848.257784
_symmetry_space_group_name_H-M "C M M M"
_symmetry_group_IT_number 65
_symmetry_cell_setting 'orthorhombic'
loop_
_space_group_symop_operation_xyz
x,y,z
-x,-y,z
x,-y,-z
-x,y,-z
-x,-y,-z
x,y,-z
-x,y,z
x,-y,z
1/2+x,1/2+y,z
1/2-x,1/2-y,z
1/2+x,1/2-y,-z
1/2-x,1/2+y,-z
1/2-x,1/2-y,-z
1/2+x,1/2+y,-z
1/2-x,1/2+y,z
1/2+x,1/2-y,z
loop_
_atom_site_type_symbol
_atom_site_label
_atom_site_fract_x
_atom_site_fract_y
_atom_site_fract_z
Si Si1 0.175195 0.556244 0.259738
Si Si2 0.177946 0.696217 0.500000
Si Si3 0.327605 0.890871 0.906983
Si Si4 0.173950 0.198438 0.829261
Si Si5 0.324551 0.645655 0.657169
O O1 0.221300 0.500000 0.277349
O O2 0.215096 0.568309 0.162636
O O3 0.271579 0.590147 0.322112
O O4 0.000000 0.565231 0.277424
O O5 0.250000 0.750000 0.500000
O O6 0.228978 0.665864 0.580597
O O7 0.000000 0.702112 0.500000
O O8 0.500000 0.875462 0.896933
O O9 0.231516 0.841587 0.895382
O O10 0.295456 0.912693 0.000000
O O11 0.250000 0.250000 0.848294
O O12 0.211803 0.181028 0.735209
O O13 0.000000 0.205309 0.843239
O O14 0.500000 0.645110 0.634575
#
# Coordination Sequence:
#
# PCOD8270607 Si02
#       5
#    16   8  16  16  16
#     4   9  18  34  56  80 107 140 177 219 268 318
#     4  12  24  38  59  86 115 144 174 211 257 309
#     4   9  18  32  50  74 104 137 175 219 264 313
#     4  10  20  33  51  73 100 137 176 215 261 313
#     4  10  21  37  56  80 109 140 177 219 262 311
#
# _framework density 18.709765999999998
#
# number of rings (size 3 to 8) (size 9 to 14) (size 15 to 20)
#    0.000    2.222    0.000    3.000    0.000    6.222 
#    0.000    2.778    0.000    3.333    0.000    6.222 
#    0.000    0.000    0.000    0.000    0.000    0.000 
#
# Total GULP energy -446469.739543 kJ/mol
# GULP energy per Si atom -12401.937210 kJ/mol
# Density = 1.866718 g / cm^3
# Si number density = 18.709766 Si / 1000 Ang^3
#
#
#
# Elastic Constant Matrix: (Units=GPa)
#
#
# Indices 1 2 3 4 5 6 
#
# 1 82.1141 40.6664 44.6146 0.0000 0.0000 0.0000
# 2 40.6664 110.6701 36.8561 0.0000 0.0000 0.0000
# 3 44.6146 36.8561 98.4008 0.0000 0.0000 0.0000
# 4 0.0000 0.0000 0.0000 11.5809 0.0000 0.0000
# 5 0.0000 0.0000 0.0000 0.0000 26.5696 0.0000
# 6 0.0000 0.0000 0.0000 0.0000 0.0000 32.3257
#
#
#
# Elastic Compliance Matrix: (Units=1/GPa)
#
#
# Indices 1 2 3 4 5 6 
#
# 1 0.017869 -0.004419 -0.006447 0.000000 0.000000 0.000000
# 2 -0.004419 0.011417 -0.002272 0.000000 0.000000 0.000000
# 3 -0.006447 -0.002272 0.013937 0.000000 0.000000 0.000000
# 4 0.000000 0.000000 0.000000 0.086349 0.000000 0.000000
# 5 0.000000 0.000000 0.000000 0.000000 0.037637 0.000000
# 6 0.000000 0.000000 0.000000 0.000000 0.000000 0.030935
#
#
# Mechanical properties :
#
#
# Convention : Reuss Voigt Hill
#
# Bulk Modulus (GPa) = 59.01175 59.49546 59.25360
# Shear Modulus (GPa) = 21.73260 25.36510 23.54885
#
# Velocity S-wave (km/s) = 3.41187 3.68600 3.55158
# Velocity P-wave (km/s) = 6.86515 7.06991 6.96828
#
# Compressibility (1/GPa) = 0.01694578
#
# Stress axis : x y z
#
# Youngs Moduli (GPa) = 55.96145 87.59230 71.75373
#
# Poissons Ratio (x) = 0.38710 0.46257
# Poissons Ratio (y) = 0.24731 0.16305
# Poissons Ratio (z) = 0.36077 0.19904
#
# Static dielectric constant tensor:
#      x y z
#    x 3.495430 0.000000 0.000000 
#    y 0.000000 3.425380 0.000000 
#    z 0.000000 0.000000 3.454130 
# 
# 
# High freq. dielectric constant tensor:
#      x y z
#    x 1.730940 0.000000 0.000000 
#    y 0.000000 1.722810 0.000000 
#    z 0.000000 0.000000 1.723410 
# 
# From -- ./inp_files/36508.got.cif
#   From: 2010.03.12/outbox.cif.g09.slc.cpg/sg65_19_cif.got.tgz:36508.got - 2010.04.10 20:52:16.
