data_PCOD8270549
_publ_section_title
;
Structure prediction by ZEFSAII (Michael W. Deem and Ramdas Pophale) SiO2 
 PCOD8270549
Probable space group: C M M M
;
_chemical_formula_sum "Si O2"
_cell_formula_units_Z 88
_cell_length_a 9.268761
_cell_length_b 17.400189
_cell_length_c 28.803668
_cell_angle_alpha 90.000000
_cell_angle_beta 90.000000
_cell_angle_gamma 90.000000
_cell_volume 4645.403532
_symmetry_space_group_name_H-M "C M M M"
_symmetry_group_IT_number 65
_symmetry_cell_setting 'orthorhombic'
loop_
_space_group_symop_operation_xyz
x,y,z
-x,-y,z
x,-y,-z
-x,y,-z
-x,-y,-z
x,y,-z
-x,y,z
x,-y,z
1/2+x,1/2+y,z
1/2-x,1/2-y,z
1/2+x,1/2-y,-z
1/2-x,1/2+y,-z
1/2-x,1/2-y,-z
1/2+x,1/2+y,-z
1/2-x,1/2+y,z
1/2+x,1/2-y,z
loop_
_atom_site_type_symbol
_atom_site_label
_atom_site_fract_x
_atom_site_fract_y
_atom_site_fract_z
Si Si1 0.829540 0.085840 0.000000
Si Si2 0.661539 0.408614 0.364109
Si Si3 0.338158 0.908600 0.449410
Si Si4 0.662666 0.591395 0.737971
Si Si5 0.327396 0.669115 0.093538
Si Si6 0.837357 0.408874 0.824995
O O1 0.777158 0.131652 0.954848
O O2 0.000000 0.078912 0.000000
O O3 0.761775 0.000000 0.000000
O O4 0.500000 0.378425 0.370194
O O5 0.666579 0.500000 0.367253
O O6 0.751636 0.371449 0.406375
O O7 0.719169 0.382663 0.313174
O O8 0.273253 0.884411 0.500000
O O9 0.500000 0.877479 0.445541
O O10 0.336162 0.000000 0.445529
O O11 0.500000 0.622427 0.746707
O O12 0.659266 0.500000 0.740547
O O13 0.771225 0.624334 0.776904
O O14 0.500000 0.677520 0.097101
O O15 0.250000 0.750000 0.098357
O O16 0.269143 0.614822 0.133937
O O17 0.842474 0.500000 0.823652
O O18 0.000000 0.375862 0.831402
#
# Coordination Sequence:
#
# PCOD8270549 Si02
#       6
#     8  16  16  16  16  16
#     4   9  19  36  59  85 108 135 172 207 242 288
#     4   8  13  20  30  45  65  91 128 175 224 274
#     4   8  13  19  25  35  55  86 125 169 218 272
#     4   8  14  25  40  58  81 110 145 187 237 288
#     4  11  22  37  57  79 107 139 170 205 245 291
#     4  10  20  33  50  74 101 128 164 207 248 294
#
# _framework density 18.943458
#
# number of rings (size 3 to 8) (size 9 to 14) (size 15 to 20)
#    0.000    3.000    0.000    3.545    0.000    2.909 
#    0.000    6.818    0.000    3.273    0.000    0.000 
#    0.000    0.000    0.000    0.000    0.000    0.909 
#
# Total GULP energy -545233.914808 kJ/mol
# GULP energy per Si atom -12391.679882 kJ/mol
# Density = 1.890034 g / cm^3
# Si number density = 18.943458 Si / 1000 Ang^3
#
#
#
# Elastic Constant Matrix: (Units=GPa)
#
#
# Indices 1 2 3 4 5 6 
#
# 1 97.9554 13.6399 76.5990 0.0000 0.0000 0.0000
# 2 13.6399 15.1427 10.2736 0.0000 0.0000 0.0000
# 3 76.5990 10.2736 188.9775 0.0000 0.0000 0.0000
# 4 0.0000 0.0000 0.0000 -1.1711 0.0000 0.0000
# 5 0.0000 0.0000 0.0000 0.0000 27.4769 0.0000
# 6 0.0000 0.0000 0.0000 0.0000 0.0000 13.8628
#
#
#
# Elastic Compliance Matrix: (Units=1/GPa)
#
#
# Indices 1 2 3 4 5 6 
#
# 1 0.016461 -0.010695 -0.006091 0.000000 0.000000 0.000000
# 2 -0.010695 0.075516 0.000230 0.000000 0.000000 0.000000
# 3 -0.006091 0.000230 0.007748 0.000000 0.000000 0.000000
# 4 0.000000 0.000000 0.000000 -0.853867 0.000000 0.000000
# 5 0.000000 0.000000 0.000000 0.000000 0.036394 0.000000
# 6 0.000000 0.000000 0.000000 0.000000 0.000000 0.072135
#
#
# Mechanical properties :
#
#
# Convention : Reuss Voigt Hill
#
# Bulk Modulus (GPa) = 15.01206 55.90007 35.45606
# Shear Modulus (GPa) = -8.47033 21.47125 6.50046
#
# Velocity S-wave (km/s) = -2.11686 3.37031 1.85444
# Velocity P-wave (km/s) = 1.40253 6.68717 4.83143
#
# Compressibility (1/GPa) = 0.06661309
#
# Stress axis : x y z
#
# Youngs Moduli (GPa) = 60.75069 13.24216 129.06718
#
# Poissons Ratio (x) = 0.14162 0.78610
# Poissons Ratio (y) = 0.64972 -0.02963
# Poissons Ratio (z) = 0.37001 -0.00304
#
# Static dielectric constant tensor:
#      x y z
#    x 3.618940 0.000000 0.000000 
#    y 0.000000 2.851320 0.000000 
#    z 0.000000 0.000000 4.023800 
# 
# 
# High freq. dielectric constant tensor:
#      x y z
#    x 1.727560 0.000000 0.000000 
#    y 0.000000 1.670360 0.000000 
#    z 0.000000 0.000000 1.760570 
# 
# From -- ./inp_files/76558.got.cif
#   From: 2010.03.12/outbox.cif.g09.slc.cpg/sg65_39_cif.got.tgz:76558.got - 2010.04.10 20:52:16.
