data_PCOD8270456
_publ_section_title
;
Structure prediction by ZEFSAII (Michael W. Deem and Ramdas Pophale) SiO2 
 PCOD8270456
Probable space group: C M M M
;
_chemical_formula_sum "Si O2"
_cell_formula_units_Z 80
_cell_length_a 18.340746
_cell_length_b 9.339713
_cell_length_c 26.111645
_cell_angle_alpha 90.000000
_cell_angle_beta 90.000000
_cell_angle_gamma 90.000000
_cell_volume 4472.854387
_symmetry_space_group_name_H-M "C M M M"
_symmetry_group_IT_number 65
_symmetry_cell_setting 'orthorhombic'
loop_
_space_group_symop_operation_xyz
x,y,z
-x,-y,z
x,-y,-z
-x,y,-z
-x,-y,-z
x,y,-z
-x,y,z
x,-y,z
1/2+x,1/2+y,z
1/2-x,1/2-y,z
1/2+x,1/2-y,-z
1/2-x,1/2+y,-z
1/2-x,1/2-y,-z
1/2+x,1/2+y,-z
1/2-x,1/2+y,z
1/2+x,1/2-y,z
loop_
_atom_site_type_symbol
_atom_site_label
_atom_site_fract_x
_atom_site_fract_y
_atom_site_fract_z
Si Si1 0.584342 0.665611 0.097716
Si Si2 0.413276 0.838262 0.000000
Si Si3 0.825838 0.167593 0.389296
Si Si4 0.418608 0.670095 0.294334
Si Si5 0.174445 0.831441 0.802074
Si Si6 0.322571 0.337004 0.500000
O O1 0.500000 0.700399 0.109052
O O2 0.594469 0.500000 0.083317
O O3 0.615571 0.758083 0.050560
O O4 0.629474 0.708950 0.147499
O O5 0.500000 0.833840 0.000000
O O6 0.383225 0.000000 0.000000
O O7 0.750000 0.250000 0.383558
O O8 0.881817 0.225300 0.346831
O O9 0.863296 0.195367 0.445812
O O10 0.809797 0.000000 0.380704
O O11 0.500000 0.735086 0.290919
O O12 0.423136 0.500000 0.293487
O O13 0.371555 0.724743 0.246377
O O14 0.250000 0.750000 0.803246
O O15 0.189334 0.000000 0.798398
O O16 0.297567 0.500000 0.500000
O O17 0.250000 0.250000 0.500000
#
# Coordination Sequence:
#
# PCOD8270456 Si02
#       6
#    16   8  16  16  16   8
#     4   9  17  31  51  72  94 123 158 191 223 267
#     4   9  17  29  48  75 102 125 151 187 230 271
#     4   9  16  27  45  67  92 122 155 192 231 273
#     4   9  17  30  48  69  92 120 155 193 233 277
#     4  10  20  33  50  71  94 121 154 192 233 277
#     4   8  14  24  39  63  91 119 153 188 226 272
#
# _framework density 17.885670999999999
#
# number of rings (size 3 to 8) (size 9 to 14) (size 15 to 20)
#    0.000    2.900    0.000    1.500    0.000    4.400 
#    0.000    1.000    0.000    6.600    0.000    0.000 
#    0.000    8.000    0.000    0.000    0.000    0.000 
#
# Total GULP energy -495748.133479 kJ/mol
# GULP energy per Si atom -12393.703337 kJ/mol
# Density = 1.784496 g / cm^3
# Si number density = 17.885671 Si / 1000 Ang^3
#
#
#
# Elastic Constant Matrix: (Units=GPa)
#
#
# Indices 1 2 3 4 5 6 
#
# 1 108.6914 36.2373 84.5696 0.0000 0.0000 0.0000
# 2 36.2373 43.8629 54.6808 0.0000 0.0000 0.0000
# 3 84.5696 54.6808 204.3859 0.0000 0.0000 0.0000
# 4 0.0000 0.0000 0.0000 17.0910 0.0000 0.0000
# 5 0.0000 0.0000 0.0000 0.0000 28.7048 0.0000
# 6 0.0000 0.0000 0.0000 0.0000 0.0000 22.4196
#
#
#
# Elastic Compliance Matrix: (Units=1/GPa)
#
#
# Indices 1 2 3 4 5 6 
#
# 1 0.014845 -0.006912 -0.004293 0.000000 0.000000 0.000000
# 2 -0.006912 0.037426 -0.007153 0.000000 0.000000 0.000000
# 3 -0.004293 -0.007153 0.008583 0.000000 0.000000 0.000000
# 4 0.000000 0.000000 0.000000 0.058510 0.000000 0.000000
# 5 0.000000 0.000000 0.000000 0.000000 0.034837 0.000000
# 6 0.000000 0.000000 0.000000 0.000000 0.000000 0.044604
#
#
# Mechanical properties :
#
#
# Convention : Reuss Voigt Hill
#
# Bulk Modulus (GPa) = 41.42973 78.65729 60.04351
# Shear Modulus (GPa) = 20.52818 25.73991 23.13404
#
# Velocity S-wave (km/s) = 3.39151 3.79771 3.60034
# Velocity P-wave (km/s) = 6.20890 7.95635 7.13631
#
# Compressibility (1/GPa) = 0.02413725
#
# Stress axis : x y z
#
# Youngs Moduli (GPa) = 67.36080 26.71970 116.51254
#
# Poissons Ratio (x) = 0.18469 0.50023
# Poissons Ratio (y) = 0.46562 0.83337
# Poissons Ratio (z) = 0.28920 0.19111
#
# Static dielectric constant tensor:
#      x y z
#    x 3.026340 0.000000 0.000000 
#    y 0.000000 3.108550 0.000000 
#    z 0.000000 0.000000 3.862810 
# 
# 
# High freq. dielectric constant tensor:
#      x y z
#    x 1.663430 0.000000 0.000000 
#    y 0.000000 1.666320 0.000000 
#    z 0.000000 0.000000 1.719190 
# 
# From -- ./inp_files/70827.got.cif
#   From: 2010.03.12/outbox.cif.g09.slc.cpg/sg65_36_cif.got.tgz:70827.got - 2010.04.10 20:52:16.
