data_PCOD8270952
_publ_section_title
;
Structure prediction by ZEFSAII (Michael W. Deem and Ramdas Pophale) SiO2 
 PCOD8270952
Probable space group: C M M M
;
_chemical_formula_sum "Si O2"
_cell_formula_units_Z 104
_cell_length_a 28.132552
_cell_length_b 24.092658
_cell_length_c 9.110821
_cell_angle_alpha 90.000000
_cell_angle_beta 90.000000
_cell_angle_gamma 90.000000
_cell_volume 6175.204725
_symmetry_space_group_name_H-M "C M M M"
_symmetry_group_IT_number 65
_symmetry_cell_setting 'orthorhombic'
loop_
_space_group_symop_operation_xyz
x,y,z
-x,-y,z
x,-y,-z
-x,y,-z
-x,-y,-z
x,y,-z
-x,y,z
x,-y,z
1/2+x,1/2+y,z
1/2-x,1/2-y,z
1/2+x,1/2-y,-z
1/2-x,1/2+y,-z
1/2-x,1/2-y,-z
1/2+x,1/2+y,-z
1/2-x,1/2+y,z
1/2+x,1/2-y,z
loop_
_atom_site_type_symbol
_atom_site_label
_atom_site_fract_x
_atom_site_fract_y
_atom_site_fract_z
Si Si1 0.444916 0.735175 0.328040
Si Si2 0.172838 0.064440 0.327831
Si Si3 0.630016 0.937536 0.827323
Si Si4 0.091042 0.129931 0.825475
Si Si5 0.778602 0.565865 0.661821
Si Si6 0.445539 0.152150 0.170575
Si Si7 0.500000 0.562016 0.174195
O O1 0.434166 0.733491 0.500000
O O2 0.500000 0.722782 0.292943
O O3 0.412486 0.690438 0.246016
O O4 0.430516 0.795061 0.266139
O O5 0.163144 0.074522 0.500000
O O6 0.138807 0.101077 0.228056
O O7 0.226177 0.084298 0.285102
O O8 0.164888 0.000000 0.288499
O O9 0.679637 0.912435 0.767384
O O10 0.586380 0.899364 0.775931
O O11 0.620898 0.000000 0.767383
O O12 0.634443 0.938218 0.000000
O O13 0.046659 0.093479 0.768779
O O14 0.091508 0.135843 0.000000
O O15 0.788620 0.590071 0.500000
O O16 0.778476 0.500000 0.656167
O O17 0.500000 0.135246 0.199736
O O18 0.437025 0.166300 0.000000
O O19 0.500000 0.500000 0.240686
O O20 0.500000 0.559628 0.000000
#
# Coordination Sequence:
#
# PCOD8270952 Si02
#       7
#    16  16  16  16  16  16   8
#     4  10  20  34  51  69  92 124 167 209 242 282
#     4   9  18  32  48  69  98 129 163 202 243 288
#     4   9  17  29  48  76 105 130 158 194 235 282
#     4  11  20  31  49  70  96 128 162 202 246 292
#     4   8  15  29  48  68  94 130 165 196 234 284
#     4   9  18  32  50  72 100 132 163 195 235 284
#     4   9  18  30  43  65  97 127 154 189 236 289
#
# _framework density 16.841546000000001
#
# number of rings (size 3 to 8) (size 9 to 14) (size 15 to 20)
#    0.000    2.692    0.769    2.308    0.000    3.077 
#    0.000    3.077    0.000    2.769    0.000   10.769 
#    0.000    0.000    0.000    0.000    0.000    0.000 
#
# Total GULP energy -644730.754971 kJ/mol
# GULP energy per Si atom -12398.668365 kJ/mol
# Density = 1.680321 g / cm^3
# Si number density = 16.841546 Si / 1000 Ang^3
#
#
#
# Elastic Constant Matrix: (Units=GPa)
#
#
# Indices 1 2 3 4 5 6 
#
# 1 121.5151 67.9499 45.7358 0.0000 0.0000 0.0000
# 2 67.9499 97.3214 47.7486 0.0000 0.0000 0.0000
# 3 45.7358 47.7486 58.8997 0.0000 0.0000 0.0000
# 4 0.0000 0.0000 0.0000 22.7893 0.0000 0.0000
# 5 0.0000 0.0000 0.0000 0.0000 28.0743 0.0000
# 6 0.0000 0.0000 0.0000 0.0000 0.0000 10.6849
#
#
#
# Elastic Compliance Matrix: (Units=1/GPa)
#
#
# Indices 1 2 3 4 5 6 
#
# 1 0.014339 -0.007553 -0.005011 0.000000 0.000000 0.000000
# 2 -0.007553 0.021039 -0.011191 0.000000 0.000000 0.000000
# 3 -0.005011 -0.011191 0.029942 0.000000 0.000000 0.000000
# 4 0.000000 0.000000 0.000000 0.043880 0.000000 0.000000
# 5 0.000000 0.000000 0.000000 0.000000 0.035620 0.000000
# 6 0.000000 0.000000 0.000000 0.000000 0.000000 0.093590
#
#
# Mechanical properties :
#
#
# Convention : Reuss Voigt Hill
#
# Bulk Modulus (GPa) = 56.15071 66.73388 61.44229
# Shear Modulus (GPa) = 17.13163 20.06317 18.59740
#
# Velocity S-wave (km/s) = 3.19286 3.45525 3.32664
# Velocity P-wave (km/s) = 6.85605 7.45848 7.16360
#
# Compressibility (1/GPa) = 0.01780921
#
# Stress axis : x y z
#
# Youngs Moduli (GPa) = 69.73953 47.52986 33.39793
#
# Poissons Ratio (x) = 0.35898 0.16737
# Poissons Ratio (y) = 0.52673 0.37377
# Poissons Ratio (z) = 0.34950 0.53192
#
# Static dielectric constant tensor:
#      x y z
#    x 3.269880 0.000000 0.000000 
#    y 0.000000 3.073750 0.000000 
#    z 0.000000 0.000000 3.096440 
# 
# 
# High freq. dielectric constant tensor:
#      x y z
#    x 1.647210 0.000000 0.000000 
#    y 0.000000 1.629250 0.000000 
#    z 0.000000 0.000000 1.643960 
# 
# From -- ./inp_files/18695.got.cif
#   From: 2010.03.12/outbox.cif.g09.slc.cpg/sg65_10_cif.got.tgz:18695.got - 2010.04.10 20:52:16.
