data_PCOD8270757
_publ_section_title
;
Structure prediction by ZEFSAII (Michael W. Deem and Ramdas Pophale) SiO2 
 PCOD8270757
Probable space group: C M M M
;
_chemical_formula_sum "Si O2"
_cell_formula_units_Z 72
_cell_length_a 23.285293
_cell_length_b 9.179275
_cell_length_c 17.813296
_cell_angle_alpha 90.000000
_cell_angle_beta 90.000000
_cell_angle_gamma 90.000000
_cell_volume 3807.451436
_symmetry_space_group_name_H-M "C M M M"
_symmetry_group_IT_number 65
_symmetry_cell_setting 'orthorhombic'
loop_
_space_group_symop_operation_xyz
x,y,z
-x,-y,z
x,-y,-z
-x,y,-z
-x,-y,-z
x,y,-z
-x,y,z
x,-y,z
1/2+x,1/2+y,z
1/2-x,1/2-y,z
1/2+x,1/2-y,-z
1/2-x,1/2+y,-z
1/2-x,1/2-y,-z
1/2+x,1/2+y,-z
1/2-x,1/2+y,z
1/2+x,1/2-y,z
loop_
_atom_site_type_symbol
_atom_site_label
_atom_site_fract_x
_atom_site_fract_y
_atom_site_fract_z
Si Si1 0.809532 0.669622 0.500000
Si Si2 0.876748 0.674302 0.083703
Si Si3 0.611668 0.169762 0.362395
Si Si4 0.191807 0.329805 0.224976
Si Si5 0.500000 0.842107 0.088383
Si Si6 0.500000 0.327164 0.413007
O O1 0.796121 0.500000 0.500000
O O2 0.750000 0.750000 0.500000
O O3 0.844752 0.717438 0.572783
O O4 0.882021 0.500000 0.084374
O O5 0.829184 0.726659 0.143193
O O6 0.939787 0.739160 0.108394
O O7 0.859291 0.728850 0.000000
O O8 0.641576 0.206319 0.283570
O O9 0.554815 0.265018 0.369641
O O10 0.595236 0.000000 0.369342
O O11 0.205501 0.500000 0.224362
O O12 0.250000 0.250000 0.248112
O O13 0.500000 0.000000 0.129192
O O14 0.500000 0.867189 0.000000
O O15 0.500000 0.500000 0.406990
O O16 0.500000 0.275911 0.500000
#
# Coordination Sequence:
#
# PCOD8270757 Si02
#       6
#     8  16  16  16   8   8
#     4  10  20  33  52  75 101 138 178 214 257 306
#     4   8  14  26  46  73 104 137 175 221 272 321
#     4  10  21  37  56  78 107 143 178 216 265 318
#     4  10  21  35  52  76 106 142 184 227 270 317
#     4   7  10  19  38  64  93 122 156 205 257 303
#     4  11  23  38  59  87 112 137 172 216 266 321
#
# _framework density 18.910285999999999
#
# number of rings (size 3 to 8) (size 9 to 14) (size 15 to 20)
#    0.000    2.667    1.111    2.333    0.000    3.556 
#    0.000    3.333    0.000    0.000    0.000    0.000 
#    0.000    3.556    0.000    0.000    0.000    0.000 
#
# Total GULP energy -446197.360440 kJ/mol
# GULP energy per Si atom -12394.371123 kJ/mol
# Density = 1.886724 g / cm^3
# Si number density = 18.910286 Si / 1000 Ang^3
#
#
#
# Elastic Constant Matrix: (Units=GPa)
#
#
# Indices 1 2 3 4 5 6 
#
# 1 145.1659 55.3141 58.1473 0.0000 0.0000 0.0000
# 2 55.3141 42.5846 34.1838 0.0000 0.0000 0.0000
# 3 58.1473 34.1838 115.4411 0.0000 0.0000 0.0000
# 4 0.0000 0.0000 0.0000 3.4902 0.0000 0.0000
# 5 0.0000 0.0000 0.0000 0.0000 24.3242 0.0000
# 6 0.0000 0.0000 0.0000 0.0000 0.0000 30.4821
#
#
#
# Elastic Compliance Matrix: (Units=1/GPa)
#
#
# Indices 1 2 3 4 5 6 
#
# 1 0.014051 -0.016489 -0.002195 0.000000 0.000000 0.000000
# 2 -0.016489 0.050156 -0.006546 0.000000 0.000000 0.000000
# 3 -0.002195 -0.006546 0.011706 0.000000 0.000000 0.000000
# 4 0.000000 0.000000 0.000000 0.286520 0.000000 0.000000
# 5 0.000000 0.000000 0.000000 0.000000 0.041111 0.000000
# 6 0.000000 0.000000 0.000000 0.000000 0.000000 0.032806
#
#
# Mechanical properties :
#
#
# Convention : Reuss Voigt Hill
#
# Bulk Modulus (GPa) = 39.28868 66.49802 52.89335
# Shear Modulus (GPa) = 10.09499 22.02904 16.06201
#
# Velocity S-wave (km/s) = 2.31300 3.41680 2.91757
# Velocity P-wave (km/s) = 5.28722 7.12793 6.27543
#
# Compressibility (1/GPa) = 0.02545262
#
# Stress axis : x y z
#
# Youngs Moduli (GPa) = 71.17012 19.93782 85.42389
#
# Poissons Ratio (x) = 0.32876 0.18748
# Poissons Ratio (y) = 1.17354 0.55921
# Poissons Ratio (z) = 0.15619 0.13052
#
# Static dielectric constant tensor:
#      x y z
#    x 3.631720 0.000000 0.000000 
#    y 0.000000 2.994910 0.000000 
#    z 0.000000 0.000000 3.610810 
# 
# 
# High freq. dielectric constant tensor:
#      x y z
#    x 1.747220 0.000000 0.000000 
#    y 0.000000 1.683120 0.000000 
#    z 0.000000 0.000000 1.737300 
# 
# From -- ./inp_files/64457.got.cif
#   From: 2010.03.12/outbox.cif.g09.slc.cpg/sg65_33_cif.got.tgz:64457.got - 2010.04.10 20:52:16.
