data_PCOD8270862
_publ_section_title
;
Structure prediction by ZEFSAII (Michael W. Deem and Ramdas Pophale) SiO2 
 PCOD8270862
Probable space group: C M M M
;
_chemical_formula_sum "Si O2"
_cell_formula_units_Z 88
_cell_length_a 24.594204
_cell_length_b 21.077863
_cell_length_c 9.077267
_cell_angle_alpha 90.000000
_cell_angle_beta 90.000000
_cell_angle_gamma 90.000000
_cell_volume 4705.594055
_symmetry_space_group_name_H-M "C M M M"
_symmetry_group_IT_number 65
_symmetry_cell_setting 'orthorhombic'
loop_
_space_group_symop_operation_xyz
x,y,z
-x,-y,z
x,-y,-z
-x,y,-z
-x,-y,-z
x,y,-z
-x,y,z
x,-y,z
1/2+x,1/2+y,z
1/2-x,1/2-y,z
1/2+x,1/2-y,-z
1/2-x,1/2+y,-z
1/2-x,1/2-y,-z
1/2+x,1/2+y,-z
1/2-x,1/2+y,z
1/2+x,1/2-y,z
loop_
_atom_site_type_symbol
_atom_site_label
_atom_site_fract_x
_atom_site_fract_y
_atom_site_fract_z
Si Si1 0.185833 0.186969 0.830463
Si Si2 0.000000 0.743620 0.332537
Si Si3 0.915896 0.851658 0.330747
Si Si4 0.500000 0.426278 0.839203
Si Si5 0.000000 0.613619 0.175318
Si Si6 0.691439 0.166431 0.830213
Si Si7 0.609569 0.927439 0.671322
O O1 0.145277 0.149423 0.726176
O O2 0.244556 0.155451 0.803318
O O3 0.181385 0.260744 0.786831
O O4 0.169012 0.179034 0.000000
O O5 0.053799 0.784901 0.303274
O O6 0.000000 0.687575 0.215446
O O7 0.000000 0.717230 0.500000
O O8 0.916215 0.870156 0.500000
O O9 0.946041 0.907408 0.246702
O O10 0.500000 0.500000 0.858731
O O11 0.500000 0.393223 0.000000
O O12 0.053444 0.581008 0.241356
O O13 0.000000 0.605497 0.000000
O O14 0.656183 0.119557 0.730036
O O15 0.675925 0.153778 0.000000
O O16 0.599343 0.911757 0.500000
O O17 0.629278 0.000000 0.692373
#
# Coordination Sequence:
#
# PCOD8270862 Si02
#       7
#    16   8  16   8   8  16  16
#     4   9  18  34  56  83 112 139 172 216 265 314
#     4   9  19  34  51  78 114 144 172 213 266 316
#     4  10  20  33  53  81 110 141 176 215 262 316
#     4  10  21  37  56  76 101 138 180 221 269 319
#     4  12  24  36  56  82 105 137 180 220 261 312
#     4   9  19  36  58  82 108 140 177 218 262 309
#     4  11  24  40  56  76 106 142 178 219 266 313
#
# _framework density 18.701145
#
# number of rings (size 3 to 8) (size 9 to 14) (size 15 to 20)
#    0.000    2.091    0.000    5.182    0.000    9.818 
#    0.000    2.727    0.000    1.091    0.000    0.000 
#    0.000    0.000    0.000    0.000    0.000    0.000 
#
# Total GULP energy -545610.988804 kJ/mol
# GULP energy per Si atom -12400.249746 kJ/mol
# Density = 1.865858 g / cm^3
# Si number density = 18.701145 Si / 1000 Ang^3
#
#
#
# Elastic Constant Matrix: (Units=GPa)
#
#
# Indices 1 2 3 4 5 6 
#
# 1 118.5543 39.1573 65.9116 0.0000 0.0000 0.0000
# 2 39.1573 75.2362 52.8176 0.0000 0.0000 0.0000
# 3 65.9116 52.8176 136.6008 0.0000 0.0000 0.0000
# 4 0.0000 0.0000 0.0000 28.9223 0.0000 0.0000
# 5 0.0000 0.0000 0.0000 0.0000 49.5622 0.0000
# 6 0.0000 0.0000 0.0000 0.0000 0.0000 -0.7920
#
#
#
# Elastic Compliance Matrix: (Units=1/GPa)
#
#
# Indices 1 2 3 4 5 6 
#
# 1 0.011999 -0.002993 -0.004632 0.000000 0.000000 0.000000
# 2 -0.002993 0.018990 -0.005899 0.000000 0.000000 0.000000
# 3 -0.004632 -0.005899 0.011836 0.000000 0.000000 0.000000
# 4 0.000000 0.000000 0.000000 0.034575 0.000000 0.000000
# 5 0.000000 0.000000 0.000000 0.000000 0.020177 0.000000
# 6 0.000000 0.000000 0.000000 0.000000 0.000000 -1.262582
#
#
# Mechanical properties :
#
#
# Convention : Reuss Voigt Hill
#
# Bulk Modulus (GPa) = 63.38004 71.79602 67.58803
# Shear Modulus (GPa) = -4.41424 27.03881 11.31228
#
# Velocity S-wave (km/s) = -1.53803 3.80654 2.46214
# Velocity P-wave (km/s) = 5.55072 7.60225 6.65600
#
# Compressibility (1/GPa) = 0.01577784
#
# Stress axis : x y z
#
# Youngs Moduli (GPa) = 83.34086 52.65922 84.48447
#
# Poissons Ratio (x) = 0.15760 0.39137
# Poissons Ratio (y) = 0.24943 0.49833
# Poissons Ratio (z) = 0.38607 0.31061
#
# Static dielectric constant tensor:
#      x y z
#    x 3.588870 0.000000 0.000000 
#    y 0.000000 3.236630 0.000000 
#    z 0.000000 0.000000 3.517810 
# 
# 
# High freq. dielectric constant tensor:
#      x y z
#    x 1.731800 0.000000 0.000000 
#    y 0.000000 1.710260 0.000000 
#    z 0.000000 0.000000 1.734970 
# 
# From -- ./inp_files/14077.got.cif
#   From: 2010.03.12/outbox.cif.g09.slc.cpg/sg65_8_cif.got.tgz:14077.got - 2010.04.10 20:52:16.
