data_PCOD8270266
_publ_section_title
;
Structure prediction by ZEFSAII (Michael W. Deem and Ramdas Pophale) SiO2 
 PCOD8270266
Probable space group: C M M M
;
_chemical_formula_sum "Si O2"
_cell_formula_units_Z 88
_cell_length_a 22.888401
_cell_length_b 22.338363
_cell_length_c 9.111221
_cell_angle_alpha 90.000000
_cell_angle_beta 90.000000
_cell_angle_gamma 90.000000
_cell_volume 4658.470810
_symmetry_space_group_name_H-M "C M M M"
_symmetry_group_IT_number 65
_symmetry_cell_setting 'orthorhombic'
loop_
_space_group_symop_operation_xyz
x,y,z
-x,-y,z
x,-y,-z
-x,y,-z
-x,-y,-z
x,y,-z
-x,y,z
x,-y,z
1/2+x,1/2+y,z
1/2-x,1/2-y,z
1/2+x,1/2-y,-z
1/2-x,1/2+y,-z
1/2-x,1/2-y,-z
1/2+x,1/2+y,-z
1/2-x,1/2+y,z
1/2+x,1/2-y,z
loop_
_atom_site_type_symbol
_atom_site_label
_atom_site_fract_x
_atom_site_fract_y
_atom_site_fract_z
Si Si1 0.221727 0.933180 0.332239
Si Si2 0.386075 0.218835 0.830261
Si Si3 0.000000 0.852033 0.658342
Si Si4 0.661155 0.092711 0.167881
Si Si5 0.374637 0.658749 0.323086
Si Si6 0.000000 0.711179 0.338125
Si Si7 0.434127 0.000000 0.173371
O O1 0.232974 0.916087 0.500000
O O2 0.283166 0.930504 0.253345
O O3 0.174465 0.886929 0.266425
O O4 0.195761 0.000000 0.316350
O O5 0.340760 0.164439 0.814633
O O6 0.360580 0.276627 0.746542
O O7 0.444144 0.192601 0.756116
O O8 0.398061 0.235162 0.000000
O O9 0.062091 0.866666 0.737161
O O10 0.000000 0.884576 0.500000
O O11 0.000000 0.781397 0.637277
O O12 0.602401 0.058980 0.224875
O O13 0.670497 0.074412 0.000000
O O14 0.377132 0.664944 0.500000
O O15 0.000000 0.680278 0.500000
O O16 0.500000 0.000000 0.243466
O O17 0.441700 0.000000 0.000000
#
# Coordination Sequence:
#
# PCOD8270266 Si02
#       7
#    16  16   8  16  16   8   8
#     4  10  21  37  56  77 105 141 183 228 273 326
#     4  10  20  32  51  82 111 138 179 231 272 315
#     4   7  12  27  50  73  98 129 168 204 244 310
#     4  10  21  36  56  79 106 142 183 225 272 324
#     4   9  18  34  55  78 107 144 179 218 274 331
#     4   9  17  31  51  75 109 149 179 208 263 332
#     4   9  18  34  57  79 103 140 183 224 266 317
#
# _framework density 18.890318000000001
#
# number of rings (size 3 to 8) (size 9 to 14) (size 15 to 20)
#    0.000    2.636    0.909    1.909    1.273    2.909 
#    0.000    4.091    0.000    3.273    0.000    0.000 
#    0.000    5.818    0.000    0.000    0.000    0.000 
#
# Total GULP energy -545193.264950 kJ/mol
# GULP energy per Si atom -12390.756022 kJ/mol
# Density = 1.884732 g / cm^3
# Si number density = 18.890318 Si / 1000 Ang^3
#
#
#
# Elastic Constant Matrix: (Units=GPa)
#
#
# Indices 1 2 3 4 5 6 
#
# 1 124.2407 60.0440 25.8250 0.0000 0.0000 0.0000
# 2 60.0440 101.3356 30.7608 0.0000 0.0000 0.0000
# 3 25.8250 30.7608 55.7807 0.0000 0.0000 0.0000
# 4 0.0000 0.0000 0.0000 21.0421 0.0000 0.0000
# 5 0.0000 0.0000 0.0000 0.0000 26.2040 0.0000
# 6 0.0000 0.0000 0.0000 0.0000 0.0000 29.9539
#
#
#
# Elastic Compliance Matrix: (Units=1/GPa)
#
#
# Indices 1 2 3 4 5 6 
#
# 1 0.011439 -0.006210 -0.001871 0.000000 0.000000 0.000000
# 2 -0.006210 0.015223 -0.005520 0.000000 0.000000 0.000000
# 3 -0.001871 -0.005520 0.021838 0.000000 0.000000 0.000000
# 4 0.000000 0.000000 0.000000 0.047524 0.000000 0.000000
# 5 0.000000 0.000000 0.000000 0.000000 0.038162 0.000000
# 6 0.000000 0.000000 0.000000 0.000000 0.000000 0.033385
#
#
# Mechanical properties :
#
#
# Convention : Reuss Voigt Hill
#
# Bulk Modulus (GPa) = 46.95391 57.17961 52.06676
# Shear Modulus (GPa) = 24.76807 26.42180 25.59494
#
# Velocity S-wave (km/s) = 3.62491 3.74397 3.68492
# Velocity P-wave (km/s) = 6.51383 7.00177 6.76220
#
# Compressibility (1/GPa) = 0.02129748
#
# Stress axis : x y z
#
# Youngs Moduli (GPa) = 87.41984 65.68868 45.79196
#
# Poissons Ratio (x) = 0.40792 0.08570
# Poissons Ratio (y) = 0.54286 0.25277
# Poissons Ratio (z) = 0.16361 0.36261
#
# Static dielectric constant tensor:
#      x y z
#    x 3.761410 0.000000 0.000000 
#    y 0.000000 3.415960 0.000000 
#    z 0.000000 0.000000 3.297380 
# 
# 
# High freq. dielectric constant tensor:
#      x y z
#    x 1.735750 0.000000 0.000000 
#    y 0.000000 1.722970 0.000000 
#    z 0.000000 0.000000 1.710290 
# 
# From -- ./inp_files/11904.got.cif
#   From: 2010.03.12/outbox.cif.g09.slc.cpg/sg65_6_cif.got.tgz:11904.got - 2010.04.10 20:52:16.
