data_PCOD8270187
_publ_section_title
;
Structure prediction by ZEFSAII (Michael W. Deem and Ramdas Pophale) SiO2 
 PCOD8270187
Probable space group: C M M M
;
_chemical_formula_sum "Si O2"
_cell_formula_units_Z 104
_cell_length_a 14.798554
_cell_length_b 22.742854
_cell_length_c 15.349305
_cell_angle_alpha 90.000000
_cell_angle_beta 90.000000
_cell_angle_gamma 90.000000
_cell_volume 5165.982859
_symmetry_space_group_name_H-M "C M M M"
_symmetry_group_IT_number 65
_symmetry_cell_setting 'orthorhombic'
loop_
_space_group_symop_operation_xyz
x,y,z
-x,-y,z
x,-y,-z
-x,y,-z
-x,-y,-z
x,y,-z
-x,y,z
x,-y,z
1/2+x,1/2+y,z
1/2-x,1/2-y,z
1/2+x,1/2-y,-z
1/2-x,1/2+y,-z
1/2-x,1/2-y,-z
1/2+x,1/2+y,-z
1/2-x,1/2+y,z
1/2+x,1/2-y,z
loop_
_atom_site_type_symbol
_atom_site_label
_atom_site_fract_x
_atom_site_fract_y
_atom_site_fract_z
Si Si1 0.282228 0.567454 0.665835
Si Si2 0.895266 0.827590 0.403543
Si Si3 0.400576 0.568589 0.000000
Si Si4 0.603041 0.719427 0.779485
Si Si5 0.398165 0.168982 0.900093
Si Si6 0.596292 0.069789 0.402478
Si Si7 0.217404 0.115718 0.847505
O O1 0.295223 0.500000 0.633794
O O2 0.349483 0.609377 0.613828
O O3 0.180874 0.592808 0.651771
O O4 0.294907 0.570724 0.768551
O O5 0.865054 0.803672 0.500000
O O6 0.874807 0.780461 0.325480
O O7 0.000000 0.842125 0.405096
O O8 0.345305 0.587819 0.082045
O O9 0.412870 0.500000 0.000000
O O10 0.500000 0.598529 0.000000
O O11 0.500000 0.696275 0.793260
O O12 0.614156 0.781868 0.825757
O O13 0.677701 0.679288 0.824719
O O14 0.500000 0.142205 0.892034
O O15 0.321534 0.120362 0.880051
O O16 0.384873 0.192855 0.000000
O O17 0.605310 0.094481 0.500000
O O18 0.500000 0.092048 0.362404
O O19 0.596939 0.000000 0.403984
#
# Coordination Sequence:
#
# PCOD8270187 Si02
#       7
#    16  16   8  16  16  16  16
#     4  10  20  32  49  75 108 148 190 232 275 322
#     4   9  18  33  53  79 113 151 188 228 277 336
#     4  11  24  40  58  81 111 149 188 226 274 331
#     4   9  19  34  55  85 114 142 184 234 287 343
#     4  10  21  37  59  86 112 139 181 237 290 344
#     4   8  14  26  45  68  93 125 171 224 270 311
#     4  11  21  36  56  79 111 148 186 234 281 335
#
# _framework density 20.131696000000002
#
# number of rings (size 3 to 8) (size 9 to 14) (size 15 to 20)
#    0.000    2.385    0.769    2.308    1.077    3.077 
#    0.000    0.769    0.000   10.154    0.000    2.154 
#    0.000    0.000    0.000    0.000    0.000    0.000 
#
# Total GULP energy -644228.440515 kJ/mol
# GULP energy per Si atom -12389.008471 kJ/mol
# Density = 2.008588 g / cm^3
# Si number density = 20.131696 Si / 1000 Ang^3
#
#
#
# Elastic Constant Matrix: (Units=GPa)
#
#
# Indices 1 2 3 4 5 6 
#
# 1 111.9147 18.9550 44.1895 0.0000 0.0000 0.0000
# 2 18.9550 33.3649 21.7313 0.0000 0.0000 0.0000
# 3 44.1895 21.7313 127.4298 0.0000 0.0000 0.0000
# 4 0.0000 0.0000 0.0000 53.4341 0.0000 0.0000
# 5 0.0000 0.0000 0.0000 0.0000 27.9841 0.0000
# 6 0.0000 0.0000 0.0000 0.0000 0.0000 25.8321
#
#
#
# Elastic Compliance Matrix: (Units=1/GPa)
#
#
# Indices 1 2 3 4 5 6 
#
# 1 0.010847 -0.004176 -0.003049 0.000000 0.000000 0.000000
# 2 -0.004176 0.035325 -0.004576 0.000000 0.000000 0.000000
# 3 -0.003049 -0.004576 0.009685 0.000000 0.000000 0.000000
# 4 0.000000 0.000000 0.000000 0.018715 0.000000 0.000000
# 5 0.000000 0.000000 0.000000 0.000000 0.035735 0.000000
# 6 0.000000 0.000000 0.000000 0.000000 0.000000 0.038712
#
#
# Mechanical properties :
#
#
# Convention : Reuss Voigt Hill
#
# Bulk Modulus (GPa) = 31.00392 49.16233 40.08313
# Shear Modulus (GPa) = 27.26714 33.97229 30.61971
#
# Velocity S-wave (km/s) = 3.68426 4.11238 3.90419
# Velocity P-wave (km/s) = 5.79071 6.85728 6.34644
#
# Compressibility (1/GPa) = 0.03225399
#
# Stress axis : x y z
#
# Youngs Moduli (GPa) = 92.19433 28.30891 103.25043
#
# Poissons Ratio (x) = 0.11822 0.31483
# Poissons Ratio (y) = 0.38501 0.47247
# Poissons Ratio (z) = 0.28112 0.12954
#
# Static dielectric constant tensor:
#      x y z
#    x 4.320980 0.000000 0.000000 
#    y 0.000000 3.123720 0.000000 
#    z 0.000000 0.000000 3.740030 
# 
# 
# High freq. dielectric constant tensor:
#      x y z
#    x 1.808480 0.000000 0.000000 
#    y 0.000000 1.734920 0.000000 
#    z 0.000000 0.000000 1.798450 
# 
# From -- ./inp_files/40848.got.cif
#   From: 2010.03.12/outbox.cif.g09.slc.cpg/sg65_21_cif.got.tgz:40848.got - 2010.04.10 20:52:16.
