data_PCOD8270496
_publ_section_title
;
Structure prediction by ZEFSAII (Michael W. Deem and Ramdas Pophale) SiO2 
 PCOD8270496
Probable space group: C M M M
;
_chemical_formula_sum "Si O2"
_cell_formula_units_Z 104
_cell_length_a 9.862616
_cell_length_b 18.204644
_cell_length_c 33.391189
_cell_angle_alpha 90.000000
_cell_angle_beta 90.000000
_cell_angle_gamma 90.000000
_cell_volume 5995.234826
_symmetry_space_group_name_H-M "C M M M"
_symmetry_group_IT_number 65
_symmetry_cell_setting 'orthorhombic'
loop_
_space_group_symop_operation_xyz
x,y,z
-x,-y,z
x,-y,-z
-x,y,-z
-x,-y,-z
x,y,-z
-x,y,z
x,-y,z
1/2+x,1/2+y,z
1/2-x,1/2-y,z
1/2+x,1/2-y,-z
1/2-x,1/2+y,-z
1/2-x,1/2-y,-z
1/2+x,1/2+y,-z
1/2-x,1/2+y,z
1/2+x,1/2-y,z
loop_
_atom_site_type_symbol
_atom_site_label
_atom_site_fract_x
_atom_site_fract_y
_atom_site_fract_z
Si Si1 0.652518 0.412678 0.312463
Si Si2 0.655372 0.817703 0.454981
Si Si3 0.345379 0.914604 0.380923
Si Si4 0.159084 0.322274 0.924496
Si Si5 0.651883 0.412737 0.223788
Si Si6 0.655626 0.084871 0.154168
Si Si7 0.160205 0.417610 0.000000
O O1 0.500000 0.387621 0.323012
O O2 0.663013 0.500000 0.312526
O O3 0.753369 0.379276 0.345778
O O4 0.692885 0.383550 0.268085
O O5 0.683227 0.847015 0.500000
O O6 0.500000 0.792117 0.450398
O O7 0.750000 0.750000 0.444416
O O8 0.692077 0.881554 0.423977
O O9 0.500000 0.898363 0.368975
O O10 0.315627 0.000000 0.385228
O O11 0.250000 0.250000 0.924477
O O12 0.189116 0.367663 0.884581
O O13 0.208221 0.373255 0.961007
O O14 0.000000 0.301419 0.928247
O O15 0.500000 0.386049 0.212977
O O16 0.657473 0.500000 0.224216
O O17 0.755468 0.382433 0.190603
O O18 0.500000 0.092729 0.167090
O O19 0.691233 0.000000 0.144724
O O20 0.223763 0.500000 0.000000
O O21 0.000000 0.425198 0.000000
#
# Coordination Sequence:
#
# PCOD8270496 Si02
#       7
#    16  16  16  16  16  16   8
#     4   8  14  25  41  63  92 122 149 180 223 274
#     4   9  18  32  48  65  87 117 151 185 222 267
#     4   9  17  28  44  68  94 118 147 185 228 271
#     4  10  20  33  50  72  98 128 159 191 231 278
#     4   8  14  25  42  65  92 121 152 186 227 273
#     4   9  17  29  46  69  94 120 155 196 231 265
#     4   9  17  32  55  77  96 123 160 198 232 271
#
# _framework density 17.347110000000001
#
# number of rings (size 3 to 8) (size 9 to 14) (size 15 to 20)
#    0.000    3.154    0.000    1.615    0.000    4.000 
#    0.000    4.615    0.000    2.769    0.000    4.308 
#    0.000    0.000    0.000    0.000    0.000    0.000 
#
# Total GULP energy -644570.478905 kJ/mol
# GULP energy per Si atom -12395.586133 kJ/mol
# Density = 1.730763 g / cm^3
# Si number density = 17.347110 Si / 1000 Ang^3
#
#
#
# Elastic Constant Matrix: (Units=GPa)
#
#
# Indices 1 2 3 4 5 6 
#
# 1 85.7328 45.8623 87.3641 0.0000 0.0000 0.0000
# 2 45.8623 62.4979 57.1943 0.0000 0.0000 0.0000
# 3 87.3641 57.1943 165.2687 0.0000 0.0000 0.0000
# 4 0.0000 0.0000 0.0000 2.4535 0.0000 0.0000
# 5 0.0000 0.0000 0.0000 0.0000 28.9707 0.0000
# 6 0.0000 0.0000 0.0000 0.0000 0.0000 22.4545
#
#
#
# Elastic Compliance Matrix: (Units=1/GPa)
#
#
# Indices 1 2 3 4 5 6 
#
# 1 0.029559 -0.010817 -0.011882 0.000000 0.000000 0.000000
# 2 -0.010817 0.027375 -0.003756 0.000000 0.000000 0.000000
# 3 -0.011882 -0.003756 0.013631 0.000000 0.000000 0.000000
# 4 0.000000 0.000000 0.000000 0.407583 0.000000 0.000000
# 5 0.000000 0.000000 0.000000 0.000000 0.034518 0.000000
# 6 0.000000 0.000000 0.000000 0.000000 0.000000 0.044534
#
#
# Mechanical properties :
#
#
# Convention : Reuss Voigt Hill
#
# Bulk Modulus (GPa) = 56.63738 77.14899 66.89318
# Shear Modulus (GPa) = 8.11695 18.98097 13.54896
#
# Velocity S-wave (km/s) = 2.16548 3.31144 2.79776
# Velocity P-wave (km/s) = 6.24281 7.69357 7.00585
#
# Compressibility (1/GPa) = 0.01765618
#
# Stress axis : x y z
#
# Youngs Moduli (GPa) = 33.83111 36.52921 73.36061
#
# Poissons Ratio (x) = 0.39515 0.87165
# Poissons Ratio (y) = 0.36596 0.27551
# Poissons Ratio (z) = 0.40197 0.13719
#
# Static dielectric constant tensor:
#      x y z
#    x 3.297820 0.000000 0.000000 
#    y 0.000000 2.895000 0.000000 
#    z 0.000000 0.000000 3.590780 
# 
# 
# High freq. dielectric constant tensor:
#      x y z
#    x 1.662800 0.000000 0.000000 
#    y 0.000000 1.630490 0.000000 
#    z 0.000000 0.000000 1.685710 
# 
# From -- ./inp_files/77457.got.cif
#   From: 2010.03.12/outbox.cif.g09.slc.cpg/sg65_39_cif.got.tgz:77457.got - 2010.04.10 20:52:16.
