data_PCOD8270752
_publ_section_title
;
Structure prediction by ZEFSAII (Michael W. Deem and Ramdas Pophale) SiO2 
 PCOD8270752
Probable space group: C M M M
;
_chemical_formula_sum "Si O2"
_cell_formula_units_Z 88
_cell_length_a 13.114242
_cell_length_b 27.677452
_cell_length_c 13.008535
_cell_angle_alpha 90.000000
_cell_angle_beta 90.000000
_cell_angle_gamma 90.000000
_cell_volume 4721.692384
_symmetry_space_group_name_H-M "C M M M"
_symmetry_group_IT_number 65
_symmetry_cell_setting 'orthorhombic'
loop_
_space_group_symop_operation_xyz
x,y,z
-x,-y,z
x,-y,-z
-x,y,-z
-x,-y,-z
x,y,-z
-x,y,z
x,-y,z
1/2+x,1/2+y,z
1/2-x,1/2-y,z
1/2+x,1/2-y,-z
1/2-x,1/2+y,-z
1/2-x,1/2-y,-z
1/2+x,1/2+y,-z
1/2-x,1/2+y,z
1/2+x,1/2-y,z
loop_
_atom_site_type_symbol
_atom_site_label
_atom_site_fract_x
_atom_site_fract_y
_atom_site_fract_z
Si Si1 0.114867 0.630181 0.616352
Si Si2 0.000000 0.250514 0.117141
Si Si3 0.221964 0.944828 0.688763
Si Si4 0.000000 0.087631 0.620651
Si Si5 0.314084 0.797050 0.782825
Si Si6 0.000000 0.145886 0.184842
Si Si7 0.792125 0.885956 0.115802
O O1 0.115547 0.648155 0.500000
O O2 0.198028 0.587508 0.625526
O O3 0.144179 0.677387 0.681023
O O4 0.000000 0.612384 0.647358
O O5 0.097257 0.282626 0.140100
O O6 0.000000 0.203344 0.187471
O O7 0.000000 0.233566 0.000000
O O8 0.104937 0.940733 0.647902
O O9 0.236972 0.929611 0.807974
O O10 0.255761 0.000000 0.676768
O O11 0.000000 0.101346 0.500000
O O12 0.000000 0.134880 0.692609
O O13 0.250000 0.750000 0.749599
O O14 0.249557 0.834529 0.848357
O O15 0.911605 0.120926 0.121105
O O16 0.756358 0.898767 0.000000
#
# Coordination Sequence:
#
# PCOD8270752 Si02
#       7
#    16   8  16   8  16   8  16
#     4  10  22  41  61  83 116 153 189 237 290 334
#     4  12  22  34  55  81 115 151 189 228 270 326
#     4  10  22  38  59  87 114 145 192 240 285 347
#     4  10  21  38  57  82 119 150 183 235 294 345
#     4  11  22  36  56  85 116 148 193 231 271 333
#     4  10  20  33  51  82 114 146 189 235 275 331
#     4  10  20  35  55  80 114 151 185 231 286 333
#
# _framework density 18.637385999999999
#
# number of rings (size 3 to 8) (size 9 to 14) (size 15 to 20)
#    0.000    1.636    2.727    2.182    0.000    3.636 
#    0.000    1.818    0.000    3.273    0.000    2.545 
#    0.000    0.000    0.000    0.000    0.000    0.000 
#
# Total GULP energy -545364.170383 kJ/mol
# GULP energy per Si atom -12394.640236 kJ/mol
# Density = 1.859497 g / cm^3
# Si number density = 18.637386 Si / 1000 Ang^3
#
#
#
# Elastic Constant Matrix: (Units=GPa)
#
#
# Indices 1 2 3 4 5 6 
#
# 1 104.6305 35.5087 27.9490 0.0000 0.0000 0.0000
# 2 35.5087 100.5305 42.9352 0.0000 0.0000 0.0000
# 3 27.9490 42.9352 137.3264 0.0000 0.0000 0.0000
# 4 0.0000 0.0000 0.0000 14.0781 0.0000 0.0000
# 5 0.0000 0.0000 0.0000 0.0000 17.0734 0.0000
# 6 0.0000 0.0000 0.0000 0.0000 0.0000 8.4722
#
#
#
# Elastic Compliance Matrix: (Units=1/GPa)
#
#
# Indices 1 2 3 4 5 6 
#
# 1 0.011024 -0.003388 -0.001184 0.000000 0.000000 0.000000
# 2 -0.003388 0.012521 -0.003225 0.000000 0.000000 0.000000
# 3 -0.001184 -0.003225 0.008531 0.000000 0.000000 0.000000
# 4 0.000000 0.000000 0.000000 0.071032 0.000000 0.000000
# 5 0.000000 0.000000 0.000000 0.000000 0.058571 0.000000
# 6 0.000000 0.000000 0.000000 0.000000 0.000000 0.118033
#
#
# Mechanical properties :
#
#
# Convention : Reuss Voigt Hill
#
# Bulk Modulus (GPa) = 60.67492 61.69705 61.18598
# Shear Modulus (GPa) = 16.62229 23.66438 20.14334
#
# Velocity S-wave (km/s) = 2.98967 3.56719 3.29112
# Velocity P-wave (km/s) = 6.67411 7.08112 6.88062
#
# Compressibility (1/GPa) = 0.01648127
#
# Stress axis : x y z
#
# Youngs Moduli (GPa) = 90.71494 79.86363 117.21469
#
# Poissons Ratio (x) = 0.27057 0.13882
# Poissons Ratio (y) = 0.30733 0.37805
# Poissons Ratio (z) = 0.10744 0.25758
#
# Static dielectric constant tensor:
#      x y z
#    x 3.706290 0.000000 0.000000 
#    y 0.000000 3.248300 0.000000 
#    z 0.000000 0.000000 3.436350 
# 
# 
# High freq. dielectric constant tensor:
#      x y z
#    x 1.737990 0.000000 0.000000 
#    y 0.000000 1.710040 0.000000 
#    z 0.000000 0.000000 1.726540 
# 
# From -- ./inp_files/25218.got.cif
#   From: 2010.03.12/outbox.cif.g09.slc.cpg/sg65_13_cif.got.tgz:25218.got - 2010.04.10 20:52:16.
