data_PCOD8270889
_publ_section_title
;
Structure prediction by ZEFSAII (Michael W. Deem and Ramdas Pophale) SiO2 
 PCOD8270889
Probable space group: C M M M
;
_chemical_formula_sum "Si O2"
_cell_formula_units_Z 72
_cell_length_a 22.632025
_cell_length_b 17.568698
_cell_length_c 8.860225
_cell_angle_alpha 90.000000
_cell_angle_beta 90.000000
_cell_angle_gamma 90.000000
_cell_volume 3522.960245
_symmetry_space_group_name_H-M "C M M M"
_symmetry_group_IT_number 65
_symmetry_cell_setting 'orthorhombic'
loop_
_space_group_symop_operation_xyz
x,y,z
-x,-y,z
x,-y,-z
-x,y,-z
-x,-y,-z
x,y,-z
-x,y,z
x,-y,z
1/2+x,1/2+y,z
1/2-x,1/2-y,z
1/2+x,1/2-y,-z
1/2-x,1/2+y,-z
1/2-x,1/2-y,-z
1/2+x,1/2+y,-z
1/2-x,1/2+y,z
1/2+x,1/2-y,z
loop_
_atom_site_type_symbol
_atom_site_label
_atom_site_fract_x
_atom_site_fract_y
_atom_site_fract_z
Si Si1 0.626496 0.854281 0.821041
Si Si2 0.000000 0.413338 0.820961
Si Si3 0.935637 0.915526 0.179371
Si Si4 0.735940 0.914861 0.676242
Si Si5 0.667333 0.687565 0.179208
O O1 0.559036 0.868842 0.765081
O O2 0.669589 0.914870 0.742524
O O3 0.651579 0.772389 0.768958
O O4 0.629822 0.864057 0.000000
O O5 0.000000 0.500000 0.758200
O O6 0.000000 0.415284 0.000000
O O7 0.885768 0.862232 0.247986
O O8 0.000000 0.884372 0.228314
O O9 0.926215 0.000000 0.243990
O O10 0.931153 0.916482 0.000000
O O11 0.734110 0.898032 0.500000
O O12 0.772623 0.846742 0.753931
O O13 0.761855 0.000000 0.708849
O O14 0.672833 0.682717 0.000000
#
# Coordination Sequence:
#
# PCOD8270889 Si02
#       5
#    16   8  16  16  16
#     4  10  21  36  58  87 116 146 183 228 280 335
#     4   9  18  34  57  85 116 149 182 222 275 329
#     4   8  14  25  44  73 108 143 177 216 265 319
#     4  11  24  40  57  78 108 149 193 235 280 330
#     4  10  20  33  55  85 115 144 181 227 279 333
#
# _framework density 20.437358
#
# number of rings (size 3 to 8) (size 9 to 14) (size 15 to 20)
#    0.000    2.333    0.000    3.333    1.556    7.111 
#    0.000    0.556    0.000    2.667    0.000    3.111 
#    0.000    0.000    0.000    0.000    0.000    0.000 
#
# Total GULP energy -446200.042077 kJ/mol
# GULP energy per Si atom -12394.445613 kJ/mol
# Density = 2.039084 g / cm^3
# Si number density = 20.437358 Si / 1000 Ang^3
#
#
#
# Elastic Constant Matrix: (Units=GPa)
#
#
# Indices 1 2 3 4 5 6 
#
# 1 151.2129 62.2205 24.0817 0.0000 0.0000 0.0000
# 2 62.2205 111.3280 29.0521 0.0000 0.0000 0.0000
# 3 24.0817 29.0521 29.3252 0.0000 0.0000 0.0000
# 4 0.0000 0.0000 0.0000 18.5696 0.0000 0.0000
# 5 0.0000 0.0000 0.0000 0.0000 0.0567 0.0000
# 6 0.0000 0.0000 0.0000 0.0000 0.0000 4.4678
#
#
#
# Elastic Compliance Matrix: (Units=1/GPa)
#
#
# Indices 1 2 3 4 5 6 
#
# 1 0.008802 -0.004091 -0.003176 0.000000 0.000000 0.000000
# 2 -0.004091 0.014016 -0.010526 0.000000 0.000000 0.000000
# 3 -0.003176 -0.010526 0.047136 0.000000 0.000000 0.000000
# 4 0.000000 0.000000 0.000000 0.053851 0.000000 0.000000
# 5 0.000000 0.000000 0.000000 0.000000 17.624983 0.000000
# 6 0.000000 0.000000 0.000000 0.000000 0.000000 0.223823
#
#
# Mechanical properties :
#
#
# Convention : Reuss Voigt Hill
#
# Bulk Modulus (GPa) = 29.09568 58.06385 43.57976
# Shear Modulus (GPa) = 0.27747 16.38629 8.33188
#
# Velocity S-wave (km/s) = 0.36887 2.83465 2.02130
# Velocity P-wave (km/s) = 3.80116 6.25987 5.17855
#
# Compressibility (1/GPa) = 0.03436937
#
# Stress axis : x y z
#
# Youngs Moduli (GPa) = 113.60807 71.34938 21.21528
#
# Poissons Ratio (x) = 0.29187 0.06737
# Poissons Ratio (y) = 0.46474 0.22331
# Poissons Ratio (z) = 0.36078 0.75100
#
# Static dielectric constant tensor:
#      x y z
#    x 4.042450 0.000000 0.000000 
#    y 0.000000 3.921790 0.000000 
#    z 0.000000 0.000000 3.123550 
# 
# 
# High freq. dielectric constant tensor:
#      x y z
#    x 1.816330 0.000000 0.000000 
#    y 0.000000 1.808020 0.000000 
#    z 0.000000 0.000000 1.742810 
# 
# From -- ./inp_files/9241.got.cif
#   From: 2010.03.12/outbox.cif.g09.slc.cpg/sg65_5_cif.got.tgz:9241.got - 2010.04.10 20:52:16.
