data_PCOD8270475
_publ_section_title
;
Structure prediction by ZEFSAII (Michael W. Deem and Ramdas Pophale) SiO2 
 PCOD8270475
Probable space group: C M M M
;
_chemical_formula_sum "Si O2"
_cell_formula_units_Z 80
_cell_length_a 19.649143
_cell_length_b 8.132019
_cell_length_c 27.171840
_cell_angle_alpha 90.000000
_cell_angle_beta 90.000000
_cell_angle_gamma 90.000000
_cell_volume 4341.712347
_symmetry_space_group_name_H-M "C M M M"
_symmetry_group_IT_number 65
_symmetry_cell_setting 'orthorhombic'
loop_
_space_group_symop_operation_xyz
x,y,z
-x,-y,z
x,-y,-z
-x,y,-z
-x,-y,-z
x,y,-z
-x,y,z
x,-y,z
1/2+x,1/2+y,z
1/2-x,1/2-y,z
1/2+x,1/2-y,-z
1/2-x,1/2+y,-z
1/2-x,1/2-y,-z
1/2+x,1/2+y,-z
1/2-x,1/2+y,z
1/2+x,1/2-y,z
loop_
_atom_site_type_symbol
_atom_site_label
_atom_site_fract_x
_atom_site_fract_y
_atom_site_fract_z
Si Si1 0.080507 0.500000 0.945115
Si Si2 0.424298 0.192839 0.603029
Si Si3 0.825423 0.690009 0.684527
Si Si4 0.176440 0.810686 0.209683
Si Si5 0.579706 0.688120 0.118958
Si Si6 0.919549 0.186820 0.500000
O O1 0.104374 0.670499 0.919120
O O2 0.000000 0.500000 0.947782
O O3 0.111907 0.500000 0.000000
O O4 0.500000 0.271890 0.607001
O O5 0.377807 0.273669 0.646016
O O6 0.390780 0.229744 0.549672
O O7 0.429933 0.000000 0.610397
O O8 0.826926 0.500000 0.673865
O O9 0.750000 0.750000 0.674171
O O10 0.847803 0.722135 0.740662
O O11 0.250000 0.750000 0.190731
O O12 0.119992 0.776024 0.168785
O O13 0.183626 0.000000 0.222780
O O14 0.500000 0.707607 0.130335
O O15 0.594741 0.500000 0.099727
O O16 0.000000 0.210446 0.500000
O O17 0.895944 0.000000 0.500000
#
# Coordination Sequence:
#
# PCOD8270475 Si02
#       6
#     8  16  16  16  16   8
#     4   9  18  32  54  82 108 140 175 212 264 310
#     4   9  18  33  51  71  95 126 162 201 247 296
#     4  10  20  33  50  71  99 130 165 204 247 301
#     4  10  20  33  52  75 100 137 173 207 255 307
#     4   9  19  34  52  79 109 137 175 219 260 305
#     4   9  17  29  48  73  96 121 157 199 246 299
#
# _framework density 18.425909999999998
#
# number of rings (size 3 to 8) (size 9 to 14) (size 15 to 20)
#    0.000    2.600    0.000    2.700    2.800    4.000 
#    0.000    2.500    0.000    0.600    0.000    0.000 
#    0.000    0.000    0.000    0.000    0.000    0.000 
#
# Total GULP energy -495763.527217 kJ/mol
# GULP energy per Si atom -12394.088180 kJ/mol
# Density = 1.838397 g / cm^3
# Si number density = 18.425910 Si / 1000 Ang^3
#
#
#
# Elastic Constant Matrix: (Units=GPa)
#
#
# Indices 1 2 3 4 5 6 
#
# 1 63.0177 31.7274 67.8690 0.0000 0.0000 0.0000
# 2 31.7274 77.3102 52.3931 0.0000 0.0000 0.0000
# 3 67.8690 52.3931 145.4889 0.0000 0.0000 0.0000
# 4 0.0000 0.0000 0.0000 24.9553 0.0000 0.0000
# 5 0.0000 0.0000 0.0000 0.0000 10.3044 0.0000
# 6 0.0000 0.0000 0.0000 0.0000 0.0000 18.2445
#
#
#
# Elastic Compliance Matrix: (Units=1/GPa)
#
#
# Indices 1 2 3 4 5 6 
#
# 1 0.032842 -0.004095 -0.013846 0.000000 0.000000 0.000000
# 2 -0.004095 0.017621 -0.004436 0.000000 0.000000 0.000000
# 3 -0.013846 -0.004436 0.014930 0.000000 0.000000 0.000000
# 4 0.000000 0.000000 0.000000 0.040072 0.000000 0.000000
# 5 0.000000 0.000000 0.000000 0.000000 0.097046 0.000000
# 6 0.000000 0.000000 0.000000 0.000000 0.000000 0.054811
#
#
# Mechanical properties :
#
#
# Convention : Reuss Voigt Hill
#
# Bulk Modulus (GPa) = 48.44830 65.53287 56.99058
# Shear Modulus (GPa) = 16.18366 19.62267 17.90317
#
# Velocity S-wave (km/s) = 2.96685 3.26690 3.12048
# Velocity P-wave (km/s) = 6.17146 7.06208 6.63174
#
# Compressibility (1/GPa) = 0.02064056
#
# Stress axis : x y z
#
# Youngs Moduli (GPa) = 30.44907 56.74935 66.98109
#
# Poissons Ratio (x) = 0.23237 0.92740
# Poissons Ratio (y) = 0.12468 0.29710
# Poissons Ratio (z) = 0.42159 0.25172
#
# Static dielectric constant tensor:
#      x y z
#    x 3.565530 0.000000 0.000000 
#    y 0.000000 3.519830 0.000000 
#    z 0.000000 0.000000 3.554820 
# 
# 
# High freq. dielectric constant tensor:
#      x y z
#    x 1.687740 0.000000 0.000000 
#    y 0.000000 1.722700 0.000000 
#    z 0.000000 0.000000 1.714880 
# 
# From -- ./inp_files/70808.got.cif
#   From: 2010.03.12/outbox.cif.g09.slc.cpg/sg65_36_cif.got.tgz:70808.got - 2010.04.10 20:52:16.
