data_PCOD8270746
_publ_section_title
;
Structure prediction by ZEFSAII (Michael W. Deem and Ramdas Pophale) SiO2 
 PCOD8270746
Probable space group: C M M M
;
_chemical_formula_sum "Si O2"
_cell_formula_units_Z 112
_cell_length_a 14.335875
_cell_length_b 24.105034
_cell_length_c 15.651535
_cell_angle_alpha 90.000000
_cell_angle_beta 90.000000
_cell_angle_gamma 90.000000
_cell_volume 5408.650150
_symmetry_space_group_name_H-M "C M M M"
_symmetry_group_IT_number 65
_symmetry_cell_setting 'orthorhombic'
loop_
_space_group_symop_operation_xyz
x,y,z
-x,-y,z
x,-y,-z
-x,y,-z
-x,-y,-z
x,y,-z
-x,y,z
x,-y,z
1/2+x,1/2+y,z
1/2-x,1/2-y,z
1/2+x,1/2-y,-z
1/2-x,1/2+y,-z
1/2-x,1/2-y,-z
1/2+x,1/2+y,-z
1/2-x,1/2+y,z
1/2+x,1/2-y,z
loop_
_atom_site_type_symbol
_atom_site_label
_atom_site_fract_x
_atom_site_fract_y
_atom_site_fract_z
Si Si1 0.606615 0.636564 0.096455
Si Si2 0.248856 0.936801 0.822875
Si Si3 0.107929 0.830655 0.406571
Si Si4 0.293639 0.559454 0.632406
Si Si5 0.602288 0.899315 0.405615
Si Si6 0.893575 0.652065 0.229591
Si Si7 0.110597 0.225959 0.763932
O O1 0.500000 0.618936 0.116293
O O2 0.674239 0.583599 0.106864
O O3 0.640878 0.684026 0.161642
O O4 0.615266 0.659323 0.000000
O O5 0.194449 0.933648 0.733595
O O6 0.338278 0.896022 0.820661
O O7 0.280801 0.000000 0.843807
O O8 0.122350 0.801703 0.500000
O O9 0.156227 0.890458 0.414287
O O10 0.150303 0.794744 0.328338
O O11 0.000000 0.841724 0.387833
O O12 0.336377 0.500000 0.603768
O O13 0.183805 0.556188 0.608168
O O14 0.611116 0.871565 0.500000
O O15 0.500000 0.928254 0.396592
O O16 0.612662 0.852780 0.332603
O O17 0.849265 0.713094 0.211957
O O18 0.000000 0.647641 0.197245
O O19 0.000000 0.232013 0.757397
#
# Coordination Sequence:
#
# PCOD8270746 Si02
#       7
#    16  16  16  16  16  16  16
#     4  10  21  39  64  91 118 150 189 236 291 346
#     4  10  21  37  58  85 116 150 189 235 288 347
#     4  10  20  33  51  78 113 154 195 234 283 342
#     4  10  20  34  51  72 107 154 196 237 288 344
#     4   9  18  32  49  73 105 142 194 252 295 332
#     4   9  19  36  59  84 113 154 195 237 294 348
#     4   9  18  36  58  82 116 151 189 240 287 335
#
# _framework density 20.707571000000002
#
# number of rings (size 3 to 8) (size 9 to 14) (size 15 to 20)
#    0.000    2.429    1.429    0.429    0.000    3.714 
#    0.000   10.714    0.000    3.857    0.000    1.000 
#    0.000    0.000    0.000    0.000    0.000    0.000 
#
# Total GULP energy -693980.634556 kJ/mol
# GULP energy per Si atom -12392.511331 kJ/mol
# Density = 2.066044 g / cm^3
# Si number density = 20.707571 Si / 1000 Ang^3
#
#
#
# Elastic Constant Matrix: (Units=GPa)
#
#
# Indices 1 2 3 4 5 6 
#
# 1 65.6148 47.1140 34.3896 0.0000 0.0000 0.0000
# 2 47.1140 150.1729 41.7670 0.0000 0.0000 0.0000
# 3 34.3896 41.7670 102.3337 0.0000 0.0000 0.0000
# 4 0.0000 0.0000 0.0000 7.4617 0.0000 0.0000
# 5 0.0000 0.0000 0.0000 0.0000 22.0139 0.0000
# 6 0.0000 0.0000 0.0000 0.0000 0.0000 26.5728
#
#
#
# Elastic Compliance Matrix: (Units=1/GPa)
#
#
# Indices 1 2 3 4 5 6 
#
# 1 0.021815 -0.005421 -0.005119 0.000000 0.000000 0.000000
# 2 -0.005421 0.008859 -0.001794 0.000000 0.000000 0.000000
# 3 -0.005119 -0.001794 0.012224 0.000000 0.000000 0.000000
# 4 0.000000 0.000000 0.000000 0.134018 0.000000 0.000000
# 5 0.000000 0.000000 0.000000 0.000000 0.045426 0.000000
# 6 0.000000 0.000000 0.000000 0.000000 0.000000 0.037633
#
#
# Mechanical properties :
#
#
# Convention : Reuss Voigt Hill
#
# Bulk Modulus (GPa) = 54.84949 62.74029 58.79489
# Shear Modulus (GPa) = 17.19874 24.19972 20.69923
#
# Velocity S-wave (km/s) = 2.88506 3.42225 3.16507
# Velocity P-wave (km/s) = 6.13541 6.78083 6.46618
#
# Compressibility (1/GPa) = 0.01823171
#
# Stress axis : x y z
#
# Youngs Moduli (GPa) = 45.83912 112.88558 81.80392
#
# Poissons Ratio (x) = 0.61190 0.41874
# Poissons Ratio (y) = 0.24847 0.14675
# Poissons Ratio (z) = 0.23464 0.20251
#
# Static dielectric constant tensor:
#      x y z
#    x 3.716660 0.000000 0.000000 
#    y 0.000000 3.669440 0.000000 
#    z 0.000000 0.000000 3.659340 
# 
# 
# High freq. dielectric constant tensor:
#      x y z
#    x 1.805410 0.000000 0.000000 
#    y 0.000000 1.793630 0.000000 
#    z 0.000000 0.000000 1.794560 
# 
# From -- ./inp_files/40839.got.cif
#   From: 2010.03.12/outbox.cif.g09.slc.cpg/sg65_21_cif.got.tgz:40839.got - 2010.04.10 20:52:16.
