data_PCOD8270465
_publ_section_title
;
Structure prediction by ZEFSAII (Michael W. Deem and Ramdas Pophale) SiO2 
 PCOD8270465
Probable space group: C M M M
;
_chemical_formula_sum "Si O2"
_cell_formula_units_Z 96
_cell_length_a 20.381859
_cell_length_b 27.651883
_cell_length_c 9.436877
_cell_angle_alpha 90.000000
_cell_angle_beta 90.000000
_cell_angle_gamma 90.000000
_cell_volume 5318.593494
_symmetry_space_group_name_H-M "C M M M"
_symmetry_group_IT_number 65
_symmetry_cell_setting 'orthorhombic'
loop_
_space_group_symop_operation_xyz
x,y,z
-x,-y,z
x,-y,-z
-x,y,-z
-x,-y,-z
x,y,-z
-x,y,z
x,-y,z
1/2+x,1/2+y,z
1/2-x,1/2-y,z
1/2+x,1/2-y,-z
1/2-x,1/2+y,-z
1/2-x,1/2-y,-z
1/2+x,1/2+y,-z
1/2-x,1/2+y,z
1/2+x,1/2-y,z
loop_
_atom_site_type_symbol
_atom_site_label
_atom_site_fract_x
_atom_site_fract_y
_atom_site_fract_z
Si Si1 0.072448 0.717318 0.168529
Si Si2 0.307741 0.382019 0.332225
Si Si3 0.188128 0.215688 0.836619
Si Si4 0.072970 0.945932 0.668186
Si Si5 0.317436 0.944418 0.663941
Si Si6 0.424033 0.109022 0.163685
O O1 0.124928 0.755895 0.225065
O O2 0.089782 0.663287 0.221875
O O3 0.000000 0.732547 0.223115
O O4 0.073276 0.715706 0.000000
O O5 0.311370 0.373962 0.500000
O O6 0.300601 0.331037 0.256991
O O7 0.373053 0.408631 0.273186
O O8 0.245606 0.414002 0.287936
O O9 0.250000 0.250000 0.819801
O O10 0.177873 0.200602 0.000000
O O11 0.077696 0.947637 0.500000
O O12 0.000000 0.928941 0.715686
O O13 0.086965 0.000000 0.727028
O O14 0.332998 0.935911 0.500000
O O15 0.381345 0.928832 0.749661
O O16 0.301466 0.000000 0.696473
O O17 0.500000 0.095555 0.184876
O O18 0.403898 0.105090 0.000000
#
# Coordination Sequence:
#
# PCOD8270465 Si02
#       6
#    16  16  16  16  16  16
#     4   8  15  30  51  72  95 125 159 194 236 289
#     4  10  20  33  50  73 100 128 162 205 246 284
#     4  10  20  33  50  71  95 126 163 199 238 289
#     4   8  14  27  49  74  98 127 163 200 239 286
#     4  10  21  35  50  70  99 134 166 197 240 294
#     4   9  18  34  56  78  98 124 162 205 243 282
#
# _framework density 18.049886000000001
#
# number of rings (size 3 to 8) (size 9 to 14) (size 15 to 20)
#    0.000    2.833    0.000    3.000    0.000    6.000 
#    0.000    2.500    0.000    2.500    0.000    1.167 
#    0.000    0.000    0.000    0.000    0.000    0.000 
#
# Total GULP energy -595112.925404 kJ/mol
# GULP energy per Si atom -12398.185946 kJ/mol
# Density = 1.800880 g / cm^3
# Si number density = 18.049886 Si / 1000 Ang^3
#
#
#
# Elastic Constant Matrix: (Units=GPa)
#
#
# Indices 1 2 3 4 5 6 
#
# 1 117.5358 62.2081 37.8679 0.0000 0.0000 0.0000
# 2 62.2081 103.8374 37.4278 0.0000 0.0000 0.0000
# 3 37.8679 37.4278 32.5338 0.0000 0.0000 0.0000
# 4 0.0000 0.0000 0.0000 16.3911 0.0000 0.0000
# 5 0.0000 0.0000 0.0000 0.0000 15.5089 0.0000
# 6 0.0000 0.0000 0.0000 0.0000 0.0000 38.1639
#
#
#
# Elastic Compliance Matrix: (Units=1/GPa)
#
#
# Indices 1 2 3 4 5 6 
#
# 1 0.014762 -0.004528 -0.011973 0.000000 0.000000 0.000000
# 2 -0.004528 0.017842 -0.015255 0.000000 0.000000 0.000000
# 3 -0.011973 -0.015255 0.062224 0.000000 0.000000 0.000000
# 4 0.000000 0.000000 0.000000 0.061009 0.000000 0.000000
# 5 0.000000 0.000000 0.000000 0.000000 0.064479 0.000000
# 6 0.000000 0.000000 0.000000 0.000000 0.000000 0.026203
#
#
# Mechanical properties :
#
#
# Convention : Reuss Voigt Hill
#
# Bulk Modulus (GPa) = 31.93405 58.76828 45.35117
# Shear Modulus (GPa) = 15.60208 21.77300 18.68754
#
# Velocity S-wave (km/s) = 2.94323 3.47691 3.22114
# Velocity P-wave (km/s) = 5.41116 6.98198 6.24615
#
# Compressibility (1/GPa) = 0.03131454
#
# Stress axis : x y z
#
# Youngs Moduli (GPa) = 67.74031 56.04757 16.07101
#
# Poissons Ratio (x) = 0.25380 0.19242
# Poissons Ratio (y) = 0.30674 0.24517
# Poissons Ratio (z) = 0.81107 0.85502
#
# Static dielectric constant tensor:
#      x y z
#    x 3.667330 0.000000 0.000000 
#    y 0.000000 3.356570 0.000000 
#    z 0.000000 0.000000 2.927400 
# 
# 
# High freq. dielectric constant tensor:
#      x y z
#    x 1.715880 0.000000 0.000000 
#    y 0.000000 1.701800 0.000000 
#    z 0.000000 0.000000 1.654880 
# 
# From -- ./inp_files/12221.got.cif
#   From: 2010.03.12/outbox.cif.g09.slc.cpg/sg65_7_cif.got.tgz:12221.got - 2010.04.10 20:52:16.
