data_PCOD8270033
_publ_section_title
;
Structure prediction by ZEFSAII (Michael W. Deem and Ramdas Pophale) SiO2 
 PCOD8270033
Probable space group: C M M M
;
_chemical_formula_sum "Si O2"
_cell_formula_units_Z 96
_cell_length_a 9.735466
_cell_length_b 29.754265
_cell_length_c 18.010758
_cell_angle_alpha 90.000000
_cell_angle_beta 90.000000
_cell_angle_gamma 90.000000
_cell_volume 5217.205722
_symmetry_space_group_name_H-M "C M M M"
_symmetry_group_IT_number 65
_symmetry_cell_setting 'orthorhombic'
loop_
_space_group_symop_operation_xyz
x,y,z
-x,-y,z
x,-y,-z
-x,y,-z
-x,-y,-z
x,y,-z
-x,y,z
x,-y,z
1/2+x,1/2+y,z
1/2-x,1/2-y,z
1/2+x,1/2-y,-z
1/2-x,1/2+y,-z
1/2-x,1/2-y,-z
1/2+x,1/2+y,-z
1/2-x,1/2+y,z
1/2+x,1/2-y,z
loop_
_atom_site_type_symbol
_atom_site_label
_atom_site_fract_x
_atom_site_fract_y
_atom_site_fract_z
Si Si1 0.159018 0.708862 0.757185
Si Si2 0.650416 0.048414 0.186302
Si Si3 0.342529 0.449055 0.587567
Si Si4 0.344103 0.826206 0.082647
Si Si5 0.151634 0.911129 0.916538
Si Si6 0.657537 0.884612 0.317300
O O1 0.250000 0.750000 0.727361
O O2 0.185019 0.705283 0.846408
O O3 0.202655 0.665574 0.707435
O O4 0.000000 0.719561 0.742593
O O5 0.500000 0.054384 0.149220
O O6 0.768801 0.049388 0.125069
O O7 0.676636 0.087551 0.243253
O O8 0.659729 0.000000 0.226623
O O9 0.328688 0.444269 0.500000
O O10 0.500000 0.442012 0.612725
O O11 0.295201 0.500000 0.610983
O O12 0.252281 0.408490 0.621410
O O13 0.500000 0.844783 0.089226
O O14 0.237640 0.866005 0.090180
O O15 0.325068 0.803085 0.000000
O O16 0.000000 0.903283 0.881995
O O17 0.137229 0.927502 0.000000
O O18 0.500000 0.885298 0.345714
#
# Coordination Sequence:
#
# PCOD8270033 Si02
#       6
#    16  16  16  16  16  16
#     4  10  21  36  54  79 108 139 180 228 276 326
#     4  10  20  34  52  73  99 135 177 217 261 318
#     4   9  19  36  58  87 121 151 178 210 254 312
#     4   9  17  33  55  73  96 135 179 225 278 331
#     4  10  20  32  47  69  98 132 172 222 272 316
#     4  10  20  36  56  80 110 142 178 221 264 311
#
# _framework density 18.400652999999998
#
# number of rings (size 3 to 8) (size 9 to 14) (size 15 to 20)
#    0.000    2.333    1.667    1.500    0.000    5.333 
#    0.000    2.500    0.000    0.500    0.000    0.000 
#    0.000    0.000    0.000    0.000    0.000    0.000 
#
# Total GULP energy -594646.633222 kJ/mol
# GULP energy per Si atom -12388.471525 kJ/mol
# Density = 1.835877 g / cm^3
# Si number density = 18.400653 Si / 1000 Ang^3
#
#
#
# Elastic Constant Matrix: (Units=GPa)
#
#
# Indices 1 2 3 4 5 6 
#
# 1 106.9961 58.4033 47.8127 0.0000 0.0000 0.0000
# 2 58.4033 127.3741 43.6193 0.0000 0.0000 0.0000
# 3 47.8127 43.6193 54.8676 0.0000 0.0000 0.0000
# 4 0.0000 0.0000 0.0000 21.7686 0.0000 0.0000
# 5 0.0000 0.0000 0.0000 0.0000 28.3341 0.0000
# 6 0.0000 0.0000 0.0000 0.0000 0.0000 27.9413
#
#
#
# Elastic Compliance Matrix: (Units=1/GPa)
#
#
# Indices 1 2 3 4 5 6 
#
# 1 0.016435 -0.003616 -0.011448 0.000000 0.000000 0.000000
# 2 -0.003616 0.011583 -0.006058 0.000000 0.000000 0.000000
# 3 -0.011448 -0.006058 0.033017 0.000000 0.000000 0.000000
# 4 0.000000 0.000000 0.000000 0.045938 0.000000 0.000000
# 5 0.000000 0.000000 0.000000 0.000000 0.035293 0.000000
# 6 0.000000 0.000000 0.000000 0.000000 0.000000 0.035789
#
#
# Mechanical properties :
#
#
# Convention : Reuss Voigt Hill
#
# Bulk Modulus (GPa) = 53.20955 65.43428 59.32191
# Shear Modulus (GPa) = 22.06894 24.90228 23.48561
#
# Velocity S-wave (km/s) = 3.46693 3.68276 3.57648
# Velocity P-wave (km/s) = 6.70866 7.32951 7.02595
#
# Compressibility (1/GPa) = 0.01879362
#
# Stress axis : x y z
#
# Youngs Moduli (GPa) = 60.84496 86.33165 30.28713
#
# Poissons Ratio (x) = 0.31214 0.34671
# Poissons Ratio (y) = 0.21999 0.18348
# Poissons Ratio (z) = 0.69653 0.52299
#
# Static dielectric constant tensor:
#      x y z
#    x 3.661950 0.000000 0.000000 
#    y 0.000000 3.958500 0.000000 
#    z 0.000000 0.000000 3.289560 
# 
# 
# High freq. dielectric constant tensor:
#      x y z
#    x 1.721170 0.000000 0.000000 
#    y 0.000000 1.700680 0.000000 
#    z 0.000000 0.000000 1.688320 
# 
# From -- ./inp_files/60292.got.cif
#   From: 2010.03.12/outbox.cif.g09.slc.cpg/sg65_31_cif.got.tgz:60292.got - 2010.04.10 20:52:16.
