data_PCOD8270940
_publ_section_title
;
Structure prediction by ZEFSAII (Michael W. Deem and Ramdas Pophale) SiO2 
 PCOD8270940
Probable space group: C M M M
;
_chemical_formula_sum "Si O2"
_cell_formula_units_Z 96
_cell_length_a 9.450931
_cell_length_b 26.768647
_cell_length_c 24.033588
_cell_angle_alpha 90.000000
_cell_angle_beta 90.000000
_cell_angle_gamma 90.000000
_cell_volume 6080.224641
_symmetry_space_group_name_H-M "C M M M"
_symmetry_group_IT_number 65
_symmetry_cell_setting 'orthorhombic'
loop_
_space_group_symop_operation_xyz
x,y,z
-x,-y,z
x,-y,-z
-x,y,-z
-x,-y,-z
x,y,-z
-x,y,z
x,-y,z
1/2+x,1/2+y,z
1/2-x,1/2-y,z
1/2+x,1/2-y,-z
1/2-x,1/2+y,-z
1/2-x,1/2-y,-z
1/2+x,1/2+y,-z
1/2-x,1/2+y,z
1/2+x,1/2-y,z
loop_
_atom_site_type_symbol
_atom_site_label
_atom_site_fract_x
_atom_site_fract_y
_atom_site_fract_z
Si Si1 0.161658 0.055328 0.375444
Si Si2 0.166298 0.297847 0.660138
Si Si3 0.836490 0.399378 0.719823
Si Si4 0.164043 0.846114 0.436161
Si Si5 0.164632 0.442260 0.835858
Si Si6 0.340671 0.440643 0.061069
O O1 0.253513 0.063971 0.320737
O O2 0.196220 0.095676 0.423197
O O3 0.000000 0.060213 0.356326
O O4 0.193904 0.000000 0.399422
O O5 0.250000 0.250000 0.683814
O O6 0.192621 0.341748 0.704603
O O7 0.233914 0.311627 0.600519
O O8 0.000000 0.286579 0.652212
O O9 0.786951 0.409696 0.782791
O O10 0.000000 0.413249 0.712683
O O11 0.201680 0.835875 0.500000
O O12 0.000000 0.833247 0.423374
O O13 0.205393 0.500000 0.825022
O O14 0.242575 0.419376 0.889834
O O15 0.000000 0.436429 0.847711
O O16 0.500000 0.422125 0.071930
O O17 0.333841 0.500000 0.061740
O O18 0.289176 0.421634 0.000000
#
# Coordination Sequence:
#
# PCOD8270940 Si02
#       6
#    16  16  16  16  16  16
#     4   9  17  28  43  64  88 114 143 173 205 242
#     4  10  20  34  51  67  84 107 135 171 216 262
#     4   9  18  31  45  62  85 112 141 174 212 254
#     4   9  18  32  48  66  88 112 139 171 206 248
#     4   9  16  25  39  60  85 113 144 174 202 236
#     4   8  14  24  36  52  79 115 150 179 205 233
#
# _framework density 15.788888999999999
#
# number of rings (size 3 to 8) (size 9 to 14) (size 15 to 20)
#    0.000    3.000    0.000    1.500    0.000    3.667 
#    0.000    5.000    0.000    0.000    0.000    4.667 
#    0.000    0.667    0.000    1.500    0.000    2.667 
#
# Total GULP energy -595043.597730 kJ/mol
# GULP energy per Si atom -12396.741619 kJ/mol
# Density = 1.575295 g / cm^3
# Si number density = 15.788889 Si / 1000 Ang^3
#
#
#
# Elastic Constant Matrix: (Units=GPa)
#
#
# Indices 1 2 3 4 5 6 
#
# 1 61.7058 28.7983 46.2749 0.0000 0.0000 0.0000
# 2 28.7983 60.1548 27.0682 0.0000 0.0000 0.0000
# 3 46.2749 27.0682 115.1709 0.0000 0.0000 0.0000
# 4 0.0000 0.0000 0.0000 13.6065 0.0000 0.0000
# 5 0.0000 0.0000 0.0000 0.0000 28.4644 0.0000
# 6 0.0000 0.0000 0.0000 0.0000 0.0000 19.5703
#
#
#
# Elastic Compliance Matrix: (Units=1/GPa)
#
#
# Indices 1 2 3 4 5 6 
#
# 1 0.026924 -0.008970 -0.008710 0.000000 0.000000 0.000000
# 2 -0.008970 0.021578 -0.001467 0.000000 0.000000 0.000000
# 3 -0.008710 -0.001467 0.012527 0.000000 0.000000 0.000000
# 4 0.000000 0.000000 0.000000 0.073494 0.000000 0.000000
# 5 0.000000 0.000000 0.000000 0.000000 0.035132 0.000000
# 6 0.000000 0.000000 0.000000 0.000000 0.000000 0.051098
#
#
# Mechanical properties :
#
#
# Convention : Reuss Voigt Hill
#
# Bulk Modulus (GPa) = 43.98505 49.03494 46.51000
# Shear Modulus (GPa) = 18.75283 21.32090 20.03687
#
# Velocity S-wave (km/s) = 3.45008 3.67873 3.56624
# Velocity P-wave (km/s) = 6.61736 7.01200 6.81753
#
# Compressibility (1/GPa) = 0.02273500
#
# Stress axis : x y z
#
# Youngs Moduli (GPa) = 37.14153 46.34251 79.82720
#
# Poissons Ratio (x) = 0.41571 0.69526
# Poissons Ratio (y) = 0.33317 0.11713
# Poissons Ratio (z) = 0.32349 0.06800
#
# Static dielectric constant tensor:
#      x y z
#    x 3.074870 0.000000 0.000000 
#    y 0.000000 2.881110 0.000000 
#    z 0.000000 0.000000 3.112120 
# 
# 
# High freq. dielectric constant tensor:
#      x y z
#    x 1.610140 0.000000 0.000000 
#    y 0.000000 1.576670 0.000000 
#    z 0.000000 0.000000 1.598330 
# 
# From -- ./inp_files/68025.got.cif
#   From: 2010.03.12/outbox.cif.g09.slc.cpg/sg65_35_cif.got.tgz:68025.got - 2010.04.10 20:52:16.
