data_PCOD8270682
_publ_section_title
;
Structure prediction by ZEFSAII (Michael W. Deem and Ramdas Pophale) SiO2 
 PCOD8270682
Probable space group: C M M M
;
_chemical_formula_sum "Si O2"
_cell_formula_units_Z 112
_cell_length_a 23.630872
_cell_length_b 18.546402
_cell_length_c 13.571911
_cell_angle_alpha 90.000000
_cell_angle_beta 90.000000
_cell_angle_gamma 90.000000
_cell_volume 5948.129563
_symmetry_space_group_name_H-M "C M M M"
_symmetry_group_IT_number 65
_symmetry_cell_setting 'orthorhombic'
loop_
_space_group_symop_operation_xyz
x,y,z
-x,-y,z
x,-y,-z
-x,y,-z
-x,-y,-z
x,y,-z
-x,y,z
x,-y,z
1/2+x,1/2+y,z
1/2-x,1/2-y,z
1/2+x,1/2-y,-z
1/2-x,1/2+y,-z
1/2-x,1/2-y,-z
1/2+x,1/2+y,-z
1/2-x,1/2+y,z
1/2+x,1/2-y,z
loop_
_atom_site_type_symbol
_atom_site_label
_atom_site_fract_x
_atom_site_fract_y
_atom_site_fract_z
Si Si1 0.934451 0.581859 0.111945
Si Si2 0.064844 0.916586 0.763110
Si Si3 0.139993 0.174371 0.115901
Si Si4 0.161443 0.084084 0.611676
Si Si5 0.229922 0.331064 0.610149
Si Si6 0.255192 0.420249 0.115355
Si Si7 0.342629 0.829626 0.205804
O O1 0.912796 0.500000 0.123231
O O2 0.902866 0.632531 0.189653
O O3 0.000000 0.587063 0.137821
O O4 0.923225 0.608287 0.000000
O O5 0.080732 0.863452 0.853738
O O6 0.105300 0.894924 0.672091
O O7 0.000000 0.902382 0.732112
O O8 0.073319 0.000000 0.794530
O O9 0.187298 0.117446 0.150845
O O10 0.152459 0.246781 0.175555
O O11 0.140179 0.191231 0.000000
O O12 0.150924 0.110943 0.500000
O O13 0.218269 0.121628 0.653628
O O14 0.172980 0.000000 0.615976
O O15 0.212831 0.356958 0.500000
O O16 0.250000 0.250000 0.608252
O O17 0.175358 0.338234 0.680303
O O18 0.250378 0.500000 0.164852
O O19 0.202528 0.369515 0.137787
O O20 0.257751 0.430207 0.000000
#
# Coordination Sequence:
#
# PCOD8270682 Si02
#       7
#    16  16  16  16  16  16  16
#     4   9  19  36  56  79 109 144 180 217 260 312
#     4  10  21  36  54  76 103 141 186 221 256 311
#     4  11  23  36  50  74 109 141 172 217 269 315
#     4   9  18  34  56  81 108 136 171 220 269 306
#     4  10  21  36  54  77 106 139 172 209 261 324
#     4  10  20  33  51  76 105 138 174 211 259 319
#     4  12  21  33  56  81 104 134 175 223 266 309
#
# _framework density 18.829447999999999
#
# number of rings (size 3 to 8) (size 9 to 14) (size 15 to 20)
#    0.000    1.857    0.000    5.571    0.000    6.571 
#    0.000    2.143    0.000    0.429    0.000    1.000 
#    0.000    0.000    0.000    0.000    0.000    0.000 
#
# Total GULP energy -694431.973756 kJ/mol
# GULP energy per Si atom -12400.570960 kJ/mol
# Density = 1.878659 g / cm^3
# Si number density = 18.829448 Si / 1000 Ang^3
#
#
#
# Elastic Constant Matrix: (Units=GPa)
#
#
# Indices 1 2 3 4 5 6 
#
# 1 99.4944 52.9010 54.1779 0.0000 0.0000 0.0000
# 2 52.9010 99.4818 40.0458 0.0000 0.0000 0.0000
# 3 54.1779 40.0458 85.4558 0.0000 0.0000 0.0000
# 4 0.0000 0.0000 0.0000 19.9662 0.0000 0.0000
# 5 0.0000 0.0000 0.0000 0.0000 29.6271 0.0000
# 6 0.0000 0.0000 0.0000 0.0000 0.0000 23.8404
#
#
#
# Elastic Compliance Matrix: (Units=1/GPa)
#
#
# Indices 1 2 3 4 5 6 
#
# 1 0.017931 -0.006112 -0.008504 0.000000 0.000000 0.000000
# 2 -0.006112 0.014472 -0.002907 0.000000 0.000000 0.000000
# 3 -0.008504 -0.002907 0.018456 0.000000 0.000000 0.000000
# 4 0.000000 0.000000 0.000000 0.050085 0.000000 0.000000
# 5 0.000000 0.000000 0.000000 0.000000 0.033753 0.000000
# 6 0.000000 0.000000 0.000000 0.000000 0.000000 0.041946
#
#
# Mechanical properties :
#
#
# Convention : Reuss Voigt Hill
#
# Bulk Modulus (GPa) = 63.23815 64.29793 63.76804
# Shear Modulus (GPa) = 23.04574 23.84057 23.44316
#
# Velocity S-wave (km/s) = 3.50225 3.56214 3.53232
# Velocity P-wave (km/s) = 7.07192 7.15123 7.11168
#
# Compressibility (1/GPa) = 0.01581324
#
# Stress axis : x y z
#
# Youngs Moduli (GPa) = 55.76847 69.09673 54.18375
#
# Poissons Ratio (x) = 0.42232 0.46078
# Poissons Ratio (y) = 0.34086 0.15752
# Poissons Ratio (z) = 0.47426 0.20087
#
# Static dielectric constant tensor:
#      x y z
#    x 3.412020 0.000000 0.000000 
#    y 0.000000 3.727410 0.000000 
#    z 0.000000 0.000000 3.590400 
# 
# 
# High freq. dielectric constant tensor:
#      x y z
#    x 1.720150 0.000000 0.000000 
#    y 0.000000 1.739490 0.000000 
#    z 0.000000 0.000000 1.725190 
# 
# From -- ./inp_files/45734.got.cif
#   From: 2010.03.12/outbox.cif.g09.slc.cpg/sg65_23_cif.got.tgz:45734.got - 2010.04.10 20:52:16.
