data_PCOD8270327
_publ_section_title
;
Structure prediction by ZEFSAII (Michael W. Deem and Ramdas Pophale) SiO2 
 PCOD8270327
Probable space group: C M M M
;
_chemical_formula_sum "Si O2"
_cell_formula_units_Z 64
_cell_length_a 8.771193
_cell_length_b 28.503661
_cell_length_c 13.579008
_cell_angle_alpha 90.000000
_cell_angle_beta 90.000000
_cell_angle_gamma 90.000000
_cell_volume 3394.902888
_symmetry_space_group_name_H-M "C M M M"
_symmetry_group_IT_number 65
_symmetry_cell_setting 'orthorhombic'
loop_
_space_group_symop_operation_xyz
x,y,z
-x,-y,z
x,-y,-z
-x,y,-z
-x,-y,-z
x,y,-z
-x,y,z
x,-y,z
1/2+x,1/2+y,z
1/2-x,1/2-y,z
1/2+x,1/2-y,-z
1/2-x,1/2+y,-z
1/2-x,1/2-y,-z
1/2+x,1/2+y,-z
1/2-x,1/2+y,z
1/2+x,1/2-y,z
loop_
_atom_site_type_symbol
_atom_site_label
_atom_site_fract_x
_atom_site_fract_y
_atom_site_fract_z
Si Si1 0.832192 0.705455 0.885986
Si Si2 0.824187 0.554774 0.111508
Si Si3 0.178145 0.132325 0.229712
Si Si4 0.680156 0.200175 0.388345
O O1 0.750000 0.750000 0.836321
O O2 0.724112 0.661268 0.867719
O O3 0.000000 0.699006 0.837043
O O4 0.853503 0.713809 0.000000
O O5 0.804322 0.500000 0.131870
O O6 0.732734 0.580115 0.200366
O O7 0.000000 0.570119 0.118758
O O8 0.765485 0.566613 0.000000
O O9 0.261135 0.156643 0.322421
O O10 0.000000 0.132135 0.250714
O O11 0.731071 0.189196 0.500000
O O12 0.500000 0.203843 0.379061
O O13 0.750000 0.250000 0.353837
#
# Coordination Sequence:
#
# PCOD8270327 Si02
#       4
#    16  16  16  16
#     4  10  20  33  48  68  99 137 175 214 255 304
#     4   9  19  37  59  81 107 141 181 224 268 315
#     4  12  23  33  51  78 108 140 174 215 263 317
#     4  10  21  38  59  81 107 140 179 223 269 318
#
# _framework density 18.851793000000001
#
# number of rings (size 3 to 8) (size 9 to 14) (size 15 to 20)
#    0.000    1.750    0.000    6.000    0.000    7.000 
#    0.000    1.250    0.000    0.750    0.000    5.250 
#    0.000    0.000    0.000    0.000    0.000    0.000 
#
# Total GULP energy -396569.989707 kJ/mol
# GULP energy per Si atom -12392.812178 kJ/mol
# Density = 1.880888 g / cm^3
# Si number density = 18.851793 Si / 1000 Ang^3
#
#
#
# Elastic Constant Matrix: (Units=GPa)
#
#
# Indices 1 2 3 4 5 6 
#
# 1 107.1868 41.2353 34.8146 0.0000 0.0000 0.0000
# 2 41.2353 88.2574 45.2838 0.0000 0.0000 0.0000
# 3 34.8146 45.2838 102.7334 0.0000 0.0000 0.0000
# 4 0.0000 0.0000 0.0000 34.6959 0.0000 0.0000
# 5 0.0000 0.0000 0.0000 0.0000 22.7080 0.0000
# 6 0.0000 0.0000 0.0000 0.0000 0.0000 32.8200
#
#
#
# Elastic Compliance Matrix: (Units=1/GPa)
#
#
# Indices 1 2 3 4 5 6 
#
# 1 0.011686 -0.004430 -0.002008 0.000000 0.000000 0.000000
# 2 -0.004430 0.016321 -0.005693 0.000000 0.000000 0.000000
# 3 -0.002008 -0.005693 0.012924 0.000000 0.000000 0.000000
# 4 0.000000 0.000000 0.000000 0.028822 0.000000 0.000000
# 5 0.000000 0.000000 0.000000 0.000000 0.044037 0.000000
# 6 0.000000 0.000000 0.000000 0.000000 0.000000 0.030469
#
#
# Mechanical properties :
#
#
# Convention : Reuss Voigt Hill
#
# Bulk Modulus (GPa) = 59.98802 60.09388 60.04095
# Shear Modulus (GPa) = 28.72307 29.83438 29.27873
#
# Velocity S-wave (km/s) = 3.90760 3.98248 3.94521
# Velocity P-wave (km/s) = 7.22835 7.28650 7.25748
#
# Compressibility (1/GPa) = 0.01667000
#
# Stress axis : x y z
#
# Youngs Moduli (GPa) = 85.57477 61.27009 77.37727
#
# Poissons Ratio (x) = 0.27141 0.15534
# Poissons Ratio (y) = 0.37907 0.44051
# Poissons Ratio (z) = 0.17179 0.34881
#
# Static dielectric constant tensor:
#      x y z
#    x 3.767400 0.000000 0.000000 
#    y 0.000000 3.430680 0.000000 
#    z 0.000000 0.000000 3.442110 
# 
# 
# High freq. dielectric constant tensor:
#      x y z
#    x 1.739800 0.000000 0.000000 
#    y 0.000000 1.721120 0.000000 
#    z 0.000000 0.000000 1.724190 
# 
# From -- ./inp_files/36811.got.cif
#   From: 2010.03.12/outbox.cif.g09.slc.cpg/sg65_19_cif.got.tgz:36811.got - 2010.04.10 20:52:16.
