data_PCOD8270175
_publ_section_title
;
Structure prediction by ZEFSAII (Michael W. Deem and Ramdas Pophale) SiO2 
 PCOD8270175
Probable space group: C M M M
;
_chemical_formula_sum "Si O2"
_cell_formula_units_Z 88
_cell_length_a 26.310756
_cell_length_b 19.903773
_cell_length_c 9.271841
_cell_angle_alpha 90.000000
_cell_angle_beta 90.000000
_cell_angle_gamma 90.000000
_cell_volume 4855.508430
_symmetry_space_group_name_H-M "C M M M"
_symmetry_group_IT_number 65
_symmetry_cell_setting 'orthorhombic'
loop_
_space_group_symop_operation_xyz
x,y,z
-x,-y,z
x,-y,-z
-x,y,-z
-x,-y,-z
x,y,-z
-x,y,z
x,-y,z
1/2+x,1/2+y,z
1/2-x,1/2-y,z
1/2+x,1/2-y,-z
1/2-x,1/2+y,-z
1/2-x,1/2-y,-z
1/2+x,1/2+y,-z
1/2-x,1/2+y,z
1/2+x,1/2-y,z
loop_
_atom_site_type_symbol
_atom_site_label
_atom_site_fract_x
_atom_site_fract_y
_atom_site_fract_z
Si Si1 0.871333 0.772668 0.665916
Si Si2 0.835031 0.500000 0.836783
Si Si3 0.783433 0.873045 0.665155
Si Si4 0.285984 0.500000 0.837602
Si Si5 0.439586 0.500000 0.663331
Si Si6 0.559855 0.630641 0.166640
Si Si7 0.832594 0.628983 0.667605
O O1 0.888187 0.782353 0.500000
O O2 0.816881 0.807236 0.693242
O O3 0.914145 0.803068 0.769177
O O4 0.865732 0.694414 0.705008
O O5 0.774570 0.500000 0.828631
O O6 0.855501 0.566779 0.757579
O O7 0.855232 0.500000 0.000000
O O8 0.785563 0.896453 0.500000
O O9 0.725814 0.856077 0.710722
O O10 0.806816 0.933628 0.759138
O O11 0.306336 0.500000 0.000000
O O12 0.500000 0.500000 0.663463
O O13 0.418247 0.500000 0.500000
O O14 0.419620 0.565838 0.746376
O O15 0.500000 0.639515 0.186224
O O16 0.574648 0.621567 0.000000
O O17 0.836481 0.610446 0.500000
#
# Coordination Sequence:
#
# PCOD8270175 Si02
#       7
#    16   8  16   8   8  16  16
#     4  10  20  32  49  73  97 124 160 199 239 283
#     4   9  17  29  46  68  94 125 161 197 231 275
#     4   9  17  30  47  67  94 127 161 197 235 276
#     4   9  17  28  42  63  92 128 167 200 231 270
#     4   9  17  32  55  76  93 120 161 206 245 280
#     4  10  21  36  52  71  97 128 161 198 241 287
#     4   9  17  31  50  71  96 126 159 195 235 280
#
# _framework density 18.123746000000001
#
# number of rings (size 3 to 8) (size 9 to 14) (size 15 to 20)
#    0.000    2.636    0.000    1.909    0.000    8.727 
#    0.000    0.909    0.000    5.455    0.000    0.636 
#    0.000    5.091    0.000    0.000    0.000    0.000 
#
# Total GULP energy -545669.302554 kJ/mol
# GULP energy per Si atom -12401.575058 kJ/mol
# Density = 1.808250 g / cm^3
# Si number density = 18.123746 Si / 1000 Ang^3
#
#
#
# Elastic Constant Matrix: (Units=GPa)
#
#
# Indices 1 2 3 4 5 6 
#
# 1 34.2482 32.4262 35.6203 0.0000 0.0000 0.0000
# 2 32.4262 147.3116 81.8811 0.0000 0.0000 0.0000
# 3 35.6203 81.8811 124.5637 0.0000 0.0000 0.0000
# 4 0.0000 0.0000 0.0000 21.2648 0.0000 0.0000
# 5 0.0000 0.0000 0.0000 0.0000 21.7652 0.0000
# 6 0.0000 0.0000 0.0000 0.0000 0.0000 16.3645
#
#
#
# Elastic Compliance Matrix: (Units=1/GPa)
#
#
# Indices 1 2 3 4 5 6 
#
# 1 0.043115 -0.004156 -0.009597 0.000000 0.000000 0.000000
# 2 -0.004156 0.011097 -0.006106 0.000000 0.000000 0.000000
# 3 -0.009597 -0.006106 0.014786 0.000000 0.000000 0.000000
# 4 0.000000 0.000000 0.000000 0.047026 0.000000 0.000000
# 5 0.000000 0.000000 0.000000 0.000000 0.045945 0.000000
# 6 0.000000 0.000000 0.000000 0.000000 0.000000 0.061108
#
#
# Mechanical properties :
#
#
# Convention : Reuss Voigt Hill
#
# Bulk Modulus (GPa) = 34.15322 67.33098 50.74210
# Shear Modulus (GPa) = 18.34477 22.29194 20.31835
#
# Velocity S-wave (km/s) = 3.18495 3.51092 3.35190
# Velocity P-wave (km/s) = 5.69303 7.32576 6.56039
#
# Compressibility (1/GPa) = 0.02927981
#
# Stress axis : x y z
#
# Youngs Moduli (GPa) = 23.19352 90.11274 67.62969
#
# Poissons Ratio (x) = 0.37451 0.64907
# Poissons Ratio (y) = 0.09639 0.41296
# Poissons Ratio (z) = 0.22260 0.55025
#
# Static dielectric constant tensor:
#      x y z
#    x 2.941460 0.000000 0.000000 
#    y 0.000000 3.404600 0.000000 
#    z 0.000000 0.000000 3.417660 
# 
# 
# High freq. dielectric constant tensor:
#      x y z
#    x 1.659960 0.000000 0.000000 
#    y 0.000000 1.702870 0.000000 
#    z 0.000000 0.000000 1.704440 
# 
# From -- ./inp_files/12692.got.cif
#   From: 2010.03.12/outbox.cif.g09.slc.cpg/sg65_7_cif.got.tgz:12692.got - 2010.04.10 20:52:16.
