data_PCOD8270035
_publ_section_title
;
Structure prediction by ZEFSAII (Michael W. Deem and Ramdas Pophale) SiO2 
 PCOD8270035
Probable space group: C M M M
;
_chemical_formula_sum "Si O2"
_cell_formula_units_Z 96
_cell_length_a 8.994675
_cell_length_b 26.515014
_cell_length_c 21.682722
_cell_angle_alpha 90.000000
_cell_angle_beta 90.000000
_cell_angle_gamma 90.000000
_cell_volume 5171.197660
_symmetry_space_group_name_H-M "C M M M"
_symmetry_group_IT_number 65
_symmetry_cell_setting 'orthorhombic'
loop_
_space_group_symop_operation_xyz
x,y,z
-x,-y,z
x,-y,-z
-x,y,-z
-x,-y,-z
x,y,-z
-x,y,z
x,-y,z
1/2+x,1/2+y,z
1/2-x,1/2-y,z
1/2+x,1/2-y,-z
1/2-x,1/2+y,-z
1/2-x,1/2-y,-z
1/2+x,1/2+y,-z
1/2-x,1/2+y,z
1/2+x,1/2-y,z
loop_
_atom_site_type_symbol
_atom_site_label
_atom_site_fract_x
_atom_site_fract_y
_atom_site_fract_z
Si Si1 0.166790 0.298432 0.271855
Si Si2 0.829949 0.500000 0.927070
Si Si3 0.824118 0.096620 0.869045
Si Si4 0.833442 0.060380 0.500000
Si Si5 0.174070 0.898968 0.273504
Si Si6 0.663024 0.057797 0.382242
Si Si7 0.831877 0.300009 0.874692
O O1 0.250000 0.250000 0.299180
O O2 0.259166 0.345943 0.295060
O O3 0.164461 0.296206 0.198401
O O4 0.000000 0.300682 0.298105
O O5 0.746829 0.450119 0.904330
O O6 0.000000 0.500000 0.902932
O O7 0.825023 0.500000 0.000000
O O8 0.786097 0.088767 0.797110
O O9 0.755311 0.149109 0.894348
O O10 0.000000 0.098182 0.880715
O O11 0.752087 0.082583 0.439207
O O12 0.000000 0.081905 0.500000
O O13 0.836498 0.000000 0.500000
O O14 0.247441 0.939967 0.317975
O O15 0.000000 0.898234 0.283935
O O16 0.500000 0.083394 0.375633
O O17 0.641299 0.000000 0.398782
O O18 0.750000 0.250000 0.901568
O O19 0.000000 0.302179 0.901127
#
# Coordination Sequence:
#
# PCOD8270035 Si02
#       7
#    16   8  16   8  16  16  16
#     4   9  16  27  44  67  98 133 167 203 249 302
#     4  11  25  43  61  79 103 140 183 222 261 313
#     4  10  21  36  55  80 108 140 178 221 266 316
#     4   9  17  31  49  67  90 127 170 211 253 301
#     4  10  20  32  48  74 105 134 168 209 256 304
#     4  10  20  32  47  69  98 133 170 210 254 303
#     4   9  16  28  49  77 108 140 172 212 261 315
#
# _framework density 18.564364000000001
#
# number of rings (size 3 to 8) (size 9 to 14) (size 15 to 20)
#    0.000    2.333    0.000    3.000    1.167    8.667 
#    0.000    0.000    0.000    0.500    0.000    0.583 
#    0.000    0.000    0.000    0.000    0.000    0.000 
#
# Total GULP energy -595098.955102 kJ/mol
# GULP energy per Si atom -12397.894898 kJ/mol
# Density = 1.852211 g / cm^3
# Si number density = 18.564364 Si / 1000 Ang^3
#
#
#
# Elastic Constant Matrix: (Units=GPa)
#
#
# Indices 1 2 3 4 5 6 
#
# 1 154.5206 54.3651 44.4135 0.0000 0.0000 0.0000
# 2 54.3651 101.7710 29.6392 0.0000 0.0000 0.0000
# 3 44.4135 29.6392 54.0909 0.0000 0.0000 0.0000
# 4 0.0000 0.0000 0.0000 -0.7991 0.0000 0.0000
# 5 0.0000 0.0000 0.0000 0.0000 20.7870 0.0000
# 6 0.0000 0.0000 0.0000 0.0000 0.0000 35.0495
#
#
#
# Elastic Compliance Matrix: (Units=1/GPa)
#
#
# Indices 1 2 3 4 5 6 
#
# 1 0.009301 -0.003266 -0.005848 0.000000 0.000000 0.000000
# 2 -0.003266 0.012838 -0.004353 0.000000 0.000000 0.000000
# 3 -0.005848 -0.004353 0.025675 0.000000 0.000000 0.000000
# 4 0.000000 0.000000 0.000000 -1.251389 0.000000 0.000000
# 5 0.000000 0.000000 0.000000 0.000000 0.048107 0.000000
# 6 0.000000 0.000000 0.000000 0.000000 0.000000 0.028531
#
#
# Mechanical properties :
#
#
# Convention : Reuss Voigt Hill
#
# Bulk Modulus (GPa) = 47.89181 63.02422 55.45801
# Shear Modulus (GPa) = -4.57438 23.13847 9.28204
#
# Velocity S-wave (km/s) = -1.57144 3.53426 2.23848
# Velocity P-wave (km/s) = 4.74986 7.11880 6.05139
#
# Compressibility (1/GPa) = 0.02088040
#
# Stress axis : x y z
#
# Youngs Moduli (GPa) = 107.51038 77.89188 38.94912
#
# Poissons Ratio (x) = 0.25437 0.22777
# Poissons Ratio (y) = 0.35109 0.16956
# Poissons Ratio (z) = 0.62871 0.33909
#
# Static dielectric constant tensor:
#      x y z
#    x 3.757050 0.000000 0.000000 
#    y 0.000000 3.377780 0.000000 
#    z 0.000000 0.000000 3.071940 
# 
# 
# High freq. dielectric constant tensor:
#      x y z
#    x 1.745070 0.000000 0.000000 
#    y 0.000000 1.705630 0.000000 
#    z 0.000000 0.000000 1.681420 
# 
# From -- ./inp_files/67889.got.cif
#   From: 2010.03.12/outbox.cif.g09.slc.cpg/sg65_34_cif.got.tgz:67889.got - 2010.04.10 20:52:16.
