data_PCOD8270065
_publ_section_title
;
Structure prediction by ZEFSAII (Michael W. Deem and Ramdas Pophale) SiO2 
 PCOD8270065
Probable space group: C M M M
;
_chemical_formula_sum "Si O2"
_cell_formula_units_Z 96
_cell_length_a 23.611131
_cell_length_b 23.947846
_cell_length_c 9.377016
_cell_angle_alpha 90.000000
_cell_angle_beta 90.000000
_cell_angle_gamma 90.000000
_cell_volume 5302.099878
_symmetry_space_group_name_H-M "C M M M"
_symmetry_group_IT_number 65
_symmetry_cell_setting 'orthorhombic'
loop_
_space_group_symop_operation_xyz
x,y,z
-x,-y,z
x,-y,-z
-x,y,-z
-x,-y,-z
x,y,-z
-x,y,z
x,-y,z
1/2+x,1/2+y,z
1/2-x,1/2-y,z
1/2+x,1/2-y,-z
1/2-x,1/2+y,-z
1/2-x,1/2-y,-z
1/2+x,1/2+y,-z
1/2-x,1/2+y,z
1/2+x,1/2-y,z
loop_
_atom_site_type_symbol
_atom_site_label
_atom_site_fract_x
_atom_site_fract_y
_atom_site_fract_z
Si Si1 0.832068 0.062649 0.667881
Si Si2 0.066457 0.331903 0.833174
Si Si3 0.341611 0.229732 0.330778
Si Si4 0.061871 0.933744 0.159003
Si Si5 0.932871 0.561676 0.340406
Si Si6 0.732005 0.332040 0.332103
O O1 0.840675 0.063002 0.500000
O O2 0.890088 0.086952 0.733303
O O3 0.781989 0.104540 0.715765
O O4 0.817464 0.000000 0.722487
O O5 0.100555 0.282535 0.754342
O O6 0.087911 0.391251 0.769594
O O7 0.000000 0.322246 0.803527
O O8 0.080069 0.331494 0.000000
O O9 0.353703 0.226935 0.500000
O O10 0.317510 0.289856 0.280459
O O11 0.294454 0.184464 0.278803
O O12 0.000000 0.910896 0.207319
O O13 0.060250 0.000000 0.159583
O O14 0.075892 0.911980 0.000000
O O15 0.910496 0.576112 0.500000
O O16 0.910202 0.500000 0.294450
O O17 0.000000 0.560117 0.342087
O O18 0.732968 0.325642 0.500000
#
# Coordination Sequence:
#
# PCOD8270065 Si02
#       6
#    16  16  16  16  16  16
#     4   9  16  27  46  71  96 118 144 187 241 290
#     4  10  20  32  47  71 103 131 155 193 245 291
#     4   9  17  33  55  70  87 122 165 202 232 276
#     4   8  14  25  40  59  87 123 157 183 212 261
#     4   8  14  26  45  68  93 124 163 198 227 272
#     4   8  16  32  52  72  91 117 157 200 241 282
#
# _framework density 18.106034000000001
#
# number of rings (size 3 to 8) (size 9 to 14) (size 15 to 20)
#    0.000    3.333    0.000    2.500    0.000    1.667 
#    0.000    8.333    0.000    8.000    0.000    0.000 
#    0.000    0.000    0.000    0.000    0.000    0.000 
#
# Total GULP energy -594732.943049 kJ/mol
# GULP energy per Si atom -12390.269647 kJ/mol
# Density = 1.806482 g / cm^3
# Si number density = 18.106034 Si / 1000 Ang^3
#
#
#
# Elastic Constant Matrix: (Units=GPa)
#
#
# Indices 1 2 3 4 5 6 
#
# 1 67.6473 39.7639 32.2728 0.0000 0.0000 0.0000
# 2 39.7639 78.6654 30.2736 0.0000 0.0000 0.0000
# 3 32.2728 30.2736 57.4746 0.0000 0.0000 0.0000
# 4 0.0000 0.0000 0.0000 13.5738 0.0000 0.0000
# 5 0.0000 0.0000 0.0000 0.0000 14.9083 0.0000
# 6 0.0000 0.0000 0.0000 0.0000 0.0000 24.3236
#
#
#
# Elastic Compliance Matrix: (Units=1/GPa)
#
#
# Indices 1 2 3 4 5 6 
#
# 1 0.024235 -0.008796 -0.008975 0.000000 0.000000 0.000000
# 2 -0.008796 0.019137 -0.005141 0.000000 0.000000 0.000000
# 3 -0.008975 -0.005141 0.025146 0.000000 0.000000 0.000000
# 4 0.000000 0.000000 0.000000 0.073672 0.000000 0.000000
# 5 0.000000 0.000000 0.000000 0.000000 0.067077 0.000000
# 6 0.000000 0.000000 0.000000 0.000000 0.000000 0.041112
#
#
# Mechanical properties :
#
#
# Convention : Reuss Voigt Hill
#
# Bulk Modulus (GPa) = 44.06437 45.37867 44.72152
# Shear Modulus (GPa) = 16.45996 17.32624 16.89310
#
# Velocity S-wave (km/s) = 3.01838 3.09679 3.05783
# Velocity P-wave (km/s) = 6.04460 6.15662 6.10086
#
# Compressibility (1/GPa) = 0.02269407
#
# Stress axis : x y z
#
# Youngs Moduli (GPa) = 41.26278 52.25527 39.76734
#
# Poissons Ratio (x) = 0.45966 0.35691
# Poissons Ratio (y) = 0.36296 0.20443
# Poissons Ratio (z) = 0.37033 0.26863
#
# Static dielectric constant tensor:
#      x y z
#    x 3.442460 0.000000 0.000000 
#    y 0.000000 3.506140 0.000000 
#    z 0.000000 0.000000 3.177110 
# 
# 
# High freq. dielectric constant tensor:
#      x y z
#    x 1.684650 0.000000 0.000000 
#    y 0.000000 1.689330 0.000000 
#    z 0.000000 0.000000 1.676130 
# 
# From -- ./inp_files/14322.got.cif
#   From: 2010.03.12/outbox.cif.g09.slc.cpg/sg65_8_cif.got.tgz:14322.got - 2010.04.10 20:52:16.
