data_PCOD8270948
_publ_section_title
;
Structure prediction by ZEFSAII (Michael W. Deem and Ramdas Pophale) SiO2 
 PCOD8270948
Probable space group: C M M M
;
_chemical_formula_sum "Si O2"
_cell_formula_units_Z 80
_cell_length_a 9.154583
_cell_length_b 27.504305
_cell_length_c 18.813141
_cell_angle_alpha 90.000000
_cell_angle_beta 90.000000
_cell_angle_gamma 90.000000
_cell_volume 4736.969106
_symmetry_space_group_name_H-M "C M M M"
_symmetry_group_IT_number 65
_symmetry_cell_setting 'orthorhombic'
loop_
_space_group_symop_operation_xyz
x,y,z
-x,-y,z
x,-y,-z
-x,y,-z
-x,-y,-z
x,y,-z
-x,y,z
x,-y,z
1/2+x,1/2+y,z
1/2-x,1/2-y,z
1/2+x,1/2-y,-z
1/2-x,1/2+y,-z
1/2-x,1/2-y,-z
1/2+x,1/2+y,-z
1/2-x,1/2+y,z
1/2+x,1/2-y,z
loop_
_atom_site_type_symbol
_atom_site_label
_atom_site_fract_x
_atom_site_fract_y
_atom_site_fract_z
Si Si1 0.673288 0.554243 0.579023
Si Si2 0.669267 0.862191 0.920540
Si Si3 0.327010 0.800985 0.786470
Si Si4 0.330781 0.445348 0.151059
Si Si5 0.170430 0.115419 0.710495
O O1 0.721433 0.571317 0.500000
O O2 0.500000 0.551850 0.584743
O O3 0.735429 0.500000 0.594243
O O4 0.730828 0.592794 0.636827
O O5 0.500000 0.873532 0.910550
O O6 0.718552 0.821114 0.864375
O O7 0.751123 0.912748 0.907514
O O8 0.705257 0.843301 0.000000
O O9 0.500000 0.795236 0.778187
O O10 0.250000 0.750000 0.775248
O O11 0.266506 0.837083 0.726165
O O12 0.500000 0.444539 0.131771
O O13 0.268332 0.500000 0.147634
O O14 0.302684 0.425099 0.229733
O O15 0.000000 0.130182 0.706420
#
# Coordination Sequence:
#
# PCOD8270948 Si02
#       5
#    16  16  16  16  16
#     4   8  13  22  41  72 104 129 154 184 217 255
#     4   9  19  34  48  64  88 116 146 182 226 275
#     4  10  20  34  51  69  88 112 146 188 232 276
#     4   9  17  28  43  65  92 122 155 187 218 256
#     4   9  16  28  47  69  94 123 153 186 223 263
#
# _framework density 16.888437
#
# number of rings (size 3 to 8) (size 9 to 14) (size 15 to 20)
#    0.000    3.000    0.000    1.800    0.000    4.800 
#    0.000    2.000    0.000    3.000    0.000    1.400 
#    0.000    0.000    0.000    0.000    0.000    0.000 
#
# Total GULP energy -495902.306968 kJ/mol
# GULP energy per Si atom -12397.557674 kJ/mol
# Density = 1.685000 g / cm^3
# Si number density = 16.888437 Si / 1000 Ang^3
#
#
#
# Elastic Constant Matrix: (Units=GPa)
#
#
# Indices 1 2 3 4 5 6 
#
# 1 42.2326 42.4408 30.7459 0.0000 0.0000 0.0000
# 2 42.4408 131.4582 61.7127 0.0000 0.0000 0.0000
# 3 30.7459 61.7127 118.6245 0.0000 0.0000 0.0000
# 4 0.0000 0.0000 0.0000 18.6018 0.0000 0.0000
# 5 0.0000 0.0000 0.0000 0.0000 15.7950 0.0000
# 6 0.0000 0.0000 0.0000 0.0000 0.0000 25.3755
#
#
#
# Elastic Compliance Matrix: (Units=1/GPa)
#
#
# Indices 1 2 3 4 5 6 
#
# 1 0.036732 -0.009777 -0.004434 0.000000 0.000000 0.000000
# 2 -0.009777 0.012668 -0.004056 0.000000 0.000000 0.000000
# 3 -0.004434 -0.004056 0.011689 0.000000 0.000000 0.000000
# 4 0.000000 0.000000 0.000000 0.053758 0.000000 0.000000
# 5 0.000000 0.000000 0.000000 0.000000 0.063311 0.000000
# 6 0.000000 0.000000 0.000000 0.000000 0.000000 0.039408
#
#
# Mechanical properties :
#
#
# Convention : Reuss Voigt Hill
#
# Bulk Modulus (GPa) = 40.72606 62.45713 51.59159
# Shear Modulus (GPa) = 19.06321 22.44885 20.75603
#
# Velocity S-wave (km/s) = 3.36337 3.64984 3.50952
# Velocity P-wave (km/s) = 6.26499 7.40434 6.85836
#
# Compressibility (1/GPa) = 0.02455430
#
# Stress axis : x y z
#
# Youngs Moduli (GPa) = 27.22438 78.94154 85.54861
#
# Poissons Ratio (x) = 0.77183 0.37932
# Poissons Ratio (y) = 0.26618 0.34699
# Poissons Ratio (z) = 0.12071 0.32019
#
# Static dielectric constant tensor:
#      x y z
#    x 2.966600 0.000000 0.000000 
#    y 0.000000 3.143950 0.000000 
#    z 0.000000 0.000000 3.331840 
# 
# 
# High freq. dielectric constant tensor:
#      x y z
#    x 1.628990 0.000000 0.000000 
#    y 0.000000 1.643260 0.000000 
#    z 0.000000 0.000000 1.647350 
# 
# From -- ./inp_files/49857.got.cif
#   From: 2010.03.12/outbox.cif.g09.slc.cpg/sg65_25_cif.got.tgz:49857.got - 2010.04.10 20:52:16.
