data_PCOD8270883
_publ_section_title
;
Structure prediction by ZEFSAII (Michael W. Deem and Ramdas Pophale) SiO2 
 PCOD8270883
Probable space group: C M M M
;
_chemical_formula_sum "Si O2"
_cell_formula_units_Z 104
_cell_length_a 9.447249
_cell_length_b 30.744355
_cell_length_c 18.350481
_cell_angle_alpha 90.000000
_cell_angle_beta 90.000000
_cell_angle_gamma 90.000000
_cell_volume 5329.889445
_symmetry_space_group_name_H-M "C M M M"
_symmetry_group_IT_number 65
_symmetry_cell_setting 'orthorhombic'
loop_
_space_group_symop_operation_xyz
x,y,z
-x,-y,z
x,-y,-z
-x,y,-z
-x,-y,-z
x,y,-z
-x,y,z
x,-y,z
1/2+x,1/2+y,z
1/2-x,1/2-y,z
1/2+x,1/2-y,-z
1/2-x,1/2+y,-z
1/2-x,1/2-y,-z
1/2+x,1/2+y,-z
1/2-x,1/2+y,z
1/2+x,1/2-y,z
loop_
_atom_site_type_symbol
_atom_site_label
_atom_site_fract_x
_atom_site_fract_y
_atom_site_fract_z
Si Si1 0.500000 0.723955 0.084812
Si Si2 0.337126 0.386867 0.413913
Si Si3 0.339614 0.000000 0.085729
Si Si4 0.795125 0.850070 0.914564
Si Si5 0.158301 0.933126 0.830593
Si Si6 0.157854 0.789508 0.586661
Si Si7 0.666376 0.051231 0.313268
Si Si8 0.000000 0.681370 0.914356
O O1 0.361110 0.696590 0.105587
O O2 0.500000 0.771004 0.124378
O O3 0.500000 0.733221 0.000000
O O4 0.325435 0.391812 0.500000
O O5 0.500000 0.395353 0.389135
O O6 0.289955 0.337865 0.389734
O O7 0.229760 0.421968 0.380667
O O8 0.252129 0.958352 0.110605
O O9 0.500000 0.000000 0.118984
O O10 0.350438 0.000000 0.000000
O O11 0.865825 0.885451 0.862950
O O12 0.632339 0.847651 0.891706
O O13 0.820524 0.861195 0.000000
O O14 0.244625 0.933223 0.756064
O O15 0.000000 0.953095 0.819184
O O16 0.159946 0.787066 0.500000
O O17 0.250000 0.750000 0.620331
O O18 0.000000 0.782316 0.616282
O O19 0.500000 0.061812 0.303490
O O20 0.689277 0.000000 0.326738
O O21 0.000000 0.689100 0.000000
#
# Coordination Sequence:
#
# PCOD8270883 Si02
#       8
#     8  16   8  16  16  16  16   8
#     4   9  16  32  52  79 115 147 188 240 289 343
#     4   9  19  37  62  93 125 157 196 241 288 343
#     4  11  25  41  61  87 118 151 188 245 301 351
#     4  10  20  33  54  85 116 148 191 242 290 343
#     4  12  24  40  61  84 113 153 198 242 294 357
#     4   8  14  26  48  82 121 156 189 229 277 331
#     4  11  25  43  62  84 115 153 197 246 300 358
#     4   9  18  30  52  81 113 153 190 232 291 349
#
# _framework density 19.512599999999999
#
# number of rings (size 3 to 8) (size 9 to 14) (size 15 to 20)
#    0.000    2.077    1.538    3.000    2.154    5.231 
#    0.000    3.077    0.000    1.846    0.000    0.000 
#    0.000    0.000    0.000    0.000    0.000    0.000 
#
# Total GULP energy -644465.110033 kJ/mol
# GULP energy per Si atom -12393.559808 kJ/mol
# Density = 1.946819 g / cm^3
# Si number density = 19.512600 Si / 1000 Ang^3
#
#
#
# Elastic Constant Matrix: (Units=GPa)
#
#
# Indices 1 2 3 4 5 6 
#
# 1 150.4282 48.4746 38.2870 0.0000 0.0000 0.0000
# 2 48.4746 109.3071 36.2420 0.0000 0.0000 0.0000
# 3 38.2870 36.2420 48.0897 0.0000 0.0000 0.0000
# 4 0.0000 0.0000 0.0000 -70.1049 0.0000 0.0000
# 5 0.0000 0.0000 0.0000 0.0000 26.0076 0.0000
# 6 0.0000 0.0000 0.0000 0.0000 0.0000 39.9732
#
#
#
# Elastic Compliance Matrix: (Units=1/GPa)
#
#
# Indices 1 2 3 4 5 6 
#
# 1 0.008677 -0.002076 -0.005343 0.000000 0.000000 0.000000
# 2 -0.002076 0.012693 -0.007913 0.000000 0.000000 0.000000
# 3 -0.005343 -0.007913 0.031012 0.000000 0.000000 0.000000
# 4 0.000000 0.000000 0.000000 -0.014264 0.000000 0.000000
# 5 0.000000 0.000000 0.000000 0.000000 0.038450 0.000000
# 6 0.000000 0.000000 0.000000 0.000000 0.000000 0.025017
#
#
# Mechanical properties :
#
#
# Convention : Reuss Voigt Hill
#
# Bulk Modulus (GPa) = 46.04710 61.53691 53.79201
# Shear Modulus (GPa) = 35.84543 11.49660 23.67102
#
# Velocity S-wave (km/s) = 4.29072 2.42995 3.48676
# Velocity P-wave (km/s) = 6.94240 6.28318 6.62100
#
# Compressibility (1/GPa) = 0.02171689
#
# Stress axis : x y z
#
# Youngs Moduli (GPa) = 115.25080 78.78450 32.24566
#
# Poissons Ratio (x) = 0.16358 0.17230
# Poissons Ratio (y) = 0.23929 0.25515
# Poissons Ratio (z) = 0.61582 0.62340
#
# Static dielectric constant tensor:
#      x y z
#    x 1.879260 0.000000 0.000000 
#    y 0.000000 3.565140 0.000000 
#    z 0.000000 0.000000 3.109100 
# 
# 
# High freq. dielectric constant tensor:
#      x y z
#    x 1.776100 0.000000 0.000000 
#    y 0.000000 1.770660 0.000000 
#    z 0.000000 0.000000 1.713340 
# 
# From -- ./inp_files/60957.got.cif
#   From: 2010.03.12/outbox.cif.g09.slc.cpg/sg65_31_cif.got.tgz:60957.got - 2010.04.10 20:52:16.
