data_PCOD8270444
_publ_section_title
;
Structure prediction by ZEFSAII (Michael W. Deem and Ramdas Pophale) SiO2 
 PCOD8270444
Probable space group: C M M M
;
_chemical_formula_sum "Si O2"
_cell_formula_units_Z 120
_cell_length_a 30.565983
_cell_length_b 14.821131
_cell_length_c 13.954228
_cell_angle_alpha 90.000000
_cell_angle_beta 90.000000
_cell_angle_gamma 90.000000
_cell_volume 6321.578392
_symmetry_space_group_name_H-M "C M M M"
_symmetry_group_IT_number 65
_symmetry_cell_setting 'orthorhombic'
loop_
_space_group_symop_operation_xyz
x,y,z
-x,-y,z
x,-y,-z
-x,y,-z
-x,-y,-z
x,y,-z
-x,y,z
x,-y,z
1/2+x,1/2+y,z
1/2-x,1/2-y,z
1/2+x,1/2-y,-z
1/2-x,1/2+y,-z
1/2-x,1/2-y,-z
1/2+x,1/2+y,-z
1/2-x,1/2+y,z
1/2+x,1/2-y,z
loop_
_atom_site_type_symbol
_atom_site_label
_atom_site_fract_x
_atom_site_fract_y
_atom_site_fract_z
Si Si1 0.000000 0.399151 0.886553
Si Si2 0.686240 0.392668 0.612566
Si Si3 0.448835 0.598336 0.394729
Si Si4 0.109761 0.777821 0.291614
Si Si5 0.590889 0.809133 0.891281
Si Si6 0.318529 0.894974 0.895874
Si Si7 0.725014 0.104499 0.294025
Si Si8 0.363739 0.101924 0.389403
O O1 0.955574 0.348297 0.853796
O O2 0.000000 0.500000 0.842150
O O3 0.000000 0.406611 0.000000
O O4 0.686686 0.367898 0.500000
O O5 0.680226 0.500000 0.626162
O O6 0.648619 0.338997 0.667755
O O7 0.730389 0.354665 0.662902
O O8 0.427560 0.613914 0.500000
O O9 0.500000 0.600931 0.404602
O O10 0.433391 0.500000 0.356604
O O11 0.435095 0.676766 0.323813
O O12 0.106837 0.773949 0.176066
O O13 0.109391 0.674779 0.328895
O O14 0.629284 0.883444 0.882995
O O15 0.586333 0.773079 0.000000
O O16 0.291041 0.850444 0.807464
O O17 0.308916 0.000000 0.894651
O O18 0.303878 0.854279 0.000000
O O19 0.687737 0.119229 0.373511
O O20 0.733528 0.000000 0.275631
O O21 0.374806 0.115655 0.500000
O O22 0.376077 0.000000 0.355841
#
# Coordination Sequence:
#
# PCOD8270444 Si02
#       8
#     8  16  16  16  16  16  16  16
#     4   9  18  34  58  84 108 139 184 236 280 315
#     4  10  21  37  58  83 109 139 185 246 294 326
#     4   9  19  37  61  86 109 135 177 234 286 332
#     4  12  22  34  57  81 112 145 187 225 280 337
#     4  10  21  35  52  79 113 146 183 232 282 325
#     4   9  16  30  53  77 105 146 195 236 270 319
#     4   9  17  32  51  75 108 146 184 230 285 330
#     4  10  20  33  49  74 111 152 187 220 266 332
#
# _framework density 18.982602
#
# number of rings (size 3 to 8) (size 9 to 14) (size 15 to 20)
#    0.000    2.200    1.333    2.800    0.933    5.333 
#    0.000    2.000    0.000    4.000    0.000    2.800 
#    0.000    0.000    0.000    0.000    0.000    0.000 
#
# Total GULP energy -743452.757203 kJ/mol
# GULP energy per Si atom -12390.879287 kJ/mol
# Density = 1.893940 g / cm^3
# Si number density = 18.982602 Si / 1000 Ang^3
#
#
#
# Elastic Constant Matrix: (Units=GPa)
#
#
# Indices 1 2 3 4 5 6 
#
# 1 78.9723 31.9200 53.2595 0.0000 0.0000 0.0000
# 2 31.9200 75.6408 47.9278 0.0000 0.0000 0.0000
# 3 53.2595 47.9278 125.1677 0.0000 0.0000 0.0000
# 4 0.0000 0.0000 0.0000 22.6914 0.0000 0.0000
# 5 0.0000 0.0000 0.0000 0.0000 28.6176 0.0000
# 6 0.0000 0.0000 0.0000 0.0000 0.0000 24.4971
#
#
#
# Elastic Compliance Matrix: (Units=1/GPa)
#
#
# Indices 1 2 3 4 5 6 
#
# 1 0.018522 -0.003727 -0.006454 0.000000 0.000000 0.000000
# 2 -0.003727 0.018205 -0.005385 0.000000 0.000000 0.000000
# 3 -0.006454 -0.005385 0.012798 0.000000 0.000000 0.000000
# 4 0.000000 0.000000 0.000000 0.044070 0.000000 0.000000
# 5 0.000000 0.000000 0.000000 0.000000 0.034944 0.000000
# 6 0.000000 0.000000 0.000000 0.000000 0.000000 0.040821
#
#
# Mechanical properties :
#
#
# Convention : Reuss Voigt Hill
#
# Bulk Modulus (GPa) = 54.36977 60.66615 57.51796
# Shear Modulus (GPa) = 24.19886 24.93946 24.56916
#
# Velocity S-wave (km/s) = 3.57430 3.62858 3.60154
# Velocity P-wave (km/s) = 6.76300 7.04157 6.90369
#
# Compressibility (1/GPa) = 0.01839257
#
# Stress axis : x y z
#
# Youngs Moduli (GPa) = 53.99096 54.92943 78.13952
#
# Poissons Ratio (x) = 0.20470 0.50432
# Poissons Ratio (y) = 0.20120 0.42080
# Poissons Ratio (z) = 0.34846 0.29581
#
# Static dielectric constant tensor:
#      x y z
#    x 3.485100 0.000000 0.000000 
#    y 0.000000 3.412840 0.000000 
#    z 0.000000 0.000000 3.841180 
# 
# 
# High freq. dielectric constant tensor:
#      x y z
#    x 1.731670 0.000000 0.000000 
#    y 0.000000 1.714530 0.000000 
#    z 0.000000 0.000000 1.737450 
# 
# From -- ./inp_files/48057.got.cif
#   From: 2010.03.12/outbox.cif.g09.slc.cpg/sg65_25_cif.got.tgz:48057.got - 2010.04.10 20:52:16.
