data_PCOD8270874
_publ_section_title
;
Structure prediction by ZEFSAII (Michael W. Deem and Ramdas Pophale) SiO2 
 PCOD8270874
Probable space group: C M M M
;
_chemical_formula_sum "Si O2"
_cell_formula_units_Z 88
_cell_length_a 19.660939
_cell_length_b 18.269672
_cell_length_c 11.459980
_cell_angle_alpha 90.000000
_cell_angle_beta 90.000000
_cell_angle_gamma 90.000000
_cell_volume 4116.412287
_symmetry_space_group_name_H-M "C M M M"
_symmetry_group_IT_number 65
_symmetry_cell_setting 'orthorhombic'
loop_
_space_group_symop_operation_xyz
x,y,z
-x,-y,z
x,-y,-z
-x,y,-z
-x,-y,-z
x,y,-z
-x,y,z
x,-y,z
1/2+x,1/2+y,z
1/2-x,1/2-y,z
1/2+x,1/2-y,-z
1/2-x,1/2+y,-z
1/2-x,1/2-y,-z
1/2+x,1/2+y,-z
1/2-x,1/2+y,z
1/2+x,1/2-y,z
loop_
_atom_site_type_symbol
_atom_site_label
_atom_site_fract_x
_atom_site_fract_y
_atom_site_fract_z
Si Si1 0.401602 0.199545 0.748977
Si Si2 0.760817 0.358914 0.254018
Si Si3 0.000000 0.413768 0.861458
Si Si4 0.574281 0.850169 0.500000
Si Si5 0.780615 0.584970 0.500000
Si Si6 0.729964 0.000000 0.128224
Si Si7 0.117888 0.843138 0.140087
Si Si8 0.108115 0.000000 0.127588
O O1 0.319584 0.201517 0.758392
O O2 0.434074 0.128338 0.810783
O O3 0.422291 0.201582 0.613553
O O4 0.426322 0.275361 0.810298
O O5 0.745761 0.375641 0.389709
O O6 0.795759 0.430222 0.198019
O O7 0.694556 0.334168 0.185493
O O8 0.000000 0.500000 0.823357
O O9 0.000000 0.407537 0.000000
O O10 0.500000 0.890505 0.500000
O O11 0.636859 0.907271 0.500000
O O12 0.761562 0.500000 0.500000
O O13 0.810947 0.000000 0.119103
O O14 0.696394 0.000000 0.000000
O O15 0.087073 0.921953 0.186606
O O16 0.118432 0.842063 0.000000
O O17 0.074841 0.000000 0.000000
#
# Coordination Sequence:
#
# PCOD8270874 Si02
#       8
#    16  16   8   8   8   8  16   8
#     4  11  23  39  61  84 114 162 209 253 311 362
#     4  10  20  33  53  84 118 157 202 248 299 363
#     4  11  26  43  59  88 126 160 206 263 312 360
#     4  10  22  42  59  80 110 161 220 272 301 345
#     4  10  20  34  55  85 121 163 211 259 303 353
#     4   9  16  27  47  74 113 155 188 231 287 349
#     4  10  20  36  60  90 125 159 195 242 308 384
#     4   7  14  30  51  80 113 148 185 225 277 354
#
# _framework density 21.377839000000002
#
# number of rings (size 3 to 8) (size 9 to 14) (size 15 to 20)
#    0.000    2.091    1.818    2.727    1.273    5.273 
#    0.000    2.727    0.000    0.545    0.000    3.182 
#    0.000    0.000    0.000    0.000    0.000    0.000 
#
# Total GULP energy -545075.991178 kJ/mol
# GULP energy per Si atom -12388.090709 kJ/mol
# Density = 2.132918 g / cm^3
# Si number density = 21.377839 Si / 1000 Ang^3
#
#
#
# Elastic Constant Matrix: (Units=GPa)
#
#
# Indices 1 2 3 4 5 6 
#
# 1 43.6125 5.8966 6.7082 0.0000 0.0000 0.0000
# 2 5.8966 175.1746 56.4079 0.0000 0.0000 0.0000
# 3 6.7082 56.4079 141.9829 0.0000 0.0000 0.0000
# 4 0.0000 0.0000 0.0000 26.6389 0.0000 0.0000
# 5 0.0000 0.0000 0.0000 0.0000 13.2715 0.0000
# 6 0.0000 0.0000 0.0000 0.0000 0.0000 15.5456
#
#
#
# Elastic Compliance Matrix: (Units=1/GPa)
#
#
# Indices 1 2 3 4 5 6 
#
# 1 0.023134 -0.000489 -0.000899 0.000000 0.000000 0.000000
# 2 -0.000489 0.006556 -0.002582 0.000000 0.000000 0.000000
# 3 -0.000899 -0.002582 0.008111 0.000000 0.000000 0.000000
# 4 0.000000 0.000000 0.000000 0.037539 0.000000 0.000000
# 5 0.000000 0.000000 0.000000 0.000000 0.075349 0.000000
# 6 0.000000 0.000000 0.000000 0.000000 0.000000 0.064327
#
#
# Mechanical properties :
#
#
# Convention : Reuss Voigt Hill
#
# Bulk Modulus (GPa) = 33.48730 55.42170 44.45450
# Shear Modulus (GPa) = 21.46757 30.54170 26.00464
#
# Velocity S-wave (km/s) = 3.17234 3.78386 3.49152
# Velocity P-wave (km/s) = 5.39600 6.71352 6.09049
#
# Compressibility (1/GPa) = 0.02986206
#
# Stress axis : x y z
#
# Youngs Moduli (GPa) = 43.22718 152.52330 123.28621
#
# Poissons Ratio (x) = 0.07464 0.11078
# Poissons Ratio (y) = 0.02115 0.31828
# Poissons Ratio (z) = 0.03884 0.39376
#
# Static dielectric constant tensor:
#      x y z
#    x 3.516110 0.000000 0.000000 
#    y 0.000000 4.306570 0.000000 
#    z 0.000000 0.000000 3.934420 
# 
# 
# High freq. dielectric constant tensor:
#      x y z
#    x 1.814230 0.000000 0.000000 
#    y 0.000000 1.848210 0.000000 
#    z 0.000000 0.000000 1.833320 
# 
# From -- ./inp_files/28817.got.cif
#   From: 2010.03.12/outbox.cif.g09.slc.cpg/sg65_15_cif.got.tgz:28817.got - 2010.04.10 20:52:16.
