data_PCOD8270368
_publ_section_title
;
Structure prediction by ZEFSAII (Michael W. Deem and Ramdas Pophale) SiO2 
 PCOD8270368
Probable space group: C M M M
;
_chemical_formula_sum "Si O2"
_cell_formula_units_Z 96
_cell_length_a 26.951844
_cell_length_b 8.993367
_cell_length_c 24.193137
_cell_angle_alpha 90.000000
_cell_angle_beta 90.000000
_cell_angle_gamma 90.000000
_cell_volume 5864.121843
_symmetry_space_group_name_H-M "C M M M"
_symmetry_group_IT_number 65
_symmetry_cell_setting 'orthorhombic'
loop_
_space_group_symop_operation_xyz
x,y,z
-x,-y,z
x,-y,-z
-x,y,-z
-x,-y,-z
x,y,-z
-x,y,z
x,-y,z
1/2+x,1/2+y,z
1/2-x,1/2-y,z
1/2+x,1/2-y,-z
1/2-x,1/2+y,-z
1/2-x,1/2-y,-z
1/2+x,1/2+y,-z
1/2-x,1/2+y,z
1/2+x,1/2-y,z
loop_
_atom_site_type_symbol
_atom_site_label
_atom_site_fract_x
_atom_site_fract_y
_atom_site_fract_z
Si Si1 0.942864 0.323722 0.000000
Si Si2 0.555131 0.169961 0.792409
Si Si3 0.697046 0.174690 0.381298
Si Si4 0.099674 0.173435 0.893134
Si Si5 0.151530 0.326827 0.730961
Si Si6 0.699943 0.325922 0.832454
Si Si7 0.197756 0.673242 0.500000
O O1 0.913620 0.264169 0.947320
O O2 0.940789 0.500000 0.000000
O O3 0.000000 0.268016 0.000000
O O4 0.500000 0.196502 0.768621
O O5 0.563076 0.277078 0.844333
O O6 0.593905 0.207667 0.743806
O O7 0.562055 0.000000 0.812731
O O8 0.750000 0.250000 0.373858
O O9 0.661045 0.227166 0.331825
O O10 0.671570 0.216841 0.441298
O O11 0.706069 0.000000 0.377469
O O12 0.156264 0.210023 0.875940
O O13 0.091869 0.000000 0.904545
O O14 0.163900 0.500000 0.738801
O O15 0.186973 0.237240 0.772125
O O16 0.708730 0.500000 0.826446
O O17 0.750000 0.250000 0.855058
O O18 0.208045 0.500000 0.500000
O O19 0.250000 0.750000 0.500000
#
# Coordination Sequence:
#
# PCOD8270368 Si02
#       7
#     8  16  16  16  16  16   8
#     4  11  23  37  54  75  96 119 148 181 218 261
#     4   9  17  30  47  66  89 116 145 179 220 265
#     4   9  16  25  38  57  82 112 144 178 216 258
#     4  10  21  35  51  72  95 118 147 181 217 259
#     4   9  17  28  43  64  88 115 148 183 220 262
#     4  10  20  33  49  69  93 121 150 180 216 258
#     4   8  14  24  36  52  77 109 143 177 214 256
#
# _framework density 16.370737999999999
#
# number of rings (size 3 to 8) (size 9 to 14) (size 15 to 20)
#    0.000    2.583    0.000    2.250    0.000    7.000 
#    0.000    0.417    0.000    0.000    0.000    0.583 
#    0.000    4.667    0.000    0.000    0.000   45.083 
#
# Total GULP energy -594912.766337 kJ/mol
# GULP energy per Si atom -12394.015965 kJ/mol
# Density = 1.633348 g / cm^3
# Si number density = 16.370738 Si / 1000 Ang^3
#
#
#
# Elastic Constant Matrix: (Units=GPa)
#
#
# Indices 1 2 3 4 5 6 
#
# 1 103.3684 35.9135 61.3969 0.0000 0.0000 0.0000
# 2 35.9135 51.6536 41.2977 0.0000 0.0000 0.0000
# 3 61.3969 41.2977 149.0552 0.0000 0.0000 0.0000
# 4 0.0000 0.0000 0.0000 17.6386 0.0000 0.0000
# 5 0.0000 0.0000 0.0000 0.0000 15.3236 0.0000
# 6 0.0000 0.0000 0.0000 0.0000 0.0000 22.0693
#
#
#
# Elastic Compliance Matrix: (Units=1/GPa)
#
#
# Indices 1 2 3 4 5 6 
#
# 1 0.014452 -0.006794 -0.004071 0.000000 0.000000 0.000000
# 2 -0.006794 0.028062 -0.004977 0.000000 0.000000 0.000000
# 3 -0.004071 -0.004977 0.009765 0.000000 0.000000 0.000000
# 4 0.000000 0.000000 0.000000 0.056694 0.000000 0.000000
# 5 0.000000 0.000000 0.000000 0.000000 0.065259 0.000000
# 6 0.000000 0.000000 0.000000 0.000000 0.000000 0.045312
#
#
# Mechanical properties :
#
#
# Convention : Reuss Voigt Hill
#
# Bulk Modulus (GPa) = 48.55116 64.58817 56.56967
# Shear Modulus (GPa) = 19.37298 22.03756 20.70527
#
# Velocity S-wave (km/s) = 3.44378 3.67298 3.56022
# Velocity P-wave (km/s) = 6.74792 7.58464 7.17848
#
# Compressibility (1/GPa) = 0.02059683
#
# Stress axis : x y z
#
# Youngs Moduli (GPa) = 69.19280 35.63519 102.41163
#
# Poissons Ratio (x) = 0.24210 0.41689
# Poissons Ratio (y) = 0.47008 0.50966
# Poissons Ratio (z) = 0.28166 0.17734
#
# Static dielectric constant tensor:
#      x y z
#    x 3.059310 0.000000 0.000000 
#    y 0.000000 3.218460 0.000000 
#    z 0.000000 0.000000 3.451840 
# 
# 
# High freq. dielectric constant tensor:
#      x y z
#    x 1.610840 0.000000 0.000000 
#    y 0.000000 1.635790 0.000000 
#    z 0.000000 0.000000 1.627640 
# 
# From -- ./inp_files/71755.got.cif
#   From: 2010.03.12/outbox.cif.g09.slc.cpg/sg65_36_cif.got.tgz:71755.got - 2010.04.10 20:52:16.
