data_PCOD8270956
_publ_section_title
;
Structure prediction by ZEFSAII (Michael W. Deem and Ramdas Pophale) SiO2 
 PCOD8270956
Probable space group: C M M M
;
_chemical_formula_sum "Si O2"
_cell_formula_units_Z 88
_cell_length_a 17.545681
_cell_length_b 16.258158
_cell_length_c 17.447859
_cell_angle_alpha 90.000000
_cell_angle_beta 90.000000
_cell_angle_gamma 90.000000
_cell_volume 4977.184178
_symmetry_space_group_name_H-M "C M M M"
_symmetry_group_IT_number 65
_symmetry_cell_setting 'orthorhombic'
loop_
_space_group_symop_operation_xyz
x,y,z
-x,-y,z
x,-y,-z
-x,y,-z
-x,-y,-z
x,y,-z
-x,y,z
x,-y,z
1/2+x,1/2+y,z
1/2-x,1/2-y,z
1/2+x,1/2-y,-z
1/2-x,1/2+y,-z
1/2-x,1/2-y,-z
1/2+x,1/2+y,-z
1/2-x,1/2+y,z
1/2+x,1/2-y,z
loop_
_atom_site_type_symbol
_atom_site_label
_atom_site_fract_x
_atom_site_fract_y
_atom_site_fract_z
Si Si1 0.410241 0.407971 0.912461
Si Si2 0.000000 0.402865 0.589149
Si Si3 0.634210 0.196638 0.347595
Si Si4 0.085421 0.860342 0.586908
Si Si5 0.322379 0.702688 0.200868
Si Si6 0.273861 0.409748 0.673138
O O1 0.500000 0.401313 0.904311
O O2 0.384403 0.500000 0.884932
O O3 0.376651 0.331241 0.865164
O O4 0.384485 0.395709 0.000000
O O5 0.071871 0.373484 0.639283
O O6 0.000000 0.500000 0.588282
O O7 0.000000 0.370788 0.500000
O O8 0.615595 0.267056 0.408752
O O9 0.633734 0.237762 0.262146
O O10 0.716311 0.155696 0.365958
O O11 0.081740 0.889117 0.500000
O O12 0.145734 0.918000 0.629326
O O13 0.000000 0.867955 0.623220
O O14 0.250000 0.750000 0.164239
O O15 0.290556 0.621151 0.241793
O O16 0.236145 0.500000 0.676019
#
# Coordination Sequence:
#
# PCOD8270956 Si02
#       6
#    16   8  16  16  16  16
#     4   9  18  32  52  81 114 141 166 204 252 300
#     4  11  22  34  52  76 100 131 172 220 270 315
#     4  10  20  35  52  72  98 130 172 216 258 306
#     4  10  20  34  51  69  93 127 166 210 259 313
#     4   9  19  33  52  76 101 137 174 209 248 302
#     4  10  21  35  50  71 100 131 166 212 261 307
#
# _framework density 17.680681
#
# number of rings (size 3 to 8) (size 9 to 14) (size 15 to 20)
#    0.000    2.273    0.909    3.818    1.273    4.000 
#    0.000    0.909    0.000    0.000    0.000    0.000 
#    0.000    0.727    0.000    0.000    0.000    0.000 
#
# Total GULP energy -545164.698050 kJ/mol
# GULP energy per Si atom -12390.106774 kJ/mol
# Density = 1.764044 g / cm^3
# Si number density = 17.680681 Si / 1000 Ang^3
#
#
#
# Elastic Constant Matrix: (Units=GPa)
#
#
# Indices 1 2 3 4 5 6 
#
# 1 95.1547 37.0408 39.4975 0.0000 0.0000 0.0000
# 2 37.0408 100.0534 40.3872 0.0000 0.0000 0.0000
# 3 39.4975 40.3872 68.1944 0.0000 0.0000 0.0000
# 4 0.0000 0.0000 0.0000 13.1573 0.0000 0.0000
# 5 0.0000 0.0000 0.0000 0.0000 26.1413 0.0000
# 6 0.0000 0.0000 0.0000 0.0000 0.0000 24.3651
#
#
#
# Elastic Compliance Matrix: (Units=1/GPa)
#
#
# Indices 1 2 3 4 5 6 
#
# 1 0.014320 -0.002567 -0.006774 0.000000 0.000000 0.000000
# 2 -0.002567 0.013595 -0.006564 0.000000 0.000000 0.000000
# 3 -0.006774 -0.006564 0.022475 0.000000 0.000000 0.000000
# 4 0.000000 0.000000 0.000000 0.076004 0.000000 0.000000
# 5 0.000000 0.000000 0.000000 0.000000 0.038254 0.000000
# 6 0.000000 0.000000 0.000000 0.000000 0.000000 0.041042
#
#
# Mechanical properties :
#
#
# Convention : Reuss Voigt Hill
#
# Bulk Modulus (GPa) = 53.82359 55.25037 54.53698
# Shear Modulus (GPa) = 20.51757 22.49786 21.50772
#
# Velocity S-wave (km/s) = 3.41024 3.57102 3.49155
# Velocity P-wave (km/s) = 6.78339 6.95124 6.86783
#
# Compressibility (1/GPa) = 0.01857921
#
# Stress axis : x y z
#
# Youngs Moduli (GPa) = 69.83124 73.55716 44.49395
#
# Poissons Ratio (x) = 0.18884 0.30139
# Poissons Ratio (y) = 0.17927 0.29208
# Poissons Ratio (z) = 0.47302 0.48286
#
# Static dielectric constant tensor:
#      x y z
#    x 3.469140 0.000000 0.000000 
#    y 0.000000 3.320150 0.000000 
#    z 0.000000 0.000000 3.038690 
# 
# 
# High freq. dielectric constant tensor:
#      x y z
#    x 1.687150 0.000000 0.000000 
#    y 0.000000 1.691250 0.000000 
#    z 0.000000 0.000000 1.651750 
# 
# From -- ./inp_files/54300.got.cif
#   From: 2010.03.12/outbox.cif.g09.slc.cpg/sg65_28_cif.got.tgz:54300.got - 2010.04.10 20:52:16.
