data_PCOD8270170
_publ_section_title
;
Structure prediction by ZEFSAII (Michael W. Deem and Ramdas Pophale) SiO2 
 PCOD8270170
Probable space group: C M M M
;
_chemical_formula_sum "Si O2"
_cell_formula_units_Z 72
_cell_length_a 27.375234
_cell_length_b 8.784156
_cell_length_c 16.301226
_cell_angle_alpha 90.000000
_cell_angle_beta 90.000000
_cell_angle_gamma 90.000000
_cell_volume 3919.928528
_symmetry_space_group_name_H-M "C M M M"
_symmetry_group_IT_number 65
_symmetry_cell_setting 'orthorhombic'
loop_
_space_group_symop_operation_xyz
x,y,z
-x,-y,z
x,-y,-z
-x,y,-z
-x,-y,-z
x,y,-z
-x,y,z
x,-y,z
1/2+x,1/2+y,z
1/2-x,1/2-y,z
1/2+x,1/2-y,-z
1/2-x,1/2+y,-z
1/2-x,1/2-y,-z
1/2+x,1/2+y,-z
1/2-x,1/2+y,z
1/2+x,1/2-y,z
loop_
_atom_site_type_symbol
_atom_site_label
_atom_site_fract_x
_atom_site_fract_y
_atom_site_fract_z
Si Si1 0.611190 0.676588 0.407806
Si Si2 0.303359 0.679608 0.000000
Si Si3 0.946670 0.820703 0.748531
Si Si4 0.199384 0.320642 0.676844
Si Si5 0.150380 0.180661 0.830846
O O1 0.592629 0.709101 0.500000
O O2 0.625084 0.500000 0.395161
O O3 0.568670 0.723919 0.344318
O O4 0.659090 0.775304 0.390095
O O5 0.250000 0.750000 0.000000
O O6 0.334084 0.734644 0.078813
O O7 0.296967 0.500000 0.000000
O O8 0.905284 0.763257 0.812537
O O9 0.000000 0.746646 0.767525
O O10 0.951406 0.000000 0.756506
O O11 0.204049 0.500000 0.682427
O O12 0.250000 0.250000 0.646444
O O13 0.186924 0.256324 0.766615
O O14 0.154327 0.000000 0.820233
#
# Coordination Sequence:
#
# PCOD8270170 Si02
#       5
#    16   8  16  16  16
#     4   9  18  32  49  71  99 128 161 202 243 286
#     4  10  20  32  49  73 101 131 162 200 243 286
#     4   8  14  27  49  74  99 128 160 196 240 288
#     4  11  21  33  50  70  95 129 165 201 244 293
#     4   9  18  33  50  72 101 129 162 202 241 286
#
# _framework density 18.367681999999999
#
# number of rings (size 3 to 8) (size 9 to 14) (size 15 to 20)
#    0.000    2.667    0.000    4.000    0.000    4.000 
#    0.000    2.778    0.000   14.000    0.000    6.222 
#    0.000    8.000    0.000    0.000    0.000    0.000 
#
# Total GULP energy -446273.379754 kJ/mol
# GULP energy per Si atom -12396.482771 kJ/mol
# Density = 1.832588 g / cm^3
# Si number density = 18.367682 Si / 1000 Ang^3
#
#
#
# Elastic Constant Matrix: (Units=GPa)
#
#
# Indices 1 2 3 4 5 6 
#
# 1 142.7814 21.1837 53.0361 0.0000 0.0000 0.0000
# 2 21.1837 46.8378 14.8831 0.0000 0.0000 0.0000
# 3 53.0361 14.8831 125.4260 0.0000 0.0000 0.0000
# 4 0.0000 0.0000 0.0000 19.4500 0.0000 0.0000
# 5 0.0000 0.0000 0.0000 0.0000 12.5022 0.0000
# 6 0.0000 0.0000 0.0000 0.0000 0.0000 18.7412
#
#
#
# Elastic Compliance Matrix: (Units=1/GPa)
#
#
# Indices 1 2 3 4 5 6 
#
# 1 0.008663 -0.002862 -0.003323 0.000000 0.000000 0.000000
# 2 -0.002862 0.023132 -0.001535 0.000000 0.000000 0.000000
# 3 -0.003323 -0.001535 0.009560 0.000000 0.000000 0.000000
# 4 0.000000 0.000000 0.000000 0.051414 0.000000 0.000000
# 5 0.000000 0.000000 0.000000 0.000000 0.079986 0.000000
# 6 0.000000 0.000000 0.000000 0.000000 0.000000 0.053358
#
#
# Mechanical properties :
#
#
# Convention : Reuss Voigt Hill
#
# Bulk Modulus (GPa) = 38.58742 54.80566 46.69654
# Shear Modulus (GPa) = 19.98462 25.20149 22.59306
#
# Velocity S-wave (km/s) = 3.30211 3.70815 3.51100
# Velocity P-wave (km/s) = 5.96595 6.94526 6.47415
#
# Compressibility (1/GPa) = 0.02591518
#
# Stress axis : x y z
#
# Youngs Moduli (GPa) = 115.43582 43.22947 104.59967
#
# Poissons Ratio (x) = 0.12372 0.34763
# Poissons Ratio (y) = 0.33037 0.16053
# Poissons Ratio (z) = 0.38365 0.06635
#
# Static dielectric constant tensor:
#      x y z
#    x 4.023010 0.000000 0.000000 
#    y 0.000000 3.097210 0.000000 
#    z 0.000000 0.000000 3.477020 
# 
# 
# High freq. dielectric constant tensor:
#      x y z
#    x 1.715530 0.000000 0.000000 
#    y 0.000000 1.681660 0.000000 
#    z 0.000000 0.000000 1.707440 
# 
# From -- ./inp_files/47479.got.cif
#   From: 2010.03.12/outbox.cif.g09.slc.cpg/sg65_24_cif.got.tgz:47479.got - 2010.04.10 20:52:16.
