data_PCOD8270421
_publ_section_title
;
Structure prediction by ZEFSAII (Michael W. Deem and Ramdas Pophale) SiO2 
 PCOD8270421
Probable space group: C M M M
;
_chemical_formula_sum "Si O2"
_cell_formula_units_Z 96
_cell_length_a 19.979682
_cell_length_b 8.932273
_cell_length_c 30.672315
_cell_angle_alpha 90.000000
_cell_angle_beta 90.000000
_cell_angle_gamma 90.000000
_cell_volume 5473.903229
_symmetry_space_group_name_H-M "C M M M"
_symmetry_group_IT_number 65
_symmetry_cell_setting 'orthorhombic'
loop_
_space_group_symop_operation_xyz
x,y,z
-x,-y,z
x,-y,-z
-x,y,-z
-x,-y,-z
x,y,-z
-x,y,z
x,-y,z
1/2+x,1/2+y,z
1/2-x,1/2-y,z
1/2+x,1/2-y,-z
1/2-x,1/2+y,-z
1/2-x,1/2-y,-z
1/2+x,1/2+y,-z
1/2-x,1/2+y,z
1/2+x,1/2-y,z
loop_
_atom_site_type_symbol
_atom_site_label
_atom_site_fract_x
_atom_site_fract_y
_atom_site_fract_z
Si Si1 0.421787 0.824810 0.674262
Si Si2 0.318055 0.324166 0.161884
Si Si3 0.574771 0.679406 0.906459
Si Si4 0.079392 0.836409 0.000000
Si Si5 0.420505 0.668417 0.413967
Si Si6 0.079908 0.669150 0.500000
Si Si7 0.819417 0.823397 0.261845
O O1 0.500000 0.790452 0.681560
O O2 0.396765 0.761903 0.627891
O O3 0.381643 0.741937 0.711955
O O4 0.406556 0.000000 0.675571
O O5 0.310406 0.500000 0.156473
O O6 0.250000 0.250000 0.145493
O O7 0.377260 0.260071 0.131587
O O8 0.333429 0.280553 0.211700
O O9 0.500000 0.736746 0.895637
O O10 0.575262 0.500000 0.908627
O O11 0.599224 0.744040 0.954085
O O12 0.000000 0.855006 0.000000
O O13 0.113430 0.000000 0.000000
O O14 0.500000 0.665530 0.416355
O O15 0.391901 0.500000 0.410952
O O16 0.391794 0.747084 0.457313
O O17 0.107094 0.500000 0.500000
O O18 0.000000 0.670094 0.500000
O O19 0.750000 0.750000 0.277888
O O20 0.814679 0.000000 0.269198
#
# Coordination Sequence:
#
# PCOD8270421 Si02
#       7
#    16  16  16   8  16   8  16
#     4  10  20  33  49  71  99 127 156 196 244 289
#     4   9  18  31  47  66  90 119 149 187 232 278
#     4   8  13  23  41  65  90 117 152 191 228 267
#     4   7  10  18  35  60  89 117 146 185 228 266
#     4   9  16  26  41  63  92 125 160 197 237 282
#     4   9  15  23  37  59  90 127 162 195 236 285
#     4  10  20  34  51  69  91 123 161 198 239 289
#
# _framework density 17.537759999999999
#
# number of rings (size 3 to 8) (size 9 to 14) (size 15 to 20)
#    0.000    3.000    0.000    2.750    0.000    5.333 
#    0.000    2.083    0.000    0.500    0.000    0.583 
#    0.000    2.000    0.000    0.000    0.000    0.000 
#
# Total GULP energy -594937.350280 kJ/mol
# GULP energy per Si atom -12394.528131 kJ/mol
# Density = 1.749784 g / cm^3
# Si number density = 17.537760 Si / 1000 Ang^3
#
#
#
# Elastic Constant Matrix: (Units=GPa)
#
#
# Indices 1 2 3 4 5 6 
#
# 1 74.3565 33.6651 68.7562 0.0000 0.0000 0.0000
# 2 33.6651 75.0817 45.9430 0.0000 0.0000 0.0000
# 3 68.7562 45.9430 136.7556 0.0000 0.0000 0.0000
# 4 0.0000 0.0000 0.0000 14.4119 0.0000 0.0000
# 5 0.0000 0.0000 0.0000 0.0000 5.1481 0.0000
# 6 0.0000 0.0000 0.0000 0.0000 0.0000 21.4180
#
#
#
# Elastic Compliance Matrix: (Units=1/GPa)
#
#
# Indices 1 2 3 4 5 6 
#
# 1 0.026374 -0.004672 -0.011690 0.000000 0.000000 0.000000
# 2 -0.004672 0.017593 -0.003561 0.000000 0.000000 0.000000
# 3 -0.011690 -0.003561 0.014386 0.000000 0.000000 0.000000
# 4 0.000000 0.000000 0.000000 0.069387 0.000000 0.000000
# 5 0.000000 0.000000 0.000000 0.000000 0.194245 0.000000
# 6 0.000000 0.000000 0.000000 0.000000 0.000000 0.046690
#
#
# Mechanical properties :
#
#
# Convention : Reuss Voigt Hill
#
# Bulk Modulus (GPa) = 54.03803 64.76916 59.40359
# Shear Modulus (GPa) = 12.05717 17.38424 14.72071
#
# Velocity S-wave (km/s) = 2.62486 3.15182 2.90034
# Velocity P-wave (km/s) = 6.32976 7.08920 6.72021
#
# Compressibility (1/GPa) = 0.01850549
#
# Stress axis : x y z
#
# Youngs Moduli (GPa) = 37.91634 56.84107 69.51081
#
# Poissons Ratio (x) = 0.26557 0.81260
# Poissons Ratio (y) = 0.17715 0.24755
# Poissons Ratio (z) = 0.44325 0.20243
#
# Static dielectric constant tensor:
#      x y z
#    x 2.979100 0.000000 0.000000 
#    y 0.000000 3.121650 0.000000 
#    z 0.000000 0.000000 3.595910 
# 
# 
# High freq. dielectric constant tensor:
#      x y z
#    x 1.635590 0.000000 0.000000 
#    y 0.000000 1.661620 0.000000 
#    z 0.000000 0.000000 1.693860 
# 
# From -- ./inp_files/75742.got.cif
#   From: 2010.03.12/outbox.cif.g09.slc.cpg/sg65_38_cif.got.tgz:75742.got - 2010.04.10 20:52:16.
