data_PCOD8270663
_publ_section_title
;
Structure prediction by ZEFSAII (Michael W. Deem and Ramdas Pophale) SiO2 
 PCOD8270663
Probable space group: C M M M
;
_chemical_formula_sum "Si O2"
_cell_formula_units_Z 80
_cell_length_a 18.364132
_cell_length_b 8.805599
_cell_length_c 26.028821
_cell_angle_alpha 90.000000
_cell_angle_beta 90.000000
_cell_angle_gamma 90.000000
_cell_volume 4209.047304
_symmetry_space_group_name_H-M "C M M M"
_symmetry_group_IT_number 65
_symmetry_cell_setting 'orthorhombic'
loop_
_space_group_symop_operation_xyz
x,y,z
-x,-y,z
x,-y,-z
-x,y,-z
-x,-y,-z
x,y,-z
-x,y,z
x,-y,z
1/2+x,1/2+y,z
1/2-x,1/2-y,z
1/2+x,1/2-y,-z
1/2-x,1/2+y,-z
1/2-x,1/2-y,-z
1/2+x,1/2+y,-z
1/2-x,1/2+y,z
1/2+x,1/2-y,z
loop_
_atom_site_type_symbol
_atom_site_label
_atom_site_fract_x
_atom_site_fract_y
_atom_site_fract_z
Si Si1 0.672211 0.678459 0.848220
Si Si2 0.581580 0.680485 0.056936
Si Si3 0.829069 0.177892 0.555642
Si Si4 0.670417 0.821337 0.656680
Si Si5 0.085024 0.175278 0.252835
O O1 0.682324 0.500000 0.853195
O O2 0.750000 0.750000 0.838284
O O3 0.636348 0.746780 0.900251
O O4 0.620152 0.721568 0.801184
O O5 0.500000 0.742975 0.066946
O O6 0.579567 0.500000 0.061001
O O7 0.608228 0.730796 0.000000
O O8 0.868419 0.206193 0.500000
O O9 0.750000 0.250000 0.552608
O O10 0.868150 0.257664 0.604238
O O11 0.822665 0.000000 0.566841
O O12 0.750000 0.750000 0.665298
O O13 0.618391 0.780596 0.703449
O O14 0.679120 0.000000 0.652566
O O15 0.000000 0.208509 0.248647
O O16 0.101038 0.000000 0.266217
#
# Coordination Sequence:
#
# PCOD8270663 Si02
#       5
#    16  16  16  16  16
#     4  10  20  33  51  76 103 132 167 208 256 306
#     4   8  14  27  49  75 101 131 170 212 249 292
#     4   9  16  27  46  73 104 136 170 208 251 299
#     4  11  21  33  52  77 106 137 171 212 256 304
#     4  10  21  37  55  73  97 131 171 215 262 313
#
# _framework density 19.006675000000001
#
# number of rings (size 3 to 8) (size 9 to 14) (size 15 to 20)
#    0.000    2.400    0.000    5.400    0.000    6.800 
#    0.000    0.000    0.000    2.400    0.000    5.600 
#    0.000    0.000    0.000    0.000    0.000    0.000 
#
# Total GULP energy -495784.931555 kJ/mol
# GULP energy per Si atom -12394.623289 kJ/mol
# Density = 1.896342 g / cm^3
# Si number density = 19.006675 Si / 1000 Ang^3
#
#
#
# Elastic Constant Matrix: (Units=GPa)
#
#
# Indices 1 2 3 4 5 6 
#
# 1 91.3762 37.7325 64.4182 0.0000 0.0000 0.0000
# 2 37.7325 85.2831 62.5751 0.0000 0.0000 0.0000
# 3 64.4182 62.5751 171.4386 0.0000 0.0000 0.0000
# 4 0.0000 0.0000 0.0000 -18.7460 0.0000 0.0000
# 5 0.0000 0.0000 0.0000 0.0000 107.3417 0.0000
# 6 0.0000 0.0000 0.0000 0.0000 0.0000 20.3234
#
#
#
# Elastic Compliance Matrix: (Units=1/GPa)
#
#
# Indices 1 2 3 4 5 6 
#
# 1 0.015641 -0.003562 -0.004577 0.000000 0.000000 0.000000
# 2 -0.003562 0.016826 -0.004803 0.000000 0.000000 0.000000
# 3 -0.004577 -0.004803 0.009306 0.000000 0.000000 0.000000
# 4 0.000000 0.000000 0.000000 -0.053345 0.000000 0.000000
# 5 0.000000 0.000000 0.000000 0.000000 0.009316 0.000000
# 6 0.000000 0.000000 0.000000 0.000000 0.000000 0.049204
#
#
# Mechanical properties :
#
#
# Convention : Reuss Voigt Hill
#
# Bulk Modulus (GPa) = 62.93701 75.28329 69.11015
# Shear Modulus (GPa) = 63.99642 34.00862 49.00252
#
# Velocity S-wave (km/s) = 5.80892 4.23460 5.08308
# Velocity P-wave (km/s) = 8.84174 7.97521 8.41963
#
# Compressibility (1/GPa) = 0.01588890
#
# Stress axis : x y z
#
# Youngs Moduli (GPa) = 63.93272 59.43290 107.45803
#
# Poissons Ratio (x) = 0.21170 0.49185
# Poissons Ratio (y) = 0.22772 0.51612
# Poissons Ratio (z) = 0.29263 0.28545
#
# Static dielectric constant tensor:
#      x y z
#    x 3.237260 0.000000 0.000000 
#    y 0.000000 3.278370 0.000000 
#    z 0.000000 0.000000 4.260900 
# 
# 
# High freq. dielectric constant tensor:
#      x y z
#    x 1.706320 0.000000 0.000000 
#    y 0.000000 1.717390 0.000000 
#    z 0.000000 0.000000 1.766990 
# 
# From -- ./inp_files/72853.got.cif
#   From: 2010.03.12/outbox.cif.g09.slc.cpg/sg65_37_cif.got.tgz:72853.got - 2010.04.10 20:52:16.
