data_PCOD8270448
_publ_section_title
;
Structure prediction by ZEFSAII (Michael W. Deem and Ramdas Pophale) SiO2 
 PCOD8270448
Probable space group: C M M M
;
_chemical_formula_sum "Si O2"
_cell_formula_units_Z 104
_cell_length_a 8.908282
_cell_length_b 27.362590
_cell_length_c 26.726777
_cell_angle_alpha 90.000000
_cell_angle_beta 90.000000
_cell_angle_gamma 90.000000
_cell_volume 6514.749927
_symmetry_space_group_name_H-M "C M M M"
_symmetry_group_IT_number 65
_symmetry_cell_setting 'orthorhombic'
loop_
_space_group_symop_operation_xyz
x,y,z
-x,-y,z
x,-y,-z
-x,y,-z
-x,-y,-z
x,y,-z
-x,y,z
x,-y,z
1/2+x,1/2+y,z
1/2-x,1/2-y,z
1/2+x,1/2-y,-z
1/2-x,1/2+y,-z
1/2-x,1/2-y,-z
1/2+x,1/2+y,-z
1/2-x,1/2+y,z
1/2+x,1/2-y,z
loop_
_atom_site_type_symbol
_atom_site_label
_atom_site_fract_x
_atom_site_fract_y
_atom_site_fract_z
Si Si1 0.827512 0.147035 0.295330
Si Si2 0.673610 0.301002 0.601889
Si Si3 0.672964 0.891990 0.443186
Si Si4 0.677393 0.196778 0.795026
Si Si5 0.177383 0.196833 0.893012
Si Si6 0.826212 0.198248 0.000000
Si Si7 0.673534 0.555051 0.357197
O O1 0.799144 0.184428 0.340567
O O2 0.718482 0.161296 0.250376
O O3 0.782386 0.092320 0.312810
O O4 0.000000 0.149315 0.277335
O O5 0.500000 0.296205 0.589458
O O6 0.750000 0.250000 0.590050
O O7 0.740763 0.341510 0.565347
O O8 0.697427 0.909456 0.500000
O O9 0.500000 0.882683 0.430858
O O10 0.733209 0.934704 0.407312
O O11 0.500000 0.202648 0.798749
O O12 0.750000 0.250000 0.786530
O O13 0.742070 0.170954 0.845797
O O14 0.250000 0.250000 0.895706
O O15 0.000000 0.200049 0.882690
O O16 0.211780 0.170339 0.947231
O O17 0.750000 0.250000 0.000000
O O18 0.000000 0.210687 0.000000
O O19 0.500000 0.563478 0.371111
O O20 0.705613 0.500000 0.338696
#
# Coordination Sequence:
#
# PCOD8270448 Si02
#       7
#    16  16  16  16  16   8  16
#     4   9  18  32  48  66  87 111 140 175 214 256
#     4  10  20  33  50  69  90 118 150 182 217 257
#     4  10  21  35  50  70  95 120 146 176 210 251
#     4  11  20  28  40  60  86 117 151 183 217 254
#     4   9  15  24  36  52  76 107 145 185 221 254
#     4   8  14  22  34  50  70 102 143 184 221 254
#     4   9  19  36  56  74  90 111 140 174 216 265
#
# _framework density 15.963774000000001
#
# number of rings (size 3 to 8) (size 9 to 14) (size 15 to 20)
#    0.000    2.462    0.000    5.077    0.000    7.077 
#    0.000    1.538    0.000    0.000    0.000    0.000 
#    0.000    0.000    0.000    0.692    0.000   15.923 
#
# Total GULP energy -644444.819689 kJ/mol
# GULP energy per Si atom -12393.169609 kJ/mol
# Density = 1.592744 g / cm^3
# Si number density = 15.963774 Si / 1000 Ang^3
#
#
#
# Elastic Constant Matrix: (Units=GPa)
#
#
# Indices 1 2 3 4 5 6 
#
# 1 98.8545 28.4892 54.9214 0.0000 0.0000 0.0000
# 2 28.4892 69.5738 30.7203 0.0000 0.0000 0.0000
# 3 54.9214 30.7203 113.7575 0.0000 0.0000 0.0000
# 4 0.0000 0.0000 0.0000 10.4750 0.0000 0.0000
# 5 0.0000 0.0000 0.0000 0.0000 25.6447 0.0000
# 6 0.0000 0.0000 0.0000 0.0000 0.0000 18.5388
#
#
#
# Elastic Compliance Matrix: (Units=1/GPa)
#
#
# Indices 1 2 3 4 5 6 
#
# 1 0.014431 -0.003216 -0.006099 0.000000 0.000000 0.000000
# 2 -0.003216 0.017036 -0.003048 0.000000 0.000000 0.000000
# 3 -0.006099 -0.003048 0.012558 0.000000 0.000000 0.000000
# 4 0.000000 0.000000 0.000000 0.095466 0.000000 0.000000
# 5 0.000000 0.000000 0.000000 0.000000 0.038994 0.000000
# 6 0.000000 0.000000 0.000000 0.000000 0.000000 0.053941
#
#
# Mechanical properties :
#
#
# Convention : Reuss Voigt Hill
#
# Bulk Modulus (GPa) = 51.81454 56.71639 54.26546
# Shear Modulus (GPa) = 18.96922 22.13535 20.55228
#
# Velocity S-wave (km/s) = 3.45086 3.72775 3.59197
# Velocity P-wave (km/s) = 6.95744 7.35754 7.16029
#
# Compressibility (1/GPa) = 0.01929960
#
# Stress axis : x y z
#
# Youngs Moduli (GPa) = 69.29470 58.69919 79.63009
#
# Poissons Ratio (x) = 0.18880 0.48564
# Poissons Ratio (y) = 0.22288 0.24269
# Poissons Ratio (z) = 0.42260 0.17890
#
# Static dielectric constant tensor:
#      x y z
#    x 2.942950 0.000000 0.000000 
#    y 0.000000 2.727260 0.000000 
#    z 0.000000 0.000000 3.555620 
# 
# 
# High freq. dielectric constant tensor:
#      x y z
#    x 1.627650 0.000000 0.000000 
#    y 0.000000 1.562080 0.000000 
#    z 0.000000 0.000000 1.620140 
# 
# From -- ./inp_files/73746.got.cif
#   From: 2010.03.12/outbox.cif.g09.slc.cpg/sg65_37_cif.got.tgz:73746.got - 2010.04.10 20:52:16.
