data_PCOD8270121
_publ_section_title
;
Structure prediction by ZEFSAII (Michael W. Deem and Ramdas Pophale) SiO2 
 PCOD8270121
Probable space group: C M M M
;
_chemical_formula_sum "Si O2"
_cell_formula_units_Z 88
_cell_length_a 9.199621
_cell_length_b 26.698854
_cell_length_c 21.122085
_cell_angle_alpha 90.000000
_cell_angle_beta 90.000000
_cell_angle_gamma 90.000000
_cell_volume 5187.992533
_symmetry_space_group_name_H-M "C M M M"
_symmetry_group_IT_number 65
_symmetry_cell_setting 'orthorhombic'
loop_
_space_group_symop_operation_xyz
x,y,z
-x,-y,z
x,-y,-z
-x,y,-z
-x,-y,-z
x,y,-z
-x,y,z
x,-y,z
1/2+x,1/2+y,z
1/2-x,1/2-y,z
1/2+x,1/2-y,-z
1/2-x,1/2+y,-z
1/2-x,1/2-y,-z
1/2+x,1/2+y,-z
1/2-x,1/2+y,z
1/2+x,1/2-y,z
loop_
_atom_site_type_symbol
_atom_site_label
_atom_site_fract_x
_atom_site_fract_y
_atom_site_fract_z
Si Si1 0.829450 0.697242 0.500000
Si Si2 0.331688 0.099042 0.813262
Si Si3 0.168535 0.942330 0.694741
Si Si4 0.833749 0.941590 0.072112
Si Si5 0.665293 0.798701 0.749516
Si Si6 0.671363 0.857801 0.372332
O O1 0.750000 0.750000 0.500000
O O2 0.782507 0.664732 0.439519
O O3 0.000000 0.708371 0.500000
O O4 0.500000 0.083583 0.807975
O O5 0.243324 0.066524 0.762489
O O6 0.273552 0.089320 0.883402
O O7 0.310767 0.157945 0.800926
O O8 0.243830 0.909621 0.639578
O O9 0.000000 0.927368 0.700471
O O10 0.187228 0.000000 0.675275
O O11 0.000000 0.928211 0.088579
O O12 0.805850 0.000000 0.082973
O O13 0.798307 0.926697 0.000000
O O14 0.500000 0.782175 0.744348
O O15 0.750000 0.750000 0.772046
O O16 0.719617 0.818069 0.681100
O O17 0.500000 0.869192 0.367625
#
# Coordination Sequence:
#
# PCOD8270121 Si02
#       6
#     8  16  16  16  16  16
#     4  10  20  34  53  76 101 129 162 201 245 294
#     4  10  20  32  48  73 101 127 159 199 241 287
#     4  10  20  33  50  72  97 127 164 202 240 285
#     4   9  18  32  49  71 100 131 162 196 234 280
#     4   9  18  31  47  69  95 122 155 196 239 282
#     4   9  19  34  50  72 100 127 159 198 241 290
#
# _framework density 16.962243999999998
#
# number of rings (size 3 to 8) (size 9 to 14) (size 15 to 20)
#    0.000    2.545    0.000    3.818    0.000    8.727 
#    0.000    1.364    0.000    3.273    0.000    0.000 
#    0.000    0.000    0.000    0.000    0.000    0.000 
#
# Total GULP energy -545668.510251 kJ/mol
# GULP energy per Si atom -12401.557051 kJ/mol
# Density = 1.692364 g / cm^3
# Si number density = 16.962244 Si / 1000 Ang^3
#
#
#
# Elastic Constant Matrix: (Units=GPa)
#
#
# Indices 1 2 3 4 5 6 
#
# 1 92.1262 63.0395 53.9197 0.0000 0.0000 0.0000
# 2 63.0395 101.9224 55.4453 0.0000 0.0000 0.0000
# 3 53.9197 55.4453 118.3051 0.0000 0.0000 0.0000
# 4 0.0000 0.0000 0.0000 19.6742 0.0000 0.0000
# 5 0.0000 0.0000 0.0000 0.0000 28.1278 0.0000
# 6 0.0000 0.0000 0.0000 0.0000 0.0000 34.0714
#
#
#
# Elastic Compliance Matrix: (Units=1/GPa)
#
#
# Indices 1 2 3 4 5 6 
#
# 1 0.020506 -0.010199 -0.004566 0.000000 0.000000 0.000000
# 2 -0.010199 0.018242 -0.003901 0.000000 0.000000 0.000000
# 3 -0.004566 -0.003901 0.012362 0.000000 0.000000 0.000000
# 4 0.000000 0.000000 0.000000 0.050828 0.000000 0.000000
# 5 0.000000 0.000000 0.000000 0.000000 0.035552 0.000000
# 6 0.000000 0.000000 0.000000 0.000000 0.000000 0.029350
#
#
# Mechanical properties :
#
#
# Convention : Reuss Voigt Hill
#
# Bulk Modulus (GPa) = 72.58100 73.01809 72.79955
# Shear Modulus (GPa) = 23.95045 25.70464 24.82755
#
# Velocity S-wave (km/s) = 3.76172 3.89704 3.82998
# Velocity P-wave (km/s) = 7.85812 7.96179 7.91012
#
# Compressibility (1/GPa) = 0.01377771
#
# Stress axis : x y z
#
# Youngs Moduli (GPa) = 48.76580 54.81966 80.89373
#
# Poissons Ratio (x) = 0.55912 0.36936
# Poissons Ratio (y) = 0.49737 0.31554
# Poissons Ratio (z) = 0.22267 0.21383
#
# Static dielectric constant tensor:
#      x y z
#    x 3.198320 0.000000 0.000000 
#    y 0.000000 3.058580 0.000000 
#    z 0.000000 0.000000 3.135020 
# 
# 
# High freq. dielectric constant tensor:
#      x y z
#    x 1.659950 0.000000 0.000000 
#    y 0.000000 1.646800 0.000000 
#    z 0.000000 0.000000 1.645090 
# 
# From -- ./inp_files/59780.got.cif
#   From: 2010.03.12/outbox.cif.g09.slc.cpg/sg65_30_cif.got.tgz:59780.got - 2010.04.10 20:52:16.
