data_PCOD8270321
_publ_section_title
;
Structure prediction by ZEFSAII (Michael W. Deem and Ramdas Pophale) SiO2 
 PCOD8270321
Probable space group: C M M M
;
_chemical_formula_sum "Si O2"
_cell_formula_units_Z 88
_cell_length_a 19.363119
_cell_length_b 31.339144
_cell_length_c 8.726976
_cell_angle_alpha 90.000000
_cell_angle_beta 90.000000
_cell_angle_gamma 90.000000
_cell_volume 5295.734772
_symmetry_space_group_name_H-M "C M M M"
_symmetry_group_IT_number 65
_symmetry_cell_setting 'orthorhombic'
loop_
_space_group_symop_operation_xyz
x,y,z
-x,-y,z
x,-y,-z
-x,y,-z
-x,-y,-z
x,y,-z
-x,y,z
x,-y,z
1/2+x,1/2+y,z
1/2-x,1/2-y,z
1/2+x,1/2-y,-z
1/2-x,1/2+y,-z
1/2-x,1/2-y,-z
1/2+x,1/2+y,-z
1/2-x,1/2+y,z
1/2+x,1/2-y,z
loop_
_atom_site_type_symbol
_atom_site_label
_atom_site_fract_x
_atom_site_fract_y
_atom_site_fract_z
Si Si1 0.710171 0.293023 0.179387
Si Si2 0.921774 0.239770 0.678654
Si Si3 0.306228 0.046662 0.176489
Si Si4 0.706403 0.869416 0.319974
Si Si5 0.922218 0.330956 0.177173
Si Si6 0.078459 0.500000 0.681825
O O1 0.750000 0.250000 0.229179
O O2 0.629988 0.290140 0.226396
O O3 0.741634 0.332940 0.267565
O O4 0.717325 0.301255 0.000000
O O5 0.905129 0.235448 0.500000
O O6 0.910070 0.288334 0.726617
O O7 0.000000 0.225249 0.716274
O O8 0.265393 0.083996 0.267006
O O9 0.268351 0.000000 0.193949
O O10 0.383242 0.041906 0.249386
O O11 0.312540 0.059919 0.000000
O O12 0.698021 0.867435 0.500000
O O13 0.631599 0.865371 0.239601
O O14 0.000000 0.348375 0.200000
O O15 0.907047 0.320351 0.000000
O O16 0.084373 0.500000 0.500000
O O17 0.000000 0.500000 0.738499
#
# Coordination Sequence:
#
# PCOD8270321 Si02
#       6
#    16  16  16  16  16   8
#     4  11  22  35  53  75 103 137 173 212 253 303
#     4  10  20  34  52  74 101 133 170 212 257 303
#     4   9  20  36  53  69  93 126 162 207 255 305
#     4  12  23  34  53  75 100 131 169 217 262 306
#     4  10  20  33  48  67  95 132 173 213 255 305
#     4   9  17  31  51  73  97 127 166 211 258 303
#
# _framework density 16.617146999999999
#
# number of rings (size 3 to 8) (size 9 to 14) (size 15 to 20)
#    0.545    1.182    1.818    3.818    0.000    4.364 
#    0.000    0.000    0.000    0.000    0.000    0.000 
#    0.000    0.727    0.000    7.636    0.000    3.273 
#
# Total GULP energy -545460.196163 kJ/mol
# GULP energy per Si atom -12396.822640 kJ/mol
# Density = 1.657933 g / cm^3
# Si number density = 16.617147 Si / 1000 Ang^3
#
#
#
# Elastic Constant Matrix: (Units=GPa)
#
#
# Indices 1 2 3 4 5 6 
#
# 1 63.1581 32.1878 26.0847 0.0000 0.0000 0.0000
# 2 32.1878 85.5546 21.3801 0.0000 0.0000 0.0000
# 3 26.0847 21.3801 57.2819 0.0000 0.0000 0.0000
# 4 0.0000 0.0000 0.0000 28.3767 0.0000 0.0000
# 5 0.0000 0.0000 0.0000 0.0000 26.2726 0.0000
# 6 0.0000 0.0000 0.0000 0.0000 0.0000 18.1635
#
#
#
# Elastic Compliance Matrix: (Units=1/GPa)
#
#
# Indices 1 2 3 4 5 6 
#
# 1 0.022331 -0.006463 -0.007756 0.000000 0.000000 0.000000
# 2 -0.006463 0.014761 -0.002567 0.000000 0.000000 0.000000
# 3 -0.007756 -0.002567 0.021948 0.000000 0.000000 0.000000
# 4 0.000000 0.000000 0.000000 0.035240 0.000000 0.000000
# 5 0.000000 0.000000 0.000000 0.000000 0.038062 0.000000
# 6 0.000000 0.000000 0.000000 0.000000 0.000000 0.055055
#
#
# Mechanical properties :
#
#
# Convention : Reuss Voigt Hill
#
# Bulk Modulus (GPa) = 39.26572 40.58887 39.92729
# Shear Modulus (GPa) = 21.79043 22.98537 22.38790
#
# Velocity S-wave (km/s) = 3.62515 3.72322 3.67451
# Velocity P-wave (km/s) = 6.41897 6.55454 6.48711
#
# Compressibility (1/GPa) = 0.02546751
#
# Stress axis : x y z
#
# Youngs Moduli (GPa) = 44.78171 67.74452 45.56318
#
# Poissons Ratio (x) = 0.43783 0.35341
# Poissons Ratio (y) = 0.28942 0.11694
# Poissons Ratio (z) = 0.34735 0.17387
#
# Static dielectric constant tensor:
#      x y z
#    x 3.012060 0.000000 0.000000 
#    y 0.000000 3.032290 0.000000 
#    z 0.000000 0.000000 3.210640 
# 
# 
# High freq. dielectric constant tensor:
#      x y z
#    x 1.606400 0.000000 0.000000 
#    y 0.000000 1.623950 0.000000 
#    z 0.000000 0.000000 1.661410 
# 
# From -- ./inp_files/12666.got.cif
#   From: 2010.03.12/outbox.cif.g09.slc.cpg/sg65_7_cif.got.tgz:12666.got - 2010.04.10 20:52:16.
