data_PCOD8270925
_publ_section_title
;
Structure prediction by ZEFSAII (Michael W. Deem and Ramdas Pophale) SiO2 
 PCOD8270925
Probable space group: C M M M
;
_chemical_formula_sum "Si O2"
_cell_formula_units_Z 104
_cell_length_a 16.764577
_cell_length_b 23.385468
_cell_length_c 14.554416
_cell_angle_alpha 90.000000
_cell_angle_beta 90.000000
_cell_angle_gamma 90.000000
_cell_volume 5706.022101
_symmetry_space_group_name_H-M "C M M M"
_symmetry_group_IT_number 65
_symmetry_cell_setting 'orthorhombic'
loop_
_space_group_symop_operation_xyz
x,y,z
-x,-y,z
x,-y,-z
-x,y,-z
-x,-y,-z
x,y,-z
-x,y,z
x,-y,z
1/2+x,1/2+y,z
1/2-x,1/2-y,z
1/2+x,1/2-y,-z
1/2-x,1/2+y,-z
1/2-x,1/2-y,-z
1/2+x,1/2+y,-z
1/2-x,1/2+y,z
1/2+x,1/2-y,z
loop_
_atom_site_type_symbol
_atom_site_label
_atom_site_fract_x
_atom_site_fract_y
_atom_site_fract_z
Si Si1 0.093034 0.831155 0.101330
Si Si2 0.593556 0.742213 0.602799
Si Si3 0.404765 0.437074 0.213747
Si Si4 0.160881 0.729475 0.787951
Si Si5 0.405579 0.124376 0.892897
Si Si6 0.587114 0.000000 0.108400
Si Si7 0.094535 0.111199 0.400845
O O1 0.130742 0.888655 0.146221
O O2 0.104135 0.776485 0.165713
O O3 0.000000 0.841213 0.090485
O O4 0.131449 0.821910 0.000000
O O5 0.616334 0.763763 0.500000
O O6 0.500000 0.750244 0.619712
O O7 0.641477 0.777636 0.679736
O O8 0.619611 0.676624 0.614879
O O9 0.500000 0.433266 0.215543
O O10 0.376542 0.500000 0.180924
O O11 0.371483 0.426494 0.317150
O O12 0.250000 0.750000 0.805034
O O13 0.146294 0.668501 0.834517
O O14 0.500000 0.129940 0.871255
O O15 0.372119 0.060691 0.864433
O O16 0.390508 0.136856 0.000000
O O17 0.500000 0.000000 0.154629
O O18 0.575820 0.000000 0.000000
O O19 0.128040 0.089529 0.500000
O O20 0.000000 0.107464 0.403450
#
# Coordination Sequence:
#
# PCOD8270925 Si02
#       7
#    16  16  16  16  16   8  16
#     4  10  20  34  50  66  91 129 172 213 248 287
#     4   9  17  32  54  74  94 124 162 203 246 296
#     4   9  16  26  43  67  93 121 159 207 250 287
#     4  12  23  32  48  74 106 135 161 200 249 305
#     4   9  17  31  53  78 102 131 169 214 260 303
#     4   7  12  26  50  78 101 121 158 215 265 299
#     4   8  13  23  42  66  90 116 148 193 244 285
#
# _framework density 18.226357
#
# number of rings (size 3 to 8) (size 9 to 14) (size 15 to 20)
#    0.000    2.692    1.538    3.692    0.000    3.385 
#    0.000    3.077    1.692    0.000    0.000    0.538 
#    0.000    3.077    0.000    0.000    0.000    0.000 
#
# Total GULP energy -644287.358809 kJ/mol
# GULP energy per Si atom -12390.141516 kJ/mol
# Density = 1.818487 g / cm^3
# Si number density = 18.226357 Si / 1000 Ang^3
#
#
#
# Elastic Constant Matrix: (Units=GPa)
#
#
# Indices 1 2 3 4 5 6 
#
# 1 31.4610 24.2580 19.9594 0.0000 0.0000 0.0000
# 2 24.2580 134.3029 58.9985 0.0000 0.0000 0.0000
# 3 19.9594 58.9985 117.7491 0.0000 0.0000 0.0000
# 4 0.0000 0.0000 0.0000 24.4593 0.0000 0.0000
# 5 0.0000 0.0000 0.0000 0.0000 8.4329 0.0000
# 6 0.0000 0.0000 0.0000 0.0000 0.0000 8.0839
#
#
#
# Elastic Compliance Matrix: (Units=1/GPa)
#
#
# Indices 1 2 3 4 5 6 
#
# 1 0.038260 -0.005208 -0.003876 0.000000 0.000000 0.000000
# 2 -0.005208 0.010256 -0.004256 0.000000 0.000000 0.000000
# 3 -0.003876 -0.004256 0.011282 0.000000 0.000000 0.000000
# 4 0.000000 0.000000 0.000000 0.040884 0.000000 0.000000
# 5 0.000000 0.000000 0.000000 0.000000 0.118583 0.000000
# 6 0.000000 0.000000 0.000000 0.000000 0.000000 0.123702
#
#
# Mechanical properties :
#
#
# Convention : Reuss Voigt Hill
#
# Bulk Modulus (GPa) = 30.19472 54.43831 42.31652
# Shear Modulus (GPa) = 13.13415 20.21503 16.67459
#
# Velocity S-wave (km/s) = 2.68734 3.33394 3.02795
# Velocity P-wave (km/s) = 5.12167 6.68977 5.95754
#
# Compressibility (1/GPa) = 0.03311837
#
# Stress axis : x y z
#
# Youngs Moduli (GPa) = 26.13706 97.50200 88.63542
#
# Poissons Ratio (x) = 0.50778 0.34354
# Poissons Ratio (y) = 0.13612 0.37724
# Poissons Ratio (z) = 0.10131 0.41498
#
# Static dielectric constant tensor:
#      x y z
#    x 2.779110 0.000000 0.000000 
#    y 0.000000 3.486960 0.000000 
#    z 0.000000 0.000000 3.739820 
# 
# 
# High freq. dielectric constant tensor:
#      x y z
#    x 1.644620 0.000000 0.000000 
#    y 0.000000 1.700190 0.000000 
#    z 0.000000 0.000000 1.708250 
# 
# From -- ./inp_files/44612.got.cif
#   From: 2010.03.12/outbox.cif.g09.slc.cpg/sg65_23_cif.got.tgz:44612.got - 2010.04.10 20:52:16.
