data_PCOD8270181
_publ_section_title
;
Structure prediction by ZEFSAII (Michael W. Deem and Ramdas Pophale) SiO2 
 PCOD8270181
Probable space group: C M M M
;
_chemical_formula_sum "Si O2"
_cell_formula_units_Z 96
_cell_length_a 27.671766
_cell_length_b 20.453630
_cell_length_c 9.235725
_cell_angle_alpha 90.000000
_cell_angle_beta 90.000000
_cell_angle_gamma 90.000000
_cell_volume 5227.310105
_symmetry_space_group_name_H-M "C M M M"
_symmetry_group_IT_number 65
_symmetry_cell_setting 'orthorhombic'
loop_
_space_group_symop_operation_xyz
x,y,z
-x,-y,z
x,-y,-z
-x,y,-z
-x,-y,-z
x,y,-z
-x,y,z
x,-y,z
1/2+x,1/2+y,z
1/2-x,1/2-y,z
1/2+x,1/2-y,-z
1/2-x,1/2+y,-z
1/2-x,1/2-y,-z
1/2+x,1/2+y,-z
1/2-x,1/2+y,z
1/2+x,1/2-y,z
loop_
_atom_site_type_symbol
_atom_site_label
_atom_site_fract_x
_atom_site_fract_y
_atom_site_fract_z
Si Si1 0.782879 0.190229 0.670204
Si Si2 0.945982 0.071575 0.328175
Si Si3 0.106924 0.198319 0.329521
Si Si4 0.733139 0.075217 0.169289
Si Si5 0.124123 0.428064 0.171904
Si Si6 0.055759 0.685960 0.829865
O O1 0.776876 0.179480 0.500000
O O2 0.750000 0.250000 0.726348
O O3 0.837453 0.208630 0.712613
O O4 0.768949 0.122473 0.745347
O O5 0.946536 0.070516 0.500000
O O6 0.909039 0.126662 0.273093
O O7 0.000000 0.087313 0.271049
O O8 0.929335 0.000000 0.270398
O O9 0.098408 0.206259 0.500000
O O10 0.073298 0.249602 0.249459
O O11 0.678391 0.090281 0.221138
O O12 0.746472 0.000000 0.204555
O O13 0.738809 0.089328 0.000000
O O14 0.110203 0.500000 0.232676
O O15 0.086251 0.375313 0.232358
O O16 0.122337 0.430356 0.000000
O O17 0.000000 0.672831 0.793564
O O18 0.064372 0.695057 0.000000
#
# Coordination Sequence:
#
# PCOD8270181 Si02
#       6
#    16  16  16  16  16  16
#     4  10  21  34  48  71 101 130 165 209 251 291
#     4   8  14  26  45  67  87 109 145 190 227 266
#     4  10  20  33  50  70  94 128 164 196 238 294
#     4   9  18  33  53  75  98 129 169 206 245 300
#     4   8  15  30  51  73  98 129 165 202 239 287
#     4  10  20  32  49  75 102 127 160 204 250 292
#
# _framework density 18.365086000000002
#
# number of rings (size 3 to 8) (size 9 to 14) (size 15 to 20)
#    0.000    2.833    0.000    3.000    0.000    3.333 
#    0.000    3.333    0.000    2.000    0.000    3.500 
#    0.000    0.000    0.000    0.000    0.000    0.000 
#
# Total GULP energy -595084.363118 kJ/mol
# GULP energy per Si atom -12397.590898 kJ/mol
# Density = 1.832329 g / cm^3
# Si number density = 18.365086 Si / 1000 Ang^3
#
#
#
# Elastic Constant Matrix: (Units=GPa)
#
#
# Indices 1 2 3 4 5 6 
#
# 1 61.8192 28.0367 19.7814 0.0000 0.0000 0.0000
# 2 28.0367 97.8719 23.2463 0.0000 0.0000 0.0000
# 3 19.7814 23.2463 23.8121 0.0000 0.0000 0.0000
# 4 0.0000 0.0000 0.0000 25.7465 0.0000 0.0000
# 5 0.0000 0.0000 0.0000 0.0000 16.1050 0.0000
# 6 0.0000 0.0000 0.0000 0.0000 0.0000 41.3893
#
#
#
# Elastic Compliance Matrix: (Units=1/GPa)
#
#
# Indices 1 2 3 4 5 6 
#
# 1 0.022536 -0.002616 -0.016168 0.000000 0.000000 0.000000
# 2 -0.002616 0.013605 -0.011109 0.000000 0.000000 0.000000
# 3 -0.016168 -0.011109 0.066272 0.000000 0.000000 0.000000
# 4 0.000000 0.000000 0.000000 0.038840 0.000000 0.000000
# 5 0.000000 0.000000 0.000000 0.000000 0.062092 0.000000
# 6 0.000000 0.000000 0.000000 0.000000 0.000000 0.024161
#
#
# Mechanical properties :
#
#
# Convention : Reuss Voigt Hill
#
# Bulk Modulus (GPa) = 23.45886 36.18132 29.82009
# Shear Modulus (GPa) = 16.58371 24.14408 20.36389
#
# Velocity S-wave (km/s) = 3.00826 3.62978 3.33353
# Velocity P-wave (km/s) = 4.98673 6.10827 5.57577
#
# Compressibility (1/GPa) = 0.04262782
#
# Stress axis : x y z
#
# Youngs Moduli (GPa) = 44.37364 73.50061 15.08941
#
# Poissons Ratio (x) = 0.19225 0.24396
# Poissons Ratio (y) = 0.11606 0.16763
# Poissons Ratio (z) = 0.71742 0.81653
#
# Static dielectric constant tensor:
#      x y z
#    x 3.486280 0.000000 0.000000 
#    y 0.000000 3.748340 0.000000 
#    z 0.000000 0.000000 2.938040 
# 
# 
# High freq. dielectric constant tensor:
#      x y z
#    x 1.715840 0.000000 0.000000 
#    y 0.000000 1.726980 0.000000 
#    z 0.000000 0.000000 1.667050 
# 
# From -- ./inp_files/12307.got.cif
#   From: 2010.03.12/outbox.cif.g09.slc.cpg/sg65_7_cif.got.tgz:12307.got - 2010.04.10 20:52:16.
