data_PCOD8270249
_publ_section_title
;
Structure prediction by ZEFSAII (Michael W. Deem and Ramdas Pophale) SiO2 
 PCOD8270249
Probable space group: C M M M
;
_chemical_formula_sum "Si O2"
_cell_formula_units_Z 80
_cell_length_a 25.363659
_cell_length_b 18.293362
_cell_length_c 9.474097
_cell_angle_alpha 90.000000
_cell_angle_beta 90.000000
_cell_angle_gamma 90.000000
_cell_volume 4395.854015
_symmetry_space_group_name_H-M "C M M M"
_symmetry_group_IT_number 65
_symmetry_cell_setting 'orthorhombic'
loop_
_space_group_symop_operation_xyz
x,y,z
-x,-y,z
x,-y,-z
-x,y,-z
-x,-y,-z
x,y,-z
-x,y,z
x,-y,z
1/2+x,1/2+y,z
1/2-x,1/2-y,z
1/2+x,1/2-y,-z
1/2-x,1/2+y,-z
1/2-x,1/2-y,-z
1/2+x,1/2+y,-z
1/2-x,1/2+y,z
1/2+x,1/2-y,z
loop_
_atom_site_type_symbol
_atom_site_label
_atom_site_fract_x
_atom_site_fract_y
_atom_site_fract_z
Si Si1 0.751196 0.164614 0.664152
Si Si2 0.060985 0.336007 0.162153
Si Si3 0.354307 0.084042 0.337039
Si Si4 0.841719 0.084410 0.166787
Si Si5 0.557883 0.327971 0.167574
O O1 0.762427 0.148378 0.500000
O O2 0.750000 0.250000 0.697235
O O3 0.695599 0.131338 0.712422
O O4 0.796176 0.127844 0.755905
O O5 0.094456 0.393291 0.250690
O O6 0.071532 0.253936 0.219808
O O7 0.000000 0.356859 0.180423
O O8 0.078405 0.342327 0.000000
O O9 0.366965 0.098142 0.500000
O O10 0.340936 0.000000 0.306461
O O11 0.897909 0.115648 0.220650
O O12 0.839079 0.000000 0.209849
O O13 0.835099 0.095609 0.000000
O O14 0.500000 0.351849 0.225749
O O15 0.555278 0.326564 0.000000
#
# Coordination Sequence:
#
# PCOD8270249 Si02
#       5
#    16  16  16  16  16
#     4  10  21  37  56  75  97 131 173 212 253 301
#     4   9  18  33  53  75  98 128 167 207 246 289
#     4  10  21  35  50  71 100 131 162 199 247 301
#     4  10  20  32  50  79 108 133 166 206 249 299
#     4   8  15  30  51  74 102 134 166 203 246 290
#
# _framework density 18.198965999999999
#
# number of rings (size 3 to 8) (size 9 to 14) (size 15 to 20)
#    0.000    2.600    0.000    3.000    0.000    4.000 
#    0.000    4.000    0.000    1.800    0.000    1.400 
#    0.000    0.000    0.000    0.000    0.000    0.000 
#
# Total GULP energy -496019.775693 kJ/mol
# GULP energy per Si atom -12400.494392 kJ/mol
# Density = 1.815754 g / cm^3
# Si number density = 18.198966 Si / 1000 Ang^3
#
#
#
# Elastic Constant Matrix: (Units=GPa)
#
#
# Indices 1 2 3 4 5 6 
#
# 1 127.8053 76.0563 51.2628 0.0000 0.0000 0.0000
# 2 76.0563 118.1457 43.7368 0.0000 0.0000 0.0000
# 3 51.2628 43.7368 43.8940 0.0000 0.0000 0.0000
# 4 0.0000 0.0000 0.0000 23.1130 0.0000 0.0000
# 5 0.0000 0.0000 0.0000 0.0000 20.9988 0.0000
# 6 0.0000 0.0000 0.0000 0.0000 0.0000 17.4375
#
#
#
# Elastic Compliance Matrix: (Units=1/GPa)
#
#
# Indices 1 2 3 4 5 6 
#
# 1 0.016787 -0.005623 -0.014002 0.000000 0.000000 0.000000
# 2 -0.005623 0.015295 -0.008673 0.000000 0.000000 0.000000
# 3 -0.014002 -0.008673 0.047777 0.000000 0.000000 0.000000
# 4 0.000000 0.000000 0.000000 0.043266 0.000000 0.000000
# 5 0.000000 0.000000 0.000000 0.000000 0.047622 0.000000
# 6 0.000000 0.000000 0.000000 0.000000 0.000000 0.057348
#
#
# Mechanical properties :
#
#
# Convention : Reuss Voigt Hill
#
# Bulk Modulus (GPa) = 42.98820 70.21743 56.60282
# Shear Modulus (GPa) = 17.09734 20.22913 18.66323
#
# Velocity S-wave (km/s) = 3.06840 3.33761 3.20583
# Velocity P-wave (km/s) = 6.01880 7.31573 6.69872
#
# Compressibility (1/GPa) = 0.02326220
#
# Stress axis : x y z
#
# Youngs Moduli (GPa) = 59.57006 65.38266 20.93077
#
# Poissons Ratio (x) = 0.36765 0.29308
# Poissons Ratio (y) = 0.33497 0.18153
# Poissons Ratio (z) = 0.83411 0.56704
#
# Static dielectric constant tensor:
#      x y z
#    x 3.615300 0.000000 0.000000 
#    y 0.000000 3.474590 0.000000 
#    z 0.000000 0.000000 3.084360 
# 
# 
# High freq. dielectric constant tensor:
#      x y z
#    x 1.716860 0.000000 0.000000 
#    y 0.000000 1.712880 0.000000 
#    z 0.000000 0.000000 1.676630 
# 
# From -- ./inp_files/9596.got.cif
#   From: 2010.03.12/outbox.cif.g09.slc.cpg/sg65_5_cif.got.tgz:9596.got - 2010.04.10 20:52:16.
