data_PCOD8270744
_publ_section_title
;
Structure prediction by ZEFSAII (Michael W. Deem and Ramdas Pophale) SiO2 
 PCOD8270744
Probable space group: C M M M
;
_chemical_formula_sum "Si O2"
_cell_formula_units_Z 120
_cell_length_a 26.441675
_cell_length_b 9.016679
_cell_length_c 27.682257
_cell_angle_alpha 90.000000
_cell_angle_beta 90.000000
_cell_angle_gamma 90.000000
_cell_volume 6599.895634
_symmetry_space_group_name_H-M "C M M M"
_symmetry_group_IT_number 65
_symmetry_cell_setting 'orthorhombic'
loop_
_space_group_symop_operation_xyz
x,y,z
-x,-y,z
x,-y,-z
-x,y,-z
-x,-y,-z
x,y,-z
-x,y,z
x,-y,z
1/2+x,1/2+y,z
1/2-x,1/2-y,z
1/2+x,1/2-y,-z
1/2-x,1/2+y,-z
1/2-x,1/2-y,-z
1/2+x,1/2+y,-z
1/2-x,1/2+y,z
1/2+x,1/2-y,z
loop_
_atom_site_type_symbol
_atom_site_label
_atom_site_fract_x
_atom_site_fract_y
_atom_site_fract_z
Si Si1 0.639465 0.175714 0.363462
Si Si2 0.000000 0.323910 0.945690
Si Si3 0.941880 0.167552 0.304486
Si Si4 0.399614 0.829188 0.783458
Si Si5 0.799790 0.331057 0.271370
Si Si6 0.601893 0.824505 0.105723
Si Si7 0.302379 0.674003 0.056315
Si Si8 0.197683 0.827634 0.555842
O O1 0.585580 0.232639 0.344651
O O2 0.680797 0.224480 0.323542
O O3 0.652660 0.253743 0.413868
O O4 0.636768 0.000000 0.370452
O O5 0.948852 0.265834 0.920420
O O6 0.000000 0.500000 0.944045
O O7 0.000000 0.262514 0.000000
O O8 0.935358 0.230794 0.250385
O O9 0.000000 0.170948 0.318756
O O10 0.920543 0.000000 0.305815
O O11 0.341496 0.802458 0.769340
O O12 0.406142 0.781593 0.838599
O O13 0.414944 0.000000 0.775183
O O14 0.784928 0.500000 0.275836
O O15 0.750000 0.250000 0.254065
O O16 0.650839 0.742141 0.085340
O O17 0.609934 0.000000 0.098667
O O18 0.298498 0.500000 0.067312
O O19 0.250000 0.750000 0.073292
O O20 0.311839 0.706201 0.000000
O O21 0.184365 0.801729 0.500000
O O22 0.250000 0.750000 0.570009
O O23 0.202590 0.000000 0.568568
#
# Coordination Sequence:
#
# PCOD8270744 Si02
#       8
#    16   8  16  16  16  16  16  16
#     4  10  20  34  53  77 104 138 182 226 270 320
#     4   9  18  32  53  81 107 135 175 221 268 319
#     4  10  21  36  55  78 104 136 176 223 272 321
#     4   9  20  35  51  75 105 137 175 213 258 315
#     4   9  18  31  46  69  99 133 170 209 252 304
#     4  10  20  35  56  81 108 141 179 221 269 323
#     4  10  21  37  57  80 106 139 178 220 267 319
#     4  10  20  33  51  78 113 150 185 223 268 318
#
# _framework density 18.182105
#
# number of rings (size 3 to 8) (size 9 to 14) (size 15 to 20)
#    0.000    2.333    0.000    3.200    0.933    8.000 
#    0.000    1.667    0.000    1.600    0.000    2.800 
#    0.000    0.000    0.000    0.000    0.000    0.000 
#
# Total GULP energy -744095.477414 kJ/mol
# GULP energy per Si atom -12401.591290 kJ/mol
# Density = 1.814072 g / cm^3
# Si number density = 18.182105 Si / 1000 Ang^3
#
#
#
# Elastic Constant Matrix: (Units=GPa)
#
#
# Indices 1 2 3 4 5 6 
#
# 1 109.7658 49.2919 55.7054 0.0000 0.0000 0.0000
# 2 49.2919 87.5028 51.5228 0.0000 0.0000 0.0000
# 3 55.7054 51.5228 114.0718 0.0000 0.0000 0.0000
# 4 0.0000 0.0000 0.0000 27.3600 0.0000 0.0000
# 5 0.0000 0.0000 0.0000 0.0000 21.4143 0.0000
# 6 0.0000 0.0000 0.0000 0.0000 0.0000 30.6055
#
#
#
# Elastic Compliance Matrix: (Units=1/GPa)
#
#
# Indices 1 2 3 4 5 6 
#
# 1 0.013606 -0.005112 -0.004336 0.000000 0.000000 0.000000
# 2 -0.005112 0.017489 -0.005403 0.000000 0.000000 0.000000
# 3 -0.004336 -0.005403 0.013324 0.000000 0.000000 0.000000
# 4 0.000000 0.000000 0.000000 0.036550 0.000000 0.000000
# 5 0.000000 0.000000 0.000000 0.000000 0.046698 0.000000
# 6 0.000000 0.000000 0.000000 0.000000 0.000000 0.032674
#
#
# Mechanical properties :
#
#
# Convention : Reuss Voigt Hill
#
# Bulk Modulus (GPa) = 67.94146 69.37564 68.65855
# Shear Modulus (GPa) = 25.64796 26.19732 25.92264
#
# Velocity S-wave (km/s) = 3.75989 3.79994 3.77997
# Velocity P-wave (km/s) = 7.50316 7.58232 7.54284
#
# Compressibility (1/GPa) = 0.01471855
#
# Stress axis : x y z
#
# Youngs Moduli (GPa) = 73.49674 57.17835 75.05253
#
# Poissons Ratio (x) = 0.29228 0.32539
# Poissons Ratio (y) = 0.37570 0.40551
# Poissons Ratio (z) = 0.31865 0.30894
#
# Static dielectric constant tensor:
#      x y z
#    x 3.574510 0.000000 0.000000 
#    y 0.000000 3.369850 0.000000 
#    z 0.000000 0.000000 3.411440 
# 
# 
# High freq. dielectric constant tensor:
#      x y z
#    x 1.701840 0.000000 0.000000 
#    y 0.000000 1.704410 0.000000 
#    z 0.000000 0.000000 1.700680 
# 
# From -- ./inp_files/76159.got.cif
#   From: 2010.03.12/outbox.cif.g09.slc.cpg/sg65_39_cif.got.tgz:76159.got - 2010.04.10 20:52:16.
