data_PCOD8270691
_publ_section_title
;
Structure prediction by ZEFSAII (Michael W. Deem and Ramdas Pophale) SiO2 
 PCOD8270691
Probable space group: C M M M
;
_chemical_formula_sum "Si O2"
_cell_formula_units_Z 80
_cell_length_a 16.211612
_cell_length_b 28.959808
_cell_length_c 9.645367
_cell_angle_alpha 90.000000
_cell_angle_beta 90.000000
_cell_angle_gamma 90.000000
_cell_volume 4528.356774
_symmetry_space_group_name_H-M "C M M M"
_symmetry_group_IT_number 65
_symmetry_cell_setting 'orthorhombic'
loop_
_space_group_symop_operation_xyz
x,y,z
-x,-y,z
x,-y,-z
-x,y,-z
-x,-y,-z
x,y,-z
-x,y,z
x,-y,z
1/2+x,1/2+y,z
1/2-x,1/2-y,z
1/2+x,1/2-y,-z
1/2-x,1/2+y,-z
1/2-x,1/2-y,-z
1/2+x,1/2+y,-z
1/2-x,1/2+y,z
1/2+x,1/2-y,z
loop_
_atom_site_type_symbol
_atom_site_label
_atom_site_fract_x
_atom_site_fract_y
_atom_site_fract_z
Si Si1 0.000000 0.289024 0.664886
Si Si2 0.591307 0.637690 0.335363
Si Si3 0.851675 0.447933 0.157603
Si Si4 0.805852 0.051868 0.661507
Si Si5 0.000000 0.619002 0.160297
Si Si6 0.661985 0.267498 0.335552
O O1 0.083090 0.262497 0.713616
O O2 0.000000 0.296015 0.500000
O O3 0.000000 0.337828 0.739199
O O4 0.585797 0.639654 0.500000
O O5 0.500000 0.642982 0.271611
O O6 0.626658 0.588475 0.286074
O O7 0.648268 0.679978 0.282797
O O8 0.885143 0.500000 0.180083
O O9 0.777121 0.437027 0.258584
O O10 0.921624 0.411904 0.196158
O O11 0.821411 0.441500 0.000000
O O12 0.786643 0.058486 0.500000
O O13 0.838269 0.000000 0.692845
O O14 0.000000 0.634815 0.000000
O O15 0.666543 0.265602 0.500000
O O16 0.750000 0.250000 0.273238
#
# Coordination Sequence:
#
# PCOD8270691 Si02
#       6
#     8  16  16  16   8  16
#     4  10  20  33  51  77 101 124 166 212 247 290
#     4   9  16  28  46  68  98 132 163 197 240 294
#     4   9  18  34  53  70  94 132 171 199 231 290
#     4   9  18  30  47  75 104 125 154 203 255 292
#     4  10  21  34  50  72 100 131 163 201 247 294
#     4   9  17  29  46  70  98 128 164 205 244 286
#
# _framework density 17.666453000000001
#
# number of rings (size 3 to 8) (size 9 to 14) (size 15 to 20)
#    0.000    2.800    1.000    0.300    2.800    2.400 
#    0.000    2.000    0.000    5.400    0.000    2.800 
#    0.000    0.000    0.000    0.000    0.000    0.000 
#
# Total GULP energy -495816.877675 kJ/mol
# GULP energy per Si atom -12395.421942 kJ/mol
# Density = 1.762624 g / cm^3
# Si number density = 17.666453 Si / 1000 Ang^3
#
#
#
# Elastic Constant Matrix: (Units=GPa)
#
#
# Indices 1 2 3 4 5 6 
#
# 1 145.0769 92.0502 24.6874 0.0000 0.0000 0.0000
# 2 92.0502 152.4388 32.1317 0.0000 0.0000 0.0000
# 3 24.6874 32.1317 22.1204 0.0000 0.0000 0.0000
# 4 0.0000 0.0000 0.0000 19.4985 0.0000 0.0000
# 5 0.0000 0.0000 0.0000 0.0000 4.4192 0.0000
# 6 0.0000 0.0000 0.0000 0.0000 0.0000 43.3201
#
#
#
# Elastic Compliance Matrix: (Units=1/GPa)
#
#
# Indices 1 2 3 4 5 6 
#
# 1 0.011406 -0.006060 -0.003928 0.000000 0.000000 0.000000
# 2 -0.006060 0.012674 -0.011647 0.000000 0.000000 0.000000
# 3 -0.003928 -0.011647 0.066509 0.000000 0.000000 0.000000
# 4 0.000000 0.000000 0.000000 0.051286 0.000000 0.000000
# 5 0.000000 0.000000 0.000000 0.000000 0.226287 0.000000
# 6 0.000000 0.000000 0.000000 0.000000 0.000000 0.023084
#
#
# Mechanical properties :
#
#
# Convention : Reuss Voigt Hill
#
# Bulk Modulus (GPa) = 21.13259 68.59720 44.86490
# Shear Modulus (GPa) = 11.10397 24.83201 17.96799
#
# Velocity S-wave (km/s) = 2.50978 3.75320 3.19261
# Velocity P-wave (km/s) = 4.51515 7.59575 6.24828
#
# Compressibility (1/GPa) = 0.04732028
#
# Stress axis : x y z
#
# Youngs Moduli (GPa) = 87.67259 78.90001 15.03548
#
# Poissons Ratio (x) = 0.47811 0.05905
# Poissons Ratio (y) = 0.53127 0.17513
# Poissons Ratio (z) = 0.34434 0.91899
#
# Static dielectric constant tensor:
#      x y z
#    x 3.476110 0.000000 0.000000 
#    y 0.000000 3.492680 0.000000 
#    z 0.000000 0.000000 2.842560 
# 
# 
# High freq. dielectric constant tensor:
#      x y z
#    x 1.687360 0.000000 0.000000 
#    y 0.000000 1.698470 0.000000 
#    z 0.000000 0.000000 1.631690 
# 
# From -- ./inp_files/26669.got.cif
#   From: 2010.03.12/outbox.cif.g09.slc.cpg/sg65_14_cif.got.tgz:26669.got - 2010.04.10 20:52:16.
