data_PCOD8270603
_publ_section_title
;
Structure prediction by ZEFSAII (Michael W. Deem and Ramdas Pophale) SiO2 
 PCOD8270603
Probable space group: C M M M
;
_chemical_formula_sum "Si O2"
_cell_formula_units_Z 88
_cell_length_a 18.989523
_cell_length_b 18.485183
_cell_length_c 13.786780
_cell_angle_alpha 90.000000
_cell_angle_beta 90.000000
_cell_angle_gamma 90.000000
_cell_volume 4839.501799
_symmetry_space_group_name_H-M "C M M M"
_symmetry_group_IT_number 65
_symmetry_cell_setting 'orthorhombic'
loop_
_space_group_symop_operation_xyz
x,y,z
-x,-y,z
x,-y,-z
-x,y,-z
-x,-y,-z
x,y,-z
-x,y,z
x,-y,z
1/2+x,1/2+y,z
1/2-x,1/2-y,z
1/2+x,1/2-y,-z
1/2-x,1/2+y,-z
1/2-x,1/2-y,-z
1/2+x,1/2+y,-z
1/2-x,1/2+y,z
1/2+x,1/2-y,z
loop_
_atom_site_type_symbol
_atom_site_label
_atom_site_fract_x
_atom_site_fract_y
_atom_site_fract_z
Si Si1 0.345213 0.082543 0.692536
Si Si2 0.918618 0.709537 0.777194
Si Si3 0.684586 0.300011 0.112401
Si Si4 0.919312 0.821992 0.388304
Si Si5 0.314771 0.583049 0.727524
Si Si6 0.578063 0.085408 0.500000
O O1 0.377371 0.133159 0.776469
O O2 0.261967 0.091007 0.680210
O O3 0.380089 0.110965 0.593861
O O4 0.365800 0.000000 0.717448
O O5 0.887263 0.757048 0.864727
O O6 0.905819 0.750326 0.675029
O O7 0.000000 0.695348 0.798907
O O8 0.750000 0.250000 0.144903
O O9 0.684467 0.374864 0.170791
O O10 0.688274 0.320166 0.000000
O O11 0.900765 0.804217 0.500000
O O12 0.870489 0.886665 0.349759
O O13 0.000000 0.847755 0.377536
O O14 0.333519 0.500000 0.749665
O O15 0.500000 0.121193 0.500000
O O16 0.570997 0.000000 0.500000
#
# Coordination Sequence:
#
# PCOD8270603 Si02
#       6
#    16  16  16  16  16   8
#     4  10  20  33  50  78 114 149 186 224 263 315
#     4  10  20  35  56  81 109 143 183 224 270 323
#     4  10  20  38  60  80 105 138 178 224 275 327
#     4   9  20  36  54  79 110 147 187 225 269 320
#     4  10  21  36  56  83 112 142 181 225 271 325
#     4   9  18  30  44  67 103 149 190 219 255 301
#
# _framework density 18.183689999999999
#
# number of rings (size 3 to 8) (size 9 to 14) (size 15 to 20)
#    0.000    2.273    1.818    0.545    2.545    2.545 
#    0.000    1.818    0.000    0.545    0.000    6.364 
#    0.000    0.000    0.000    0.000    0.000    0.000 
#
# Total GULP energy -545649.462497 kJ/mol
# GULP energy per Si atom -12401.124148 kJ/mol
# Density = 1.814230 g / cm^3
# Si number density = 18.183690 Si / 1000 Ang^3
#
#
#
# Elastic Constant Matrix: (Units=GPa)
#
#
# Indices 1 2 3 4 5 6 
#
# 1 102.4069 47.1466 25.5908 0.0000 0.0000 0.0000
# 2 47.1466 93.3935 22.3271 0.0000 0.0000 0.0000
# 3 25.5908 22.3271 68.8471 0.0000 0.0000 0.0000
# 4 0.0000 0.0000 0.0000 17.4055 0.0000 0.0000
# 5 0.0000 0.0000 0.0000 0.0000 25.1586 0.0000
# 6 0.0000 0.0000 0.0000 0.0000 0.0000 25.8488
#
#
#
# Elastic Compliance Matrix: (Units=1/GPa)
#
#
# Indices 1 2 3 4 5 6 
#
# 1 0.013267 -0.005982 -0.002991 0.000000 0.000000 0.000000
# 2 -0.005982 0.014305 -0.002415 0.000000 0.000000 0.000000
# 3 -0.002991 -0.002415 0.016420 0.000000 0.000000 0.000000
# 4 0.000000 0.000000 0.000000 0.057453 0.000000 0.000000
# 5 0.000000 0.000000 0.000000 0.000000 0.039748 0.000000
# 6 0.000000 0.000000 0.000000 0.000000 0.000000 0.038687
#
#
# Mechanical properties :
#
#
# Convention : Reuss Voigt Hill
#
# Bulk Modulus (GPa) = 47.13908 50.53073 48.83490
# Shear Modulus (GPa) = 23.84045 24.98811 24.41428
#
# Velocity S-wave (km/s) = 3.62483 3.71105 3.66819
# Velocity P-wave (km/s) = 6.59540 6.79793 6.69743
#
# Compressibility (1/GPa) = 0.02121382
#
# Stress axis : x y z
#
# Youngs Moduli (GPa) = 75.37783 69.90721 60.90085
#
# Poissons Ratio (x) = 0.41819 0.18217
# Poissons Ratio (y) = 0.45091 0.14710
# Poissons Ratio (z) = 0.22547 0.16886
#
# Static dielectric constant tensor:
#      x y z
#    x 3.490930 0.000000 0.000000 
#    y 0.000000 3.306860 0.000000 
#    z 0.000000 0.000000 3.143320 
# 
# 
# High freq. dielectric constant tensor:
#      x y z
#    x 1.715520 0.000000 0.000000 
#    y 0.000000 1.704280 0.000000 
#    z 0.000000 0.000000 1.683520 
# 
# From -- ./inp_files/42482.got.cif
#   From: 2010.03.12/outbox.cif.g09.slc.cpg/sg65_22_cif.got.tgz:42482.got - 2010.04.10 20:52:16.
