data_PCOD8270347
_publ_section_title
;
Structure prediction by ZEFSAII (Michael W. Deem and Ramdas Pophale) SiO2 
 PCOD8270347
Probable space group: C M M M
;
_chemical_formula_sum "Si O2"
_cell_formula_units_Z 96
_cell_length_a 9.626087
_cell_length_b 18.347252
_cell_length_c 31.406177
_cell_angle_alpha 90.000000
_cell_angle_beta 90.000000
_cell_angle_gamma 90.000000
_cell_volume 5546.715394
_symmetry_space_group_name_H-M "C M M M"
_symmetry_group_IT_number 65
_symmetry_cell_setting 'orthorhombic'
loop_
_space_group_symop_operation_xyz
x,y,z
-x,-y,z
x,-y,-z
-x,y,-z
-x,-y,-z
x,y,-z
-x,y,z
x,-y,z
1/2+x,1/2+y,z
1/2-x,1/2-y,z
1/2+x,1/2-y,-z
1/2-x,1/2+y,-z
1/2-x,1/2-y,-z
1/2+x,1/2+y,-z
1/2-x,1/2+y,z
1/2+x,1/2-y,z
loop_
_atom_site_type_symbol
_atom_site_label
_atom_site_fract_x
_atom_site_fract_y
_atom_site_fract_z
Si Si1 0.339164 0.679782 0.951699
Si Si2 0.665060 0.081648 0.454922
Si Si3 0.835923 0.080803 0.875128
Si Si4 0.156438 0.587182 0.363849
Si Si5 0.339812 0.583932 0.713562
Si Si6 0.336459 0.323331 0.796377
O O1 0.500000 0.700451 0.944920
O O2 0.250000 0.750000 0.939753
O O3 0.293143 0.614748 0.920584
O O4 0.310431 0.653983 0.000000
O O5 0.710826 0.121138 0.500000
O O6 0.500000 0.078156 0.452660
O O7 0.712883 0.118219 0.409944
O O8 0.725262 0.000000 0.456821
O O9 0.781370 0.131538 0.837031
O O10 0.000000 0.074124 0.871087
O O11 0.769390 0.000000 0.871885
O O12 0.160544 0.500000 0.366031
O O13 0.253606 0.616384 0.326096
O O14 0.000000 0.614489 0.354650
O O15 0.500000 0.591995 0.701403
O O16 0.300980 0.500000 0.722812
O O17 0.301347 0.629292 0.755098
O O18 0.500000 0.305562 0.799796
O O19 0.250000 0.250000 0.793852
#
# Coordination Sequence:
#
# PCOD8270347 Si02
#       6
#    16  16  16  16  16  16
#     4   9  17  29  47  71  97 125 155 187 224 264
#     4   7   9  14  26  46  73 104 136 168 202 243
#     4   9  17  30  49  71  93 118 151 189 224 261
#     4   8  13  21  35  56  80 107 140 176 212 249
#     4   9  17  29  44  61  83 112 144 176 213 260
#     4  10  20  33  49  67  87 114 147 182 221 264
#
# _framework density 17.307539999999999
#
# number of rings (size 3 to 8) (size 9 to 14) (size 15 to 20)
#    0.000    3.333    0.000    2.500    0.000    3.000 
#    0.000    1.667    0.000    3.500    0.000    5.833 
#    0.000    0.667    0.000    1.500    0.000    4.000 
#
# Total GULP energy -594658.382077 kJ/mol
# GULP energy per Si atom -12388.716293 kJ/mol
# Density = 1.726815 g / cm^3
# Si number density = 17.307540 Si / 1000 Ang^3
#
#
#
# Elastic Constant Matrix: (Units=GPa)
#
#
# Indices 1 2 3 4 5 6 
#
# 1 39.8513 35.0854 51.0779 0.0000 0.0000 0.0000
# 2 35.0854 82.0276 66.0208 0.0000 0.0000 0.0000
# 3 51.0779 66.0208 170.1929 0.0000 0.0000 0.0000
# 4 0.0000 0.0000 0.0000 3.7790 0.0000 0.0000
# 5 0.0000 0.0000 0.0000 0.0000 21.6253 0.0000
# 6 0.0000 0.0000 0.0000 0.0000 0.0000 18.8567
#
#
#
# Elastic Compliance Matrix: (Units=1/GPa)
#
#
# Indices 1 2 3 4 5 6 
#
# 1 0.049048 -0.013277 -0.009570 0.000000 0.000000 0.000000
# 2 -0.013277 0.021319 -0.004285 0.000000 0.000000 0.000000
# 3 -0.009570 -0.004285 0.010410 0.000000 0.000000 0.000000
# 4 0.000000 0.000000 0.000000 0.264621 0.000000 0.000000
# 5 0.000000 0.000000 0.000000 0.000000 0.046242 0.000000
# 6 0.000000 0.000000 0.000000 0.000000 0.000000 0.053032
#
#
# Mechanical properties :
#
#
# Convention : Reuss Voigt Hill
#
# Bulk Modulus (GPa) = 37.71715 66.27111 51.99413
# Shear Modulus (GPa) = 9.84690 18.17804 14.01247
#
# Velocity S-wave (km/s) = 2.38783 3.24434 2.84846
# Velocity P-wave (km/s) = 5.42604 7.23932 6.39725
#
# Compressibility (1/GPa) = 0.02651314
#
# Stress axis : x y z
#
# Youngs Moduli (GPa) = 20.38809 46.90647 96.05972
#
# Poissons Ratio (x) = 0.62277 0.91929
# Poissons Ratio (y) = 0.27069 0.41166
# Poissons Ratio (z) = 0.19511 0.20101
#
# Static dielectric constant tensor:
#      x y z
#    x 2.931450 0.000000 0.000000 
#    y 0.000000 2.925030 0.000000 
#    z 0.000000 0.000000 3.764030 
# 
# 
# High freq. dielectric constant tensor:
#      x y z
#    x 1.627980 0.000000 0.000000 
#    y 0.000000 1.624700 0.000000 
#    z 0.000000 0.000000 1.698110 
# 
# From -- ./inp_files/74353.got.cif
#   From: 2010.03.12/outbox.cif.g09.slc.cpg/sg65_38_cif.got.tgz:74353.got - 2010.04.10 20:52:16.
