data_PCOD8270861
_publ_section_title
;
Structure prediction by ZEFSAII (Michael W. Deem and Ramdas Pophale) SiO2 
 PCOD8270861
Probable space group: C M M M
;
_chemical_formula_sum "Si O2"
_cell_formula_units_Z 88
_cell_length_a 27.272901
_cell_length_b 8.163836
_cell_length_c 22.295197
_cell_angle_alpha 90.000000
_cell_angle_beta 90.000000
_cell_angle_gamma 90.000000
_cell_volume 4964.058854
_symmetry_space_group_name_H-M "C M M M"
_symmetry_group_IT_number 65
_symmetry_cell_setting 'orthorhombic'
loop_
_space_group_symop_operation_xyz
x,y,z
-x,-y,z
x,-y,-z
-x,y,-z
-x,-y,-z
x,y,-z
-x,y,z
x,-y,z
1/2+x,1/2+y,z
1/2-x,1/2-y,z
1/2+x,1/2-y,-z
1/2-x,1/2+y,-z
1/2-x,1/2-y,-z
1/2+x,1/2+y,-z
1/2-x,1/2+y,z
1/2+x,1/2-y,z
loop_
_atom_site_type_symbol
_atom_site_label
_atom_site_fract_x
_atom_site_fract_y
_atom_site_fract_z
Si Si1 0.696940 0.192688 0.933218
Si Si2 0.196595 0.312156 0.296658
Si Si3 0.943380 0.000000 0.429313
Si Si4 0.445248 0.187041 0.233993
Si Si5 0.400114 0.807780 0.638899
Si Si6 0.649257 0.685216 0.180986
O O1 0.750000 0.250000 0.910484
O O2 0.656553 0.257462 0.887132
O O3 0.694999 0.000000 0.934668
O O4 0.686242 0.263793 0.000000
O O5 0.197110 0.500000 0.308955
O O6 0.250000 0.250000 0.314788
O O7 0.153899 0.244223 0.340273
O O8 0.183696 0.283450 0.227001
O O9 0.918353 0.171025 0.408018
O O10 0.938210 0.000000 0.500000
O O11 0.000000 0.000000 0.408765
O O12 0.500000 0.249033 0.220030
O O13 0.436187 0.202450 0.304640
O O14 0.408045 0.296391 0.195787
O O15 0.437785 0.000000 0.213668
O O16 0.400138 0.000000 0.614929
O O17 0.665755 0.500000 0.188110
#
# Coordination Sequence:
#
# PCOD8270861 Si02
#       6
#    16  16   8  16  16  16
#     4  10  20  34  51  69  94 132 172 211 256 307
#     4  10  20  33  53  81 108 141 177 217 271 321
#     4  11  24  38  58  86 112 146 187 227 270 318
#     4   9  18  33  53  76 103 135 171 214 266 318
#     4   9  20  37  56  82 114 146 179 224 273 324
#     4  11  21  31  47  74 108 136 168 214 261 314
#
# _framework density 17.727429999999998
#
# number of rings (size 3 to 8) (size 9 to 14) (size 15 to 20)
#    0.000    2.091    0.000    4.909    6.364    2.909 
#    0.000    0.909    0.000    1.091    0.000    3.818 
#    0.000    0.000    0.000    0.000    0.000    0.000 
#
# Total GULP energy -545366.727564 kJ/mol
# GULP energy per Si atom -12394.698354 kJ/mol
# Density = 1.768708 g / cm^3
# Si number density = 17.727430 Si / 1000 Ang^3
#
#
#
# Elastic Constant Matrix: (Units=GPa)
#
#
# Indices 1 2 3 4 5 6 
#
# 1 110.0007 36.2955 45.6563 0.0000 0.0000 0.0000
# 2 36.2955 62.1697 33.0675 0.0000 0.0000 0.0000
# 3 45.6563 33.0675 78.0184 0.0000 0.0000 0.0000
# 4 0.0000 0.0000 0.0000 27.9359 0.0000 0.0000
# 5 0.0000 0.0000 0.0000 0.0000 23.5694 0.0000
# 6 0.0000 0.0000 0.0000 0.0000 0.0000 30.6315
#
#
#
# Elastic Compliance Matrix: (Units=1/GPa)
#
#
# Indices 1 2 3 4 5 6 
#
# 1 0.012933 -0.004551 -0.005640 0.000000 0.000000 0.000000
# 2 -0.004551 0.022368 -0.006817 0.000000 0.000000 0.000000
# 3 -0.005640 -0.006817 0.019007 0.000000 0.000000 0.000000
# 4 0.000000 0.000000 0.000000 0.035796 0.000000 0.000000
# 5 0.000000 0.000000 0.000000 0.000000 0.042428 0.000000
# 6 0.000000 0.000000 0.000000 0.000000 0.000000 0.032646
#
#
# Mechanical properties :
#
#
# Convention : Reuss Voigt Hill
#
# Bulk Modulus (GPa) = 49.27873 53.35861 51.31867
# Shear Modulus (GPa) = 24.27673 25.43867 24.85770
#
# Velocity S-wave (km/s) = 3.70462 3.79223 3.74868
# Velocity P-wave (km/s) = 6.79391 7.02421 6.91002
#
# Compressibility (1/GPa) = 0.02029273
#
# Stress axis : x y z
#
# Youngs Moduli (GPa) = 77.32033 44.70690 52.61147
#
# Poissons Ratio (x) = 0.20346 0.29671
# Poissons Ratio (y) = 0.35188 0.35867
# Poissons Ratio (z) = 0.43606 0.30478
#
# Static dielectric constant tensor:
#      x y z
#    x 3.180320 0.000000 0.000000 
#    y 0.000000 3.395830 0.000000 
#    z 0.000000 0.000000 3.301250 
# 
# 
# High freq. dielectric constant tensor:
#      x y z
#    x 1.686110 0.000000 0.000000 
#    y 0.000000 1.698110 0.000000 
#    z 0.000000 0.000000 1.656260 
# 
# From -- ./inp_files/65747.got.cif
#   From: 2010.03.12/outbox.cif.g09.slc.cpg/sg65_33_cif.got.tgz:65747.got - 2010.04.10 20:52:16.
