data_PCOD8270575
_publ_section_title
;
Structure prediction by ZEFSAII (Michael W. Deem and Ramdas Pophale) SiO2 
 PCOD8270575
Probable space group: C M M M
;
_chemical_formula_sum "Si O2"
_cell_formula_units_Z 72
_cell_length_a 26.767608
_cell_length_b 9.022830
_cell_length_c 16.132067
_cell_angle_alpha 90.000000
_cell_angle_beta 90.000000
_cell_angle_gamma 90.000000
_cell_volume 3896.209990
_symmetry_space_group_name_H-M "C M M M"
_symmetry_group_IT_number 65
_symmetry_cell_setting 'orthorhombic'
loop_
_space_group_symop_operation_xyz
x,y,z
-x,-y,z
x,-y,-z
-x,y,-z
-x,-y,-z
x,y,-z
-x,y,z
x,-y,z
1/2+x,1/2+y,z
1/2-x,1/2-y,z
1/2+x,1/2-y,-z
1/2-x,1/2+y,-z
1/2-x,1/2-y,-z
1/2+x,1/2+y,-z
1/2-x,1/2+y,z
1/2+x,1/2-y,z
loop_
_atom_site_type_symbol
_atom_site_label
_atom_site_fract_x
_atom_site_fract_y
_atom_site_fract_z
Si Si1 0.598152 0.173581 0.337701
Si Si2 0.300045 0.829526 0.250543
Si Si3 0.641076 0.172394 0.906820
Si Si4 0.556848 0.329910 0.181161
Si Si5 0.942097 0.175622 0.500000
O O1 0.656207 0.202969 0.316353
O O2 0.563700 0.236321 0.264770
O O3 0.585596 0.258975 0.420931
O O4 0.587009 0.000000 0.348284
O O5 0.250000 0.750000 0.280054
O O6 0.317081 0.774410 0.158850
O O7 0.286529 0.000000 0.246778
O O8 0.590624 0.264939 0.892585
O O9 0.628473 0.000000 0.890978
O O10 0.660678 0.200679 0.000000
O O11 0.500000 0.316377 0.151334
O O12 0.571566 0.500000 0.198880
O O13 0.000000 0.223487 0.500000
O O14 0.936476 0.000000 0.500000
#
# Coordination Sequence:
#
# PCOD8270575 Si02
#       5
#    16  16  16  16   8
#     4  10  21  37  56  79 107 139 177 215 253 307
#     4   9  19  35  55  78 103 134 173 217 263 310
#     4   9  19  35  52  73 103 137 176 220 262 311
#     4  10  20  33  50  74 105 139 175 217 264 312
#     4  11  23  37  56  85 116 141 170 211 256 301
#
# _framework density 18.479496000000001
#
# number of rings (size 3 to 8) (size 9 to 14) (size 15 to 20)
#    0.000    2.333    0.000    3.667    0.000   11.111 
#    0.000    2.778    0.000    0.000    0.000    0.000 
#    0.000    0.000    0.000    0.000    0.000    0.000 
#
# Total GULP energy -446436.991823 kJ/mol
# GULP energy per Si atom -12401.027551 kJ/mol
# Density = 1.843744 g / cm^3
# Si number density = 18.479496 Si / 1000 Ang^3
#
#
#
# Elastic Constant Matrix: (Units=GPa)
#
#
# Indices 1 2 3 4 5 6 
#
# 1 104.5355 51.5040 33.0686 0.0000 0.0000 0.0000
# 2 51.5040 82.3262 34.7058 0.0000 0.0000 0.0000
# 3 33.0686 34.7058 101.7951 0.0000 0.0000 0.0000
# 4 0.0000 0.0000 0.0000 12.3271 0.0000 0.0000
# 5 0.0000 0.0000 0.0000 0.0000 14.5014 0.0000
# 6 0.0000 0.0000 0.0000 0.0000 0.0000 34.3713
#
#
#
# Elastic Compliance Matrix: (Units=1/GPa)
#
#
# Indices 1 2 3 4 5 6 
#
# 1 0.014117 -0.008057 -0.001839 0.000000 0.000000 0.000000
# 2 -0.008057 0.018783 -0.003787 0.000000 0.000000 0.000000
# 3 -0.001839 -0.003787 0.011712 0.000000 0.000000 0.000000
# 4 0.000000 0.000000 0.000000 0.081122 0.000000 0.000000
# 5 0.000000 0.000000 0.000000 0.000000 0.068959 0.000000
# 6 0.000000 0.000000 0.000000 0.000000 0.000000 0.029094
#
#
# Mechanical properties :
#
#
# Convention : Reuss Voigt Hill
#
# Bulk Modulus (GPa) = 57.97862 58.57929 58.27895
# Shear Modulus (GPa) = 19.46261 23.53185 21.49723
#
# Velocity S-wave (km/s) = 3.24883 3.57235 3.41442
# Velocity P-wave (km/s) = 6.74654 6.98455 6.86658
#
# Compressibility (1/GPa) = 0.01724774
#
# Stress axis : x y z
#
# Youngs Moduli (GPa) = 70.83454 53.23831 85.38100
#
# Poissons Ratio (x) = 0.42892 0.15704
# Poissons Ratio (y) = 0.57069 0.32332
# Poissons Ratio (z) = 0.13029 0.20160
#
# Static dielectric constant tensor:
#      x y z
#    x 3.323140 0.000000 0.000000 
#    y 0.000000 3.499550 0.000000 
#    z 0.000000 0.000000 3.461110 
# 
# 
# High freq. dielectric constant tensor:
#      x y z
#    x 1.711210 0.000000 0.000000 
#    y 0.000000 1.725420 0.000000 
#    z 0.000000 0.000000 1.710590 
# 
# From -- ./inp_files/36520.got.cif
#   From: 2010.03.12/outbox.cif.g09.slc.cpg/sg65_19_cif.got.tgz:36520.got - 2010.04.10 20:52:16.
