data_PCOD8270143
_publ_section_title
;
Structure prediction by ZEFSAII (Michael W. Deem and Ramdas Pophale) SiO2 
 PCOD8270143
Probable space group: C M M M
;
_chemical_formula_sum "Si O2"
_cell_formula_units_Z 72
_cell_length_a 9.572812
_cell_length_b 32.246924
_cell_length_c 13.780931
_cell_angle_alpha 90.000000
_cell_angle_beta 90.000000
_cell_angle_gamma 90.000000
_cell_volume 4254.087145
_symmetry_space_group_name_H-M "C M M M"
_symmetry_group_IT_number 65
_symmetry_cell_setting 'orthorhombic'
loop_
_space_group_symop_operation_xyz
x,y,z
-x,-y,z
x,-y,-z
-x,y,-z
-x,-y,-z
x,y,-z
-x,y,z
x,-y,z
1/2+x,1/2+y,z
1/2-x,1/2-y,z
1/2+x,1/2-y,-z
1/2-x,1/2+y,-z
1/2-x,1/2-y,-z
1/2+x,1/2+y,-z
1/2-x,1/2+y,z
1/2+x,1/2-y,z
loop_
_atom_site_type_symbol
_atom_site_label
_atom_site_fract_x
_atom_site_fract_y
_atom_site_fract_z
Si Si1 0.500000 0.687023 0.114754
Si Si2 0.500000 0.221294 0.886031
Si Si3 0.711910 0.152825 0.114311
Si Si4 0.158654 0.951627 0.388490
Si Si5 0.162216 0.000000 0.114931
Si Si6 0.158790 0.430737 0.782509
O O1 0.500000 0.733058 0.163130
O O2 0.369991 0.659504 0.147850
O O3 0.500000 0.692889 0.000000
O O4 0.364695 0.195198 0.854740
O O5 0.500000 0.227999 0.000000
O O6 0.647944 0.114376 0.170812
O O7 0.694464 0.144286 0.000000
O O8 0.198173 0.943697 0.500000
O O9 0.270277 0.926948 0.323431
O O10 0.000000 0.936638 0.368229
O O11 0.171514 0.000000 0.361907
O O12 0.242579 0.040538 0.151789
O O13 0.000000 0.000000 0.150876
O O14 0.167104 0.000000 0.000000
O O15 0.000000 0.448295 0.774126
#
# Coordination Sequence:
#
# PCOD8270143 Si02
#       6
#     8   8  16  16   8  16
#     4   9  18  30  50  73  96 135 182 217 252 299
#     4   9  16  32  50  69 100 137 174 213 260 305
#     4  10  20  32  48  73 106 142 175 213 253 297
#     4   9  19  37  59  78  98 128 168 216 267 311
#     4  11  25  39  52  69  98 145 189 220 244 291
#     4  12  23  35  52  77 107 138 173 212 262 308
#
# _framework density 16.924900000000001
#
# number of rings (size 3 to 8) (size 9 to 14) (size 15 to 20)
#    0.000    1.889    2.222    3.000    3.111    4.889 
#    0.000    1.111    0.000    0.000    0.000    0.000 
#    0.000    5.333    0.000    0.000    0.000    0.000 
#
# Total GULP energy -446304.203949 kJ/mol
# GULP energy per Si atom -12397.338999 kJ/mol
# Density = 1.688638 g / cm^3
# Si number density = 16.924900 Si / 1000 Ang^3
#
#
#
# Elastic Constant Matrix: (Units=GPa)
#
#
# Indices 1 2 3 4 5 6 
#
# 1 137.6385 24.1423 38.5208 0.0000 0.0000 0.0000
# 2 24.1423 62.7708 23.3189 0.0000 0.0000 0.0000
# 3 38.5208 23.3189 64.4591 0.0000 0.0000 0.0000
# 4 0.0000 0.0000 0.0000 6.7959 0.0000 0.0000
# 5 0.0000 0.0000 0.0000 0.0000 21.0115 0.0000
# 6 0.0000 0.0000 0.0000 0.0000 0.0000 37.4877
#
#
#
# Elastic Compliance Matrix: (Units=1/GPa)
#
#
# Indices 1 2 3 4 5 6 
#
# 1 0.008873 -0.001667 -0.004700 0.000000 0.000000 0.000000
# 2 -0.001667 0.018718 -0.005775 0.000000 0.000000 0.000000
# 3 -0.004700 -0.005775 0.020411 0.000000 0.000000 0.000000
# 4 0.000000 0.000000 0.000000 0.147147 0.000000 0.000000
# 5 0.000000 0.000000 0.000000 0.000000 0.047593 0.000000
# 6 0.000000 0.000000 0.000000 0.000000 0.000000 0.026675
#
#
# Mechanical properties :
#
#
# Convention : Reuss Voigt Hill
#
# Bulk Modulus (GPa) = 42.16059 48.53693 45.34876
# Shear Modulus (GPa) = 16.57789 24.98478 20.78134
#
# Velocity S-wave (km/s) = 3.13309 3.84632 3.50788
# Velocity P-wave (km/s) = 6.16869 6.96173 6.57717
#
# Compressibility (1/GPa) = 0.02371883
#
# Stress axis : x y z
#
# Youngs Moduli (GPa) = 112.70109 53.42592 48.99224
#
# Poissons Ratio (x) = 0.08905 0.23024
# Poissons Ratio (y) = 0.18785 0.28294
# Poissons Ratio (z) = 0.52964 0.30855
#
# Static dielectric constant tensor:
#      x y z
#    x 3.745240 0.000000 0.000000 
#    y 0.000000 3.077400 0.000000 
#    z 0.000000 0.000000 2.919190 
# 
# 
# High freq. dielectric constant tensor:
#      x y z
#    x 1.674560 0.000000 0.000000 
#    y 0.000000 1.641020 0.000000 
#    z 0.000000 0.000000 1.611480 
# 
# From -- ./inp_files/37045.got.cif
#   From: 2010.03.12/outbox.cif.g09.slc.cpg/sg65_19_cif.got.tgz:37045.got - 2010.04.10 20:52:16.
