data_PCOD8270501
_publ_section_title
;
Structure prediction by ZEFSAII (Michael W. Deem and Ramdas Pophale) SiO2 
 PCOD8270501
Probable space group: C M M M
;
_chemical_formula_sum "Si O2"
_cell_formula_units_Z 96
_cell_length_a 9.121138
_cell_length_b 19.590752
_cell_length_c 30.048780
_cell_angle_alpha 90.000000
_cell_angle_beta 90.000000
_cell_angle_gamma 90.000000
_cell_volume 5369.415071
_symmetry_space_group_name_H-M "C M M M"
_symmetry_group_IT_number 65
_symmetry_cell_setting 'orthorhombic'
loop_
_space_group_symop_operation_xyz
x,y,z
-x,-y,z
x,-y,-z
-x,y,-z
-x,-y,-z
x,y,-z
-x,y,z
x,-y,z
1/2+x,1/2+y,z
1/2-x,1/2-y,z
1/2+x,1/2-y,-z
1/2-x,1/2+y,-z
1/2-x,1/2-y,-z
1/2+x,1/2+y,-z
1/2-x,1/2+y,z
1/2+x,1/2-y,z
loop_
_atom_site_type_symbol
_atom_site_label
_atom_site_fract_x
_atom_site_fract_y
_atom_site_fract_z
Si Si1 0.667362 0.079536 0.449367
Si Si2 0.171942 0.180698 0.285377
Si Si3 0.335804 0.418801 0.133324
Si Si4 0.670201 0.080392 0.221184
Si Si5 0.835213 0.418814 0.950953
Si Si6 0.169745 0.817898 0.611289
O O1 0.698780 0.102143 0.500000
O O2 0.500000 0.096461 0.436597
O O3 0.775416 0.117980 0.416481
O O4 0.699121 0.000000 0.443601
O O5 0.250000 0.250000 0.269121
O O6 0.242266 0.116715 0.260482
O O7 0.203096 0.168000 0.337178
O O8 0.000000 0.185738 0.274734
O O9 0.500000 0.389909 0.139405
O O10 0.338039 0.500000 0.131212
O O11 0.235549 0.394319 0.174193
O O12 0.269675 0.388573 0.087383
O O13 0.500000 0.100567 0.222797
O O14 0.693168 0.000000 0.227617
O O15 0.835476 0.500000 0.948389
O O16 0.000000 0.391812 0.942850
O O17 0.779434 0.395436 0.000000
O O18 0.250000 0.750000 0.594462
O O19 0.000000 0.806995 0.602153
#
# Coordination Sequence:
#
# PCOD8270501 Si02
#       6
#    16  16  16  16  16  16
#     4   9  19  36  56  78 106 139 172 207 248 293
#     4  10  21  37  55  75 101 131 165 206 251 298
#     4   9  16  25  38  58  86 119 155 198 245 290
#     4  10  20  33  50  72  98 130 167 204 246 298
#     4   8  13  21  33  50  76 113 154 193 236 289
#     4  10  21  36  55  78 103 133 168 207 250 296
#
# _framework density 17.879041999999998
#
# number of rings (size 3 to 8) (size 9 to 14) (size 15 to 20)
#    0.000    2.667    0.000    3.000    0.000    7.000 
#    0.000    5.833    0.000    0.000    0.000    0.000 
#    0.000    0.667    0.000    2.500    0.000    5.833 
#
# Total GULP energy -595185.034595 kJ/mol
# GULP energy per Si atom -12399.688221 kJ/mol
# Density = 1.783835 g / cm^3
# Si number density = 17.879042 Si / 1000 Ang^3
#
#
#
# Elastic Constant Matrix: (Units=GPa)
#
#
# Indices 1 2 3 4 5 6 
#
# 1 125.5740 42.6276 69.0765 0.0000 0.0000 0.0000
# 2 42.6276 46.4709 44.7107 0.0000 0.0000 0.0000
# 3 69.0765 44.7107 99.4474 0.0000 0.0000 0.0000
# 4 0.0000 0.0000 0.0000 2.0474 0.0000 0.0000
# 5 0.0000 0.0000 0.0000 0.0000 37.5947 0.0000
# 6 0.0000 0.0000 0.0000 0.0000 0.0000 27.6913
#
#
#
# Elastic Compliance Matrix: (Units=1/GPa)
#
#
# Indices 1 2 3 4 5 6 
#
# 1 0.013790 -0.006051 -0.006858 0.000000 0.000000 0.000000
# 2 -0.006051 0.040578 -0.014040 0.000000 0.000000 0.000000
# 3 -0.006858 -0.014040 0.021132 0.000000 0.000000 0.000000
# 4 0.000000 0.000000 0.000000 0.488420 0.000000 0.000000
# 5 0.000000 0.000000 0.000000 0.000000 0.026599 0.000000
# 6 0.000000 0.000000 0.000000 0.000000 0.000000 0.036112
#
#
# Mechanical properties :
#
#
# Convention : Reuss Voigt Hill
#
# Bulk Modulus (GPa) = 46.29521 64.92465 55.60993
# Shear Modulus (GPa) = 7.27028 21.13852 14.20440
#
# Velocity S-wave (km/s) = 2.01871 3.44220 2.82170
# Velocity P-wave (km/s) = 5.60209 7.22429 6.46428
#
# Compressibility (1/GPa) = 0.02160051
#
# Stress axis : x y z
#
# Youngs Moduli (GPa) = 72.51541 24.64374 47.32256
#
# Poissons Ratio (x) = 0.14913 0.32454
# Poissons Ratio (y) = 0.43882 0.66442
# Poissons Ratio (z) = 0.49731 0.34601
#
# Static dielectric constant tensor:
#      x y z
#    x 3.464670 0.000000 0.000000 
#    y 0.000000 2.898460 0.000000 
#    z 0.000000 0.000000 3.448150 
# 
# 
# High freq. dielectric constant tensor:
#      x y z
#    x 1.703740 0.000000 0.000000 
#    y 0.000000 1.646920 0.000000 
#    z 0.000000 0.000000 1.700720 
# 
# From -- ./inp_files/73156.got.cif
#   From: 2010.03.12/outbox.cif.g09.slc.cpg/sg65_37_cif.got.tgz:73156.got - 2010.04.10 20:52:16.
