data_PCOD8270230
_publ_section_title
;
Structure prediction by ZEFSAII (Michael W. Deem and Ramdas Pophale) SiO2 
 PCOD8270230
Probable space group: C M M M
;
_chemical_formula_sum "Si O2"
_cell_formula_units_Z 80
_cell_length_a 18.353994
_cell_length_b 7.649798
_cell_length_c 28.186886
_cell_angle_alpha 90.000000
_cell_angle_beta 90.000000
_cell_angle_gamma 90.000000
_cell_volume 3957.561311
_symmetry_space_group_name_H-M "C M M M"
_symmetry_group_IT_number 65
_symmetry_cell_setting 'orthorhombic'
loop_
_space_group_symop_operation_xyz
x,y,z
-x,-y,z
x,-y,-z
-x,y,-z
-x,-y,-z
x,y,-z
-x,y,z
x,-y,z
1/2+x,1/2+y,z
1/2-x,1/2-y,z
1/2+x,1/2-y,-z
1/2-x,1/2+y,-z
1/2-x,1/2-y,-z
1/2+x,1/2+y,-z
1/2-x,1/2+y,z
1/2+x,1/2-y,z
loop_
_atom_site_type_symbol
_atom_site_label
_atom_site_fract_x
_atom_site_fract_y
_atom_site_fract_z
Si Si1 0.585557 0.701272 0.123059
Si Si2 0.586155 0.000000 0.052653
Si Si3 0.666048 0.293845 0.398203
Si Si4 0.417589 0.708832 0.307664
Si Si5 0.165819 0.795666 0.783379
Si Si6 0.333704 0.295222 0.500000
O O1 0.500000 0.720191 0.133351
O O2 0.605736 0.500000 0.110921
O O3 0.627699 0.774778 0.169046
O O4 0.611191 0.823683 0.079636
O O5 0.500000 0.000000 0.048552
O O6 0.621194 0.000000 0.000000
O O7 0.656841 0.500000 0.398685
O O8 0.750000 0.250000 0.389115
O O9 0.618174 0.213443 0.355711
O O10 0.636446 0.218965 0.449547
O O11 0.500000 0.777125 0.304296
O O12 0.414709 0.500000 0.308025
O O13 0.372873 0.786282 0.262947
O O14 0.250000 0.750000 0.783404
O O15 0.153338 0.000000 0.781901
O O16 0.347112 0.500000 0.500000
O O17 0.250000 0.250000 0.500000
#
# Coordination Sequence:
#
# PCOD8270230 Si02
#       6
#    16   8  16  16  16   8
#     4   9  18  33  53  78 107 140 176 215 258 305
#     4   9  18  32  54  84 112 140 175 216 260 302
#     4   9  16  27  45  66  90 122 157 201 244 293
#     4   9  17  30  47  67  94 126 160 198 248 303
#     4  10  20  32  50  74  96 128 164 205 249 303
#     4   8  14  24  39  63  89 115 155 196 242 290
#
# _framework density 20.214469000000001
#
# number of rings (size 3 to 8) (size 9 to 14) (size 15 to 20)
#    0.000    2.900    0.000    1.200    1.400    2.800 
#    0.000    2.500    0.000    5.400    0.000    0.000 
#    0.000    8.000    0.000    0.000    0.000    0.000 
#
# Total GULP energy -495617.450244 kJ/mol
# GULP energy per Si atom -12390.436256 kJ/mol
# Density = 2.016846 g / cm^3
# Si number density = 20.214469 Si / 1000 Ang^3
#
#
#
# Elastic Constant Matrix: (Units=GPa)
#
#
# Indices 1 2 3 4 5 6 
#
# 1 102.7520 12.9230 82.8889 0.0000 0.0000 0.0000
# 2 12.9230 45.3842 45.0035 0.0000 0.0000 0.0000
# 3 82.8889 45.0035 239.6946 0.0000 0.0000 0.0000
# 4 0.0000 0.0000 0.0000 5.9829 0.0000 0.0000
# 5 0.0000 0.0000 0.0000 0.0000 34.4758 0.0000
# 6 0.0000 0.0000 0.0000 0.0000 0.0000 18.5651
#
#
#
# Elastic Compliance Matrix: (Units=1/GPa)
#
#
# Indices 1 2 3 4 5 6 
#
# 1 0.013532 0.000967 -0.004861 0.000000 0.000000 0.000000
# 2 0.000967 0.027144 -0.005431 0.000000 0.000000 0.000000
# 3 -0.004861 -0.005431 0.006873 0.000000 0.000000 0.000000
# 4 0.000000 0.000000 0.000000 0.167143 0.000000 0.000000
# 5 0.000000 0.000000 0.000000 0.000000 0.029006 0.000000
# 6 0.000000 0.000000 0.000000 0.000000 0.000000 0.053865
#
#
# Mechanical properties :
#
#
# Convention : Reuss Voigt Hill
#
# Bulk Modulus (GPa) = 34.60326 74.38462 54.49394
# Shear Modulus (GPa) = 15.34473 28.27244 21.80859
#
# Velocity S-wave (km/s) = 2.75816 3.74388 3.28816
# Velocity P-wave (km/s) = 5.22480 7.45429 6.43680
#
# Compressibility (1/GPa) = 0.02889901
#
# Stress axis : x y z
#
# Youngs Moduli (GPa) = 73.89949 36.84055 145.50464
#
# Poissons Ratio (x) = -0.03563 0.70731
# Poissons Ratio (y) = -0.07147 0.79021
# Poissons Ratio (z) = 0.35923 0.20007
#
# Static dielectric constant tensor:
#      x y z
#    x 3.332420 0.000000 0.000000 
#    y 0.000000 3.496030 0.000000 
#    z 0.000000 0.000000 4.405210 
# 
# 
# High freq. dielectric constant tensor:
#      x y z
#    x 1.755260 0.000000 0.000000 
#    y 0.000000 1.769560 0.000000 
#    z 0.000000 0.000000 1.807810 
# 
# From -- ./inp_files/70828.got.cif
#   From: 2010.03.12/outbox.cif.g09.slc.cpg/sg65_36_cif.got.tgz:70828.got - 2010.04.10 20:52:16.
