data_PCOD8270498
_publ_section_title
;
Structure prediction by ZEFSAII (Michael W. Deem and Ramdas Pophale) SiO2 
 PCOD8270498
Probable space group: C M M M
;
_chemical_formula_sum "Si O2"
_cell_formula_units_Z 88
_cell_length_a 9.073058
_cell_length_b 17.970967
_cell_length_c 28.976082
_cell_angle_alpha 90.000000
_cell_angle_beta 90.000000
_cell_angle_gamma 90.000000
_cell_volume 4724.597283
_symmetry_space_group_name_H-M "C M M M"
_symmetry_group_IT_number 65
_symmetry_cell_setting 'orthorhombic'
loop_
_space_group_symop_operation_xyz
x,y,z
-x,-y,z
x,-y,-z
-x,y,-z
-x,-y,-z
x,y,-z
-x,y,z
x,-y,z
1/2+x,1/2+y,z
1/2-x,1/2-y,z
1/2+x,1/2-y,-z
1/2-x,1/2+y,-z
1/2-x,1/2-y,-z
1/2+x,1/2+y,-z
1/2-x,1/2+y,z
1/2+x,1/2-y,z
loop_
_atom_site_type_symbol
_atom_site_label
_atom_site_fract_x
_atom_site_fract_y
_atom_site_fract_z
Si Si1 0.674443 0.329052 0.682227
Si Si2 0.324877 0.583389 0.048847
Si Si3 0.667115 0.088336 0.236990
Si Si4 0.172379 0.085321 0.409404
Si Si5 0.166332 0.588509 0.500000
Si Si6 0.666164 0.589005 0.852445
O O1 0.500000 0.320443 0.685919
O O2 0.750000 0.250000 0.686334
O O3 0.729461 0.381194 0.723069
O O4 0.722259 0.366479 0.634215
O O5 0.500000 0.580135 0.051212
O O6 0.261251 0.500000 0.046812
O O7 0.273849 0.620619 0.097604
O O8 0.275918 0.623625 0.000000
O O9 0.500000 0.116798 0.243294
O O10 0.727103 0.118319 0.187871
O O11 0.675680 0.000000 0.238862
O O12 0.254196 0.118804 0.454125
O O13 0.000000 0.091404 0.418969
O O14 0.218734 0.000000 0.400002
O O15 0.175382 0.500000 0.500000
O O16 0.000000 0.618111 0.500000
O O17 0.500000 0.617158 0.842227
O O18 0.667035 0.500000 0.854791
#
# Coordination Sequence:
#
# PCOD8270498 Si02
#       6
#    16  16  16  16   8  16
#     4  11  23  38  55  75 101 132 167 207 253 302
#     4   7   9  14  27  50  80 113 149 189 233 281
#     4  10  20  33  50  72  98 129 166 208 251 295
#     4   9  18  34  56  79 103 133 167 201 239 287
#     4   9  17  29  50  81 110 133 161 201 242 279
#     4   8  13  22  38  60  86 118 157 199 241 287
#
# _framework density 18.625926
#
# number of rings (size 3 to 8) (size 9 to 14) (size 15 to 20)
#    0.000    3.000    0.000    3.545    0.000    4.364 
#    0.000    2.273    0.000    0.545    0.000    3.818 
#    0.000    0.727    0.000    2.000    0.000    5.091 
#
# Total GULP energy -545148.067891 kJ/mol
# GULP energy per Si atom -12389.728816 kJ/mol
# Density = 1.858353 g / cm^3
# Si number density = 18.625926 Si / 1000 Ang^3
#
#
#
# Elastic Constant Matrix: (Units=GPa)
#
#
# Indices 1 2 3 4 5 6 
#
# 1 68.6430 17.8975 60.9642 0.0000 0.0000 0.0000
# 2 17.8975 17.7704 21.4255 0.0000 0.0000 0.0000
# 3 60.9642 21.4255 187.7333 0.0000 0.0000 0.0000
# 4 0.0000 0.0000 0.0000 -1.7491 0.0000 0.0000
# 5 0.0000 0.0000 0.0000 0.0000 12.5717 0.0000
# 6 0.0000 0.0000 0.0000 0.0000 0.0000 16.9156
#
#
#
# Elastic Compliance Matrix: (Units=1/GPa)
#
#
# Indices 1 2 3 4 5 6 
#
# 1 0.024369 -0.017396 -0.005928 0.000000 0.000000 0.000000
# 2 -0.017396 0.077670 -0.003215 0.000000 0.000000 0.000000
# 3 -0.005928 -0.003215 0.007619 0.000000 0.000000 0.000000
# 4 0.000000 0.000000 0.000000 -0.571714 0.000000 0.000000
# 5 0.000000 0.000000 0.000000 0.000000 0.079544 0.000000
# 6 0.000000 0.000000 0.000000 0.000000 0.000000 0.059117
#
#
# Mechanical properties :
#
#
# Convention : Reuss Voigt Hill
#
# Bulk Modulus (GPa) = 17.67426 52.74681 35.21053
# Shear Modulus (GPa) = -19.88404 17.13826 -1.37289
#
# Velocity S-wave (km/s) = -3.27088 3.03665 -0.85947
# Velocity P-wave (km/s) = 2.18064 6.37774 4.23794
#
# Compressibility (1/GPa) = 0.05657947
#
# Stress axis : x y z
#
# Youngs Moduli (GPa) = 41.03621 12.87499 131.25501
#
# Poissons Ratio (x) = 0.22397 0.77810
# Poissons Ratio (y) = 0.71385 0.42202
# Poissons Ratio (z) = 0.24327 0.04140
#
# Static dielectric constant tensor:
#      x y z
#    x 3.322410 0.000000 0.000000 
#    y 0.000000 2.869130 0.000000 
#    z 0.000000 0.000000 4.033250 
# 
# 
# High freq. dielectric constant tensor:
#      x y z
#    x 1.705390 0.000000 0.000000 
#    y 0.000000 1.657840 0.000000 
#    z 0.000000 0.000000 1.754890 
# 
# From -- ./inp_files/76597.got.cif
#   From: 2010.03.12/outbox.cif.g09.slc.cpg/sg65_39_cif.got.tgz:76597.got - 2010.04.10 20:52:16.
