data_PCOD8270138
_publ_section_title
;
Structure prediction by ZEFSAII (Michael W. Deem and Ramdas Pophale) SiO2 
 PCOD8270138
Probable space group: C M M M
;
_chemical_formula_sum "Si O2"
_cell_formula_units_Z 80
_cell_length_a 9.088367
_cell_length_b 27.543485
_cell_length_c 18.309995
_cell_angle_alpha 90.000000
_cell_angle_beta 90.000000
_cell_angle_gamma 90.000000
_cell_volume 4583.454994
_symmetry_space_group_name_H-M "C M M M"
_symmetry_group_IT_number 65
_symmetry_cell_setting 'orthorhombic'
loop_
_space_group_symop_operation_xyz
x,y,z
-x,-y,z
x,-y,-z
-x,y,-z
-x,-y,-z
x,y,-z
-x,y,z
x,-y,z
1/2+x,1/2+y,z
1/2-x,1/2-y,z
1/2+x,1/2-y,-z
1/2-x,1/2+y,-z
1/2-x,1/2-y,-z
1/2+x,1/2+y,-z
1/2-x,1/2+y,z
1/2+x,1/2-y,z
loop_
_atom_site_type_symbol
_atom_site_label
_atom_site_fract_x
_atom_site_fract_y
_atom_site_fract_z
Si Si1 0.329040 0.199451 0.347924
Si Si2 0.171117 0.200508 0.083885
Si Si3 0.670286 0.055146 0.702819
Si Si4 0.668045 0.143600 0.200998
Si Si5 0.169424 0.888597 0.416227
O O1 0.500000 0.204743 0.367079
O O2 0.250000 0.250000 0.360972
O O3 0.305474 0.182598 0.264817
O O4 0.258742 0.160646 0.402624
O O5 0.250000 0.250000 0.107848
O O6 0.229604 0.156154 0.132469
O O7 0.000000 0.207943 0.098281
O O8 0.205508 0.187744 0.000000
O O9 0.500000 0.064186 0.682011
O O10 0.713152 0.090131 0.770244
O O11 0.766617 0.067477 0.631978
O O12 0.700384 0.000000 0.727042
O O13 0.500000 0.144386 0.174311
O O14 0.186661 0.904219 0.500000
O O15 0.000000 0.879808 0.395027
#
# Coordination Sequence:
#
# PCOD8270138 Si02
#       5
#    16  16  16  16  16
#     4  10  20  33  50  72  98 130 167 204 244 292
#     4  10  20  32  48  73 104 136 167 197 233 280
#     4   9  19  36  56  76  97 124 161 204 250 298
#     4   9  18  32  51  74  98 126 161 201 242 286
#     4  10  21  35  50  71  99 129 163 203 246 294
#
# _framework density 17.454082
#
# number of rings (size 3 to 8) (size 9 to 14) (size 15 to 20)
#    0.000    2.400    0.000    3.600    0.000    9.600 
#    0.000    2.000    0.000    0.600    0.000    4.200 
#    0.000    0.000    0.000    0.000    0.000    0.000 
#
# Total GULP energy -496120.963970 kJ/mol
# GULP energy per Si atom -12403.024099 kJ/mol
# Density = 1.741436 g / cm^3
# Si number density = 17.454082 Si / 1000 Ang^3
#
#
#
# Elastic Constant Matrix: (Units=GPa)
#
#
# Indices 1 2 3 4 5 6 
#
# 1 106.7555 53.4175 57.2343 0.0000 0.0000 0.0000
# 2 53.4175 120.1519 51.1646 0.0000 0.0000 0.0000
# 3 57.2343 51.1646 91.5320 0.0000 0.0000 0.0000
# 4 0.0000 0.0000 0.0000 17.8073 0.0000 0.0000
# 5 0.0000 0.0000 0.0000 0.0000 31.4515 0.0000
# 6 0.0000 0.0000 0.0000 0.0000 0.0000 28.2809
#
#
#
# Elastic Compliance Matrix: (Units=1/GPa)
#
#
# Indices 1 2 3 4 5 6 
#
# 1 0.015162 -0.003548 -0.007497 0.000000 0.000000 0.000000
# 2 -0.003548 0.011753 -0.004351 0.000000 0.000000 0.000000
# 3 -0.007497 -0.004351 0.018045 0.000000 0.000000 0.000000
# 4 0.000000 0.000000 0.000000 0.056157 0.000000 0.000000
# 5 0.000000 0.000000 0.000000 0.000000 0.031795 0.000000
# 6 0.000000 0.000000 0.000000 0.000000 0.000000 0.035360
#
#
# Mechanical properties :
#
#
# Convention : Reuss Voigt Hill
#
# Bulk Modulus (GPa) = 70.58533 71.34135 70.96334
# Shear Modulus (GPa) = 24.53531 25.94946 25.24239
#
# Velocity S-wave (km/s) = 3.75334 3.85999 3.80704
# Velocity P-wave (km/s) = 7.70142 7.79927 7.75050
#
# Compressibility (1/GPa) = 0.01416725
#
# Stress axis : x y z
#
# Youngs Moduli (GPa) = 65.95354 85.08392 55.41571
#
# Poissons Ratio (x) = 0.30189 0.41548
# Poissons Ratio (y) = 0.23402 0.24112
# Poissons Ratio (z) = 0.49448 0.37021
#
# Static dielectric constant tensor:
#      x y z
#    x 3.353790 0.000000 0.000000 
#    y 0.000000 3.190850 0.000000 
#    z 0.000000 0.000000 3.108300 
# 
# 
# High freq. dielectric constant tensor:
#      x y z
#    x 1.685950 0.000000 0.000000 
#    y 0.000000 1.665630 0.000000 
#    z 0.000000 0.000000 1.660760 
# 
# From -- ./inp_files/49849.got.cif
#   From: 2010.03.12/outbox.cif.g09.slc.cpg/sg65_25_cif.got.tgz:49849.got - 2010.04.10 20:52:16.
