data_PCOD8270252
_publ_section_title
;
Structure prediction by ZEFSAII (Michael W. Deem and Ramdas Pophale) SiO2 
 PCOD8270252
Probable space group: C M M M
;
_chemical_formula_sum "Si O2"
_cell_formula_units_Z 88
_cell_length_a 27.296992
_cell_length_b 17.638064
_cell_length_c 9.512851
_cell_angle_alpha 90.000000
_cell_angle_beta 90.000000
_cell_angle_gamma 90.000000
_cell_volume 4580.115194
_symmetry_space_group_name_H-M "C M M M"
_symmetry_group_IT_number 65
_symmetry_cell_setting 'orthorhombic'
loop_
_space_group_symop_operation_xyz
x,y,z
-x,-y,z
x,-y,-z
-x,y,-z
-x,-y,-z
x,y,-z
-x,y,z
x,-y,z
1/2+x,1/2+y,z
1/2-x,1/2-y,z
1/2+x,1/2-y,-z
1/2-x,1/2+y,-z
1/2-x,1/2-y,-z
1/2+x,1/2+y,-z
1/2-x,1/2+y,z
1/2+x,1/2-y,z
loop_
_atom_site_type_symbol
_atom_site_label
_atom_site_fract_x
_atom_site_fract_y
_atom_site_fract_z
Si Si1 0.363898 0.585907 0.660370
Si Si2 0.556862 0.660220 0.165981
Si Si3 0.908932 0.675939 0.166654
Si Si4 0.000000 0.415705 0.831803
Si Si5 0.764807 0.165191 0.335462
Si Si6 0.184875 0.587186 0.837027
O O1 0.379822 0.599851 0.500000
O O2 0.344573 0.500000 0.681320
O O3 0.412033 0.595712 0.756472
O O4 0.321109 0.645480 0.702142
O O5 0.500000 0.657288 0.212003
O O6 0.581867 0.738501 0.215893
O O7 0.561252 0.648488 0.000000
O O8 0.857736 0.642373 0.221976
O O9 0.952376 0.625378 0.229909
O O10 0.910333 0.670406 0.000000
O O11 0.000000 0.500000 0.772519
O O12 0.000000 0.413686 0.000000
O O13 0.754768 0.153970 0.500000
O O14 0.750000 0.250000 0.286927
O O15 0.733032 0.104318 0.251454
O O16 0.168927 0.500000 0.815768
O O17 0.195927 0.603900 0.000000
#
# Coordination Sequence:
#
# PCOD8270252 Si02
#       6
#    16  16  16   8  16  16
#     4  10  22  39  57  78 106 139 176 219 266 319
#     4  10  20  35  56  81 108 139 177 222 270 317
#     4   9  16  29  47  73 109 143 175 214 260 308
#     4   9  14  22  42  70 102 141 178 210 251 305
#     4  10  21  38  59  81 105 138 181 223 268 324
#     4  10  20  32  50  80 114 144 177 218 263 314
#
# _framework density 19.213491000000001
#
# number of rings (size 3 to 8) (size 9 to 14) (size 15 to 20)
#    0.000    2.273    0.909    2.182    0.000    5.455 
#    0.000    1.818    0.000    0.000    0.000    0.000 
#    0.000    2.909    0.000    0.000    0.000    0.000 
#
# Total GULP energy -545585.475394 kJ/mol
# GULP energy per Si atom -12399.669895 kJ/mol
# Density = 1.916976 g / cm^3
# Si number density = 19.213491 Si / 1000 Ang^3
#
#
#
# Elastic Constant Matrix: (Units=GPa)
#
#
# Indices 1 2 3 4 5 6 
#
# 1 130.6037 47.3799 45.2364 0.0000 0.0000 0.0000
# 2 47.3799 89.2828 27.7632 0.0000 0.0000 0.0000
# 3 45.2364 27.7632 35.8011 0.0000 0.0000 0.0000
# 4 0.0000 0.0000 0.0000 21.8861 0.0000 0.0000
# 5 0.0000 0.0000 0.0000 0.0000 24.1195 0.0000
# 6 0.0000 0.0000 0.0000 0.0000 0.0000 40.6681
#
#
#
# Elastic Compliance Matrix: (Units=1/GPa)
#
#
# Indices 1 2 3 4 5 6 
#
# 1 0.014042 -0.002549 -0.015766 0.000000 0.000000 0.000000
# 2 -0.002549 0.015222 -0.008584 0.000000 0.000000 0.000000
# 3 -0.015766 -0.008584 0.054510 0.000000 0.000000 0.000000
# 4 0.000000 0.000000 0.000000 0.045691 0.000000 0.000000
# 5 0.000000 0.000000 0.000000 0.000000 0.041460 0.000000
# 6 0.000000 0.000000 0.000000 0.000000 0.000000 0.024589
#
#
# Mechanical properties :
#
#
# Convention : Reuss Voigt Hill
#
# Bulk Modulus (GPa) = 33.35955 55.16073 44.26014
# Shear Modulus (GPa) = 19.28222 26.35527 22.81874
#
# Velocity S-wave (km/s) = 3.17137 3.70767 3.44996
# Velocity P-wave (km/s) = 5.55071 6.86300 6.24144
#
# Compressibility (1/GPa) = 0.02997643
#
# Stress axis : x y z
#
# Youngs Moduli (GPa) = 71.21245 65.69308 18.34522
#
# Poissons Ratio (x) = 0.16747 0.28924
# Poissons Ratio (y) = 0.18154 0.15747
# Poissons Ratio (z) = 1.12277 0.56388
#
# Static dielectric constant tensor:
#      x y z
#    x 3.559970 0.000000 0.000000 
#    y 0.000000 3.575400 0.000000 
#    z 0.000000 0.000000 3.079730 
# 
# 
# High freq. dielectric constant tensor:
#      x y z
#    x 1.755920 0.000000 0.000000 
#    y 0.000000 1.756760 0.000000 
#    z 0.000000 0.000000 1.705880 
# 
# From -- ./inp_files/30535.got.cif
#   From: 2010.03.12/outbox.cif.g09.slc.cpg/sg65_16_cif.got.tgz:30535.got - 2010.04.10 20:52:16.
