data_PCOD8270146
_publ_section_title
;
Structure prediction by ZEFSAII (Michael W. Deem and Ramdas Pophale) SiO2 
 PCOD8270146
Probable space group: C M M M
;
_chemical_formula_sum "Si O2"
_cell_formula_units_Z 88
_cell_length_a 9.479274
_cell_length_b 31.144481
_cell_length_c 16.840702
_cell_angle_alpha 90.000000
_cell_angle_beta 90.000000
_cell_angle_gamma 90.000000
_cell_volume 4971.831091
_symmetry_space_group_name_H-M "C M M M"
_symmetry_group_IT_number 65
_symmetry_cell_setting 'orthorhombic'
loop_
_space_group_symop_operation_xyz
x,y,z
-x,-y,z
x,-y,-z
-x,y,-z
-x,-y,-z
x,y,-z
-x,y,z
x,-y,z
1/2+x,1/2+y,z
1/2-x,1/2-y,z
1/2+x,1/2-y,-z
1/2-x,1/2+y,-z
1/2-x,1/2-y,-z
1/2+x,1/2+y,-z
1/2-x,1/2+y,z
1/2+x,1/2-y,z
loop_
_atom_site_type_symbol
_atom_site_label
_atom_site_fract_x
_atom_site_fract_y
_atom_site_fract_z
Si Si1 0.667705 0.047279 0.332411
Si Si2 0.165677 0.373739 0.771962
Si Si3 0.331725 0.921331 0.500000
Si Si4 0.834337 0.708944 0.668205
Si Si5 0.666568 0.500000 0.913249
Si Si6 0.667243 0.825146 0.500000
Si Si7 0.664404 0.406762 0.906788
O O1 0.500000 0.049682 0.333043
O O2 0.725013 0.085185 0.276507
O O3 0.724403 0.054340 0.421908
O O4 0.718845 0.000000 0.302959
O O5 0.203778 0.331034 0.724001
O O6 0.245151 0.372520 0.856717
O O7 0.000000 0.377214 0.787640
O O8 0.500000 0.919969 0.500000
O O9 0.270194 0.873089 0.500000
O O10 0.750000 0.750000 0.700699
O O11 0.780999 0.699324 0.578787
O O12 0.000000 0.718767 0.670326
O O13 0.500000 0.500000 0.923919
O O14 0.710069 0.454577 0.873500
O O15 0.736925 0.500000 0.000000
O O16 0.500000 0.828509 0.500000
O O17 0.500000 0.398130 0.891746
O O18 0.699655 0.401967 0.000000
#
# Coordination Sequence:
#
# PCOD8270146 Si02
#       7
#    16  16   8  16   8   8  16
#     4   9  16  25  40  66 100 136 170 201 236 283
#     4  10  20  32  48  74 105 130 158 206 257 294
#     4   9  13  23  42  63  94 136 173 200 232 280
#     4  10  20  34  52  74 100 130 164 205 252 297
#     4   7  12  26  47  69  93 124 163 200 230 271
#     4   9  15  28  48  68  96 131 164 201 244 288
#     4   9  18  33  52  72  97 132 170 203 238 288
#
# _framework density 17.699715999999999
#
# number of rings (size 3 to 8) (size 9 to 14) (size 15 to 20)
#    0.000    2.818    1.818    1.636    1.273    2.182 
#    0.000    0.000    0.000    2.182    0.000    0.636 
#    0.000    1.455    0.000    0.000    0.000    0.000 
#
# Total GULP energy -545232.894285 kJ/mol
# GULP energy per Si atom -12391.656688 kJ/mol
# Density = 1.765943 g / cm^3
# Si number density = 17.699716 Si / 1000 Ang^3
#
#
#
# Elastic Constant Matrix: (Units=GPa)
#
#
# Indices 1 2 3 4 5 6 
#
# 1 31.1070 41.0778 40.8065 0.0000 0.0000 0.0000
# 2 41.0778 134.3130 59.4009 0.0000 0.0000 0.0000
# 3 40.8065 59.4009 104.6680 0.0000 0.0000 0.0000
# 4 0.0000 0.0000 0.0000 16.6276 0.0000 0.0000
# 5 0.0000 0.0000 0.0000 0.0000 17.3595 0.0000
# 6 0.0000 0.0000 0.0000 0.0000 0.0000 23.3253
#
#
#
# Elastic Compliance Matrix: (Units=1/GPa)
#
#
# Indices 1 2 3 4 5 6 
#
# 1 0.083291 -0.014836 -0.024053 0.000000 0.000000 0.000000
# 2 -0.014836 0.012583 -0.001357 0.000000 0.000000 0.000000
# 3 -0.024053 -0.001357 0.019701 0.000000 0.000000 0.000000
# 4 0.000000 0.000000 0.000000 0.060141 0.000000 0.000000
# 5 0.000000 0.000000 0.000000 0.000000 0.057605 0.000000
# 6 0.000000 0.000000 0.000000 0.000000 0.000000 0.042872
#
#
# Mechanical properties :
#
#
# Convention : Reuss Voigt Hill
#
# Bulk Modulus (GPa) = 28.50297 61.40650 44.95474
# Shear Modulus (GPa) = 13.57297 20.04932 16.81114
#
# Velocity S-wave (km/s) = 2.77220 3.36928 3.08522
# Velocity P-wave (km/s) = 5.13667 7.06434 6.17618
#
# Compressibility (1/GPa) = 0.03508406
#
# Stress axis : x y z
#
# Youngs Moduli (GPa) = 12.00611 79.47368 50.75780
#
# Poissons Ratio (x) = 1.17907 1.22086
# Poissons Ratio (y) = 0.17812 0.06887
# Poissons Ratio (z) = 0.28878 0.10784
#
# Static dielectric constant tensor:
#      x y z
#    x 2.728120 0.000000 0.000000 
#    y 0.000000 3.340520 0.000000 
#    z 0.000000 0.000000 3.235660 
# 
# 
# High freq. dielectric constant tensor:
#      x y z
#    x 1.631240 0.000000 0.000000 
#    y 0.000000 1.682640 0.000000 
#    z 0.000000 0.000000 1.681220 
# 
# From -- ./inp_files/38863.got.cif
#   From: 2010.03.12/outbox.cif.g09.slc.cpg/sg65_20_cif.got.tgz:38863.got - 2010.04.10 20:52:16.
