data_PCOD8270454
_publ_section_title
;
Structure prediction by ZEFSAII (Michael W. Deem and Ramdas Pophale) SiO2 
 PCOD8270454
Probable space group: C M M M
;
_chemical_formula_sum "Si O2"
_cell_formula_units_Z 112
_cell_length_a 28.957578
_cell_length_b 16.740315
_cell_length_c 13.897654
_cell_angle_alpha 90.000000
_cell_angle_beta 90.000000
_cell_angle_gamma 90.000000
_cell_volume 6737.012541
_symmetry_space_group_name_H-M "C M M M"
_symmetry_group_IT_number 65
_symmetry_cell_setting 'orthorhombic'
loop_
_space_group_symop_operation_xyz
x,y,z
-x,-y,z
x,-y,-z
-x,y,-z
-x,-y,-z
x,y,-z
-x,y,z
x,-y,z
1/2+x,1/2+y,z
1/2-x,1/2-y,z
1/2+x,1/2-y,-z
1/2-x,1/2+y,-z
1/2-x,1/2-y,-z
1/2+x,1/2+y,-z
1/2-x,1/2+y,z
1/2+x,1/2-y,z
loop_
_atom_site_type_symbol
_atom_site_label
_atom_site_fract_x
_atom_site_fract_y
_atom_site_fract_z
Si Si1 0.946873 0.587805 0.783067
Si Si2 0.637322 0.726526 0.701682
Si Si3 0.802484 0.092478 0.611078
Si Si4 0.276216 0.170944 0.712768
Si Si5 0.386509 0.205674 0.893776
Si Si6 0.300815 0.910017 0.103500
Si Si7 0.947455 0.301980 0.389612
O O1 0.923226 0.500000 0.791348
O O2 0.928926 0.651102 0.860522
O O3 0.938182 0.619889 0.674979
O O4 0.000000 0.578589 0.806002
O O5 0.661366 0.643131 0.674644
O O6 0.671572 0.803302 0.682564
O O7 0.623674 0.724828 0.815274
O O8 0.590686 0.735397 0.638709
O O9 0.815030 0.104553 0.500000
O O10 0.750216 0.125308 0.626498
O O11 0.806102 0.000000 0.641323
O O12 0.250000 0.250000 0.743982
O O13 0.270156 0.113811 0.805338
O O14 0.343677 0.147754 0.899114
O O15 0.396624 0.242762 0.000000
O O16 0.318409 0.000000 0.117918
O O17 0.274196 0.902109 0.000000
O O18 0.940754 0.327007 0.500000
O O19 0.000000 0.269266 0.372241
#
# Coordination Sequence:
#
# PCOD8270454 Si02
#       7
#    16  16  16  16  16  16  16
#     4   9  17  27  39  60  91 124 158 196 236 275
#     4   9  18  32  50  69  91 122 155 189 230 277
#     4  10  20  33  50  71  94 119 147 184 231 279
#     4   9  18  30  45  65  89 118 149 183 221 268
#     4   9  17  29  44  62  85 115 153 192 228 267
#     4   9  16  26  41  59  81 112 147 182 220 259
#     4   9  17  29  46  67  91 123 163 202 236 273
#
# _framework density 16.624580000000002
#
# number of rings (size 3 to 8) (size 9 to 14) (size 15 to 20)
#    0.000    2.857    0.000    1.286    0.000    4.857 
#    0.000    5.000    0.000    1.714    0.000    2.000 
#    0.000    0.000    0.000    7.143    0.000    0.429 
#
# Total GULP energy -693827.652506 kJ/mol
# GULP energy per Si atom -12389.779509 kJ/mol
# Density = 1.658674 g / cm^3
# Si number density = 16.624580 Si / 1000 Ang^3
#
#
#
# Elastic Constant Matrix: (Units=GPa)
#
#
# Indices 1 2 3 4 5 6 
#
# 1 68.5142 24.7268 34.2356 0.0000 0.0000 0.0000
# 2 24.7268 74.5538 42.5609 0.0000 0.0000 0.0000
# 3 34.2356 42.5609 110.2897 0.0000 0.0000 0.0000
# 4 0.0000 0.0000 0.0000 8.2538 0.0000 0.0000
# 5 0.0000 0.0000 0.0000 0.0000 16.7900 0.0000
# 6 0.0000 0.0000 0.0000 0.0000 0.0000 -23.9838
#
#
#
# Elastic Compliance Matrix: (Units=1/GPa)
#
#
# Indices 1 2 3 4 5 6 
#
# 1 0.017984 -0.003563 -0.004208 0.000000 0.000000 0.000000
# 2 -0.003563 0.017909 -0.005805 0.000000 0.000000 0.000000
# 3 -0.004208 -0.005805 0.012613 0.000000 0.000000 0.000000
# 4 0.000000 0.000000 0.000000 0.121157 0.000000 0.000000
# 5 0.000000 0.000000 0.000000 0.000000 0.059559 0.000000
# 6 0.000000 0.000000 0.000000 0.000000 0.000000 -0.041695
#
#
# Mechanical properties :
#
#
# Convention : Reuss Voigt Hill
#
# Bulk Modulus (GPa) = 46.82697 50.71157 48.76927
# Shear Modulus (GPa) = 22.54326 10.33429 16.43877
#
# Velocity S-wave (km/s) = 3.68641 2.49595 3.14797
# Velocity P-wave (km/s) = 6.80793 6.23511 6.52781
#
# Compressibility (1/GPa) = 0.02135521
#
# Stress axis : x y z
#
# Youngs Moduli (GPa) = 55.60582 55.83878 79.28104
#
# Poissons Ratio (x) = 0.19893 0.33359
# Poissons Ratio (y) = 0.19810 0.46024
# Poissons Ratio (z) = 0.23397 0.32415
#
# Static dielectric constant tensor:
#      x y z
#    x 3.222890 0.000000 0.000000 
#    y 0.000000 3.025930 0.000000 
#    z 0.000000 0.000000 3.692890 
# 
# 
# High freq. dielectric constant tensor:
#      x y z
#    x 1.629780 0.000000 0.000000 
#    y 0.000000 1.609390 0.000000 
#    z 0.000000 0.000000 1.649880 
# 
# From -- ./inp_files/47976.got.cif
#   From: 2010.03.12/outbox.cif.g09.slc.cpg/sg65_24_cif.got.tgz:47976.got - 2010.04.10 20:52:16.
