data_PCOD8270788
_publ_section_title
;
Structure prediction by ZEFSAII (Michael W. Deem and Ramdas Pophale) SiO2 
 PCOD8270788
Probable space group: C M M M
;
_chemical_formula_sum "Si O2"
_cell_formula_units_Z 88
_cell_length_a 14.919375
_cell_length_b 22.215095
_cell_length_c 14.033679
_cell_angle_alpha 90.000000
_cell_angle_beta 90.000000
_cell_angle_gamma 90.000000
_cell_volume 4651.257072
_symmetry_space_group_name_H-M "C M M M"
_symmetry_group_IT_number 65
_symmetry_cell_setting 'orthorhombic'
loop_
_space_group_symop_operation_xyz
x,y,z
-x,-y,z
x,-y,-z
-x,y,-z
-x,-y,-z
x,y,-z
-x,y,z
x,-y,z
1/2+x,1/2+y,z
1/2-x,1/2-y,z
1/2+x,1/2-y,-z
1/2-x,1/2+y,-z
1/2-x,1/2-y,-z
1/2+x,1/2+y,-z
1/2-x,1/2+y,z
1/2+x,1/2-y,z
loop_
_atom_site_type_symbol
_atom_site_label
_atom_site_fract_x
_atom_site_fract_y
_atom_site_fract_z
Si Si1 0.099410 0.356921 0.896838
Si Si2 0.893732 0.000000 0.893657
Si Si3 0.604587 0.612542 0.230058
Si Si4 0.102140 0.430889 0.276711
Si Si5 0.849288 0.772404 0.891813
Si Si6 0.227036 0.069897 0.391656
O O1 0.146057 0.393253 0.811230
O O2 0.090049 0.286160 0.874213
O O3 0.000000 0.383962 0.904597
O O4 0.149188 0.365972 0.000000
O O5 0.860309 0.940663 0.838542
O O6 0.000000 0.000000 0.900307
O O7 0.852228 0.000000 0.000000
O O8 0.500000 0.604780 0.254592
O O9 0.620709 0.676081 0.179814
O O10 0.660530 0.609888 0.327817
O O11 0.102354 0.500000 0.245286
O O12 0.168219 0.419665 0.365315
O O13 0.000000 0.410288 0.302992
O O14 0.750000 0.750000 0.869583
O O15 0.859514 0.796638 0.000000
O O16 0.214522 0.091083 0.500000
O O17 0.201257 0.000000 0.378976
#
# Coordination Sequence:
#
# PCOD8270788 Si02
#       6
#    16   8  16  16  16  16
#     4   9  17  30  49  75 107 141 176 214 262 327
#     4   9  18  32  51  79 114 147 181 223 271 327
#     4  11  21  35  56  82 113 150 189 229 279 335
#     4   9  18  33  55  81 109 143 186 235 288 341
#     4  10  20  33  52  78 110 148 188 225 266 324
#     4  10  21  37  56  78 108 142 183 240 294 340
#
# _framework density 18.919616999999999
#
# number of rings (size 3 to 8) (size 9 to 14) (size 15 to 20)
#    0.000    2.273    0.909    2.182    0.000    2.909 
#    0.000    5.455    0.000    4.909    0.000    5.091 
#    0.000    0.000    0.000    0.000    0.000    0.000 
#
# Total GULP energy -545422.065033 kJ/mol
# GULP energy per Si atom -12395.956023 kJ/mol
# Density = 1.887655 g / cm^3
# Si number density = 18.919617 Si / 1000 Ang^3
#
#
#
# Elastic Constant Matrix: (Units=GPa)
#
#
# Indices 1 2 3 4 5 6 
#
# 1 77.6936 22.4250 47.5516 0.0000 0.0000 0.0000
# 2 22.4250 62.7728 50.7912 0.0000 0.0000 0.0000
# 3 47.5516 50.7912 141.8222 0.0000 0.0000 0.0000
# 4 0.0000 0.0000 0.0000 24.3338 0.0000 0.0000
# 5 0.0000 0.0000 0.0000 0.0000 24.2061 0.0000
# 6 0.0000 0.0000 0.0000 0.0000 0.0000 21.5205
#
#
#
# Elastic Compliance Matrix: (Units=1/GPa)
#
#
# Indices 1 2 3 4 5 6 
#
# 1 0.016367 -0.001981 -0.004778 0.000000 0.000000 0.000000
# 2 -0.001981 0.022670 -0.007455 0.000000 0.000000 0.000000
# 3 -0.004778 -0.007455 0.011323 0.000000 0.000000 0.000000
# 4 0.000000 0.000000 0.000000 0.041095 0.000000 0.000000
# 5 0.000000 0.000000 0.000000 0.000000 0.041312 0.000000
# 6 0.000000 0.000000 0.000000 0.000000 0.000000 0.046467
#
#
# Mechanical properties :
#
#
# Convention : Reuss Voigt Hill
#
# Bulk Modulus (GPa) = 45.59439 58.20267 51.89853
# Shear Modulus (GPa) = 23.25872 24.78015 24.01943
#
# Velocity S-wave (km/s) = 3.51000 3.62299 3.56694
# Velocity P-wave (km/s) = 6.37010 6.95207 6.66744
#
# Compressibility (1/GPa) = 0.02193252
#
# Stress axis : x y z
#
# Youngs Moduli (GPa) = 61.09711 44.11139 88.31555
#
# Poissons Ratio (x) = 0.08737 0.42201
# Poissons Ratio (y) = 0.12102 0.65837
# Poissons Ratio (z) = 0.29195 0.32884
#
# Static dielectric constant tensor:
#      x y z
#    x 3.462200 0.000000 0.000000 
#    y 0.000000 3.503900 0.000000 
#    z 0.000000 0.000000 3.440310 
# 
# 
# High freq. dielectric constant tensor:
#      x y z
#    x 1.736980 0.000000 0.000000 
#    y 0.000000 1.722250 0.000000 
#    z 0.000000 0.000000 1.718200 
# 
# From -- ./inp_files/40217.got.cif
#   From: 2010.03.12/outbox.cif.g09.slc.cpg/sg65_21_cif.got.tgz:40217.got - 2010.04.10 20:52:16.
