data_PCOD8270584
_publ_section_title
;
Structure prediction by ZEFSAII (Michael W. Deem and Ramdas Pophale) SiO2 
 PCOD8270584
Probable space group: C M M M
;
_chemical_formula_sum "Si O2"
_cell_formula_units_Z 72
_cell_length_a 22.337362
_cell_length_b 17.582407
_cell_length_c 9.487158
_cell_angle_alpha 90.000000
_cell_angle_beta 90.000000
_cell_angle_gamma 90.000000
_cell_volume 3726.029979
_symmetry_space_group_name_H-M "C M M M"
_symmetry_group_IT_number 65
_symmetry_cell_setting 'orthorhombic'
loop_
_space_group_symop_operation_xyz
x,y,z
-x,-y,z
x,-y,-z
-x,y,-z
-x,-y,-z
x,y,-z
-x,y,z
x,-y,z
1/2+x,1/2+y,z
1/2-x,1/2-y,z
1/2+x,1/2-y,-z
1/2-x,1/2+y,-z
1/2-x,1/2-y,-z
1/2+x,1/2+y,-z
1/2-x,1/2+y,z
1/2+x,1/2-y,z
loop_
_atom_site_type_symbol
_atom_site_label
_atom_site_fract_x
_atom_site_fract_y
_atom_site_fract_z
Si Si1 0.393492 0.086960 0.844958
Si Si2 0.664016 0.680674 0.338902
Si Si3 0.000000 0.591042 0.341721
Si Si4 0.931415 0.086919 0.165517
Si Si5 0.701818 0.851394 0.661313
O O1 0.442719 0.124262 0.741681
O O2 0.329136 0.091446 0.770133
O O3 0.410736 0.000000 0.866730
O O4 0.393235 0.126482 0.000000
O O5 0.644244 0.669356 0.500000
O O6 0.612838 0.644932 0.242552
O O7 0.674426 0.768853 0.304271
O O8 0.727670 0.640517 0.311219
O O9 0.000000 0.500000 0.349171
O O10 0.000000 0.624781 0.500000
O O11 0.000000 0.106452 0.206273
O O12 0.916908 0.000000 0.210102
O O13 0.921754 0.097061 0.000000
O O14 0.687348 0.873585 0.500000
#
# Coordination Sequence:
#
# PCOD8270584 Si02
#       5
#    16  16   8  16  16
#     4  10  20  33  50  75 105 135 173 218 258 304
#     4   9  19  36  56  77 103 136 176 220 262 310
#     4   9  17  31  51  71  95 131 168 205 254 301
#     4   9  19  36  56  79 109 142 174 213 266 326
#     4   9  19  36  54  74 104 140 176 216 264 315
#
# _framework density 19.323516000000001
#
# number of rings (size 3 to 8) (size 9 to 14) (size 15 to 20)
#    0.000    2.778    0.000    3.000    0.000    6.222 
#    2.000    7.778    0.000    0.000    0.000    0.000 
#    0.000    0.000    0.000    0.000    0.000    0.000 
#
# Total GULP energy -446235.086321 kJ/mol
# GULP energy per Si atom -12395.419064 kJ/mol
# Density = 1.927953 g / cm^3
# Si number density = 19.323516 Si / 1000 Ang^3
#
#
#
# Elastic Constant Matrix: (Units=GPa)
#
#
# Indices 1 2 3 4 5 6 
#
# 1 114.0147 29.1472 71.2852 0.0000 0.0000 0.0000
# 2 29.1472 29.2083 24.3226 0.0000 0.0000 0.0000
# 3 71.2852 24.3226 130.8691 0.0000 0.0000 0.0000
# 4 0.0000 0.0000 0.0000 28.8622 0.0000 0.0000
# 5 0.0000 0.0000 0.0000 0.0000 30.4873 0.0000
# 6 0.0000 0.0000 0.0000 0.0000 0.0000 33.9521
#
#
#
# Elastic Compliance Matrix: (Units=1/GPa)
#
#
# Indices 1 2 3 4 5 6 
#
# 1 0.015397 -0.009916 -0.006544 0.000000 0.000000 0.000000
# 2 -0.009916 0.046891 -0.003314 0.000000 0.000000 0.000000
# 3 -0.006544 -0.003314 0.011822 0.000000 0.000000 0.000000
# 4 0.000000 0.000000 0.000000 0.034647 0.000000 0.000000
# 5 0.000000 0.000000 0.000000 0.000000 0.032801 0.000000
# 6 0.000000 0.000000 0.000000 0.000000 0.000000 0.029453
#
#
# Mechanical properties :
#
#
# Convention : Reuss Voigt Hill
#
# Bulk Modulus (GPa) = 28.93262 58.17798 43.55530
# Shear Modulus (GPa) = 22.51449 28.61614 25.56531
#
# Velocity S-wave (km/s) = 3.41711 3.85242 3.64127
# Velocity P-wave (km/s) = 5.52939 7.06830 6.34567
#
# Compressibility (1/GPa) = 0.03456306
#
# Stress axis : x y z
#
# Youngs Moduli (GPa) = 64.94685 21.32601 84.58992
#
# Poissons Ratio (x) = 0.21146 0.55357
# Poissons Ratio (y) = 0.64398 0.28032
# Poissons Ratio (z) = 0.42502 0.07067
#
# Static dielectric constant tensor:
#      x y z
#    x 3.540870 0.000000 0.000000 
#    y 0.000000 3.174720 0.000000 
#    z 0.000000 0.000000 3.625680 
# 
# 
# High freq. dielectric constant tensor:
#      x y z
#    x 1.759040 0.000000 0.000000 
#    y 0.000000 1.718620 0.000000 
#    z 0.000000 0.000000 1.757370 
# 
# From -- ./inp_files/11249.got.cif
#   From: 2010.03.12/outbox.cif.g09.slc.cpg/sg65_6_cif.got.tgz:11249.got - 2010.04.10 20:52:16.
