data_PCOD8270311
_publ_section_title
;
Structure prediction by ZEFSAII (Michael W. Deem and Ramdas Pophale) SiO2 
 PCOD8270311
Probable space group: C M M M
;
_chemical_formula_sum "Si O2"
_cell_formula_units_Z 88
_cell_length_a 9.183016
_cell_length_b 27.187249
_cell_length_c 21.799746
_cell_angle_alpha 90.000000
_cell_angle_beta 90.000000
_cell_angle_gamma 90.000000
_cell_volume 5442.545134
_symmetry_space_group_name_H-M "C M M M"
_symmetry_group_IT_number 65
_symmetry_cell_setting 'orthorhombic'
loop_
_space_group_symop_operation_xyz
x,y,z
-x,-y,z
x,-y,-z
-x,y,-z
-x,-y,-z
x,y,-z
-x,y,z
x,-y,z
1/2+x,1/2+y,z
1/2-x,1/2-y,z
1/2+x,1/2-y,-z
1/2-x,1/2+y,-z
1/2-x,1/2-y,-z
1/2+x,1/2+y,-z
1/2-x,1/2+y,z
1/2+x,1/2-y,z
loop_
_atom_site_type_symbol
_atom_site_label
_atom_site_fract_x
_atom_site_fract_y
_atom_site_fract_z
Si Si1 0.673900 0.944695 0.631139
Si Si2 0.840199 0.441535 0.500000
Si Si3 0.169725 0.150701 0.070091
Si Si4 0.671716 0.799043 0.821959
Si Si5 0.170607 0.396796 0.753700
Si Si6 0.667529 0.554655 0.139376
O O1 0.500000 0.944768 0.625993
O O2 0.738613 0.926534 0.564560
O O3 0.727203 0.907814 0.684725
O O4 0.728366 0.000000 0.646386
O O5 0.855694 0.500000 0.500000
O O6 0.000000 0.417054 0.500000
O O7 0.265827 0.186938 0.111339
O O8 0.206047 0.093985 0.086543
O O9 0.000000 0.162370 0.081346
O O10 0.214355 0.159695 0.000000
O O11 0.500000 0.790517 0.827791
O O12 0.750000 0.750000 0.797967
O O13 0.711082 0.841161 0.772516
O O14 0.242053 0.435563 0.799452
O O15 0.000000 0.405902 0.758389
O O16 0.500000 0.559259 0.158209
O O17 0.704183 0.500000 0.114411
#
# Coordination Sequence:
#
# PCOD8270311 Si02
#       6
#    16   8  16  16  16  16
#     4   8  12  19  34  58  88 116 138 163 197 235
#     4   7  10  16  28  52  86 117 139 161 193 231
#     4   9  18  32  48  65  85 109 137 168 203 245
#     4  10  20  33  48  64  82 104 133 172 216 258
#     4   9  17  28  43  63  84 108 140 175 209 246
#     4   9  17  28  42  62  88 115 141 168 198 236
#
# _framework density 16.168906
#
# number of rings (size 3 to 8) (size 9 to 14) (size 15 to 20)
#    0.000    3.182    0.000    2.182    0.000    2.909 
#    0.000    1.818    0.000    0.000    0.000    6.364 
#    0.000    3.636    0.000    0.000    0.000    0.000 
#
# Total GULP energy -545238.646517 kJ/mol
# GULP energy per Si atom -12391.787421 kJ/mol
# Density = 1.613210 g / cm^3
# Si number density = 16.168906 Si / 1000 Ang^3
#
#
#
# Elastic Constant Matrix: (Units=GPa)
#
#
# Indices 1 2 3 4 5 6 
#
# 1 31.9869 25.9579 26.1896 0.0000 0.0000 0.0000
# 2 25.9579 83.5920 43.1188 0.0000 0.0000 0.0000
# 3 26.1896 43.1188 130.7461 0.0000 0.0000 0.0000
# 4 0.0000 0.0000 0.0000 16.4759 0.0000 0.0000
# 5 0.0000 0.0000 0.0000 0.0000 9.5993 0.0000
# 6 0.0000 0.0000 0.0000 0.0000 0.0000 18.6876
#
#
#
# Elastic Compliance Matrix: (Units=1/GPa)
#
#
# Indices 1 2 3 4 5 6 
#
# 1 0.044611 -0.011138 -0.005263 0.000000 0.000000 0.000000
# 2 -0.011138 0.017196 -0.003440 0.000000 0.000000 0.000000
# 3 -0.005263 -0.003440 0.009837 0.000000 0.000000 0.000000
# 4 0.000000 0.000000 0.000000 0.060695 0.000000 0.000000
# 5 0.000000 0.000000 0.000000 0.000000 0.104174 0.000000
# 6 0.000000 0.000000 0.000000 0.000000 0.000000 0.053512
#
#
# Mechanical properties :
#
#
# Convention : Reuss Voigt Hill
#
# Bulk Modulus (GPa) = 31.28732 48.53974 39.91353
# Shear Modulus (GPa) = 14.69033 19.02314 16.85674
#
# Velocity S-wave (km/s) = 3.01749 3.43377 3.23234
# Velocity P-wave (km/s) = 5.61540 6.76806 6.21849
#
# Compressibility (1/GPa) = 0.03196183
#
# Stress axis : x y z
#
# Youngs Moduli (GPa) = 22.41615 58.15266 101.65676
#
# Poissons Ratio (x) = 0.64773 0.53498
# Poissons Ratio (y) = 0.24968 0.34970
# Poissons Ratio (z) = 0.11797 0.20004
#
# Static dielectric constant tensor:
#      x y z
#    x 2.825400 0.000000 0.000000 
#    y 0.000000 3.027320 0.000000 
#    z 0.000000 0.000000 3.375850 
# 
# 
# High freq. dielectric constant tensor:
#      x y z
#    x 1.594610 0.000000 0.000000 
#    y 0.000000 1.603640 0.000000 
#    z 0.000000 0.000000 1.620570 
# 
# From -- ./inp_files/60220.got.cif
#   From: 2010.03.12/outbox.cif.g09.slc.cpg/sg65_31_cif.got.tgz:60220.got - 2010.04.10 20:52:16.
