data_PCOD8270081
_publ_section_title
;
Structure prediction by ZEFSAII (Michael W. Deem and Ramdas Pophale) SiO2 
 PCOD8270081
Probable space group: C M M M
;
_chemical_formula_sum "Si O2"
_cell_formula_units_Z 88
_cell_length_a 24.803719
_cell_length_b 18.453316
_cell_length_c 10.211833
_cell_angle_alpha 90.000000
_cell_angle_beta 90.000000
_cell_angle_gamma 90.000000
_cell_volume 4674.066912
_symmetry_space_group_name_H-M "C M M M"
_symmetry_group_IT_number 65
_symmetry_cell_setting 'orthorhombic'
loop_
_space_group_symop_operation_xyz
x,y,z
-x,-y,z
x,-y,-z
-x,y,-z
-x,-y,-z
x,y,-z
-x,y,z
x,-y,z
1/2+x,1/2+y,z
1/2-x,1/2-y,z
1/2+x,1/2-y,-z
1/2-x,1/2+y,-z
1/2-x,1/2-y,-z
1/2+x,1/2+y,-z
1/2-x,1/2+y,z
1/2+x,1/2-y,z
loop_
_atom_site_type_symbol
_atom_site_label
_atom_site_fract_x
_atom_site_fract_y
_atom_site_fract_z
Si Si1 0.941853 0.415193 0.000000
Si Si2 0.139991 0.161792 0.344313
Si Si3 0.749476 0.419127 0.654784
Si Si4 0.156264 0.321980 0.355394
Si Si5 0.563476 0.916016 0.283116
Si Si6 0.936903 0.916259 0.147639
O O1 0.913353 0.395818 0.863041
O O2 0.952961 0.500000 0.000000
O O3 0.000000 0.376002 0.000000
O O4 0.126365 0.158376 0.500000
O O5 0.192910 0.116493 0.308575
O O6 0.148098 0.243630 0.290145
O O7 0.091230 0.130089 0.260493
O O8 0.756953 0.424480 0.500000
O O9 0.752087 0.500000 0.715784
O O10 0.798193 0.370904 0.716452
O O11 0.178472 0.305024 0.500000
O O12 0.099695 0.365115 0.373038
O O13 0.500000 0.898176 0.298757
O O14 0.573464 0.000000 0.318500
O O15 0.000000 0.902148 0.162587
O O16 0.922941 0.000000 0.171591
O O17 0.918495 0.893833 0.000000
#
# Coordination Sequence:
#
# PCOD8270081 Si02
#       6
#     8  16  16  16  16  16
#     4   7  12  26  46  64  83 114 161 213 253 284
#     4  10  20  34  54  80 109 139 173 216 265 315
#     4   9  17  31  53  77  99 132 179 219 255 308
#     4  10  20  32  47  72 108 140 166 208 265 314
#     4   9  17  30  48  68  93 131 177 218 256 302
#     4   9  19  37  59  81 107 140 176 214 260 315
#
# _framework density 18.827286999999998
#
# number of rings (size 3 to 8) (size 9 to 14) (size 15 to 20)
#    0.000    2.818    0.000    3.273    0.000    5.818 
#    1.636    3.636    2.000    1.091    0.000    0.000 
#    0.000    0.000    0.000    0.000    0.000    0.000 
#
# Total GULP energy -545121.966715 kJ/mol
# GULP energy per Si atom -12389.135607 kJ/mol
# Density = 1.878444 g / cm^3
# Si number density = 18.827287 Si / 1000 Ang^3
#
#
#
# Elastic Constant Matrix: (Units=GPa)
#
#
# Indices 1 2 3 4 5 6 
#
# 1 90.1842 66.3486 30.1901 0.0000 0.0000 0.0000
# 2 66.3486 141.9524 35.0060 0.0000 0.0000 0.0000
# 3 30.1901 35.0060 56.2837 0.0000 0.0000 0.0000
# 4 0.0000 0.0000 0.0000 17.5393 0.0000 0.0000
# 5 0.0000 0.0000 0.0000 0.0000 9.6093 0.0000
# 6 0.0000 0.0000 0.0000 0.0000 0.0000 24.8931
#
#
#
# Elastic Compliance Matrix: (Units=1/GPa)
#
#
# Indices 1 2 3 4 5 6 
#
# 1 0.018129 -0.007176 -0.005261 0.000000 0.000000 0.000000
# 2 -0.007176 0.011161 -0.003093 0.000000 0.000000 0.000000
# 3 -0.005261 -0.003093 0.022513 0.000000 0.000000 0.000000
# 4 0.000000 0.000000 0.000000 0.057015 0.000000 0.000000
# 5 0.000000 0.000000 0.000000 0.000000 0.104066 0.000000
# 6 0.000000 0.000000 0.000000 0.000000 0.000000 0.040172
#
#
# Mechanical properties :
#
#
# Convention : Reuss Voigt Hill
#
# Bulk Modulus (GPa) = 48.20814 61.27886 54.74350
# Shear Modulus (GPa) = 17.18034 20.86671 19.02353
#
# Velocity S-wave (km/s) = 3.02408 3.33276 3.18216
# Velocity P-wave (km/s) = 6.15260 6.88682 6.53004
#
# Compressibility (1/GPa) = 0.02074338
#
# Stress axis : x y z
#
# Youngs Moduli (GPa) = 55.15993 89.59432 44.41955
#
# Poissons Ratio (x) = 0.64294 0.23369
# Poissons Ratio (y) = 0.39584 0.13738
# Poissons Ratio (z) = 0.29020 0.27709
#
# Static dielectric constant tensor:
#      x y z
#    x 3.301790 0.000000 0.000000 
#    y 0.000000 3.516810 0.000000 
#    z 0.000000 0.000000 3.393910 
# 
# 
# High freq. dielectric constant tensor:
#      x y z
#    x 1.725320 0.000000 0.000000 
#    y 0.000000 1.730960 0.000000 
#    z 0.000000 0.000000 1.699110 
# 
# From -- ./inp_files/28712.got.cif
#   From: 2010.03.12/outbox.cif.g09.slc.cpg/sg65_15_cif.got.tgz:28712.got - 2010.04.10 20:52:16.
