data_PCOD8270571
_publ_section_title
;
Structure prediction by ZEFSAII (Michael W. Deem and Ramdas Pophale) SiO2 
 PCOD8270571
Probable space group: C M M M
;
_chemical_formula_sum "Si O2"
_cell_formula_units_Z 80
_cell_length_a 17.369545
_cell_length_b 27.825572
_cell_length_c 9.031016
_cell_angle_alpha 90.000000
_cell_angle_beta 90.000000
_cell_angle_gamma 90.000000
_cell_volume 4364.848301
_symmetry_space_group_name_H-M "C M M M"
_symmetry_group_IT_number 65
_symmetry_cell_setting 'orthorhombic'
loop_
_space_group_symop_operation_xyz
x,y,z
-x,-y,z
x,-y,-z
-x,y,-z
-x,-y,-z
x,y,-z
-x,y,z
x,-y,z
1/2+x,1/2+y,z
1/2-x,1/2-y,z
1/2+x,1/2-y,-z
1/2-x,1/2+y,-z
1/2-x,1/2-y,-z
1/2+x,1/2+y,-z
1/2-x,1/2+y,z
1/2+x,1/2-y,z
loop_
_atom_site_type_symbol
_atom_site_label
_atom_site_fract_x
_atom_site_fract_y
_atom_site_fract_z
Si Si1 0.737682 0.554434 0.673142
Si Si2 0.349095 0.693580 0.828397
Si Si3 0.585092 0.606601 0.669290
Si Si4 0.410809 0.785603 0.673731
Si Si5 0.689877 0.141493 0.171972
O O1 0.753958 0.561116 0.500000
O O2 0.752802 0.500000 0.724288
O O3 0.648733 0.566927 0.711268
O O4 0.795172 0.588621 0.762632
O O5 0.408103 0.653378 0.771609
O O6 0.360990 0.742519 0.740451
O O7 0.262726 0.675766 0.799263
O O8 0.364883 0.703593 0.000000
O O9 0.596348 0.623603 0.500000
O O10 0.500000 0.584136 0.693259
O O11 0.396094 0.788067 0.500000
O O12 0.500000 0.777864 0.712303
O O13 0.383174 0.835542 0.745942
O O14 0.671101 0.136053 0.000000
#
# Coordination Sequence:
#
# PCOD8270571 Si02
#       5
#    16  16  16  16  16
#     4   9  18  33  53  75  99 131 170 211 256 301
#     4  10  20  33  50  74 104 138 174 206 240 289
#     4   9  17  29  46  71 104 139 174 210 246 288
#     4  11  23  36  52  76 104 133 166 205 250 299
#     4  10  21  36  54  76 102 133 169 208 249 295
#
# _framework density 18.328244000000002
#
# number of rings (size 3 to 8) (size 9 to 14) (size 15 to 20)
#    0.000    2.200    0.000    3.000    0.000   10.000 
#    0.000    2.000    0.000    0.600    0.000    9.800 
#    0.000    0.000    0.000    0.000    0.000    0.000 
#
# Total GULP energy -496108.893426 kJ/mol
# GULP energy per Si atom -12402.722336 kJ/mol
# Density = 1.828653 g / cm^3
# Si number density = 18.328244 Si / 1000 Ang^3
#
#
#
# Elastic Constant Matrix: (Units=GPa)
#
#
# Indices 1 2 3 4 5 6 
#
# 1 34.8212 36.2773 36.5880 0.0000 0.0000 0.0000
# 2 36.2773 130.8771 59.8394 0.0000 0.0000 0.0000
# 3 36.5880 59.8394 91.1640 0.0000 0.0000 0.0000
# 4 0.0000 0.0000 0.0000 20.7813 0.0000 0.0000
# 5 0.0000 0.0000 0.0000 0.0000 22.4604 0.0000
# 6 0.0000 0.0000 0.0000 0.0000 0.0000 15.7465
#
#
#
# Elastic Compliance Matrix: (Units=1/GPa)
#
#
# Indices 1 2 3 4 5 6 
#
# 1 0.054067 -0.007237 -0.016949 0.000000 0.000000 0.000000
# 2 -0.007237 0.011886 -0.004897 0.000000 0.000000 0.000000
# 3 -0.016949 -0.004897 0.020986 0.000000 0.000000 0.000000
# 4 0.000000 0.000000 0.000000 0.048120 0.000000 0.000000
# 5 0.000000 0.000000 0.000000 0.000000 0.044523 0.000000
# 6 0.000000 0.000000 0.000000 0.000000 0.000000 0.063506
#
#
# Mechanical properties :
#
#
# Convention : Reuss Voigt Hill
#
# Bulk Modulus (GPa) = 34.75585 58.03020 46.39302
# Shear Modulus (GPa) = 16.08520 20.07482 18.08001
#
# Velocity S-wave (km/s) = 2.96568 3.31311 3.14420
# Velocity P-wave (km/s) = 5.54357 6.80926 6.20875
#
# Compressibility (1/GPa) = 0.02877213
#
# Stress axis : x y z
#
# Youngs Moduli (GPa) = 18.49567 84.13309 47.65078
#
# Poissons Ratio (x) = 0.60889 0.80762
# Poissons Ratio (y) = 0.13386 0.23336
# Poissons Ratio (z) = 0.31348 0.41202
#
# Static dielectric constant tensor:
#      x y z
#    x 3.279480 0.000000 0.000000 
#    y 0.000000 3.304510 0.000000 
#    z 0.000000 0.000000 3.421390 
# 
# 
# High freq. dielectric constant tensor:
#      x y z
#    x 1.696270 0.000000 0.000000 
#    y 0.000000 1.699720 0.000000 
#    z 0.000000 0.000000 1.716700 
# 
# From -- ./inp_files/9571.got.cif
#   From: 2010.03.12/outbox.cif.g09.slc.cpg/sg65_5_cif.got.tgz:9571.got - 2010.04.10 20:52:16.
