data_PCOD8270472
_publ_section_title
;
Structure prediction by ZEFSAII (Michael W. Deem and Ramdas Pophale) SiO2 
 PCOD8270472
Probable space group: C M M M
;
_chemical_formula_sum "Si O2"
_cell_formula_units_Z 80
_cell_length_a 18.296581
_cell_length_b 8.054629
_cell_length_c 27.790687
_cell_angle_alpha 90.000000
_cell_angle_beta 90.000000
_cell_angle_gamma 90.000000
_cell_volume 4095.573902
_symmetry_space_group_name_H-M "C M M M"
_symmetry_group_IT_number 65
_symmetry_cell_setting 'orthorhombic'
loop_
_space_group_symop_operation_xyz
x,y,z
-x,-y,z
x,-y,-z
-x,y,-z
-x,-y,-z
x,y,-z
-x,y,z
x,-y,z
1/2+x,1/2+y,z
1/2-x,1/2-y,z
1/2+x,1/2-y,-z
1/2-x,1/2+y,-z
1/2-x,1/2-y,-z
1/2+x,1/2+y,-z
1/2-x,1/2+y,z
1/2+x,1/2-y,z
loop_
_atom_site_type_symbol
_atom_site_label
_atom_site_fract_x
_atom_site_fract_y
_atom_site_fract_z
Si Si1 0.332860 0.803705 0.593008
Si Si2 0.582612 0.198020 0.500000
Si Si3 0.417777 0.803896 0.684884
Si Si4 0.912975 0.683760 0.886425
Si Si5 0.413652 0.311511 0.786340
Si Si6 0.587184 0.500000 0.054527
O O1 0.250000 0.750000 0.589412
O O2 0.376321 0.732073 0.547098
O O3 0.368978 0.730067 0.641620
O O4 0.338628 0.000000 0.593539
O O5 0.500000 0.265887 0.500000
O O6 0.583059 0.000000 0.500000
O O7 0.500000 0.731233 0.679959
O O8 0.380858 0.751284 0.735646
O O9 0.420522 0.000000 0.682028
O O10 0.887797 0.500000 0.904617
O O11 0.883640 0.707259 0.831798
O O12 0.000000 0.695117 0.886662
O O13 0.882145 0.832188 0.920048
O O14 0.500000 0.288995 0.783330
O O15 0.390621 0.500000 0.795361
O O16 0.500000 0.500000 0.056616
O O17 0.615878 0.500000 0.000000
#
# Coordination Sequence:
#
# PCOD8270472 Si02
#       6
#    16   8  16  16  16   8
#     4  10  20  33  50  71  97 127 158 195 240 299
#     4   9  17  32  55  77  94 121 164 208 246 283
#     4   9  17  29  45  66  89 115 153 199 240 284
#     4   9  15  23  35  50  72 105 145 192 243 292
#     4   9  15  24  39  59  82 107 139 187 242 290
#     4   9  16  24  32  46  72 106 150 199 241 289
#
# _framework density 19.533280000000001
#
# number of rings (size 3 to 8) (size 9 to 14) (size 15 to 20)
#    0.000    2.800    1.000    1.500    0.000    6.000 
#    0.000    2.000    0.000    2.400    0.000    0.000 
#    0.000    0.000    0.000    0.000    0.000    1.000 
#
# Total GULP energy -495765.166213 kJ/mol
# GULP energy per Si atom -12394.129155 kJ/mol
# Density = 1.948882 g / cm^3
# Si number density = 19.533280 Si / 1000 Ang^3
#
#
#
# Elastic Constant Matrix: (Units=GPa)
#
#
# Indices 1 2 3 4 5 6 
#
# 1 61.9487 11.6853 44.6097 0.0000 0.0000 0.0000
# 2 11.6853 83.6377 64.2439 0.0000 0.0000 0.0000
# 3 44.6097 64.2439 188.4758 0.0000 0.0000 0.0000
# 4 0.0000 0.0000 0.0000 26.1018 0.0000 0.0000
# 5 0.0000 0.0000 0.0000 0.0000 4.4614 0.0000
# 6 0.0000 0.0000 0.0000 0.0000 0.0000 13.2939
#
#
#
# Elastic Compliance Matrix: (Units=1/GPa)
#
#
# Indices 1 2 3 4 5 6 
#
# 1 0.019535 0.001114 -0.005003 0.000000 0.000000 0.000000
# 2 0.001114 0.016261 -0.005806 0.000000 0.000000 0.000000
# 3 -0.005003 -0.005806 0.008469 0.000000 0.000000 0.000000
# 4 0.000000 0.000000 0.000000 0.038312 0.000000 0.000000
# 5 0.000000 0.000000 0.000000 0.000000 0.224144 0.000000
# 6 0.000000 0.000000 0.000000 0.000000 0.000000 0.075223
#
#
# Mechanical properties :
#
#
# Convention : Reuss Voigt Hill
#
# Bulk Modulus (GPa) = 40.20356 63.90446 52.05401
# Shear Modulus (GPa) = 12.20626 23.00630 17.60628
#
# Velocity S-wave (km/s) = 2.50250 3.43563 3.00550
# Velocity P-wave (km/s) = 5.38301 6.96597 6.22501
#
# Compressibility (1/GPa) = 0.02487342
#
# Stress axis : x y z
#
# Youngs Moduli (GPa) = 51.18947 61.49833 118.07655
#
# Poissons Ratio (x) = -0.06850 0.59079
# Poissons Ratio (y) = -0.05702 0.68558
# Poissons Ratio (z) = 0.25612 0.35707
#
# Static dielectric constant tensor:
#      x y z
#    x 2.864870 0.000000 0.000000 
#    y 0.000000 3.498330 0.000000 
#    z 0.000000 0.000000 3.953450 
# 
# 
# High freq. dielectric constant tensor:
#      x y z
#    x 1.688080 0.000000 0.000000 
#    y 0.000000 1.752880 0.000000 
#    z 0.000000 0.000000 1.776440 
# 
# From -- ./inp_files/75299.got.cif
#   From: 2010.03.12/outbox.cif.g09.slc.cpg/sg65_38_cif.got.tgz:75299.got - 2010.04.10 20:52:16.
