data_PCOD8270167
_publ_section_title
;
Structure prediction by ZEFSAII (Michael W. Deem and Ramdas Pophale) SiO2 
 PCOD8270167
Probable space group: C M M M
;
_chemical_formula_sum "Si O2"
_cell_formula_units_Z 120
_cell_length_a 24.999609
_cell_length_b 20.432513
_cell_length_c 13.769235
_cell_angle_alpha 90.000000
_cell_angle_beta 90.000000
_cell_angle_gamma 90.000000
_cell_volume 7033.391824
_symmetry_space_group_name_H-M "C M M M"
_symmetry_group_IT_number 65
_symmetry_cell_setting 'orthorhombic'
loop_
_space_group_symop_operation_xyz
x,y,z
-x,-y,z
x,-y,-z
-x,y,-z
-x,-y,-z
x,y,-z
-x,y,z
x,-y,z
1/2+x,1/2+y,z
1/2-x,1/2-y,z
1/2+x,1/2-y,-z
1/2-x,1/2+y,-z
1/2-x,1/2-y,-z
1/2+x,1/2+y,-z
1/2-x,1/2+y,z
1/2+x,1/2-y,z
loop_
_atom_site_type_symbol
_atom_site_label
_atom_site_fract_x
_atom_site_fract_y
_atom_site_fract_z
Si Si1 0.560017 0.073757 0.614273
Si Si2 0.644711 0.322958 0.614276
Si Si3 0.608377 0.858463 0.109675
Si Si4 0.718268 0.073667 0.890187
Si Si5 0.000000 0.572074 0.114596
Si Si6 0.865853 0.313965 0.695046
Si Si7 0.440560 0.573074 0.615315
Si Si8 0.250288 0.323738 0.260624
O O1 0.559267 0.084960 0.500000
O O2 0.500000 0.085006 0.656001
O O3 0.599896 0.125046 0.660802
O O4 0.579249 0.000000 0.638589
O O5 0.654385 0.330389 0.500000
O O6 0.619800 0.251761 0.637206
O O7 0.602594 0.375705 0.655742
O O8 0.700456 0.335095 0.667714
O O9 0.654743 0.912943 0.113953
O O10 0.553210 0.890106 0.146865
O O11 0.623603 0.802575 0.188719
O O12 0.603510 0.829170 0.000000
O O13 0.752796 0.124026 0.826210
O O14 0.727936 0.000000 0.852101
O O15 0.739074 0.081340 0.000000
O O16 0.000000 0.500000 0.162833
O O17 0.000000 0.564684 0.000000
O O18 0.803895 0.332765 0.676966
O O19 0.441061 0.576065 0.500000
O O20 0.500000 0.591124 0.654157
O O21 0.424823 0.500000 0.650188
O O22 0.250000 0.250000 0.216950
#
# Coordination Sequence:
#
# PCOD8270167 Si02
#       8
#    16  16  16  16   8  16  16  16
#     4   9  19  34  48  65  94 132 172 211 246 282
#     4  10  20  34  52  74  99 126 160 202 244 295
#     4   9  18  31  45  66  98 131 165 208 255 295
#     4   9  17  31  51  72  96 127 164 208 250 290
#     4   9  16  26  42  64  91 127 168 205 245 293
#     4  10  20  32  49  70  93 129 170 207 247 286
#     4   8  15  30  51  73  95 117 142 180 238 300
#     4   9  20  34  47  69  99 130 164 200 246 295
#
# _framework density 17.06147
#
# number of rings (size 3 to 8) (size 9 to 14) (size 15 to 20)
#    0.000    2.867    0.000    1.600    0.933    8.533 
#    0.000    3.333    0.000    1.600    0.000    0.000 
#    0.000    0.000    0.000    4.667    0.000    0.533 
#
# Total GULP energy -743695.569761 kJ/mol
# GULP energy per Si atom -12394.926163 kJ/mol
# Density = 1.702264 g / cm^3
# Si number density = 17.061470 Si / 1000 Ang^3
#
#
#
# Elastic Constant Matrix: (Units=GPa)
#
#
# Indices 1 2 3 4 5 6 
#
# 1 110.5775 69.0117 42.3789 0.0000 0.0000 0.0000
# 2 69.0117 117.9298 49.3906 0.0000 0.0000 0.0000
# 3 42.3789 49.3906 57.2400 0.0000 0.0000 0.0000
# 4 0.0000 0.0000 0.0000 26.4902 0.0000 0.0000
# 5 0.0000 0.0000 0.0000 0.0000 22.7662 0.0000
# 6 0.0000 0.0000 0.0000 0.0000 0.0000 27.7765
#
#
#
# Elastic Compliance Matrix: (Units=1/GPa)
#
#
# Indices 1 2 3 4 5 6 
#
# 1 0.015332 -0.006605 -0.005652 0.000000 0.000000 0.000000
# 2 -0.006605 0.016123 -0.009022 0.000000 0.000000 0.000000
# 3 -0.005652 -0.009022 0.029440 0.000000 0.000000 0.000000
# 4 0.000000 0.000000 0.000000 0.037750 0.000000 0.000000
# 5 0.000000 0.000000 0.000000 0.000000 0.043925 0.000000
# 6 0.000000 0.000000 0.000000 0.000000 0.000000 0.036002
#
#
# Mechanical properties :
#
#
# Convention : Reuss Voigt Hill
#
# Bulk Modulus (GPa) = 54.53562 67.47887 61.00724
# Shear Modulus (GPa) = 22.00297 23.73764 22.87030
#
# Velocity S-wave (km/s) = 3.59504 3.73406 3.66521
# Velocity P-wave (km/s) = 7.01897 7.63068 7.33121
#
# Compressibility (1/GPa) = 0.01833664
#
# Stress axis : x y z
#
# Youngs Moduli (GPa) = 65.22446 62.02161 33.96737
#
# Poissons Ratio (x) = 0.40964 0.19199
# Poissons Ratio (y) = 0.43080 0.30647
# Poissons Ratio (z) = 0.36865 0.55958
#
# Static dielectric constant tensor:
#      x y z
#    x 3.337040 0.000000 0.000000 
#    y 0.000000 3.200550 0.000000 
#    z 0.000000 0.000000 3.181940 
# 
# 
# High freq. dielectric constant tensor:
#      x y z
#    x 1.657350 0.000000 0.000000 
#    y 0.000000 1.645650 0.000000 
#    z 0.000000 0.000000 1.647660 
# 
# From -- ./inp_files/46116.got.cif
#   From: 2010.03.12/outbox.cif.g09.slc.cpg/sg65_24_cif.got.tgz:46116.got - 2010.04.10 20:52:16.
