data_PCOD8270558
_publ_section_title
;
Structure prediction by ZEFSAII (Michael W. Deem and Ramdas Pophale) SiO2 
 PCOD8270558
Probable space group: C M M M
;
_chemical_formula_sum "Si O2"
_cell_formula_units_Z 96
_cell_length_a 18.741479
_cell_length_b 9.207763
_cell_length_c 29.990891
_cell_angle_alpha 90.000000
_cell_angle_beta 90.000000
_cell_angle_gamma 90.000000
_cell_volume 5175.440993
_symmetry_space_group_name_H-M "C M M M"
_symmetry_group_IT_number 65
_symmetry_cell_setting 'orthorhombic'
loop_
_space_group_symop_operation_xyz
x,y,z
-x,-y,z
x,-y,-z
-x,y,-z
-x,-y,-z
x,y,-z
-x,y,z
x,-y,z
1/2+x,1/2+y,z
1/2-x,1/2-y,z
1/2+x,1/2-y,-z
1/2-x,1/2+y,-z
1/2-x,1/2-y,-z
1/2+x,1/2+y,-z
1/2-x,1/2+y,z
1/2+x,1/2-y,z
loop_
_atom_site_type_symbol
_atom_site_label
_atom_site_fract_x
_atom_site_fract_y
_atom_site_fract_z
Si Si1 0.824253 0.329690 0.129479
Si Si2 0.584106 0.163472 0.549969
Si Si3 0.320645 0.668251 0.385133
Si Si4 0.917328 0.667601 0.215425
Si Si5 0.177949 0.169761 0.717917
Si Si6 0.420282 0.172449 0.049728
O O1 0.809106 0.500000 0.125292
O O2 0.750000 0.250000 0.136560
O O3 0.875432 0.293694 0.170603
O O4 0.863354 0.266966 0.085284
O O5 0.611023 0.200750 0.500000
O O6 0.500000 0.177484 0.551978
O O7 0.614416 0.277053 0.585144
O O8 0.607805 0.000000 0.562741
O O9 0.308404 0.500000 0.393757
O O10 0.250000 0.750000 0.400908
O O11 0.338099 0.701174 0.333721
O O12 0.906331 0.500000 0.228800
O O13 0.888914 0.767527 0.255276
O O14 0.000000 0.703530 0.207360
O O15 0.250000 0.250000 0.733592
O O16 0.187327 0.000000 0.727948
O O17 0.500000 0.232370 0.060065
O O18 0.422698 0.000000 0.053303
O O19 0.396592 0.221032 0.000000
#
# Coordination Sequence:
#
# PCOD8270558 Si02
#       6
#    16  16  16  16  16  16
#     4  10  20  33  50  74 103 133 168 210 254 303
#     4   9  19  36  56  78 106 140 176 214 257 305
#     4  10  21  36  55  79 106 137 173 213 257 305
#     4  10  21  36  54  76 102 134 172 213 258 308
#     4  10  21  37  56  78 105 136 171 212 257 307
#     4   8  14  27  49  74  98 128 168 211 252 296
#
# _framework density 18.549143999999998
#
# number of rings (size 3 to 8) (size 9 to 14) (size 15 to 20)
#    0.000    2.500    0.000    3.000    0.000    8.333 
#    0.000    4.167    0.000    1.500    0.000    1.167 
#    0.000    0.000    0.000    0.000    0.000    0.000 
#
# Total GULP energy -595257.787253 kJ/mol
# GULP energy per Si atom -12401.203901 kJ/mol
# Density = 1.850693 g / cm^3
# Si number density = 18.549144 Si / 1000 Ang^3
#
#
#
# Elastic Constant Matrix: (Units=GPa)
#
#
# Indices 1 2 3 4 5 6 
#
# 1 120.5836 54.1180 68.5772 0.0000 0.0000 0.0000
# 2 54.1180 74.7463 57.4528 0.0000 0.0000 0.0000
# 3 68.5772 57.4528 105.3500 0.0000 0.0000 0.0000
# 4 0.0000 0.0000 0.0000 16.8201 0.0000 0.0000
# 5 0.0000 0.0000 0.0000 0.0000 37.7566 0.0000
# 6 0.0000 0.0000 0.0000 0.0000 0.0000 32.1341
#
#
#
# Elastic Compliance Matrix: (Units=1/GPa)
#
#
# Indices 1 2 3 4 5 6 
#
# 1 0.014388 -0.005541 -0.006344 0.000000 0.000000 0.000000
# 2 -0.005541 0.025168 -0.010118 0.000000 0.000000 0.000000
# 3 -0.006344 -0.010118 0.019140 0.000000 0.000000 0.000000
# 4 0.000000 0.000000 0.000000 0.059453 0.000000 0.000000
# 5 0.000000 0.000000 0.000000 0.000000 0.026485 0.000000
# 6 0.000000 0.000000 0.000000 0.000000 0.000000 0.031120
#
#
# Mechanical properties :
#
#
# Convention : Reuss Voigt Hill
#
# Bulk Modulus (GPa) = 68.07910 73.44178 70.76044
# Shear Modulus (GPa) = 22.25635 25.37763 23.81699
#
# Velocity S-wave (km/s) = 3.46766 3.70284 3.58717
# Velocity P-wave (km/s) = 7.26736 7.61317 7.44227
#
# Compressibility (1/GPa) = 0.01468880
#
# Stress axis : x y z
#
# Youngs Moduli (GPa) = 69.50467 39.73352 52.24713
#
# Poissons Ratio (x) = 0.22015 0.33145
# Poissons Ratio (y) = 0.38511 0.52866
# Poissons Ratio (z) = 0.44093 0.40204
#
# Static dielectric constant tensor:
#      x y z
#    x 3.380060 0.000000 0.000000 
#    y 0.000000 3.267870 0.000000 
#    z 0.000000 0.000000 3.565530 
# 
# 
# High freq. dielectric constant tensor:
#      x y z
#    x 1.720100 0.000000 0.000000 
#    y 0.000000 1.700170 0.000000 
#    z 0.000000 0.000000 1.729370 
# 
# From -- ./inp_files/75322.got.cif
#   From: 2010.03.12/outbox.cif.g09.slc.cpg/sg65_38_cif.got.tgz:75322.got - 2010.04.10 20:52:16.
