data_PCOD8270768
_publ_section_title
;
Structure prediction by ZEFSAII (Michael W. Deem and Ramdas Pophale) SiO2 
 PCOD8270768
Probable space group: C M M M
;
_chemical_formula_sum "Si O2"
_cell_formula_units_Z 88
_cell_length_a 28.228797
_cell_length_b 14.094329
_cell_length_c 12.290046
_cell_angle_alpha 90.000000
_cell_angle_beta 90.000000
_cell_angle_gamma 90.000000
_cell_volume 4889.790854
_symmetry_space_group_name_H-M "C M M M"
_symmetry_group_IT_number 65
_symmetry_cell_setting 'orthorhombic'
loop_
_space_group_symop_operation_xyz
x,y,z
-x,-y,z
x,-y,-z
-x,y,-z
-x,-y,-z
x,y,-z
-x,y,z
x,-y,z
1/2+x,1/2+y,z
1/2-x,1/2-y,z
1/2+x,1/2-y,-z
1/2-x,1/2+y,-z
1/2-x,1/2-y,-z
1/2+x,1/2+y,-z
1/2-x,1/2+y,z
1/2+x,1/2-y,z
loop_
_atom_site_type_symbol
_atom_site_label
_atom_site_fract_x
_atom_site_fract_y
_atom_site_fract_z
Si Si1 0.000000 0.887122 0.375946
Si Si2 0.086894 0.887943 0.769893
Si Si3 0.714638 0.894739 0.173119
Si Si4 0.634459 0.896310 0.000000
Si Si5 0.105284 0.803231 0.000000
Si Si6 0.827829 0.107620 0.381536
Si Si7 0.205562 0.107185 0.000000
Si Si8 0.250000 0.750000 0.672176
O O1 0.954479 0.849791 0.309044
O O2 0.000000 0.846441 0.500000
O O3 0.000000 0.000000 0.381617
O O4 0.136472 0.859049 0.713303
O O5 0.083094 0.000000 0.783014
O O6 0.081765 0.844662 0.890759
O O7 0.712332 0.813394 0.262165
O O8 0.718128 0.000000 0.224325
O O9 0.667174 0.887405 0.104966
O O10 0.762452 0.874758 0.105127
O O11 0.596776 0.810714 0.000000
O O12 0.608931 0.000000 0.000000
O O13 0.161761 0.821328 0.000000
O O14 0.853531 0.109540 0.500000
O O15 0.782547 0.176529 0.393533
O O16 0.810696 0.000000 0.356030
O O17 0.185230 0.000000 0.000000
#
# Coordination Sequence:
#
# PCOD8270768 Si02
#       8
#     8  16  16   8   8  16   8   8
#     4   9  18  35  57  77 101 135 166 190 226 284
#     4  10  20  33  52  77 103 130 159 195 240 292
#     4   9  17  27  40  59  85 123 170 209 238 279
#     4   9  18  30  41  58  90 132 172 203 233 279
#     4  12  20  28  45  73 104 126 150 192 250 297
#     4  10  21  35  48  65  93 131 173 208 237 280
#     4   9  16  26  39  59  92 132 166 192 229 290
#     4  12  19  27  44  66  92 123 160 206 257 290
#
# _framework density 17.996680000000001
#
# number of rings (size 3 to 8) (size 9 to 14) (size 15 to 20)
#    0.000    2.091    0.000    6.545    0.000    6.909 
#    0.000    1.364    0.000    0.000    0.000    1.273 
#    0.000    2.909    0.000    0.000    0.000    0.909 
#
# Total GULP energy -545287.595942 kJ/mol
# GULP energy per Si atom -12392.899908 kJ/mol
# Density = 1.795572 g / cm^3
# Si number density = 17.996680 Si / 1000 Ang^3
#
#
#
# Elastic Constant Matrix: (Units=GPa)
#
#
# Indices 1 2 3 4 5 6 
#
# 1 65.7103 27.5841 35.6904 0.0000 0.0000 0.0000
# 2 27.5841 85.9688 38.2045 0.0000 0.0000 0.0000
# 3 35.6904 38.2045 117.6130 0.0000 0.0000 0.0000
# 4 0.0000 0.0000 0.0000 -5.2395 0.0000 0.0000
# 5 0.0000 0.0000 0.0000 0.0000 14.3715 0.0000
# 6 0.0000 0.0000 0.0000 0.0000 0.0000 14.7663
#
#
#
# Elastic Compliance Matrix: (Units=1/GPa)
#
#
# Indices 1 2 3 4 5 6 
#
# 1 0.019454 -0.004229 -0.004530 0.000000 0.000000 0.000000
# 2 -0.004229 0.014514 -0.003431 0.000000 0.000000 0.000000
# 3 -0.004530 -0.003431 0.010992 0.000000 0.000000 0.000000
# 4 0.000000 0.000000 0.000000 -0.190858 0.000000 0.000000
# 5 0.000000 0.000000 0.000000 0.000000 0.069582 0.000000
# 6 0.000000 0.000000 0.000000 0.000000 0.000000 0.067722
#
#
# Mechanical properties :
#
#
# Convention : Reuss Voigt Hill
#
# Bulk Modulus (GPa) = 48.59213 52.47225 50.53219
# Shear Modulus (GPa) = 220.80033 15.96720 118.38376
#
# Velocity S-wave (km/s) = 11.08854 2.98187 8.11934
# Velocity P-wave (km/s) = 13.82029 6.40900 10.77209
#
# Compressibility (1/GPa) = 0.02057946
#
# Stress axis : x y z
#
# Youngs Moduli (GPa) = 51.40364 68.89942 90.97853
#
# Poissons Ratio (x) = 0.29138 0.41210
# Poissons Ratio (y) = 0.21739 0.31217
# Poissons Ratio (z) = 0.23284 0.23641
#
# Static dielectric constant tensor:
#      x y z
#    x 2.983110 0.000000 0.000000 
#    y 0.000000 3.380180 0.000000 
#    z 0.000000 0.000000 3.370220 
# 
# 
# High freq. dielectric constant tensor:
#      x y z
#    x 1.654700 0.000000 0.000000 
#    y 0.000000 1.685170 0.000000 
#    z 0.000000 0.000000 1.700380 
# 
# From -- ./inp_files/32313.got.cif
#   From: 2010.03.12/outbox.cif.g09.slc.cpg/sg65_17_cif.got.tgz:32313.got - 2010.04.10 20:52:16.
