data_PCOD8270371
_publ_section_title
;
Structure prediction by ZEFSAII (Michael W. Deem and Ramdas Pophale) SiO2 
 PCOD8270371
Probable space group: C M M M
;
_chemical_formula_sum "Si O2"
_cell_formula_units_Z 104
_cell_length_a 9.165850
_cell_length_b 27.675219
_cell_length_c 23.878249
_cell_angle_alpha 90.000000
_cell_angle_beta 90.000000
_cell_angle_gamma 90.000000
_cell_volume 6057.121546
_symmetry_space_group_name_H-M "C M M M"
_symmetry_group_IT_number 65
_symmetry_cell_setting 'orthorhombic'
loop_
_space_group_symop_operation_xyz
x,y,z
-x,-y,z
x,-y,-z
-x,y,-z
-x,-y,-z
x,y,-z
-x,y,z
x,-y,z
1/2+x,1/2+y,z
1/2-x,1/2-y,z
1/2+x,1/2-y,-z
1/2-x,1/2+y,-z
1/2-x,1/2-y,-z
1/2+x,1/2+y,-z
1/2-x,1/2+y,z
1/2+x,1/2-y,z
loop_
_atom_site_type_symbol
_atom_site_label
_atom_site_fract_x
_atom_site_fract_y
_atom_site_fract_z
Si Si1 0.662690 0.295711 0.746684
Si Si2 0.838241 0.000000 0.565682
Si Si3 0.664594 0.616172 0.334035
Si Si4 0.831561 0.643000 0.167314
Si Si5 0.672552 0.095492 0.436097
Si Si6 0.330317 0.798497 0.937192
Si Si7 0.829045 0.555551 0.242716
O O1 0.500000 0.280145 0.763708
O O2 0.750000 0.250000 0.723893
O O3 0.660652 0.333770 0.697370
O O4 0.738955 0.317154 0.800914
O O5 0.743673 0.954555 0.584273
O O6 0.856686 0.000000 0.500000
O O7 0.000000 0.000000 0.593407
O O8 0.500000 0.598775 0.348325
O O9 0.754615 0.630678 0.390621
O O10 0.742599 0.574927 0.296779
O O11 0.798298 0.654279 0.101852
O O12 0.789717 0.588476 0.187731
O O13 0.000000 0.652094 0.181516
O O14 0.715212 0.109401 0.500000
O O15 0.500000 0.092742 0.429708
O O16 0.500000 0.785872 0.935920
O O17 0.250000 0.750000 0.915787
O O18 0.278309 0.812153 0.000000
O O19 0.783578 0.500000 0.230089
O O20 0.000000 0.559086 0.256622
#
# Coordination Sequence:
#
# PCOD8270371 Si02
#       7
#    16   8  16  16  16  16  16
#     4  10  20  33  50  72  96 122 154 194 239 285
#     4   9  17  29  45  65  89 119 153 187 224 267
#     4  10  21  34  49  71  96 123 155 192 237 285
#     4   9  17  30  48  69  94 126 161 195 235 282
#     4  10  20  33  49  69  94 124 157 192 232 281
#     4   9  17  28  43  66  96 127 158 194 237 284
#     4   9  18  32  49  68  92 124 160 197 236 280
#
# _framework density 17.169871000000001
#
# number of rings (size 3 to 8) (size 9 to 14) (size 15 to 20)
#    0.000    2.538    0.000    2.077    1.077    5.846 
#    0.000    0.000    0.000    0.923    0.000    3.231 
#    0.000    0.000    0.000   11.538    0.000   12.000 
#
# Total GULP energy -644414.098120 kJ/mol
# GULP energy per Si atom -12392.578810 kJ/mol
# Density = 1.713079 g / cm^3
# Si number density = 17.169871 Si / 1000 Ang^3
#
#
#
# Elastic Constant Matrix: (Units=GPa)
#
#
# Indices 1 2 3 4 5 6 
#
# 1 86.9653 38.3756 47.2175 0.0000 0.0000 0.0000
# 2 38.3756 83.7952 43.7180 0.0000 0.0000 0.0000
# 3 47.2175 43.7180 108.2585 0.0000 0.0000 0.0000
# 4 0.0000 0.0000 0.0000 14.0393 0.0000 0.0000
# 5 0.0000 0.0000 0.0000 0.0000 21.6913 0.0000
# 6 0.0000 0.0000 0.0000 0.0000 0.0000 21.5128
#
#
#
# Elastic Compliance Matrix: (Units=1/GPa)
#
#
# Indices 1 2 3 4 5 6 
#
# 1 0.016465 -0.004806 -0.005240 0.000000 0.000000 0.000000
# 2 -0.004806 0.016522 -0.004576 0.000000 0.000000 0.000000
# 3 -0.005240 -0.004576 0.013371 0.000000 0.000000 0.000000
# 4 0.000000 0.000000 0.000000 0.071228 0.000000 0.000000
# 5 0.000000 0.000000 0.000000 0.000000 0.046102 0.000000
# 6 0.000000 0.000000 0.000000 0.000000 0.000000 0.046484
#
#
# Mechanical properties :
#
#
# Convention : Reuss Voigt Hill
#
# Bulk Modulus (GPa) = 58.43599 59.73791 59.08695
# Shear Modulus (GPa) = 20.39805 21.42921 20.91363
#
# Velocity S-wave (km/s) = 3.45050 3.53664 3.49383
# Velocity P-wave (km/s) = 7.06983 7.17948 7.12486
#
# Compressibility (1/GPa) = 0.01711274
#
# Stress axis : x y z
#
# Youngs Moduli (GPa) = 60.73487 60.52390 74.79095
#
# Poissons Ratio (x) = 0.29091 0.39193
# Poissons Ratio (y) = 0.29192 0.34223
# Poissons Ratio (z) = 0.31827 0.27695
#
# Static dielectric constant tensor:
#      x y z
#    x 3.425760 0.000000 0.000000 
#    y 0.000000 3.226360 0.000000 
#    z 0.000000 0.000000 3.310170 
# 
# 
# High freq. dielectric constant tensor:
#      x y z
#    x 1.673960 0.000000 0.000000 
#    y 0.000000 1.638930 0.000000 
#    z 0.000000 0.000000 1.657950 
# 
# From -- ./inp_files/68187.got.cif
#   From: 2010.03.12/outbox.cif.g09.slc.cpg/sg65_35_cif.got.tgz:68187.got - 2010.04.10 20:52:16.
