data_PCOD8270615
_publ_section_title
;
Structure prediction by ZEFSAII (Michael W. Deem and Ramdas Pophale) SiO2 
 PCOD8270615
Probable space group: C M M M
;
_chemical_formula_sum "Si O2"
_cell_formula_units_Z 104
_cell_length_a 27.528623
_cell_length_b 23.687833
_cell_length_c 8.160017
_cell_angle_alpha 90.000000
_cell_angle_beta 90.000000
_cell_angle_gamma 90.000000
_cell_volume 5321.093428
_symmetry_space_group_name_H-M "C M M M"
_symmetry_group_IT_number 65
_symmetry_cell_setting 'orthorhombic'
loop_
_space_group_symop_operation_xyz
x,y,z
-x,-y,z
x,-y,-z
-x,y,-z
-x,-y,-z
x,y,-z
-x,y,z
x,-y,z
1/2+x,1/2+y,z
1/2-x,1/2-y,z
1/2+x,1/2-y,-z
1/2-x,1/2+y,-z
1/2-x,1/2-y,-z
1/2+x,1/2+y,-z
1/2-x,1/2+y,z
1/2+x,1/2-y,z
loop_
_atom_site_type_symbol
_atom_site_label
_atom_site_fract_x
_atom_site_fract_y
_atom_site_fract_z
Si Si1 0.790908 0.855953 0.688572
Si Si2 0.873876 0.936164 0.694514
Si Si3 0.390279 0.065308 0.681885
Si Si4 0.446661 0.067121 0.000000
Si Si5 0.140426 0.234195 0.189509
Si Si6 0.554433 0.343168 0.193195
Si Si7 0.684695 0.157272 0.314622
O O1 0.782138 0.870530 0.500000
O O2 0.825172 0.905322 0.765595
O O3 0.817698 0.796465 0.707772
O O4 0.737604 0.849814 0.771536
O O5 0.871607 0.936624 0.500000
O O6 0.921593 0.901642 0.747209
O O7 0.876603 0.000000 0.764340
O O8 0.414333 0.075499 0.500000
O O9 0.422669 0.089105 0.831221
O O10 0.338650 0.095611 0.690234
O O11 0.379394 0.000000 0.709461
O O12 0.500000 0.093500 0.000000
O O13 0.448205 0.000000 0.000000
O O14 0.087507 0.210833 0.247876
O O15 0.148052 0.300584 0.219625
O O16 0.147453 0.219360 0.000000
O O17 0.500000 0.337043 0.268734
O O18 0.550458 0.345468 0.000000
O O19 0.690155 0.179904 0.500000
#
# Coordination Sequence:
#
# PCOD8270615 Si02
#       7
#    16  16  16   8  16  16  16
#     4   9  18  33  51  72 101 138 174 211 258 312
#     4   9  18  32  51  77 106 134 170 215 257 305
#     4   9  19  35  54  79 110 140 174 217 263 319
#     4   9  18  34  56  78 101 134 172 210 257 308
#     4  10  20  33  51  74 100 131 173 223 265 311
#     4   9  19  36  54  71  97 136 176 213 261 316
#     4  10  20  33  52  76 103 137 174 212 259 316
#
# _framework density 19.544854000000001
#
# number of rings (size 3 to 8) (size 9 to 14) (size 15 to 20)
#    0.000    2.692    0.000    0.923    1.077    4.923 
#    0.000    6.923    0.000    0.923    0.000    0.000 
#    0.000    0.000    0.000    0.000    0.000    0.000 
#
# Total GULP energy -644414.035037 kJ/mol
# GULP energy per Si atom -12392.577597 kJ/mol
# Density = 1.950037 g / cm^3
# Si number density = 19.544854 Si / 1000 Ang^3
#
#
#
# Elastic Constant Matrix: (Units=GPa)
#
#
# Indices 1 2 3 4 5 6 
#
# 1 163.1604 70.6439 41.4938 0.0000 0.0000 0.0000
# 2 70.6439 90.3988 20.3575 0.0000 0.0000 0.0000
# 3 41.4938 20.3575 57.9024 0.0000 0.0000 0.0000
# 4 0.0000 0.0000 0.0000 19.4558 0.0000 0.0000
# 5 0.0000 0.0000 0.0000 0.0000 22.6784 0.0000
# 6 0.0000 0.0000 0.0000 0.0000 0.0000 20.0478
#
#
#
# Elastic Compliance Matrix: (Units=1/GPa)
#
#
# Indices 1 2 3 4 5 6 
#
# 1 0.010452 -0.007038 -0.005015 0.000000 0.000000 0.000000
# 2 -0.007038 0.016753 -0.000846 0.000000 0.000000 0.000000
# 3 -0.005015 -0.000846 0.021162 0.000000 0.000000 0.000000
# 4 0.000000 0.000000 0.000000 0.051399 0.000000 0.000000
# 5 0.000000 0.000000 0.000000 0.000000 0.044095 0.000000
# 6 0.000000 0.000000 0.000000 0.000000 0.000000 0.049881
#
#
# Mechanical properties :
#
#
# Convention : Reuss Voigt Hill
#
# Bulk Modulus (GPa) = 44.31279 64.05023 54.18151
# Shear Modulus (GPa) = 22.02031 24.36750 23.19391
#
# Velocity S-wave (km/s) = 3.36021 3.53476 3.44859
# Velocity P-wave (km/s) = 6.14624 7.03573 6.60597
#
# Compressibility (1/GPa) = 0.02256685
#
# Stress axis : x y z
#
# Youngs Moduli (GPa) = 95.67727 59.69121 47.25438
#
# Poissons Ratio (x) = 0.42013 0.23700
# Poissons Ratio (y) = 0.67341 0.03999
# Poissons Ratio (z) = 0.47986 0.05051
#
# Static dielectric constant tensor:
#      x y z
#    x 3.813520 0.000000 0.000000 
#    y 0.000000 3.487830 0.000000 
#    z 0.000000 0.000000 3.547930 
# 
# 
# High freq. dielectric constant tensor:
#      x y z
#    x 1.757160 0.000000 0.000000 
#    y 0.000000 1.749390 0.000000 
#    z 0.000000 0.000000 1.750760 
# 
# From -- ./inp_files/16735.got.cif
#   From: 2010.03.12/outbox.cif.g09.slc.cpg/sg65_9_cif.got.tgz:16735.got - 2010.04.10 20:52:16.
