data_PCOD8270988
_publ_section_title
;
Structure prediction by ZEFSAII (Michael W. Deem and Ramdas Pophale) SiO2 
 PCOD8270988
Probable space group: C M M M
;
_chemical_formula_sum "Si O2"
_cell_formula_units_Z 128
_cell_length_a 18.461146
_cell_length_b 19.316533
_cell_length_c 20.074901
_cell_angle_alpha 90.000000
_cell_angle_beta 90.000000
_cell_angle_gamma 90.000000
_cell_volume 7158.816815
_symmetry_space_group_name_H-M "C M M M"
_symmetry_group_IT_number 65
_symmetry_cell_setting 'orthorhombic'
loop_
_space_group_symop_operation_xyz
x,y,z
-x,-y,z
x,-y,-z
-x,y,-z
-x,-y,-z
x,y,-z
-x,y,z
x,-y,z
1/2+x,1/2+y,z
1/2-x,1/2-y,z
1/2+x,1/2-y,-z
1/2-x,1/2+y,-z
1/2-x,1/2-y,-z
1/2+x,1/2+y,-z
1/2-x,1/2+y,z
1/2+x,1/2-y,z
loop_
_atom_site_type_symbol
_atom_site_label
_atom_site_fract_x
_atom_site_fract_y
_atom_site_fract_z
Si Si1 0.183407 0.203091 0.076369
Si Si2 0.652611 0.078376 0.181167
Si Si3 0.086133 0.834689 0.573739
Si Si4 0.413942 0.820426 0.573573
Si Si5 0.416555 0.419216 0.300334
Si Si6 0.585700 0.077634 0.316220
Si Si7 0.319161 0.579098 0.175892
Si Si8 0.917853 0.325674 0.923670
O O1 0.250000 0.250000 0.104388
O O2 0.170477 0.131491 0.114818
O O3 0.109918 0.247162 0.083495
O O4 0.200128 0.183219 0.000000
O O5 0.608986 0.107241 0.244619
O O6 0.736674 0.082793 0.199690
O O7 0.633863 0.123480 0.117052
O O8 0.628809 0.000000 0.165037
O O9 0.113621 0.858997 0.500000
O O10 0.114318 0.756977 0.588023
O O11 0.115307 0.883000 0.633159
O O12 0.000000 0.836504 0.573362
O O13 0.389217 0.844424 0.500000
O O14 0.500000 0.821080 0.578491
O O15 0.380101 0.873362 0.626990
O O16 0.500000 0.398060 0.286990
O O17 0.408678 0.500000 0.313282
O O18 0.369825 0.396098 0.236624
O O19 0.500000 0.077437 0.320804
O O20 0.616655 0.000000 0.326140
O O21 0.338927 0.500000 0.153980
O O22 0.000000 0.329025 0.897084
O O23 0.913079 0.350050 0.000000
#
# Coordination Sequence:
#
# PCOD8270988 Si02
#       8
#    16  16  16  16  16  16  16  16
#     4  10  20  37  57  77 104 136 174 217 257 307
#     4  10  20  34  51  73 104 139 174 211 254 313
#     4   8  14  26  45  70  99 129 163 208 264 319
#     4   8  14  25  41  63  91 121 158 205 251 297
#     4   9  18  32  50  75 105 134 170 218 264 309
#     4   9  17  28  43  65  93 125 161 203 250 297
#     4  10  21  36  55  78 105 139 176 213 260 314
#     4  10  21  36  55  80 107 136 170 213 265 312
#
# _framework density 17.880049
#
# number of rings (size 3 to 8) (size 9 to 14) (size 15 to 20)
#    0.000    2.750    1.250    1.125    0.000    3.250 
#    0.000    5.625    0.000    0.750    0.000    8.750 
#    0.000    0.000    0.000    0.000    0.000    0.000 
#
# Total GULP energy -793386.372386 kJ/mol
# GULP energy per Si atom -12396.662069 kJ/mol
# Density = 1.783935 g / cm^3
# Si number density = 17.880049 Si / 1000 Ang^3
#
#
#
# Elastic Constant Matrix: (Units=GPa)
#
#
# Indices 1 2 3 4 5 6 
#
# 1 49.8341 23.6732 31.6407 0.0000 0.0000 0.0000
# 2 23.6732 88.4231 75.9271 0.0000 0.0000 0.0000
# 3 31.6407 75.9271 126.0098 0.0000 0.0000 0.0000
# 4 0.0000 0.0000 0.0000 39.4187 0.0000 0.0000
# 5 0.0000 0.0000 0.0000 0.0000 14.3673 0.0000
# 6 0.0000 0.0000 0.0000 0.0000 0.0000 18.1790
#
#
#
# Elastic Compliance Matrix: (Units=1/GPa)
#
#
# Indices 1 2 3 4 5 6 
#
# 1 0.024160 -0.002609 -0.004494 0.000000 0.000000 0.000000
# 2 -0.002609 0.023716 -0.013635 0.000000 0.000000 0.000000
# 3 -0.004494 -0.013635 0.017280 0.000000 0.000000 0.000000
# 4 0.000000 0.000000 0.000000 0.025369 0.000000 0.000000
# 5 0.000000 0.000000 0.000000 0.000000 0.069602 0.000000
# 6 0.000000 0.000000 0.000000 0.000000 0.000000 0.055009
#
#
# Mechanical properties :
#
#
# Convention : Reuss Voigt Hill
#
# Bulk Modulus (GPa) = 42.23135 58.52765 50.37950
# Shear Modulus (GPa) = 18.90333 23.26141 21.08237
#
# Velocity S-wave (km/s) = 3.25504 3.61081 3.43753
# Velocity P-wave (km/s) = 6.14797 7.08438 6.63272
#
# Compressibility (1/GPa) = 0.02367909
#
# Stress axis : x y z
#
# Youngs Moduli (GPa) = 41.39158 42.16647 57.87045
#
# Poissons Ratio (x) = 0.11001 0.26009
# Poissons Ratio (y) = 0.10799 0.78904
# Poissons Ratio (z) = 0.18603 0.57493
#
# Static dielectric constant tensor:
#      x y z
#    x 3.099400 0.000000 0.000000 
#    y 0.000000 3.425740 0.000000 
#    z 0.000000 0.000000 3.441970 
# 
# 
# High freq. dielectric constant tensor:
#      x y z
#    x 1.662630 0.000000 0.000000 
#    y 0.000000 1.689500 0.000000 
#    z 0.000000 0.000000 1.694610 
# 
# From -- ./inp_files/64872.got.cif
#   From: 2010.03.12/outbox.cif.g09.slc.cpg/sg65_33_cif.got.tgz:64872.got - 2010.04.10 20:52:16.
