data_PCOD8270810
_publ_section_title
;
Structure prediction by ZEFSAII (Michael W. Deem and Ramdas Pophale) SiO2 
 PCOD8270810
Probable space group: C M M M
;
_chemical_formula_sum "Si O2"
_cell_formula_units_Z 96
_cell_length_a 25.123783
_cell_length_b 23.466145
_cell_length_c 8.898006
_cell_angle_alpha 90.000000
_cell_angle_beta 90.000000
_cell_angle_gamma 90.000000
_cell_volume 5245.893601
_symmetry_space_group_name_H-M "C M M M"
_symmetry_group_IT_number 65
_symmetry_cell_setting 'orthorhombic'
loop_
_space_group_symop_operation_xyz
x,y,z
-x,-y,z
x,-y,-z
-x,y,-z
-x,-y,-z
x,y,-z
-x,y,z
x,-y,z
1/2+x,1/2+y,z
1/2-x,1/2-y,z
1/2+x,1/2-y,-z
1/2-x,1/2+y,-z
1/2-x,1/2-y,-z
1/2+x,1/2+y,-z
1/2-x,1/2+y,z
1/2+x,1/2-y,z
loop_
_atom_site_type_symbol
_atom_site_label
_atom_site_fract_x
_atom_site_fract_y
_atom_site_fract_z
Si Si1 0.654165 0.113892 0.676391
Si Si2 0.939928 0.811091 0.176323
Si Si3 0.440114 0.194297 0.676092
Si Si4 0.311718 0.000000 0.178076
Si Si5 0.803667 0.000000 0.676114
Si Si6 0.755577 0.684752 0.827700
Si Si7 0.346621 0.608741 0.827209
O O1 0.657226 0.100958 0.500000
O O2 0.598576 0.142988 0.723477
O O3 0.702463 0.155007 0.719156
O O4 0.656798 0.055107 0.766083
O O5 0.919910 0.752532 0.249452
O O6 0.901971 0.862859 0.225532
O O7 0.000000 0.825945 0.228006
O O8 0.936004 0.801558 0.000000
O O9 0.437846 0.204474 0.500000
O O10 0.500000 0.178961 0.729748
O O11 0.251826 0.000000 0.237299
O O12 0.308956 0.000000 0.000000
O O13 0.837456 0.055195 0.720180
O O14 0.791927 0.000000 0.500000
O O15 0.750000 0.750000 0.778114
O O16 0.698976 0.655341 0.805573
O O17 0.775220 0.679629 0.000000
O O18 0.349216 0.588062 0.000000
#
# Coordination Sequence:
#
# PCOD8270810 Si02
#       7
#    16  16  16   8   8  16  16
#     4  11  22  36  56  82 110 143 186 231 271 324
#     4   9  18  34  58  86 113 145 187 229 269 320
#     4   9  19  36  57  82 114 150 183 221 275 328
#     4  12  24  40  59  78 107 147 184 226 282 337
#     4  12  24  38  57  80 107 143 188 232 272 327
#     4  10  20  33  52  79 111 146 180 220 274 333
#     4  10  20  35  55  79 111 148 183 224 276 327
#
# _framework density 18.300028000000001
#
# number of rings (size 3 to 8) (size 9 to 14) (size 15 to 20)
#    0.000    1.833    1.667    3.000    0.000    3.667 
#    0.000    0.833    0.000    5.000    0.000    0.000 
#    0.000    0.000    0.000    0.000    0.000    0.000 
#
# Total GULP energy -595376.686978 kJ/mol
# GULP energy per Si atom -12403.680979 kJ/mol
# Density = 1.825838 g / cm^3
# Si number density = 18.300028 Si / 1000 Ang^3
#
#
#
# Elastic Constant Matrix: (Units=GPa)
#
#
# Indices 1 2 3 4 5 6 
#
# 1 96.3810 55.9593 36.3108 0.0000 0.0000 0.0000
# 2 55.9593 138.7522 46.6000 0.0000 0.0000 0.0000
# 3 36.3108 46.6000 70.2031 0.0000 0.0000 0.0000
# 4 0.0000 0.0000 0.0000 27.1144 0.0000 0.0000
# 5 0.0000 0.0000 0.0000 0.0000 24.4353 0.0000
# 6 0.0000 0.0000 0.0000 0.0000 0.0000 29.8183
#
#
#
# Elastic Compliance Matrix: (Units=1/GPa)
#
#
# Indices 1 2 3 4 5 6 
#
# 1 0.014665 -0.004333 -0.004709 0.000000 0.000000 0.000000
# 2 -0.004333 0.010555 -0.004765 0.000000 0.000000 0.000000
# 3 -0.004709 -0.004765 0.019843 0.000000 0.000000 0.000000
# 4 0.000000 0.000000 0.000000 0.036881 0.000000 0.000000
# 5 0.000000 0.000000 0.000000 0.000000 0.040924 0.000000
# 6 0.000000 0.000000 0.000000 0.000000 0.000000 0.033536
#
#
# Mechanical properties :
#
#
# Convention : Reuss Voigt Hill
#
# Bulk Modulus (GPa) = 57.31001 64.78628 61.04815
# Shear Modulus (GPa) = 26.33853 27.37134 26.85494
#
# Velocity S-wave (km/s) = 3.79788 3.87162 3.83493
# Velocity P-wave (km/s) = 7.11454 7.44749 7.28292
#
# Compressibility (1/GPa) = 0.01744896
#
# Stress axis : x y z
#
# Youngs Moduli (GPa) = 68.18769 94.74175 50.39542
#
# Poissons Ratio (x) = 0.41052 0.23732
# Poissons Ratio (y) = 0.29546 0.24014
# Poissons Ratio (z) = 0.32110 0.45146
#
# Static dielectric constant tensor:
#      x y z
#    x 3.599800 0.000000 0.000000 
#    y 0.000000 3.465340 0.000000 
#    z 0.000000 0.000000 3.344970 
# 
# 
# High freq. dielectric constant tensor:
#      x y z
#    x 1.710250 0.000000 0.000000 
#    y 0.000000 1.712350 0.000000 
#    z 0.000000 0.000000 1.707130 
# 
# From -- ./inp_files/14351.got.cif
#   From: 2010.03.12/outbox.cif.g09.slc.cpg/sg65_8_cif.got.tgz:14351.got - 2010.04.10 20:52:16.
