data_PCOD8270833
_publ_section_title
;
Structure prediction by ZEFSAII (Michael W. Deem and Ramdas Pophale) SiO2 
 PCOD8270833
Probable space group: C M M M
;
_chemical_formula_sum "Si O2"
_cell_formula_units_Z 104
_cell_length_a 8.969297
_cell_length_b 28.238366
_cell_length_c 22.694668
_cell_angle_alpha 90.000000
_cell_angle_beta 90.000000
_cell_angle_gamma 90.000000
_cell_volume 5748.066736
_symmetry_space_group_name_H-M "C M M M"
_symmetry_group_IT_number 65
_symmetry_cell_setting 'orthorhombic'
loop_
_space_group_symop_operation_xyz
x,y,z
-x,-y,z
x,-y,-z
-x,y,-z
-x,-y,-z
x,y,-z
-x,y,z
x,-y,z
1/2+x,1/2+y,z
1/2-x,1/2-y,z
1/2+x,1/2-y,-z
1/2-x,1/2+y,-z
1/2-x,1/2-y,-z
1/2+x,1/2+y,-z
1/2-x,1/2+y,z
1/2+x,1/2-y,z
loop_
_atom_site_type_symbol
_atom_site_label
_atom_site_fract_x
_atom_site_fract_y
_atom_site_fract_z
Si Si1 0.826087 0.199737 0.273006
Si Si2 0.826688 0.298529 0.931325
Si Si3 0.670170 0.552903 0.337866
Si Si4 0.328010 0.054176 0.783708
Si Si5 0.675650 0.198839 0.500000
Si Si6 0.671838 0.351837 0.393623
Si Si7 0.323733 0.638834 0.161588
O O1 0.750000 0.250000 0.274178
O O2 0.784130 0.171307 0.331636
O O3 0.769474 0.170124 0.216996
O O4 0.000000 0.208468 0.268401
O O5 0.750000 0.250000 0.910423
O O6 0.752091 0.341941 0.897431
O O7 0.000000 0.295002 0.915641
O O8 0.799081 0.307683 0.000000
O O9 0.500000 0.559091 0.315215
O O10 0.696165 0.500000 0.363821
O O11 0.776752 0.562686 0.283111
O O12 0.701604 0.591574 0.388782
O O13 0.500000 0.068748 0.788070
O O14 0.232185 0.085426 0.828764
O O15 0.301804 0.000000 0.802292
O O16 0.500000 0.206116 0.500000
O O17 0.750000 0.250000 0.500000
O O18 0.722002 0.169474 0.442819
O O19 0.500000 0.341390 0.410287
O O20 0.500000 0.639197 0.153734
#
# Coordination Sequence:
#
# PCOD8270833 Si02
#       7
#    16  16  16  16   8  16  16
#     4  10  21  34  50  77 108 139 174 219 271 322
#     4  10  21  37  56  80 112 151 192 231 274 327
#     4   9  17  33  58  84 111 143 179 221 270 325
#     4  10  20  33  52  81 115 148 182 222 275 334
#     4  12  26  42  59  80 103 141 188 227 273 326
#     4  10  20  38  58  80 109 142 181 224 270 323
#     4  11  21  35  55  81 111 145 187 230 277 328
#
# _framework density 18.093039000000001
#
# number of rings (size 3 to 8) (size 9 to 14) (size 15 to 20)
#    0.000    1.846    1.538    3.000    0.000    6.769 
#    0.000    0.385    0.000    2.769    0.000    3.231 
#    0.000    0.000    0.000    0.000    0.000    0.000 
#
# Total GULP energy -644970.693161 kJ/mol
# GULP energy per Si atom -12403.282561 kJ/mol
# Density = 1.805186 g / cm^3
# Si number density = 18.093039 Si / 1000 Ang^3
#
#
#
# Elastic Constant Matrix: (Units=GPa)
#
#
# Indices 1 2 3 4 5 6 
#
# 1 96.1224 58.8967 50.3579 0.0000 0.0000 0.0000
# 2 58.8967 133.1697 51.5550 0.0000 0.0000 0.0000
# 3 50.3579 51.5550 77.8298 0.0000 0.0000 0.0000
# 4 0.0000 0.0000 0.0000 30.6008 0.0000 0.0000
# 5 0.0000 0.0000 0.0000 0.0000 29.7078 0.0000
# 6 0.0000 0.0000 0.0000 0.0000 0.0000 32.8451
#
#
#
# Elastic Compliance Matrix: (Units=1/GPa)
#
#
# Indices 1 2 3 4 5 6 
#
# 1 0.017559 -0.004529 -0.008361 0.000000 0.000000 0.000000
# 2 -0.004529 0.011267 -0.004533 0.000000 0.000000 0.000000
# 3 -0.008361 -0.004533 0.021261 0.000000 0.000000 0.000000
# 4 0.000000 0.000000 0.000000 0.032679 0.000000 0.000000
# 5 0.000000 0.000000 0.000000 0.000000 0.033661 0.000000
# 6 0.000000 0.000000 0.000000 0.000000 0.000000 0.030446
#
#
# Mechanical properties :
#
#
# Convention : Reuss Voigt Hill
#
# Bulk Modulus (GPa) = 65.61259 69.86011 67.73635
# Shear Modulus (GPa) = 26.76675 28.38488 27.57582
#
# Velocity S-wave (km/s) = 3.85046 3.96514 3.90822
# Velocity P-wave (km/s) = 7.49071 7.72389 7.60820
#
# Compressibility (1/GPa) = 0.01524098
#
# Stress axis : x y z
#
# Youngs Moduli (GPa) = 56.95239 88.75403 47.03422
#
# Poissons Ratio (x) = 0.40194 0.39325
# Poissons Ratio (y) = 0.25792 0.21322
# Poissons Ratio (z) = 0.47618 0.40234
#
# Static dielectric constant tensor:
#      x y z
#    x 3.389120 0.000000 0.000000 
#    y 0.000000 3.549600 0.000000 
#    z 0.000000 0.000000 3.204180 
# 
# 
# High freq. dielectric constant tensor:
#      x y z
#    x 1.706480 0.000000 0.000000 
#    y 0.000000 1.711960 0.000000 
#    z 0.000000 0.000000 1.680140 
# 
# From -- ./inp_files/60375.got.cif
#   From: 2010.03.12/outbox.cif.g09.slc.cpg/sg65_31_cif.got.tgz:60375.got - 2010.04.10 20:52:16.
