data_PCOD8270880
_publ_section_title
;
Structure prediction by ZEFSAII (Michael W. Deem and Ramdas Pophale) SiO2 
 PCOD8270880
Probable space group: C M M M
;
_chemical_formula_sum "Si O2"
_cell_formula_units_Z 88
_cell_length_a 9.025407
_cell_length_b 23.179988
_cell_length_c 22.533351
_cell_angle_alpha 90.000000
_cell_angle_beta 90.000000
_cell_angle_gamma 90.000000
_cell_volume 4714.175908
_symmetry_space_group_name_H-M "C M M M"
_symmetry_group_IT_number 65
_symmetry_cell_setting 'orthorhombic'
loop_
_space_group_symop_operation_xyz
x,y,z
-x,-y,z
x,-y,-z
-x,y,-z
-x,-y,-z
x,y,-z
-x,y,z
x,-y,z
1/2+x,1/2+y,z
1/2-x,1/2-y,z
1/2+x,1/2-y,-z
1/2-x,1/2+y,-z
1/2-x,1/2-y,-z
1/2+x,1/2+y,-z
1/2-x,1/2+y,z
1/2+x,1/2-y,z
loop_
_atom_site_type_symbol
_atom_site_label
_atom_site_fract_x
_atom_site_fract_y
_atom_site_fract_z
Si Si1 0.324961 0.812412 0.500000
Si Si2 0.825335 0.887907 0.172897
Si Si3 0.331416 0.308598 0.278331
Si Si4 0.172920 0.808212 0.933061
Si Si5 0.830998 0.878329 0.603339
Si Si6 0.672413 0.500000 0.652329
Si Si7 0.323854 0.000000 0.220098
O O1 0.500000 0.803224 0.500000
O O2 0.250000 0.750000 0.500000
O O3 0.279158 0.848476 0.442414
O O4 0.770439 0.840396 0.220162
O O5 0.786248 0.862740 0.108043
O O6 0.000000 0.901137 0.180629
O O7 0.733169 0.945453 0.183118
O O8 0.500000 0.291767 0.268448
O O9 0.250000 0.250000 0.292080
O O10 0.307601 0.350973 0.332797
O O11 0.250000 0.750000 0.909780
O O12 0.000000 0.795620 0.929855
O O13 0.224607 0.823186 0.000000
O O14 0.789722 0.945441 0.610874
O O15 0.000000 0.870619 0.580885
O O16 0.500000 0.500000 0.671404
O O17 0.765501 0.500000 0.712656
O O18 0.500000 0.000000 0.221927
#
# Coordination Sequence:
#
# PCOD8270880 Si02
#       7
#     8  16  16  16  16   8   8
#     4  12  26  43  62  85 119 156 192 236 287 338
#     4  10  20  37  57  78 111 154 194 232 282 345
#     4  10  20  33  54  82 111 144 184 231 282 335
#     4   9  18  33  56  85 116 152 192 236 286 340
#     4  10  21  39  63  87 113 150 194 232 279 340
#     4  10  20  41  67  87 116 154 191 229 281 346
#     4  12  24  36  56  86 116 147 190 242 293 338
#
# _framework density 18.667103000000001
#
# number of rings (size 3 to 8) (size 9 to 14) (size 15 to 20)
#    0.000    1.818    1.818    2.727    0.000    4.727 
#    0.000    2.273    0.000    2.727    0.000    0.000 
#    0.000    0.000    0.000    0.000    0.000    0.000 
#
# Total GULP energy -545700.304891 kJ/mol
# GULP energy per Si atom -12402.279657 kJ/mol
# Density = 1.862462 g / cm^3
# Si number density = 18.667103 Si / 1000 Ang^3
#
#
#
# Elastic Constant Matrix: (Units=GPa)
#
#
# Indices 1 2 3 4 5 6 
#
# 1 88.6120 62.4012 44.8072 0.0000 0.0000 0.0000
# 2 62.4012 147.6367 48.2098 0.0000 0.0000 0.0000
# 3 44.8072 48.2098 89.8795 0.0000 0.0000 0.0000
# 4 0.0000 0.0000 0.0000 24.7810 0.0000 0.0000
# 5 0.0000 0.0000 0.0000 0.0000 19.4612 0.0000
# 6 0.0000 0.0000 0.0000 0.0000 0.0000 28.4942
#
#
#
# Elastic Compliance Matrix: (Units=1/GPa)
#
#
# Indices 1 2 3 4 5 6 
#
# 1 0.018455 -0.005814 -0.006081 0.000000 0.000000 0.000000
# 2 -0.005814 0.010044 -0.002489 0.000000 0.000000 0.000000
# 3 -0.006081 -0.002489 0.015493 0.000000 0.000000 0.000000
# 4 0.000000 0.000000 0.000000 0.040354 0.000000 0.000000
# 5 0.000000 0.000000 0.000000 0.000000 0.051384 0.000000
# 6 0.000000 0.000000 0.000000 0.000000 0.000000 0.035095
#
#
# Mechanical properties :
#
#
# Convention : Reuss Voigt Hill
#
# Bulk Modulus (GPa) = 65.69379 70.77385 68.23382
# Shear Modulus (GPa) = 24.43000 25.92795 25.17898
#
# Velocity S-wave (km/s) = 3.62155 3.73093 3.67664
# Velocity P-wave (km/s) = 7.26334 7.52035 7.39297
#
# Compressibility (1/GPa) = 0.01522214
#
# Stress axis : x y z
#
# Youngs Moduli (GPa) = 54.18647 99.56629 64.54696
#
# Poissons Ratio (x) = 0.57892 0.39254
# Poissons Ratio (y) = 0.31506 0.16063
# Poissons Ratio (z) = 0.32953 0.24778
#
# Static dielectric constant tensor:
#      x y z
#    x 3.348730 0.000000 0.000000 
#    y 0.000000 3.649020 0.000000 
#    z 0.000000 0.000000 3.617380 
# 
# 
# High freq. dielectric constant tensor:
#      x y z
#    x 1.712870 0.000000 0.000000 
#    y 0.000000 1.733570 0.000000 
#    z 0.000000 0.000000 1.728770 
# 
# From -- ./inp_files/59865.got.cif
#   From: 2010.03.12/outbox.cif.g09.slc.cpg/sg65_30_cif.got.tgz:59865.got - 2010.04.10 20:52:16.
