data_PCOD8270320
_publ_section_title
;
Structure prediction by ZEFSAII (Michael W. Deem and Ramdas Pophale) SiO2 
 PCOD8270320
Probable space group: C M M M
;
_chemical_formula_sum "Si O2"
_cell_formula_units_Z 72
_cell_length_a 9.083771
_cell_length_b 19.995282
_cell_length_c 22.750959
_cell_angle_alpha 90.000000
_cell_angle_beta 90.000000
_cell_angle_gamma 90.000000
_cell_volume 4132.314989
_symmetry_space_group_name_H-M "C M M M"
_symmetry_group_IT_number 65
_symmetry_cell_setting 'orthorhombic'
loop_
_space_group_symop_operation_xyz
x,y,z
-x,-y,z
x,-y,-z
-x,y,-z
-x,-y,-z
x,y,-z
-x,y,z
x,-y,z
1/2+x,1/2+y,z
1/2-x,1/2-y,z
1/2+x,1/2-y,-z
1/2-x,1/2+y,-z
1/2-x,1/2-y,-z
1/2+x,1/2+y,-z
1/2-x,1/2+y,z
1/2+x,1/2-y,z
loop_
_atom_site_type_symbol
_atom_site_label
_atom_site_fract_x
_atom_site_fract_y
_atom_site_fract_z
Si Si1 0.327251 0.317282 0.655533
Si Si2 0.173572 0.427201 0.000000
Si Si3 0.672646 0.681647 0.790502
Si Si4 0.829271 0.579394 0.872526
Si Si5 0.825124 0.925727 0.434650
O O1 0.500000 0.308202 0.646519
O O2 0.250000 0.250000 0.634384
O O3 0.288217 0.333604 0.722874
O O4 0.261807 0.376045 0.614686
O O5 0.216423 0.392348 0.937975
O O6 0.249108 0.500000 0.000000
O O7 0.000000 0.437466 0.000000
O O8 0.500000 0.690229 0.800699
O O9 0.750000 0.750000 0.811715
O O10 0.729592 0.618116 0.826330
O O11 0.798788 0.500000 0.867975
O O12 0.000000 0.594609 0.859452
O O13 0.775462 0.902555 0.500000
O O14 0.000000 0.927084 0.431150
O O15 0.763404 0.000000 0.421637
#
# Coordination Sequence:
#
# PCOD8270320 Si02
#       5
#    16   8  16  16  16
#     4   9  18  31  47  67  91 120 153 190 230 271
#     4   7  12  26  48  71  94 121 151 185 228 277
#     4  10  20  33  48  67  95 128 160 196 237 279
#     4   9  17  31  52  75  97 122 154 191 232 280
#     4   8  14  26  45  68  92 118 150 187 225 267
#
# _framework density 17.423648
#
# number of rings (size 3 to 8) (size 9 to 14) (size 15 to 20)
#    0.000    3.222    0.000    2.667    0.000    2.667 
#    0.000    3.333    0.000    2.667    0.000    1.556 
#    0.000    0.000    0.000    0.000    0.000    0.000 
#
# Total GULP energy -446095.650189 kJ/mol
# GULP energy per Si atom -12391.545839 kJ/mol
# Density = 1.738399 g / cm^3
# Si number density = 17.423648 Si / 1000 Ang^3
#
#
#
# Elastic Constant Matrix: (Units=GPa)
#
#
# Indices 1 2 3 4 5 6 
#
# 1 41.2811 36.0189 35.5167 0.0000 0.0000 0.0000
# 2 36.0189 105.0929 80.2711 0.0000 0.0000 0.0000
# 3 35.5167 80.2711 117.9215 0.0000 0.0000 0.0000
# 4 0.0000 0.0000 0.0000 19.1087 0.0000 0.0000
# 5 0.0000 0.0000 0.0000 0.0000 16.6191 0.0000
# 6 0.0000 0.0000 0.0000 0.0000 0.0000 26.9725
#
#
#
# Elastic Compliance Matrix: (Units=1/GPa)
#
#
# Indices 1 2 3 4 5 6 
#
# 1 0.035966 -0.008442 -0.005086 0.000000 0.000000 0.000000
# 2 -0.008442 0.021803 -0.012299 0.000000 0.000000 0.000000
# 3 -0.005086 -0.012299 0.018384 0.000000 0.000000 0.000000
# 4 0.000000 0.000000 0.000000 0.052332 0.000000 0.000000
# 5 0.000000 0.000000 0.000000 0.000000 0.060172 0.000000
# 6 0.000000 0.000000 0.000000 0.000000 0.000000 0.037075
#
#
# Mechanical properties :
#
#
# Convention : Reuss Voigt Hill
#
# Bulk Modulus (GPa) = 40.81786 63.10097 51.95941
# Shear Modulus (GPa) = 17.50999 20.03931 18.77465
#
# Velocity S-wave (km/s) = 3.17354 3.39502 3.28615
# Velocity P-wave (km/s) = 6.07504 7.18767 6.65465
#
# Compressibility (1/GPa) = 0.02449908
#
# Stress axis : x y z
#
# Youngs Moduli (GPa) = 27.80420 45.86579 54.39499
#
# Poissons Ratio (x) = 0.38720 0.27665
# Poissons Ratio (y) = 0.23472 0.66899
# Poissons Ratio (z) = 0.14141 0.56410
#
# Static dielectric constant tensor:
#      x y z
#    x 2.893190 0.000000 0.000000 
#    y 0.000000 3.253090 0.000000 
#    z 0.000000 0.000000 3.546890 
# 
# 
# High freq. dielectric constant tensor:
#      x y z
#    x 1.639260 0.000000 0.000000 
#    y 0.000000 1.661420 0.000000 
#    z 0.000000 0.000000 1.684250 
# 
# From -- ./inp_files/59205.got.cif
#   From: 2010.03.12/outbox.cif.g09.slc.cpg/sg65_30_cif.got.tgz:59205.got - 2010.04.10 20:52:16.
