data_PCOD8270061
_publ_section_title
;
Structure prediction by ZEFSAII (Michael W. Deem and Ramdas Pophale) SiO2 
 PCOD8270061
Probable space group: C M M M
;
_chemical_formula_sum "Si O2"
_cell_formula_units_Z 96
_cell_length_a 9.137983
_cell_length_b 18.700775
_cell_length_c 30.583644
_cell_angle_alpha 90.000000
_cell_angle_beta 90.000000
_cell_angle_gamma 90.000000
_cell_volume 5226.358306
_symmetry_space_group_name_H-M "C M M M"
_symmetry_group_IT_number 65
_symmetry_cell_setting 'orthorhombic'
loop_
_space_group_symop_operation_xyz
x,y,z
-x,-y,z
x,-y,-z
-x,y,-z
-x,-y,-z
x,y,-z
-x,y,z
x,-y,z
1/2+x,1/2+y,z
1/2-x,1/2-y,z
1/2+x,1/2-y,-z
1/2-x,1/2+y,-z
1/2-x,1/2-y,-z
1/2+x,1/2+y,-z
1/2-x,1/2+y,z
1/2+x,1/2-y,z
loop_
_atom_site_type_symbol
_atom_site_label
_atom_site_fract_x
_atom_site_fract_y
_atom_site_fract_z
Si Si1 0.332477 0.417909 0.550815
Si Si2 0.671480 0.918430 0.297232
Si Si3 0.826271 0.079894 0.951445
Si Si4 0.671012 0.418185 0.789499
Si Si5 0.326419 0.325422 0.127778
Si Si6 0.173160 0.674282 0.620083
O O1 0.309271 0.401236 0.500000
O O2 0.500000 0.402266 0.564294
O O3 0.292589 0.500000 0.561031
O O4 0.223729 0.367006 0.576919
O O5 0.500000 0.912454 0.289607
O O6 0.748782 0.889043 0.253657
O O7 0.723081 0.870907 0.337823
O O8 0.719442 0.000000 0.306750
O O9 0.765221 0.134789 0.915492
O O10 0.000000 0.077515 0.948379
O O11 0.765694 0.000000 0.942037
O O12 0.776842 0.105025 0.000000
O O13 0.500000 0.410632 0.781110
O O14 0.715373 0.500000 0.799199
O O15 0.722011 0.371655 0.830555
O O16 0.500000 0.315303 0.125844
O O17 0.250000 0.250000 0.131282
O O18 0.250000 0.750000 0.622868
O O19 0.000000 0.684685 0.617990
#
# Coordination Sequence:
#
# PCOD8270061 Si02
#       6
#    16  16  16  16  16  16
#     4   9  19  37  60  84 109 138 174 216 260 307
#     4   9  19  36  56  77 101 130 167 212 259 306
#     4   8  14  27  49  73  94 122 164 209 247 285
#     4   9  18  33  53  74  95 125 167 210 248 290
#     4  10  20  32  47  71 102 131 161 200 246 297
#     4  11  23  37  54  78 109 143 177 214 258 307
#
# _framework density 18.368431000000001
#
# number of rings (size 3 to 8) (size 9 to 14) (size 15 to 20)
#    0.000    2.667    0.000    2.500    0.000    6.667 
#    0.000    5.833    0.000    1.500    0.000    1.167 
#    0.000    0.000    0.000    0.000    0.000    0.000 
#
# Total GULP energy -595223.825246 kJ/mol
# GULP energy per Si atom -12400.496359 kJ/mol
# Density = 1.832662 g / cm^3
# Si number density = 18.368431 Si / 1000 Ang^3
#
#
#
# Elastic Constant Matrix: (Units=GPa)
#
#
# Indices 1 2 3 4 5 6 
#
# 1 43.4847 45.1293 49.7374 0.0000 0.0000 0.0000
# 2 45.1293 124.0226 88.8741 0.0000 0.0000 0.0000
# 3 49.7374 88.8741 148.4904 0.0000 0.0000 0.0000
# 4 0.0000 0.0000 0.0000 12.2823 0.0000 0.0000
# 5 0.0000 0.0000 0.0000 0.0000 24.0038 0.0000
# 6 0.0000 0.0000 0.0000 0.0000 0.0000 19.6733
#
#
#
# Elastic Compliance Matrix: (Units=1/GPa)
#
#
# Indices 1 2 3 4 5 6 
#
# 1 0.042564 -0.009231 -0.008732 0.000000 0.000000 0.000000
# 2 -0.009231 0.016120 -0.006556 0.000000 0.000000 0.000000
# 3 -0.008732 -0.006556 0.013583 0.000000 0.000000 0.000000
# 4 0.000000 0.000000 0.000000 0.081418 0.000000 0.000000
# 5 0.000000 0.000000 0.000000 0.000000 0.041660 0.000000
# 6 0.000000 0.000000 0.000000 0.000000 0.000000 0.050830
#
#
# Mechanical properties :
#
#
# Convention : Reuss Voigt Hill
#
# Bulk Modulus (GPa) = 43.04930 75.94215 59.49573
# Shear Modulus (GPa) = 16.50393 20.00902 18.25647
#
# Velocity S-wave (km/s) = 3.00074 3.30406 3.15605
# Velocity P-wave (km/s) = 5.95763 7.48260 6.76324
#
# Compressibility (1/GPa) = 0.02322918
#
# Stress axis : x y z
#
# Youngs Moduli (GPa) = 23.49380 62.03403 73.61917
#
# Poissons Ratio (x) = 0.57262 0.64286
# Poissons Ratio (y) = 0.21687 0.48267
# Poissons Ratio (z) = 0.20515 0.40671
#
# Static dielectric constant tensor:
#      x y z
#    x 3.128830 0.000000 0.000000 
#    y 0.000000 3.400850 0.000000 
#    z 0.000000 0.000000 3.601750 
# 
# 
# High freq. dielectric constant tensor:
#      x y z
#    x 1.688250 0.000000 0.000000 
#    y 0.000000 1.711090 0.000000 
#    z 0.000000 0.000000 1.726080 
# 
# From -- ./inp_files/73082.got.cif
#   From: 2010.03.12/outbox.cif.g09.slc.cpg/sg65_37_cif.got.tgz:73082.got - 2010.04.10 20:52:16.
