data_PCOD8270672
_publ_section_title
;
Structure prediction by ZEFSAII (Michael W. Deem and Ramdas Pophale) SiO2 
 PCOD8270672
Probable space group: C M M M
;
_chemical_formula_sum "Si O2"
_cell_formula_units_Z 72
_cell_length_a 27.939103
_cell_length_b 16.031081
_cell_length_c 9.009529
_cell_angle_alpha 90.000000
_cell_angle_beta 90.000000
_cell_angle_gamma 90.000000
_cell_volume 4035.314191
_symmetry_space_group_name_H-M "C M M M"
_symmetry_group_IT_number 65
_symmetry_cell_setting 'orthorhombic'
loop_
_space_group_symop_operation_xyz
x,y,z
-x,-y,z
x,-y,-z
-x,y,-z
-x,-y,-z
x,y,-z
-x,y,z
x,-y,z
1/2+x,1/2+y,z
1/2-x,1/2-y,z
1/2+x,1/2-y,-z
1/2-x,1/2+y,-z
1/2-x,1/2-y,-z
1/2+x,1/2+y,-z
1/2-x,1/2+y,z
1/2+x,1/2-y,z
loop_
_atom_site_type_symbol
_atom_site_label
_atom_site_fract_x
_atom_site_fract_y
_atom_site_fract_z
Si Si1 0.691825 0.904494 0.330259
Si Si2 0.443291 0.500000 0.166614
Si Si3 0.444328 0.332711 0.673763
Si Si4 0.635100 0.761798 0.824266
Si Si5 0.723997 0.337648 0.162572
O O1 0.689445 0.874673 0.500000
O O2 0.655590 0.849471 0.233849
O O3 0.747053 0.895796 0.276335
O O4 0.675797 0.000000 0.313253
O O5 0.500000 0.500000 0.161265
O O6 0.425550 0.581749 0.252837
O O7 0.421829 0.500000 0.000000
O O8 0.434178 0.337694 0.500000
O O9 0.500000 0.317025 0.707668
O O10 0.415509 0.255918 0.745863
O O11 0.670328 0.684254 0.782527
O O12 0.628326 0.769476 0.000000
O O13 0.750000 0.250000 0.147319
O O14 0.722844 0.381064 0.000000
#
# Coordination Sequence:
#
# PCOD8270672 Si02
#       5
#    16   8  16  16  16
#     4  10  20  33  51  76 104 135 171 211 257 308
#     4   9  17  31  51  73  99 131 167 207 249 297
#     4  10  20  34  53  77 105 137 172 212 259 307
#     4  10  20  34  53  76 102 136 175 213 256 305
#     4   8  16  31  49  70  96 127 164 205 249 298
#
# _framework density 17.842476000000001
#
# number of rings (size 3 to 8) (size 9 to 14) (size 15 to 20)
#    0.000    2.556    0.000    3.667    0.000    9.333 
#    2.000    0.000    0.000    0.667    0.000    4.667 
#    0.000    0.000    0.000    0.000    0.000    0.000 
#
# Total GULP energy -446296.647940 kJ/mol
# GULP energy per Si atom -12397.129109 kJ/mol
# Density = 1.780187 g / cm^3
# Si number density = 17.842476 Si / 1000 Ang^3
#
#
#
# Elastic Constant Matrix: (Units=GPa)
#
#
# Indices 1 2 3 4 5 6 
#
# 1 79.8093 39.6392 55.5555 0.0000 0.0000 0.0000
# 2 39.6392 72.8807 51.4981 0.0000 0.0000 0.0000
# 3 55.5555 51.4981 127.4259 0.0000 0.0000 0.0000
# 4 0.0000 0.0000 0.0000 22.6903 0.0000 0.0000
# 5 0.0000 0.0000 0.0000 0.0000 28.6235 0.0000
# 6 0.0000 0.0000 0.0000 0.0000 0.0000 23.5173
#
#
#
# Elastic Compliance Matrix: (Units=1/GPa)
#
#
# Indices 1 2 3 4 5 6 
#
# 1 0.020034 -0.006613 -0.006062 0.000000 0.000000 0.000000
# 2 -0.006613 0.021388 -0.005761 0.000000 0.000000 0.000000
# 3 -0.006062 -0.005761 0.012819 0.000000 0.000000 0.000000
# 4 0.000000 0.000000 0.000000 0.044072 0.000000 0.000000
# 5 0.000000 0.000000 0.000000 0.000000 0.034936 0.000000
# 6 0.000000 0.000000 0.000000 0.000000 0.000000 0.042522
#
#
# Mechanical properties :
#
#
# Convention : Reuss Voigt Hill
#
# Bulk Modulus (GPa) = 57.57098 63.72238 60.64668
# Shear Modulus (GPa) = 22.89035 23.86109 23.37572
#
# Velocity S-wave (km/s) = 3.58566 3.66091 3.62348
# Velocity P-wave (km/s) = 7.03413 7.32537 7.18122
#
# Compressibility (1/GPa) = 0.01736986
#
# Stress axis : x y z
#
# Youngs Moduli (GPa) = 49.91493 46.75424 78.01055
#
# Poissons Ratio (x) = 0.30918 0.47289
# Poissons Ratio (y) = 0.33009 0.44940
# Poissons Ratio (z) = 0.30258 0.26934
#
# Static dielectric constant tensor:
#      x y z
#    x 3.394220 0.000000 0.000000 
#    y 0.000000 3.053410 0.000000 
#    z 0.000000 0.000000 3.446740 
# 
# 
# High freq. dielectric constant tensor:
#      x y z
#    x 1.674770 0.000000 0.000000 
#    y 0.000000 1.666610 0.000000 
#    z 0.000000 0.000000 1.705020 
# 
# From -- ./inp_files/7657.got.cif
#   From: 2010.03.12/outbox.cif.g09.slc.cpg/sg65_4_cif.got.tgz:7657.got - 2010.04.10 20:52:16.
