data_PCOD8270218
_publ_section_title
;
Structure prediction by ZEFSAII (Michael W. Deem and Ramdas Pophale) SiO2 
 PCOD8270218
Probable space group: C M M M
;
_chemical_formula_sum "Si O2"
_cell_formula_units_Z 96
_cell_length_a 23.345192
_cell_length_b 23.577126
_cell_length_c 9.407633
_cell_angle_alpha 90.000000
_cell_angle_beta 90.000000
_cell_angle_gamma 90.000000
_cell_volume 5178.079112
_symmetry_space_group_name_H-M "C M M M"
_symmetry_group_IT_number 65
_symmetry_cell_setting 'orthorhombic'
loop_
_space_group_symop_operation_xyz
x,y,z
-x,-y,z
x,-y,-z
-x,y,-z
-x,-y,-z
x,y,-z
-x,y,z
x,-y,z
1/2+x,1/2+y,z
1/2-x,1/2-y,z
1/2+x,1/2-y,-z
1/2-x,1/2+y,-z
1/2-x,1/2-y,-z
1/2+x,1/2+y,-z
1/2-x,1/2+y,z
1/2+x,1/2-y,z
loop_
_atom_site_type_symbol
_atom_site_label
_atom_site_fract_x
_atom_site_fract_y
_atom_site_fract_z
Si Si1 0.432853 0.329668 0.665961
Si Si2 0.343282 0.734540 0.164002
Si Si3 0.816396 0.435416 0.669167
Si Si4 0.067930 0.062645 0.840691
Si Si5 0.233476 0.660915 0.836537
Si Si6 0.939719 0.432784 0.341567
O O1 0.419110 0.331258 0.500000
O O2 0.500000 0.319809 0.695518
O O3 0.398373 0.278048 0.738255
O O4 0.410599 0.389108 0.732701
O O5 0.295633 0.686809 0.190720
O O6 0.316308 0.794875 0.207450
O O7 0.362603 0.734807 0.000000
O O8 0.814641 0.429090 0.500000
O O9 0.802968 0.500000 0.713765
O O10 0.769700 0.395174 0.740712
O O11 0.879346 0.415063 0.729942
O O12 0.000000 0.061379 0.840516
O O13 0.090626 0.000000 0.794049
O O14 0.090093 0.076993 0.000000
O O15 0.225994 0.643866 0.000000
O O16 0.941553 0.407179 0.500000
O O17 0.937946 0.500000 0.352789
O O18 0.000000 0.413867 0.263300
#
# Coordination Sequence:
#
# PCOD8270218 Si02
#       6
#    16  16  16  16  16  16
#     4  10  20  32  49  77 108 132 159 202 253 299
#     4   9  19  37  57  73  93 127 171 211 247 294
#     4   9  17  29  48  76 106 133 162 199 247 302
#     4   8  14  26  45  68  95 131 171 202 234 287
#     4   9  19  36  56  75  94 123 168 215 251 287
#     4   7  10  19  37  61  90 125 161 190 219 267
#
# _framework density 18.539694000000001
#
# number of rings (size 3 to 8) (size 9 to 14) (size 15 to 20)
#    0.000    3.333    0.000    3.500    0.000    3.000 
#    0.000    5.000    0.000    4.500    0.000    2.333 
#    0.000    0.000    0.000    0.000    0.000    0.000 
#
# Total GULP energy -594626.729122 kJ/mol
# GULP energy per Si atom -12388.056857 kJ/mol
# Density = 1.849750 g / cm^3
# Si number density = 18.539694 Si / 1000 Ang^3
#
#
#
# Elastic Constant Matrix: (Units=GPa)
#
#
# Indices 1 2 3 4 5 6 
#
# 1 50.3911 30.5106 35.8774 0.0000 0.0000 0.0000
# 2 30.5106 74.9763 42.5051 0.0000 0.0000 0.0000
# 3 35.8774 42.5051 72.9335 0.0000 0.0000 0.0000
# 4 0.0000 0.0000 0.0000 25.1085 0.0000 0.0000
# 5 0.0000 0.0000 0.0000 0.0000 25.3832 0.0000
# 6 0.0000 0.0000 0.0000 0.0000 0.0000 22.1719
#
#
#
# Elastic Compliance Matrix: (Units=1/GPa)
#
#
# Indices 1 2 3 4 5 6 
#
# 1 0.032356 -0.006188 -0.012310 0.000000 0.000000 0.000000
# 2 -0.006188 0.021102 -0.009254 0.000000 0.000000 0.000000
# 3 -0.012310 -0.009254 0.025160 0.000000 0.000000 0.000000
# 4 0.000000 0.000000 0.000000 0.039827 0.000000 0.000000
# 5 0.000000 0.000000 0.000000 0.000000 0.039396 0.000000
# 6 0.000000 0.000000 0.000000 0.000000 0.000000 0.045102
#
#
# Mechanical properties :
#
#
# Convention : Reuss Voigt Hill
#
# Bulk Modulus (GPa) = 43.26507 46.23192 44.74849
# Shear Modulus (GPa) = 18.78621 20.49322 19.63971
#
# Velocity S-wave (km/s) = 3.18669 3.32832 3.25827
# Velocity P-wave (km/s) = 6.07676 6.30564 6.19226
#
# Compressibility (1/GPa) = 0.02311333
#
# Stress axis : x y z
#
# Youngs Moduli (GPa) = 30.90603 47.38904 39.74566
#
# Poissons Ratio (x) = 0.29325 0.48928
# Poissons Ratio (y) = 0.19125 0.36781
# Poissons Ratio (z) = 0.38046 0.43854
#
# Static dielectric constant tensor:
#      x y z
#    x 3.483230 0.000000 0.000000 
#    y 0.000000 3.306140 0.000000 
#    z 0.000000 0.000000 3.134960 
# 
# 
# High freq. dielectric constant tensor:
#      x y z
#    x 1.711420 0.000000 0.000000 
#    y 0.000000 1.703370 0.000000 
#    z 0.000000 0.000000 1.690690 
# 
# From -- ./inp_files/14329.got.cif
#   From: 2010.03.12/outbox.cif.g09.slc.cpg/sg65_8_cif.got.tgz:14329.got - 2010.04.10 20:52:16.
