data_PCOD8270679
_publ_section_title
;
Structure prediction by ZEFSAII (Michael W. Deem and Ramdas Pophale) SiO2 
 PCOD8270679
Probable space group: C M M M
;
_chemical_formula_sum "Si O2"
_cell_formula_units_Z 104
_cell_length_a 28.698981
_cell_length_b 8.963332
_cell_length_c 22.791284
_cell_angle_alpha 90.000000
_cell_angle_beta 90.000000
_cell_angle_gamma 90.000000
_cell_volume 5862.795590
_symmetry_space_group_name_H-M "C M M M"
_symmetry_group_IT_number 65
_symmetry_cell_setting 'orthorhombic'
loop_
_space_group_symop_operation_xyz
x,y,z
-x,-y,z
x,-y,-z
-x,y,-z
-x,-y,-z
x,y,-z
-x,y,z
x,-y,z
1/2+x,1/2+y,z
1/2-x,1/2-y,z
1/2+x,1/2-y,-z
1/2-x,1/2+y,-z
1/2-x,1/2-y,-z
1/2+x,1/2+y,-z
1/2-x,1/2+y,z
1/2+x,1/2-y,z
loop_
_atom_site_type_symbol
_atom_site_label
_atom_site_fract_x
_atom_site_fract_y
_atom_site_fract_z
Si Si1 0.298381 0.173933 0.931325
Si Si2 0.053281 0.173061 0.778742
Si Si3 0.055062 0.326449 0.000000
Si Si4 0.891008 0.175954 0.104811
Si Si5 0.795036 0.332879 0.430177
Si Si6 0.555039 0.167245 0.337835
Si Si7 0.111735 0.824427 0.567023
O O1 0.250000 0.250000 0.912539
O O2 0.339672 0.253122 0.895773
O O3 0.296237 0.000000 0.915211
O O4 0.308200 0.198557 0.000000
O O5 0.086266 0.213142 0.832835
O O6 0.073053 0.263117 0.723074
O O7 0.000000 0.218473 0.794067
O O8 0.055969 0.000000 0.762571
O O9 0.075882 0.249549 0.943014
O O10 0.069175 0.500000 0.000000
O O11 0.000000 0.303188 0.000000
O O12 0.887623 0.000000 0.092824
O O13 0.792422 0.334109 0.500000
O O14 0.796482 0.500000 0.404958
O O15 0.750000 0.250000 0.403849
O O16 0.840522 0.245598 0.408831
O O17 0.500000 0.168483 0.337799
O O18 0.570134 0.264681 0.393350
O O19 0.574923 0.000000 0.343726
O O20 0.101914 0.775783 0.500000
O O21 0.115861 0.000000 0.572594
#
# Coordination Sequence:
#
# PCOD8270679 Si02
#       7
#    16  16   8  16  16  16  16
#     4  10  20  34  53  77 108 142 179 220 264 313
#     4   9  19  36  56  77 102 136 177 216 256 311
#     4  11  23  35  48  73 110 145 175 213 261 309
#     4  11  21  34  55  80 107 139 176 217 264 313
#     4   9  16  27  45  70 101 134 167 204 247 299
#     4  10  21  36  54  76 102 135 175 218 264 314
#     4  10  20  33  51  76 105 137 173 214 262 314
#
# _framework density 17.738977999999999
#
# number of rings (size 3 to 8) (size 9 to 14) (size 15 to 20)
#    0.000    2.077    0.769    3.000    0.000    7.077 
#    0.000    3.077    0.000    0.923    0.000    2.154 
#    0.000    0.000    0.000    0.000    0.000    0.000 
#
# Total GULP energy -644940.841136 kJ/mol
# GULP energy per Si atom -12402.708483 kJ/mol
# Density = 1.769860 g / cm^3
# Si number density = 17.738978 Si / 1000 Ang^3
#
#
#
# Elastic Constant Matrix: (Units=GPa)
#
#
# Indices 1 2 3 4 5 6 
#
# 1 89.6005 53.6599 52.6467 0.0000 0.0000 0.0000
# 2 53.6599 120.9273 58.3672 0.0000 0.0000 0.0000
# 3 52.6467 58.3672 91.4234 0.0000 0.0000 0.0000
# 4 0.0000 0.0000 0.0000 23.7009 0.0000 0.0000
# 5 0.0000 0.0000 0.0000 0.0000 11.3497 0.0000
# 6 0.0000 0.0000 0.0000 0.0000 0.0000 36.2829
#
#
#
# Elastic Compliance Matrix: (Units=1/GPa)
#
#
# Indices 1 2 3 4 5 6 
#
# 1 0.018356 -0.004399 -0.007762 0.000000 0.000000 0.000000
# 2 -0.004399 0.013007 -0.005771 0.000000 0.000000 0.000000
# 3 -0.007762 -0.005771 0.019092 0.000000 0.000000 0.000000
# 4 0.000000 0.000000 0.000000 0.042192 0.000000 0.000000
# 5 0.000000 0.000000 0.000000 0.000000 0.088108 0.000000
# 6 0.000000 0.000000 0.000000 0.000000 0.000000 0.027561
#
#
# Mechanical properties :
#
#
# Convention : Reuss Voigt Hill
#
# Bulk Modulus (GPa) = 68.53285 70.14429 69.33857
# Shear Modulus (GPa) = 20.07688 23.41854 21.74771
#
# Velocity S-wave (km/s) = 3.36787 3.63736 3.50520
# Velocity P-wave (km/s) = 7.33766 7.56762 7.45353
#
# Compressibility (1/GPa) = 0.01459154
#
# Stress axis : x y z
#
# Youngs Moduli (GPa) = 54.47927 76.88388 52.37763
#
# Poissons Ratio (x) = 0.33818 0.40655
# Poissons Ratio (y) = 0.23963 0.30226
# Poissons Ratio (z) = 0.42287 0.44368
#
# Static dielectric constant tensor:
#      x y z
#    x 3.318560 0.000000 0.000000 
#    y 0.000000 3.524960 0.000000 
#    z 0.000000 0.000000 3.084070 
# 
# 
# High freq. dielectric constant tensor:
#      x y z
#    x 1.688900 0.000000 0.000000 
#    y 0.000000 1.704700 0.000000 
#    z 0.000000 0.000000 1.656840 
# 
# From -- ./inp_files/66426.got.cif
#   From: 2010.03.12/outbox.cif.g09.slc.cpg/sg65_34_cif.got.tgz:66426.got - 2010.04.10 20:52:16.
