data_PCOD8270239
_publ_section_title
;
Structure prediction by ZEFSAII (Michael W. Deem and Ramdas Pophale) SiO2 
 PCOD8270239
Probable space group: C M M M
;
_chemical_formula_sum "Si O2"
_cell_formula_units_Z 88
_cell_length_a 27.231346
_cell_length_b 8.867099
_cell_length_c 20.842766
_cell_angle_alpha 90.000000
_cell_angle_beta 90.000000
_cell_angle_gamma 90.000000
_cell_volume 5032.757659
_symmetry_space_group_name_H-M "C M M M"
_symmetry_group_IT_number 65
_symmetry_cell_setting 'orthorhombic'
loop_
_space_group_symop_operation_xyz
x,y,z
-x,-y,z
x,-y,-z
-x,y,-z
-x,-y,-z
x,y,-z
-x,y,z
x,-y,z
1/2+x,1/2+y,z
1/2-x,1/2-y,z
1/2+x,1/2-y,-z
1/2-x,1/2+y,-z
1/2-x,1/2-y,-z
1/2+x,1/2+y,-z
1/2-x,1/2+y,z
1/2+x,1/2-y,z
loop_
_atom_site_type_symbol
_atom_site_label
_atom_site_fract_x
_atom_site_fract_y
_atom_site_fract_z
Si Si1 0.443330 0.821208 0.500000
Si Si2 0.443883 0.673173 0.753081
Si Si3 0.302871 0.178410 0.688290
Si Si4 0.891820 0.175384 0.378937
Si Si5 0.199202 0.823281 0.072965
Si Si6 0.857596 0.324662 0.817695
O O1 0.500000 0.768310 0.500000
O O2 0.416216 0.757002 0.438414
O O3 0.439212 0.000000 0.500000
O O4 0.500000 0.721207 0.761259
O O5 0.434900 0.500000 0.772551
O O6 0.428751 0.700136 0.679858
O O7 0.412901 0.779125 0.800098
O O8 0.250000 0.250000 0.677274
O O9 0.339349 0.249247 0.635900
O O10 0.321349 0.220634 0.759617
O O11 0.300664 0.000000 0.678264
O O12 0.883514 0.000000 0.394284
O O13 0.250000 0.750000 0.095515
O O14 0.156209 0.764694 0.118319
O O15 0.204954 0.000000 0.080846
O O16 0.186432 0.777259 0.000000
O O17 0.855145 0.500000 0.832834
#
# Coordination Sequence:
#
# PCOD8270239 Si02
#       6
#     8  16  16  16  16  16
#     4  11  23  37  54  77 106 137 167 205 253 301
#     4   9  18  33  53  76 102 132 167 209 254 298
#     4  10  20  34  52  76 105 136 170 207 250 298
#     4  10  20  35  55  78 103 133 170 209 250 298
#     4  10  20  33  50  73 102 135 169 206 249 297
#     4  10  20  32  50  76 104 135 169 207 250 298
#
# _framework density 17.485444000000001
#
# number of rings (size 3 to 8) (size 9 to 14) (size 15 to 20)
#    0.000    2.091    0.000    3.545    0.000    7.273 
#    0.000    0.455    0.000    0.545    0.000    3.818 
#    0.000    0.000    0.000    0.000    0.000    0.000 
#
# Total GULP energy -545782.760634 kJ/mol
# GULP energy per Si atom -12404.153651 kJ/mol
# Density = 1.744565 g / cm^3
# Si number density = 17.485444 Si / 1000 Ang^3
#
#
#
# Elastic Constant Matrix: (Units=GPa)
#
#
# Indices 1 2 3 4 5 6 
#
# 1 135.5935 51.6990 62.2880 0.0000 0.0000 0.0000
# 2 51.6990 80.4265 48.1671 0.0000 0.0000 0.0000
# 3 62.2880 48.1671 97.0095 0.0000 0.0000 0.0000
# 4 0.0000 0.0000 0.0000 29.9458 0.0000 0.0000
# 5 0.0000 0.0000 0.0000 0.0000 20.7211 0.0000
# 6 0.0000 0.0000 0.0000 0.0000 0.0000 33.7073
#
#
#
# Elastic Compliance Matrix: (Units=1/GPa)
#
#
# Indices 1 2 3 4 5 6 
#
# 1 0.011368 -0.004179 -0.005225 0.000000 0.000000 0.000000
# 2 -0.004179 0.019232 -0.006866 0.000000 0.000000 0.000000
# 3 -0.005225 -0.006866 0.017072 0.000000 0.000000 0.000000
# 4 0.000000 0.000000 0.000000 0.033394 0.000000 0.000000
# 5 0.000000 0.000000 0.000000 0.000000 0.048260 0.000000
# 6 0.000000 0.000000 0.000000 0.000000 0.000000 0.029667
#
#
# Mechanical properties :
#
#
# Convention : Reuss Voigt Hill
#
# Bulk Modulus (GPa) = 66.07777 70.81530 68.44654
# Shear Modulus (GPa) = 25.43552 26.93319 26.18435
#
# Velocity S-wave (km/s) = 3.81815 3.92895 3.87395
# Velocity P-wave (km/s) = 7.57033 7.82111 7.69674
#
# Compressibility (1/GPa) = 0.01513368
#
# Stress axis : x y z
#
# Youngs Moduli (GPa) = 87.96433 51.99731 58.57573
#
# Poissons Ratio (x) = 0.21728 0.30603
# Poissons Ratio (y) = 0.36757 0.40218
# Poissons Ratio (z) = 0.45957 0.35701
#
# Static dielectric constant tensor:
#      x y z
#    x 3.258120 0.000000 0.000000 
#    y 0.000000 3.360460 0.000000 
#    z 0.000000 0.000000 3.206040 
# 
# 
# High freq. dielectric constant tensor:
#      x y z
#    x 1.674450 0.000000 0.000000 
#    y 0.000000 1.691000 0.000000 
#    z 0.000000 0.000000 1.665300 
# 
# From -- ./inp_files/59789.got.cif
#   From: 2010.03.12/outbox.cif.g09.slc.cpg/sg65_30_cif.got.tgz:59789.got - 2010.04.10 20:52:16.
