data_PCOD8270115
_publ_section_title
;
Structure prediction by ZEFSAII (Michael W. Deem and Ramdas Pophale) SiO2 
 PCOD8270115
Probable space group: C M M M
;
_chemical_formula_sum "Si O2"
_cell_formula_units_Z 64
_cell_length_a 40.753271
_cell_length_b 9.687575
_cell_length_c 9.393649
_cell_angle_alpha 90.000000
_cell_angle_beta 90.000000
_cell_angle_gamma 90.000000
_cell_volume 3708.616094
_symmetry_space_group_name_H-M "C M M M"
_symmetry_group_IT_number 65
_symmetry_cell_setting 'orthorhombic'
loop_
_space_group_symop_operation_xyz
x,y,z
-x,-y,z
x,-y,-z
-x,y,-z
-x,-y,-z
x,y,-z
-x,y,z
x,-y,z
1/2+x,1/2+y,z
1/2-x,1/2-y,z
1/2+x,1/2-y,-z
1/2-x,1/2+y,-z
1/2-x,1/2-y,-z
1/2+x,1/2+y,-z
1/2-x,1/2+y,z
1/2+x,1/2-y,z
loop_
_atom_site_type_symbol
_atom_site_label
_atom_site_fract_x
_atom_site_fract_y
_atom_site_fract_z
Si Si1 0.087785 0.838073 0.665513
Si Si2 0.149589 0.164177 0.841686
Si Si3 0.721500 0.346342 0.169635
Si Si4 0.461743 0.842062 0.162888
O O1 0.089476 0.803632 0.500000
O O2 0.121508 0.782713 0.735408
O O3 0.057277 0.759182 0.732759
O O4 0.082898 0.000000 0.694479
O O5 0.185550 0.213471 0.787235
O O6 0.150359 0.000000 0.847745
O O7 0.142192 0.222793 0.000000
O O8 0.726644 0.500000 0.231978
O O9 0.750000 0.250000 0.234503
O O10 0.723544 0.351147 0.000000
O O11 0.500000 0.819286 0.191634
O O12 0.451969 0.000000 0.195408
O O13 0.453097 0.805084 0.000000
#
# Coordination Sequence:
#
# PCOD8270115 Si02
#       4
#    16  16  16  16
#     4  10  20  32  48  72  99 126 158 195 233 275
#     4   8  14  26  44  64  88 120 154 188 230 277
#     4   8  13  22  38  60  84 110 143 185 231 274
#     4   9  19  36  55  73  94 122 156 192 232 280
#
# _framework density 17.257110999999998
#
# number of rings (size 3 to 8) (size 9 to 14) (size 15 to 20)
#    0.000    3.250    0.000    3.000    0.000    3.000 
#    0.000    5.000    0.000    5.250    0.000    0.000 
#    0.000    0.000    0.000    0.000    0.000    0.000 
#
# Total GULP energy -396645.065727 kJ/mol
# GULP energy per Si atom -12395.158304 kJ/mol
# Density = 1.721783 g / cm^3
# Si number density = 17.257111 Si / 1000 Ang^3
#
#
#
# Elastic Constant Matrix: (Units=GPa)
#
#
# Indices 1 2 3 4 5 6 
#
# 1 129.5189 55.5930 69.1486 0.0000 0.0000 0.0000
# 2 55.5930 55.8438 43.4830 0.0000 0.0000 0.0000
# 3 69.1486 43.4830 90.1315 0.0000 0.0000 0.0000
# 4 0.0000 0.0000 0.0000 19.4094 0.0000 0.0000
# 5 0.0000 0.0000 0.0000 0.0000 4.8779 0.0000
# 6 0.0000 0.0000 0.0000 0.0000 0.0000 29.9733
#
#
#
# Elastic Compliance Matrix: (Units=1/GPa)
#
#
# Indices 1 2 3 4 5 6 
#
# 1 0.016054 -0.010237 -0.007378 0.000000 0.000000 0.000000
# 2 -0.010237 0.035209 -0.009132 0.000000 0.000000 0.000000
# 3 -0.007378 -0.009132 0.021161 0.000000 0.000000 0.000000
# 4 0.000000 0.000000 0.000000 0.051521 0.000000 0.000000
# 5 0.000000 0.000000 0.000000 0.000000 0.205006 0.000000
# 6 0.000000 0.000000 0.000000 0.000000 0.000000 0.033363
#
#
# Mechanical properties :
#
#
# Convention : Reuss Voigt Hill
#
# Bulk Modulus (GPa) = 52.82757 67.99369 60.41063
# Shear Modulus (GPa) = 11.84502 18.00343 14.92422
#
# Velocity S-wave (km/s) = 2.62274 3.23344 2.94397
# Velocity P-wave (km/s) = 6.31270 7.30931 6.82921
#
# Compressibility (1/GPa) = 0.01892951
#
# Stress axis : x y z
#
# Youngs Moduli (GPa) = 62.29093 28.40172 47.25700
#
# Poissons Ratio (x) = 0.29075 0.34865
# Poissons Ratio (y) = 0.63767 0.43157
# Poissons Ratio (z) = 0.45956 0.25938
#
# Static dielectric constant tensor:
#      x y z
#    x 3.507990 0.000000 0.000000 
#    y 0.000000 3.049980 0.000000 
#    z 0.000000 0.000000 2.991820 
# 
# 
# High freq. dielectric constant tensor:
#      x y z
#    x 1.680980 0.000000 0.000000 
#    y 0.000000 1.637180 0.000000 
#    z 0.000000 0.000000 1.636200 
# 
# From -- ./inp_files/17788.got.cif
#   From: 2010.03.12/outbox.cif.g09.slc.cpg/sg65_9_cif.got.tgz:17788.got - 2010.04.10 20:52:16.
