data_PCOD8270944
_publ_section_title
;
Structure prediction by ZEFSAII (Michael W. Deem and Ramdas Pophale) SiO2 
 PCOD8270944
Probable space group: C M M M
;
_chemical_formula_sum "Si O2"
_cell_formula_units_Z 104
_cell_length_a 27.264808
_cell_length_b 9.184659
_cell_length_c 26.477140
_cell_angle_alpha 90.000000
_cell_angle_beta 90.000000
_cell_angle_gamma 90.000000
_cell_volume 6630.351496
_symmetry_space_group_name_H-M "C M M M"
_symmetry_group_IT_number 65
_symmetry_cell_setting 'orthorhombic'
loop_
_space_group_symop_operation_xyz
x,y,z
-x,-y,z
x,-y,-z
-x,y,-z
-x,-y,-z
x,y,-z
-x,y,z
x,-y,z
1/2+x,1/2+y,z
1/2-x,1/2-y,z
1/2+x,1/2-y,-z
1/2-x,1/2+y,-z
1/2-x,1/2-y,-z
1/2+x,1/2+y,-z
1/2-x,1/2+y,z
1/2+x,1/2-y,z
loop_
_atom_site_type_symbol
_atom_site_label
_atom_site_fract_x
_atom_site_fract_y
_atom_site_fract_z
Si Si1 0.613370 0.668747 0.296447
Si Si2 0.359712 0.831717 0.556298
Si Si3 0.800951 0.672252 0.653355
Si Si4 0.055040 0.169231 0.604099
Si Si5 0.558530 0.335224 0.000000
Si Si6 0.056377 0.169564 0.196119
Si Si7 0.058362 0.664344 0.097290
O O1 0.629469 0.500000 0.297062
O O2 0.660693 0.769321 0.305262
O O3 0.573053 0.700021 0.339192
O O4 0.589414 0.713897 0.243584
O O5 0.339360 0.799166 0.500000
O O6 0.319195 0.782259 0.597166
O O7 0.410604 0.747900 0.563629
O O8 0.371845 0.000000 0.564076
O O9 0.794825 0.500000 0.659268
O O10 0.750000 0.750000 0.663775
O O11 0.000000 0.230620 0.599007
O O12 0.056640 0.000000 0.591329
O O13 0.579089 0.252689 0.950665
O O14 0.578582 0.500000 0.000000
O O15 0.500000 0.334825 0.000000
O O16 0.076690 0.259236 0.148467
O O17 0.000000 0.209343 0.208327
O O18 0.061179 0.000000 0.183117
O O19 0.078742 0.500000 0.095349
O O20 0.000000 0.665373 0.095632
#
# Coordination Sequence:
#
# PCOD8270944 Si02
#       7
#    16  16  16  16   8  16  16
#     4   9  17  30  47  65  86 112 141 174 211 251
#     4   9  19  34  48  64  87 112 138 169 206 250
#     4  10  20  34  51  68  85 106 134 169 211 259
#     4   9  17  29  45  65  88 114 144 175 206 242
#     4   9  15  23  35  49  69 103 148 191 224 255
#     4   9  16  26  41  61  85 114 147 179 211 249
#     4   9  16  24  34  51  77 109 145 184 222 255
#
# _framework density 15.685442
#
# number of rings (size 3 to 8) (size 9 to 14) (size 15 to 20)
#    0.000    2.846    0.000    1.615    0.000    7.077 
#    0.000    1.538    0.000    2.769    0.000    0.000 
#    0.000    0.000    0.000    0.692    0.000    9.308 
#
# Total GULP energy -644784.306234 kJ/mol
# GULP energy per Si atom -12399.698197 kJ/mol
# Density = 1.564974 g / cm^3
# Si number density = 15.685442 Si / 1000 Ang^3
#
#
#
# Elastic Constant Matrix: (Units=GPa)
#
#
# Indices 1 2 3 4 5 6 
#
# 1 74.2282 35.8115 32.4452 0.0000 0.0000 0.0000
# 2 35.8115 77.1571 51.3707 0.0000 0.0000 0.0000
# 3 32.4452 51.3707 116.1010 0.0000 0.0000 0.0000
# 4 0.0000 0.0000 0.0000 26.3795 0.0000 0.0000
# 5 0.0000 0.0000 0.0000 0.0000 10.5684 0.0000
# 6 0.0000 0.0000 0.0000 0.0000 0.0000 20.9893
#
#
#
# Elastic Compliance Matrix: (Units=1/GPa)
#
#
# Indices 1 2 3 4 5 6 
#
# 1 0.017636 -0.006952 -0.001852 0.000000 0.000000 0.000000
# 2 -0.006952 0.021114 -0.007399 0.000000 0.000000 0.000000
# 3 -0.001852 -0.007399 0.012405 0.000000 0.000000 0.000000
# 4 0.000000 0.000000 0.000000 0.037908 0.000000 0.000000
# 5 0.000000 0.000000 0.000000 0.000000 0.094621 0.000000
# 6 0.000000 0.000000 0.000000 0.000000 0.000000 0.047643
#
#
# Mechanical properties :
#
#
# Convention : Reuss Voigt Hill
#
# Bulk Modulus (GPa) = 53.34272 56.30457 54.82364
# Shear Modulus (GPa) = 18.51967 21.44471 19.98219
#
# Velocity S-wave (km/s) = 3.43985 3.70154 3.57309
# Velocity P-wave (km/s) = 7.06104 7.36495 7.21460
#
# Compressibility (1/GPa) = 0.01874670
#
# Stress axis : x y z
#
# Youngs Moduli (GPa) = 56.70326 47.36267 80.61424
#
# Poissons Ratio (x) = 0.32927 0.14932
# Poissons Ratio (y) = 0.39421 0.59649
# Poissons Ratio (z) = 0.10503 0.35045
#
# Static dielectric constant tensor:
#      x y z
#    x 2.678520 0.000000 0.000000 
#    y 0.000000 3.060790 0.000000 
#    z 0.000000 0.000000 3.061330 
# 
# 
# High freq. dielectric constant tensor:
#      x y z
#    x 1.555800 0.000000 0.000000 
#    y 0.000000 1.609140 0.000000 
#    z 0.000000 0.000000 1.602120 
# 
# From -- ./inp_files/73577.got.cif
#   From: 2010.03.12/outbox.cif.g09.slc.cpg/sg65_37_cif.got.tgz:73577.got - 2010.04.10 20:52:16.
