data_PCOD8270152
_publ_section_title
;
Structure prediction by ZEFSAII (Michael W. Deem and Ramdas Pophale) SiO2 
 PCOD8270152
Probable space group: C M M M
;
_chemical_formula_sum "Si O2"
_cell_formula_units_Z 112
_cell_length_a 17.630154
_cell_length_b 14.912494
_cell_length_c 23.568364
_cell_angle_alpha 90.000000
_cell_angle_beta 90.000000
_cell_angle_gamma 90.000000
_cell_volume 6196.348345
_symmetry_space_group_name_H-M "C M M M"
_symmetry_group_IT_number 65
_symmetry_cell_setting 'orthorhombic'
loop_
_space_group_symop_operation_xyz
x,y,z
-x,-y,z
x,-y,-z
-x,y,-z
-x,-y,-z
x,y,-z
-x,y,z
x,-y,z
1/2+x,1/2+y,z
1/2-x,1/2-y,z
1/2+x,1/2-y,-z
1/2-x,1/2+y,-z
1/2-x,1/2-y,-z
1/2+x,1/2+y,-z
1/2-x,1/2+y,z
1/2+x,1/2-y,z
loop_
_atom_site_type_symbol
_atom_site_label
_atom_site_fract_x
_atom_site_fract_y
_atom_site_fract_z
Si Si1 0.329353 0.103914 0.065930
Si Si2 0.206630 0.341950 0.235398
Si Si3 0.085975 0.719138 0.434667
Si Si4 0.310913 0.400429 0.140524
Si Si5 0.589596 0.226545 0.151117
Si Si6 0.213795 0.347526 0.638891
Si Si7 0.156228 0.903339 0.435919
O O1 0.244784 0.125675 0.088643
O O2 0.391344 0.167126 0.095965
O O3 0.349981 0.000000 0.077715
O O4 0.331124 0.126957 0.000000
O O5 0.250000 0.250000 0.242409
O O6 0.258591 0.405634 0.196760
O O7 0.125324 0.322942 0.206020
O O8 0.196182 0.384852 0.297850
O O9 0.106737 0.701185 0.500000
O O10 0.135468 0.654227 0.395618
O O11 0.098997 0.823976 0.419028
O O12 0.000000 0.695065 0.421297
O O13 0.346536 0.500000 0.131883
O O14 0.377168 0.327075 0.144105
O O15 0.500000 0.234175 0.159551
O O16 0.250000 0.250000 0.640384
O O17 0.272296 0.410615 0.606138
O O18 0.186390 0.886939 0.500000
O O19 0.113963 0.000000 0.431749
#
# Coordination Sequence:
#
# PCOD8270152 Si02
#       7
#    16  16  16  16  16  16  16
#     4   9  18  34  56  77  97 129 172 210 242 279
#     4   8  16  31  48  65  87 119 159 198 234 277
#     4   9  17  28  43  65  92 121 152 186 229 286
#     4   9  18  33  52  73  98 130 167 202 237 285
#     4  10  20  32  48  74 106 133 158 197 247 293
#     4   9  16  28  47  66  85 115 155 195 232 271
#     4   9  17  28  43  65  91 117 148 190 237 282
#
# _framework density 18.075161999999999
#
# number of rings (size 3 to 8) (size 9 to 14) (size 15 to 20)
#    0.000    3.000    0.000    1.714    0.000    5.143 
#    0.000    2.143    0.000    0.429    0.000   15.000 
#    0.000    0.000    0.000    0.000    0.000    0.000 
#
# Total GULP energy -694060.559694 kJ/mol
# GULP energy per Si atom -12393.938566 kJ/mol
# Density = 1.803402 g / cm^3
# Si number density = 18.075162 Si / 1000 Ang^3
#
#
#
# Elastic Constant Matrix: (Units=GPa)
#
#
# Indices 1 2 3 4 5 6 
#
# 1 97.6402 14.8932 42.3908 0.0000 0.0000 0.0000
# 2 14.8932 43.2814 12.1718 0.0000 0.0000 0.0000
# 3 42.3908 12.1718 113.7359 0.0000 0.0000 0.0000
# 4 0.0000 0.0000 0.0000 14.4046 0.0000 0.0000
# 5 0.0000 0.0000 0.0000 0.0000 13.2857 0.0000
# 6 0.0000 0.0000 0.0000 0.0000 0.0000 16.6725
#
#
#
# Elastic Compliance Matrix: (Units=1/GPa)
#
#
# Indices 1 2 3 4 5 6 
#
# 1 0.012613 -0.003112 -0.004368 0.000000 0.000000 0.000000
# 2 -0.003112 0.024589 -0.001472 0.000000 0.000000 0.000000
# 3 -0.004368 -0.001472 0.010578 0.000000 0.000000 0.000000
# 4 0.000000 0.000000 0.000000 0.069422 0.000000 0.000000
# 5 0.000000 0.000000 0.000000 0.000000 0.075269 0.000000
# 6 0.000000 0.000000 0.000000 0.000000 0.000000 0.059979
#
#
# Mechanical properties :
#
#
# Convention : Reuss Voigt Hill
#
# Bulk Modulus (GPa) = 33.47048 43.72988 38.60018
# Shear Modulus (GPa) = 17.83732 21.21935 19.52833
#
# Velocity S-wave (km/s) = 3.14481 3.43001 3.29050
# Velocity P-wave (km/s) = 5.63418 6.31922 5.98651
#
# Compressibility (1/GPa) = 0.02987708
#
# Stress axis : x y z
#
# Youngs Moduli (GPa) = 79.28553 40.66818 94.53790
#
# Poissons Ratio (x) = 0.12655 0.41293
# Poissons Ratio (y) = 0.24671 0.13914
# Poissons Ratio (z) = 0.34631 0.05985
#
# Static dielectric constant tensor:
#      x y z
#    x 3.038410 0.000000 0.000000 
#    y 0.000000 3.303700 0.000000 
#    z 0.000000 0.000000 3.676590 
# 
# 
# High freq. dielectric constant tensor:
#      x y z
#    x 1.669730 0.000000 0.000000 
#    y 0.000000 1.694290 0.000000 
#    z 0.000000 0.000000 1.702440 
# 
# From -- ./inp_files/69990.got.cif
#   From: 2010.03.12/outbox.cif.g09.slc.cpg/sg65_35_cif.got.tgz:69990.got - 2010.04.10 20:52:16.
