data_PCOD8270345
_publ_section_title
;
Structure prediction by ZEFSAII (Michael W. Deem and Ramdas Pophale) SiO2 
 PCOD8270345
Probable space group: C M M M
;
_chemical_formula_sum "Si O2"
_cell_formula_units_Z 104
_cell_length_a 27.087556
_cell_length_b 9.318216
_cell_length_c 26.846080
_cell_angle_alpha 90.000000
_cell_angle_beta 90.000000
_cell_angle_gamma 90.000000
_cell_volume 6776.157246
_symmetry_space_group_name_H-M "C M M M"
_symmetry_group_IT_number 65
_symmetry_cell_setting 'orthorhombic'
loop_
_space_group_symop_operation_xyz
x,y,z
-x,-y,z
x,-y,-z
-x,y,-z
-x,-y,-z
x,y,-z
-x,y,z
x,-y,z
1/2+x,1/2+y,z
1/2-x,1/2-y,z
1/2+x,1/2-y,-z
1/2-x,1/2+y,-z
1/2-x,1/2-y,-z
1/2+x,1/2+y,-z
1/2-x,1/2+y,z
1/2+x,1/2-y,z
loop_
_atom_site_type_symbol
_atom_site_label
_atom_site_fract_x
_atom_site_fract_y
_atom_site_fract_z
Si Si1 0.896994 0.832511 0.698898
Si Si2 0.651385 0.166654 0.442903
Si Si3 0.058955 0.661050 0.000000
Si Si4 0.944957 0.170546 0.201467
Si Si5 0.554898 0.164492 0.386666
Si Si6 0.558810 0.660191 0.907173
Si Si7 0.701483 0.330793 0.356474
O O1 0.907582 0.777920 0.755146
O O2 0.935152 0.756876 0.662230
O O3 0.840758 0.796653 0.684121
O O4 0.907784 0.000000 0.694025
O O5 0.660412 0.207912 0.500000
O O6 0.594200 0.199863 0.429981
O O7 0.686835 0.266320 0.410100
O O8 0.664037 0.000000 0.432676
O O9 0.079952 0.738822 0.049301
O O10 0.079407 0.500000 0.000000
O O11 0.000000 0.664061 0.000000
O O12 0.925436 0.223078 0.147199
O O13 0.000000 0.231422 0.212425
O O14 0.947747 0.000000 0.199162
O O15 0.500000 0.199293 0.407078
O O16 0.559526 0.000000 0.370226
O O17 0.500000 0.654628 0.909193
O O18 0.580062 0.500000 0.915563
O O19 0.711062 0.500000 0.362289
O O20 0.750000 0.250000 0.336781
#
# Coordination Sequence:
#
# PCOD8270345 Si02
#       7
#    16  16   8  16  16  16  16
#     4   9  17  29  45  63  81 104 135 168 201 238
#     4   9  18  32  48  65  85 108 134 164 196 232
#     4   9  15  21  29  43  67  99 134 171 202 223
#     4   8  13  22  38  59  80 102 131 166 198 228
#     4   9  17  28  42  62  87 112 136 161 192 232
#     4   8  13  21  33  48  67  96 133 166 194 225
#     4  10  20  33  49  66  83 104 130 162 202 247
#
# _framework density 15.347932
#
# number of rings (size 3 to 8) (size 9 to 14) (size 15 to 20)
#    0.000    3.154    0.000    2.077    0.000    3.385 
#    0.000    2.308    0.000    2.769    0.000    4.308 
#    0.000    0.000    0.000    0.692    0.000    6.538 
#
# Total GULP energy -644524.344264 kJ/mol
# GULP energy per Si atom -12394.698928 kJ/mol
# Density = 1.531300 g / cm^3
# Si number density = 15.347932 Si / 1000 Ang^3
#
#
#
# Elastic Constant Matrix: (Units=GPa)
#
#
# Indices 1 2 3 4 5 6 
#
# 1 63.2629 26.6719 33.4636 0.0000 0.0000 0.0000
# 2 26.6719 57.9093 42.1457 0.0000 0.0000 0.0000
# 3 33.4636 42.1457 126.6500 0.0000 0.0000 0.0000
# 4 0.0000 0.0000 0.0000 14.0912 0.0000 0.0000
# 5 0.0000 0.0000 0.0000 0.0000 12.0165 0.0000
# 6 0.0000 0.0000 0.0000 0.0000 0.0000 16.2863
#
#
#
# Elastic Compliance Matrix: (Units=1/GPa)
#
#
# Indices 1 2 3 4 5 6 
#
# 1 0.020441 -0.007237 -0.002993 0.000000 0.000000 0.000000
# 2 -0.007237 0.025349 -0.006523 0.000000 0.000000 0.000000
# 3 -0.002993 -0.006523 0.010857 0.000000 0.000000 0.000000
# 4 0.000000 0.000000 0.000000 0.070966 0.000000 0.000000
# 5 0.000000 0.000000 0.000000 0.000000 0.083219 0.000000
# 6 0.000000 0.000000 0.000000 0.000000 0.000000 0.061401
#
#
# Mechanical properties :
#
#
# Convention : Reuss Voigt Hill
#
# Bulk Modulus (GPa) = 43.21179 50.26493 46.73836
# Shear Modulus (GPa) = 15.95130 18.18153 17.06642
#
# Velocity S-wave (km/s) = 3.22733 3.44557 3.33824
# Velocity P-wave (km/s) = 6.48872 6.97500 6.73625
#
# Compressibility (1/GPa) = 0.02314183
#
# Stress axis : x y z
#
# Youngs Moduli (GPa) = 48.92094 39.44908 92.10348
#
# Poissons Ratio (x) = 0.28548 0.27565
# Poissons Ratio (y) = 0.35402 0.60083
# Poissons Ratio (z) = 0.14641 0.25734
#
# Static dielectric constant tensor:
#      x y z
#    x 2.744930 0.000000 0.000000 
#    y 0.000000 2.904630 0.000000 
#    z 0.000000 0.000000 3.188240 
# 
# 
# High freq. dielectric constant tensor:
#      x y z
#    x 1.548140 0.000000 0.000000 
#    y 0.000000 1.579460 0.000000 
#    z 0.000000 0.000000 1.587210 
# 
# From -- ./inp_files/78463.got.cif
#   From: 2010.03.12/outbox.cif.g09.slc.cpg/sg65_40_cif.got.tgz:78463.got - 2010.04.10 20:52:16.
