data_PCOD8270436
_publ_section_title
;
Structure prediction by ZEFSAII (Michael W. Deem and Ramdas Pophale) SiO2 
 PCOD8270436
Probable space group: C M M M
;
_chemical_formula_sum "Si O2"
_cell_formula_units_Z 104
_cell_length_a 27.765286
_cell_length_b 22.059743
_cell_length_c 8.105580
_cell_angle_alpha 90.000000
_cell_angle_beta 90.000000
_cell_angle_gamma 90.000000
_cell_volume 4964.627818
_symmetry_space_group_name_H-M "C M M M"
_symmetry_group_IT_number 65
_symmetry_cell_setting 'orthorhombic'
loop_
_space_group_symop_operation_xyz
x,y,z
-x,-y,z
x,-y,-z
-x,y,-z
-x,-y,-z
x,y,-z
-x,y,z
x,-y,z
1/2+x,1/2+y,z
1/2-x,1/2-y,z
1/2+x,1/2-y,-z
1/2-x,1/2+y,-z
1/2-x,1/2-y,-z
1/2+x,1/2+y,-z
1/2-x,1/2+y,z
1/2+x,1/2-y,z
loop_
_atom_site_type_symbol
_atom_site_label
_atom_site_fract_x
_atom_site_fract_y
_atom_site_fract_z
Si Si1 0.720343 0.933237 0.690751
Si Si2 0.553086 0.671917 0.807877
Si Si3 0.612597 0.434119 0.309403
Si Si4 0.443231 0.928372 0.000000
Si Si5 0.859809 0.256555 0.805970
Si Si6 0.802213 0.145074 0.189443
Si Si7 0.618227 0.114540 0.689431
O O1 0.733033 0.927419 0.500000
O O2 0.747869 0.877265 0.778306
O O3 0.663314 0.929391 0.721730
O O4 0.736359 0.000000 0.756766
O O5 0.500000 0.691078 0.746419
O O6 0.567438 0.608893 0.724147
O O7 0.589368 0.725343 0.762205
O O8 0.554251 0.659094 0.000000
O O9 0.618915 0.443374 0.500000
O O10 0.604069 0.500000 0.225747
O O11 0.662623 0.407362 0.246967
O O12 0.421452 0.899371 0.168882
O O13 0.500000 0.913549 0.000000
O O14 0.433601 0.000000 0.000000
O O15 0.817000 0.211669 0.738215
O O16 0.859968 0.318131 0.703451
O O17 0.855009 0.271385 0.000000
O O18 0.811495 0.155252 0.000000
O O19 0.598333 0.105253 0.500000
#
# Coordination Sequence:
#
# PCOD8270436 Si02
#       7
#    16  16  16   8  16  16  16
#     4  10  22  39  59  88 127 166 207 259 312 367
#     4   9  19  35  55  78 106 146 195 251 311 368
#     4  10  20  33  49  72 109 153 197 251 307 362
#     4  11  26  48  74 101 132 170 207 256 320 380
#     4   9  19  38  58  86 125 164 204 258 316 372
#     4  10  21  35  57  87 119 161 209 255 303 364
#     4  11  24  43  69 100 132 168 211 258 312 378
#
# _framework density 20.948195999999999
#
# number of rings (size 3 to 8) (size 9 to 14) (size 15 to 20)
#    0.000    2.077    0.769    2.769    1.077    9.538 
#    0.000    5.385    0.000    0.000    0.000    0.000 
#    0.000    0.000    0.000    0.000    0.000    0.000 
#
# Total GULP energy -644450.064395 kJ/mol
# GULP energy per Si atom -12393.270469 kJ/mol
# Density = 2.090052 g / cm^3
# Si number density = 20.948196 Si / 1000 Ang^3
#
#
#
# Elastic Constant Matrix: (Units=GPa)
#
#
# Indices 1 2 3 4 5 6 
#
# 1 92.1757 23.6978 38.9940 0.0000 0.0000 0.0000
# 2 23.6978 112.7003 33.4159 0.0000 0.0000 0.0000
# 3 38.9940 33.4159 77.4194 0.0000 0.0000 0.0000
# 4 0.0000 0.0000 0.0000 26.1605 0.0000 0.0000
# 5 0.0000 0.0000 0.0000 0.0000 50.4167 0.0000
# 6 0.0000 0.0000 0.0000 0.0000 0.0000 24.6013
#
#
#
# Elastic Compliance Matrix: (Units=1/GPa)
#
#
# Indices 1 2 3 4 5 6 
#
# 1 0.013878 -0.000970 -0.006571 0.000000 0.000000 0.000000
# 2 -0.000970 0.010243 -0.003933 0.000000 0.000000 0.000000
# 3 -0.006571 -0.003933 0.017924 0.000000 0.000000 0.000000
# 4 0.000000 0.000000 0.000000 0.038226 0.000000 0.000000
# 5 0.000000 0.000000 0.000000 0.000000 0.019835 0.000000
# 6 0.000000 0.000000 0.000000 0.000000 0.000000 0.040648
#
#
# Mechanical properties :
#
#
# Convention : Reuss Voigt Hill
#
# Bulk Modulus (GPa) = 52.36330 52.72343 52.54337
# Shear Modulus (GPa) = 29.40013 32.64822 31.02417
#
# Velocity S-wave (km/s) = 3.75035 3.95209 3.85254
# Velocity P-wave (km/s) = 6.61849 6.78591 6.70272
#
# Compressibility (1/GPa) = 0.01909735
#
# Stress axis : x y z
#
# Youngs Moduli (GPa) = 72.05568 97.62713 55.79118
#
# Poissons Ratio (x) = 0.09467 0.36663
# Poissons Ratio (y) = 0.06987 0.21941
# Poissons Ratio (z) = 0.47351 0.38394
#
# Static dielectric constant tensor:
#      x y z
#    x 3.911820 0.000000 0.000000 
#    y 0.000000 3.952920 0.000000 
#    z 0.000000 0.000000 3.726820 
# 
# 
# High freq. dielectric constant tensor:
#      x y z
#    x 1.810000 0.000000 0.000000 
#    y 0.000000 1.831150 0.000000 
#    z 0.000000 0.000000 1.811710 
# 
# From -- ./inp_files/16508.got.cif
#   From: 2010.03.12/outbox.cif.g09.slc.cpg/sg65_9_cif.got.tgz:16508.got - 2010.04.10 20:52:16.
