data_PCOD8270882
_publ_section_title
;
Structure prediction by ZEFSAII (Michael W. Deem and Ramdas Pophale) SiO2 
 PCOD8270882
Probable space group: C M M M
;
_chemical_formula_sum "Si O2"
_cell_formula_units_Z 88
_cell_length_a 19.701746
_cell_length_b 24.336996
_cell_length_c 9.957095
_cell_angle_alpha 90.000000
_cell_angle_beta 90.000000
_cell_angle_gamma 90.000000
_cell_volume 4774.240990
_symmetry_space_group_name_H-M "C M M M"
_symmetry_group_IT_number 65
_symmetry_cell_setting 'orthorhombic'
loop_
_space_group_symop_operation_xyz
x,y,z
-x,-y,z
x,-y,-z
-x,y,-z
-x,-y,-z
x,y,-z
-x,y,z
x,-y,z
1/2+x,1/2+y,z
1/2-x,1/2-y,z
1/2+x,1/2-y,-z
1/2-x,1/2+y,-z
1/2-x,1/2-y,-z
1/2+x,1/2+y,-z
1/2-x,1/2+y,z
1/2+x,1/2-y,z
loop_
_atom_site_type_symbol
_atom_site_label
_atom_site_fract_x
_atom_site_fract_y
_atom_site_fract_z
Si Si1 0.621250 0.140454 0.353558
Si Si2 0.732284 0.689233 0.651194
Si Si3 0.000000 0.717140 0.343009
Si Si4 0.578393 0.500000 0.840772
Si Si5 0.863779 0.883150 0.845879
Si Si6 0.500000 0.316360 0.853120
Si Si7 0.423010 0.937745 0.146872
O O1 0.595829 0.120404 0.500000
O O2 0.695684 0.162181 0.364541
O O3 0.567717 0.185023 0.298356
O O4 0.626249 0.090149 0.252179
O O5 0.699176 0.693455 0.500000
O O6 0.750000 0.750000 0.709744
O O7 0.686712 0.651687 0.749613
O O8 0.000000 0.730892 0.500000
O O9 0.000000 0.773549 0.265575
O O10 0.500000 0.500000 0.783281
O O11 0.622086 0.554036 0.795266
O O12 0.572322 0.500000 0.000000
O O13 0.935729 0.854669 0.838914
O O14 0.835556 0.882739 0.000000
O O15 0.500000 0.287226 0.000000
O O16 0.500000 0.932458 0.198267
O O17 0.399853 0.000000 0.137076
O O18 0.415374 0.910303 0.000000
#
# Coordination Sequence:
#
# PCOD8270882 Si02
#       7
#    16  16   8   8  16   8  16
#     4  10  20  35  55  78 104 141 188 228 269 326
#     4  10  22  40  58  78 112 155 191 230 285 340
#     4  10  20  34  54  80 107 141 186 229 274 331
#     4   9  16  34  63  89 117 150 185 232 290 350
#     4  10  20  36  60  87 113 147 190 233 282 343
#     4  10  20  33  54  85 111 136 180 230 276 331
#     4   9  18  33  53  77 105 136 170 213 268 322
#
# _framework density 18.43225
#
# number of rings (size 3 to 8) (size 9 to 14) (size 15 to 20)
#    0.000    2.273    1.818    1.636    0.000    4.364 
#    1.636    1.364    0.000    0.545    0.000    0.000 
#    0.000    0.000    0.000    0.000    0.000    0.000 
#
# Total GULP energy -545197.692897 kJ/mol
# GULP energy per Si atom -12390.856657 kJ/mol
# Density = 1.839030 g / cm^3
# Si number density = 18.432250 Si / 1000 Ang^3
#
#
#
# Elastic Constant Matrix: (Units=GPa)
#
#
# Indices 1 2 3 4 5 6 
#
# 1 75.9242 38.8003 36.5008 0.0000 0.0000 0.0000
# 2 38.8003 113.6699 66.8935 0.0000 0.0000 0.0000
# 3 36.5008 66.8935 88.0154 0.0000 0.0000 0.0000
# 4 0.0000 0.0000 0.0000 33.8035 0.0000 0.0000
# 5 0.0000 0.0000 0.0000 0.0000 38.6096 0.0000
# 6 0.0000 0.0000 0.0000 0.0000 0.0000 -35.2906
#
#
#
# Elastic Compliance Matrix: (Units=1/GPa)
#
#
# Indices 1 2 3 4 5 6 
#
# 1 0.016995 -0.002991 -0.004774 0.000000 0.000000 0.000000
# 2 -0.002991 0.016443 -0.011256 0.000000 0.000000 0.000000
# 3 -0.004774 -0.011256 0.021897 0.000000 0.000000 0.000000
# 4 0.000000 0.000000 0.000000 0.029583 0.000000 0.000000
# 5 0.000000 0.000000 0.000000 0.000000 0.025900 0.000000
# 6 0.000000 0.000000 0.000000 0.000000 0.000000 -0.028336
#
#
# Mechanical properties :
#
#
# Convention : Reuss Voigt Hill
#
# Bulk Modulus (GPa) = 57.83627 62.44430 60.14029
# Shear Modulus (GPa) = 39.59179 16.45216 28.02198
#
# Velocity S-wave (km/s) = 4.63964 2.99084 3.90329
# Velocity P-wave (km/s) = 7.75549 6.77334 7.28099
#
# Compressibility (1/GPa) = 0.01729019
#
# Stress axis : x y z
#
# Youngs Moduli (GPa) = 58.84044 60.81742 45.66916
#
# Poissons Ratio (x) = 0.18193 0.21805
# Poissons Ratio (y) = 0.17602 0.51406
# Poissons Ratio (z) = 0.28093 0.68457
#
# Static dielectric constant tensor:
#      x y z
#    x 3.928680 0.000000 0.000000 
#    y 0.000000 3.595060 0.000000 
#    z 0.000000 0.000000 3.677070 
# 
# 
# High freq. dielectric constant tensor:
#      x y z
#    x 1.708680 0.000000 0.000000 
#    y 0.000000 1.715890 0.000000 
#    z 0.000000 0.000000 1.707210 
# 
# From -- ./inp_files/11882.got.cif
#   From: 2010.03.12/outbox.cif.g09.slc.cpg/sg65_6_cif.got.tgz:11882.got - 2010.04.10 20:52:16.
