data_PCOD8270534
_publ_section_title
;
Structure prediction by ZEFSAII (Michael W. Deem and Ramdas Pophale) SiO2 
 PCOD8270534
Probable space group: C M M M
;
_chemical_formula_sum "Si O2"
_cell_formula_units_Z 88
_cell_length_a 28.221560
_cell_length_b 9.026347
_cell_length_c 19.152041
_cell_angle_alpha 90.000000
_cell_angle_beta 90.000000
_cell_angle_gamma 90.000000
_cell_volume 4878.744834
_symmetry_space_group_name_H-M "C M M M"
_symmetry_group_IT_number 65
_symmetry_cell_setting 'orthorhombic'
loop_
_space_group_symop_operation_xyz
x,y,z
-x,-y,z
x,-y,-z
-x,y,-z
-x,-y,-z
x,y,-z
-x,y,z
x,-y,z
1/2+x,1/2+y,z
1/2-x,1/2-y,z
1/2+x,1/2-y,-z
1/2-x,1/2+y,-z
1/2-x,1/2-y,-z
1/2+x,1/2+y,-z
1/2-x,1/2+y,z
1/2+x,1/2-y,z
loop_
_atom_site_type_symbol
_atom_site_label
_atom_site_fract_x
_atom_site_fract_y
_atom_site_fract_z
Si Si1 0.128027 0.328598 0.920525
Si Si2 0.199963 0.172998 0.174916
Si Si3 0.904574 0.325117 0.579691
Si Si4 0.445567 0.827966 0.804197
Si Si5 0.625930 0.672841 0.292976
Si Si6 0.000000 0.164933 0.582156
O O1 0.142291 0.500000 0.914329
O O2 0.171985 0.234644 0.891774
O O3 0.080160 0.294612 0.877730
O O4 0.118269 0.281532 0.000000
O O5 0.250000 0.250000 0.182290
O O6 0.171162 0.208727 0.245394
O O7 0.207444 0.000000 0.163789
O O8 0.891948 0.280456 0.500000
O O9 0.907242 0.500000 0.587686
O O10 0.865923 0.256169 0.632742
O O11 0.954194 0.256538 0.605422
O O12 0.500000 0.779274 0.811922
O O13 0.421656 0.732339 0.743528
O O14 0.440793 0.000000 0.783875
O O15 0.620011 0.500000 0.307194
O O16 0.000000 0.149557 0.500000
O O17 0.000000 0.000000 0.615895
#
# Coordination Sequence:
#
# PCOD8270534 Si02
#       6
#    16  16  16  16  16   8
#     4   9  18  33  53  78 107 137 171 211 254 303
#     4  10  21  37  57  79 102 131 168 211 262 315
#     4  10  20  33  50  73 102 136 173 213 257 304
#     4   9  18  32  50  73 103 140 178 214 252 296
#     4  10  21  35  52  75 102 134 172 214 259 309
#     4   9  17  29  45  67  97 133 170 207 248 293
#
# _framework density 18.037424999999999
#
# number of rings (size 3 to 8) (size 9 to 14) (size 15 to 20)
#    0.000    2.455    0.000    1.909    1.273    5.818 
#    0.000    1.818    0.000    0.545    0.000    5.091 
#    0.000    0.000    0.000    0.000    0.000    0.000 
#
# Total GULP energy -545626.599258 kJ/mol
# GULP energy per Si atom -12400.604529 kJ/mol
# Density = 1.799637 g / cm^3
# Si number density = 18.037425 Si / 1000 Ang^3
#
#
#
# Elastic Constant Matrix: (Units=GPa)
#
#
# Indices 1 2 3 4 5 6 
#
# 1 109.2387 47.7721 46.3882 0.0000 0.0000 0.0000
# 2 47.7721 88.9240 56.1121 0.0000 0.0000 0.0000
# 3 46.3882 56.1121 128.1102 0.0000 0.0000 0.0000
# 4 0.0000 0.0000 0.0000 28.4826 0.0000 0.0000
# 5 0.0000 0.0000 0.0000 0.0000 15.3669 0.0000
# 6 0.0000 0.0000 0.0000 0.0000 0.0000 27.1773
#
#
#
# Elastic Compliance Matrix: (Units=1/GPa)
#
#
# Indices 1 2 3 4 5 6 
#
# 1 0.012387 -0.005285 -0.002171 0.000000 0.000000 0.000000
# 2 -0.005285 0.017796 -0.005881 0.000000 0.000000 0.000000
# 3 -0.002171 -0.005881 0.011167 0.000000 0.000000 0.000000
# 4 0.000000 0.000000 0.000000 0.035109 0.000000 0.000000
# 5 0.000000 0.000000 0.000000 0.000000 0.065075 0.000000
# 6 0.000000 0.000000 0.000000 0.000000 0.000000 0.036795
#
#
# Mechanical properties :
#
#
# Convention : Reuss Voigt Hill
#
# Bulk Modulus (GPa) = 68.13081 69.64640 68.88861
# Shear Modulus (GPa) = 23.82144 25.93874 24.88009
#
# Velocity S-wave (km/s) = 3.63804 3.79628 3.71800
# Velocity P-wave (km/s) = 7.44990 7.60997 7.53036
#
# Compressibility (1/GPa) = 0.01467765
#
# Stress axis : x y z
#
# Youngs Moduli (GPa) = 80.72823 56.19343 89.54577
#
# Poissons Ratio (x) = 0.29699 0.19436
# Poissons Ratio (y) = 0.42666 0.52660
# Poissons Ratio (z) = 0.17522 0.33046
#
# Static dielectric constant tensor:
#      x y z
#    x 3.201730 0.000000 0.000000 
#    y 0.000000 3.412170 0.000000 
#    z 0.000000 0.000000 3.480710 
# 
# 
# High freq. dielectric constant tensor:
#      x y z
#    x 1.674590 0.000000 0.000000 
#    y 0.000000 1.707090 0.000000 
#    z 0.000000 0.000000 1.704690 
# 
# From -- ./inp_files/50430.got.cif
#   From: 2010.03.12/outbox.cif.g09.slc.cpg/sg65_26_cif.got.tgz:50430.got - 2010.04.10 20:52:16.
