data_PCOD8270786
_publ_section_title
;
Structure prediction by ZEFSAII (Michael W. Deem and Ramdas Pophale) SiO2 
 PCOD8270786
Probable space group: C M M M
;
_chemical_formula_sum "Si O2"
_cell_formula_units_Z 104
_cell_length_a 8.698011
_cell_length_b 28.208506
_cell_length_c 22.985964
_cell_angle_alpha 90.000000
_cell_angle_beta 90.000000
_cell_angle_gamma 90.000000
_cell_volume 5639.787753
_symmetry_space_group_name_H-M "C M M M"
_symmetry_group_IT_number 65
_symmetry_cell_setting 'orthorhombic'
loop_
_space_group_symop_operation_xyz
x,y,z
-x,-y,z
x,-y,-z
-x,y,-z
-x,-y,-z
x,y,-z
-x,y,z
x,-y,z
1/2+x,1/2+y,z
1/2-x,1/2-y,z
1/2+x,1/2-y,-z
1/2-x,1/2+y,-z
1/2-x,1/2-y,-z
1/2+x,1/2+y,-z
1/2-x,1/2+y,z
1/2+x,1/2-y,z
loop_
_atom_site_type_symbol
_atom_site_label
_atom_site_fract_x
_atom_site_fract_y
_atom_site_fract_z
Si Si1 0.178231 0.637228 0.670170
Si Si2 0.179043 0.553697 0.852440
Si Si3 0.824213 0.053389 0.270346
Si Si4 0.820422 0.698128 0.216628
Si Si5 0.818735 0.299917 0.565257
Si Si6 0.681075 0.198121 0.000000
Si Si7 0.680297 0.354992 0.891380
O O1 0.274962 0.589338 0.679087
O O2 0.209294 0.675056 0.720867
O O3 0.237683 0.659695 0.609703
O O4 0.000000 0.623418 0.666925
O O5 0.222306 0.500000 0.870484
O O6 0.216808 0.562629 0.785034
O O7 0.276217 0.589280 0.892712
O O8 0.000000 0.564106 0.861609
O O9 0.000000 0.062480 0.251564
O O10 0.802374 0.000000 0.294048
O O11 0.750000 0.750000 0.216646
O O12 0.733482 0.666483 0.169576
O O13 0.000000 0.700602 0.200915
O O14 0.764262 0.313495 0.500000
O O15 0.750000 0.250000 0.585052
O O16 0.000000 0.294588 0.568838
O O17 0.750000 0.250000 0.000000
O O18 0.733240 0.170730 0.943065
O O19 0.500000 0.202621 0.000000
O O20 0.500000 0.348358 0.899935
#
# Coordination Sequence:
#
# PCOD8270786 Si02
#       7
#    16  16  16  16  16   8  16
#     4  10  20  33  52  78 109 144 183 227 278 333
#     4  10  20  36  59  86 116 149 184 225 277 335
#     4  10  20  33  52  80 111 143 181 226 276 333
#     4  11  22  35  52  78 111 145 183 226 279 332
#     4   9  18  33  52  76 107 145 188 230 273 326
#     4  12  26  46  67  86 113 150 194 235 277 331
#     4  12  24  40  61  86 115 148 188 231 278 329
#
# _framework density 18.440411000000001
#
# number of rings (size 3 to 8) (size 9 to 14) (size 15 to 20)
#    0.000    1.538    1.538    4.385    0.000    3.077 
#    0.000    0.385    0.000    2.769    0.000    3.231 
#    0.000    0.000    0.000    0.000    0.000    0.000 
#
# Total GULP energy -644992.068184 kJ/mol
# GULP energy per Si atom -12403.693619 kJ/mol
# Density = 1.839844 g / cm^3
# Si number density = 18.440411 Si / 1000 Ang^3
#
#
#
# Elastic Constant Matrix: (Units=GPa)
#
#
# Indices 1 2 3 4 5 6 
#
# 1 94.4567 50.3937 34.8105 0.0000 0.0000 0.0000
# 2 50.3937 136.7638 50.6316 0.0000 0.0000 0.0000
# 3 34.8105 50.6316 84.4712 0.0000 0.0000 0.0000
# 4 0.0000 0.0000 0.0000 30.2112 0.0000 0.0000
# 5 0.0000 0.0000 0.0000 0.0000 32.9536 0.0000
# 6 0.0000 0.0000 0.0000 0.0000 0.0000 36.4068
#
#
#
# Elastic Compliance Matrix: (Units=1/GPa)
#
#
# Indices 1 2 3 4 5 6 
#
# 1 0.013905 -0.003858 -0.003417 0.000000 0.000000 0.000000
# 2 -0.003858 0.010468 -0.004684 0.000000 0.000000 0.000000
# 3 -0.003417 -0.004684 0.016054 0.000000 0.000000 0.000000
# 4 0.000000 0.000000 0.000000 0.033100 0.000000 0.000000
# 5 0.000000 0.000000 0.000000 0.000000 0.030346 0.000000
# 6 0.000000 0.000000 0.000000 0.000000 0.000000 0.027467
#
#
# Mechanical properties :
#
#
# Convention : Reuss Voigt Hill
#
# Bulk Modulus (GPa) = 60.58134 65.26261 62.92198
# Shear Modulus (GPa) = 31.10172 31.90472 31.50322
#
# Velocity S-wave (km/s) = 4.11129 4.16402 4.13774
# Velocity P-wave (km/s) = 7.44720 7.65419 7.55140
#
# Compressibility (1/GPa) = 0.01650673
#
# Stress axis : x y z
#
# Youngs Moduli (GPa) = 71.91770 95.53146 62.28811
#
# Poissons Ratio (x) = 0.36859 0.21287
# Poissons Ratio (y) = 0.27748 0.29178
# Poissons Ratio (z) = 0.24578 0.44750
#
# Static dielectric constant tensor:
#      x y z
#    x 3.468280 0.000000 0.000000 
#    y 0.000000 3.652850 0.000000 
#    z 0.000000 0.000000 3.419290 
# 
# 
# High freq. dielectric constant tensor:
#      x y z
#    x 1.725070 0.000000 0.000000 
#    y 0.000000 1.725870 0.000000 
#    z 0.000000 0.000000 1.696600 
# 
# From -- ./inp_files/60371.got.cif
#   From: 2010.03.12/outbox.cif.g09.slc.cpg/sg65_31_cif.got.tgz:60371.got - 2010.04.10 20:52:16.
