data_PCOD8270643
_publ_section_title
;
Structure prediction by ZEFSAII (Michael W. Deem and Ramdas Pophale) SiO2 
 PCOD8270643
Probable space group: C M M M
;
_chemical_formula_sum "Si O2"
_cell_formula_units_Z 72
_cell_length_a 8.712479
_cell_length_b 32.476033
_cell_length_c 13.611408
_cell_angle_alpha 90.000000
_cell_angle_beta 90.000000
_cell_angle_gamma 90.000000
_cell_volume 3851.303732
_symmetry_space_group_name_H-M "C M M M"
_symmetry_group_IT_number 65
_symmetry_cell_setting 'orthorhombic'
loop_
_space_group_symop_operation_xyz
x,y,z
-x,-y,z
x,-y,-z
-x,y,-z
-x,-y,-z
x,y,-z
-x,y,z
x,-y,z
1/2+x,1/2+y,z
1/2-x,1/2-y,z
1/2+x,1/2-y,-z
1/2-x,1/2+y,-z
1/2-x,1/2-y,-z
1/2+x,1/2+y,-z
1/2-x,1/2+y,z
1/2+x,1/2-y,z
loop_
_atom_site_type_symbol
_atom_site_label
_atom_site_fract_x
_atom_site_fract_y
_atom_site_fract_z
Si Si1 0.681613 0.373795 0.107912
Si Si2 0.323251 0.160033 0.612359
Si Si3 0.181588 0.081231 0.299363
Si Si4 0.318598 0.000000 0.611515
Si Si5 0.318283 0.292830 0.217505
O O1 0.500000 0.374551 0.101967
O O2 0.735220 0.407545 0.187972
O O3 0.733974 0.328299 0.141626
O O4 0.752390 0.383527 0.000000
O O5 0.306294 0.173493 0.500000
O O6 0.500000 0.153102 0.641819
O O7 0.232192 0.117574 0.628225
O O8 0.250780 0.196776 0.675814
O O9 0.261766 0.039455 0.329994
O O10 0.000000 0.075861 0.306358
O O11 0.500000 0.000000 0.609333
O O12 0.253598 0.000000 0.500000
O O13 0.500000 0.289829 0.226570
O O14 0.250000 0.250000 0.178623
#
# Coordination Sequence:
#
# PCOD8270643 Si02
#       5
#    16  16  16   8  16
#     4   8  16  33  55  77 102 133 169 209 256 308
#     4  10  20  34  52  73 101 138 174 210 257 311
#     4  10  20  34  55  81 106 134 170 213 256 300
#     4  11  23  37  54  77 108 144 175 207 250 299
#     4  10  20  33  51  75 103 135 172 216 260 303
#
# _framework density 18.694969
#
# number of rings (size 3 to 8) (size 9 to 14) (size 15 to 20)
#    0.000    2.333    0.000    4.333    0.000    6.222 
#    0.000    0.556    0.000   26.667    0.000    0.000 
#    0.000    0.000    0.000    0.000    0.000    0.000 
#
# Total GULP energy -446370.426288 kJ/mol
# GULP energy per Si atom -12399.178508 kJ/mol
# Density = 1.865242 g / cm^3
# Si number density = 18.694969 Si / 1000 Ang^3
#
#
#
# Elastic Constant Matrix: (Units=GPa)
#
#
# Indices 1 2 3 4 5 6 
#
# 1 61.2680 25.0811 38.7633 0.0000 0.0000 0.0000
# 2 25.0811 122.0921 58.1152 0.0000 0.0000 0.0000
# 3 38.7633 58.1152 139.8262 0.0000 0.0000 0.0000
# 4 0.0000 0.0000 0.0000 17.5116 0.0000 0.0000
# 5 0.0000 0.0000 0.0000 0.0000 14.4631 0.0000
# 6 0.0000 0.0000 0.0000 0.0000 0.0000 36.5281
#
#
#
# Elastic Compliance Matrix: (Units=1/GPa)
#
#
# Indices 1 2 3 4 5 6 
#
# 1 0.020121 -0.001843 -0.004812 0.000000 0.000000 0.000000
# 2 -0.001843 0.010379 -0.003803 0.000000 0.000000 0.000000
# 3 -0.004812 -0.003803 0.010066 0.000000 0.000000 0.000000
# 4 0.000000 0.000000 0.000000 0.057105 0.000000 0.000000
# 5 0.000000 0.000000 0.000000 0.000000 0.069141 0.000000
# 6 0.000000 0.000000 0.000000 0.000000 0.000000 0.027376
#
#
# Mechanical properties :
#
#
# Convention : Reuss Voigt Hill
#
# Bulk Modulus (GPa) = 50.88908 63.01170 56.95039
# Shear Modulus (GPa) = 22.55760 27.11568 24.83664
#
# Velocity S-wave (km/s) = 3.47740 3.81258 3.64884
# Velocity P-wave (km/s) = 6.58809 7.29105 6.94846
#
# Compressibility (1/GPa) = 0.01965058
#
# Stress axis : x y z
#
# Youngs Moduli (GPa) = 49.70029 96.34533 99.34069
#
# Poissons Ratio (x) = 0.17755 0.47803
# Poissons Ratio (y) = 0.09159 0.37779
# Poissons Ratio (z) = 0.23916 0.36640
#
# Static dielectric constant tensor:
#      x y z
#    x 3.384700 0.000000 0.000000 
#    y 0.000000 3.403880 0.000000 
#    z 0.000000 0.000000 3.788820 
# 
# 
# High freq. dielectric constant tensor:
#      x y z
#    x 1.720980 0.000000 0.000000 
#    y 0.000000 1.719610 0.000000 
#    z 0.000000 0.000000 1.727650 
# 
# From -- ./inp_files/36930.got.cif
#   From: 2010.03.12/outbox.cif.g09.slc.cpg/sg65_19_cif.got.tgz:36930.got - 2010.04.10 20:52:16.
