data_PCOD8270974
_publ_section_title
;
Structure prediction by ZEFSAII (Michael W. Deem and Ramdas Pophale) SiO2 
 PCOD8270974
Probable space group: C M M M
;
_chemical_formula_sum "Si O2"
_cell_formula_units_Z 80
_cell_length_a 9.133790
_cell_length_b 19.826516
_cell_length_c 25.327847
_cell_angle_alpha 90.000000
_cell_angle_beta 90.000000
_cell_angle_gamma 90.000000
_cell_volume 4586.651057
_symmetry_space_group_name_H-M "C M M M"
_symmetry_group_IT_number 65
_symmetry_cell_setting 'orthorhombic'
loop_
_space_group_symop_operation_xyz
x,y,z
-x,-y,z
x,-y,-z
-x,y,-z
-x,-y,-z
x,y,-z
-x,y,z
x,-y,z
1/2+x,1/2+y,z
1/2-x,1/2-y,z
1/2+x,1/2-y,-z
1/2-x,1/2+y,-z
1/2-x,1/2-y,-z
1/2+x,1/2+y,-z
1/2-x,1/2+y,z
1/2+x,1/2-y,z
loop_
_atom_site_type_symbol
_atom_site_label
_atom_site_fract_x
_atom_site_fract_y
_atom_site_fract_z
Si Si1 0.340101 0.920317 0.500000
Si Si2 0.171496 0.922916 0.103367
Si Si3 0.173176 0.578403 0.385615
Si Si4 0.334847 0.919806 0.000000
Si Si5 0.170341 0.183082 0.189658
Si Si6 0.672626 0.681480 0.689277
O O1 0.500000 0.886441 0.500000
O O2 0.264495 0.900101 0.444253
O O3 0.360319 0.000000 0.500000
O O4 0.253767 0.893057 0.052265
O O5 0.220238 0.880003 0.154187
O O6 0.000000 0.917069 0.092011
O O7 0.217195 0.000000 0.114887
O O8 0.203867 0.500000 0.374755
O O9 0.264229 0.619306 0.343092
O O10 0.000000 0.593665 0.381439
O O11 0.500000 0.892231 0.000000
O O12 0.328975 0.000000 0.000000
O O13 0.250000 0.250000 0.169237
O O14 0.212369 0.166682 0.249904
O O15 0.000000 0.197173 0.183795
O O16 0.500000 0.688150 0.679981
O O17 0.750000 0.750000 0.670054
#
# Coordination Sequence:
#
# PCOD8270974 Si02
#       6
#     8  16  16   8  16  16
#     4   7  12  26  48  71  96 127 159 193 238 289
#     4   9  17  31  51  72  94 123 158 192 229 278
#     4   9  17  31  52  76 100 127 161 200 242 290
#     4   9  17  29  46  71 100 125 151 189 236 277
#     4   9  19  34  51  70  94 126 160 196 238 283
#     4  10  20  34  51  71  98 131 165 202 245 291
#
# _framework density 17.44192
#
# number of rings (size 3 to 8) (size 9 to 14) (size 15 to 20)
#    0.000    3.000    0.000    2.100    0.000    4.000 
#    0.000    3.500    0.000    4.200    0.000    0.000 
#    0.000    0.000    0.000    0.000    0.000    0.000 
#
# Total GULP energy -495791.887464 kJ/mol
# GULP energy per Si atom -12394.797187 kJ/mol
# Density = 1.740222 g / cm^3
# Si number density = 17.441920 Si / 1000 Ang^3
#
#
#
# Elastic Constant Matrix: (Units=GPa)
#
#
# Indices 1 2 3 4 5 6 
#
# 1 61.6644 44.9966 51.2522 0.0000 0.0000 0.0000
# 2 44.9966 88.0075 70.7507 0.0000 0.0000 0.0000
# 3 51.2522 70.7507 122.6713 0.0000 0.0000 0.0000
# 4 0.0000 0.0000 0.0000 6.7411 0.0000 0.0000
# 5 0.0000 0.0000 0.0000 0.0000 21.9788 0.0000
# 6 0.0000 0.0000 0.0000 0.0000 0.0000 27.3407
#
#
#
# Elastic Compliance Matrix: (Units=1/GPa)
#
#
# Indices 1 2 3 4 5 6 
#
# 1 0.028407 -0.009290 -0.006510 0.000000 0.000000 0.000000
# 2 -0.009290 0.024224 -0.010090 0.000000 0.000000 0.000000
# 3 -0.006510 -0.010090 0.016691 0.000000 0.000000 0.000000
# 4 0.000000 0.000000 0.000000 0.148345 0.000000 0.000000
# 5 0.000000 0.000000 0.000000 0.000000 0.045498 0.000000
# 6 0.000000 0.000000 0.000000 0.000000 0.000000 0.036575
#
#
# Mechanical properties :
#
#
# Convention : Reuss Voigt Hill
#
# Bulk Modulus (GPa) = 57.00758 67.37135 62.18947
# Shear Modulus (GPa) = 13.99119 18.23503 16.11311
#
# Velocity S-wave (km/s) = 2.83531 3.23688 3.04273
# Velocity P-wave (km/s) = 6.59347 7.25809 6.93375
#
# Compressibility (1/GPa) = 0.01754153
#
# Stress axis : x y z
#
# Youngs Moduli (GPa) = 35.20269 41.28171 59.91227
#
# Poissons Ratio (x) = 0.38351 0.39005
# Poissons Ratio (y) = 0.32704 0.60449
# Poissons Ratio (z) = 0.22918 0.41652
#
# Static dielectric constant tensor:
#      x y z
#    x 3.126230 0.000000 0.000000 
#    y 0.000000 3.078210 0.000000 
#    z 0.000000 0.000000 3.513190 
# 
# 
# High freq. dielectric constant tensor:
#      x y z
#    x 1.662130 0.000000 0.000000 
#    y 0.000000 1.651420 0.000000 
#    z 0.000000 0.000000 1.684890 
# 
# From -- ./inp_files/67280.got.cif
#   From: 2010.03.12/outbox.cif.g09.slc.cpg/sg65_34_cif.got.tgz:67280.got - 2010.04.10 20:52:16.
