data_PCOD8270482
_publ_section_title
;
Structure prediction by ZEFSAII (Michael W. Deem and Ramdas Pophale) SiO2 
 PCOD8270482
Probable space group: C M M M
;
_chemical_formula_sum "Si O2"
_cell_formula_units_Z 112
_cell_length_a 26.989140
_cell_length_b 14.249560
_cell_length_c 15.046519
_cell_angle_alpha 90.000000
_cell_angle_beta 90.000000
_cell_angle_gamma 90.000000
_cell_volume 5786.640980
_symmetry_space_group_name_H-M "C M M M"
_symmetry_group_IT_number 65
_symmetry_cell_setting 'orthorhombic'
loop_
_space_group_symop_operation_xyz
x,y,z
-x,-y,z
x,-y,-z
-x,y,-z
-x,-y,-z
x,y,-z
-x,y,z
x,-y,z
1/2+x,1/2+y,z
1/2-x,1/2-y,z
1/2+x,1/2-y,-z
1/2-x,1/2+y,-z
1/2-x,1/2-y,-z
1/2+x,1/2+y,-z
1/2-x,1/2+y,z
1/2+x,1/2-y,z
loop_
_atom_site_type_symbol
_atom_site_label
_atom_site_fract_x
_atom_site_fract_y
_atom_site_fract_z
Si Si1 0.817937 0.895556 0.857300
Si Si2 0.388694 0.109800 0.605274
Si Si3 0.942275 0.255138 0.729574
Si Si4 0.290377 0.104783 0.104919
Si Si5 0.366349 0.394680 0.670659
Si Si6 0.303429 0.240389 0.400463
Si Si7 0.880203 0.728880 0.900286
O O1 0.762900 0.852283 0.868106
O O2 0.830252 0.898400 0.754168
O O3 0.858598 0.833973 0.908581
O O4 0.819345 0.000000 0.899269
O O5 0.397322 0.128824 0.500000
O O6 0.432279 0.158224 0.662365
O O7 0.337273 0.156960 0.640415
O O8 0.387494 0.000000 0.626450
O O9 0.916853 0.159939 0.693803
O O10 0.924961 0.278648 0.830338
O O11 0.000000 0.235007 0.732969
O O12 0.335887 0.166229 0.141529
O O13 0.295713 0.000000 0.144317
O O14 0.294723 0.104553 0.000000
O O15 0.379030 0.500000 0.636706
O O16 0.334768 0.337148 0.598229
O O17 0.291625 0.209203 0.500000
O O18 0.250000 0.250000 0.350463
O O19 0.897652 0.698050 0.000000
#
# Coordination Sequence:
#
# PCOD8270482 Si02
#       7
#    16  16  16  16  16  16  16
#     4   9  17  29  47  73 102 131 167 210 253 300
#     4   9  19  37  60  84 108 134 168 213 263 311
#     4  10  22  38  55  76 101 131 173 227 278 319
#     4   9  17  29  46  69  97 129 164 202 247 300
#     4   9  19  34  51  73 102 137 175 216 262 309
#     4   9  18  32  51  79 114 146 173 201 239 299
#     4  10  20  33  50  72 101 137 173 209 253 308
#
# _framework density 19.354925000000001
#
# number of rings (size 3 to 8) (size 9 to 14) (size 15 to 20)
#    0.000    2.714    0.000    0.857    0.000    8.000 
#    0.000    3.571    0.000    0.000    0.000   11.000 
#    0.000    0.000    0.000    0.000    0.000    0.000 
#
# Total GULP energy -694047.414274 kJ/mol
# GULP energy per Si atom -12393.703826 kJ/mol
# Density = 1.931087 g / cm^3
# Si number density = 19.354925 Si / 1000 Ang^3
#
#
#
# Elastic Constant Matrix: (Units=GPa)
#
#
# Indices 1 2 3 4 5 6 
#
# 1 139.9905 46.0096 31.2481 0.0000 0.0000 0.0000
# 2 46.0096 113.6449 25.3061 0.0000 0.0000 0.0000
# 3 31.2481 25.3061 49.1951 0.0000 0.0000 0.0000
# 4 0.0000 0.0000 0.0000 22.4423 0.0000 0.0000
# 5 0.0000 0.0000 0.0000 0.0000 18.6483 0.0000
# 6 0.0000 0.0000 0.0000 0.0000 0.0000 16.5006
#
#
#
# Elastic Compliance Matrix: (Units=1/GPa)
#
#
# Indices 1 2 3 4 5 6 
#
# 1 0.008990 -0.002674 -0.004335 0.000000 0.000000 0.000000
# 2 -0.002674 0.010733 -0.003823 0.000000 0.000000 0.000000
# 3 -0.004335 -0.003823 0.025047 0.000000 0.000000 0.000000
# 4 0.000000 0.000000 0.000000 0.044559 0.000000 0.000000
# 5 0.000000 0.000000 0.000000 0.000000 0.053624 0.000000
# 6 0.000000 0.000000 0.000000 0.000000 0.000000 0.060604
#
#
# Mechanical properties :
#
#
# Convention : Reuss Voigt Hill
#
# Bulk Modulus (GPa) = 43.27677 56.43977 49.85827
# Shear Modulus (GPa) = 21.46643 24.86936 23.16789
#
# Velocity S-wave (km/s) = 3.33392 3.58845 3.46353
# Velocity P-wave (km/s) = 6.10149 6.81125 6.46611
#
# Compressibility (1/GPa) = 0.02310709
#
# Stress axis : x y z
#
# Youngs Moduli (GPa) = 111.23672 93.16839 39.92529
#
# Poissons Ratio (x) = 0.24917 0.17306
# Poissons Ratio (y) = 0.29749 0.15261
# Poissons Ratio (z) = 0.48216 0.35614
#
# Static dielectric constant tensor:
#      x y z
#    x 3.337360 0.000000 0.000000 
#    y 0.000000 3.821320 0.000000 
#    z 0.000000 0.000000 3.373370 
# 
# 
# High freq. dielectric constant tensor:
#      x y z
#    x 1.728940 0.000000 0.000000 
#    y 0.000000 1.755650 0.000000 
#    z 0.000000 0.000000 1.745170 
# 
# From -- ./inp_files/41106.got.cif
#   From: 2010.03.12/outbox.cif.g09.slc.cpg/sg65_21_cif.got.tgz:41106.got - 2010.04.10 20:52:16.
