data_PCOD8270758
_publ_section_title
;
Structure prediction by ZEFSAII (Michael W. Deem and Ramdas Pophale) SiO2 
 PCOD8270758
Probable space group: C M M M
;
_chemical_formula_sum "Si O2"
_cell_formula_units_Z 104
_cell_length_a 25.410923
_cell_length_b 23.685711
_cell_length_c 9.647682
_cell_angle_alpha 90.000000
_cell_angle_beta 90.000000
_cell_angle_gamma 90.000000
_cell_volume 5806.706114
_symmetry_space_group_name_H-M "C M M M"
_symmetry_group_IT_number 65
_symmetry_cell_setting 'orthorhombic'
loop_
_space_group_symop_operation_xyz
x,y,z
-x,-y,z
x,-y,-z
-x,y,-z
-x,-y,-z
x,y,-z
-x,y,z
x,-y,z
1/2+x,1/2+y,z
1/2-x,1/2-y,z
1/2+x,1/2-y,-z
1/2-x,1/2+y,-z
1/2-x,1/2-y,-z
1/2+x,1/2+y,-z
1/2-x,1/2+y,z
1/2+x,1/2-y,z
loop_
_atom_site_type_symbol
_atom_site_label
_atom_site_fract_x
_atom_site_fract_y
_atom_site_fract_z
Si Si1 0.209536 0.294655 0.654122
Si Si2 0.794046 0.500000 0.159724
Si Si3 0.558590 0.813856 0.159646
Si Si4 0.839571 0.381114 0.840310
Si Si5 0.895215 0.225081 0.653141
Si Si6 0.388808 0.598921 0.663687
Si Si7 0.500000 0.566217 0.654358
Si Si8 0.812245 0.000000 0.334315
O O1 0.228799 0.313544 0.500000
O O2 0.250000 0.250000 0.720002
O O3 0.205188 0.348846 0.752386
O O4 0.153938 0.265453 0.643831
O O5 0.832062 0.552966 0.190546
O O6 0.743884 0.500000 0.259428
O O7 0.774647 0.500000 0.000000
O O8 0.500000 0.838475 0.187246
O O9 0.601361 0.861557 0.203428
O O10 0.564046 0.755018 0.243291
O O11 0.566383 0.797626 0.000000
O O12 0.829217 0.366478 0.000000
O O13 0.921164 0.219065 0.500000
O O14 0.875707 0.163468 0.705157
O O15 0.391832 0.588988 0.500000
O O16 0.446413 0.586198 0.730615
O O17 0.344258 0.555604 0.717842
O O18 0.500000 0.500000 0.647038
O O19 0.500000 0.592546 0.500000
O O20 0.803213 0.000000 0.500000
#
# Coordination Sequence:
#
# PCOD8270758 Si02
#       8
#    16   8  16  16  16  16   8   8
#     4   9  18  31  49  73 102 131 163 207 250 291
#     4  10  22  38  54  75 103 134 168 209 252 302
#     4   9  18  34  54  75 100 129 162 204 254 307
#     4   9  19  36  54  73 100 133 168 205 252 308
#     4   9  18  30  46  72 102 129 162 203 246 295
#     4   9  17  28  44  70  98 127 167 208 246 289
#     4   9  14  24  40  62  94 126 158 203 246 279
#     4  10  20  33  52  75  99 131 172 215 254 294
#
# _framework density 17.910325
#
# number of rings (size 3 to 8) (size 9 to 14) (size 15 to 20)
#    0.000    2.846    0.769    0.000    3.231    1.231 
#    0.000    1.154    0.000    2.308    0.000    0.538 
#    0.000    5.538    0.000    0.000    0.000    0.000 
#
# Total GULP energy -644418.578768 kJ/mol
# GULP energy per Si atom -12392.664976 kJ/mol
# Density = 1.786956 g / cm^3
# Si number density = 17.910325 Si / 1000 Ang^3
#
#
#
# Elastic Constant Matrix: (Units=GPa)
#
#
# Indices 1 2 3 4 5 6 
#
# 1 83.6779 48.4232 37.4883 0.0000 0.0000 0.0000
# 2 48.4232 135.8290 47.2055 0.0000 0.0000 0.0000
# 3 37.4883 47.2055 49.2063 0.0000 0.0000 0.0000
# 4 0.0000 0.0000 0.0000 22.2263 0.0000 0.0000
# 5 0.0000 0.0000 0.0000 0.0000 21.4534 0.0000
# 6 0.0000 0.0000 0.0000 0.0000 0.0000 17.4357
#
#
#
# Elastic Compliance Matrix: (Units=1/GPa)
#
#
# Indices 1 2 3 4 5 6 
#
# 1 0.018726 -0.002577 -0.011794 0.000000 0.000000 0.000000
# 2 -0.002577 0.011399 -0.008972 0.000000 0.000000 0.000000
# 3 -0.011794 -0.008972 0.037916 0.000000 0.000000 0.000000
# 4 0.000000 0.000000 0.000000 0.044992 0.000000 0.000000
# 5 0.000000 0.000000 0.000000 0.000000 0.046613 0.000000
# 6 0.000000 0.000000 0.000000 0.000000 0.000000 0.057354
#
#
# Mechanical properties :
#
#
# Convention : Reuss Voigt Hill
#
# Bulk Modulus (GPa) = 46.83073 59.43857 53.13465
# Shear Modulus (GPa) = 18.46358 21.26283 19.86321
#
# Velocity S-wave (km/s) = 3.21423 3.44929 3.33383
# Velocity P-wave (km/s) = 6.32291 7.00873 6.67463
#
# Compressibility (1/GPa) = 0.02135350
#
# Stress axis : x y z
#
# Youngs Moduli (GPa) = 53.40263 87.72642 26.37418
#
# Poissons Ratio (x) = 0.22605 0.31107
# Poissons Ratio (y) = 0.13761 0.23664
# Poissons Ratio (z) = 0.62985 0.78712
#
# Static dielectric constant tensor:
#      x y z
#    x 3.388330 0.000000 0.000000 
#    y 0.000000 3.369810 0.000000 
#    z 0.000000 0.000000 3.314600 
# 
# 
# High freq. dielectric constant tensor:
#      x y z
#    x 1.694020 0.000000 0.000000 
#    y 0.000000 1.692340 0.000000 
#    z 0.000000 0.000000 1.657980 
# 
# From -- ./inp_files/16852.got.cif
#   From: 2010.03.12/outbox.cif.g09.slc.cpg/sg65_9_cif.got.tgz:16852.got - 2010.04.10 20:52:16.
