data_PCOD8270354
_publ_section_title
;
Structure prediction by ZEFSAII (Michael W. Deem and Ramdas Pophale) SiO2 
 PCOD8270354
Probable space group: C M M M
;
_chemical_formula_sum "Si O2"
_cell_formula_units_Z 96
_cell_length_a 27.277608
_cell_length_b 8.880023
_cell_length_c 23.973981
_cell_angle_alpha 90.000000
_cell_angle_beta 90.000000
_cell_angle_gamma 90.000000
_cell_volume 5807.116401
_symmetry_space_group_name_H-M "C M M M"
_symmetry_group_IT_number 65
_symmetry_cell_setting 'orthorhombic'
loop_
_space_group_symop_operation_xyz
x,y,z
-x,-y,z
x,-y,-z
-x,y,-z
-x,-y,-z
x,y,-z
-x,y,z
x,-y,z
1/2+x,1/2+y,z
1/2-x,1/2-y,z
1/2+x,1/2-y,-z
1/2-x,1/2+y,-z
1/2-x,1/2-y,-z
1/2+x,1/2+y,-z
1/2-x,1/2+y,z
1/2+x,1/2-y,z
loop_
_atom_site_type_symbol
_atom_site_label
_atom_site_fract_x
_atom_site_fract_y
_atom_site_fract_z
Si Si1 0.389592 0.176527 0.772702
Si Si2 0.554930 0.819537 0.119407
Si Si3 0.941618 0.334361 0.000000
Si Si4 0.696348 0.178443 0.500000
Si Si5 0.355977 0.675745 0.396419
Si Si6 0.943705 0.675828 0.339711
Si Si7 0.301824 0.674803 0.282390
O O1 0.410916 0.239787 0.830824
O O2 0.427910 0.214311 0.723451
O O3 0.338448 0.259509 0.763533
O O4 0.379435 0.000000 0.775662
O O5 0.500000 0.761309 0.131301
O O6 0.554861 0.000000 0.117527
O O7 0.573909 0.755104 0.058814
O O8 0.917813 0.500000 0.000000
O O9 0.000000 0.348465 0.000000
O O10 0.750000 0.250000 0.500000
O O11 0.665905 0.228846 0.446516
O O12 0.702475 0.000000 0.500000
O O13 0.356742 0.500000 0.411930
O O14 0.411215 0.729973 0.383488
O O15 0.321650 0.710743 0.343851
O O16 0.936130 0.500000 0.352256
O O17 0.000000 0.724339 0.347633
O O18 0.296199 0.500000 0.271737
O O19 0.250000 0.750000 0.274025
#
# Coordination Sequence:
#
# PCOD8270354 Si02
#       7
#    16  16   8   8  16  16  16
#     4   9  16  26  43  67  93 121 154 189 226 270
#     4   8  12  19  34  59  91 124 155 186 220 260
#     4   7  10  16  28  52  88 123 152 185 222 257
#     4  12  24  38  57  78  99 122 150 187 229 273
#     4  10  21  36  53  74  98 123 153 187 225 271
#     4   9  17  30  48  70  97 128 159 191 227 268
#     4  10  20  33  49  68  91 118 147 183 228 274
#
# _framework density 16.531441000000001
#
# number of rings (size 3 to 8) (size 9 to 14) (size 15 to 20)
#    0.000    2.750    0.000    3.750    0.000    5.667 
#    0.000    0.417    0.000    4.000    0.000    1.167 
#    0.000    2.000    0.000    0.000    0.000    0.000 
#
# Total GULP energy -594981.351866 kJ/mol
# GULP energy per Si atom -12395.444831 kJ/mol
# Density = 1.649381 g / cm^3
# Si number density = 16.531441 Si / 1000 Ang^3
#
#
#
# Elastic Constant Matrix: (Units=GPa)
#
#
# Indices 1 2 3 4 5 6 
#
# 1 132.6715 48.0473 72.5460 0.0000 0.0000 0.0000
# 2 48.0473 57.9953 51.4211 0.0000 0.0000 0.0000
# 3 72.5460 51.4211 130.3519 0.0000 0.0000 0.0000
# 4 0.0000 0.0000 0.0000 11.5547 0.0000 0.0000
# 5 0.0000 0.0000 0.0000 0.0000 18.4643 0.0000
# 6 0.0000 0.0000 0.0000 0.0000 0.0000 24.7762
#
#
#
# Elastic Compliance Matrix: (Units=1/GPa)
#
#
# Indices 1 2 3 4 5 6 
#
# 1 0.012153 -0.006261 -0.004293 0.000000 0.000000 0.000000
# 2 -0.006261 0.029744 -0.008249 0.000000 0.000000 0.000000
# 3 -0.004293 -0.008249 0.013315 0.000000 0.000000 0.000000
# 4 0.000000 0.000000 0.000000 0.086545 0.000000 0.000000
# 5 0.000000 0.000000 0.000000 0.000000 0.054159 0.000000
# 6 0.000000 0.000000 0.000000 0.000000 0.000000 0.040361
#
#
# Mechanical properties :
#
#
# Convention : Reuss Voigt Hill
#
# Bulk Modulus (GPa) = 56.80375 73.89415 65.34895
# Shear Modulus (GPa) = 17.87303 20.89264 19.38283
#
# Velocity S-wave (km/s) = 3.29166 3.55887 3.42787
# Velocity P-wave (km/s) = 6.99159 7.85389 7.43525
#
# Compressibility (1/GPa) = 0.01760447
#
# Stress axis : x y z
#
# Youngs Moduli (GPa) = 82.28627 33.62068 75.10374
#
# Poissons Ratio (x) = 0.21051 0.32246
# Poissons Ratio (y) = 0.51522 0.61950
# Poissons Ratio (z) = 0.35330 0.27732
#
# Static dielectric constant tensor:
#      x y z
#    x 3.047910 0.000000 0.000000 
#    y 0.000000 2.921080 0.000000 
#    z 0.000000 0.000000 3.360280 
# 
# 
# High freq. dielectric constant tensor:
#      x y z
#    x 1.622670 0.000000 0.000000 
#    y 0.000000 1.616300 0.000000 
#    z 0.000000 0.000000 1.636700 
# 
# From -- ./inp_files/71715.got.cif
#   From: 2010.03.12/outbox.cif.g09.slc.cpg/sg65_36_cif.got.tgz:71715.got - 2010.04.10 20:52:16.
