data_PCOD8270653
_publ_section_title
;
Structure prediction by ZEFSAII (Michael W. Deem and Ramdas Pophale) SiO2 
 PCOD8270653
Probable space group: C M M M
;
_chemical_formula_sum "Si O2"
_cell_formula_units_Z 104
_cell_length_a 22.677856
_cell_length_b 28.503084
_cell_length_c 8.380264
_cell_angle_alpha 90.000000
_cell_angle_beta 90.000000
_cell_angle_gamma 90.000000
_cell_volume 5416.909080
_symmetry_space_group_name_H-M "C M M M"
_symmetry_group_IT_number 65
_symmetry_cell_setting 'orthorhombic'
loop_
_space_group_symop_operation_xyz
x,y,z
-x,-y,z
x,-y,-z
-x,y,-z
-x,-y,-z
x,y,-z
-x,y,z
x,-y,z
1/2+x,1/2+y,z
1/2-x,1/2-y,z
1/2+x,1/2-y,-z
1/2-x,1/2+y,-z
1/2-x,1/2-y,-z
1/2+x,1/2+y,-z
1/2-x,1/2+y,z
1/2+x,1/2-y,z
loop_
_atom_site_type_symbol
_atom_site_label
_atom_site_fract_x
_atom_site_fract_y
_atom_site_fract_z
Si Si1 0.434788 0.728186 0.316602
Si Si2 0.744063 0.697356 0.315105
Si Si3 0.069705 0.446634 0.500000
Si Si4 0.637222 0.190732 0.820838
Si Si5 0.364836 0.361810 0.317603
Si Si6 0.930708 0.599777 0.822742
Si Si7 0.434095 0.447441 0.188080
O O1 0.432568 0.743902 0.500000
O O2 0.500000 0.736168 0.245067
O O3 0.386467 0.758192 0.224267
O O4 0.419524 0.673583 0.298008
O O5 0.727818 0.703005 0.500000
O O6 0.750000 0.750000 0.238511
O O7 0.807946 0.673902 0.288160
O O8 0.693232 0.663619 0.239634
O O9 0.088077 0.500000 0.500000
O O10 0.096448 0.426324 0.666917
O O11 0.000000 0.438120 0.500000
O O12 0.583981 0.154332 0.799976
O O13 0.661047 0.192515 0.000000
O O14 0.350842 0.373458 0.500000
O O15 0.383417 0.410825 0.238684
O O16 0.000000 0.592844 0.822148
O O17 0.907050 0.582482 0.000000
O O18 0.500000 0.434330 0.253725
O O19 0.417198 0.500000 0.248892
O O20 0.436537 0.447423 0.000000
#
# Coordination Sequence:
#
# PCOD8270653 Si02
#       7
#    16  16   8  16  16  16  16
#     4  10  20  33  51  75 106 145 181 217 267 324
#     4  10  20  37  56  74 104 144 185 226 268 318
#     4   9  18  32  54  82 105 136 178 214 267 336
#     4  11  22  34  51  76 108 142 182 223 266 322
#     4  10  20  35  55  80 108 140 184 234 275 320
#     4   9  19  34  51  78 113 142 176 226 276 329
#     4   9  19  36  57  82 113 148 183 223 280 344
#
# _framework density 19.199138999999999
#
# number of rings (size 3 to 8) (size 9 to 14) (size 15 to 20)
#    0.000    2.231    1.538    1.846    2.154    4.000 
#    0.000    2.308    0.000    0.923    0.000    0.000 
#    0.000    0.000    0.000    0.000    0.000    0.000 
#
# Total GULP energy -644306.295991 kJ/mol
# GULP energy per Si atom -12390.505692 kJ/mol
# Density = 1.915544 g / cm^3
# Si number density = 19.199139 Si / 1000 Ang^3
#
#
#
# Elastic Constant Matrix: (Units=GPa)
#
#
# Indices 1 2 3 4 5 6 
#
# 1 95.9924 41.2713 17.4929 0.0000 0.0000 0.0000
# 2 41.2713 118.0190 44.7034 0.0000 0.0000 0.0000
# 3 17.4929 44.7034 74.4002 0.0000 0.0000 0.0000
# 4 0.0000 0.0000 0.0000 25.9373 0.0000 0.0000
# 5 0.0000 0.0000 0.0000 0.0000 20.6738 0.0000
# 6 0.0000 0.0000 0.0000 0.0000 0.0000 26.1966
#
#
#
# Elastic Compliance Matrix: (Units=1/GPa)
#
#
# Indices 1 2 3 4 5 6 
#
# 1 0.012270 -0.004140 -0.000397 0.000000 0.000000 0.000000
# 2 -0.004140 0.012367 -0.006457 0.000000 0.000000 0.000000
# 3 -0.000397 -0.006457 0.017414 0.000000 0.000000 0.000000
# 4 0.000000 0.000000 0.000000 0.038555 0.000000 0.000000
# 5 0.000000 0.000000 0.000000 0.000000 0.048370 0.000000
# 6 0.000000 0.000000 0.000000 0.000000 0.000000 0.038173
#
#
# Mechanical properties :
#
#
# Convention : Reuss Voigt Hill
#
# Bulk Modulus (GPa) = 49.84677 55.03852 52.44265
# Shear Modulus (GPa) = 25.53294 26.89115 26.21205
#
# Velocity S-wave (km/s) = 3.65074 3.74658 3.69897
# Velocity P-wave (km/s) = 6.61739 6.88805 6.75408
#
# Compressibility (1/GPa) = 0.02006148
#
# Stress axis : x y z
#
# Youngs Moduli (GPa) = 81.49965 80.86046 57.42493
#
# Poissons Ratio (x) = 0.33479 0.02281
# Poissons Ratio (y) = 0.33744 0.37081
# Poissons Ratio (z) = 0.03237 0.52213
#
# Static dielectric constant tensor:
#      x y z
#    x 3.470020 0.000000 0.000000 
#    y 0.000000 3.474080 0.000000 
#    z 0.000000 0.000000 3.624360 
# 
# 
# High freq. dielectric constant tensor:
#      x y z
#    x 1.728850 0.000000 0.000000 
#    y 0.000000 1.731980 0.000000 
#    z 0.000000 0.000000 1.740970 
# 
# From -- ./inp_files/14723.got.cif
#   From: 2010.03.12/outbox.cif.g09.slc.cpg/sg65_8_cif.got.tgz:14723.got - 2010.04.10 20:52:16.
