data_PCOD8270176
_publ_section_title
;
Structure prediction by ZEFSAII (Michael W. Deem and Ramdas Pophale) SiO2 
 PCOD8270176
Probable space group: C M M M
;
_chemical_formula_sum "Si O2"
_cell_formula_units_Z 88
_cell_length_a 27.219150
_cell_length_b 9.015771
_cell_length_c 20.876976
_cell_angle_alpha 90.000000
_cell_angle_beta 90.000000
_cell_angle_gamma 90.000000
_cell_volume 5123.243798
_symmetry_space_group_name_H-M "C M M M"
_symmetry_group_IT_number 65
_symmetry_cell_setting 'orthorhombic'
loop_
_space_group_symop_operation_xyz
x,y,z
-x,-y,z
x,-y,-z
-x,y,-z
-x,-y,-z
x,y,-z
-x,y,z
x,-y,z
1/2+x,1/2+y,z
1/2-x,1/2-y,z
1/2+x,1/2-y,-z
1/2-x,1/2+y,-z
1/2-x,1/2-y,-z
1/2+x,1/2+y,-z
1/2-x,1/2+y,z
1/2+x,1/2-y,z
loop_
_atom_site_type_symbol
_atom_site_label
_atom_site_fract_x
_atom_site_fract_y
_atom_site_fract_z
Si Si1 0.358469 0.826792 0.680043
Si Si2 0.444549 0.676462 0.000000
Si Si3 0.800567 0.827534 0.573732
Si Si4 0.443734 0.329708 0.255553
Si Si5 0.302073 0.174485 0.808450
Si Si6 0.110849 0.171773 0.126024
O O1 0.343628 0.740341 0.616185
O O2 0.413192 0.775596 0.697448
O O3 0.321574 0.784743 0.737670
O O4 0.358355 0.000000 0.665549
O O5 0.415050 0.733029 0.937896
O O6 0.447700 0.500000 0.000000
O O7 0.500000 0.741887 0.000000
O O8 0.814072 0.797495 0.500000
O O9 0.750000 0.750000 0.593103
O O10 0.794663 0.000000 0.588712
O O11 0.500000 0.283381 0.262875
O O12 0.434774 0.500000 0.275392
O O13 0.428206 0.303776 0.182429
O O14 0.250000 0.250000 0.819305
O O15 0.339726 0.235617 0.861488
O O16 0.296685 0.000000 0.817643
O O17 0.125754 0.000000 0.119353
#
# Coordination Sequence:
#
# PCOD8270176 Si02
#       6
#    16   8  16  16  16  16
#     4  10  20  32  49  73  99 128 161 199 241 284
#     4   9  16  28  50  77 100 123 156 197 238 283
#     4  10  20  33  50  73 101 131 161 194 234 282
#     4   9  17  30  49  72  98 128 161 198 241 287
#     4  10  20  33  49  70  96 126 161 199 239 283
#     4   9  17  30  49  73  99 126 158 196 238 285
#
# _framework density 17.176618000000001
#
# number of rings (size 3 to 8) (size 9 to 14) (size 15 to 20)
#    0.000    2.455    0.000    2.727    0.000    7.273 
#    0.000    0.909    0.000    2.727    0.000    3.818 
#    0.000    0.000    0.000    0.000    0.000    0.000 
#
# Total GULP energy -545738.055436 kJ/mol
# GULP energy per Si atom -12403.137624 kJ/mol
# Density = 1.713752 g / cm^3
# Si number density = 17.176618 Si / 1000 Ang^3
#
#
#
# Elastic Constant Matrix: (Units=GPa)
#
#
# Indices 1 2 3 4 5 6 
#
# 1 139.3823 56.4001 63.8773 0.0000 0.0000 0.0000
# 2 56.4001 74.4760 49.0465 0.0000 0.0000 0.0000
# 3 63.8773 49.0465 99.5773 0.0000 0.0000 0.0000
# 4 0.0000 0.0000 0.0000 21.0507 0.0000 0.0000
# 5 0.0000 0.0000 0.0000 0.0000 23.1388 0.0000
# 6 0.0000 0.0000 0.0000 0.0000 0.0000 29.7644
#
#
#
# Elastic Compliance Matrix: (Units=1/GPa)
#
#
# Indices 1 2 3 4 5 6 
#
# 1 0.011622 -0.005760 -0.004618 0.000000 0.000000 0.000000
# 2 -0.005760 0.022728 -0.007500 0.000000 0.000000 0.000000
# 3 -0.004618 -0.007500 0.016699 0.000000 0.000000 0.000000
# 4 0.000000 0.000000 0.000000 0.047504 0.000000 0.000000
# 5 0.000000 0.000000 0.000000 0.000000 0.043217 0.000000
# 6 0.000000 0.000000 0.000000 0.000000 0.000000 0.033597
#
#
# Mechanical properties :
#
#
# Convention : Reuss Voigt Hill
#
# Bulk Modulus (GPa) = 65.38870 72.45370 68.92120
# Shear Modulus (GPa) = 23.12456 24.39824 23.76140
#
# Velocity S-wave (km/s) = 3.67315 3.77295 3.72339
# Velocity P-wave (km/s) = 7.49269 7.82645 7.66139
#
# Compressibility (1/GPa) = 0.01529316
#
# Stress axis : x y z
#
# Youngs Moduli (GPa) = 86.04710 43.99872 59.88393
#
# Poissons Ratio (x) = 0.25341 0.27655
# Poissons Ratio (y) = 0.49560 0.44912
# Poissons Ratio (z) = 0.39738 0.32999
#
# Static dielectric constant tensor:
#      x y z
#    x 3.173720 0.000000 0.000000 
#    y 0.000000 3.158580 0.000000 
#    z 0.000000 0.000000 3.159810 
# 
# 
# High freq. dielectric constant tensor:
#      x y z
#    x 1.661130 0.000000 0.000000 
#    y 0.000000 1.660670 0.000000 
#    z 0.000000 0.000000 1.652560 
# 
# From -- ./inp_files/59785.got.cif
#   From: 2010.03.12/outbox.cif.g09.slc.cpg/sg65_30_cif.got.tgz:59785.got - 2010.04.10 20:52:16.
