data_PCOD8270991
_publ_section_title
;
Structure prediction by ZEFSAII (Michael W. Deem and Ramdas Pophale) SiO2 
 PCOD8270991
Probable space group: C M M M
;
_chemical_formula_sum "Si O2"
_cell_formula_units_Z 104
_cell_length_a 17.459959
_cell_length_b 17.423180
_cell_length_c 18.829552
_cell_angle_alpha 90.000000
_cell_angle_beta 90.000000
_cell_angle_gamma 90.000000
_cell_volume 5728.100514
_symmetry_space_group_name_H-M "C M M M"
_symmetry_group_IT_number 65
_symmetry_cell_setting 'orthorhombic'
loop_
_space_group_symop_operation_xyz
x,y,z
-x,-y,z
x,-y,-z
-x,y,-z
-x,-y,-z
x,y,-z
-x,y,z
x,-y,z
1/2+x,1/2+y,z
1/2-x,1/2-y,z
1/2+x,1/2-y,-z
1/2-x,1/2+y,-z
1/2-x,1/2-y,-z
1/2+x,1/2+y,-z
1/2-x,1/2+y,z
1/2+x,1/2-y,z
loop_
_atom_site_type_symbol
_atom_site_label
_atom_site_fract_x
_atom_site_fract_y
_atom_site_fract_z
Si Si1 0.087917 0.198730 0.712182
Si Si2 0.816316 0.308604 0.382895
Si Si3 0.715267 0.414057 0.285948
Si Si4 0.587539 0.212920 0.145755
Si Si5 0.212782 0.089862 0.000000
Si Si6 0.794949 0.585901 0.141421
Si Si7 0.593153 0.093302 0.500000
Si Si8 0.910875 0.791107 0.000000
O O1 0.119079 0.260181 0.656520
O O2 0.130311 0.117979 0.701350
O O3 0.101958 0.224857 0.793083
O O4 0.000000 0.184690 0.694731
O O5 0.750000 0.250000 0.415407
O O6 0.776946 0.362664 0.325593
O O7 0.862972 0.364671 0.435383
O O8 0.718919 0.500000 0.316545
O O9 0.730976 0.411852 0.202142
O O10 0.500000 0.187283 0.143205
O O11 0.633989 0.137091 0.164733
O O12 0.614380 0.244871 0.069868
O O13 0.258915 0.117660 0.931066
O O14 0.129604 0.127147 0.000000
O O15 0.198336 0.000000 0.000000
O O16 0.826361 0.500000 0.130260
O O17 0.500000 0.108313 0.500000
O O18 0.607284 0.000000 0.500000
O O19 0.000000 0.809220 0.000000
#
# Coordination Sequence:
#
# PCOD8270991 Si02
#       8
#    16  16  16  16   8  16   8   8
#     4  10  20  34  54  79 108 142 180 223 268 317
#     4  10  20  37  60  82 109 144 182 217 257 311
#     4  10  20  34  54  79 108 142 180 223 268 317
#     4  10  20  34  51  74 103 136 178 223 268 319
#     4  10  21  34  50  72  98 132 175 224 274 322
#     4  10  20  34  51  74 103 136 178 223 268 319
#     4  11  23  38  58  86 119 145 170 214 264 313
#     4  10  21  34  50  72  98 132 175 224 274 322
#
# _framework density 18.156105
#
# number of rings (size 3 to 8) (size 9 to 14) (size 15 to 20)
#    0.000    1.923    1.538    2.538    0.000    3.231 
#    0.000    0.000    0.000    8.308    0.000    0.000 
#    0.000   11.077    0.000    0.000    0.000    0.000 
#
# Total GULP energy -644557.304254 kJ/mol
# GULP energy per Si atom -12395.332774 kJ/mol
# Density = 1.811478 g / cm^3
# Si number density = 18.156105 Si / 1000 Ang^3
#
#
#
# Elastic Constant Matrix: (Units=GPa)
#
#
# Indices 1 2 3 4 5 6 
#
# 1 86.1711 42.0941 19.5212 0.0000 0.0000 0.0000
# 2 42.0941 82.7753 12.5570 0.0000 0.0000 0.0000
# 3 19.5212 12.5570 72.8737 0.0000 0.0000 0.0000
# 4 0.0000 0.0000 0.0000 25.5117 0.0000 0.0000
# 5 0.0000 0.0000 0.0000 0.0000 24.4455 0.0000
# 6 0.0000 0.0000 0.0000 0.0000 0.0000 28.6775
#
#
#
# Elastic Compliance Matrix: (Units=1/GPa)
#
#
# Indices 1 2 3 4 5 6 
#
# 1 0.016043 -0.007708 -0.002969 0.000000 0.000000 0.000000
# 2 -0.007708 0.016108 -0.000711 0.000000 0.000000 0.000000
# 3 -0.002969 -0.000711 0.014640 0.000000 0.000000 0.000000
# 4 0.000000 0.000000 0.000000 0.039198 0.000000 0.000000
# 5 0.000000 0.000000 0.000000 0.000000 0.040907 0.000000
# 6 0.000000 0.000000 0.000000 0.000000 0.000000 0.034871
#
#
# Mechanical properties :
#
#
# Convention : Reuss Voigt Hill
#
# Bulk Modulus (GPa) = 41.64014 43.35163 42.49589
# Shear Modulus (GPa) = 25.96749 26.90345 26.43547
#
# Velocity S-wave (km/s) = 3.78595 3.85357 3.81991
# Velocity P-wave (km/s) = 6.48810 6.61279 6.55075
#
# Compressibility (1/GPa) = 0.02401529
#
# Stress axis : x y z
#
# Youngs Moduli (GPa) = 62.33352 62.07922 68.30470
#
# Poissons Ratio (x) = 0.47850 0.20282
# Poissons Ratio (y) = 0.48046 0.04856
# Poissons Ratio (z) = 0.18509 0.04413
#
# Static dielectric constant tensor:
#      x y z
#    x 3.352120 0.000000 0.000000 
#    y 0.000000 3.405150 0.000000 
#    z 0.000000 0.000000 3.407960 
# 
# 
# High freq. dielectric constant tensor:
#      x y z
#    x 1.705380 0.000000 0.000000 
#    y 0.000000 1.706340 0.000000 
#    z 0.000000 0.000000 1.702430 
# 
# From -- ./inp_files/54635.got.cif
#   From: 2010.03.12/outbox.cif.g09.slc.cpg/sg65_28_cif.got.tgz:54635.got - 2010.04.10 20:52:16.
