data_PCOD8270118
_publ_section_title
;
Structure prediction by ZEFSAII (Michael W. Deem and Ramdas Pophale) SiO2 
 PCOD8270118
Probable space group: C M M M
;
_chemical_formula_sum "Si O2"
_cell_formula_units_Z 104
_cell_length_a 9.137035
_cell_length_b 28.702318
_cell_length_c 23.407121
_cell_angle_alpha 90.000000
_cell_angle_beta 90.000000
_cell_angle_gamma 90.000000
_cell_volume 6138.613080
_symmetry_space_group_name_H-M "C M M M"
_symmetry_group_IT_number 65
_symmetry_cell_setting 'orthorhombic'
loop_
_space_group_symop_operation_xyz
x,y,z
-x,-y,z
x,-y,-z
-x,y,-z
-x,-y,-z
x,y,-z
-x,y,z
x,-y,z
1/2+x,1/2+y,z
1/2-x,1/2-y,z
1/2+x,1/2-y,-z
1/2-x,1/2+y,-z
1/2-x,1/2-y,-z
1/2+x,1/2+y,-z
1/2-x,1/2+y,z
1/2+x,1/2-y,z
loop_
_atom_site_type_symbol
_atom_site_label
_atom_site_fract_x
_atom_site_fract_y
_atom_site_fract_z
Si Si1 0.173527 0.298727 0.835845
Si Si2 0.828326 0.299265 0.376713
Si Si3 0.173424 0.949731 0.107253
Si Si4 0.330181 0.447722 0.236469
Si Si5 0.170639 0.148120 0.064910
Si Si6 0.667895 0.797709 0.500000
Si Si7 0.328215 0.139407 0.272740
O O1 0.250000 0.250000 0.822241
O O2 0.233645 0.318670 0.895377
O O3 0.216726 0.333573 0.784886
O O4 0.000000 0.291497 0.840662
O O5 0.750000 0.250000 0.370756
O O6 0.795693 0.323227 0.439466
O O7 0.767172 0.333092 0.327750
O O8 0.000000 0.290619 0.367494
O O9 0.229292 0.943163 0.171867
O O10 0.226142 0.905616 0.070170
O O11 0.000000 0.952182 0.107225
O O12 0.232659 0.000000 0.083397
O O13 0.500000 0.434894 0.239081
O O14 0.302106 0.500000 0.259525
O O15 0.243370 0.411437 0.275354
O O16 0.000000 0.152045 0.082457
O O17 0.195050 0.164400 0.000000
O O18 0.500000 0.783874 0.500000
O O19 0.750000 0.750000 0.500000
O O20 0.500000 0.132677 0.276618
#
# Coordination Sequence:
#
# PCOD8270118 Si02
#       7
#    16  16  16  16  16   8  16
#     4  11  23  37  52  69  92 123 156 194 237 278
#     4   9  17  29  45  69  99 130 164 196 232 276
#     4   8  14  27  48  73  97 118 144 182 227 276
#     4   9  17  30  50  73  96 124 156 190 231 280
#     4  10  20  34  53  74  94 120 155 193 234 281
#     4   8  14  26  44  64  93 130 161 195 232 271
#     4  10  20  32  48  73 100 125 155 193 236 280
#
# _framework density 16.941936999999999
#
# number of rings (size 3 to 8) (size 9 to 14) (size 15 to 20)
#    0.000    2.615    1.538    1.846    0.000    2.462 
#    0.000    1.538    0.000    0.462    0.000    1.615 
#    0.000    4.308    0.000    0.000    0.000    0.000 
#
# Total GULP energy -644409.403211 kJ/mol
# GULP energy per Si atom -12392.488523 kJ/mol
# Density = 1.690338 g / cm^3
# Si number density = 16.941937 Si / 1000 Ang^3
#
#
#
# Elastic Constant Matrix: (Units=GPa)
#
#
# Indices 1 2 3 4 5 6 
#
# 1 40.2285 36.1185 32.7164 0.0000 0.0000 0.0000
# 2 36.1185 94.8610 45.5138 0.0000 0.0000 0.0000
# 3 32.7164 45.5138 108.6877 0.0000 0.0000 0.0000
# 4 0.0000 0.0000 0.0000 16.7109 0.0000 0.0000
# 5 0.0000 0.0000 0.0000 0.0000 17.4060 0.0000
# 6 0.0000 0.0000 0.0000 0.0000 0.0000 25.2895
#
#
#
# Elastic Compliance Matrix: (Units=1/GPa)
#
#
# Indices 1 2 3 4 5 6 
#
# 1 0.042105 -0.012452 -0.007460 0.000000 0.000000 0.000000
# 2 -0.012452 0.016875 -0.003318 0.000000 0.000000 0.000000
# 3 -0.007460 -0.003318 0.012836 0.000000 0.000000 0.000000
# 4 0.000000 0.000000 0.000000 0.059841 0.000000 0.000000
# 5 0.000000 0.000000 0.000000 0.000000 0.057451 0.000000
# 6 0.000000 0.000000 0.000000 0.000000 0.000000 0.039542
#
#
# Mechanical properties :
#
#
# Convention : Reuss Voigt Hill
#
# Bulk Modulus (GPa) = 39.43980 52.49717 45.96848
# Shear Modulus (GPa) = 17.63282 20.50986 19.07134
#
# Velocity S-wave (km/s) = 3.22961 3.48314 3.35877
# Velocity P-wave (km/s) = 6.10222 6.87242 6.49874
#
# Compressibility (1/GPa) = 0.02535510
#
# Stress axis : x y z
#
# Youngs Moduli (GPa) = 23.75029 59.25897 77.90814
#
# Poissons Ratio (x) = 0.73792 0.58116
# Poissons Ratio (y) = 0.29575 0.25852
# Poissons Ratio (z) = 0.17717 0.19663
#
# Static dielectric constant tensor:
#      x y z
#    x 2.755580 0.000000 0.000000 
#    y 0.000000 3.329730 0.000000 
#    z 0.000000 0.000000 3.431380 
# 
# 
# High freq. dielectric constant tensor:
#      x y z
#    x 1.635440 0.000000 0.000000 
#    y 0.000000 1.644330 0.000000 
#    z 0.000000 0.000000 1.645310 
# 
# From -- ./inp_files/68163.got.cif
#   From: 2010.03.12/outbox.cif.g09.slc.cpg/sg65_35_cif.got.tgz:68163.got - 2010.04.10 20:52:16.
