data_PCOD8270416
_publ_section_title
;
Structure prediction by ZEFSAII (Michael W. Deem and Ramdas Pophale) SiO2 
 PCOD8270416
Probable space group: C M M M
;
_chemical_formula_sum "Si O2"
_cell_formula_units_Z 104
_cell_length_a 32.591976
_cell_length_b 9.176548
_cell_length_c 19.618363
_cell_angle_alpha 90.000000
_cell_angle_beta 90.000000
_cell_angle_gamma 90.000000
_cell_volume 5867.495950
_symmetry_space_group_name_H-M "C M M M"
_symmetry_group_IT_number 65
_symmetry_cell_setting 'orthorhombic'
loop_
_space_group_symop_operation_xyz
x,y,z
-x,-y,z
x,-y,-z
-x,y,-z
-x,-y,-z
x,y,-z
-x,y,z
x,-y,z
1/2+x,1/2+y,z
1/2-x,1/2-y,z
1/2+x,1/2-y,-z
1/2-x,1/2+y,-z
1/2-x,1/2-y,-z
1/2+x,1/2+y,-z
1/2-x,1/2+y,z
1/2+x,1/2-y,z
loop_
_atom_site_type_symbol
_atom_site_label
_atom_site_fract_x
_atom_site_fract_y
_atom_site_fract_z
Si Si1 0.706635 0.832236 0.158102
Si Si2 0.924222 0.660948 0.578613
Si Si3 0.000000 0.835704 0.581810
Si Si4 0.045540 0.833798 0.080842
Si Si5 0.373656 0.170067 0.079596
Si Si6 0.708563 0.833679 0.688901
Si Si7 0.157503 0.830812 0.422351
O O1 0.750000 0.750000 0.144969
O O2 0.668641 0.769380 0.113440
O O3 0.689571 0.819245 0.235588
O O4 0.715536 0.000000 0.139247
O O5 0.933842 0.635105 0.500000
O O6 0.916810 0.500000 0.612152
O O7 0.887543 0.771549 0.588362
O O8 0.961960 0.745695 0.612391
O O9 0.000000 0.842430 0.500000
O O10 0.000000 0.000000 0.611022
O O11 0.084610 0.743329 0.110021
O O12 0.000000 0.778175 0.106161
O O13 0.051473 0.000000 0.104381
O O14 0.046100 0.821192 0.000000
O O15 0.377893 0.000000 0.095236
O O16 0.369691 0.204357 0.000000
O O17 0.750000 0.750000 0.692930
O O18 0.683707 0.760608 0.629315
O O19 0.715746 0.000000 0.667933
O O20 0.172766 0.805280 0.500000
O O21 0.158728 0.000000 0.403301
#
# Coordination Sequence:
#
# PCOD8270416 Si02
#       7
#    16  16   8  16  16  16  16
#     4   9  19  34  50  70  96 127 164 204 242 286
#     4   9  16  26  41  63  91 121 152 185 224 273
#     4   9  15  23  37  59  89 123 155 187 224 267
#     4   8  14  25  41  64  96 130 163 200 240 283
#     4   9  17  29  46  71 102 132 164 202 243 286
#     4  10  20  35  53  70  91 121 157 196 235 284
#     4  10  20  33  49  71  97 121 149 190 240 291
#
# _framework density 17.724767
#
# number of rings (size 3 to 8) (size 9 to 14) (size 15 to 20)
#    0.000    2.846    0.000    2.077    0.000    5.846 
#    0.000    1.538    0.000    0.000    2.000    0.000 
#    0.000    0.000    0.000    0.000    0.000    0.000 
#
# Total GULP energy -644208.610848 kJ/mol
# GULP energy per Si atom -12388.627132 kJ/mol
# Density = 1.768442 g / cm^3
# Si number density = 17.724767 Si / 1000 Ang^3
#
#
#
# Elastic Constant Matrix: (Units=GPa)
#
#
# Indices 1 2 3 4 5 6 
#
# 1 133.5732 55.9112 46.1234 0.0000 0.0000 0.0000
# 2 55.9112 109.4406 35.6823 0.0000 0.0000 0.0000
# 3 46.1234 35.6823 45.8340 0.0000 0.0000 0.0000
# 4 0.0000 0.0000 0.0000 19.9445 0.0000 0.0000
# 5 0.0000 0.0000 0.0000 0.0000 -4.0219 0.0000
# 6 0.0000 0.0000 0.0000 0.0000 0.0000 -163.8935
#
#
#
# Elastic Compliance Matrix: (Units=1/GPa)
#
#
# Indices 1 2 3 4 5 6 
#
# 1 0.012157 -0.002978 -0.009915 0.000000 0.000000 0.000000
# 2 -0.002978 0.012975 -0.007105 0.000000 0.000000 0.000000
# 3 -0.009915 -0.007105 0.037327 0.000000 0.000000 0.000000
# 4 0.000000 0.000000 0.000000 0.050139 0.000000 0.000000
# 5 0.000000 0.000000 0.000000 0.000000 -0.248638 0.000000
# 6 0.000000 0.000000 0.000000 0.000000 0.000000 -0.006102
#
#
# Mechanical properties :
#
#
# Convention : Reuss Voigt Hill
#
# Bulk Modulus (GPa) = 44.51729 62.69796 53.60763
# Shear Modulus (GPa) = -52.82146 -19.51879 -36.17012
#
# Velocity S-wave (km/s) = -5.46495 -3.32206 -4.52226
# Velocity P-wave (km/s) = 3.82759 4.55358 1.74423
#
# Compressibility (1/GPa) = 0.02246318
#
# Stress axis : x y z
#
# Youngs Moduli (GPa) = 82.25863 77.07053 26.79050
#
# Poissons Ratio (x) = 0.22951 0.26563
# Poissons Ratio (y) = 0.24496 0.19034
# Poissons Ratio (z) = 0.81561 0.54756
#
# Static dielectric constant tensor:
#      x y z
#    x 3.700150 0.000000 0.000000 
#    y 0.000000 3.488700 0.000000 
#    z 0.000000 0.000000 2.681710 
# 
# 
# High freq. dielectric constant tensor:
#      x y z
#    x 1.695830 0.000000 0.000000 
#    y 0.000000 1.695330 0.000000 
#    z 0.000000 0.000000 1.635400 
# 
# From -- ./inp_files/66356.got.cif
#   From: 2010.03.12/outbox.cif.g09.slc.cpg/sg65_34_cif.got.tgz:66356.got - 2010.04.10 20:52:16.
