data_PCOD8270375
_publ_section_title
;
Structure prediction by ZEFSAII (Michael W. Deem and Ramdas Pophale) SiO2 
 PCOD8270375
Probable space group: C M M M
;
_chemical_formula_sum "Si O2"
_cell_formula_units_Z 120
_cell_length_a 26.369686
_cell_length_b 26.925456
_cell_length_c 9.291687
_cell_angle_alpha 90.000000
_cell_angle_beta 90.000000
_cell_angle_gamma 90.000000
_cell_volume 6597.244766
_symmetry_space_group_name_H-M "C M M M"
_symmetry_group_IT_number 65
_symmetry_cell_setting 'orthorhombic'
loop_
_space_group_symop_operation_xyz
x,y,z
-x,-y,z
x,-y,-z
-x,y,-z
-x,-y,-z
x,y,-z
-x,y,z
x,-y,z
1/2+x,1/2+y,z
1/2-x,1/2-y,z
1/2+x,1/2-y,-z
1/2-x,1/2+y,-z
1/2-x,1/2-y,-z
1/2+x,1/2+y,-z
1/2-x,1/2+y,z
1/2+x,1/2-y,z
loop_
_atom_site_type_symbol
_atom_site_label
_atom_site_fract_x
_atom_site_fract_y
_atom_site_fract_z
Si Si1 0.247641 0.133846 0.331082
Si Si2 0.150064 0.805423 0.330611
Si Si3 0.848319 0.692600 0.332408
Si Si4 0.443773 0.183276 0.835719
Si Si5 0.555398 0.300658 0.163779
Si Si6 0.197558 0.441838 0.165291
Si Si7 0.402482 0.059094 0.664154
Si Si8 0.000000 0.440605 0.165038
O O1 0.245545 0.121161 0.500000
O O2 0.197388 0.161899 0.278257
O O3 0.295769 0.167373 0.290773
O O4 0.253217 0.083765 0.237272
O O5 0.145001 0.808212 0.500000
O O6 0.157662 0.749014 0.277054
O O7 0.098208 0.826513 0.261936
O O8 0.858884 0.691302 0.500000
O O9 0.896736 0.663770 0.261625
O O10 0.500000 0.160598 0.795640
O O11 0.446581 0.241950 0.811042
O O12 0.430989 0.170386 0.000000
O O13 0.500000 0.322647 0.204526
O O14 0.568824 0.313143 0.000000
O O15 0.206463 0.500000 0.176364
O O16 0.149021 0.424460 0.257899
O O17 0.190093 0.425373 0.000000
O O18 0.402685 0.079532 0.500000
O O19 0.449937 0.080927 0.755307
O O20 0.407136 0.000000 0.662489
O O21 0.000000 0.500000 0.171130
O O22 0.000000 0.422240 0.000000
#
# Coordination Sequence:
#
# PCOD8270375 Si02
#       8
#    16  16  16  16  16  16  16   8
#     4  10  20  33  49  69  95 125 157 193 235 283
#     4   9  17  29  46  70  99 129 159 191 227 270
#     4   9  17  29  46  68  95 126 158 192 231 275
#     4   8  14  25  41  61  87 121 159 197 234 272
#     4   8  14  25  41  63  93 127 160 192 226 263
#     4  10  21  36  52  69  89 115 151 197 245 289
#     4   9  16  27  45  67  88 111 141 179 228 285
#     4   9  15  23  39  65  93 115 137 173 225 283
#
# _framework density 18.189411
#
# number of rings (size 3 to 8) (size 9 to 14) (size 15 to 20)
#    0.000    3.000    0.000    2.200    0.000    6.400 
#    0.000    2.667    1.467    4.000    0.000    0.000 
#    0.000    0.533    0.000    5.867    0.000    4.533 
#
# Total GULP energy -743885.599029 kJ/mol
# GULP energy per Si atom -12398.093317 kJ/mol
# Density = 1.814801 g / cm^3
# Si number density = 18.189411 Si / 1000 Ang^3
#
#
#
# Elastic Constant Matrix: (Units=GPa)
#
#
# Indices 1 2 3 4 5 6 
#
# 1 126.3749 25.4100 46.0331 0.0000 0.0000 0.0000
# 2 25.4100 22.4411 15.3903 0.0000 0.0000 0.0000
# 3 46.0331 15.3903 71.5331 0.0000 0.0000 0.0000
# 4 0.0000 0.0000 0.0000 17.5597 0.0000 0.0000
# 5 0.0000 0.0000 0.0000 0.0000 33.0502 0.0000
# 6 0.0000 0.0000 0.0000 0.0000 0.0000 32.7144
#
#
#
# Elastic Compliance Matrix: (Units=1/GPa)
#
#
# Indices 1 2 3 4 5 6 
#
# 1 0.011879 -0.009629 -0.005573 0.000000 0.000000 0.000000
# 2 -0.009629 0.060079 -0.006730 0.000000 0.000000 0.000000
# 3 -0.005573 -0.006730 0.019014 0.000000 0.000000 0.000000
# 4 0.000000 0.000000 0.000000 0.056948 0.000000 0.000000
# 5 0.000000 0.000000 0.000000 0.000000 0.030257 0.000000
# 6 0.000000 0.000000 0.000000 0.000000 0.000000 0.030568
#
#
# Mechanical properties :
#
#
# Convention : Reuss Voigt Hill
#
# Bulk Modulus (GPa) = 21.22725 43.77954 32.50340
# Shear Modulus (GPa) = 18.63519 25.56592 22.10056
#
# Velocity S-wave (km/s) = 3.20427 3.75312 3.48950
# Velocity P-wave (km/s) = 5.03837 6.54997 5.84326
#
# Compressibility (1/GPa) = 0.04710926
#
# Stress axis : x y z
#
# Youngs Moduli (GPa) = 84.18294 16.64479 52.59389
#
# Poissons Ratio (x) = 0.16027 0.29309
# Poissons Ratio (y) = 0.81057 0.35394
# Poissons Ratio (z) = 0.46913 0.11201
#
# Static dielectric constant tensor:
#      x y z
#    x 3.864060 0.000000 0.000000 
#    y 0.000000 3.141320 0.000000 
#    z 0.000000 0.000000 3.361400 
# 
# 
# High freq. dielectric constant tensor:
#      x y z
#    x 1.701720 0.000000 0.000000 
#    y 0.000000 1.673960 0.000000 
#    z 0.000000 0.000000 1.703670 
# 
# From -- ./inp_files/17084.got.cif
#   From: 2010.03.12/outbox.cif.g09.slc.cpg/sg65_9_cif.got.tgz:17084.got - 2010.04.10 20:52:16.
