data_PCOD8270131
_publ_section_title
;
Structure prediction by ZEFSAII (Michael W. Deem and Ramdas Pophale) SiO2 
 PCOD8270131
Probable space group: C M M M
;
_chemical_formula_sum "Si O2"
_cell_formula_units_Z 96
_cell_length_a 27.926119
_cell_length_b 20.346458
_cell_length_c 9.337062
_cell_angle_alpha 90.000000
_cell_angle_beta 90.000000
_cell_angle_gamma 90.000000
_cell_volume 5305.296288
_symmetry_space_group_name_H-M "C M M M"
_symmetry_group_IT_number 65
_symmetry_cell_setting 'orthorhombic'
loop_
_space_group_symop_operation_xyz
x,y,z
-x,-y,z
x,-y,-z
-x,y,-z
-x,-y,-z
x,y,-z
-x,y,z
x,-y,z
1/2+x,1/2+y,z
1/2-x,1/2-y,z
1/2+x,1/2-y,-z
1/2-x,1/2+y,-z
1/2-x,1/2-y,-z
1/2+x,1/2+y,-z
1/2-x,1/2+y,z
1/2+x,1/2-y,z
loop_
_atom_site_type_symbol
_atom_site_label
_atom_site_fract_x
_atom_site_fract_y
_atom_site_fract_z
Si Si1 0.055103 0.317372 0.168814
Si Si2 0.385979 0.307440 0.170354
Si Si3 0.110922 0.576063 0.664751
Si Si4 0.946336 0.072453 0.170415
Si Si5 0.220251 0.424272 0.666783
Si Si6 0.277441 0.315276 0.830614
O O1 0.085943 0.256195 0.228480
O O2 0.074226 0.383622 0.239328
O O3 0.000000 0.305961 0.211322
O O4 0.061182 0.324878 0.000000
O O5 0.410931 0.372759 0.234477
O O6 0.331589 0.306482 0.224176
O O7 0.388379 0.308081 0.000000
O O8 0.103157 0.595240 0.500000
O O9 0.099224 0.500000 0.689969
O O10 0.165534 0.591251 0.710356
O O11 0.000000 0.086727 0.225996
O O12 0.929454 0.000000 0.221804
O O13 0.946023 0.075439 0.000000
O O14 0.228199 0.409543 0.500000
O O15 0.232386 0.500000 0.701179
O O16 0.255172 0.379325 0.758858
O O17 0.250000 0.250000 0.781321
O O18 0.274545 0.325470 0.000000
#
# Coordination Sequence:
#
# PCOD8270131 Si02
#       6
#    16  16  16  16  16  16
#     4  10  20  33  51  75 102 132 165 203 247 292
#     4   9  17  29  44  65  97 131 160 194 238 288
#     4   9  19  36  55  73  96 129 166 203 246 296
#     4   8  13  22  38  60  86 118 155 191 227 272
#     4   9  19  36  55  74  98 130 169 210 251 299
#     4  10  20  32  48  73 103 132 163 202 248 296
#
# _framework density 18.095124999999999
#
# number of rings (size 3 to 8) (size 9 to 14) (size 15 to 20)
#    0.000    2.833    0.000    3.000    0.000    6.333 
#    0.000    5.833    0.000    0.000    0.000    0.000 
#    0.000    0.000    0.000    8.833    0.000    7.667 
#
# Total GULP energy -595153.062515 kJ/mol
# GULP energy per Si atom -12399.022136 kJ/mol
# Density = 1.805394 g / cm^3
# Si number density = 18.095125 Si / 1000 Ang^3
#
#
#
# Elastic Constant Matrix: (Units=GPa)
#
#
# Indices 1 2 3 4 5 6 
#
# 1 150.5262 91.8812 39.3504 0.0000 0.0000 0.0000
# 2 91.8812 130.9961 35.8468 0.0000 0.0000 0.0000
# 3 39.3504 35.8468 27.1188 0.0000 0.0000 0.0000
# 4 0.0000 0.0000 0.0000 20.5693 0.0000 0.0000
# 5 0.0000 0.0000 0.0000 0.0000 19.1983 0.0000
# 6 0.0000 0.0000 0.0000 0.0000 0.0000 43.0172
#
#
#
# Elastic Compliance Matrix: (Units=1/GPa)
#
#
# Indices 1 2 3 4 5 6 
#
# 1 0.013437 -0.006407 -0.011029 0.000000 0.000000 0.000000
# 2 -0.006407 0.015015 -0.010551 0.000000 0.000000 0.000000
# 3 -0.011029 -0.010551 0.066825 0.000000 0.000000 0.000000
# 4 0.000000 0.000000 0.000000 0.048616 0.000000 0.000000
# 5 0.000000 0.000000 0.000000 0.000000 0.052088 0.000000
# 6 0.000000 0.000000 0.000000 0.000000 0.000000 0.023247
#
#
# Mechanical properties :
#
#
# Convention : Reuss Voigt Hill
#
# Bulk Modulus (GPa) = 25.44295 71.42199 48.43247
# Shear Modulus (GPa) = 17.34291 25.99446 21.66869
#
# Velocity S-wave (km/s) = 3.09921 3.79429 3.46423
# Velocity P-wave (km/s) = 5.18633 7.66495 6.54406
#
# Compressibility (1/GPa) = 0.03930362
#
# Stress axis : x y z
#
# Youngs Moduli (GPa) = 74.41924 66.60111 14.96450
#
# Poissons Ratio (x) = 0.42671 0.16505
# Poissons Ratio (y) = 0.47680 0.15788
# Poissons Ratio (z) = 0.82079 0.70268
#
# Static dielectric constant tensor:
#      x y z
#    x 3.475210 0.000000 0.000000 
#    y 0.000000 3.489740 0.000000 
#    z 0.000000 0.000000 2.864640 
# 
# 
# High freq. dielectric constant tensor:
#      x y z
#    x 1.707730 0.000000 0.000000 
#    y 0.000000 1.714710 0.000000 
#    z 0.000000 0.000000 1.654030 
# 
# From -- ./inp_files/12236.got.cif
#   From: 2010.03.12/outbox.cif.g09.slc.cpg/sg65_7_cif.got.tgz:12236.got - 2010.04.10 20:52:16.
