data_PCOD8270072
_publ_section_title
;
Structure prediction by ZEFSAII (Michael W. Deem and Ramdas Pophale) SiO2 
 PCOD8270072
Probable space group: C M M M
;
_chemical_formula_sum "Si O2"
_cell_formula_units_Z 96
_cell_length_a 22.869963
_cell_length_b 19.667859
_cell_length_c 11.694564
_cell_angle_alpha 90.000000
_cell_angle_beta 90.000000
_cell_angle_gamma 90.000000
_cell_volume 5260.252399
_symmetry_space_group_name_H-M "C M M M"
_symmetry_group_IT_number 65
_symmetry_cell_setting 'orthorhombic'
loop_
_space_group_symop_operation_xyz
x,y,z
-x,-y,z
x,-y,-z
-x,y,-z
-x,-y,-z
x,y,-z
-x,y,z
x,-y,z
1/2+x,1/2+y,z
1/2-x,1/2-y,z
1/2+x,1/2-y,-z
1/2-x,1/2+y,-z
1/2-x,1/2-y,-z
1/2+x,1/2+y,-z
1/2-x,1/2+y,z
1/2+x,1/2-y,z
loop_
_atom_site_type_symbol
_atom_site_label
_atom_site_fract_x
_atom_site_fract_y
_atom_site_fract_z
Si Si1 0.391503 0.311573 0.131714
Si Si2 0.240413 0.176079 0.867136
Si Si3 0.569509 0.173274 0.750097
Si Si4 0.933389 0.073575 0.725087
Si Si5 0.429745 0.642615 0.500000
Si Si6 0.341008 0.077710 0.136043
Si Si7 0.068461 0.293302 0.500000
O O1 0.326877 0.341979 0.153506
O O2 0.405611 0.244616 0.203824
O O3 0.431472 0.374493 0.168869
O O4 0.402314 0.292909 0.000000
O O5 0.250000 0.250000 0.809518
O O6 0.284278 0.119069 0.816204
O O7 0.256291 0.181661 0.000000
O O8 0.500000 0.169844 0.771587
O O9 0.599924 0.110664 0.814079
O O10 0.585928 0.166640 0.615516
O O11 0.903656 0.105358 0.611931
O O12 0.000000 0.061074 0.694166
O O13 0.904542 0.000000 0.754928
O O14 0.500000 0.644303 0.500000
O O15 0.403033 0.718431 0.500000
O O16 0.335928 0.000000 0.178606
O O17 0.344932 0.080584 0.000000
O O18 0.000000 0.281528 0.500000
#
# Coordination Sequence:
#
# PCOD8270072 Si02
#       7
#    16  16  16  16   8  16   8
#     4  11  21  32  52  79 109 143 180 220 269 325
#     4   9  17  33  55  77 103 139 181 219 255 307
#     4  11  21  35  56  83 112 143 180 224 274 328
#     4  10  20  32  47  71 105 142 179 221 270 320
#     4   9  15  30  51  70  94 134 186 232 264 304
#     4  10  21  37  58  84 112 144 182 224 270 321
#     4   9  18  33  55  79 102 136 187 230 259 312
#
# _framework density 18.250074999999999
#
# number of rings (size 3 to 8) (size 9 to 14) (size 15 to 20)
#    0.000    2.000    3.333    1.250    0.000    4.667 
#    0.000    3.750    0.000    4.500    0.000    0.000 
#    0.000    0.000    0.000    0.000    0.000    0.000 
#
# Total GULP energy -594881.340897 kJ/mol
# GULP energy per Si atom -12393.361269 kJ/mol
# Density = 1.820854 g / cm^3
# Si number density = 18.250075 Si / 1000 Ang^3
#
#
#
# Elastic Constant Matrix: (Units=GPa)
#
#
# Indices 1 2 3 4 5 6 
#
# 1 69.0313 42.4412 28.1104 0.0000 0.0000 0.0000
# 2 42.4412 143.1781 29.5581 0.0000 0.0000 0.0000
# 3 28.1104 29.5581 66.4169 0.0000 0.0000 0.0000
# 4 0.0000 0.0000 0.0000 21.7521 0.0000 0.0000
# 5 0.0000 0.0000 0.0000 0.0000 4.2100 0.0000
# 6 0.0000 0.0000 0.0000 0.0000 0.0000 26.9888
#
#
#
# Elastic Compliance Matrix: (Units=1/GPa)
#
#
# Indices 1 2 3 4 5 6 
#
# 1 0.019903 -0.004582 -0.006385 0.000000 0.000000 0.000000
# 2 -0.004582 0.008746 -0.001953 0.000000 0.000000 0.000000
# 3 -0.006385 -0.001953 0.018628 0.000000 0.000000 0.000000
# 4 0.000000 0.000000 0.000000 0.045973 0.000000 0.000000
# 5 0.000000 0.000000 0.000000 0.000000 0.237531 0.000000
# 6 0.000000 0.000000 0.000000 0.000000 0.000000 0.037052
#
#
# Mechanical properties :
#
#
# Convention : Reuss Voigt Hill
#
# Bulk Modulus (GPa) = 46.64687 53.20508 49.92598
# Shear Modulus (GPa) = 12.47451 22.49128 17.48289
#
# Velocity S-wave (km/s) = 2.61728 3.51436 3.09846
# Velocity P-wave (km/s) = 5.89482 6.75901 6.34165
#
# Compressibility (1/GPa) = 0.02143766
#
# Stress axis : x y z
#
# Youngs Moduli (GPa) = 50.24378 114.34358 53.68298
#
# Poissons Ratio (x) = 0.52387 0.34275
# Poissons Ratio (y) = 0.23020 0.10484
# Poissons Ratio (z) = 0.32080 0.22331
#
# Static dielectric constant tensor:
#      x y z
#    x 3.216810 0.000000 0.000000 
#    y 0.000000 3.519860 0.000000 
#    z 0.000000 0.000000 3.322520 
# 
# 
# High freq. dielectric constant tensor:
#      x y z
#    x 1.682930 0.000000 0.000000 
#    y 0.000000 1.709720 0.000000 
#    z 0.000000 0.000000 1.688890 
# 
# From -- ./inp_files/29081.got.cif
#   From: 2010.03.12/outbox.cif.g09.slc.cpg/sg65_15_cif.got.tgz:29081.got - 2010.04.10 20:52:16.
