data_PCOD8270931
_publ_section_title
;
Structure prediction by ZEFSAII (Michael W. Deem and Ramdas Pophale) SiO2 
 PCOD8270931
Probable space group: C M M M
;
_chemical_formula_sum "Si O2"
_cell_formula_units_Z 80
_cell_length_a 8.911573
_cell_length_b 26.028251
_cell_length_c 19.143141
_cell_angle_alpha 90.000000
_cell_angle_beta 90.000000
_cell_angle_gamma 90.000000
_cell_volume 4440.302454
_symmetry_space_group_name_H-M "C M M M"
_symmetry_group_IT_number 65
_symmetry_cell_setting 'orthorhombic'
loop_
_space_group_symop_operation_xyz
x,y,z
-x,-y,z
x,-y,-z
-x,y,-z
-x,-y,-z
x,y,-z
-x,y,z
x,-y,z
1/2+x,1/2+y,z
1/2-x,1/2-y,z
1/2+x,1/2-y,-z
1/2-x,1/2+y,-z
1/2-x,1/2-y,-z
1/2+x,1/2+y,-z
1/2-x,1/2+y,z
1/2+x,1/2-y,z
loop_
_atom_site_type_symbol
_atom_site_label
_atom_site_fract_x
_atom_site_fract_y
_atom_site_fract_z
Si Si1 0.323615 0.197462 0.180573
Si Si2 0.676725 0.196740 0.659365
Si Si3 0.171542 0.896854 0.417110
Si Si4 0.163433 0.500000 0.082575
Si Si5 0.169738 0.500000 0.416896
Si Si6 0.179767 0.610004 0.921530
O O1 0.500000 0.202977 0.171060
O O2 0.250000 0.250000 0.154558
O O3 0.279916 0.185537 0.260378
O O4 0.257924 0.152122 0.132255
O O5 0.500000 0.201001 0.648405
O O6 0.750000 0.250000 0.634084
O O7 0.739063 0.151090 0.612846
O O8 0.182621 0.894256 0.500000
O O9 0.245610 0.949436 0.388744
O O10 0.000000 0.895175 0.391655
O O11 0.245903 0.446181 0.102392
O O12 0.000000 0.500000 0.119124
O O13 0.140990 0.500000 0.000000
O O14 0.170442 0.500000 0.500000
O O15 0.000000 0.500000 0.387878
O O16 0.000000 0.607124 0.919614
O O17 0.233736 0.624046 0.000000
#
# Coordination Sequence:
#
# PCOD8270931 Si02
#       6
#    16  16  16   8   8  16
#     4   9  18  31  46  66  92 123 157 192 233 281
#     4  10  20  34  50  68  94 128 164 202 247 297
#     4  10  20  34  53  76 100 127 161 200 241 287
#     4   7  10  18  35  60  88 116 144 179 226 270
#     4   9  17  31  52  77 104 132 160 193 236 283
#     4   8  13  23  41  65  92 120 152 191 232 275
#
# _framework density 18.016788999999999
#
# number of rings (size 3 to 8) (size 9 to 14) (size 15 to 20)
#    0.000    3.000    0.000    2.700    0.000    4.000 
#    0.000    1.000    0.000    3.600    0.000    0.700 
#    0.000    2.400    0.000    0.000    0.000    0.000 
#
# Total GULP energy -495771.426390 kJ/mol
# GULP energy per Si atom -12394.285660 kJ/mol
# Density = 1.797578 g / cm^3
# Si number density = 18.016789 Si / 1000 Ang^3
#
#
#
# Elastic Constant Matrix: (Units=GPa)
#
#
# Indices 1 2 3 4 5 6 
#
# 1 67.0607 50.3455 21.5933 0.0000 0.0000 0.0000
# 2 50.3455 170.3040 43.7604 0.0000 0.0000 0.0000
# 3 21.5933 43.7604 33.2121 0.0000 0.0000 0.0000
# 4 0.0000 0.0000 0.0000 2.7145 0.0000 0.0000
# 5 0.0000 0.0000 0.0000 0.0000 11.9620 0.0000
# 6 0.0000 0.0000 0.0000 0.0000 0.0000 30.8167
#
#
#
# Elastic Compliance Matrix: (Units=1/GPa)
#
#
# Indices 1 2 3 4 5 6 
#
# 1 0.020506 -0.003986 -0.008081 0.000000 0.000000 0.000000
# 2 -0.003986 0.009652 -0.010126 0.000000 0.000000 0.000000
# 3 -0.008081 -0.010126 0.048706 0.000000 0.000000 0.000000
# 4 0.000000 0.000000 0.000000 0.368395 0.000000 0.000000
# 5 0.000000 0.000000 0.000000 0.000000 0.083598 0.000000
# 6 0.000000 0.000000 0.000000 0.000000 0.000000 0.032450
#
#
# Mechanical properties :
#
#
# Convention : Reuss Voigt Hill
#
# Bulk Modulus (GPa) = 29.00359 55.77502 42.38931
# Shear Modulus (GPa) = 8.07512 19.42379 13.74946
#
# Velocity S-wave (km/s) = 2.11937 3.28700 2.76551
# Velocity P-wave (km/s) = 4.70340 6.74020 5.81172
#
# Compressibility (1/GPa) = 0.03447849
#
# Stress axis : x y z
#
# Youngs Moduli (GPa) = 48.76611 103.60446 20.53137
#
# Poissons Ratio (x) = 0.41293 0.16591
# Poissons Ratio (y) = 0.19436 0.20791
# Poissons Ratio (z) = 0.39407 1.04913
#
# Static dielectric constant tensor:
#      x y z
#    x 3.117120 0.000000 0.000000 
#    y 0.000000 3.768850 0.000000 
#    z 0.000000 0.000000 3.144540 
# 
# 
# High freq. dielectric constant tensor:
#      x y z
#    x 1.671380 0.000000 0.000000 
#    y 0.000000 1.718680 0.000000 
#    z 0.000000 0.000000 1.667860 
# 
# From -- ./inp_files/59674.got.cif
#   From: 2010.03.12/outbox.cif.g09.slc.cpg/sg65_30_cif.got.tgz:59674.got - 2010.04.10 20:52:16.
