data_PCOD8270640
_publ_section_title
;
Structure prediction by ZEFSAII (Michael W. Deem and Ramdas Pophale) SiO2 
 PCOD8270640
Probable space group: C M M M
;
_chemical_formula_sum "Si O2"
_cell_formula_units_Z 80
_cell_length_a 9.314126
_cell_length_b 18.178232
_cell_length_c 25.842823
_cell_angle_alpha 90.000000
_cell_angle_beta 90.000000
_cell_angle_gamma 90.000000
_cell_volume 4375.560605
_symmetry_space_group_name_H-M "C M M M"
_symmetry_group_IT_number 65
_symmetry_cell_setting 'orthorhombic'
loop_
_space_group_symop_operation_xyz
x,y,z
-x,-y,z
x,-y,-z
-x,y,-z
-x,-y,-z
x,y,-z
-x,y,z
x,-y,z
1/2+x,1/2+y,z
1/2-x,1/2-y,z
1/2+x,1/2-y,-z
1/2-x,1/2+y,-z
1/2-x,1/2-y,-z
1/2+x,1/2+y,-z
1/2-x,1/2+y,z
1/2+x,1/2-y,z
loop_
_atom_site_type_symbol
_atom_site_label
_atom_site_fract_x
_atom_site_fract_y
_atom_site_fract_z
Si Si1 0.168579 0.674055 0.000000
Si Si2 0.666290 0.085087 0.299207
Si Si3 0.329583 0.082399 0.500000
Si Si4 0.166521 0.585367 0.898905
Si Si5 0.837738 0.087527 0.799901
Si Si6 0.830841 0.326428 0.401272
O O1 0.250000 0.750000 0.000000
O O2 0.215631 0.628376 0.949793
O O3 0.000000 0.689091 0.000000
O O4 0.500000 0.095349 0.285126
O O5 0.757958 0.116607 0.251316
O O6 0.710993 0.130669 0.349385
O O7 0.701407 0.000000 0.310499
O O8 0.500000 0.077429 0.500000
O O9 0.275347 0.125082 0.550713
O O10 0.264468 0.000000 0.500000
O O11 0.199634 0.500000 0.908857
O O12 0.257180 0.617212 0.850823
O O13 0.000000 0.597750 0.886054
O O14 0.000000 0.117588 0.799959
O O15 0.832624 0.000000 0.800108
O O16 0.750000 0.250000 0.402269
O O17 0.000000 0.311950 0.404932
#
# Coordination Sequence:
#
# PCOD8270640 Si02
#       6
#     8  16   8  16  16  16
#     4  10  21  35  51  73 101 132 164 200 246 296
#     4   9  17  31  51  73  97 129 169 206 240 286
#     4   9  17  32  55  79 100 127 168 212 248 289
#     4   9  17  32  54  76  98 128 167 206 242 288
#     4   9  17  29  48  76 104 127 157 203 255 296
#     4  10  20  33  51  75 103 134 166 203 248 296
#
# _framework density 18.283370000000001
#
# number of rings (size 3 to 8) (size 9 to 14) (size 15 to 20)
#    0.000    2.700    0.000    1.800    0.000    7.600 
#    0.000    1.000    0.000    5.400    0.000    0.000 
#    0.000    0.000    0.000    0.000    0.000    0.000 
#
# Total GULP energy -496055.985692 kJ/mol
# GULP energy per Si atom -12401.399642 kJ/mol
# Density = 1.824176 g / cm^3
# Si number density = 18.283370 Si / 1000 Ang^3
#
#
#
# Elastic Constant Matrix: (Units=GPa)
#
#
# Indices 1 2 3 4 5 6 
#
# 1 72.0249 47.3350 79.4882 0.0000 0.0000 0.0000
# 2 47.3350 100.4671 81.0583 0.0000 0.0000 0.0000
# 3 79.4882 81.0583 205.8210 0.0000 0.0000 0.0000
# 4 0.0000 0.0000 0.0000 4.2091 0.0000 0.0000
# 5 0.0000 0.0000 0.0000 0.0000 19.1385 0.0000
# 6 0.0000 0.0000 0.0000 0.0000 0.0000 27.6643
#
#
#
# Elastic Compliance Matrix: (Units=1/GPa)
#
#
# Indices 1 2 3 4 5 6 
#
# 1 0.026612 -0.006224 -0.007826 0.000000 0.000000 0.000000
# 2 -0.006224 0.016045 -0.003915 0.000000 0.000000 0.000000
# 3 -0.007826 -0.003915 0.009423 0.000000 0.000000 0.000000
# 4 0.000000 0.000000 0.000000 0.237582 0.000000 0.000000
# 5 0.000000 0.000000 0.000000 0.000000 0.052251 0.000000
# 6 0.000000 0.000000 0.000000 0.000000 0.000000 0.036148
#
#
# Mechanical properties :
#
#
# Convention : Reuss Voigt Hill
#
# Bulk Modulus (GPa) = 61.92405 88.23068 75.07737
# Shear Modulus (GPa) = 11.92254 21.56447 16.74351
#
# Velocity S-wave (km/s) = 2.55639 3.43805 3.02947
# Velocity P-wave (km/s) = 6.53116 8.00764 7.30679
#
# Compressibility (1/GPa) = 0.01614882
#
# Stress axis : x y z
#
# Youngs Moduli (GPa) = 37.57751 62.32593 106.12211
#
# Poissons Ratio (x) = 0.38789 0.83055
# Poissons Ratio (y) = 0.23387 0.41550
# Poissons Ratio (z) = 0.29410 0.24402
#
# Static dielectric constant tensor:
#      x y z
#    x 3.267800 0.000000 0.000000 
#    y 0.000000 3.147700 0.000000 
#    z 0.000000 0.000000 3.619070 
# 
# 
# High freq. dielectric constant tensor:
#      x y z
#    x 1.692800 0.000000 0.000000 
#    y 0.000000 1.686240 0.000000 
#    z 0.000000 0.000000 1.727550 
# 
# From -- ./inp_files/72867.got.cif
#   From: 2010.03.12/outbox.cif.g09.slc.cpg/sg65_37_cif.got.tgz:72867.got - 2010.04.10 20:52:16.
