data_PCOD8270547
_publ_section_title
;
Structure prediction by ZEFSAII (Michael W. Deem and Ramdas Pophale) SiO2 
 PCOD8270547
Probable space group: C M M M
;
_chemical_formula_sum "Si O2"
_cell_formula_units_Z 96
_cell_length_a 25.616704
_cell_length_b 20.330440
_cell_length_c 11.855087
_cell_angle_alpha 90.000000
_cell_angle_beta 90.000000
_cell_angle_gamma 90.000000
_cell_volume 6174.115838
_symmetry_space_group_name_H-M "C M M M"
_symmetry_group_IT_number 65
_symmetry_cell_setting 'orthorhombic'
loop_
_space_group_symop_operation_xyz
x,y,z
-x,-y,z
x,-y,-z
-x,y,-z
-x,-y,-z
x,y,-z
-x,y,z
x,-y,z
1/2+x,1/2+y,z
1/2-x,1/2-y,z
1/2+x,1/2-y,-z
1/2-x,1/2+y,-z
1/2-x,1/2-y,-z
1/2+x,1/2+y,-z
1/2-x,1/2+y,z
1/2+x,1/2-y,z
loop_
_atom_site_type_symbol
_atom_site_label
_atom_site_fract_x
_atom_site_fract_y
_atom_site_fract_z
Si Si1 0.939965 0.138421 0.128860
Si Si2 0.705774 0.805338 0.626054
Si Si3 0.193561 0.713001 0.000000
Si Si4 0.233117 0.570990 0.000000
Si Si5 0.723481 0.608276 0.766877
Si Si6 0.336994 0.500000 0.632257
Si Si7 0.940484 0.000000 0.757256
Si Si8 0.852786 0.225818 0.789162
O O1 0.930072 0.063678 0.166199
O O2 0.908984 0.190480 0.206612
O O3 0.000000 0.157790 0.141128
O O4 0.920635 0.144350 0.000000
O O5 0.692837 0.830353 0.500000
O O6 0.750000 0.750000 0.622538
O O7 0.723900 0.867641 0.702198
O O8 0.653624 0.770895 0.677402
O O9 0.250000 0.750000 0.000000
O O10 0.196982 0.634253 0.000000
O O11 0.157605 0.727482 0.105914
O O12 0.266837 0.571163 0.115421
O O13 0.203330 0.500000 0.000000
O O14 0.689686 0.564281 0.682988
O O15 0.691826 0.672148 0.798900
O O16 0.327915 0.500000 0.500000
O O17 0.399278 0.500000 0.655155
O O18 0.000000 0.000000 0.709622
#
# Coordination Sequence:
#
# PCOD8270547 Si02
#       8
#    16  16   8   8  16   8   8  16
#     4  10  20  33  50  73  99 127 167 217 267 307
#     4   9  18  31  47  66  93 125 161 200 242 297
#     4  12  18  30  49  74  98 128 164 202 251 304
#     4  12  22  32  48  72 107 130 158 201 250 302
#     4  11  20  32  47  73  95 128 166 208 251 299
#     4  12  24  35  48  66  98 140 181 215 253 299
#     4  10  21  37  50  64  90 130 179 224 260 296
#     4  11  18  30  51  70  94 126 165 209 253 300
#
# _framework density 15.548786
#
# number of rings (size 3 to 8) (size 9 to 14) (size 15 to 20)
#    0.000    1.333    6.667    1.250    0.000    1.833 
#    1.500    0.000    0.000    0.500    0.000    0.000 
#    0.000    1.333    0.000    0.000    0.000    6.833 
#
# Total GULP energy -594894.590478 kJ/mol
# GULP energy per Si atom -12393.637302 kJ/mol
# Density = 1.551340 g / cm^3
# Si number density = 15.548786 Si / 1000 Ang^3
#
#
#
# Elastic Constant Matrix: (Units=GPa)
#
#
# Indices 1 2 3 4 5 6 
#
# 1 66.9551 39.5948 38.5264 0.0000 0.0000 0.0000
# 2 39.5948 88.6353 37.7200 0.0000 0.0000 0.0000
# 3 38.5264 37.7200 118.3451 0.0000 0.0000 0.0000
# 4 0.0000 0.0000 0.0000 14.3543 0.0000 0.0000
# 5 0.0000 0.0000 0.0000 0.0000 17.4961 0.0000
# 6 0.0000 0.0000 0.0000 0.0000 0.0000 26.5972
#
#
#
# Elastic Compliance Matrix: (Units=1/GPa)
#
#
# Indices 1 2 3 4 5 6 
#
# 1 0.022384 -0.007981 -0.004743 0.000000 0.000000 0.000000
# 2 -0.007981 0.015898 -0.002469 0.000000 0.000000 0.000000
# 3 -0.004743 -0.002469 0.010781 0.000000 0.000000 0.000000
# 4 0.000000 0.000000 0.000000 0.069665 0.000000 0.000000
# 5 0.000000 0.000000 0.000000 0.000000 0.057156 0.000000
# 6 0.000000 0.000000 0.000000 0.000000 0.000000 0.037598
#
#
# Mechanical properties :
#
#
# Convention : Reuss Voigt Hill
#
# Bulk Modulus (GPa) = 53.54204 56.17975 54.86090
# Shear Modulus (GPa) = 19.99246 22.22915 21.11081
#
# Velocity S-wave (km/s) = 3.58968 3.78516 3.68871
# Velocity P-wave (km/s) = 7.18962 7.43727 7.31449
#
# Compressibility (1/GPa) = 0.01867691
#
# Stress axis : x y z
#
# Youngs Moduli (GPa) = 44.67425 62.90060 92.75593
#
# Poissons Ratio (x) = 0.50200 0.43997
# Poissons Ratio (y) = 0.35654 0.22902
# Poissons Ratio (z) = 0.21190 0.15531
#
# Static dielectric constant tensor:
#      x y z
#    x 2.777020 0.000000 0.000000 
#    y 0.000000 2.995900 0.000000 
#    z 0.000000 0.000000 3.180140 
# 
# 
# High freq. dielectric constant tensor:
#      x y z
#    x 1.554170 0.000000 0.000000 
#    y 0.000000 1.591910 0.000000 
#    z 0.000000 0.000000 1.606190 
# 
# From -- ./inp_files/31029.got.cif
#   From: 2010.03.12/outbox.cif.g09.slc.cpg/sg65_16_cif.got.tgz:31029.got - 2010.04.10 20:52:16.
