data_PCOD8270295
_publ_section_title
;
Structure prediction by ZEFSAII (Michael W. Deem and Ramdas Pophale) SiO2 
 PCOD8270295
Probable space group: C M M M
;
_chemical_formula_sum "Si O2"
_cell_formula_units_Z 72
_cell_length_a 17.534467
_cell_length_b 27.965756
_cell_length_c 8.934425
_cell_angle_alpha 90.000000
_cell_angle_beta 90.000000
_cell_angle_gamma 90.000000
_cell_volume 4381.125971
_symmetry_space_group_name_H-M "C M M M"
_symmetry_group_IT_number 65
_symmetry_cell_setting 'orthorhombic'
loop_
_space_group_symop_operation_xyz
x,y,z
-x,-y,z
x,-y,-z
-x,y,-z
-x,-y,-z
x,y,-z
-x,y,z
x,-y,z
1/2+x,1/2+y,z
1/2-x,1/2-y,z
1/2+x,1/2-y,-z
1/2-x,1/2+y,-z
1/2-x,1/2-y,-z
1/2+x,1/2+y,-z
1/2-x,1/2+y,z
1/2+x,1/2-y,z
loop_
_atom_site_type_symbol
_atom_site_label
_atom_site_fract_x
_atom_site_fract_y
_atom_site_fract_z
Si Si1 0.284144 0.141240 0.824005
Si Si2 0.412885 0.203934 0.323707
Si Si3 0.000000 0.556511 0.832558
Si Si4 0.654409 0.054850 0.676503
Si Si5 0.683680 0.711232 0.335104
O O1 0.359696 0.168240 0.768167
O O2 0.280956 0.088614 0.748746
O O3 0.206599 0.169198 0.779230
O O4 0.287031 0.135510 0.000000
O O5 0.399303 0.194838 0.500000
O O6 0.500000 0.194731 0.276563
O O7 0.391851 0.259448 0.284800
O O8 0.074071 0.573372 0.742210
O O9 0.000000 0.500000 0.842672
O O10 0.000000 0.578672 0.000000
O O11 0.651882 0.061481 0.500000
O O12 0.671709 0.000000 0.720936
O O13 0.672409 0.688413 0.500000
O O14 0.750000 0.750000 0.340788
#
# Coordination Sequence:
#
# PCOD8270295 Si02
#       5
#    16  16   8  16  16
#     4  11  21  30  44  65  91 120 149 184 225 265
#     4   9  18  32  49  67  88 116 150 186 221 262
#     4   9  17  29  43  59  81 107 137 179 225 259
#     4  10  20  33  47  61  81 114 153 188 221 259
#     4   8  15  30  48  64  85 114 147 181 219 264
#
# _framework density 16.434131000000001
#
# number of rings (size 3 to 8) (size 9 to 14) (size 15 to 20)
#    0.000    2.556    0.000    4.333    1.556    7.111 
#    0.000    0.000    0.000    0.000    0.000    0.000 
#    0.000    0.889    0.000   10.222    0.000    2.889 
#
# Total GULP energy -446231.889166 kJ/mol
# GULP energy per Si atom -12395.330255 kJ/mol
# Density = 1.639673 g / cm^3
# Si number density = 16.434131 Si / 1000 Ang^3
#
#
#
# Elastic Constant Matrix: (Units=GPa)
#
#
# Indices 1 2 3 4 5 6 
#
# 1 21.4667 16.5013 13.6155 0.0000 0.0000 0.0000
# 2 16.5013 84.4753 46.4523 0.0000 0.0000 0.0000
# 3 13.6155 46.4523 100.2414 0.0000 0.0000 0.0000
# 4 0.0000 0.0000 0.0000 22.2382 0.0000 0.0000
# 5 0.0000 0.0000 0.0000 0.0000 14.0457 0.0000
# 6 0.0000 0.0000 0.0000 0.0000 0.0000 23.7542
#
#
#
# Elastic Compliance Matrix: (Units=1/GPa)
#
#
# Indices 1 2 3 4 5 6 
#
# 1 0.055657 -0.009011 -0.003384 0.000000 0.000000 0.000000
# 2 -0.009011 0.017345 -0.006814 0.000000 0.000000 0.000000
# 3 -0.003384 -0.006814 0.013593 0.000000 0.000000 0.000000
# 4 0.000000 0.000000 0.000000 0.044968 0.000000 0.000000
# 5 0.000000 0.000000 0.000000 0.000000 0.071196 0.000000
# 6 0.000000 0.000000 0.000000 0.000000 0.000000 0.042098
#
#
# Mechanical properties :
#
#
# Convention : Reuss Voigt Hill
#
# Bulk Modulus (GPa) = 20.75673 39.92462 30.34068
# Shear Modulus (GPa) = 16.70380 20.64856 18.67618
#
# Velocity S-wave (km/s) = 3.19158 3.54848 3.37475
# Velocity P-wave (km/s) = 5.12242 6.41369 5.80408
#
# Compressibility (1/GPa) = 0.04817714
#
# Stress axis : x y z
#
# Youngs Moduli (GPa) = 17.96727 57.65413 73.56704
#
# Poissons Ratio (x) = 0.51953 0.24894
# Poissons Ratio (y) = 0.16191 0.50126
# Poissons Ratio (z) = 0.06080 0.39284
#
# Static dielectric constant tensor:
#      x y z
#    x 3.096020 0.000000 0.000000 
#    y 0.000000 3.191720 0.000000 
#    z 0.000000 0.000000 3.103680 
# 
# 
# High freq. dielectric constant tensor:
#      x y z
#    x 1.585740 0.000000 0.000000 
#    y 0.000000 1.624870 0.000000 
#    z 0.000000 0.000000 1.637230 
# 
# From -- ./inp_files/9452.got.cif
#   From: 2010.03.12/outbox.cif.g09.slc.cpg/sg65_5_cif.got.tgz:9452.got - 2010.04.10 20:52:16.
