data_PCOD8270754
_publ_section_title
;
Structure prediction by ZEFSAII (Michael W. Deem and Ramdas Pophale) SiO2 
 PCOD8270754
Probable space group: C M M M
;
_chemical_formula_sum "Si O2"
_cell_formula_units_Z 56
_cell_length_a 15.620825
_cell_length_b 26.504211
_cell_length_c 7.465316
_cell_angle_alpha 90.000000
_cell_angle_beta 90.000000
_cell_angle_gamma 90.000000
_cell_volume 3090.772526
_symmetry_space_group_name_H-M "C M M M"
_symmetry_group_IT_number 65
_symmetry_cell_setting 'orthorhombic'
loop_
_space_group_symop_operation_xyz
x,y,z
-x,-y,z
x,-y,-z
-x,y,-z
-x,-y,-z
x,y,-z
-x,y,z
x,-y,z
1/2+x,1/2+y,z
1/2-x,1/2-y,z
1/2+x,1/2-y,-z
1/2-x,1/2+y,-z
1/2-x,1/2-y,-z
1/2+x,1/2+y,-z
1/2-x,1/2+y,z
1/2+x,1/2-y,z
loop_
_atom_site_type_symbol
_atom_site_label
_atom_site_fract_x
_atom_site_fract_y
_atom_site_fract_z
Si Si1 0.300835 0.056212 0.500000
Si Si2 0.000000 0.056756 0.788542
Si Si3 0.280901 0.195287 0.794408
Si Si4 0.180292 0.902790 0.793060
Si Si5 0.099837 0.654192 0.500000
O O1 0.244022 0.063272 0.322504
O O2 0.380247 0.094580 0.500000
O O3 0.338903 0.000000 0.500000
O O4 0.083760 0.087310 0.724113
O O5 0.000000 0.000000 0.707315
O O6 0.000000 0.053226 0.000000
O O7 0.250000 0.250000 0.731369
O O8 0.202486 0.156228 0.764569
O O9 0.361980 0.179641 0.677349
O O10 0.311259 0.195860 0.000000
O O11 0.191457 0.918878 0.000000
O O12 0.000000 0.663601 0.500000
#
# Coordination Sequence:
#
# PCOD8270754 Si02
#       5
#     8   8  16  16   8
#     4  10  20  33  52  73  95 134 178 209 252 307
#     4   9  16  27  45  69 100 133 161 198 249 300
#     4   9  18  35  57  76 100 135 172 211 256 309
#     4   9  18  32  49  72 102 132 167 210 253 303
#     4  10  21  36  53  76 106 133 166 218 262 301
#
# _framework density 18.118448000000001
#
# number of rings (size 3 to 8) (size 9 to 14) (size 15 to 20)
#    0.000    2.714    0.000    1.286    0.000    3.143 
#    2.571    1.429    0.000    0.000    0.000    8.000 
#    0.000    0.000    0.000    0.000    0.000    0.000 
#
# Total GULP energy -347178.020605 kJ/mol
# GULP energy per Si atom -12399.215022 kJ/mol
# Density = 1.807721 g / cm^3
# Si number density = 18.118448 Si / 1000 Ang^3
#
#
#
# Elastic Constant Matrix: (Units=GPa)
#
#
# Indices 1 2 3 4 5 6 
#
# 1 137.6539 66.9080 41.4650 0.0000 0.0000 0.0000
# 2 66.9080 151.4056 42.4500 0.0000 0.0000 0.0000
# 3 41.4650 42.4500 78.6528 0.0000 0.0000 0.0000
# 4 0.0000 0.0000 0.0000 14.4529 0.0000 0.0000
# 5 0.0000 0.0000 0.0000 0.0000 18.5102 0.0000
# 6 0.0000 0.0000 0.0000 0.0000 0.0000 16.0488
#
#
#
# Elastic Compliance Matrix: (Units=1/GPa)
#
#
# Indices 1 2 3 4 5 6 
#
# 1 0.009964 -0.003453 -0.003389 0.000000 0.000000 0.000000
# 2 -0.003453 0.008979 -0.003026 0.000000 0.000000 0.000000
# 3 -0.003389 -0.003026 0.016134 0.000000 0.000000 0.000000
# 4 0.000000 0.000000 0.000000 0.069190 0.000000 0.000000
# 5 0.000000 0.000000 0.000000 0.000000 0.054024 0.000000
# 6 0.000000 0.000000 0.000000 0.000000 0.000000 0.062310
#
#
# Mechanical properties :
#
#
# Convention : Reuss Voigt Hill
#
# Bulk Modulus (GPa) = 65.18505 74.37317 69.77911
# Shear Modulus (GPa) = 20.37069 24.26167 22.31618
#
# Velocity S-wave (km/s) = 3.35671 3.66329 3.51334
# Velocity P-wave (km/s) = 7.14693 7.68312 7.41987
#
# Compressibility (1/GPa) = 0.01534094
#
# Stress axis : x y z
#
# Youngs Moduli (GPa) = 100.36289 111.37117 61.98109
#
# Poissons Ratio (x) = 0.38455 0.21007
# Poissons Ratio (y) = 0.34654 0.18754
# Poissons Ratio (z) = 0.34016 0.33698
#
# Static dielectric constant tensor:
#      x y z
#    x 3.161230 0.000000 0.000000 
#    y 0.000000 3.470900 0.000000 
#    z 0.000000 0.000000 3.444830 
# 
# 
# High freq. dielectric constant tensor:
#      x y z
#    x 1.675460 0.000000 0.000000 
#    y 0.000000 1.706470 0.000000 
#    z 0.000000 0.000000 1.713140 
# 
# From -- ./inp_files/6277.got.cif
#   From: 2010.03.12/outbox.cif.g09.slc.cpg/sg65_4_cif.got.tgz:6277.got - 2010.04.10 20:52:16.
