data_PCOD8270132
_publ_section_title
;
Structure prediction by ZEFSAII (Michael W. Deem and Ramdas Pophale) SiO2 
 PCOD8270132
Probable space group: C M M M
;
_chemical_formula_sum "Si O2"
_cell_formula_units_Z 72
_cell_length_a 19.214216
_cell_length_b 9.122995
_cell_length_c 22.772653
_cell_angle_alpha 90.000000
_cell_angle_beta 90.000000
_cell_angle_gamma 90.000000
_cell_volume 3991.845592
_symmetry_space_group_name_H-M "C M M M"
_symmetry_group_IT_number 65
_symmetry_cell_setting 'orthorhombic'
loop_
_space_group_symop_operation_xyz
x,y,z
-x,-y,z
x,-y,-z
-x,y,-z
-x,-y,-z
x,y,-z
-x,y,z
x,-y,z
1/2+x,1/2+y,z
1/2-x,1/2-y,z
1/2+x,1/2-y,-z
1/2-x,1/2+y,-z
1/2-x,1/2-y,-z
1/2+x,1/2+y,-z
1/2-x,1/2+y,z
1/2+x,1/2-y,z
loop_
_atom_site_type_symbol
_atom_site_label
_atom_site_fract_x
_atom_site_fract_y
_atom_site_fract_z
Si Si1 0.582660 0.164566 0.564636
Si Si2 0.077270 0.326011 0.000000
Si Si3 0.917536 0.832144 0.677540
Si Si4 0.821251 0.672340 0.765926
Si Si5 0.179945 0.671065 0.900547
O O1 0.609520 0.215081 0.500000
O O2 0.500000 0.165821 0.564615
O O3 0.610616 0.274257 0.614589
O O4 0.609372 0.000000 0.578208
O O5 0.117265 0.272152 0.058433
O O6 0.071961 0.500000 0.000000
O O7 0.000000 0.256499 0.000000
O O8 0.884783 0.735735 0.728883
O O9 0.000000 0.813889 0.682400
O O10 0.894300 0.000000 0.684131
O O11 0.813847 0.500000 0.754786
O O12 0.750000 0.750000 0.746276
O O13 0.838755 0.708856 0.833480
O O14 0.192888 0.500000 0.909458
O O15 0.250000 0.750000 0.920885
#
# Coordination Sequence:
#
# PCOD8270132 Si02
#       5
#    16   8  16  16  16
#     4   8  14  26  45  69  97 129 165 204 245 291
#     4   9  17  30  49  75 104 129 158 198 242 287
#     4  10  20  32  48  73 103 133 166 206 251 296
#     4  10  20  34  52  73  98 130 169 209 250 298
#     4   9  18  32  52  74  95 126 164 202 242 288
#
# _framework density 18.036770000000001
#
# number of rings (size 3 to 8) (size 9 to 14) (size 15 to 20)
#    0.000    2.778    0.000    2.333    0.000    3.556 
#    0.000    4.444    0.000    2.000    0.000    0.000 
#    0.000    0.000    0.000    0.000    0.000    0.000 
#
# Total GULP energy -446336.999861 kJ/mol
# GULP energy per Si atom -12398.249996 kJ/mol
# Density = 1.799572 g / cm^3
# Si number density = 18.036770 Si / 1000 Ang^3
#
#
#
# Elastic Constant Matrix: (Units=GPa)
#
#
# Indices 1 2 3 4 5 6 
#
# 1 80.5567 39.5836 60.7882 0.0000 0.0000 0.0000
# 2 39.5836 81.6336 51.7709 0.0000 0.0000 0.0000
# 3 60.7882 51.7709 121.4207 0.0000 0.0000 0.0000
# 4 0.0000 0.0000 0.0000 22.7383 0.0000 0.0000
# 5 0.0000 0.0000 0.0000 0.0000 13.1866 0.0000
# 6 0.0000 0.0000 0.0000 0.0000 0.0000 26.2173
#
#
#
# Elastic Compliance Matrix: (Units=1/GPa)
#
#
# Indices 1 2 3 4 5 6 
#
# 1 0.021282 -0.004883 -0.008573 0.000000 0.000000 0.000000
# 2 -0.004883 0.017910 -0.005192 0.000000 0.000000 0.000000
# 3 -0.008573 -0.005192 0.014741 0.000000 0.000000 0.000000
# 4 0.000000 0.000000 0.000000 0.043979 0.000000 0.000000
# 5 0.000000 0.000000 0.000000 0.000000 0.075835 0.000000
# 6 0.000000 0.000000 0.000000 0.000000 0.000000 0.038143
#
#
# Mechanical properties :
#
#
# Convention : Reuss Voigt Hill
#
# Bulk Modulus (GPa) = 60.10121 65.32183 62.71152
# Shear Modulus (GPa) = 19.62860 21.19299 20.41080
#
# Velocity S-wave (km/s) = 3.30245 3.43153 3.36761
# Velocity P-wave (km/s) = 6.92354 7.21076 7.06861
#
# Compressibility (1/GPa) = 0.01663860
#
# Stress axis : x y z
#
# Youngs Moduli (GPa) = 46.98838 55.83433 67.83623
#
# Poissons Ratio (x) = 0.27263 0.58154
# Poissons Ratio (y) = 0.22943 0.35220
# Poissons Ratio (z) = 0.40282 0.28989
#
# Static dielectric constant tensor:
#      x y z
#    x 3.145880 0.000000 0.000000 
#    y 0.000000 3.325400 0.000000 
#    z 0.000000 0.000000 3.629320 
# 
# 
# High freq. dielectric constant tensor:
#      x y z
#    x 1.667940 0.000000 0.000000 
#    y 0.000000 1.691400 0.000000 
#    z 0.000000 0.000000 1.711980 
# 
# From -- ./inp_files/59203.got.cif
#   From: 2010.03.12/outbox.cif.g09.slc.cpg/sg65_30_cif.got.tgz:59203.got - 2010.04.10 20:52:16.
