data_PCOD8270410
_publ_section_title
;
Structure prediction by ZEFSAII (Michael W. Deem and Ramdas Pophale) SiO2 
 PCOD8270410
Probable space group: C M M M
;
_chemical_formula_sum "Si O2"
_cell_formula_units_Z 72
_cell_length_a 18.220041
_cell_length_b 17.987562
_cell_length_c 12.934607
_cell_angle_alpha 90.000000
_cell_angle_beta 90.000000
_cell_angle_gamma 90.000000
_cell_volume 4239.112006
_symmetry_space_group_name_H-M "C M M M"
_symmetry_group_IT_number 65
_symmetry_cell_setting 'orthorhombic'
loop_
_space_group_symop_operation_xyz
x,y,z
-x,-y,z
x,-y,-z
-x,y,-z
-x,-y,-z
x,y,-z
-x,y,z
x,-y,z
1/2+x,1/2+y,z
1/2-x,1/2-y,z
1/2+x,1/2-y,-z
1/2-x,1/2+y,-z
1/2-x,1/2-y,-z
1/2+x,1/2+y,-z
1/2-x,1/2+y,z
1/2+x,1/2-y,z
loop_
_atom_site_type_symbol
_atom_site_label
_atom_site_fract_x
_atom_site_fract_y
_atom_site_fract_z
Si Si1 0.158294 0.344388 0.692771
Si Si2 0.415617 0.913865 0.882878
Si Si3 0.799923 0.084956 0.619824
Si Si4 0.080025 0.413189 0.500000
Si Si5 0.916331 0.798693 0.380379
O O1 0.135177 0.367067 0.807430
O O2 0.244751 0.361393 0.682670
O O3 0.119752 0.392735 0.605242
O O4 0.136020 0.258553 0.680086
O O5 0.500000 0.899613 0.853390
O O6 0.396199 0.000000 0.870353
O O7 0.400117 0.887747 0.000000
O O8 0.776313 0.086152 0.500000
O O9 0.881456 0.119261 0.633943
O O10 0.799676 0.000000 0.661505
O O11 0.071268 0.500000 0.500000
O O12 0.000000 0.374297 0.500000
O O13 0.915396 0.774470 0.500000
O O14 0.000000 0.799500 0.337924
#
# Coordination Sequence:
#
# PCOD8270410 Si02
#       5
#    16  16  16   8  16
#     4  12  19  30  50  72 101 127 159 204 252 297
#     4   9  18  31  46  67  98 137 175 205 239 290
#     4  10  20  33  49  71 100 134 169 203 243 292
#     4  11  20  26  39  68 102 132 157 185 232 296
#     4  10  20  33  49  71 100 134 169 203 243 292
#
# _framework density 16.984690000000001
#
# number of rings (size 3 to 8) (size 9 to 14) (size 15 to 20)
#    0.000    1.667    2.222    5.333    0.000    4.000 
#    0.000    2.222    0.000    2.667    0.000    0.000 
#    0.000    0.000    0.000    9.333    0.000    0.444 
#
# Total GULP energy -446352.361314 kJ/mol
# GULP energy per Si atom -12398.676703 kJ/mol
# Density = 1.694603 g / cm^3
# Si number density = 16.984690 Si / 1000 Ang^3
#
#
#
# Elastic Constant Matrix: (Units=GPa)
#
#
# Indices 1 2 3 4 5 6 
#
# 1 89.6917 51.6868 21.9202 0.0000 0.0000 0.0000
# 2 51.6868 84.7679 21.6378 0.0000 0.0000 0.0000
# 3 21.9202 21.6378 64.2052 0.0000 0.0000 0.0000
# 4 0.0000 0.0000 0.0000 17.5267 0.0000 0.0000
# 5 0.0000 0.0000 0.0000 0.0000 17.7502 0.0000
# 6 0.0000 0.0000 0.0000 0.0000 0.0000 27.9609
#
#
#
# Elastic Compliance Matrix: (Units=1/GPa)
#
#
# Indices 1 2 3 4 5 6 
#
# 1 0.017581 -0.010053 -0.002615 0.000000 0.000000 0.000000
# 2 -0.010053 0.018655 -0.002855 0.000000 0.000000 0.000000
# 3 -0.002615 -0.002855 0.017430 0.000000 0.000000 0.000000
# 4 0.000000 0.000000 0.000000 0.057056 0.000000 0.000000
# 5 0.000000 0.000000 0.000000 0.000000 0.056337 0.000000
# 6 0.000000 0.000000 0.000000 0.000000 0.000000 0.035764
#
#
# Mechanical properties :
#
#
# Convention : Reuss Voigt Hill
#
# Bulk Modulus (GPa) = 44.20470 47.68381 45.94425
# Shear Modulus (GPa) = 20.71171 22.20889 21.46030
#
# Velocity S-wave (km/s) = 3.49583 3.61997 3.55844
# Velocity P-wave (km/s) = 6.50977 6.75336 6.63268
#
# Compressibility (1/GPa) = 0.02262203
#
# Stress axis : x y z
#
# Youngs Moduli (GPa) = 56.87820 53.60413 57.37290
#
# Poissons Ratio (x) = 0.53887 0.15001
# Poissons Ratio (y) = 0.57178 0.16379
# Poissons Ratio (z) = 0.14871 0.15304
#
# Static dielectric constant tensor:
#      x y z
#    x 3.228220 0.000000 0.000000 
#    y 0.000000 3.105270 0.000000 
#    z 0.000000 0.000000 2.951150 
# 
# 
# High freq. dielectric constant tensor:
#      x y z
#    x 1.655310 0.000000 0.000000 
#    y 0.000000 1.652580 0.000000 
#    z 0.000000 0.000000 1.614810 
# 
# From -- ./inp_files/26337.got.cif
#   From: 2010.03.12/outbox.cif.g09.slc.cpg/sg65_14_cif.got.tgz:26337.got - 2010.04.10 20:52:16.
