data_PCOD8270191
_publ_section_title
;
Structure prediction by ZEFSAII (Michael W. Deem and Ramdas Pophale) SiO2 
 PCOD8270191
Probable space group: C M M M
;
_chemical_formula_sum "Si O2"
_cell_formula_units_Z 104
_cell_length_a 18.025564
_cell_length_b 26.444598
_cell_length_c 12.166661
_cell_angle_alpha 90.000000
_cell_angle_beta 90.000000
_cell_angle_gamma 90.000000
_cell_volume 5799.589289
_symmetry_space_group_name_H-M "C M M M"
_symmetry_group_IT_number 65
_symmetry_cell_setting 'orthorhombic'
loop_
_space_group_symop_operation_xyz
x,y,z
-x,-y,z
x,-y,-z
-x,y,-z
-x,-y,-z
x,y,-z
-x,y,z
x,-y,z
1/2+x,1/2+y,z
1/2-x,1/2-y,z
1/2+x,1/2-y,-z
1/2-x,1/2+y,-z
1/2-x,1/2-y,-z
1/2+x,1/2+y,-z
1/2-x,1/2+y,z
1/2+x,1/2-y,z
loop_
_atom_site_type_symbol
_atom_site_label
_atom_site_fract_x
_atom_site_fract_y
_atom_site_fract_z
Si Si1 0.772561 0.307714 0.500000
Si Si2 0.687118 0.056291 0.700784
Si Si3 0.348334 0.802873 0.128024
Si Si4 0.918303 0.737854 0.500000
Si Si5 0.584811 0.287984 0.266204
Si Si6 0.585559 0.060192 0.500000
Si Si7 0.776854 0.151364 0.271615
Si Si8 0.082631 0.410157 0.125473
O O1 0.750000 0.250000 0.500000
O O2 0.862546 0.309730 0.500000
O O3 0.740390 0.333953 0.394835
O O4 0.634005 0.078808 0.604711
O O5 0.757371 0.091772 0.731342
O O6 0.636712 0.053286 0.808597
O O7 0.716649 0.000000 0.672067
O O8 0.389216 0.756508 0.185924
O O9 0.269873 0.814785 0.185829
O O10 0.400778 0.851089 0.143581
O O11 0.334168 0.790330 0.000000
O O12 0.905755 0.772133 0.607207
O O13 0.000000 0.713766 0.500000
O O14 0.500000 0.302669 0.239057
O O15 0.636608 0.337415 0.246135
O O16 0.500000 0.081458 0.500000
O O17 0.581085 0.000000 0.500000
O O18 0.000000 0.420422 0.167780
O O19 0.092232 0.425586 0.000000
#
# Coordination Sequence:
#
# PCOD8270191 Si02
#       8
#     8  16  16   8  16   8  16  16
#     4  12  17  33  54  77 103 132 166 200 243 300
#     4  10  21  35  50  70  98 133 172 213 255 294
#     4  10  20  34  52  76 107 139 166 197 246 310
#     4  10  20  32  49  76 106 131 164 203 240 285
#     4  11  21  34  52  75 104 134 167 208 253 301
#     4   9  17  31  50  73 100 126 156 197 248 305
#     4  11  21  34  53  76 100 135 173 212 251 297
#     4   9  18  32  50  73 100 130 166 204 243 293
#
# _framework density 17.932304999999999
#
# number of rings (size 3 to 8) (size 9 to 14) (size 15 to 20)
#    0.000    1.769    3.077    1.846    0.000    3.385 
#    0.000    2.308    0.000    0.462    0.000    0.000 
#    0.000    4.923    0.000    9.077    0.000    0.000 
#
# Total GULP energy -644601.844605 kJ/mol
# GULP energy per Si atom -12396.189319 kJ/mol
# Density = 1.789149 g / cm^3
# Si number density = 17.932305 Si / 1000 Ang^3
#
#
#
# Elastic Constant Matrix: (Units=GPa)
#
#
# Indices 1 2 3 4 5 6 
#
# 1 126.6827 47.4247 33.3184 0.0000 0.0000 0.0000
# 2 47.4247 69.2104 25.8910 0.0000 0.0000 0.0000
# 3 33.3184 25.8910 98.1323 0.0000 0.0000 0.0000
# 4 0.0000 0.0000 0.0000 41.3673 0.0000 0.0000
# 5 0.0000 0.0000 0.0000 0.0000 61.5727 0.0000
# 6 0.0000 0.0000 0.0000 0.0000 0.0000 11.2362
#
#
#
# Elastic Compliance Matrix: (Units=1/GPa)
#
#
# Indices 1 2 3 4 5 6 
#
# 1 0.010936 -0.006773 -0.001926 0.000000 0.000000 0.000000
# 2 -0.006773 0.020226 -0.003037 0.000000 0.000000 0.000000
# 3 -0.001926 -0.003037 0.011645 0.000000 0.000000 0.000000
# 4 0.000000 0.000000 0.000000 0.024174 0.000000 0.000000
# 5 0.000000 0.000000 0.000000 0.000000 0.016241 0.000000
# 6 0.000000 0.000000 0.000000 0.000000 0.000000 0.088998
#
#
# Mechanical properties :
#
#
# Convention : Reuss Voigt Hill
#
# Bulk Modulus (GPa) = 51.71816 56.36595 54.04206
# Shear Modulus (GPa) = 24.73579 35.32799 30.03189
#
# Velocity S-wave (km/s) = 3.71805 4.44337 4.09679
# Velocity P-wave (km/s) = 6.88006 7.60431 7.25124
#
# Compressibility (1/GPa) = 0.01933557
#
# Stress axis : x y z
#
# Youngs Moduli (GPa) = 91.44259 49.44204 85.87043
#
# Poissons Ratio (x) = 0.33487 0.16539
# Poissons Ratio (y) = 0.61934 0.26076
# Poissons Ratio (z) = 0.17612 0.15014
#
# Static dielectric constant tensor:
#      x y z
#    x 3.573840 0.000000 0.000000 
#    y 0.000000 3.450850 0.000000 
#    z 0.000000 0.000000 3.520060 
# 
# 
# High freq. dielectric constant tensor:
#      x y z
#    x 1.681000 0.000000 0.000000 
#    y 0.000000 1.666560 0.000000 
#    z 0.000000 0.000000 1.708520 
# 
# From -- ./inp_files/27779.got.cif
#   From: 2010.03.12/outbox.cif.g09.slc.cpg/sg65_14_cif.got.tgz:27779.got - 2010.04.10 20:52:16.
