data_PCOD8270275
_publ_section_title
;
Structure prediction by ZEFSAII (Michael W. Deem and Ramdas Pophale) SiO2 
 PCOD8270275
Probable space group: C M M M
;
_chemical_formula_sum "Si O2"
_cell_formula_units_Z 104
_cell_length_a 21.012557
_cell_length_b 15.062272
_cell_length_c 18.304126
_cell_angle_alpha 90.000000
_cell_angle_beta 90.000000
_cell_angle_gamma 90.000000
_cell_volume 5793.198202
_symmetry_space_group_name_H-M "C M M M"
_symmetry_group_IT_number 65
_symmetry_cell_setting 'orthorhombic'
loop_
_space_group_symop_operation_xyz
x,y,z
-x,-y,z
x,-y,-z
-x,y,-z
-x,-y,-z
x,y,-z
-x,y,z
x,-y,z
1/2+x,1/2+y,z
1/2-x,1/2-y,z
1/2+x,1/2-y,-z
1/2-x,1/2+y,-z
1/2-x,1/2-y,-z
1/2+x,1/2+y,-z
1/2-x,1/2+y,z
1/2+x,1/2-y,z
loop_
_atom_site_type_symbol
_atom_site_label
_atom_site_fract_x
_atom_site_fract_y
_atom_site_fract_z
Si Si1 0.814508 0.195170 0.418702
Si Si2 0.242071 0.105484 0.870812
Si Si3 0.175058 0.099545 0.726700
Si Si4 0.924825 0.500000 0.419366
Si Si5 0.926956 0.315000 0.361192
Si Si6 0.652697 0.760675 0.083056
Si Si7 0.070971 0.227821 0.214406
O O1 0.822030 0.152955 0.500000
O O2 0.750000 0.250000 0.416251
O O3 0.805129 0.122291 0.355781
O O4 0.878846 0.249819 0.402792
O O5 0.233846 0.115346 0.782872
O O6 0.307268 0.152224 0.893963
O O7 0.187924 0.165202 0.910040
O O8 0.239293 0.000000 0.893866
O O9 0.114040 0.149889 0.755629
O O10 0.152120 0.000000 0.728066
O O11 0.894159 0.500000 0.500000
O O12 0.901513 0.413442 0.376848
O O13 0.000000 0.500000 0.425129
O O14 0.924506 0.306570 0.273667
O O15 0.000000 0.298809 0.389310
O O16 0.591651 0.762658 0.135197
O O17 0.630252 0.772170 0.000000
O O18 0.000000 0.190361 0.207603
#
# Coordination Sequence:
#
# PCOD8270275 Si02
#       7
#    16  16  16   8  16  16  16
#     4  10  21  34  49  74 110 144 173 215 269 320
#     4   9  18  33  54  78 103 134 173 217 262 310
#     4   9  19  34  55  77  99 136 178 216 258 310
#     4   9  16  28  50  78 101 121 164 224 261 295
#     4   9  18  34  55  74  98 138 180 215 257 311
#     4  10  20  32  52  80 105 133 171 215 263 318
#     4   9  19  35  53  73 102 137 172 214 257 308
#
# _framework density 17.952086999999999
#
# number of rings (size 3 to 8) (size 9 to 14) (size 15 to 20)
#    0.000    2.692    0.000    1.385    6.462    3.077 
#    2.769    0.000    0.000    0.000    0.000    9.692 
#    0.000    0.000    0.000    0.000    0.000    0.000 
#
# Total GULP energy -644297.542201 kJ/mol
# GULP energy per Si atom -12390.337350 kJ/mol
# Density = 1.791123 g / cm^3
# Si number density = 17.952087 Si / 1000 Ang^3
#
#
#
# Elastic Constant Matrix: (Units=GPa)
#
#
# Indices 1 2 3 4 5 6 
#
# 1 62.4926 13.1230 41.5415 0.0000 0.0000 0.0000
# 2 13.1230 99.0267 47.3018 0.0000 0.0000 0.0000
# 3 41.5415 47.3018 166.2231 0.0000 0.0000 0.0000
# 4 0.0000 0.0000 0.0000 20.4051 0.0000 0.0000
# 5 0.0000 0.0000 0.0000 0.0000 12.9968 0.0000
# 6 0.0000 0.0000 0.0000 0.0000 0.0000 7.7502
#
#
#
# Elastic Compliance Matrix: (Units=1/GPa)
#
#
# Indices 1 2 3 4 5 6 
#
# 1 0.019197 -0.000292 -0.004715 0.000000 0.000000 0.000000
# 2 -0.000292 0.011691 -0.003254 0.000000 0.000000 0.000000
# 3 -0.004715 -0.003254 0.008120 0.000000 0.000000 0.000000
# 4 0.000000 0.000000 0.000000 0.049007 0.000000 0.000000
# 5 0.000000 0.000000 0.000000 0.000000 0.076942 0.000000
# 6 0.000000 0.000000 0.000000 0.000000 0.000000 0.129029
#
#
# Mechanical properties :
#
#
# Convention : Reuss Voigt Hill
#
# Bulk Modulus (GPa) = 44.46900 59.07500 51.77200
# Shear Modulus (GPa) = 15.72307 23.28216 19.50261
#
# Velocity S-wave (km/s) = 2.96266 3.60516 3.29959
# Velocity P-wave (km/s) = 6.04383 7.09282 6.58923
#
# Compressibility (1/GPa) = 0.02248758
#
# Stress axis : x y z
#
# Youngs Moduli (GPa) = 52.09105 85.53357 123.14934
#
# Poissons Ratio (x) = 0.02498 0.58059
# Poissons Ratio (y) = 0.01521 0.40073
# Poissons Ratio (z) = 0.24559 0.27833
#
# Static dielectric constant tensor:
#      x y z
#    x 3.230940 0.000000 0.000000 
#    y 0.000000 3.331740 0.000000 
#    z 0.000000 0.000000 3.670350 
# 
# 
# High freq. dielectric constant tensor:
#      x y z
#    x 1.679210 0.000000 0.000000 
#    y 0.000000 1.681920 0.000000 
#    z 0.000000 0.000000 1.707380 
# 
# From -- ./inp_files/55881.got.cif
#   From: 2010.03.12/outbox.cif.g09.slc.cpg/sg65_28_cif.got.tgz:55881.got - 2010.04.10 20:52:16.
