data_PCOD8270447
_publ_section_title
;
Structure prediction by ZEFSAII (Michael W. Deem and Ramdas Pophale) SiO2 
 PCOD8270447
Probable space group: C M M M
;
_chemical_formula_sum "Si O2"
_cell_formula_units_Z 88
_cell_length_a 15.563794
_cell_length_b 35.515704
_cell_length_c 8.924535
_cell_angle_alpha 90.000000
_cell_angle_beta 90.000000
_cell_angle_gamma 90.000000
_cell_volume 4933.117942
_symmetry_space_group_name_H-M "C M M M"
_symmetry_group_IT_number 65
_symmetry_cell_setting 'orthorhombic'
loop_
_space_group_symop_operation_xyz
x,y,z
-x,-y,z
x,-y,-z
-x,y,-z
-x,-y,-z
x,y,-z
-x,y,z
x,-y,z
1/2+x,1/2+y,z
1/2-x,1/2-y,z
1/2+x,1/2-y,-z
1/2-x,1/2+y,-z
1/2-x,1/2-y,-z
1/2+x,1/2+y,-z
1/2-x,1/2+y,z
1/2+x,1/2-y,z
loop_
_atom_site_type_symbol
_atom_site_label
_atom_site_fract_x
_atom_site_fract_y
_atom_site_fract_z
Si Si1 0.902907 0.272645 0.163704
Si Si2 0.736620 0.362745 0.177461
Si Si3 0.401508 0.152031 0.323016
Si Si4 0.186206 0.215008 0.674219
Si Si5 0.401883 0.575689 0.176456
Si Si6 0.898150 0.000000 0.667438
O O1 0.870793 0.306251 0.272605
O O2 0.898654 0.232174 0.247619
O O3 0.000000 0.281701 0.130238
O O4 0.855303 0.273090 0.000000
O O5 0.830375 0.375204 0.244998
O O6 0.710901 0.322459 0.240940
O O7 0.662372 0.391497 0.229320
O O8 0.744650 0.361243 0.000000
O O9 0.391479 0.149653 0.500000
O O10 0.500000 0.141907 0.275537
O O11 0.173085 0.206390 0.500000
O O12 0.250000 0.250000 0.706727
O O13 0.500000 0.585051 0.228450
O O14 0.366040 0.537339 0.248663
O O15 0.399273 0.570183 0.000000
O O16 0.860264 0.000000 0.500000
O O17 0.000000 0.000000 0.666504
#
# Coordination Sequence:
#
# PCOD8270447 Si02
#       6
#    16  16  16  16  16   8
#     4  10  20  33  50  69  88 118 166 219 264 312
#     4  11  22  34  53  78 104 136 177 223 266 311
#     4  10  20  34  51  71  97 130 170 217 267 316
#     4  11  22  34  48  67  95 133 172 213 267 321
#     4   9  19  36  56  80 112 146 176 209 255 312
#     4   9  17  31  55  85 112 141 176 211 249 302
#
# _framework density 17.838615999999998
#
# number of rings (size 3 to 8) (size 9 to 14) (size 15 to 20)
#    0.000    1.909    1.818    2.455    0.000    6.182 
#    0.000    1.818    0.000    0.000    0.000    0.636 
#    0.000    5.091    0.000    0.000    0.000    0.000 
#
# Total GULP energy -545190.636970 kJ/mol
# GULP energy per Si atom -12390.696295 kJ/mol
# Density = 1.779801 g / cm^3
# Si number density = 17.838616 Si / 1000 Ang^3
#
#
#
# Elastic Constant Matrix: (Units=GPa)
#
#
# Indices 1 2 3 4 5 6 
#
# 1 98.8711 65.6555 45.1554 0.0000 0.0000 0.0000
# 2 65.6555 91.0741 40.4902 0.0000 0.0000 0.0000
# 3 45.1554 40.4902 81.9790 0.0000 0.0000 0.0000
# 4 0.0000 0.0000 0.0000 0.9765 0.0000 0.0000
# 5 0.0000 0.0000 0.0000 0.0000 25.9131 0.0000
# 6 0.0000 0.0000 0.0000 0.0000 0.0000 19.3153
#
#
#
# Elastic Compliance Matrix: (Units=1/GPa)
#
#
# Indices 1 2 3 4 5 6 
#
# 1 0.021028 -0.012826 -0.005248 0.000000 0.000000 0.000000
# 2 -0.012826 0.021893 -0.003748 0.000000 0.000000 0.000000
# 3 -0.005248 -0.003748 0.016940 0.000000 0.000000 0.000000
# 4 0.000000 0.000000 0.000000 1.024044 0.000000 0.000000
# 5 0.000000 0.000000 0.000000 0.000000 0.038591 0.000000
# 6 0.000000 0.000000 0.000000 0.000000 0.000000 0.051773
#
#
# Mechanical properties :
#
#
# Convention : Reuss Voigt Hill
#
# Bulk Modulus (GPa) = 61.66412 63.83628 62.75020
# Shear Modulus (GPa) = 4.08725 17.28252 10.68488
#
# Velocity S-wave (km/s) = 1.51532 3.11597 2.45005
# Velocity P-wave (km/s) = 6.14039 6.98633 6.57698
#
# Compressibility (1/GPa) = 0.01621689
#
# Stress axis : x y z
#
# Youngs Moduli (GPa) = 47.55558 45.67705 59.03181
#
# Poissons Ratio (x) = 0.58586 0.30978
# Poissons Ratio (y) = 0.60995 0.22126
# Poissons Ratio (z) = 0.24956 0.17121
#
# Static dielectric constant tensor:
#      x y z
#    x 3.599100 0.000000 0.000000 
#    y 0.000000 3.190570 0.000000 
#    z 0.000000 0.000000 3.523000 
# 
# 
# High freq. dielectric constant tensor:
#      x y z
#    x 1.687520 0.000000 0.000000 
#    y 0.000000 1.651500 0.000000 
#    z 0.000000 0.000000 1.706420 
# 
# From -- ./inp_files/10119.got.cif
#   From: 2010.03.12/outbox.cif.g09.slc.cpg/sg65_6_cif.got.tgz:10119.got - 2010.04.10 20:52:16.
