data_PCOD8270085
_publ_section_title
;
Structure prediction by ZEFSAII (Michael W. Deem and Ramdas Pophale) SiO2 
 PCOD8270085
Probable space group: C M M M
;
_chemical_formula_sum "Si O2"
_cell_formula_units_Z 96
_cell_length_a 25.023931
_cell_length_b 16.751493
_cell_length_c 11.931330
_cell_angle_alpha 90.000000
_cell_angle_beta 90.000000
_cell_angle_gamma 90.000000
_cell_volume 5001.472806
_symmetry_space_group_name_H-M "C M M M"
_symmetry_group_IT_number 65
_symmetry_cell_setting 'orthorhombic'
loop_
_space_group_symop_operation_xyz
x,y,z
-x,-y,z
x,-y,-z
-x,y,-z
-x,-y,-z
x,y,-z
-x,y,z
x,-y,z
1/2+x,1/2+y,z
1/2-x,1/2-y,z
1/2+x,1/2-y,-z
1/2-x,1/2+y,-z
1/2-x,1/2-y,-z
1/2+x,1/2+y,-z
1/2-x,1/2+y,z
1/2+x,1/2-y,z
loop_
_atom_site_type_symbol
_atom_site_label
_atom_site_fract_x
_atom_site_fract_y
_atom_site_fract_z
Si Si1 0.667037 0.908785 0.797220
Si Si2 0.684267 0.588974 0.000000
Si Si3 0.751681 0.842907 0.630208
Si Si4 0.849371 0.905223 0.236088
Si Si5 0.560005 0.141047 0.871177
Si Si6 0.439307 0.329238 0.126309
Si Si7 0.785236 0.330585 0.000000
O O1 0.701713 0.887540 0.687682
O O2 0.602492 0.900650 0.785792
O O3 0.681143 0.000000 0.830209
O O4 0.679277 0.840344 0.889472
O O5 0.668739 0.631750 0.884095
O O6 0.661390 0.500000 0.000000
O O7 0.748243 0.590890 0.000000
O O8 0.746283 0.861847 0.500000
O O9 0.750000 0.750000 0.657486
O O10 0.810051 0.873219 0.668764
O O11 0.909771 0.871378 0.233516
O O12 0.848398 0.000000 0.242252
O O13 0.500000 0.114027 0.836762
O O14 0.564962 0.235399 0.859583
O O15 0.571246 0.114768 0.000000
O O16 0.500000 0.358171 0.134794
O O17 0.417692 0.354332 0.000000
O O18 0.750000 0.250000 0.000000
#
# Coordination Sequence:
#
# PCOD8270085 Si02
#       7
#    16   8  16  16  16  16   8
#     4  12  23  36  57  84 117 150 186 234 288 345
#     4  10  20  32  47  78 116 146 177 217 274 337
#     4  11  25  43  61  81 106 145 194 240 287 342
#     4  11  21  33  54  82 117 151 183 229 284 341
#     4   9  19  34  54  81 116 156 192 229 272 330
#     4   9  18  32  52  80 116 155 194 230 271 330
#     4  12  24  32  51  82 114 153 187 227 274 339
#
# _framework density 19.194345999999999
#
# number of rings (size 3 to 8) (size 9 to 14) (size 15 to 20)
#    0.000    1.500    3.333    3.750    2.333    2.000 
#    0.000    1.667    0.000    1.000    0.000    7.000 
#    0.000    0.000    0.000    0.000    0.000    0.000 
#
# Total GULP energy -594627.577015 kJ/mol
# GULP energy per Si atom -12388.074521 kJ/mol
# Density = 1.915066 g / cm^3
# Si number density = 19.194346 Si / 1000 Ang^3
#
#
#
# Elastic Constant Matrix: (Units=GPa)
#
#
# Indices 1 2 3 4 5 6 
#
# 1 128.0241 49.6883 50.2358 0.0000 0.0000 0.0000
# 2 49.6883 86.2741 39.8053 0.0000 0.0000 0.0000
# 3 50.2358 39.8053 69.1105 0.0000 0.0000 0.0000
# 4 0.0000 0.0000 0.0000 19.6985 0.0000 0.0000
# 5 0.0000 0.0000 0.0000 0.0000 18.1253 0.0000
# 6 0.0000 0.0000 0.0000 0.0000 0.0000 26.5266
#
#
#
# Elastic Compliance Matrix: (Units=1/GPa)
#
#
# Indices 1 2 3 4 5 6 
#
# 1 0.011805 -0.003868 -0.006353 0.000000 0.000000 0.000000
# 2 -0.003868 0.017053 -0.007011 0.000000 0.000000 0.000000
# 3 -0.006353 -0.007011 0.023126 0.000000 0.000000 0.000000
# 4 0.000000 0.000000 0.000000 0.050765 0.000000 0.000000
# 5 0.000000 0.000000 0.000000 0.000000 0.055171 0.000000
# 6 0.000000 0.000000 0.000000 0.000000 0.000000 0.037698
#
#
# Mechanical properties :
#
#
# Convention : Reuss Voigt Hill
#
# Bulk Modulus (GPa) = 57.07593 62.54083 59.80838
# Shear Modulus (GPa) = 21.19344 22.44872 21.82108
#
# Velocity S-wave (km/s) = 3.32648 3.42358 3.37538
# Velocity P-wave (km/s) = 6.67490 6.94849 6.81307
#
# Compressibility (1/GPa) = 0.01752052
#
# Stress axis : x y z
#
# Youngs Moduli (GPa) = 84.70858 58.64059 43.24196
#
# Poissons Ratio (x) = 0.22680 0.27474
# Poissons Ratio (y) = 0.32762 0.30315
# Poissons Ratio (z) = 0.53819 0.41111
#
# Static dielectric constant tensor:
#      x y z
#    x 3.972710 0.000000 0.000000 
#    y 0.000000 3.377650 0.000000 
#    z 0.000000 0.000000 3.218230 
# 
# 
# High freq. dielectric constant tensor:
#      x y z
#    x 1.765590 0.000000 0.000000 
#    y 0.000000 1.750940 0.000000 
#    z 0.000000 0.000000 1.691940 
# 
# From -- ./inp_files/30823.got.cif
#   From: 2010.03.12/outbox.cif.g09.slc.cpg/sg65_16_cif.got.tgz:30823.got - 2010.04.10 20:52:16.
