data_PCOD8270334
_publ_section_title
;
Structure prediction by ZEFSAII (Michael W. Deem and Ramdas Pophale) SiO2 
 PCOD8270334
Probable space group: C M M M
;
_chemical_formula_sum "Si O2"
_cell_formula_units_Z 104
_cell_length_a 8.860461
_cell_length_b 27.991069
_cell_length_c 23.950054
_cell_angle_alpha 90.000000
_cell_angle_beta 90.000000
_cell_angle_gamma 90.000000
_cell_volume 5939.943309
_symmetry_space_group_name_H-M "C M M M"
_symmetry_group_IT_number 65
_symmetry_cell_setting 'orthorhombic'
loop_
_space_group_symop_operation_xyz
x,y,z
-x,-y,z
x,-y,-z
-x,y,-z
-x,-y,-z
x,y,-z
-x,y,z
x,-y,z
1/2+x,1/2+y,z
1/2-x,1/2-y,z
1/2+x,1/2-y,-z
1/2-x,1/2+y,-z
1/2-x,1/2-y,-z
1/2+x,1/2+y,-z
1/2-x,1/2+y,z
1/2+x,1/2-y,z
loop_
_atom_site_type_symbol
_atom_site_label
_atom_site_fract_x
_atom_site_fract_y
_atom_site_fract_z
Si Si1 0.174931 0.137624 0.836491
Si Si2 0.666580 0.500000 0.434524
Si Si3 0.321688 0.096143 0.563392
Si Si4 0.323309 0.200123 0.747956
Si Si5 0.675615 0.298837 0.937561
Si Si6 0.678728 0.370614 0.330364
Si Si7 0.676065 0.553412 0.761376
O O1 0.293335 0.167580 0.801244
O O2 0.207935 0.153481 0.900388
O O3 0.206361 0.081802 0.820331
O O4 0.000000 0.149495 0.820408
O O5 0.500000 0.500000 0.405795
O O6 0.644824 0.500000 0.500000
O O7 0.761766 0.454800 0.415637
O O8 0.269138 0.108110 0.500000
O O9 0.500000 0.096976 0.567434
O O10 0.247902 0.131721 0.607473
O O11 0.500000 0.204409 0.735960
O O12 0.250000 0.250000 0.762330
O O13 0.237907 0.178685 0.694708
O O14 0.500000 0.287924 0.938478
O O15 0.750000 0.250000 0.913681
O O16 0.736747 0.309841 0.000000
O O17 0.500000 0.370519 0.334456
O O18 0.736400 0.415029 0.291336
O O19 0.500000 0.546630 0.752851
O O20 0.751197 0.500000 0.763014
#
# Coordination Sequence:
#
# PCOD8270334 Si02
#       7
#    16   8  16  16  16  16  16
#     4   9  17  30  48  70  96 128 165 201 242 291
#     4   9  17  29  45  65  89 123 165 201 236 283
#     4  10  20  33  48  69  99 131 162 201 249 297
#     4  11  21  34  52  73  99 126 158 199 246 294
#     4   9  17  28  43  66  96 128 161 200 247 296
#     4  10  20  33  51  74  98 126 164 201 242 294
#     4   8  15  28  46  68  93 123 160 201 240 281
#
# _framework density 17.508583999999999
#
# number of rings (size 3 to 8) (size 9 to 14) (size 15 to 20)
#    0.000    2.538    0.000    3.923    1.077    3.692 
#    0.000    0.000    0.000    5.077    0.000    3.231 
#    0.000    0.000    0.000    9.385    0.000   10.154 
#
# Total GULP energy -644263.426200 kJ/mol
# GULP energy per Si atom -12389.681273 kJ/mol
# Density = 1.746873 g / cm^3
# Si number density = 17.508584 Si / 1000 Ang^3
#
#
#
# Elastic Constant Matrix: (Units=GPa)
#
#
# Indices 1 2 3 4 5 6 
#
# 1 57.6393 18.5411 26.6741 0.0000 0.0000 0.0000
# 2 18.5411 68.8868 24.5869 0.0000 0.0000 0.0000
# 3 26.6741 24.5869 89.9924 0.0000 0.0000 0.0000
# 4 0.0000 0.0000 0.0000 18.7938 0.0000 0.0000
# 5 0.0000 0.0000 0.0000 0.0000 22.7530 0.0000
# 6 0.0000 0.0000 0.0000 0.0000 0.0000 20.3963
#
#
#
# Elastic Compliance Matrix: (Units=1/GPa)
#
#
# Indices 1 2 3 4 5 6 
#
# 1 0.020966 -0.003795 -0.005178 0.000000 0.000000 0.000000
# 2 -0.003795 0.016772 -0.003457 0.000000 0.000000 0.000000
# 3 -0.005178 -0.003457 0.013591 0.000000 0.000000 0.000000
# 4 0.000000 0.000000 0.000000 0.053209 0.000000 0.000000
# 5 0.000000 0.000000 0.000000 0.000000 0.043950 0.000000
# 6 0.000000 0.000000 0.000000 0.000000 0.000000 0.049028
#
#
# Mechanical properties :
#
#
# Convention : Reuss Voigt Hill
#
# Bulk Modulus (GPa) = 37.77969 39.56917 38.67443
# Shear Modulus (GPa) = 21.62625 22.16972 21.89799
#
# Velocity S-wave (km/s) = 3.51833 3.56226 3.54036
# Velocity P-wave (km/s) = 6.17491 6.29035 6.23290
#
# Compressibility (1/GPa) = 0.02646925
#
# Stress axis : x y z
#
# Youngs Moduli (GPa) = 47.69599 59.62302 73.57645
#
# Poissons Ratio (x) = 0.22628 0.38095
# Poissons Ratio (y) = 0.18101 0.25438
# Poissons Ratio (z) = 0.24695 0.20614
#
# Static dielectric constant tensor:
#      x y z
#    x 3.141230 0.000000 0.000000 
#    y 0.000000 3.365910 0.000000 
#    z 0.000000 0.000000 3.416690 
# 
# 
# High freq. dielectric constant tensor:
#      x y z
#    x 1.667770 0.000000 0.000000 
#    y 0.000000 1.656520 0.000000 
#    z 0.000000 0.000000 1.669320 
# 
# From -- ./inp_files/68274.got.cif
#   From: 2010.03.12/outbox.cif.g09.slc.cpg/sg65_35_cif.got.tgz:68274.got - 2010.04.10 20:52:16.
