data_PCOD8270260
_publ_section_title
;
Structure prediction by ZEFSAII (Michael W. Deem and Ramdas Pophale) SiO2 
 PCOD8270260
Probable space group: C M M M
;
_chemical_formula_sum "Si O2"
_cell_formula_units_Z 64
_cell_length_a 7.634763
_cell_length_b 26.659984
_cell_length_c 18.209975
_cell_angle_alpha 90.000000
_cell_angle_beta 90.000000
_cell_angle_gamma 90.000000
_cell_volume 3706.506740
_symmetry_space_group_name_H-M "C M M M"
_symmetry_group_IT_number 65
_symmetry_cell_setting 'orthorhombic'
loop_
_space_group_symop_operation_xyz
x,y,z
-x,-y,z
x,-y,-z
-x,y,-z
-x,-y,-z
x,y,-z
-x,y,z
x,-y,z
1/2+x,1/2+y,z
1/2-x,1/2-y,z
1/2+x,1/2-y,-z
1/2-x,1/2+y,-z
1/2-x,1/2-y,-z
1/2+x,1/2+y,-z
1/2-x,1/2+y,z
1/2+x,1/2-y,z
loop_
_atom_site_type_symbol
_atom_site_label
_atom_site_fract_x
_atom_site_fract_y
_atom_site_fract_z
Si Si1 0.695149 0.099432 0.728749
Si Si2 0.000000 0.056071 0.180858
Si Si3 0.293109 0.556962 0.581622
Si Si4 0.500000 0.347892 0.086634
Si Si5 0.201215 0.694873 0.818016
O O1 0.500000 0.085147 0.755153
O O2 0.829271 0.062277 0.768411
O O3 0.707532 0.094160 0.640826
O O4 0.737386 0.156969 0.750518
O O5 0.000000 0.094592 0.113495
O O6 0.000000 0.000000 0.148289
O O7 0.230602 0.573012 0.500000
O O8 0.500000 0.560804 0.587296
O O9 0.232352 0.500000 0.597705
O O10 0.325485 0.319657 0.113949
O O11 0.500000 0.347319 0.000000
O O12 0.250000 0.750000 0.789041
O O13 0.000000 0.692462 0.844868
#
# Coordination Sequence:
#
# PCOD8270260 Si02
#       5
#    16   8  16   8  16
#     4  10  20  32  51  76 102 134 173 214 252 299
#     4  10  20  35  53  74 104 137 173 211 244 295
#     4   9  17  29  46  71 103 136 170 209 253 296
#     4  10  22  37  54  79 107 134 165 204 256 309
#     4  10  20  36  55  78 103 130 168 210 257 305
#
# _framework density 17.266932000000001
#
# number of rings (size 3 to 8) (size 9 to 14) (size 15 to 20)
#    0.000    2.250    2.500    1.500    0.000    3.750 
#    0.000    1.250    0.000    0.750    0.000    7.000 
#    0.000    0.000    0.000    0.000    0.000    0.000 
#
# Total GULP energy -396758.389636 kJ/mol
# GULP energy per Si atom -12398.699676 kJ/mol
# Density = 1.722763 g / cm^3
# Si number density = 17.266932 Si / 1000 Ang^3
#
#
#
# Elastic Constant Matrix: (Units=GPa)
#
#
# Indices 1 2 3 4 5 6 
#
# 1 109.9228 42.8264 41.9622 0.0000 0.0000 0.0000
# 2 42.8264 118.4838 58.5339 0.0000 0.0000 0.0000
# 3 41.9622 58.5339 127.4489 0.0000 0.0000 0.0000
# 4 0.0000 0.0000 0.0000 17.4755 0.0000 0.0000
# 5 0.0000 0.0000 0.0000 0.0000 16.7010 0.0000
# 6 0.0000 0.0000 0.0000 0.0000 0.0000 14.5650
#
#
#
# Elastic Compliance Matrix: (Units=1/GPa)
#
#
# Indices 1 2 3 4 5 6 
#
# 1 0.011105 -0.002856 -0.002345 0.000000 0.000000 0.000000
# 2 -0.002856 0.011651 -0.004411 0.000000 0.000000 0.000000
# 3 -0.002345 -0.004411 0.010644 0.000000 0.000000 0.000000
# 4 0.000000 0.000000 0.000000 0.057223 0.000000 0.000000
# 5 0.000000 0.000000 0.000000 0.000000 0.059877 0.000000
# 6 0.000000 0.000000 0.000000 0.000000 0.000000 0.068658
#
#
# Mechanical properties :
#
#
# Convention : Reuss Voigt Hill
#
# Bulk Modulus (GPa) = 70.53297 71.38895 70.96096
# Shear Modulus (GPa) = 20.56714 23.91716 22.24215
#
# Velocity S-wave (km/s) = 3.45502 3.72579 3.59295
# Velocity P-wave (km/s) = 7.54012 7.74227 7.64186
#
# Compressibility (1/GPa) = 0.01417777
#
# Stress axis : x y z
#
# Youngs Moduli (GPa) = 90.05007 85.82798 93.94860
#
# Poissons Ratio (x) = 0.24508 0.22029
# Poissons Ratio (y) = 0.25714 0.41440
# Poissons Ratio (z) = 0.21115 0.37858
#
# Static dielectric constant tensor:
#      x y z
#    x 3.457850 0.000000 0.000000 
#    y 0.000000 3.217310 0.000000 
#    z 0.000000 0.000000 3.120290 
# 
# 
# High freq. dielectric constant tensor:
#      x y z
#    x 1.684830 0.000000 0.000000 
#    y 0.000000 1.654550 0.000000 
#    z 0.000000 0.000000 1.646100 
# 
# From -- ./inp_files/49427.got.cif
#   From: 2010.03.12/outbox.cif.g09.slc.cpg/sg65_25_cif.got.tgz:49427.got - 2010.04.10 20:52:16.
