data_PCOD8270044
_publ_section_title
;
Structure prediction by ZEFSAII (Michael W. Deem and Ramdas Pophale) SiO2 
 PCOD8270044
Probable space group: C M M M
;
_chemical_formula_sum "Si O2"
_cell_formula_units_Z 80
_cell_length_a 27.784633
_cell_length_b 14.064101
_cell_length_c 11.777645
_cell_angle_alpha 90.000000
_cell_angle_beta 90.000000
_cell_angle_gamma 90.000000
_cell_volume 4602.301869
_symmetry_space_group_name_H-M "C M M M"
_symmetry_group_IT_number 65
_symmetry_cell_setting 'orthorhombic'
loop_
_space_group_symop_operation_xyz
x,y,z
-x,-y,z
x,-y,-z
-x,y,-z
-x,-y,-z
x,y,-z
-x,y,z
x,-y,z
1/2+x,1/2+y,z
1/2-x,1/2-y,z
1/2+x,1/2-y,-z
1/2-x,1/2+y,-z
1/2-x,1/2-y,-z
1/2+x,1/2+y,-z
1/2-x,1/2+y,z
1/2+x,1/2-y,z
loop_
_atom_site_type_symbol
_atom_site_label
_atom_site_fract_x
_atom_site_fract_y
_atom_site_fract_z
Si Si1 0.812748 0.606197 0.270983
Si Si2 0.757387 0.638595 0.500000
Si Si3 0.944837 0.108087 0.867398
Si Si4 0.351474 0.605671 0.500000
Si Si5 0.278545 0.611468 0.128961
Si Si6 0.363781 0.705449 0.733491
O O1 0.832965 0.500000 0.246998
O O2 0.786349 0.605249 0.391096
O O3 0.774626 0.636513 0.173934
O O4 0.856872 0.680424 0.270557
O O5 0.750000 0.750000 0.500000
O O6 0.705628 0.590209 0.500000
O O7 0.912243 0.182958 0.801166
O O8 0.000000 0.127700 0.834669
O O9 0.930516 0.000000 0.834720
O O10 0.936334 0.123908 0.000000
O O11 0.374762 0.500000 0.500000
O O12 0.369517 0.664359 0.607949
O O13 0.288474 0.500000 0.136764
O O14 0.317440 0.661107 0.207482
O O15 0.283005 0.648170 0.000000
#
# Coordination Sequence:
#
# PCOD8270044 Si02
#       6
#    16   8  16   8  16  16
#     4  11  22  34  48  69 103 143 180 215 248 291
#     4  12  18  35  51  70 102 146 186 215 248 291
#     4   9  19  37  60  83 104 128 163 210 266 326
#     4  12  22  31  49  78 107 135 170 211 254 304
#     4  10  20  32  47  70 100 133 168 208 256 306
#     4  12  21  33  52  75 102 136 174 210 254 307
#
# _framework density 17.382605999999999
#
# number of rings (size 3 to 8) (size 9 to 14) (size 15 to 20)
#    0.000    1.200    4.000    4.500    0.000    4.000 
#    0.000    0.500    0.000    2.400    0.000    1.400 
#    0.000    3.200    0.000    0.000    0.000    0.000 
#
# Total GULP energy -496092.184781 kJ/mol
# GULP energy per Si atom -12402.304620 kJ/mol
# Density = 1.734304 g / cm^3
# Si number density = 17.382606 Si / 1000 Ang^3
#
#
#
# Elastic Constant Matrix: (Units=GPa)
#
#
# Indices 1 2 3 4 5 6 
#
# 1 73.5686 59.2042 24.7733 0.0000 0.0000 0.0000
# 2 59.2042 88.5881 42.9718 0.0000 0.0000 0.0000
# 3 24.7733 42.9718 84.5276 0.0000 0.0000 0.0000
# 4 0.0000 0.0000 0.0000 37.7824 0.0000 0.0000
# 5 0.0000 0.0000 0.0000 0.0000 8.2199 0.0000
# 6 0.0000 0.0000 0.0000 0.0000 0.0000 23.5271
#
#
#
# Elastic Compliance Matrix: (Units=1/GPa)
#
#
# Indices 1 2 3 4 5 6 
#
# 1 0.029623 -0.020688 0.001835 0.000000 0.000000 0.000000
# 2 -0.020688 0.029430 -0.008899 0.000000 0.000000 0.000000
# 3 0.001835 -0.008899 0.015816 0.000000 0.000000 0.000000
# 4 0.000000 0.000000 0.000000 0.026467 0.000000 0.000000
# 5 0.000000 0.000000 0.000000 0.000000 0.121655 0.000000
# 6 0.000000 0.000000 0.000000 0.000000 0.000000 0.042504
#
#
# Mechanical properties :
#
#
# Convention : Reuss Voigt Hill
#
# Bulk Modulus (GPa) = 51.63188 55.62032 53.62610
# Shear Modulus (GPa) = 15.26929 21.88823 18.57876
#
# Velocity S-wave (km/s) = 2.96704 3.55237 3.27282
# Velocity P-wave (km/s) = 6.44247 6.99235 6.72303
#
# Compressibility (1/GPa) = 0.01936788
#
# Stress axis : x y z
#
# Youngs Moduli (GPa) = 33.75747 33.97856 63.22532
#
# Poissons Ratio (x) = 0.70293 -0.11603
# Poissons Ratio (y) = 0.69836 0.56262
# Poissons Ratio (z) = -0.06195 0.30236
#
# Static dielectric constant tensor:
#      x y z
#    x 2.917230 0.000000 0.000000 
#    y 0.000000 3.332530 0.000000 
#    z 0.000000 0.000000 3.311840 
# 
# 
# High freq. dielectric constant tensor:
#      x y z
#    x 1.625350 0.000000 0.000000 
#    y 0.000000 1.675980 0.000000 
#    z 0.000000 0.000000 1.686760 
# 
# From -- ./inp_files/30448.got.cif
#   From: 2010.03.12/outbox.cif.g09.slc.cpg/sg65_16_cif.got.tgz:30448.got - 2010.04.10 20:52:16.
