data_PCOD8270298
_publ_section_title
;
Structure prediction by ZEFSAII (Michael W. Deem and Ramdas Pophale) SiO2 
 PCOD8270298
Probable space group: C M M M
;
_chemical_formula_sum "Si O2"
_cell_formula_units_Z 96
_cell_length_a 28.041735
_cell_length_b 8.846753
_cell_length_c 25.911410
_cell_angle_alpha 90.000000
_cell_angle_beta 90.000000
_cell_angle_gamma 90.000000
_cell_volume 6428.058627
_symmetry_space_group_name_H-M "C M M M"
_symmetry_group_IT_number 65
_symmetry_cell_setting 'orthorhombic'
loop_
_space_group_symop_operation_xyz
x,y,z
-x,-y,z
x,-y,-z
-x,y,-z
-x,-y,-z
x,y,-z
-x,y,z
x,-y,z
1/2+x,1/2+y,z
1/2-x,1/2-y,z
1/2+x,1/2-y,-z
1/2-x,1/2+y,-z
1/2-x,1/2-y,-z
1/2+x,1/2+y,-z
1/2-x,1/2+y,z
1/2+x,1/2-y,z
loop_
_atom_site_type_symbol
_atom_site_label
_atom_site_fract_x
_atom_site_fract_y
_atom_site_fract_z
Si Si1 0.443105 0.329666 0.102872
Si Si2 0.943387 0.669482 0.205097
Si Si3 0.443154 0.829758 0.000000
Si Si4 0.056077 0.825106 0.309535
Si Si5 0.393485 0.821387 0.595754
Si Si6 0.799838 0.176087 0.559984
Si Si7 0.556446 0.671609 0.500000
O O1 0.500000 0.327185 0.103061
O O2 0.423813 0.500000 0.105098
O O3 0.422754 0.240586 0.152417
O O4 0.423270 0.252893 0.050883
O O5 0.923085 0.500000 0.211661
O O6 0.927111 0.772756 0.252934
O O7 0.000000 0.665492 0.201963
O O8 0.500000 0.826870 0.000000
O O9 0.423784 0.000000 0.000000
O O10 0.083705 0.722391 0.350018
O O11 0.000000 0.798428 0.317168
O O12 0.069487 0.000000 0.317337
O O13 0.340413 0.754840 0.593725
O O14 0.425864 0.754578 0.550733
O O15 0.391358 0.000000 0.589767
O O16 0.811480 0.205522 0.500000
O O17 0.750000 0.250000 0.575812
O O18 0.797716 0.000000 0.572972
O O19 0.576316 0.500000 0.500000
O O20 0.500000 0.672744 0.500000
#
# Coordination Sequence:
#
# PCOD8270298 Si02
#       7
#    16  16   8  16  16  16   8
#     4   9  15  22  32  46  65  90 121 158 202 249
#     4   9  16  26  39  54  72  96 129 168 207 246
#     4   9  15  21  29  43  63  87 117 157 204 247
#     4  10  20  33  47  62  83 112 144 177 213 252
#     4  12  23  34  50  70  91 113 140 172 209 252
#     4  10  20  35  55  74  94 114 136 166 204 249
#     4  11  23  37  50  65  88 117 145 173 209 251
#
# _framework density 14.934524
#
# number of rings (size 3 to 8) (size 9 to 14) (size 15 to 20)
#    0.000    2.000    0.833    4.500    0.000    9.333 
#    0.000    0.000    0.000    0.000    0.000    0.000 
#    0.000    0.000    0.000    0.000    0.000    0.000 
#
# Total GULP energy -595292.287994 kJ/mol
# GULP energy per Si atom -12401.922667 kJ/mol
# Density = 1.490053 g / cm^3
# Si number density = 14.934524 Si / 1000 Ang^3
#
#
#
# Elastic Constant Matrix: (Units=GPa)
#
#
# Indices 1 2 3 4 5 6 
#
# 1 42.1590 32.6202 28.1023 0.0000 0.0000 0.0000
# 2 32.6202 126.3783 45.7119 0.0000 0.0000 0.0000
# 3 28.1023 45.7119 108.1675 0.0000 0.0000 0.0000
# 4 0.0000 0.0000 0.0000 24.5915 0.0000 0.0000
# 5 0.0000 0.0000 0.0000 0.0000 0.7149 0.0000
# 6 0.0000 0.0000 0.0000 0.0000 0.0000 17.8448
#
#
#
# Elastic Compliance Matrix: (Units=1/GPa)
#
#
# Indices 1 2 3 4 5 6 
#
# 1 0.032427 -0.006283 -0.005769 0.000000 0.000000 0.000000
# 2 -0.006283 0.010558 -0.002829 0.000000 0.000000 0.000000
# 3 -0.005769 -0.002829 0.011940 0.000000 0.000000 0.000000
# 4 0.000000 0.000000 0.000000 0.040664 0.000000 0.000000
# 5 0.000000 0.000000 0.000000 0.000000 1.398804 0.000000
# 6 0.000000 0.000000 0.000000 0.000000 0.000000 0.056039
#
#
# Mechanical properties :
#
#
# Convention : Reuss Voigt Hill
#
# Bulk Modulus (GPa) = 39.74467 54.39707 47.07087
# Shear Modulus (GPa) = 3.14746 19.98161 11.56454
#
# Velocity S-wave (km/s) = 1.45330 3.66177 2.78573
# Velocity P-wave (km/s) = 5.43015 7.37433 6.47562
#
# Compressibility (1/GPa) = 0.02516061
#
# Stress axis : x y z
#
# Youngs Moduli (GPa) = 30.83856 94.71549 83.75515
#
# Poissons Ratio (x) = 0.59510 0.48322
# Poissons Ratio (y) = 0.19376 0.23698
# Poissons Ratio (z) = 0.17792 0.26799
#
# Static dielectric constant tensor:
#      x y z
#    x 2.455610 0.000000 0.000000 
#    y 0.000000 3.126310 0.000000 
#    z 0.000000 0.000000 3.025370 
# 
# 
# High freq. dielectric constant tensor:
#      x y z
#    x 1.504190 0.000000 0.000000 
#    y 0.000000 1.597000 0.000000 
#    z 0.000000 0.000000 1.574260 
# 
# From -- ./inp_files/71691.got.cif
#   From: 2010.03.12/outbox.cif.g09.slc.cpg/sg65_36_cif.got.tgz:71691.got - 2010.04.10 20:52:16.
