data_PCOD8270435
_publ_section_title
;
Structure prediction by ZEFSAII (Michael W. Deem and Ramdas Pophale) SiO2 
 PCOD8270435
Probable space group: C M M M
;
_chemical_formula_sum "Si O2"
_cell_formula_units_Z 104
_cell_length_a 18.314046
_cell_length_b 21.750889
_cell_length_c 13.497663
_cell_angle_alpha 90.000000
_cell_angle_beta 90.000000
_cell_angle_gamma 90.000000
_cell_volume 5376.750616
_symmetry_space_group_name_H-M "C M M M"
_symmetry_group_IT_number 65
_symmetry_cell_setting 'orthorhombic'
loop_
_space_group_symop_operation_xyz
x,y,z
-x,-y,z
x,-y,-z
-x,y,-z
-x,-y,-z
x,y,-z
-x,y,z
x,-y,z
1/2+x,1/2+y,z
1/2-x,1/2-y,z
1/2+x,1/2-y,-z
1/2-x,1/2+y,-z
1/2-x,1/2-y,-z
1/2+x,1/2+y,-z
1/2-x,1/2+y,z
1/2+x,1/2-y,z
loop_
_atom_site_type_symbol
_atom_site_label
_atom_site_fract_x
_atom_site_fract_y
_atom_site_fract_z
Si Si1 0.585096 0.804438 0.303671
Si Si2 0.915116 0.567170 0.743867
Si Si3 0.788578 0.430228 0.112300
Si Si4 0.913571 0.179632 0.612015
Si Si5 0.650282 0.620726 0.200114
Si Si6 0.585549 0.500000 0.110511
Si Si7 0.415106 0.738906 0.109523
O O1 0.500000 0.801148 0.320151
O O2 0.609959 0.875187 0.326783
O O3 0.616226 0.750208 0.373808
O O4 0.607241 0.790633 0.189280
O O5 0.901735 0.500000 0.692228
O O6 0.870670 0.571128 0.845938
O O7 0.000000 0.574992 0.772531
O O8 0.758067 0.500000 0.114265
O O9 0.736730 0.389336 0.183284
O O10 0.789055 0.404876 0.000000
O O11 0.897495 0.158901 0.500000
O O12 0.868101 0.135655 0.685101
O O13 0.000000 0.174903 0.636915
O O14 0.607665 0.559949 0.170724
O O15 0.627249 0.676110 0.129241
O O16 0.500000 0.500000 0.099709
O O17 0.621123 0.500000 0.000000
O O18 0.500000 0.722810 0.119476
O O19 0.395248 0.763487 0.000000
#
# Coordination Sequence:
#
# PCOD8270435 Si02
#       7
#    16  16  16  16  16   8  16
#     4   8  15  29  50  75 101 131 167 212 262 311
#     4   9  18  33  54  78 102 131 171 217 264 320
#     4  10  20  33  49  72 106 147 181 212 260 316
#     4   9  18  34  56  79 104 138 180 222 265 312
#     4  11  19  31  48  70 104 141 179 219 259 308
#     4  11  20  28  45  73 104 142 185 220 251 295
#     4   9  16  26  42  65  96 134 173 210 248 295
#
# _framework density 19.342538000000001
#
# number of rings (size 3 to 8) (size 9 to 14) (size 15 to 20)
#    0.000    2.538    0.769    3.692    0.000    2.154 
#    0.000    6.538    0.000    8.308    0.000    5.385 
#    0.000    0.000    0.000    0.000    0.000    0.308 
#
# Total GULP energy -644217.911800 kJ/mol
# GULP energy per Si atom -12388.805996 kJ/mol
# Density = 1.929851 g / cm^3
# Si number density = 19.342538 Si / 1000 Ang^3
#
#
#
# Elastic Constant Matrix: (Units=GPa)
#
#
# Indices 1 2 3 4 5 6 
#
# 1 53.3839 23.0575 17.3319 0.0000 0.0000 0.0000
# 2 23.0575 124.8618 29.2960 0.0000 0.0000 0.0000
# 3 17.3319 29.2960 95.4545 0.0000 0.0000 0.0000
# 4 0.0000 0.0000 0.0000 16.3941 0.0000 0.0000
# 5 0.0000 0.0000 0.0000 0.0000 17.5262 0.0000
# 6 0.0000 0.0000 0.0000 0.0000 0.0000 -0.8008
#
#
#
# Elastic Compliance Matrix: (Units=1/GPa)
#
#
# Indices 1 2 3 4 5 6 
#
# 1 0.021043 -0.003221 -0.002832 0.000000 0.000000 0.000000
# 2 -0.003221 0.009123 -0.002215 0.000000 0.000000 0.000000
# 3 -0.002832 -0.002215 0.011670 0.000000 0.000000 0.000000
# 4 0.000000 0.000000 0.000000 0.060998 0.000000 0.000000
# 5 0.000000 0.000000 0.000000 0.000000 0.057057 0.000000
# 6 0.000000 0.000000 0.000000 0.000000 0.000000 -1.248766
#
#
# Mechanical properties :
#
#
# Convention : Reuss Voigt Hill
#
# Bulk Modulus (GPa) = 39.52661 45.89677 42.71169
# Shear Modulus (GPa) = -4.69967 20.22488 7.76261
#
# Velocity S-wave (km/s) = -1.56044 3.23711 2.00548
# Velocity P-wave (km/s) = 4.15124 6.14425 5.24331
#
# Compressibility (1/GPa) = 0.02529941
#
# Stress axis : x y z
#
# Youngs Moduli (GPa) = 47.52143 109.60732 85.68764
#
# Poissons Ratio (x) = 0.35309 0.24268
# Poissons Ratio (y) = 0.15309 0.18981
# Poissons Ratio (z) = 0.13459 0.24280
#
# Static dielectric constant tensor:
#      x y z
#    x 3.323390 0.000000 0.000000 
#    y 0.000000 3.719080 0.000000 
#    z 0.000000 0.000000 3.289010 
# 
# 
# High freq. dielectric constant tensor:
#      x y z
#    x 1.732390 0.000000 0.000000 
#    y 0.000000 1.764590 0.000000 
#    z 0.000000 0.000000 1.717850 
# 
# From -- ./inp_files/44621.got.cif
#   From: 2010.03.12/outbox.cif.g09.slc.cpg/sg65_23_cif.got.tgz:44621.got - 2010.04.10 20:52:16.
