data_PCOD8270769
_publ_section_title
;
Structure prediction by ZEFSAII (Michael W. Deem and Ramdas Pophale) SiO2 
 PCOD8270769
Probable space group: C M M M
;
_chemical_formula_sum "Si O2"
_cell_formula_units_Z 104
_cell_length_a 32.324338
_cell_length_b 19.579062
_cell_length_c 9.411968
_cell_angle_alpha 90.000000
_cell_angle_beta 90.000000
_cell_angle_gamma 90.000000
_cell_volume 5956.648358
_symmetry_space_group_name_H-M "C M M M"
_symmetry_group_IT_number 65
_symmetry_cell_setting 'orthorhombic'
loop_
_space_group_symop_operation_xyz
x,y,z
-x,-y,z
x,-y,-z
-x,y,-z
-x,-y,-z
x,y,-z
-x,y,z
x,-y,z
1/2+x,1/2+y,z
1/2-x,1/2-y,z
1/2+x,1/2-y,-z
1/2-x,1/2+y,-z
1/2-x,1/2-y,-z
1/2+x,1/2+y,-z
1/2-x,1/2+y,z
1/2+x,1/2-y,z
loop_
_atom_site_type_symbol
_atom_site_label
_atom_site_fract_x
_atom_site_fract_y
_atom_site_fract_z
Si Si1 0.453462 0.727100 0.834767
Si Si2 0.338259 0.181226 0.159991
Si Si3 0.687172 0.577405 0.662249
Si Si4 0.427318 0.875959 0.844027
Si Si5 0.951481 0.500000 0.656203
Si Si6 0.732170 0.922218 0.832385
Si Si7 0.874226 0.196549 0.333688
O O1 0.500000 0.700867 0.799714
O O2 0.451522 0.807463 0.801008
O O3 0.419492 0.689438 0.738005
O O4 0.442317 0.714272 0.000000
O O5 0.378606 0.134960 0.155056
O O6 0.302118 0.132121 0.219203
O O7 0.345485 0.245212 0.263556
O O8 0.328164 0.207787 0.000000
O O9 0.701914 0.585147 0.500000
O O10 0.673544 0.500000 0.696669
O O11 0.725130 0.600300 0.760270
O O12 0.647683 0.624404 0.693017
O O13 0.436443 0.932442 0.730555
O O14 0.442109 0.900376 0.000000
O O15 0.931917 0.500000 0.500000
O O16 0.000000 0.500000 0.650484
O O17 0.719989 0.000000 0.787327
O O18 0.738087 0.917964 0.000000
O O19 0.879602 0.213300 0.500000
#
# Coordination Sequence:
#
# PCOD8270769 Si02
#       7
#    16  16  16  16   8  16  16
#     4   9  18  34  55  76  98 126 161 202 248 298
#     4   9  19  34  51  72 100 132 166 210 255 295
#     4   9  19  36  54  73 101 135 167 200 245 300
#     4   9  18  32  50  67  88 125 166 201 242 294
#     4  11  23  33  41  61  93 125 161 209 257 291
#     4   9  18  32  52  75  98 130 174 216 250 288
#     4  10  20  33  52  77 103 131 165 205 247 297
#
# _framework density 17.459482000000001
#
# number of rings (size 3 to 8) (size 9 to 14) (size 15 to 20)
#    0.000    2.692    0.000    2.077    1.077    6.462 
#    0.000    3.077    0.000    0.462    0.000    3.231 
#    0.000    0.000    0.000    0.000    0.000    0.000 
#
# Total GULP energy -644694.642759 kJ/mol
# GULP energy per Si atom -12397.973899 kJ/mol
# Density = 1.741974 g / cm^3
# Si number density = 17.459482 Si / 1000 Ang^3
#
#
#
# Elastic Constant Matrix: (Units=GPa)
#
#
# Indices 1 2 3 4 5 6 
#
# 1 110.2911 57.9131 49.4574 0.0000 0.0000 0.0000
# 2 57.9131 74.9316 47.4033 0.0000 0.0000 0.0000
# 3 49.4574 47.4033 79.3293 0.0000 0.0000 0.0000
# 4 0.0000 0.0000 0.0000 26.4131 0.0000 0.0000
# 5 0.0000 0.0000 0.0000 0.0000 27.0529 0.0000
# 6 0.0000 0.0000 0.0000 0.0000 0.0000 14.3068
#
#
#
# Elastic Compliance Matrix: (Units=1/GPa)
#
#
# Indices 1 2 3 4 5 6 
#
# 1 0.016077 -0.009783 -0.004177 0.000000 0.000000 0.000000
# 2 -0.009783 0.027410 -0.010279 0.000000 0.000000 0.000000
# 3 -0.004177 -0.010279 0.021353 0.000000 0.000000 0.000000
# 4 0.000000 0.000000 0.000000 0.037860 0.000000 0.000000
# 5 0.000000 0.000000 0.000000 0.000000 0.036965 0.000000
# 6 0.000000 0.000000 0.000000 0.000000 0.000000 0.069897
#
#
# Mechanical properties :
#
#
# Convention : Reuss Voigt Hill
#
# Bulk Modulus (GPa) = 61.12616 63.78884 62.45750
# Shear Modulus (GPa) = 18.97579 20.87310 19.92444
#
# Velocity S-wave (km/s) = 3.30031 3.46138 3.38180
# Velocity P-wave (km/s) = 7.04337 7.25186 7.14838
#
# Compressibility (1/GPa) = 0.01635961
#
# Stress axis : x y z
#
# Youngs Moduli (GPa) = 62.20009 36.48356 46.83285
#
# Poissons Ratio (x) = 0.35692 0.19564
# Poissons Ratio (y) = 0.60850 0.48142
# Poissons Ratio (z) = 0.25983 0.37503
#
# Static dielectric constant tensor:
#      x y z
#    x 3.302230 0.000000 0.000000 
#    y 0.000000 3.121840 0.000000 
#    z 0.000000 0.000000 3.413340 
# 
# 
# High freq. dielectric constant tensor:
#      x y z
#    x 1.673860 0.000000 0.000000 
#    y 0.000000 1.657370 0.000000 
#    z 0.000000 0.000000 1.676440 
# 
# From -- ./inp_files/18607.got.cif
#   From: 2010.03.12/outbox.cif.g09.slc.cpg/sg65_10_cif.got.tgz:18607.got - 2010.04.10 20:52:16.
