data_PCOD8270190
_publ_section_title
;
Structure prediction by ZEFSAII (Michael W. Deem and Ramdas Pophale) SiO2 
 PCOD8270190
Probable space group: C M M M
;
_chemical_formula_sum "Si O2"
_cell_formula_units_Z 104
_cell_length_a 8.984913
_cell_length_b 27.075553
_cell_length_c 23.609782
_cell_angle_alpha 90.000000
_cell_angle_beta 90.000000
_cell_angle_gamma 90.000000
_cell_volume 5743.586802
_symmetry_space_group_name_H-M "C M M M"
_symmetry_group_IT_number 65
_symmetry_cell_setting 'orthorhombic'
loop_
_space_group_symop_operation_xyz
x,y,z
-x,-y,z
x,-y,-z
-x,y,-z
-x,-y,-z
x,y,-z
-x,y,z
x,-y,z
1/2+x,1/2+y,z
1/2-x,1/2-y,z
1/2+x,1/2-y,-z
1/2-x,1/2+y,-z
1/2-x,1/2-y,-z
1/2+x,1/2+y,-z
1/2-x,1/2+y,z
1/2+x,1/2-y,z
loop_
_atom_site_type_symbol
_atom_site_label
_atom_site_fract_x
_atom_site_fract_y
_atom_site_fract_z
Si Si1 0.323668 0.199747 0.736421
Si Si2 0.174976 0.055896 0.435715
Si Si3 0.326371 0.352871 0.163282
Si Si4 0.826285 0.395039 0.664920
Si Si5 0.666355 0.500000 0.933176
Si Si6 0.331400 0.554749 0.238326
Si Si7 0.174178 0.600297 0.065766
O O1 0.500000 0.205223 0.742929
O O2 0.250000 0.250000 0.713907
O O3 0.253952 0.187716 0.797880
O O4 0.279975 0.158126 0.690508
O O5 0.220988 0.068405 0.500000
O O6 0.251864 0.096386 0.395857
O O7 0.000000 0.060390 0.427774
O O8 0.226312 0.000000 0.420587
O O9 0.500000 0.339590 0.158025
O O10 0.296227 0.406800 0.189190
O O11 0.250612 0.355189 0.101262
O O12 0.774452 0.437477 0.707952
O O13 0.000000 0.398963 0.656481
O O14 0.500000 0.500000 0.905615
O O15 0.754959 0.548565 0.914252
O O16 0.650678 0.500000 0.000000
O O17 0.500000 0.561235 0.260252
O O18 0.303698 0.500000 0.213414
O O19 0.000000 0.598252 0.078986
O O20 0.205636 0.611182 0.000000
#
# Coordination Sequence:
#
# PCOD8270190 Si02
#       7
#    16  16  16  16   8  16  16
#     4  10  21  38  58  79 103 129 165 212 265 319
#     4   9  18  32  50  74 107 148 187 216 244 287
#     4  10  20  33  52  76 101 131 169 210 255 306
#     4  10  20  32  49  76 105 132 167 213 259 303
#     4   9  17  29  45  65  91 129 175 213 244 289
#     4   9  18  31  46  67  98 135 170 205 245 295
#     4  10  20  33  48  69 100 136 172 211 256 304
#
# _framework density 18.107151999999999
#
# number of rings (size 3 to 8) (size 9 to 14) (size 15 to 20)
#    0.000    2.385    0.000    3.000    1.077    7.077 
#    0.000    0.769    0.000    0.923    0.000    0.000 
#    0.000    0.000    0.000    0.000    0.000    0.000 
#
# Total GULP energy -644818.732513 kJ/mol
# GULP energy per Si atom -12400.360241 kJ/mol
# Density = 1.806594 g / cm^3
# Si number density = 18.107152 Si / 1000 Ang^3
#
#
#
# Elastic Constant Matrix: (Units=GPa)
#
#
# Indices 1 2 3 4 5 6 
#
# 1 92.8355 36.0538 48.1880 0.0000 0.0000 0.0000
# 2 36.0538 74.6091 33.0861 0.0000 0.0000 0.0000
# 3 48.1880 33.0861 91.1436 0.0000 0.0000 0.0000
# 4 0.0000 0.0000 0.0000 19.9718 0.0000 0.0000
# 5 0.0000 0.0000 0.0000 0.0000 31.2199 0.0000
# 6 0.0000 0.0000 0.0000 0.0000 0.0000 28.7311
#
#
#
# Elastic Compliance Matrix: (Units=1/GPa)
#
#
# Indices 1 2 3 4 5 6 
#
# 1 0.016167 -0.004794 -0.006807 0.000000 0.000000 0.000000
# 2 -0.004794 0.017396 -0.003781 0.000000 0.000000 0.000000
# 3 -0.006807 -0.003781 0.015943 0.000000 0.000000 0.000000
# 4 0.000000 0.000000 0.000000 0.050071 0.000000 0.000000
# 5 0.000000 0.000000 0.000000 0.000000 0.032031 0.000000
# 6 0.000000 0.000000 0.000000 0.000000 0.000000 0.034805
#
#
# Mechanical properties :
#
#
# Convention : Reuss Voigt Hill
#
# Bulk Modulus (GPa) = 53.35302 54.80489 54.07895
# Shear Modulus (GPa) = 24.57917 25.40189 24.99053
#
# Velocity S-wave (km/s) = 3.68833 3.74955 3.71906
# Velocity P-wave (km/s) = 6.90416 7.00558 6.95506
#
# Compressibility (1/GPa) = 0.01874308
#
# Stress axis : x y z
#
# Youngs Moduli (GPa) = 61.85474 57.48380 62.72273
#
# Poissons Ratio (x) = 0.27556 0.42698
# Poissons Ratio (y) = 0.29651 0.23713
# Poissons Ratio (z) = 0.42107 0.21732
#
# Static dielectric constant tensor:
#      x y z
#    x 3.386940 0.000000 0.000000 
#    y 0.000000 3.197950 0.000000 
#    z 0.000000 0.000000 3.309120 
# 
# 
# High freq. dielectric constant tensor:
#      x y z
#    x 1.710490 0.000000 0.000000 
#    y 0.000000 1.674150 0.000000 
#    z 0.000000 0.000000 1.695930 
# 
# From -- ./inp_files/68224.got.cif
#   From: 2010.03.12/outbox.cif.g09.slc.cpg/sg65_35_cif.got.tgz:68224.got - 2010.04.10 20:52:16.
