data_PCOD8270439
_publ_section_title
;
Structure prediction by ZEFSAII (Michael W. Deem and Ramdas Pophale) SiO2 
 PCOD8270439
Probable space group: C M M M
;
_chemical_formula_sum "Si O2"
_cell_formula_units_Z 88
_cell_length_a 7.890409
_cell_length_b 18.373553
_cell_length_c 30.153713
_cell_angle_alpha 90.000000
_cell_angle_beta 90.000000
_cell_angle_gamma 90.000000
_cell_volume 4371.529957
_symmetry_space_group_name_H-M "C M M M"
_symmetry_group_IT_number 65
_symmetry_cell_setting 'orthorhombic'
loop_
_space_group_symop_operation_xyz
x,y,z
-x,-y,z
x,-y,-z
-x,y,-z
-x,-y,-z
x,y,-z
-x,y,z
x,-y,z
1/2+x,1/2+y,z
1/2-x,1/2-y,z
1/2+x,1/2-y,-z
1/2-x,1/2+y,-z
1/2-x,1/2-y,-z
1/2+x,1/2+y,-z
1/2-x,1/2+y,z
1/2+x,1/2-y,z
loop_
_atom_site_type_symbol
_atom_site_label
_atom_site_fract_x
_atom_site_fract_y
_atom_site_fract_z
Si Si1 0.799706 0.832765 0.132463
Si Si2 0.000000 0.086171 0.450614
Si Si3 0.701549 0.581928 0.048817
Si Si4 0.695961 0.166966 0.299061
Si Si5 0.195038 0.919748 0.215482
Si Si6 0.306263 0.085212 0.610906
O O1 0.750000 0.750000 0.137582
O O2 0.723100 0.865263 0.086709
O O3 0.720666 0.876690 0.174221
O O4 0.000000 0.840342 0.132237
O O5 0.827563 0.111962 0.426168
O O6 0.000000 0.120187 0.500000
O O7 0.000000 0.000000 0.453551
O O8 0.500000 0.583528 0.049735
O O9 0.765086 0.500000 0.058332
O O10 0.765708 0.607453 0.000000
O O11 0.500000 0.160495 0.288036
O O12 0.750000 0.250000 0.301962
O O13 0.793311 0.126247 0.260229
O O14 0.741924 0.128546 0.345051
O O15 0.000000 0.930535 0.204236
O O16 0.280036 0.000000 0.220778
O O17 0.500000 0.101972 0.595402
O O18 0.284173 0.000000 0.621026
#
# Coordination Sequence:
#
# PCOD8270439 Si02
#       6
#    16   8  16  16  16  16
#     4  10  20  33  49  73 104 135 170 214 263 322
#     4   9  18  32  56  88 116 148 189 235 286 336
#     4   8  14  27  49  73  95 125 170 220 265 312
#     4  11  23  37  55  81 109 144 181 223 270 325
#     4  10  21  36  55  77 103 137 176 220 270 323
#     4   9  19  35  55  82 114 148 188 236 284 334
#
# _framework density 20.130251000000001
#
# number of rings (size 3 to 8) (size 9 to 14) (size 15 to 20)
#    0.000    2.455    0.000    2.727    2.545    6.182 
#    0.000    1.818    0.000    2.182    0.000    1.273 
#    0.000    0.000    0.000    0.000    0.000    0.000 
#
# Total GULP energy -545457.276744 kJ/mol
# GULP energy per Si atom -12396.756290 kJ/mol
# Density = 2.008443 g / cm^3
# Si number density = 20.130251 Si / 1000 Ang^3
#
#
#
# Elastic Constant Matrix: (Units=GPa)
#
#
# Indices 1 2 3 4 5 6 
#
# 1 52.2936 24.3079 49.1982 0.0000 0.0000 0.0000
# 2 24.3079 129.5001 86.9988 0.0000 0.0000 0.0000
# 3 49.1982 86.9988 182.7666 0.0000 0.0000 0.0000
# 4 0.0000 0.0000 0.0000 20.4020 0.0000 0.0000
# 5 0.0000 0.0000 0.0000 0.0000 8.7983 0.0000
# 6 0.0000 0.0000 0.0000 0.0000 0.0000 20.9546
#
#
#
# Elastic Compliance Matrix: (Units=1/GPa)
#
#
# Indices 1 2 3 4 5 6 
#
# 1 0.025614 -0.000259 -0.006772 0.000000 0.000000 0.000000
# 2 -0.000259 0.011355 -0.005335 0.000000 0.000000 0.000000
# 3 -0.006772 -0.005335 0.009834 0.000000 0.000000 0.000000
# 4 0.000000 0.000000 0.000000 0.049015 0.000000 0.000000
# 5 0.000000 0.000000 0.000000 0.000000 0.113659 0.000000
# 6 0.000000 0.000000 0.000000 0.000000 0.000000 0.047722
#
#
# Mechanical properties :
#
#
# Convention : Reuss Voigt Hill
#
# Bulk Modulus (GPa) = 45.30773 76.17444 60.74109
# Shear Modulus (GPa) = 17.28383 23.63466 20.45924
#
# Velocity S-wave (km/s) = 2.93337 3.43021 3.19147
# Velocity P-wave (km/s) = 5.83344 7.32198 6.61968
#
# Compressibility (1/GPa) = 0.02207129
#
# Stress axis : x y z
#
# Youngs Moduli (GPa) = 39.04117 88.06750 101.68711
#
# Poissons Ratio (x) = 0.02277 0.68861
# Poissons Ratio (y) = 0.01009 0.54255
# Poissons Ratio (z) = 0.26438 0.46988
#
# Static dielectric constant tensor:
#      x y z
#    x 3.501730 0.000000 0.000000 
#    y 0.000000 -0.348180 0.000000 
#    z 0.000000 0.000000 3.924970 
# 
# 
# High freq. dielectric constant tensor:
#      x y z
#    x 1.767160 0.000000 0.000000 
#    y 0.000000 1.778260 0.000000 
#    z 0.000000 0.000000 1.792880 
# 
# From -- ./inp_files/76706.got.cif
#   From: 2010.03.12/outbox.cif.g09.slc.cpg/sg65_39_cif.got.tgz:76706.got - 2010.04.10 20:52:16.
