data_PCOD8270183
_publ_section_title
;
Structure prediction by ZEFSAII (Michael W. Deem and Ramdas Pophale) SiO2 
 PCOD8270183
Probable space group: C M M M
;
_chemical_formula_sum "Si O2"
_cell_formula_units_Z 80
_cell_length_a 25.890657
_cell_length_b 17.908310
_cell_length_c 9.488757
_cell_angle_alpha 90.000000
_cell_angle_beta 90.000000
_cell_angle_gamma 90.000000
_cell_volume 4399.537255
_symmetry_space_group_name_H-M "C M M M"
_symmetry_group_IT_number 65
_symmetry_cell_setting 'orthorhombic'
loop_
_space_group_symop_operation_xyz
x,y,z
-x,-y,z
x,-y,-z
-x,y,-z
-x,-y,-z
x,y,-z
-x,y,z
x,-y,z
1/2+x,1/2+y,z
1/2-x,1/2-y,z
1/2+x,1/2-y,-z
1/2-x,1/2+y,-z
1/2-x,1/2-y,-z
1/2+x,1/2+y,-z
1/2-x,1/2+y,z
1/2+x,1/2-y,z
loop_
_atom_site_type_symbol
_atom_site_label
_atom_site_fract_x
_atom_site_fract_y
_atom_site_fract_z
Si Si1 0.442849 0.411399 0.157936
Si Si2 0.744293 0.662401 0.162624
Si Si3 0.943318 0.588816 0.658525
Si Si4 0.849224 0.587451 0.838150
Si Si5 0.653635 0.587970 0.335481
O O1 0.500000 0.381667 0.201651
O O2 0.443721 0.500000 0.159192
O O3 0.400159 0.382703 0.268422
O O4 0.428942 0.383254 0.000000
O O5 0.750000 0.750000 0.181277
O O6 0.797284 0.625776 0.216766
O O7 0.699293 0.632067 0.260659
O O8 0.733026 0.640392 0.000000
O O9 0.933379 0.616633 0.500000
O O10 0.941952 0.500000 0.665054
O O11 0.898241 0.622116 0.756102
O O12 0.000000 0.616464 0.710420
O O13 0.843373 0.500000 0.810329
O O14 0.858996 0.606499 0.000000
O O15 0.653056 0.607553 0.500000
O O16 0.661431 0.500000 0.309412
#
# Coordination Sequence:
#
# PCOD8270183 Si02
#       5
#    16  16  16  16  16
#     4   8  14  26  46  72 100 129 160 195 238 287
#     4  10  21  36  52  69  93 128 168 207 246 289
#     4   8  14  25  42  66  95 123 149 180 223 276
#     4   9  17  29  47  71  95 119 151 193 237 277
#     4  10  20  32  49  75 103 130 161 199 245 295
#
# _framework density 18.183730000000001
#
# number of rings (size 3 to 8) (size 9 to 14) (size 15 to 20)
#    0.000    3.000    0.000    2.400    0.000    4.000 
#    0.000    6.000    0.000    1.200    0.000    2.800 
#    0.000    0.000    0.000    0.000    0.000    0.000 
#
# Total GULP energy -495836.298162 kJ/mol
# GULP energy per Si atom -12395.907454 kJ/mol
# Density = 1.814234 g / cm^3
# Si number density = 18.183730 Si / 1000 Ang^3
#
#
#
# Elastic Constant Matrix: (Units=GPa)
#
#
# Indices 1 2 3 4 5 6 
#
# 1 197.2878 35.7644 103.7079 0.0000 0.0000 0.0000
# 2 35.7644 21.3170 29.6359 0.0000 0.0000 0.0000
# 3 103.7079 29.6359 113.1262 0.0000 0.0000 0.0000
# 4 0.0000 0.0000 0.0000 15.2106 0.0000 0.0000
# 5 0.0000 0.0000 0.0000 0.0000 23.1171 0.0000
# 6 0.0000 0.0000 0.0000 0.0000 0.0000 -1.7371
#
#
#
# Elastic Compliance Matrix: (Units=1/GPa)
#
#
# Indices 1 2 3 4 5 6 
#
# 1 0.010335 -0.006555 -0.007757 0.000000 0.000000 0.000000
# 2 -0.006555 0.077940 -0.014409 0.000000 0.000000 0.000000
# 3 -0.007757 -0.014409 0.019726 0.000000 0.000000 0.000000
# 4 0.000000 0.000000 0.000000 0.065744 0.000000 0.000000
# 5 0.000000 0.000000 0.000000 0.000000 0.043258 0.000000
# 6 0.000000 0.000000 0.000000 0.000000 0.000000 -0.575683
#
#
# Mechanical properties :
#
#
# Convention : Reuss Voigt Hill
#
# Bulk Modulus (GPa) = 19.77900 74.43858 47.10879
# Shear Modulus (GPa) = -17.58174 18.15963 0.28894
#
# Velocity S-wave (km/s) = -3.11287 3.16361 0.39906
# Velocity P-wave (km/s) = 1.42091 7.37363 5.11622
#
# Compressibility (1/GPa) = 0.05055866
#
# Stress axis : x y z
#
# Youngs Moduli (GPa) = 96.76231 12.83038 50.69502
#
# Poissons Ratio (x) = 0.08410 0.39325
# Poissons Ratio (y) = 0.63423 0.73048
# Poissons Ratio (z) = 0.75060 0.18488
#
# Static dielectric constant tensor:
#      x y z
#    x 3.967700 0.000000 0.000000 
#    y 0.000000 2.862320 0.000000 
#    z 0.000000 0.000000 3.439600 
# 
# 
# High freq. dielectric constant tensor:
#      x y z
#    x 1.723720 0.000000 0.000000 
#    y 0.000000 1.652900 0.000000 
#    z 0.000000 0.000000 1.701020 
# 
# From -- ./inp_files/16049.got.cif
#   From: 2010.03.12/outbox.cif.g09.slc.cpg/sg65_9_cif.got.tgz:16049.got - 2010.04.10 20:52:16.
