data_PCOD8270866
_publ_section_title
;
Structure prediction by ZEFSAII (Michael W. Deem and Ramdas Pophale) SiO2 
 PCOD8270866
Probable space group: C M M M
;
_chemical_formula_sum "Si O2"
_cell_formula_units_Z 104
_cell_length_a 9.006281
_cell_length_b 19.824395
_cell_length_c 29.528410
_cell_angle_alpha 90.000000
_cell_angle_beta 90.000000
_cell_angle_gamma 90.000000
_cell_volume 5272.122562
_symmetry_space_group_name_H-M "C M M M"
_symmetry_group_IT_number 65
_symmetry_cell_setting 'orthorhombic'
loop_
_space_group_symop_operation_xyz
x,y,z
-x,-y,z
x,-y,-z
-x,y,-z
-x,-y,-z
x,y,-z
-x,y,z
x,-y,z
1/2+x,1/2+y,z
1/2-x,1/2-y,z
1/2+x,1/2-y,-z
1/2-x,1/2+y,-z
1/2-x,1/2-y,-z
1/2+x,1/2+y,-z
1/2-x,1/2+y,z
1/2+x,1/2-y,z
loop_
_atom_site_type_symbol
_atom_site_label
_atom_site_fract_x
_atom_site_fract_y
_atom_site_fract_z
Si Si1 0.824444 0.814801 0.136123
Si Si2 0.664399 0.500000 0.947105
Si Si3 0.824692 0.635209 0.948005
Si Si4 0.674788 0.319248 0.281839
Si Si5 0.673461 0.318472 0.614757
Si Si6 0.670148 0.921835 0.448151
Si Si7 0.175409 0.075908 0.208173
O O1 0.750000 0.750000 0.160913
O O2 0.755806 0.813274 0.085501
O O3 0.779693 0.882701 0.163081
O O4 0.000000 0.805368 0.133726
O O5 0.500000 0.500000 0.923377
O O6 0.759925 0.563628 0.932515
O O7 0.638236 0.500000 0.000000
O O8 0.000000 0.635541 0.940733
O O9 0.783551 0.652857 0.000000
O O10 0.500000 0.309647 0.275176
O O11 0.750000 0.250000 0.265464
O O12 0.718306 0.335132 0.333601
O O13 0.733423 0.382086 0.251766
O O14 0.500000 0.307694 0.609598
O O15 0.750000 0.250000 0.597827
O O16 0.722506 0.380266 0.583974
O O17 0.702850 0.902174 0.500000
O O18 0.500000 0.905614 0.435991
O O19 0.705012 0.000000 0.440045
O O20 0.000000 0.069421 0.211227
O O21 0.245087 0.000000 0.207087
#
# Coordination Sequence:
#
# PCOD8270866 Si02
#       7
#    16   8  16  16  16  16  16
#     4  11  23  38  59  83 111 147 185 227 275 330
#     4   9  17  31  53  81 111 143 179 217 261 315
#     4  10  21  37  57  82 113 147 183 226 275 323
#     4   9  18  34  57  82 111 145 179 221 272 330
#     4  10  20  33  53  82 112 146 187 231 279 331
#     4   9  19  36  55  75 105 147 190 234 287 340
#     4   9  19  36  58  84 111 141 180 224 271 326
#
# _framework density 19.726400000000002
#
# number of rings (size 3 to 8) (size 9 to 14) (size 15 to 20)
#    0.000    2.385    0.000    2.538    1.077    4.308 
#    0.000    3.077    0.000    2.308    0.000    0.000 
#    0.000    0.000    0.000    0.000    0.000    0.000 
#
# Total GULP energy -644680.081648 kJ/mol
# GULP energy per Si atom -12397.693878 kJ/mol
# Density = 1.968150 g / cm^3
# Si number density = 19.726400 Si / 1000 Ang^3
#
#
#
# Elastic Constant Matrix: (Units=GPa)
#
#
# Indices 1 2 3 4 5 6 
#
# 1 73.8225 45.3637 42.0709 0.0000 0.0000 0.0000
# 2 45.3637 144.6602 66.4492 0.0000 0.0000 0.0000
# 3 42.0709 66.4492 103.1347 0.0000 0.0000 0.0000
# 4 0.0000 0.0000 0.0000 31.7013 0.0000 0.0000
# 5 0.0000 0.0000 0.0000 0.0000 19.8472 0.0000
# 6 0.0000 0.0000 0.0000 0.0000 0.0000 34.8781
#
#
#
# Elastic Compliance Matrix: (Units=1/GPa)
#
#
# Indices 1 2 3 4 5 6 
#
# 1 0.018731 -0.003358 -0.005477 0.000000 0.000000 0.000000
# 2 -0.003358 0.010421 -0.005344 0.000000 0.000000 0.000000
# 3 -0.005477 -0.005344 0.015374 0.000000 0.000000 0.000000
# 4 0.000000 0.000000 0.000000 0.031544 0.000000 0.000000
# 5 0.000000 0.000000 0.000000 0.000000 0.050385 0.000000
# 6 0.000000 0.000000 0.000000 0.000000 0.000000 0.028671
#
#
# Mechanical properties :
#
#
# Convention : Reuss Voigt Hill
#
# Bulk Modulus (GPa) = 61.85666 69.93168 65.89417
# Shear Modulus (GPa) = 26.47283 28.46757 27.47020
#
# Velocity S-wave (km/s) = 3.66731 3.80296 3.73575
# Velocity P-wave (km/s) = 7.02549 7.40346 7.21695
#
# Compressibility (1/GPa) = 0.01616641
#
# Stress axis : x y z
#
# Youngs Moduli (GPa) = 53.38798 95.96426 65.04650
#
# Poissons Ratio (x) = 0.32223 0.35628
# Poissons Ratio (y) = 0.17926 0.34762
# Poissons Ratio (z) = 0.29242 0.51285
#
# Static dielectric constant tensor:
#      x y z
#    x 3.412930 0.000000 0.000000 
#    y 0.000000 3.675500 0.000000 
#    z 0.000000 0.000000 3.614090 
# 
# 
# High freq. dielectric constant tensor:
#      x y z
#    x 1.754280 0.000000 0.000000 
#    y 0.000000 1.775470 0.000000 
#    z 0.000000 0.000000 1.767730 
# 
# From -- ./inp_files/73334.got.cif
#   From: 2010.03.12/outbox.cif.g09.slc.cpg/sg65_37_cif.got.tgz:73334.got - 2010.04.10 20:52:16.
