data_PCOD8270195
_publ_section_title
;
Structure prediction by ZEFSAII (Michael W. Deem and Ramdas Pophale) SiO2 
 PCOD8270195
Probable space group: C M M M
;
_chemical_formula_sum "Si O2"
_cell_formula_units_Z 96
_cell_length_a 19.474176
_cell_length_b 9.265809
_cell_length_c 30.402001
_cell_angle_alpha 90.000000
_cell_angle_beta 90.000000
_cell_angle_gamma 90.000000
_cell_volume 5485.858524
_symmetry_space_group_name_H-M "C M M M"
_symmetry_group_IT_number 65
_symmetry_cell_setting 'orthorhombic'
loop_
_space_group_symop_operation_xyz
x,y,z
-x,-y,z
x,-y,-z
-x,y,-z
-x,-y,-z
x,y,-z
-x,y,z
x,-y,z
1/2+x,1/2+y,z
1/2-x,1/2-y,z
1/2+x,1/2-y,-z
1/2-x,1/2+y,-z
1/2-x,1/2-y,-z
1/2+x,1/2+y,-z
1/2-x,1/2+y,z
1/2+x,1/2-y,z
loop_
_atom_site_type_symbol
_atom_site_label
_atom_site_fract_x
_atom_site_fract_y
_atom_site_fract_z
Si Si1 0.918754 0.833232 0.887777
Si Si2 0.418599 0.837038 0.292783
Si Si3 0.081596 0.337912 0.803849
Si Si4 0.078020 0.830541 0.375967
Si Si5 0.681551 0.668749 0.450134
Si Si6 0.318314 0.167185 0.051763
O O1 0.891936 0.772815 0.840825
O O2 0.883955 0.741627 0.926254
O O3 0.000000 0.812901 0.892892
O O4 0.897320 0.000000 0.891352
O O5 0.500000 0.824125 0.292793
O O6 0.391311 0.787935 0.244457
O O7 0.388887 0.738137 0.331853
O O8 0.394946 0.000000 0.301982
O O9 0.108167 0.500000 0.814438
O O10 0.000000 0.339238 0.803155
O O11 0.120320 0.779640 0.418519
O O12 0.000000 0.777969 0.383461
O O13 0.081657 0.000000 0.369442
O O14 0.660515 0.709040 0.500000
O O15 0.695822 0.500000 0.445248
O O16 0.750000 0.750000 0.435511
O O17 0.250000 0.250000 0.067534
O O18 0.313040 0.000000 0.065836
O O19 0.328667 0.183265 0.000000
#
# Coordination Sequence:
#
# PCOD8270195 Si02
#       6
#    16  16  16  16  16  16
#     4  10  20  32  49  76 106 133 163 202 245 285
#     4   8  14  25  42  65  93 124 155 188 229 276
#     4   8  14  26  44  66  94 127 160 193 232 280
#     4   9  17  28  44  68  94 118 147 187 233 276
#     4   9  18  32  48  65  87 118 154 188 225 273
#     4  10  21  37  56  75  97 129 167 204 244 293
#
# _framework density 17.49954
#
# number of rings (size 3 to 8) (size 9 to 14) (size 15 to 20)
#    0.000    3.000    0.000    2.000    0.000    4.000 
#    0.000    6.667    0.000    1.000    0.000    7.000 
#    0.000    0.000    0.000    0.000    0.000    0.000 
#
# Total GULP energy -595009.564656 kJ/mol
# GULP energy per Si atom -12396.032597 kJ/mol
# Density = 1.745971 g / cm^3
# Si number density = 17.499540 Si / 1000 Ang^3
#
#
#
# Elastic Constant Matrix: (Units=GPa)
#
#
# Indices 1 2 3 4 5 6 
#
# 1 52.5621 40.5114 48.3056 0.0000 0.0000 0.0000
# 2 40.5114 92.0563 61.6592 0.0000 0.0000 0.0000
# 3 48.3056 61.6592 105.7063 0.0000 0.0000 0.0000
# 4 0.0000 0.0000 0.0000 34.3027 0.0000 0.0000
# 5 0.0000 0.0000 0.0000 0.0000 5.8404 0.0000
# 6 0.0000 0.0000 0.0000 0.0000 0.0000 23.9376
#
#
#
# Elastic Compliance Matrix: (Units=1/GPa)
#
#
# Indices 1 2 3 4 5 6 
#
# 1 0.036004 -0.007917 -0.011835 0.000000 0.000000 0.000000
# 2 -0.007917 0.019570 -0.007797 0.000000 0.000000 0.000000
# 3 -0.011835 -0.007797 0.019416 0.000000 0.000000 0.000000
# 4 0.000000 0.000000 0.000000 0.029152 0.000000 0.000000
# 5 0.000000 0.000000 0.000000 0.000000 0.171222 0.000000
# 6 0.000000 0.000000 0.000000 0.000000 0.000000 0.041775
#
#
# Mechanical properties :
#
#
# Convention : Reuss Voigt Hill
#
# Bulk Modulus (GPa) = 50.27258 61.25302 55.76280
# Shear Modulus (GPa) = 13.19724 19.47270 16.33497
#
# Velocity S-wave (km/s) = 2.74915 3.33942 3.05856
# Velocity P-wave (km/s) = 6.23438 7.06736 6.66390
#
# Compressibility (1/GPa) = 0.01989156
#
# Stress axis : x y z
#
# Youngs Moduli (GPa) = 27.77505 51.09986 51.50284
#
# Poissons Ratio (x) = 0.40457 0.60952
# Poissons Ratio (y) = 0.21990 0.40157
# Poissons Ratio (z) = 0.32871 0.39843
#
# Static dielectric constant tensor:
#      x y z
#    x 2.948380 0.000000 0.000000 
#    y 0.000000 3.329950 0.000000 
#    z 0.000000 0.000000 3.653370 
# 
# 
# High freq. dielectric constant tensor:
#      x y z
#    x 1.632960 0.000000 0.000000 
#    y 0.000000 1.677710 0.000000 
#    z 0.000000 0.000000 1.688080 
# 
# From -- ./inp_files/73075.got.cif
#   From: 2010.03.12/outbox.cif.g09.slc.cpg/sg65_37_cif.got.tgz:73075.got - 2010.04.10 20:52:16.
