data_PCOD8270521
_publ_section_title
;
Structure prediction by ZEFSAII (Michael W. Deem and Ramdas Pophale) SiO2 
 PCOD8270521
Probable space group: C M M M
;
_chemical_formula_sum "Si O2"
_cell_formula_units_Z 88
_cell_length_a 9.253017
_cell_length_b 18.852367
_cell_length_c 27.932404
_cell_angle_alpha 90.000000
_cell_angle_beta 90.000000
_cell_angle_gamma 90.000000
_cell_volume 4872.564093
_symmetry_space_group_name_H-M "C M M M"
_symmetry_group_IT_number 65
_symmetry_cell_setting 'orthorhombic'
loop_
_space_group_symop_operation_xyz
x,y,z
-x,-y,z
x,-y,-z
-x,y,-z
-x,-y,-z
x,y,-z
-x,y,z
x,-y,z
1/2+x,1/2+y,z
1/2-x,1/2-y,z
1/2+x,1/2-y,-z
1/2-x,1/2+y,-z
1/2-x,1/2-y,-z
1/2+x,1/2+y,-z
1/2-x,1/2+y,z
1/2+x,1/2-y,z
loop_
_atom_site_type_symbol
_atom_site_label
_atom_site_fract_x
_atom_site_fract_y
_atom_site_fract_z
Si Si1 0.171200 0.921206 0.231411
Si Si2 0.168292 0.320686 0.055172
Si Si3 0.162886 0.584321 0.500000
Si Si4 0.167659 0.081713 0.592340
Si Si5 0.829559 0.824097 0.683257
Si Si6 0.837395 0.916221 0.124564
O O1 0.230724 0.865056 0.269908
O O2 0.212734 0.894634 0.178158
O O3 0.000000 0.926905 0.236025
O O4 0.236219 0.000000 0.241154
O O5 0.250000 0.250000 0.071437
O O6 0.225961 0.385149 0.086613
O O7 0.000000 0.309655 0.064748
O O8 0.200747 0.338704 0.000000
O O9 0.167283 0.500000 0.500000
O O10 0.243114 0.612201 0.452606
O O11 0.000000 0.613796 0.500000
O O12 0.210851 0.127899 0.637964
O O13 0.000000 0.089209 0.579428
O O14 0.206837 0.000000 0.603641
O O15 0.750000 0.750000 0.678599
O O16 0.000000 0.810574 0.686738
O O17 0.000000 0.888199 0.114447
O O18 0.833866 0.000000 0.119297
#
# Coordination Sequence:
#
# PCOD8270521 Si02
#       6
#    16  16   8  16  16  16
#     4   8  15  31  54  76  98 128 167 205 241 287
#     4  10  21  36  53  73 100 135 173 212 253 299
#     4   9  17  29  48  75 102 125 153 197 250 293
#     4   9  17  31  52  74  95 125 166 204 236 280
#     4  10  20  33  50  73 101 131 163 201 244 289
#     4   9  18  33  54  79 105 133 166 206 252 302
#
# _framework density 18.060307000000002
#
# number of rings (size 3 to 8) (size 9 to 14) (size 15 to 20)
#    0.000    2.818    0.000    2.455    0.000    6.545 
#    0.000    5.000    0.000    2.727    0.000    0.000 
#    0.000    0.000    0.000    0.000    0.000    0.000 
#
# Total GULP energy -545574.694664 kJ/mol
# GULP energy per Si atom -12399.424879 kJ/mol
# Density = 1.801920 g / cm^3
# Si number density = 18.060307 Si / 1000 Ang^3
#
#
#
# Elastic Constant Matrix: (Units=GPa)
#
#
# Indices 1 2 3 4 5 6 
#
# 1 69.2901 42.4138 60.9722 0.0000 0.0000 0.0000
# 2 42.4138 83.1877 66.5752 0.0000 0.0000 0.0000
# 3 60.9722 66.5752 134.8813 0.0000 0.0000 0.0000
# 4 0.0000 0.0000 0.0000 9.2698 0.0000 0.0000
# 5 0.0000 0.0000 0.0000 0.0000 19.4391 0.0000
# 6 0.0000 0.0000 0.0000 0.0000 0.0000 29.8549
#
#
#
# Elastic Compliance Matrix: (Units=1/GPa)
#
#
# Indices 1 2 3 4 5 6 
#
# 1 0.025831 -0.006323 -0.008556 0.000000 0.000000 0.000000
# 2 -0.006323 0.021418 -0.007713 0.000000 0.000000 0.000000
# 3 -0.008556 -0.007713 0.015089 0.000000 0.000000 0.000000
# 4 0.000000 0.000000 0.000000 0.107878 0.000000 0.000000
# 5 0.000000 0.000000 0.000000 0.000000 0.051443 0.000000
# 6 0.000000 0.000000 0.000000 0.000000 0.000000 0.033495
#
#
# Mechanical properties :
#
#
# Convention : Reuss Voigt Hill
#
# Bulk Modulus (GPa) = 58.29702 69.69794 63.99748
# Shear Modulus (GPa) = 16.33692 19.53928 17.93810
#
# Velocity S-wave (km/s) = 3.01088 3.29278 3.15498
# Velocity P-wave (km/s) = 6.66606 7.28918 6.98457
#
# Compressibility (1/GPa) = 0.01715353
#
# Stress axis : x y z
#
# Youngs Moduli (GPa) = 38.71266 46.69050 66.27471
#
# Poissons Ratio (x) = 0.29522 0.56705
# Poissons Ratio (y) = 0.24478 0.51119
# Poissons Ratio (z) = 0.33123 0.36013
#
# Static dielectric constant tensor:
#      x y z
#    x 3.187950 0.000000 0.000000 
#    y 0.000000 3.208900 0.000000 
#    z 0.000000 0.000000 3.564430 
# 
# 
# High freq. dielectric constant tensor:
#      x y z
#    x 1.678180 0.000000 0.000000 
#    y 0.000000 1.685190 0.000000 
#    z 0.000000 0.000000 1.711920 
# 
# From -- ./inp_files/67536.got.cif
#   From: 2010.03.12/outbox.cif.g09.slc.cpg/sg65_34_cif.got.tgz:67536.got - 2010.04.10 20:52:16.
