data_PCOD8270516
_publ_section_title
;
Structure prediction by ZEFSAII (Michael W. Deem and Ramdas Pophale) SiO2 
 PCOD8270516
Probable space group: C M M M
;
_chemical_formula_sum "Si O2"
_cell_formula_units_Z 96
_cell_length_a 19.329341
_cell_length_b 8.915692
_cell_length_c 30.872050
_cell_angle_alpha 90.000000
_cell_angle_beta 90.000000
_cell_angle_gamma 90.000000
_cell_volume 5320.317785
_symmetry_space_group_name_H-M "C M M M"
_symmetry_group_IT_number 65
_symmetry_cell_setting 'orthorhombic'
loop_
_space_group_symop_operation_xyz
x,y,z
-x,-y,z
x,-y,-z
-x,y,-z
-x,-y,-z
x,y,-z
-x,y,z
x,-y,z
1/2+x,1/2+y,z
1/2-x,1/2-y,z
1/2+x,1/2-y,-z
1/2-x,1/2+y,-z
1/2-x,1/2-y,-z
1/2+x,1/2+y,-z
1/2-x,1/2+y,z
1/2+x,1/2-y,z
loop_
_atom_site_type_symbol
_atom_site_label
_atom_site_fract_x
_atom_site_fract_y
_atom_site_fract_z
Si Si1 0.676074 0.673295 0.371731
Si Si2 0.081224 0.826979 0.116520
Si Si3 0.080685 0.675070 0.205062
Si Si4 0.178975 0.324967 0.949677
Si Si5 0.175312 0.174949 0.724277
Si Si6 0.174992 0.675248 0.546989
O O1 0.684203 0.500000 0.382867
O O2 0.750000 0.750000 0.369515
O O3 0.643117 0.696976 0.324154
O O4 0.633779 0.751180 0.411876
O O5 0.106825 0.748856 0.160545
O O6 0.115811 0.747679 0.075751
O O7 0.000000 0.805849 0.110378
O O8 0.102979 0.000000 0.118295
O O9 0.097264 0.500000 0.203061
O O10 0.120935 0.748990 0.244341
O O11 0.000000 0.707550 0.212332
O O12 0.183077 0.500000 0.939547
O O13 0.250000 0.250000 0.933861
O O14 0.165761 0.291943 0.000000
O O15 0.250000 0.250000 0.729634
O O16 0.183393 0.000000 0.735308
O O17 0.138392 0.704643 0.500000
O O18 0.182703 0.500000 0.555489
O O19 0.250000 0.750000 0.545615
#
# Coordination Sequence:
#
# PCOD8270516 Si02
#       6
#    16  16  16  16  16  16
#     4   9  16  25  38  57  83 116 152 192 237 284
#     4  10  21  37  57  80 106 136 170 209 252 298
#     4  10  21  37  56  77 102 132 167 208 253 300
#     4  10  21  37  57  81 110 142 175 212 252 295
#     4  10  20  33  50  73 100 130 166 206 249 298
#     4   9  15  21  31  49  75 110 150 189 231 281
#
# _framework density 18.044035000000001
#
# number of rings (size 3 to 8) (size 9 to 14) (size 15 to 20)
#    0.000    2.333    0.000    4.000    0.000    7.000 
#    0.000    5.000    0.000    0.000    0.000    0.000 
#    0.000    0.667    0.000    7.333    0.000    8.167 
#
# Total GULP energy -594912.900397 kJ/mol
# GULP energy per Si atom -12394.018758 kJ/mol
# Density = 1.800297 g / cm^3
# Si number density = 18.044035 Si / 1000 Ang^3
#
#
#
# Elastic Constant Matrix: (Units=GPa)
#
#
# Indices 1 2 3 4 5 6 
#
# 1 36.3305 40.6772 47.8498 0.0000 0.0000 0.0000
# 2 40.6772 146.1623 84.0042 0.0000 0.0000 0.0000
# 3 47.8498 84.0042 140.9478 0.0000 0.0000 0.0000
# 4 0.0000 0.0000 0.0000 38.9595 0.0000 0.0000
# 5 0.0000 0.0000 0.0000 0.0000 0.6739 0.0000
# 6 0.0000 0.0000 0.0000 0.0000 0.0000 25.2861
#
#
#
# Elastic Compliance Matrix: (Units=1/GPa)
#
#
# Indices 1 2 3 4 5 6 
#
# 1 0.053915 -0.006822 -0.014238 0.000000 0.000000 0.000000
# 2 -0.006822 0.011269 -0.004401 0.000000 0.000000 0.000000
# 3 -0.014238 -0.004401 0.014551 0.000000 0.000000 0.000000
# 4 0.000000 0.000000 0.000000 0.025668 0.000000 0.000000
# 5 0.000000 0.000000 0.000000 0.000000 1.484007 0.000000
# 6 0.000000 0.000000 0.000000 0.000000 0.000000 0.039547
#
#
# Mechanical properties :
#
#
# Convention : Reuss Voigt Hill
#
# Bulk Modulus (GPa) = 34.70370 74.27811 54.49090
# Shear Modulus (GPa) = 2.95949 23.04453 13.00201
#
# Velocity S-wave (km/s) = 1.28207 3.57757 2.68726
# Velocity P-wave (km/s) = 4.63316 7.63673 6.31608
#
# Compressibility (1/GPa) = 0.02881537
#
# Stress axis : x y z
#
# Youngs Moduli (GPa) = 18.54773 88.73584 68.72367
#
# Poissons Ratio (x) = 0.60534 0.97846
# Poissons Ratio (y) = 0.12653 0.30243
# Poissons Ratio (z) = 0.26408 0.39049
#
# Static dielectric constant tensor:
#      x y z
#    x 2.855940 0.000000 0.000000 
#    y 0.000000 3.524850 0.000000 
#    z 0.000000 0.000000 4.189730 
# 
# 
# High freq. dielectric constant tensor:
#      x y z
#    x 1.640380 0.000000 0.000000 
#    y 0.000000 1.722280 0.000000 
#    z 0.000000 0.000000 1.724720 
# 
# From -- ./inp_files/75356.got.cif
#   From: 2010.03.12/outbox.cif.g09.slc.cpg/sg65_38_cif.got.tgz:75356.got - 2010.04.10 20:52:16.
