data_PCOD8270019
_publ_section_title
;
Structure prediction by ZEFSAII (Michael W. Deem and Ramdas Pophale) SiO2 
 PCOD8270019
Probable space group: C M M M
;
_chemical_formula_sum "Si O2"
_cell_formula_units_Z 96
_cell_length_a 24.795190
_cell_length_b 25.003317
_cell_length_c 9.314899
_cell_angle_alpha 90.000000
_cell_angle_beta 90.000000
_cell_angle_gamma 90.000000
_cell_volume 5774.883373
_symmetry_space_group_name_H-M "C M M M"
_symmetry_group_IT_number 65
_symmetry_cell_setting 'orthorhombic'
loop_
_space_group_symop_operation_xyz
x,y,z
-x,-y,z
x,-y,-z
-x,y,-z
-x,-y,-z
x,y,-z
-x,y,z
x,-y,z
1/2+x,1/2+y,z
1/2-x,1/2-y,z
1/2+x,1/2-y,-z
1/2-x,1/2+y,-z
1/2-x,1/2-y,-z
1/2+x,1/2+y,-z
1/2-x,1/2+y,z
1/2+x,1/2-y,z
loop_
_atom_site_type_symbol
_atom_site_label
_atom_site_fract_x
_atom_site_fract_y
_atom_site_fract_z
Si Si1 0.631581 0.937635 0.667330
Si Si2 0.748460 0.436463 0.658775
Si Si3 0.436228 0.854338 0.834450
Si Si4 0.437917 0.351837 0.832937
Si Si5 0.852834 0.939483 0.832112
Si Si6 0.064097 0.748492 0.662386
O O1 0.620113 0.925895 0.500000
O O2 0.692044 0.917886 0.708859
O O3 0.589501 0.906954 0.766352
O O4 0.624184 0.000000 0.700604
O O5 0.736340 0.414050 0.500000
O O6 0.748729 0.500000 0.656098
O O7 0.701536 0.415163 0.762760
O O8 0.500000 0.859773 0.818328
O O9 0.414050 0.802632 0.749283
O O10 0.419136 0.848814 0.000000
O O11 0.500000 0.364805 0.797200
O O12 0.403941 0.403849 0.787718
O O13 0.415764 0.302030 0.741410
O O14 0.430617 0.337526 0.000000
O O15 0.864365 0.000000 0.778583
O O16 0.842919 0.938307 0.000000
O O17 0.086777 0.747145 0.500000
O O18 0.000000 0.747709 0.662688
#
# Coordination Sequence:
#
# PCOD8270019 Si02
#       6
#    16  16  16  16  16  16
#     4   9  18  32  49  69  93 122 155 188 224 268
#     4   8  15  29  47  65  87 118 155 191 225 263
#     4  10  20  32  47  69  96 123 150 183 226 273
#     4   9  17  29  45  66  94 125 154 187 227 269
#     4   9  17  28  44  68  95 123 155 188 224 269
#     4   9  17  30  48  67  87 116 156 194 225 265
#
# _framework density 16.623712999999999
#
# number of rings (size 3 to 8) (size 9 to 14) (size 15 to 20)
#    0.000    3.000    0.000    2.000    0.000    5.333 
#    0.000    5.000    0.000    1.000    0.000   11.667 
#    0.000    0.000    0.000    0.000    0.000    0.000 
#
# Total GULP energy -595071.760852 kJ/mol
# GULP energy per Si atom -12397.328351 kJ/mol
# Density = 1.658588 g / cm^3
# Si number density = 16.623713 Si / 1000 Ang^3
#
#
#
# Elastic Constant Matrix: (Units=GPa)
#
#
# Indices 1 2 3 4 5 6 
#
# 1 58.8290 44.9589 45.8189 0.0000 0.0000 0.0000
# 2 44.9589 91.6283 60.8366 0.0000 0.0000 0.0000
# 3 45.8189 60.8366 93.1208 0.0000 0.0000 0.0000
# 4 0.0000 0.0000 0.0000 27.3557 0.0000 0.0000
# 5 0.0000 0.0000 0.0000 0.0000 27.6858 0.0000
# 6 0.0000 0.0000 0.0000 0.0000 0.0000 4.1723
#
#
#
# Elastic Compliance Matrix: (Units=1/GPa)
#
#
# Indices 1 2 3 4 5 6 
#
# 1 0.031315 -0.009069 -0.009484 0.000000 0.000000 0.000000
# 2 -0.009069 0.021900 -0.009845 0.000000 0.000000 0.000000
# 3 -0.009484 -0.009845 0.021837 0.000000 0.000000 0.000000
# 4 0.000000 0.000000 0.000000 0.036555 0.000000 0.000000
# 5 0.000000 0.000000 0.000000 0.000000 0.036120 0.000000
# 6 0.000000 0.000000 0.000000 0.000000 0.000000 0.239677
#
#
# Mechanical properties :
#
#
# Convention : Reuss Voigt Hill
#
# Bulk Modulus (GPa) = 54.77319 60.75632 57.76475
# Shear Modulus (GPa) = 11.10404 17.97365 14.53885
#
# Velocity S-wave (km/s) = 2.58730 3.29174 2.96055
# Velocity P-wave (km/s) = 6.47656 7.14666 6.81985
#
# Compressibility (1/GPa) = 0.01825711
#
# Stress axis : x y z
#
# Youngs Moduli (GPa) = 31.93320 45.66151 45.79338
#
# Poissons Ratio (x) = 0.41409 0.43429
# Poissons Ratio (y) = 0.28959 0.45086
# Poissons Ratio (z) = 0.30284 0.44956
#
# Static dielectric constant tensor:
#      x y z
#    x 3.070140 0.000000 0.000000 
#    y 0.000000 3.049770 0.000000 
#    z 0.000000 0.000000 3.259580 
# 
# 
# High freq. dielectric constant tensor:
#      x y z
#    x 1.620640 0.000000 0.000000 
#    y 0.000000 1.624540 0.000000 
#    z 0.000000 0.000000 1.644630 
# 
# From -- ./inp_files/12290.got.cif
#   From: 2010.03.12/outbox.cif.g09.slc.cpg/sg65_7_cif.got.tgz:12290.got - 2010.04.10 20:52:16.
