data_PCOD8270179
_publ_section_title
;
Structure prediction by ZEFSAII (Michael W. Deem and Ramdas Pophale) SiO2 
 PCOD8270179
Probable space group: C M M M
;
_chemical_formula_sum "Si O2"
_cell_formula_units_Z 64
_cell_length_a 9.862254
_cell_length_b 28.471181
_cell_length_c 12.489229
_cell_angle_alpha 90.000000
_cell_angle_beta 90.000000
_cell_angle_gamma 90.000000
_cell_volume 3506.850844
_symmetry_space_group_name_H-M "C M M M"
_symmetry_group_IT_number 65
_symmetry_cell_setting 'orthorhombic'
loop_
_space_group_symop_operation_xyz
x,y,z
-x,-y,z
x,-y,-z
-x,y,-z
-x,-y,-z
x,y,-z
-x,y,z
x,-y,z
1/2+x,1/2+y,z
1/2-x,1/2-y,z
1/2+x,1/2-y,-z
1/2-x,1/2+y,-z
1/2-x,1/2-y,-z
1/2+x,1/2+y,-z
1/2-x,1/2+y,z
1/2+x,1/2-y,z
loop_
_atom_site_type_symbol
_atom_site_label
_atom_site_fract_x
_atom_site_fract_y
_atom_site_fract_z
Si Si1 0.229711 0.105398 0.876450
Si Si2 0.500000 0.947663 0.124819
Si Si3 0.344603 0.056038 0.500000
Si Si4 0.847599 0.210341 0.875292
Si Si5 0.147807 0.053178 0.682615
O O1 0.373099 0.083642 0.841487
O O2 0.227199 0.160962 0.856981
O O3 0.128037 0.081518 0.793451
O O4 0.190713 0.093763 0.000000
O O5 0.500000 0.000000 0.179985
O O6 0.500000 0.956146 0.000000
O O7 0.500000 0.074657 0.500000
O O8 0.263532 0.074667 0.604513
O O9 0.339958 0.000000 0.500000
O O10 0.750000 0.250000 0.822644
O O11 0.000000 0.210844 0.824347
O O12 0.863695 0.220996 0.000000
O O13 0.000000 0.055137 0.625493
O O14 0.187087 0.000000 0.712286
#
# Coordination Sequence:
#
# PCOD8270179 Si02
#       5
#    16   8   8  16  16
#     4  10  20  32  49  74 107 141 174 211 260 316
#     4   9  18  30  44  67 103 143 177 210 248 302
#     4   9  19  35  53  71  94 129 174 219 258 300
#     4   9  18  31  48  69  98 135 175 217 262 311
#     4  10  20  33  51  74 102 135 171 212 257 308
#
# _framework density 18.249991000000001
#
# number of rings (size 3 to 8) (size 9 to 14) (size 15 to 20)
#    0.000    2.500    0.000    1.875    3.500    4.500 
#    0.000    1.250    0.000    0.000    0.000    0.875 
#    0.000    0.000    0.000    0.000    0.000    0.000 
#
# Total GULP energy -396478.697108 kJ/mol
# GULP energy per Si atom -12389.959285 kJ/mol
# Density = 1.820845 g / cm^3
# Si number density = 18.249991 Si / 1000 Ang^3
#
#
#
# Elastic Constant Matrix: (Units=GPa)
#
#
# Indices 1 2 3 4 5 6 
#
# 1 137.4873 60.2136 29.7339 0.0000 0.0000 0.0000
# 2 60.2136 108.4618 30.7804 0.0000 0.0000 0.0000
# 3 29.7339 30.7804 80.8506 0.0000 0.0000 0.0000
# 4 0.0000 0.0000 0.0000 8.3788 0.0000 0.0000
# 5 0.0000 0.0000 0.0000 0.0000 15.8659 0.0000
# 6 0.0000 0.0000 0.0000 0.0000 0.0000 22.3251
#
#
#
# Elastic Compliance Matrix: (Units=1/GPa)
#
#
# Indices 1 2 3 4 5 6 
#
# 1 0.009819 -0.004963 -0.001722 0.000000 0.000000 0.000000
# 2 -0.004963 0.012845 -0.003065 0.000000 0.000000 0.000000
# 3 -0.001722 -0.003065 0.014169 0.000000 0.000000 0.000000
# 4 0.000000 0.000000 0.000000 0.119349 0.000000 0.000000
# 5 0.000000 0.000000 0.000000 0.000000 0.063028 0.000000
# 6 0.000000 0.000000 0.000000 0.000000 0.000000 0.044793
#
#
# Mechanical properties :
#
#
# Convention : Reuss Voigt Hill
#
# Bulk Modulus (GPa) = 57.69143 63.13950 60.41547
# Shear Modulus (GPa) = 17.28435 23.05207 20.16821
#
# Velocity S-wave (km/s) = 3.08082 3.55791 3.32792
# Velocity P-wave (km/s) = 6.65850 7.17986 6.92409
#
# Compressibility (1/GPa) = 0.01733360
#
# Stress axis : x y z
#
# Youngs Moduli (GPa) = 101.84161 77.85337 70.57867
#
# Poissons Ratio (x) = 0.38635 0.12153
# Poissons Ratio (y) = 0.50539 0.21632
# Poissons Ratio (z) = 0.17536 0.23862
#
# Static dielectric constant tensor:
#      x y z
#    x 3.711170 0.000000 0.000000 
#    y 0.000000 3.192090 0.000000 
#    z 0.000000 0.000000 3.019410 
# 
# 
# High freq. dielectric constant tensor:
#      x y z
#    x 1.727360 0.000000 0.000000 
#    y 0.000000 1.679230 0.000000 
#    z 0.000000 0.000000 1.664970 
# 
# From -- ./inp_files/21013.got.cif
#   From: 2010.03.12/outbox.cif.g09.slc.cpg/sg65_11_cif.got.tgz:21013.got - 2010.04.10 20:52:16.
