data_PCOD8270605
_publ_section_title
;
Structure prediction by ZEFSAII (Michael W. Deem and Ramdas Pophale) SiO2 
 PCOD8270605
Probable space group: C M M M
;
_chemical_formula_sum "Si O2"
_cell_formula_units_Z 104
_cell_length_a 8.976968
_cell_length_b 26.181195
_cell_length_c 22.926115
_cell_angle_alpha 90.000000
_cell_angle_beta 90.000000
_cell_angle_gamma 90.000000
_cell_volume 5388.273218
_symmetry_space_group_name_H-M "C M M M"
_symmetry_group_IT_number 65
_symmetry_cell_setting 'orthorhombic'
loop_
_space_group_symop_operation_xyz
x,y,z
-x,-y,z
x,-y,-z
-x,y,-z
-x,-y,-z
x,y,-z
-x,y,z
x,-y,z
1/2+x,1/2+y,z
1/2-x,1/2-y,z
1/2+x,1/2-y,-z
1/2-x,1/2+y,-z
1/2-x,1/2-y,-z
1/2+x,1/2+y,-z
1/2-x,1/2+y,z
1/2+x,1/2-y,z
loop_
_atom_site_type_symbol
_atom_site_label
_atom_site_fract_x
_atom_site_fract_y
_atom_site_fract_z
Si Si1 0.173401 0.942432 0.315522
Si Si2 0.672017 0.197882 0.391695
Si Si3 0.673476 0.847405 0.733507
Si Si4 0.822053 0.890093 0.065430
Si Si5 0.662932 0.500000 0.930821
Si Si6 0.322569 0.696627 0.153945
Si Si7 0.670785 0.602789 0.436129
O O1 0.270099 0.905375 0.274810
O O2 0.214654 0.935880 0.384126
O O3 0.000000 0.930540 0.304702
O O4 0.213451 0.000000 0.297421
O O5 0.500000 0.204560 0.404071
O O6 0.750000 0.250000 0.409071
O O7 0.705379 0.184253 0.324708
O O8 0.731762 0.153624 0.433256
O O9 0.500000 0.848215 0.750356
O O10 0.767852 0.819083 0.782466
O O11 0.757079 0.946040 0.086402
O O12 0.765263 0.846029 0.108382
O O13 0.000000 0.893602 0.066069
O O14 0.765956 0.877182 0.000000
O O15 0.500000 0.500000 0.901055
O O16 0.644510 0.500000 0.000000
O O17 0.500000 0.702085 0.154001
O O18 0.250000 0.750000 0.134823
O O19 0.697737 0.577122 0.500000
O O20 0.500000 0.619342 0.428772
#
# Coordination Sequence:
#
# PCOD8270605 Si02
#       7
#    16  16  16  16   8  16  16
#     4   9  18  34  56  80 106 136 172 215 260 311
#     4  10  20  33  51  72  94 128 170 214 261 310
#     4  10  21  37  55  75 102 136 176 220 268 319
#     4   8  15  29  50  77 108 141 178 221 269 319
#     4   7  10  22  46  72  99 131 167 211 258 301
#     4  11  22  35  53  79 110 144 181 224 270 324
#     4   9  18  32  50  74 104 135 167 206 253 307
#
# _framework density 19.301174
#
# number of rings (size 3 to 8) (size 9 to 14) (size 15 to 20)
#    0.000    2.692    0.000    2.769    0.000    4.615 
#    1.385    1.538    0.000    1.385    0.000    4.308 
#    0.000    7.385    0.000    0.000    0.000    0.000 
#
# Total GULP energy -644556.900475 kJ/mol
# GULP energy per Si atom -12395.325009 kJ/mol
# Density = 1.925724 g / cm^3
# Si number density = 19.301174 Si / 1000 Ang^3
#
#
#
# Elastic Constant Matrix: (Units=GPa)
#
#
# Indices 1 2 3 4 5 6 
#
# 1 50.8552 28.9801 16.5714 0.0000 0.0000 0.0000
# 2 28.9801 123.7864 29.3385 0.0000 0.0000 0.0000
# 3 16.5714 29.3385 60.1042 0.0000 0.0000 0.0000
# 4 0.0000 0.0000 0.0000 13.9275 0.0000 0.0000
# 5 0.0000 0.0000 0.0000 0.0000 14.3887 0.0000
# 6 0.0000 0.0000 0.0000 0.0000 0.0000 29.4485
#
#
#
# Elastic Compliance Matrix: (Units=1/GPa)
#
#
# Indices 1 2 3 4 5 6 
#
# 1 0.023641 -0.004512 -0.004316 0.000000 0.000000 0.000000
# 2 -0.004512 0.009996 -0.003636 0.000000 0.000000 0.000000
# 3 -0.004316 -0.003636 0.019602 0.000000 0.000000 0.000000
# 4 0.000000 0.000000 0.000000 0.071800 0.000000 0.000000
# 5 0.000000 0.000000 0.000000 0.000000 0.069499 0.000000
# 6 0.000000 0.000000 0.000000 0.000000 0.000000 0.033958
#
#
# Mechanical properties :
#
#
# Convention : Reuss Voigt Hill
#
# Bulk Modulus (GPa) = 35.31886 42.72508 39.02197
# Shear Modulus (GPa) = 19.02149 22.21000 20.61574
#
# Velocity S-wave (km/s) = 3.14269 3.39589 3.27174
# Velocity P-wave (km/s) = 5.61313 6.12863 5.87653
#
# Compressibility (1/GPa) = 0.02831348
#
# Stress axis : x y z
#
# Youngs Moduli (GPa) = 42.29924 100.03636 51.01448
#
# Poissons Ratio (x) = 0.45135 0.22017
# Poissons Ratio (y) = 0.19085 0.18546
# Poissons Ratio (z) = 0.18255 0.36369
#
# Static dielectric constant tensor:
#      x y z
#    x 3.293900 0.000000 0.000000 
#    y 0.000000 3.775540 0.000000 
#    z 0.000000 0.000000 3.455290 
# 
# 
# High freq. dielectric constant tensor:
#      x y z
#    x 1.723950 0.000000 0.000000 
#    y 0.000000 1.758610 0.000000 
#    z 0.000000 0.000000 1.740270 
# 
# From -- ./inp_files/68228.got.cif
#   From: 2010.03.12/outbox.cif.g09.slc.cpg/sg65_35_cif.got.tgz:68228.got - 2010.04.10 20:52:16.
