data_PCOD8270604
_publ_section_title
;
Structure prediction by ZEFSAII (Michael W. Deem and Ramdas Pophale) SiO2 
 PCOD8270604
Probable space group: C M M M
;
_chemical_formula_sum "Si O2"
_cell_formula_units_Z 104
_cell_length_a 21.234833
_cell_length_b 9.228161
_cell_length_c 30.236621
_cell_angle_alpha 90.000000
_cell_angle_beta 90.000000
_cell_angle_gamma 90.000000
_cell_volume 5925.121618
_symmetry_space_group_name_H-M "C M M M"
_symmetry_group_IT_number 65
_symmetry_cell_setting 'orthorhombic'
loop_
_space_group_symop_operation_xyz
x,y,z
-x,-y,z
x,-y,-z
-x,y,-z
-x,-y,-z
x,y,-z
-x,y,z
x,-y,z
1/2+x,1/2+y,z
1/2-x,1/2-y,z
1/2+x,1/2-y,-z
1/2-x,1/2+y,-z
1/2-x,1/2-y,-z
1/2+x,1/2+y,-z
1/2-x,1/2+y,z
1/2+x,1/2-y,z
loop_
_atom_site_type_symbol
_atom_site_label
_atom_site_fract_x
_atom_site_fract_y
_atom_site_fract_z
Si Si1 0.424981 0.836302 0.000000
Si Si2 0.684572 0.173593 0.671283
Si Si3 0.575164 0.662883 0.915032
Si Si4 0.626602 0.666468 0.591333
Si Si5 0.074125 0.660523 0.167576
Si Si6 0.809097 0.842978 0.500000
Si Si7 0.570557 0.827852 0.265724
Si Si8 0.500000 0.328054 0.550864
O O1 0.399422 0.754080 0.043325
O O2 0.500000 0.837242 0.000000
O O3 0.398754 0.000000 0.000000
O O4 0.750000 0.250000 0.686402
O O5 0.666437 0.227428 0.622522
O O6 0.626257 0.226217 0.702107
O O7 0.693405 0.000000 0.671872
O O8 0.500000 0.661326 0.914770
O O9 0.601590 0.500000 0.918389
O O10 0.602217 0.734274 0.870007
O O11 0.631925 0.500000 0.608528
O O12 0.649708 0.685436 0.542145
O O13 0.555799 0.721124 0.583776
O O14 0.104263 0.500000 0.162398
O O15 0.088124 0.726178 0.216260
O O16 0.000000 0.646718 0.160836
O O17 0.750000 0.750000 0.500000
O O18 0.779925 0.000000 0.500000
O O19 0.500000 0.770063 0.279483
O O20 0.567802 0.000000 0.265330
O O21 0.500000 0.500000 0.544637
O O22 0.500000 0.262552 0.500000
#
# Coordination Sequence:
#
# PCOD8270604 Si02
#       8
#     8  16  16  16  16   8  16   8
#     4   9  15  21  29  43  67 107 158 199 230 275
#     4  11  23  38  56  77 105 136 168 208 253 302
#     4   9  15  21  30  48  77 110 144 188 241 288
#     4  10  20  35  55  78 103 132 165 200 243 295
#     4   8  13  24  42  60  78 106 148 192 233 284
#     4  10  20  33  51  71  95 128 165 200 235 284
#     4   8  16  32  53  74  95 124 163 205 249 297
#     4   9  16  32  57  81 105 133 163 199 245 294
#
# _framework density 17.552382999999999
#
# number of rings (size 3 to 8) (size 9 to 14) (size 15 to 20)
#    0.000    2.769    0.769    2.538    1.077    4.615 
#    0.000    1.538    0.000    2.308    0.000    0.000 
#    0.000    0.000    0.000    0.692    0.000    9.077 
#
# Total GULP energy -644229.207175 kJ/mol
# GULP energy per Si atom -12389.023215 kJ/mol
# Density = 1.751243 g / cm^3
# Si number density = 17.552383 Si / 1000 Ang^3
#
#
#
# Elastic Constant Matrix: (Units=GPa)
#
#
# Indices 1 2 3 4 5 6 
#
# 1 85.7816 33.7703 36.1371 0.0000 0.0000 0.0000
# 2 33.7703 87.7528 52.4369 0.0000 0.0000 0.0000
# 3 36.1371 52.4369 113.0628 0.0000 0.0000 0.0000
# 4 0.0000 0.0000 0.0000 15.0033 0.0000 0.0000
# 5 0.0000 0.0000 0.0000 0.0000 2.5365 0.0000
# 6 0.0000 0.0000 0.0000 0.0000 0.0000 12.5032
#
#
#
# Elastic Compliance Matrix: (Units=1/GPa)
#
#
# Indices 1 2 3 4 5 6 
#
# 1 0.014353 -0.003849 -0.002802 0.000000 0.000000 0.000000
# 2 -0.003849 0.016797 -0.006560 0.000000 0.000000 0.000000
# 3 -0.002802 -0.006560 0.012783 0.000000 0.000000 0.000000
# 4 0.000000 0.000000 0.000000 0.066652 0.000000 0.000000
# 5 0.000000 0.000000 0.000000 0.000000 0.394245 0.000000
# 6 0.000000 0.000000 0.000000 0.000000 0.000000 0.079980
#
#
# Mechanical properties :
#
#
# Convention : Reuss Voigt Hill
#
# Bulk Modulus (GPa) = 57.10994 59.03176 58.07085
# Shear Modulus (GPa) = 8.10282 16.95879 12.53080
#
# Velocity S-wave (km/s) = 2.15090 3.11172 2.67481
# Velocity P-wave (km/s) = 6.22704 6.82753 6.53419
#
# Compressibility (1/GPa) = 0.01751009
#
# Stress axis : x y z
#
# Youngs Moduli (GPa) = 69.66991 59.53532 78.23051
#
# Poissons Ratio (x) = 0.22915 0.21924
# Poissons Ratio (y) = 0.26816 0.51318
# Poissons Ratio (z) = 0.19525 0.39054
#
# Static dielectric constant tensor:
#      x y z
#    x 3.185170 0.000000 0.000000 
#    y 0.000000 3.232570 0.000000 
#    z 0.000000 0.000000 3.457430 
# 
# 
# High freq. dielectric constant tensor:
#      x y z
#    x 1.633120 0.000000 0.000000 
#    y 0.000000 1.661780 0.000000 
#    z 0.000000 0.000000 1.686930 
# 
# From -- ./inp_files/78304.got.cif
#   From: 2010.03.12/outbox.cif.g09.slc.cpg/sg65_40_cif.got.tgz:78304.got - 2010.04.10 20:52:16.
