data_PCOD8270537
_publ_section_title
;
Structure prediction by ZEFSAII (Michael W. Deem and Ramdas Pophale) SiO2 
 PCOD8270537
Probable space group: C M M M
;
_chemical_formula_sum "Si O2"
_cell_formula_units_Z 80
_cell_length_a 29.556386
_cell_length_b 15.650318
_cell_length_c 8.855033
_cell_angle_alpha 90.000000
_cell_angle_beta 90.000000
_cell_angle_gamma 90.000000
_cell_volume 4096.044631
_symmetry_space_group_name_H-M "C M M M"
_symmetry_group_IT_number 65
_symmetry_cell_setting 'orthorhombic'
loop_
_space_group_symop_operation_xyz
x,y,z
-x,-y,z
x,-y,-z
-x,y,-z
-x,-y,-z
x,y,-z
-x,y,z
x,-y,z
1/2+x,1/2+y,z
1/2-x,1/2-y,z
1/2+x,1/2-y,-z
1/2-x,1/2+y,-z
1/2-x,1/2-y,-z
1/2+x,1/2+y,-z
1/2-x,1/2+y,z
1/2+x,1/2-y,z
loop_
_atom_site_type_symbol
_atom_site_label
_atom_site_fract_x
_atom_site_fract_y
_atom_site_fract_z
Si Si1 0.223438 0.596782 0.665033
Si Si2 0.946935 0.096933 0.826487
Si Si3 0.386324 0.262449 0.677899
Si Si4 0.132497 0.597676 0.178276
Si Si5 0.207586 0.812216 0.175754
O O1 0.223084 0.643696 0.500000
O O2 0.212705 0.500000 0.633091
O O3 0.182664 0.629246 0.772867
O O4 0.271912 0.601842 0.750465
O O5 0.922182 0.165393 0.722164
O O6 0.000000 0.109361 0.802844
O O7 0.932994 0.000000 0.780661
O O8 0.933405 0.113436 0.000000
O O9 0.385136 0.253479 0.500000
O O10 0.400503 0.168845 0.746344
O O11 0.337619 0.289171 0.738701
O O12 0.120720 0.500000 0.229309
O O13 0.129160 0.605405 0.000000
O O14 0.250000 0.750000 0.211792
O O15 0.196976 0.822438 0.000000
#
# Coordination Sequence:
#
# PCOD8270537 Si02
#       5
#    16  16  16  16  16
#     4  10  20  33  50  73 103 141 186 237 292 345
#     4   9  20  42  70  95 120 153 194 242 297 359
#     4  12  24  36  58  88 120 156 193 241 300 359
#     4  10  20  35  55  79 110 151 198 241 281 335
#     4  11  22  35  52  74 106 151 198 242 286 338
#
# _framework density 19.531037999999999
#
# number of rings (size 3 to 8) (size 9 to 14) (size 15 to 20)
#    0.000    1.600    2.000    4.200    0.000    4.800 
#    0.000    1.000    0.000    0.600    0.000    4.200 
#    0.000    0.000    0.000    0.000    0.000    0.000 
#
# Total GULP energy -495656.042853 kJ/mol
# GULP energy per Si atom -12391.401071 kJ/mol
# Density = 1.948658 g / cm^3
# Si number density = 19.531038 Si / 1000 Ang^3
#
#
#
# Elastic Constant Matrix: (Units=GPa)
#
#
# Indices 1 2 3 4 5 6 
#
# 1 52.5696 47.3362 37.1544 0.0000 0.0000 0.0000
# 2 47.3362 108.1633 58.0726 0.0000 0.0000 0.0000
# 3 37.1544 58.0726 136.9434 0.0000 0.0000 0.0000
# 4 0.0000 0.0000 0.0000 28.2588 0.0000 0.0000
# 5 0.0000 0.0000 0.0000 0.0000 -3.9946 0.0000
# 6 0.0000 0.0000 0.0000 0.0000 0.0000 26.0503
#
#
#
# Elastic Compliance Matrix: (Units=1/GPa)
#
#
# Indices 1 2 3 4 5 6 
#
# 1 0.032733 -0.012374 -0.003633 0.000000 0.000000 0.000000
# 2 -0.012374 0.016649 -0.003703 0.000000 0.000000 0.000000
# 3 -0.003633 -0.003703 0.009858 0.000000 0.000000 0.000000
# 4 0.000000 0.000000 0.000000 0.035387 0.000000 0.000000
# 5 0.000000 0.000000 0.000000 0.000000 -0.250339 0.000000
# 6 0.000000 0.000000 0.000000 0.000000 0.000000 0.038387
#
#
# Mechanical properties :
#
#
# Convention : Reuss Voigt Hill
#
# Bulk Modulus (GPa) = 50.45690 64.75585 57.60638
# Shear Modulus (GPa) = -70.12825 20.40379 -24.86223
#
# Velocity S-wave (km/s) = -5.99867 3.23567 -3.57173
# Velocity P-wave (km/s) = 4.69983 6.86926 3.54248
#
# Compressibility (1/GPa) = 0.01981889
#
# Stress axis : x y z
#
# Youngs Moduli (GPa) = 30.55044 60.06451 101.43765
#
# Poissons Ratio (x) = 0.74326 0.36855
# Poissons Ratio (y) = 0.37804 0.37560
# Poissons Ratio (z) = 0.11100 0.22241
#
# Static dielectric constant tensor:
#      x y z
#    x 3.335810 0.000000 0.000000 
#    y 0.000000 3.977200 0.000000 
#    z 0.000000 0.000000 3.777330 
# 
# 
# High freq. dielectric constant tensor:
#      x y z
#    x 1.718860 0.000000 0.000000 
#    y 0.000000 1.775370 0.000000 
#    z 0.000000 0.000000 1.772930 
# 
# From -- ./inp_files/16056.got.cif
#   From: 2010.03.12/outbox.cif.g09.slc.cpg/sg65_9_cif.got.tgz:16056.got - 2010.04.10 20:52:16.
