data_PCOD8270529
_publ_section_title
;
Structure prediction by ZEFSAII (Michael W. Deem and Ramdas Pophale) SiO2 
 PCOD8270529
Probable space group: C M M M
;
_chemical_formula_sum "Si O2"
_cell_formula_units_Z 88
_cell_length_a 22.064237
_cell_length_b 24.165415
_cell_length_c 9.070572
_cell_angle_alpha 90.000000
_cell_angle_beta 90.000000
_cell_angle_gamma 90.000000
_cell_volume 4836.351380
_symmetry_space_group_name_H-M "C M M M"
_symmetry_group_IT_number 65
_symmetry_cell_setting 'orthorhombic'
loop_
_space_group_symop_operation_xyz
x,y,z
-x,-y,z
x,-y,-z
-x,y,-z
-x,-y,-z
x,y,-z
-x,y,z
x,-y,z
1/2+x,1/2+y,z
1/2-x,1/2-y,z
1/2+x,1/2-y,-z
1/2-x,1/2+y,-z
1/2-x,1/2-y,-z
1/2+x,1/2+y,-z
1/2-x,1/2+y,z
1/2+x,1/2-y,z
loop_
_atom_site_type_symbol
_atom_site_label
_atom_site_fract_x
_atom_site_fract_y
_atom_site_fract_z
Si Si1 0.500000 0.433926 0.334110
Si Si2 0.116558 0.065077 0.835780
Si Si3 0.929741 0.436276 0.170753
Si Si4 0.344407 0.849316 0.327283
Si Si5 0.321392 0.741022 0.166466
Si Si6 0.795247 0.866035 0.672162
O O1 0.500000 0.500000 0.335901
O O2 0.500000 0.410494 0.500000
O O3 0.558602 0.410477 0.249698
O O4 0.177387 0.079203 0.746004
O O5 0.111320 0.000000 0.845880
O O6 0.119038 0.090700 0.000000
O O7 0.915115 0.500000 0.210792
O O8 0.889026 0.396780 0.270729
O O9 0.000000 0.423516 0.203436
O O10 0.914806 0.425077 0.000000
O O11 0.355053 0.840223 0.500000
O O12 0.356999 0.791436 0.244475
O O13 0.275810 0.867141 0.292559
O O14 0.250000 0.750000 0.167716
O O15 0.332387 0.685140 0.257576
O O16 0.346040 0.735299 0.000000
O O17 0.807853 0.865314 0.500000
#
# Coordination Sequence:
#
# PCOD8270529 Si02
#       6
#     8  16  16  16  16  16
#     4   9  17  31  51  71  93 127 167 203 244 295
#     4  10  20  33  50  73 101 134 173 213 252 300
#     4   9  19  36  56  77 103 138 179 220 263 314
#     4  10  20  33  52  78 106 136 170 211 260 313
#     4   9  17  31  52  75  99 131 170 207 248 303
#     4  10  20  33  50  75 107 138 170 212 261 311
#
# _framework density 18.195535
#
# number of rings (size 3 to 8) (size 9 to 14) (size 15 to 20)
#    0.000    2.455    0.000    3.000    0.000    8.000 
#    0.000    4.545    2.000    0.000    0.000    0.000 
#    0.000    0.000    0.000    0.000    0.000    0.000 
#
# Total GULP energy -545572.652235 kJ/mol
# GULP energy per Si atom -12399.378460 kJ/mol
# Density = 1.815412 g / cm^3
# Si number density = 18.195535 Si / 1000 Ang^3
#
#
#
# Elastic Constant Matrix: (Units=GPa)
#
#
# Indices 1 2 3 4 5 6 
#
# 1 72.4054 38.1596 57.9245 0.0000 0.0000 0.0000
# 2 38.1596 59.6629 42.1863 0.0000 0.0000 0.0000
# 3 57.9245 42.1863 134.7764 0.0000 0.0000 0.0000
# 4 0.0000 0.0000 0.0000 34.5814 0.0000 0.0000
# 5 0.0000 0.0000 0.0000 0.0000 28.3131 0.0000
# 6 0.0000 0.0000 0.0000 0.0000 0.0000 21.4907
#
#
#
# Elastic Compliance Matrix: (Units=1/GPa)
#
#
# Indices 1 2 3 4 5 6 
#
# 1 0.025723 -0.011089 -0.007584 0.000000 0.000000 0.000000
# 2 -0.011089 0.026306 -0.003468 0.000000 0.000000 0.000000
# 3 -0.007584 -0.003468 0.011765 0.000000 0.000000 0.000000
# 4 0.000000 0.000000 0.000000 0.028917 0.000000 0.000000
# 5 0.000000 0.000000 0.000000 0.000000 0.035319 0.000000
# 6 0.000000 0.000000 0.000000 0.000000 0.000000 0.046532
#
#
# Mechanical properties :
#
#
# Convention : Reuss Voigt Hill
#
# Bulk Modulus (GPa) = 51.25509 60.37618 55.81564
# Shear Modulus (GPa) = 22.18794 25.44867 23.81831
#
# Velocity S-wave (km/s) = 3.49580 3.74387 3.62196
# Velocity P-wave (km/s) = 6.67266 7.20713 6.94504
#
# Compressibility (1/GPa) = 0.01951026
#
# Stress axis : x y z
#
# Youngs Moduli (GPa) = 38.87593 38.01486 85.00019
#
# Poissons Ratio (x) = 0.42156 0.64465
# Poissons Ratio (y) = 0.43111 0.29477
# Poissons Ratio (z) = 0.29484 0.13183
#
# Static dielectric constant tensor:
#      x y z
#    x 3.181130 0.000000 0.000000 
#    y 0.000000 3.265990 0.000000 
#    z 0.000000 0.000000 3.559380 
# 
# 
# High freq. dielectric constant tensor:
#      x y z
#    x 1.683880 0.000000 0.000000 
#    y 0.000000 1.692940 0.000000 
#    z 0.000000 0.000000 1.722770 
# 
# From -- ./inp_files/11725.got.cif
#   From: 2010.03.12/outbox.cif.g09.slc.cpg/sg65_6_cif.got.tgz:11725.got - 2010.04.10 20:52:16.
