data_PCOD8270489
_publ_section_title
;
Structure prediction by ZEFSAII (Michael W. Deem and Ramdas Pophale) SiO2 
 PCOD8270489
Probable space group: C M M M
;
_chemical_formula_sum "Si O2"
_cell_formula_units_Z 72
_cell_length_a 19.147052
_cell_length_b 9.107763
_cell_length_c 23.191630
_cell_angle_alpha 90.000000
_cell_angle_beta 90.000000
_cell_angle_gamma 90.000000
_cell_volume 4044.314415
_symmetry_space_group_name_H-M "C M M M"
_symmetry_group_IT_number 65
_symmetry_cell_setting 'orthorhombic'
loop_
_space_group_symop_operation_xyz
x,y,z
-x,-y,z
x,-y,-z
-x,y,-z
-x,-y,-z
x,y,-z
-x,y,z
x,-y,z
1/2+x,1/2+y,z
1/2-x,1/2-y,z
1/2+x,1/2-y,-z
1/2-x,1/2+y,-z
1/2-x,1/2-y,-z
1/2+x,1/2+y,-z
1/2-x,1/2+y,z
1/2+x,1/2-y,z
loop_
_atom_site_type_symbol
_atom_site_label
_atom_site_fract_x
_atom_site_fract_y
_atom_site_fract_z
Si Si1 0.916325 0.165327 0.876459
Si Si2 0.416843 0.835040 0.766208
Si Si3 0.417393 0.331254 0.346891
Si Si4 0.923354 0.174529 0.000000
Si Si5 0.179297 0.329276 0.567287
O O1 0.886960 0.269145 0.825943
O O2 0.000000 0.169486 0.879045
O O3 0.891224 0.000000 0.863003
O O4 0.886143 0.219999 0.939284
O O5 0.500000 0.832643 0.767846
O O6 0.389812 0.737762 0.712934
O O7 0.388290 0.000000 0.759067
O O8 0.500000 0.315495 0.352161
O O9 0.393617 0.500000 0.349096
O O10 0.385409 0.242735 0.399998
O O11 0.000000 0.247347 0.000000
O O12 0.931027 0.000000 0.000000
O O13 0.165545 0.304155 0.500000
O O14 0.184998 0.500000 0.582957
O O15 0.250000 0.250000 0.587348
#
# Coordination Sequence:
#
# PCOD8270489 Si02
#       5
#    16  16  16   8  16
#     4   8  12  19  31  46  67  99 140 182 223 269
#     4   9  16  25  37  55  81 112 146 186 232 278
#     4  10  20  33  50  72  97 126 161 199 237 279
#     4   7  10  16  27  43  63  93 136 181 220 263
#     4  10  21  37  56  76  99 127 157 190 231 280
#
# _framework density 17.802771
#
# number of rings (size 3 to 8) (size 9 to 14) (size 15 to 20)
#    0.000    3.000    0.000    3.333    0.000    5.778 
#    0.000    2.778    0.000    3.333    0.000    0.000 
#    0.000    0.000    0.000    1.000    0.000   13.778 
#
# Total GULP energy -446142.081618 kJ/mol
# GULP energy per Si atom -12392.835601 kJ/mol
# Density = 1.776225 g / cm^3
# Si number density = 17.802771 Si / 1000 Ang^3
#
#
#
# Elastic Constant Matrix: (Units=GPa)
#
#
# Indices 1 2 3 4 5 6 
#
# 1 18.6398 25.5654 29.7770 0.0000 0.0000 0.0000
# 2 25.5654 132.0085 74.8763 0.0000 0.0000 0.0000
# 3 29.7770 74.8763 126.4310 0.0000 0.0000 0.0000
# 4 0.0000 0.0000 0.0000 30.1078 0.0000 0.0000
# 5 0.0000 0.0000 0.0000 0.0000 1.5529 0.0000
# 6 0.0000 0.0000 0.0000 0.0000 0.0000 18.3791
#
#
#
# Elastic Compliance Matrix: (Units=1/GPa)
#
#
# Indices 1 2 3 4 5 6 
#
# 1 0.091665 -0.008292 -0.016678 0.000000 0.000000 0.000000
# 2 -0.008292 0.012157 -0.005247 0.000000 0.000000 0.000000
# 3 -0.016678 -0.005247 0.014945 0.000000 0.000000 0.000000
# 4 0.000000 0.000000 0.000000 0.033214 0.000000 0.000000
# 5 0.000000 0.000000 0.000000 0.000000 0.643937 0.000000
# 6 0.000000 0.000000 0.000000 0.000000 0.000000 0.054410
#
#
# Mechanical properties :
#
#
# Convention : Reuss Voigt Hill
#
# Bulk Modulus (GPa) = 17.14308 59.72406 38.43357
# Shear Modulus (GPa) = 5.37515 19.79868 12.58692
#
# Velocity S-wave (km/s) = 1.73949 3.33845 2.66187
# Velocity P-wave (km/s) = 3.69930 6.96282 5.57519
#
# Compressibility (1/GPa) = 0.05833259
#
# Stress axis : x y z
#
# Youngs Moduli (GPa) = 10.90931 82.25517 66.91306
#
# Poissons Ratio (x) = 0.68209 1.11596
# Poissons Ratio (y) = 0.09046 0.35109
# Poissons Ratio (z) = 0.18194 0.43158
#
# Static dielectric constant tensor:
#      x y z
#    x 2.634260 0.000000 0.000000 
#    y 0.000000 3.378330 0.000000 
#    z 0.000000 0.000000 3.686770 
# 
# 
# High freq. dielectric constant tensor:
#      x y z
#    x 1.610020 0.000000 0.000000 
#    y 0.000000 1.689750 0.000000 
#    z 0.000000 0.000000 1.711070 
# 
# From -- ./inp_files/59237.got.cif
#   From: 2010.03.12/outbox.cif.g09.slc.cpg/sg65_30_cif.got.tgz:59237.got - 2010.04.10 20:52:16.
