data_PCOD8270707
_publ_section_title
;
Structure prediction by ZEFSAII (Michael W. Deem and Ramdas Pophale) SiO2 
 PCOD8270707
Probable space group: C M M M
;
_chemical_formula_sum "Si O2"
_cell_formula_units_Z 112
_cell_length_a 14.474613
_cell_length_b 14.123487
_cell_length_c 26.932666
_cell_angle_alpha 90.000000
_cell_angle_beta 90.000000
_cell_angle_gamma 90.000000
_cell_volume 5505.899006
_symmetry_space_group_name_H-M "C M M M"
_symmetry_group_IT_number 65
_symmetry_cell_setting 'orthorhombic'
loop_
_space_group_symop_operation_xyz
x,y,z
-x,-y,z
x,-y,-z
-x,y,-z
-x,-y,-z
x,y,-z
-x,y,z
x,-y,z
1/2+x,1/2+y,z
1/2-x,1/2-y,z
1/2+x,1/2-y,-z
1/2-x,1/2+y,-z
1/2-x,1/2-y,-z
1/2+x,1/2+y,-z
1/2-x,1/2+y,z
1/2+x,1/2-y,z
loop_
_atom_site_type_symbol
_atom_site_label
_atom_site_fract_x
_atom_site_fract_y
_atom_site_fract_z
Si Si1 0.228669 0.391261 0.942139
Si Si2 0.277131 0.887883 0.644772
Si Si3 0.104707 0.773697 0.906310
Si Si4 0.395968 0.887294 0.444802
Si Si5 0.144856 0.231577 0.797321
Si Si6 0.398146 0.896117 0.266876
Si Si7 0.896837 0.888113 0.298327
O O1 0.223033 0.500000 0.923792
O O2 0.151929 0.329699 0.912984
O O3 0.332430 0.352234 0.933385
O O4 0.205731 0.383285 0.000000
O O5 0.319207 0.845644 0.593637
O O6 0.335270 0.847166 0.691109
O O7 0.171120 0.857398 0.655951
O O8 0.289395 0.000000 0.643518
O O9 0.096870 0.800549 0.848080
O O10 0.000000 0.774331 0.928162
O O11 0.371315 0.849557 0.500000
O O12 0.500000 0.854452 0.430101
O O13 0.392368 0.000000 0.444634
O O14 0.250000 0.250000 0.809926
O O15 0.099498 0.330545 0.781181
O O16 0.133108 0.153485 0.754569
O O17 0.500000 0.905187 0.289683
O O18 0.360088 0.000000 0.251843
O O19 0.000000 0.853815 0.312445
O O20 0.892018 0.000000 0.291692
#
# Coordination Sequence:
#
# PCOD8270707 Si02
#       7
#    16  16  16  16  16  16  16
#     4  10  23  43  65  92 124 155 193 243 293 343
#     4   9  16  27  45  69  98 135 177 219 269 324
#     4  11  23  41  64  90 121 158 197 240 289 345
#     4   8  13  22  39  66 100 134 169 217 277 335
#     4  12  22  38  58  80 114 150 184 226 280 329
#     4  10  20  33  51  77 108 139 173 218 272 331
#     4  10  21  36  53  74 104 144 189 231 267 314
#
# _framework density 20.341819000000001
#
# number of rings (size 3 to 8) (size 9 to 14) (size 15 to 20)
#    0.000    2.000    2.857    3.000    0.000    4.571 
#    0.000    1.429    0.000    0.429    0.000    5.000 
#    0.000    2.286    0.000    0.286    0.000    0.000 
#
# Total GULP energy -694069.904726 kJ/mol
# GULP energy per Si atom -12394.105442 kJ/mol
# Density = 2.029552 g / cm^3
# Si number density = 20.341819 Si / 1000 Ang^3
#
#
#
# Elastic Constant Matrix: (Units=GPa)
#
#
# Indices 1 2 3 4 5 6 
#
# 1 137.1284 13.5309 36.9190 0.0000 0.0000 0.0000
# 2 13.5309 60.2062 15.2411 0.0000 0.0000 0.0000
# 3 36.9190 15.2411 101.9651 0.0000 0.0000 0.0000
# 4 0.0000 0.0000 0.0000 14.7547 0.0000 0.0000
# 5 0.0000 0.0000 0.0000 0.0000 29.6005 0.0000
# 6 0.0000 0.0000 0.0000 0.0000 0.0000 14.5833
#
#
#
# Elastic Compliance Matrix: (Units=1/GPa)
#
#
# Indices 1 2 3 4 5 6 
#
# 1 0.008153 -0.001128 -0.002783 0.000000 0.000000 0.000000
# 2 -0.001128 0.017419 -0.002195 0.000000 0.000000 0.000000
# 3 -0.002783 -0.002195 0.011143 0.000000 0.000000 0.000000
# 4 0.000000 0.000000 0.000000 0.067775 0.000000 0.000000
# 5 0.000000 0.000000 0.000000 0.000000 0.033783 0.000000
# 6 0.000000 0.000000 0.000000 0.000000 0.000000 0.068572
#
#
# Mechanical properties :
#
#
# Convention : Reuss Voigt Hill
#
# Bulk Modulus (GPa) = 40.81283 47.85352 44.33317
# Shear Modulus (GPa) = 22.00458 27.36161 24.68309
#
# Velocity S-wave (km/s) = 3.29255 3.67153 3.48719
# Velocity P-wave (km/s) = 5.87891 6.44587 6.16891
#
# Compressibility (1/GPa) = 0.02450210
#
# Stress axis : x y z
#
# Youngs Moduli (GPa) = 122.65267 57.40931 89.74047
#
# Poissons Ratio (x) = 0.06474 0.24979
# Poissons Ratio (y) = 0.13832 0.19701
# Poissons Ratio (z) = 0.34140 0.12603
#
# Static dielectric constant tensor:
#      x y z
#    x 3.988970 0.000000 0.000000 
#    y 0.000000 3.517090 0.000000 
#    z 0.000000 0.000000 3.740920 
# 
# 
# High freq. dielectric constant tensor:
#      x y z
#    x 1.802940 0.000000 0.000000 
#    y 0.000000 1.775880 0.000000 
#    z 0.000000 0.000000 1.782200 
# 
# From -- ./inp_files/70036.got.cif
#   From: 2010.03.12/outbox.cif.g09.slc.cpg/sg65_36_cif.got.tgz:70036.got - 2010.04.10 20:52:16.
