data_PCOD8270412
_publ_section_title
;
Structure prediction by ZEFSAII (Michael W. Deem and Ramdas Pophale) SiO2 
 PCOD8270412
Probable space group: C M M M
;
_chemical_formula_sum "Si O2"
_cell_formula_units_Z 72
_cell_length_a 8.987698
_cell_length_b 27.359757
_cell_length_c 16.994024
_cell_angle_alpha 90.000000
_cell_angle_beta 90.000000
_cell_angle_gamma 90.000000
_cell_volume 4178.851460
_symmetry_space_group_name_H-M "C M M M"
_symmetry_group_IT_number 65
_symmetry_cell_setting 'orthorhombic'
loop_
_space_group_symop_operation_xyz
x,y,z
-x,-y,z
x,-y,-z
-x,y,-z
-x,-y,-z
x,y,-z
-x,y,z
x,-y,z
1/2+x,1/2+y,z
1/2-x,1/2-y,z
1/2+x,1/2-y,-z
1/2-x,1/2+y,-z
1/2-x,1/2-y,-z
1/2+x,1/2+y,-z
1/2-x,1/2+y,z
1/2+x,1/2-y,z
loop_
_atom_site_type_symbol
_atom_site_label
_atom_site_fract_x
_atom_site_fract_y
_atom_site_fract_z
Si Si1 0.828088 0.387592 0.796845
Si Si2 0.175939 0.943358 0.340606
Si Si3 0.165686 0.442491 0.500000
Si Si4 0.824307 0.699133 0.910432
Si Si5 0.837902 0.943059 0.914477
O O1 0.734259 0.402658 0.720439
O O2 0.770927 0.339069 0.842989
O O3 0.800238 0.430440 0.859288
O O4 0.000000 0.384279 0.773258
O O5 0.244465 0.926068 0.423133
O O6 0.000000 0.939634 0.346147
O O7 0.221508 0.000000 0.319426
O O8 0.150728 0.500000 0.500000
O O9 0.000000 0.418960 0.500000
O O10 0.750000 0.750000 0.887337
O O11 0.000000 0.704979 0.905893
O O12 0.777788 0.683556 0.000000
O O13 0.000000 0.925797 0.880215
O O14 0.841223 0.000000 0.924403
O O15 0.813070 0.918753 0.000000
#
# Coordination Sequence:
#
# PCOD8270412 Si02
#       5
#    16  16   8  16  16
#     4  11  21  31  46  70  97 123 156 200 245 286
#     4  10  20  33  49  71 101 135 168 199 233 280
#     4   9  17  31  51  73  98 129 164 201 241 281
#     4   9  19  35  52  70  93 122 159 204 251 296
#     4   9  18  31  44  60  87 124 162 195 229 276
#
# _framework density 17.229614999999999
#
# number of rings (size 3 to 8) (size 9 to 14) (size 15 to 20)
#    0.000    2.333    0.000    3.667    0.000    8.889 
#    0.000    3.333    0.000    0.000    0.000    0.778 
#    0.000    0.000    0.000    0.000    0.000    0.000 
#
# Total GULP energy -445978.033271 kJ/mol
# GULP energy per Si atom -12388.278702 kJ/mol
# Density = 1.719040 g / cm^3
# Si number density = 17.229615 Si / 1000 Ang^3
#
#
#
# Elastic Constant Matrix: (Units=GPa)
#
#
# Indices 1 2 3 4 5 6 
#
# 1 66.8799 36.2538 51.2666 0.0000 0.0000 0.0000
# 2 36.2538 71.3704 62.6637 0.0000 0.0000 0.0000
# 3 51.2666 62.6637 133.2469 0.0000 0.0000 0.0000
# 4 0.0000 0.0000 0.0000 27.7091 0.0000 0.0000
# 5 0.0000 0.0000 0.0000 0.0000 51.0814 0.0000
# 6 0.0000 0.0000 0.0000 0.0000 0.0000 25.1319
#
#
#
# Elastic Compliance Matrix: (Units=1/GPa)
#
#
# Indices 1 2 3 4 5 6 
#
# 1 0.022917 -0.006642 -0.005694 0.000000 0.000000 0.000000
# 2 -0.006642 0.025791 -0.009574 0.000000 0.000000 0.000000
# 3 -0.005694 -0.009574 0.014198 0.000000 0.000000 0.000000
# 4 0.000000 0.000000 0.000000 0.036089 0.000000 0.000000
# 5 0.000000 0.000000 0.000000 0.000000 0.019577 0.000000
# 6 0.000000 0.000000 0.000000 0.000000 0.000000 0.039790
#
#
# Mechanical properties :
#
#
# Convention : Reuss Voigt Hill
#
# Bulk Modulus (GPa) = 52.39075 63.54060 57.96567
# Shear Modulus (GPa) = 23.97590 28.87201 26.42396
#
# Velocity S-wave (km/s) = 3.73440 4.09800 3.92042
# Velocity P-wave (km/s) = 7.00483 7.70391 7.36267
#
# Compressibility (1/GPa) = 0.01908734
#
# Stress axis : x y z
#
# Youngs Moduli (GPa) = 43.63550 38.77330 70.43353
#
# Poissons Ratio (x) = 0.25753 0.40103
# Poissons Ratio (y) = 0.28983 0.67430
# Poissons Ratio (z) = 0.24845 0.37120
#
# Static dielectric constant tensor:
#      x y z
#    x 3.421090 0.000000 0.000000 
#    y 0.000000 3.013740 0.000000 
#    z 0.000000 0.000000 3.368880 
# 
# 
# High freq. dielectric constant tensor:
#      x y z
#    x 1.672890 0.000000 0.000000 
#    y 0.000000 1.627840 0.000000 
#    z 0.000000 0.000000 1.662580 
# 
# From -- ./inp_files/36539.got.cif
#   From: 2010.03.12/outbox.cif.g09.slc.cpg/sg65_19_cif.got.tgz:36539.got - 2010.04.10 20:52:16.
