data_PCOD8270598
_publ_section_title
;
Structure prediction by ZEFSAII (Michael W. Deem and Ramdas Pophale) SiO2 
 PCOD8270598
Probable space group: C M M M
;
_chemical_formula_sum "Si O2"
_cell_formula_units_Z 120
_cell_length_a 27.607572
_cell_length_b 28.167604
_cell_length_c 8.037141
_cell_angle_alpha 90.000000
_cell_angle_beta 90.000000
_cell_angle_gamma 90.000000
_cell_volume 6249.995540
_symmetry_space_group_name_H-M "C M M M"
_symmetry_group_IT_number 65
_symmetry_cell_setting 'orthorhombic'
loop_
_space_group_symop_operation_xyz
x,y,z
-x,-y,z
x,-y,-z
-x,y,-z
-x,-y,-z
x,y,-z
-x,y,z
x,-y,z
1/2+x,1/2+y,z
1/2-x,1/2-y,z
1/2+x,1/2-y,-z
1/2-x,1/2+y,-z
1/2-x,1/2-y,-z
1/2+x,1/2+y,-z
1/2-x,1/2+y,z
1/2+x,1/2-y,z
loop_
_atom_site_type_symbol
_atom_site_label
_atom_site_fract_x
_atom_site_fract_y
_atom_site_fract_z
Si Si1 0.766676 0.799416 0.691024
Si Si2 0.854802 0.140611 0.308091
Si Si3 0.784475 0.386265 0.192662
Si Si4 0.054615 0.444166 0.500000
Si Si5 0.946736 0.300323 0.195554
Si Si6 0.555499 0.695414 0.195309
Si Si7 0.196398 0.947753 0.194255
Si Si8 0.895100 0.605204 0.805549
O O1 0.777504 0.788138 0.500000
O O2 0.750000 0.750000 0.778922
O O3 0.815879 0.822006 0.771982
O O4 0.723185 0.837042 0.710027
O O5 0.842606 0.135714 0.500000
O O6 0.909597 0.157494 0.281869
O O7 0.847906 0.088024 0.231874
O O8 0.747027 0.425700 0.262391
O O9 0.838626 0.404341 0.221715
O O10 0.774442 0.375834 0.000000
O O11 0.057341 0.500000 0.500000
O O12 0.078342 0.427932 0.673585
O O13 0.000000 0.425160 0.500000
O O14 0.931575 0.248341 0.264341
O O15 0.907738 0.340320 0.242840
O O16 0.000000 0.314631 0.266055
O O17 0.951153 0.294668 0.000000
O O18 0.500000 0.682894 0.240845
O O19 0.564205 0.692003 0.000000
O O20 0.187890 0.000000 0.276162
O O21 0.200963 0.954793 0.000000
O O22 0.910028 0.594620 0.000000
#
# Coordination Sequence:
#
# PCOD8270598 Si02
#       8
#    16  16  16   8  16  16  16  16
#     4   9  19  33  48  70 109 154 185 217 265 322
#     4  10  20  33  50  77 109 141 179 222 273 330
#     4   9  19  33  52  82 108 137 182 229 279 332
#     4  11  26  44  60  84 111 144 196 242 291 360
#     4   8  15  30  52  77 105 141 184 225 271 324
#     4   9  18  33  53  77 108 146 186 227 269 320
#     4   9  18  35  57  77 102 138 180 226 273 331
#     4  10  21  38  61  86 115 147 187 241 295 343
#
# _framework density 19.200012999999998
#
# number of rings (size 3 to 8) (size 9 to 14) (size 15 to 20)
#    0.000    2.733    0.000    1.600    2.800    2.933 
#    1.200    2.000    0.000    0.400    0.000    2.800 
#    0.000    0.000    0.000    0.000    0.000    0.000 
#
# Total GULP energy -743583.925843 kJ/mol
# GULP energy per Si atom -12393.065431 kJ/mol
# Density = 1.915631 g / cm^3
# Si number density = 19.200013 Si / 1000 Ang^3
#
#
#
# Elastic Constant Matrix: (Units=GPa)
#
#
# Indices 1 2 3 4 5 6 
#
# 1 97.1208 51.7519 26.0609 0.0000 0.0000 0.0000
# 2 51.7519 137.3457 24.6396 0.0000 0.0000 0.0000
# 3 26.0609 24.6396 41.5249 0.0000 0.0000 0.0000
# 4 0.0000 0.0000 0.0000 19.1243 0.0000 0.0000
# 5 0.0000 0.0000 0.0000 0.0000 16.7794 0.0000
# 6 0.0000 0.0000 0.0000 0.0000 0.0000 24.0800
#
#
#
# Elastic Compliance Matrix: (Units=1/GPa)
#
#
# Indices 1 2 3 4 5 6 
#
# 1 0.014279 -0.004222 -0.006456 0.000000 0.000000 0.000000
# 2 -0.004222 0.009397 -0.002926 0.000000 0.000000 0.000000
# 3 -0.006456 -0.002926 0.029870 0.000000 0.000000 0.000000
# 4 0.000000 0.000000 0.000000 0.052290 0.000000 0.000000
# 5 0.000000 0.000000 0.000000 0.000000 0.059597 0.000000
# 6 0.000000 0.000000 0.000000 0.000000 0.000000 0.041528
#
#
# Mechanical properties :
#
#
# Convention : Reuss Voigt Hill
#
# Bulk Modulus (GPa) = 37.96910 53.43292 45.70101
# Shear Modulus (GPa) = 20.58066 23.56602 22.07334
#
# Velocity S-wave (km/s) = 3.27755 3.50722 3.39433
# Velocity P-wave (km/s) = 5.84308 6.65514 6.26229
#
# Compressibility (1/GPa) = 0.02633721
#
# Stress axis : x y z
#
# Youngs Moduli (GPa) = 70.03519 106.42082 33.47853
#
# Poissons Ratio (x) = 0.44931 0.21614
# Poissons Ratio (y) = 0.29569 0.09796
# Poissons Ratio (z) = 0.45215 0.31139
#
# Static dielectric constant tensor:
#      x y z
#    x 3.450090 0.000000 0.000000 
#    y 0.000000 3.670940 0.000000 
#    z 0.000000 0.000000 3.294790 
# 
# 
# High freq. dielectric constant tensor:
#      x y z
#    x 1.736980 0.000000 0.000000 
#    y 0.000000 1.739450 0.000000 
#    z 0.000000 0.000000 1.729690 
# 
# From -- ./inp_files/17095.got.cif
#   From: 2010.03.12/outbox.cif.g09.slc.cpg/sg65_9_cif.got.tgz:17095.got - 2010.04.10 20:52:16.
