data_PCOD8270808
_publ_section_title
;
Structure prediction by ZEFSAII (Michael W. Deem and Ramdas Pophale) SiO2 
 PCOD8270808
Probable space group: C M M M
;
_chemical_formula_sum "Si O2"
_cell_formula_units_Z 64
_cell_length_a 16.122617
_cell_length_b 8.752949
_cell_length_c 21.727076
_cell_angle_alpha 90.000000
_cell_angle_beta 90.000000
_cell_angle_gamma 90.000000
_cell_volume 3066.134619
_symmetry_space_group_name_H-M "C M M M"
_symmetry_group_IT_number 65
_symmetry_cell_setting 'orthorhombic'
loop_
_space_group_symop_operation_xyz
x,y,z
-x,-y,z
x,-y,-z
-x,y,-z
-x,-y,-z
x,y,-z
-x,y,z
x,-y,z
1/2+x,1/2+y,z
1/2-x,1/2-y,z
1/2+x,1/2-y,-z
1/2-x,1/2+y,-z
1/2-x,1/2-y,-z
1/2+x,1/2+y,-z
1/2-x,1/2+y,z
1/2+x,1/2-y,z
loop_
_atom_site_type_symbol
_atom_site_label
_atom_site_fract_x
_atom_site_fract_y
_atom_site_fract_z
Si Si1 0.337091 0.679641 0.632187
Si Si2 0.000000 0.675014 0.572732
Si Si3 0.907364 0.317483 0.000000
Si Si4 0.664372 0.821240 0.126559
Si Si5 0.094319 0.324991 0.746264
O O1 0.333969 0.500000 0.621718
O O2 0.250000 0.750000 0.607964
O O3 0.415768 0.746701 0.596114
O O4 0.347418 0.718308 0.704633
O O5 0.000000 0.500000 0.595729
O O6 0.000000 0.686997 0.500000
O O7 0.864444 0.250271 0.061377
O O8 0.906694 0.500000 0.000000
O O9 0.000000 0.254624 0.000000
O O10 0.750000 0.750000 0.147327
O O11 0.600758 0.781963 0.181554
O O12 0.674445 0.000000 0.117722
O O13 0.122341 0.500000 0.736192
O O14 0.000000 0.300178 0.724993
#
# Coordination Sequence:
#
# PCOD8270808 Si02
#       5
#    16   8   8  16  16
#     4  12  25  42  67  98 133 174 218 264 317 375
#     4  11  25  47  73 101 135 172 211 260 315 373
#     4   9  17  32  53  75 102 139 194 248 300 369
#     4  10  20  33  52  79 109 149 194 247 307 369
#     4  10  20  36  59  86 120 159 205 259 316 374
#
# _framework density 20.873186
#
# number of rings (size 3 to 8) (size 9 to 14) (size 15 to 20)
#    0.000    1.500    1.250    4.500    0.000    7.500 
#    0.000    0.000    0.000    3.000    0.000    0.000 
#    0.000    0.000    0.000    0.000    0.000    0.000 
#
# Total GULP energy -396804.890159 kJ/mol
# GULP energy per Si atom -12400.152817 kJ/mol
# Density = 2.082568 g / cm^3
# Si number density = 20.873186 Si / 1000 Ang^3
#
#
#
# Elastic Constant Matrix: (Units=GPa)
#
#
# Indices 1 2 3 4 5 6 
#
# 1 146.7073 59.7217 39.4828 0.0000 0.0000 0.0000
# 2 59.7217 105.5243 43.4723 0.0000 0.0000 0.0000
# 3 39.4828 43.4723 99.6898 0.0000 0.0000 0.0000
# 4 0.0000 0.0000 0.0000 23.2956 0.0000 0.0000
# 5 0.0000 0.0000 0.0000 0.0000 34.4095 0.0000
# 6 0.0000 0.0000 0.0000 0.0000 0.0000 32.9151
#
#
#
# Elastic Compliance Matrix: (Units=1/GPa)
#
#
# Indices 1 2 3 4 5 6 
#
# 1 0.009074 -0.004455 -0.001651 0.000000 0.000000 0.000000
# 2 -0.004455 0.013739 -0.004227 0.000000 0.000000 0.000000
# 3 -0.001651 -0.004227 0.012528 0.000000 0.000000 0.000000
# 4 0.000000 0.000000 0.000000 0.042926 0.000000 0.000000
# 5 0.000000 0.000000 0.000000 0.000000 0.029062 0.000000
# 6 0.000000 0.000000 0.000000 0.000000 0.000000 0.030381
#
#
# Mechanical properties :
#
#
# Convention : Reuss Voigt Hill
#
# Bulk Modulus (GPa) = 68.14147 70.80833 69.47490
# Shear Modulus (GPa) = 30.62416 32.07368 31.34892
#
# Velocity S-wave (km/s) = 3.83450 3.92420 3.87961
# Velocity P-wave (km/s) = 7.23331 7.38439 7.30924
#
# Compressibility (1/GPa) = 0.01467535
#
# Stress axis : x y z
#
# Youngs Moduli (GPa) = 110.20040 72.78356 79.81990
#
# Poissons Ratio (x) = 0.32429 0.13179
# Poissons Ratio (y) = 0.49100 0.33738
# Poissons Ratio (z) = 0.18195 0.30764
#
# Static dielectric constant tensor:
#      x y z
#    x 3.848990 0.000000 0.000000 
#    y 0.000000 3.521830 0.000000 
#    z 0.000000 0.000000 3.955550 
# 
# 
# High freq. dielectric constant tensor:
#      x y z
#    x 1.827340 0.000000 0.000000 
#    y 0.000000 1.791670 0.000000 
#    z 0.000000 0.000000 1.829560 
# 
# From -- ./inp_files/66808.got.cif
#   From: 2010.03.12/outbox.cif.g09.slc.cpg/sg65_34_cif.got.tgz:66808.got - 2010.04.10 20:52:16.
