data_PCOD8270391
_publ_section_title
;
Structure prediction by ZEFSAII (Michael W. Deem and Ramdas Pophale) SiO2 
 PCOD8270391
Probable space group: C M M M
;
_chemical_formula_sum "Si O2"
_cell_formula_units_Z 88
_cell_length_a 27.356589
_cell_length_b 19.138342
_cell_length_c 9.206272
_cell_angle_alpha 90.000000
_cell_angle_beta 90.000000
_cell_angle_gamma 90.000000
_cell_volume 4820.033524
_symmetry_space_group_name_H-M "C M M M"
_symmetry_group_IT_number 65
_symmetry_cell_setting 'orthorhombic'
loop_
_space_group_symop_operation_xyz
x,y,z
-x,-y,z
x,-y,-z
-x,y,-z
-x,-y,-z
x,y,-z
-x,y,z
x,-y,z
1/2+x,1/2+y,z
1/2-x,1/2-y,z
1/2+x,1/2-y,-z
1/2-x,1/2+y,-z
1/2-x,1/2-y,-z
1/2+x,1/2+y,-z
1/2-x,1/2+y,z
1/2+x,1/2-y,z
loop_
_atom_site_type_symbol
_atom_site_label
_atom_site_fract_x
_atom_site_fract_y
_atom_site_fract_z
Si Si1 0.746407 0.079779 0.168781
Si Si2 0.183528 0.814007 0.332850
Si Si3 0.500000 0.419601 0.158050
Si Si4 0.947025 0.701137 0.832889
Si Si5 0.840215 0.675183 0.166608
Si Si6 0.072775 0.839134 0.334161
O O1 0.780643 0.131720 0.257039
O O2 0.690356 0.104547 0.193297
O O3 0.751122 0.000000 0.225312
O O4 0.760860 0.084235 0.000000
O O5 0.199167 0.804474 0.500000
O O6 0.183680 0.737477 0.260443
O O7 0.130406 0.847551 0.317860
O O8 0.500000 0.500000 0.129490
O O9 0.548671 0.402158 0.247407
O O10 0.500000 0.381561 0.000000
O O11 0.897381 0.658002 0.793230
O O12 0.947809 0.768202 0.732070
O O13 0.000000 0.661727 0.807332
O O14 0.943549 0.724667 0.000000
O O15 0.836067 0.699661 0.000000
O O16 0.056022 0.841746 0.500000
#
# Coordination Sequence:
#
# PCOD8270391 Si02
#       6
#    16  16   8  16  16  16
#     4  10  21  36  53  73 101 139 178 214 257 310
#     4  10  21  35  53  78 104 131 168 216 263 306
#     4  11  23  35  47  65  93 131 170 205 242 291
#     4   9  16  28  50  76 100 126 160 204 249 296
#     4   9  18  33  53  77 104 135 172 214 258 305
#     4  10  20  33  49  70  97 126 159 204 253 297
#
# _framework density 18.257135000000002
#
# number of rings (size 3 to 8) (size 9 to 14) (size 15 to 20)
#    0.000    2.273    0.909    1.909    0.000    6.909 
#    0.000    3.636    0.000    0.545    0.000    3.818 
#    0.000    0.000    0.000   10.727    0.000   11.273 
#
# Total GULP energy -545240.289151 kJ/mol
# GULP energy per Si atom -12391.824753 kJ/mol
# Density = 1.821558 g / cm^3
# Si number density = 18.257135 Si / 1000 Ang^3
#
#
#
# Elastic Constant Matrix: (Units=GPa)
#
#
# Indices 1 2 3 4 5 6 
#
# 1 119.1610 39.8820 36.7374 0.0000 0.0000 0.0000
# 2 39.8820 58.6666 26.4920 0.0000 0.0000 0.0000
# 3 36.7374 26.4920 89.1986 0.0000 0.0000 0.0000
# 4 0.0000 0.0000 0.0000 -5.6731 0.0000 0.0000
# 5 0.0000 0.0000 0.0000 0.0000 11.6742 0.0000
# 6 0.0000 0.0000 0.0000 0.0000 0.0000 21.2015
#
#
#
# Elastic Compliance Matrix: (Units=1/GPa)
#
#
# Indices 1 2 3 4 5 6 
#
# 1 0.011428 -0.006517 -0.002771 0.000000 0.000000 0.000000
# 2 -0.006517 0.023403 -0.004266 0.000000 0.000000 0.000000
# 3 -0.002771 -0.004266 0.013619 0.000000 0.000000 0.000000
# 4 0.000000 0.000000 0.000000 -0.176272 0.000000 0.000000
# 5 0.000000 0.000000 0.000000 0.000000 0.085659 0.000000
# 6 0.000000 0.000000 0.000000 0.000000 0.000000 0.047166
#
#
# Mechanical properties :
#
#
# Convention : Reuss Voigt Hill
#
# Bulk Modulus (GPa) = 46.85978 52.58322 49.72150
# Shear Modulus (GPa) = 127.46818 16.36818 71.91818
#
# Velocity S-wave (km/s) = 8.36480 2.99747 6.28310
# Velocity P-wave (km/s) = 10.90942 6.39091 8.94033
#
# Compressibility (1/GPa) = 0.02134026
#
# Stress axis : x y z
#
# Youngs Moduli (GPa) = 87.50770 42.73038 73.42529
#
# Poissons Ratio (x) = 0.27849 0.20346
# Poissons Ratio (y) = 0.57031 0.31326
# Poissons Ratio (z) = 0.24248 0.18230
#
# Static dielectric constant tensor:
#      x y z
#    x 3.949940 0.000000 0.000000 
#    y 0.000000 3.034290 0.000000 
#    z 0.000000 0.000000 3.558920 
# 
# 
# High freq. dielectric constant tensor:
#      x y z
#    x 1.730260 0.000000 0.000000 
#    y 0.000000 1.661750 0.000000 
#    z 0.000000 0.000000 1.714270 
# 
# From -- ./inp_files/18302.got.cif
#   From: 2010.03.12/outbox.cif.g09.slc.cpg/sg65_10_cif.got.tgz:18302.got - 2010.04.10 20:52:16.
