data_PCOD8270829
_publ_section_title
;
Structure prediction by ZEFSAII (Michael W. Deem and Ramdas Pophale) SiO2 
 PCOD8270829
Probable space group: C M M M
;
_chemical_formula_sum "Si O2"
_cell_formula_units_Z 96
_cell_length_a 23.743188
_cell_length_b 24.942254
_cell_length_c 8.730599
_cell_angle_alpha 90.000000
_cell_angle_beta 90.000000
_cell_angle_gamma 90.000000
_cell_volume 5170.336037
_symmetry_space_group_name_H-M "C M M M"
_symmetry_group_IT_number 65
_symmetry_cell_setting 'orthorhombic'
loop_
_space_group_symop_operation_xyz
x,y,z
-x,-y,z
x,-y,-z
-x,y,-z
-x,-y,-z
x,y,-z
-x,y,z
x,-y,z
1/2+x,1/2+y,z
1/2-x,1/2-y,z
1/2+x,1/2-y,-z
1/2-x,1/2+y,-z
1/2-x,1/2-y,-z
1/2+x,1/2+y,-z
1/2-x,1/2+y,z
1/2+x,1/2-y,z
loop_
_atom_site_type_symbol
_atom_site_label
_atom_site_fract_x
_atom_site_fract_y
_atom_site_fract_z
Si Si1 0.703135 0.560378 0.678431
Si Si2 0.631781 0.158807 0.319329
Si Si3 0.434903 0.252104 0.176598
Si Si4 0.821148 0.560302 0.819510
Si Si5 0.245596 0.689874 0.166477
Si Si6 0.642434 0.661238 0.675934
O O1 0.719295 0.562535 0.500000
O O2 0.688787 0.500000 0.732147
O O3 0.758690 0.582170 0.769990
O O4 0.646971 0.596685 0.709542
O O5 0.630338 0.155113 0.500000
O O6 0.581466 0.197929 0.266428
O O7 0.629725 0.098117 0.250858
O O8 0.688076 0.184562 0.257228
O O9 0.500000 0.263568 0.207833
O O10 0.402802 0.306669 0.224635
O O11 0.421388 0.241567 0.000000
O O12 0.828675 0.500000 0.754454
O O13 0.827031 0.560543 0.000000
O O14 0.250000 0.750000 0.115483
O O15 0.294629 0.678093 0.285874
O O16 0.246765 0.658200 0.000000
O O17 0.628165 0.673607 0.500000
#
# Coordination Sequence:
#
# PCOD8270829 Si02
#       6
#    16  16  16  16  16  16
#     4   9  18  32  50  77 115 152 183 219 267 323
#     4  12  23  35  56  82 112 146 181 226 277 328
#     4  11  25  43  60  78 104 142 186 233 284 334
#     4  10  20  33  52  80 115 153 187 219 262 322
#     4  11  21  32  50  77 112 149 182 219 268 330
#     4  11  21  33  55  83 112 145 182 226 276 330
#
# _framework density 18.567458999999999
#
# number of rings (size 3 to 8) (size 9 to 14) (size 15 to 20)
#    0.000    1.333    3.333    3.500    0.000    3.667 
#    0.000    0.000    0.000    1.000    0.000    7.000 
#    0.000    0.000    0.000    0.000    0.000    0.000 
#
# Total GULP energy -594794.212045 kJ/mol
# GULP energy per Si atom -12391.546084 kJ/mol
# Density = 1.852520 g / cm^3
# Si number density = 18.567459 Si / 1000 Ang^3
#
#
#
# Elastic Constant Matrix: (Units=GPa)
#
#
# Indices 1 2 3 4 5 6 
#
# 1 51.7128 20.8545 22.8026 0.0000 0.0000 0.0000
# 2 20.8545 90.8841 28.8263 0.0000 0.0000 0.0000
# 3 22.8026 28.8263 95.9545 0.0000 0.0000 0.0000
# 4 0.0000 0.0000 0.0000 30.3395 0.0000 0.0000
# 5 0.0000 0.0000 0.0000 0.0000 23.0333 0.0000
# 6 0.0000 0.0000 0.0000 0.0000 0.0000 12.6385
#
#
#
# Elastic Compliance Matrix: (Units=1/GPa)
#
#
# Indices 1 2 3 4 5 6 
#
# 1 0.022774 -0.003879 -0.004247 0.000000 0.000000 0.000000
# 2 -0.003879 0.012823 -0.002930 0.000000 0.000000 0.000000
# 3 -0.004247 -0.002930 0.012311 0.000000 0.000000 0.000000
# 4 0.000000 0.000000 0.000000 0.032960 0.000000 0.000000
# 5 0.000000 0.000000 0.000000 0.000000 0.043415 0.000000
# 6 0.000000 0.000000 0.000000 0.000000 0.000000 0.079123
#
#
# Mechanical properties :
#
#
# Convention : Reuss Voigt Hill
#
# Bulk Modulus (GPa) = 38.76565 42.61314 40.68939
# Shear Modulus (GPa) = 21.35677 24.27345 22.81511
#
# Velocity S-wave (km/s) = 3.39518 3.61960 3.50918
# Velocity P-wave (km/s) = 6.02439 6.36152 6.19525
#
# Compressibility (1/GPa) = 0.02579603
#
# Stress axis : x y z
#
# Youngs Moduli (GPa) = 43.90882 77.98783 81.22721
#
# Poissons Ratio (x) = 0.30251 0.34496
# Poissons Ratio (y) = 0.17032 0.23802
# Poissons Ratio (z) = 0.18647 0.22853
#
# Static dielectric constant tensor:
#      x y z
#    x 2.999920 0.000000 0.000000 
#    y 0.000000 4.138410 0.000000 
#    z 0.000000 0.000000 3.486160 
# 
# 
# High freq. dielectric constant tensor:
#      x y z
#    x 1.666620 0.000000 0.000000 
#    y 0.000000 1.743810 0.000000 
#    z 0.000000 0.000000 1.738680 
# 
# From -- ./inp_files/12253.got.cif
#   From: 2010.03.12/outbox.cif.g09.slc.cpg/sg65_7_cif.got.tgz:12253.got - 2010.04.10 20:52:16.
