data_PCOD8270217
_publ_section_title
;
Structure prediction by ZEFSAII (Michael W. Deem and Ramdas Pophale) SiO2 
 PCOD8270217
Probable space group: C M M M
;
_chemical_formula_sum "Si O2"
_cell_formula_units_Z 104
_cell_length_a 29.520096
_cell_length_b 14.164974
_cell_length_c 13.138475
_cell_angle_alpha 90.000000
_cell_angle_beta 90.000000
_cell_angle_gamma 90.000000
_cell_volume 5493.871614
_symmetry_space_group_name_H-M "C M M M"
_symmetry_group_IT_number 65
_symmetry_cell_setting 'orthorhombic'
loop_
_space_group_symop_operation_xyz
x,y,z
-x,-y,z
x,-y,-z
-x,y,-z
-x,-y,-z
x,y,-z
-x,y,z
x,-y,z
1/2+x,1/2+y,z
1/2-x,1/2-y,z
1/2+x,1/2-y,-z
1/2-x,1/2+y,-z
1/2-x,1/2-y,-z
1/2+x,1/2+y,-z
1/2-x,1/2+y,z
1/2+x,1/2-y,z
loop_
_atom_site_type_symbol
_atom_site_label
_atom_site_fract_x
_atom_site_fract_y
_atom_site_fract_z
Si Si1 0.946963 0.394929 0.500000
Si Si2 0.552981 0.109632 0.883352
Si Si3 0.097435 0.298998 0.689446
Si Si4 0.876167 0.105529 0.616554
Si Si5 0.197306 0.247136 0.108640
Si Si6 0.712346 0.605815 0.277180
Si Si7 0.313720 0.889557 0.733380
O O1 0.924985 0.500000 0.500000
O O2 0.934323 0.339652 0.397890
O O3 0.000000 0.405035 0.500000
O O4 0.500000 0.128670 0.865993
O O5 0.580887 0.172181 0.802349
O O6 0.564177 0.000000 0.862772
O O7 0.566163 0.136542 0.000000
O O8 0.098265 0.184783 0.683390
O O9 0.147888 0.339528 0.665196
O O10 0.888318 0.124537 0.500000
O O11 0.821313 0.111300 0.627034
O O12 0.892356 0.000000 0.650101
O O13 0.250000 0.250000 0.088717
O O14 0.187026 0.165213 0.189458
O O15 0.180891 0.348217 0.152309
O O16 0.172685 0.228785 0.000000
O O17 0.717531 0.500000 0.234358
O O18 0.763317 0.640246 0.307077
O O19 0.322404 0.000000 0.734011
#
# Coordination Sequence:
#
# PCOD8270217 Si02
#       7
#     8  16  16  16  16  16  16
#     4  11  24  40  59  86 119 151 178 214 279 355
#     4   9  19  37  61  88 118 152 186 220 269 341
#     4  12  21  36  59  86 115 147 185 235 283 331
#     4  10  21  39  59  79 107 147 194 237 280 332
#     4   9  17  29  46  68 100 142 184 225 272 321
#     4   9  18  35  53  71 104 148 191 232 275 322
#     4  10  20  32  49  76 113 147 184 230 274 324
#
# _framework density 18.930183
#
# number of rings (size 3 to 8) (size 9 to 14) (size 15 to 20)
#    0.000    2.077    2.308    2.308    0.000    2.462 
#    1.385    3.846    0.000    2.769    0.000    1.077 
#    0.000    0.000    0.000    0.000    0.000    0.000 
#
# Total GULP energy -644332.796301 kJ/mol
# GULP energy per Si atom -12391.015313 kJ/mol
# Density = 1.888710 g / cm^3
# Si number density = 18.930183 Si / 1000 Ang^3
#
#
#
# Elastic Constant Matrix: (Units=GPa)
#
#
# Indices 1 2 3 4 5 6 
#
# 1 51.3988 40.1354 29.1506 0.0000 0.0000 0.0000
# 2 40.1354 134.3712 48.5816 0.0000 0.0000 0.0000
# 3 29.1506 48.5816 90.6562 0.0000 0.0000 0.0000
# 4 0.0000 0.0000 0.0000 23.8669 0.0000 0.0000
# 5 0.0000 0.0000 0.0000 0.0000 45.1820 0.0000
# 6 0.0000 0.0000 0.0000 0.0000 0.0000 21.9275
#
#
#
# Elastic Compliance Matrix: (Units=1/GPa)
#
#
# Indices 1 2 3 4 5 6 
#
# 1 0.027413 -0.006203 -0.005491 0.000000 0.000000 0.000000
# 2 -0.006203 0.010634 -0.003704 0.000000 0.000000 0.000000
# 3 -0.005491 -0.003704 0.014781 0.000000 0.000000 0.000000
# 4 0.000000 0.000000 0.000000 0.041899 0.000000 0.000000
# 5 0.000000 0.000000 0.000000 0.000000 0.022133 0.000000
# 6 0.000000 0.000000 0.000000 0.000000 0.000000 0.045605
#
#
# Mechanical properties :
#
#
# Convention : Reuss Voigt Hill
#
# Bulk Modulus (GPa) = 45.38622 56.90682 51.14652
# Shear Modulus (GPa) = 24.92458 28.76585 26.84522
#
# Velocity S-wave (km/s) = 3.63252 3.90240 3.76987
# Velocity P-wave (km/s) = 6.45145 7.10153 6.78428
#
# Compressibility (1/GPa) = 0.02203312
#
# Stress axis : x y z
#
# Youngs Moduli (GPa) = 36.47847 94.03754 67.65339
#
# Poissons Ratio (x) = 0.58331 0.37147
# Poissons Ratio (y) = 0.22627 0.25059
# Poissons Ratio (z) = 0.20029 0.34832
#
# Static dielectric constant tensor:
#      x y z
#    x 3.445530 0.000000 0.000000 
#    y 0.000000 3.625500 0.000000 
#    z 0.000000 0.000000 3.511560 
# 
# 
# High freq. dielectric constant tensor:
#      x y z
#    x 1.719850 0.000000 0.000000 
#    y 0.000000 1.738200 0.000000 
#    z 0.000000 0.000000 1.721720 
# 
# From -- ./inp_files/33963.got.cif
#   From: 2010.03.12/outbox.cif.g09.slc.cpg/sg65_17_cif.got.tgz:33963.got - 2010.04.10 20:52:16.
