data_PCOD8270723
_publ_section_title
;
Structure prediction by ZEFSAII (Michael W. Deem and Ramdas Pophale) SiO2 
 PCOD8270723
Probable space group: C M M M
;
_chemical_formula_sum "Si O2"
_cell_formula_units_Z 104
_cell_length_a 28.517285
_cell_length_b 9.199326
_cell_length_c 22.757177
_cell_angle_alpha 90.000000
_cell_angle_beta 90.000000
_cell_angle_gamma 90.000000
_cell_volume 5970.113293
_symmetry_space_group_name_H-M "C M M M"
_symmetry_group_IT_number 65
_symmetry_cell_setting 'orthorhombic'
loop_
_space_group_symop_operation_xyz
x,y,z
-x,-y,z
x,-y,-z
-x,y,-z
-x,-y,-z
x,y,-z
-x,y,z
x,-y,z
1/2+x,1/2+y,z
1/2-x,1/2-y,z
1/2+x,1/2-y,-z
1/2-x,1/2+y,-z
1/2-x,1/2-y,-z
1/2+x,1/2+y,-z
1/2-x,1/2+y,z
1/2+x,1/2-y,z
loop_
_atom_site_type_symbol
_atom_site_label
_atom_site_fract_x
_atom_site_fract_y
_atom_site_fract_z
Si Si1 0.702920 0.831095 0.567884
Si Si2 0.700762 0.170210 0.000000
Si Si3 0.447855 0.667249 0.280770
Si Si4 0.200913 0.829421 0.223486
Si Si5 0.149586 0.330344 0.881391
Si Si6 0.051502 0.668595 0.837882
Si Si7 0.855749 0.166878 0.341629
O O1 0.691382 0.800878 0.500000
O O2 0.750000 0.750000 0.587769
O O3 0.660150 0.770256 0.605732
O O4 0.710098 0.000000 0.581020
O O5 0.750000 0.250000 0.000000
O O6 0.670817 0.217412 0.056486
O O7 0.711024 0.000000 0.000000
O O8 0.500000 0.703478 0.304584
O O9 0.442979 0.500000 0.262234
O O10 0.435641 0.755721 0.222872
O O11 0.410566 0.703699 0.331610
O O12 0.250000 0.750000 0.230136
O O13 0.173234 0.765918 0.168397
O O14 0.172004 0.798009 0.282228
O O15 0.208998 0.000000 0.213070
O O16 0.159273 0.500000 0.868200
O O17 0.093401 0.298208 0.883780
O O18 0.049484 0.500000 0.823408
O O19 0.000000 0.720623 0.861791
O O20 0.848290 0.000000 0.360563
#
# Coordination Sequence:
#
# PCOD8270723 Si02
#       7
#    16   8  16  16  16  16  16
#     4  10  21  36  54  76 103 138 177 214 253 300
#     4  10  22  38  53  71  95 131 176 216 255 304
#     4   9  17  31  51  76 106 136 167 205 250 301
#     4  11  22  34  49  74 104 132 166 208 257 307
#     4  10  20  35  53  73 100 133 169 211 255 303
#     4   9  17  30  50  76 103 131 164 203 252 308
#     4  10  20  33  51  78 106 134 169 209 255 304
#
# _framework density 17.420105
#
# number of rings (size 3 to 8) (size 9 to 14) (size 15 to 20)
#    0.000    2.154    1.538    1.846    0.000    5.846 
#    0.000    0.385    0.000    2.769    0.000    3.231 
#    0.000    4.308    0.000    0.000    0.000    0.000 
#
# Total GULP energy -644759.449166 kJ/mol
# GULP energy per Si atom -12399.220176 kJ/mol
# Density = 1.738046 g / cm^3
# Si number density = 17.420105 Si / 1000 Ang^3
#
#
#
# Elastic Constant Matrix: (Units=GPa)
#
#
# Indices 1 2 3 4 5 6 
#
# 1 143.7248 53.2826 64.9643 0.0000 0.0000 0.0000
# 2 53.2826 66.7750 47.9480 0.0000 0.0000 0.0000
# 3 64.9643 47.9480 92.6217 0.0000 0.0000 0.0000
# 4 0.0000 0.0000 0.0000 25.3469 0.0000 0.0000
# 5 0.0000 0.0000 0.0000 0.0000 22.7050 0.0000
# 6 0.0000 0.0000 0.0000 0.0000 0.0000 10.9146
#
#
#
# Elastic Compliance Matrix: (Units=1/GPa)
#
#
# Indices 1 2 3 4 5 6 
#
# 1 0.011242 -0.005266 -0.005159 0.000000 0.000000 0.000000
# 2 -0.005266 0.026303 -0.009923 0.000000 0.000000 0.000000
# 3 -0.005159 -0.009923 0.019552 0.000000 0.000000 0.000000
# 4 0.000000 0.000000 0.000000 0.039452 0.000000 0.000000
# 5 0.000000 0.000000 0.000000 0.000000 0.044043 0.000000
# 6 0.000000 0.000000 0.000000 0.000000 0.000000 0.091620
#
#
# Mechanical properties :
#
#
# Convention : Reuss Voigt Hill
#
# Bulk Modulus (GPa) = 60.97158 70.61237 65.79197
# Shear Modulus (GPa) = 17.96141 20.92174 19.44157
#
# Velocity S-wave (km/s) = 3.21452 3.46932 3.34435
# Velocity P-wave (km/s) = 6.98958 7.52803 7.26379
#
# Compressibility (1/GPa) = 0.01640108
#
# Stress axis : x y z
#
# Youngs Moduli (GPa) = 88.95362 38.01895 51.14618
#
# Poissons Ratio (x) = 0.20021 0.26386
# Poissons Ratio (y) = 0.46843 0.50751
# Poissons Ratio (z) = 0.45890 0.37725
#
# Static dielectric constant tensor:
#      x y z
#    x 3.683700 0.000000 0.000000 
#    y 0.000000 3.274190 0.000000 
#    z 0.000000 0.000000 3.096920 
# 
# 
# High freq. dielectric constant tensor:
#      x y z
#    x 1.687900 0.000000 0.000000 
#    y 0.000000 1.676640 0.000000 
#    z 0.000000 0.000000 1.649690 
# 
# From -- ./inp_files/66338.got.cif
#   From: 2010.03.12/outbox.cif.g09.slc.cpg/sg65_34_cif.got.tgz:66338.got - 2010.04.10 20:52:16.
