data_PCOD8270308
_publ_section_title
;
Structure prediction by ZEFSAII (Michael W. Deem and Ramdas Pophale) SiO2 
 PCOD8270308
Probable space group: C M M M
;
_chemical_formula_sum "Si O2"
_cell_formula_units_Z 96
_cell_length_a 18.528933
_cell_length_b 17.245493
_cell_length_c 16.937182
_cell_angle_alpha 90.000000
_cell_angle_beta 90.000000
_cell_angle_gamma 90.000000
_cell_volume 5412.117034
_symmetry_space_group_name_H-M "C M M M"
_symmetry_group_IT_number 65
_symmetry_cell_setting 'orthorhombic'
loop_
_space_group_symop_operation_xyz
x,y,z
-x,-y,z
x,-y,-z
-x,y,-z
-x,-y,-z
x,y,-z
-x,y,z
x,-y,z
1/2+x,1/2+y,z
1/2-x,1/2-y,z
1/2+x,1/2-y,-z
1/2-x,1/2+y,-z
1/2-x,1/2-y,-z
1/2+x,1/2+y,-z
1/2-x,1/2+y,z
1/2+x,1/2-y,z
loop_
_atom_site_type_symbol
_atom_site_label
_atom_site_fract_x
_atom_site_fract_y
_atom_site_fract_z
Si Si1 0.418951 0.714774 0.306574
Si Si2 0.146243 0.089764 0.411090
Si Si3 0.917628 0.411566 0.906787
Si Si4 0.316900 0.203092 0.809921
Si Si5 0.713187 0.915040 0.322075
Si Si6 0.918609 0.637648 0.590994
O O1 0.500000 0.713842 0.273698
O O2 0.401809 0.632253 0.345540
O O3 0.369017 0.734724 0.231870
O O4 0.408732 0.775787 0.377005
O O5 0.131878 0.120386 0.500000
O O6 0.230113 0.104881 0.390968
O O7 0.125621 0.000000 0.405350
O O8 0.897917 0.500000 0.880984
O O9 0.862435 0.349757 0.869943
O O10 0.000000 0.393228 0.879773
O O11 0.911232 0.403640 0.000000
O O12 0.250000 0.250000 0.851109
O O13 0.279388 0.148114 0.745804
O O14 0.633674 0.918138 0.360138
O O15 0.728864 0.000000 0.285855
O O16 0.896850 0.637041 0.500000
O O17 0.000000 0.607358 0.603819
#
# Coordination Sequence:
#
# PCOD8270308 Si02
#       6
#    16  16  16  16  16  16
#     4  10  20  34  49  70  98 130 171 219 267 316
#     4  10  20  33  49  68  91 129 180 230 276 313
#     4   9  19  37  61  88 116 144 172 205 250 308
#     4  11  20  34  54  81 107 141 173 207 256 306
#     4  10  20  33  47  68  99 133 170 214 259 312
#     4   9  18  30  45  66  92 125 165 213 270 324
#
# _framework density 17.737974999999999
#
# number of rings (size 3 to 8) (size 9 to 14) (size 15 to 20)
#    0.000    2.167    1.667    2.500    0.000    3.667 
#    0.000    4.167    0.000    0.000    0.000    0.000 
#    0.000    0.000    0.000   11.000    0.000    0.000 
#
# Total GULP energy -595036.351717 kJ/mol
# GULP energy per Si atom -12396.590661 kJ/mol
# Density = 1.769760 g / cm^3
# Si number density = 17.737975 Si / 1000 Ang^3
#
#
#
# Elastic Constant Matrix: (Units=GPa)
#
#
# Indices 1 2 3 4 5 6 
#
# 1 99.1232 53.7007 31.9286 0.0000 0.0000 0.0000
# 2 53.7007 78.6434 33.2918 0.0000 0.0000 0.0000
# 3 31.9286 33.2918 53.4027 0.0000 0.0000 0.0000
# 4 0.0000 0.0000 0.0000 25.0020 0.0000 0.0000
# 5 0.0000 0.0000 0.0000 0.0000 26.3331 0.0000
# 6 0.0000 0.0000 0.0000 0.0000 0.0000 26.9333
#
#
#
# Elastic Compliance Matrix: (Units=1/GPa)
#
#
# Indices 1 2 3 4 5 6 
#
# 1 0.016583 -0.009681 -0.003879 0.000000 0.000000 0.000000
# 2 -0.009681 0.022926 -0.008504 0.000000 0.000000 0.000000
# 3 -0.003879 -0.008504 0.026347 0.000000 0.000000 0.000000
# 4 0.000000 0.000000 0.000000 0.039997 0.000000 0.000000
# 5 0.000000 0.000000 0.000000 0.000000 0.037975 0.000000
# 6 0.000000 0.000000 0.000000 0.000000 0.000000 0.037129
#
#
# Mechanical properties :
#
#
# Convention : Reuss Voigt Hill
#
# Bulk Modulus (GPa) = 46.02703 52.11239 49.06971
# Shear Modulus (GPa) = 21.52126 23.13689 22.32908
#
# Velocity S-wave (km/s) = 3.48701 3.61552 3.55185
# Velocity P-wave (km/s) = 6.49745 6.84632 6.67417
#
# Compressibility (1/GPa) = 0.02172637
#
# Stress axis : x y z
#
# Youngs Moduli (GPa) = 60.30313 43.61776 37.95550
#
# Poissons Ratio (x) = 0.42227 0.14724
# Poissons Ratio (y) = 0.58381 0.32279
# Poissons Ratio (z) = 0.23393 0.37094
#
# Static dielectric constant tensor:
#      x y z
#    x 3.380700 0.000000 0.000000 
#    y 0.000000 3.292840 0.000000 
#    z 0.000000 0.000000 3.002610 
# 
# 
# High freq. dielectric constant tensor:
#      x y z
#    x 1.692320 0.000000 0.000000 
#    y 0.000000 1.685990 0.000000 
#    z 0.000000 0.000000 1.654840 
# 
# From -- ./inp_files/40384.got.cif
#   From: 2010.03.12/outbox.cif.g09.slc.cpg/sg65_21_cif.got.tgz:40384.got - 2010.04.10 20:52:16.
