data_PCOD8270004
_publ_section_title
;
Structure prediction by ZEFSAII (Michael W. Deem and Ramdas Pophale) SiO2 
 PCOD8270004
Probable space group: C M M M
;
_chemical_formula_sum "Si O2"
_cell_formula_units_Z 96
_cell_length_a 8.952374
_cell_length_b 27.467694
_cell_length_c 23.277620
_cell_angle_alpha 90.000000
_cell_angle_beta 90.000000
_cell_angle_gamma 90.000000
_cell_volume 5723.991656
_symmetry_space_group_name_H-M "C M M M"
_symmetry_group_IT_number 65
_symmetry_cell_setting 'orthorhombic'
loop_
_space_group_symop_operation_xyz
x,y,z
-x,-y,z
x,-y,-z
-x,y,-z
-x,-y,-z
x,y,-z
-x,y,z
x,-y,z
1/2+x,1/2+y,z
1/2-x,1/2-y,z
1/2+x,1/2-y,-z
1/2-x,1/2+y,-z
1/2-x,1/2-y,-z
1/2+x,1/2+y,-z
1/2-x,1/2+y,z
1/2+x,1/2-y,z
loop_
_atom_site_type_symbol
_atom_site_label
_atom_site_fract_x
_atom_site_fract_y
_atom_site_fract_z
Si Si1 0.327830 0.944826 0.265621
Si Si2 0.824563 0.698479 0.222305
Si Si3 0.674664 0.299974 0.565248
Si Si4 0.328625 0.855072 0.661077
Si Si5 0.675880 0.608986 0.165772
Si Si6 0.671832 0.055998 0.066257
O O1 0.500000 0.936729 0.246908
O O2 0.290844 0.910163 0.319602
O O3 0.225786 0.931781 0.211524
O O4 0.296437 0.000000 0.284846
O O5 0.750000 0.750000 0.210790
O O6 0.789364 0.681455 0.287062
O O7 0.755918 0.660162 0.177740
O O8 0.000000 0.702014 0.211160
O O9 0.720803 0.312783 0.500000
O O10 0.500000 0.292859 0.571631
O O11 0.750000 0.250000 0.585712
O O12 0.727813 0.343543 0.606035
O O13 0.500000 0.849671 0.642634
O O14 0.500000 0.616595 0.169360
O O15 0.721458 0.590852 0.102783
O O16 0.500000 0.064731 0.083806
O O17 0.715180 0.000000 0.077756
O O18 0.697413 0.069358 0.000000
#
# Coordination Sequence:
#
# PCOD8270004 Si02
#       6
#    16  16  16  16  16  16
#     4   9  18  33  51  70  95 127 161 197 238 283
#     4  10  20  34  51  72  98 127 160 197 238 284
#     4  10  20  32  47  68  94 124 156 191 233 281
#     4   9  18  31  49  72  95 122 155 193 236 280
#     4  11  21  31  47  73 102 130 160 195 237 284
#     4   9  18  33  52  72  96 129 165 199 239 285
#
# _framework density 16.771512000000001
#
# number of rings (size 3 to 8) (size 9 to 14) (size 15 to 20)
#    0.000    2.333    0.000    5.000    0.000    8.667 
#    0.000    0.833    0.000    1.000    0.000    3.500 
#    0.000    0.000    0.000    0.000    0.000    0.000 
#
# Total GULP energy -595327.544546 kJ/mol
# GULP energy per Si atom -12402.657178 kJ/mol
# Density = 1.673334 g / cm^3
# Si number density = 16.771512 Si / 1000 Ang^3
#
#
#
# Elastic Constant Matrix: (Units=GPa)
#
#
# Indices 1 2 3 4 5 6 
#
# 1 89.6524 50.9597 46.9245 0.0000 0.0000 0.0000
# 2 50.9597 125.7978 56.8106 0.0000 0.0000 0.0000
# 3 46.9245 56.8106 89.4444 0.0000 0.0000 0.0000
# 4 0.0000 0.0000 0.0000 25.2353 0.0000 0.0000
# 5 0.0000 0.0000 0.0000 0.0000 28.8868 0.0000
# 6 0.0000 0.0000 0.0000 0.0000 0.0000 27.5686
#
#
#
# Elastic Compliance Matrix: (Units=1/GPa)
#
#
# Indices 1 2 3 4 5 6 
#
# 1 0.016654 -0.003927 -0.006243 0.000000 0.000000 0.000000
# 2 -0.003927 0.012073 -0.005608 0.000000 0.000000 0.000000
# 3 -0.006243 -0.005608 0.018017 0.000000 0.000000 0.000000
# 4 0.000000 0.000000 0.000000 0.039627 0.000000 0.000000
# 5 0.000000 0.000000 0.000000 0.000000 0.034618 0.000000
# 6 0.000000 0.000000 0.000000 0.000000 0.000000 0.036273
#
#
# Mechanical properties :
#
#
# Convention : Reuss Voigt Hill
#
# Bulk Modulus (GPa) = 65.83964 68.25382 67.04673
# Shear Modulus (GPa) = 25.78929 26.35146 26.07037
#
# Velocity S-wave (km/s) = 3.92559 3.96814 3.94692
# Velocity P-wave (km/s) = 7.73880 7.85999 7.79963
#
# Compressibility (1/GPa) = 0.01518842
#
# Stress axis : x y z
#
# Youngs Moduli (GPa) = 60.04606 82.83265 55.50371
#
# Poissons Ratio (x) = 0.32530 0.34649
# Poissons Ratio (y) = 0.23581 0.31124
# Poissons Ratio (z) = 0.37485 0.46449
#
# Static dielectric constant tensor:
#      x y z
#    x 3.137920 0.000000 0.000000 
#    y 0.000000 3.128630 0.000000 
#    z 0.000000 0.000000 3.031990 
# 
# 
# High freq. dielectric constant tensor:
#      x y z
#    x 1.650740 0.000000 0.000000 
#    y 0.000000 1.639740 0.000000 
#    z 0.000000 0.000000 1.632830 
# 
# From -- ./inp_files/60202.got.cif
#   From: 2010.03.12/outbox.cif.g09.slc.cpg/sg65_31_cif.got.tgz:60202.got - 2010.04.10 20:52:16.
