data_PCOD8270506
_publ_section_title
;
Structure prediction by ZEFSAII (Michael W. Deem and Ramdas Pophale) SiO2 
 PCOD8270506
Probable space group: C M M M
;
_chemical_formula_sum "Si O2"
_cell_formula_units_Z 104
_cell_length_a 18.960911
_cell_length_b 7.921526
_cell_length_c 34.977165
_cell_angle_alpha 90.000000
_cell_angle_beta 90.000000
_cell_angle_gamma 90.000000
_cell_volume 5253.547429
_symmetry_space_group_name_H-M "C M M M"
_symmetry_group_IT_number 65
_symmetry_cell_setting 'orthorhombic'
loop_
_space_group_symop_operation_xyz
x,y,z
-x,-y,z
x,-y,-z
-x,y,-z
-x,-y,-z
x,y,-z
-x,y,z
x,-y,z
1/2+x,1/2+y,z
1/2-x,1/2-y,z
1/2+x,1/2-y,-z
1/2-x,1/2+y,-z
1/2-x,1/2-y,-z
1/2+x,1/2+y,-z
1/2-x,1/2+y,z
1/2+x,1/2-y,z
loop_
_atom_site_type_symbol
_atom_site_label
_atom_site_fract_x
_atom_site_fract_y
_atom_site_fract_z
Si Si1 0.579224 0.700741 0.457661
Si Si2 0.672603 0.801065 0.250637
Si Si3 0.078316 0.196141 0.681684
Si Si4 0.083112 0.693507 0.904881
Si Si5 0.669304 0.300439 0.387876
Si Si6 0.325933 0.802818 0.834331
Si Si7 0.916245 0.000000 0.042784
O O1 0.600943 0.766302 0.500000
O O2 0.500000 0.762542 0.447660
O O3 0.580862 0.500000 0.457178
O O4 0.633771 0.774407 0.426460
O O5 0.750000 0.750000 0.265798
O O6 0.613009 0.722005 0.277103
O O7 0.661150 0.724050 0.207847
O O8 0.664320 0.000000 0.251565
O O9 0.127410 0.276950 0.648527
O O10 0.000000 0.278852 0.681042
O O11 0.070628 0.000000 0.673455
O O12 0.106201 0.500000 0.915554
O O13 0.115475 0.755098 0.864645
O O14 0.000000 0.702927 0.900033
O O15 0.109774 0.827288 0.936663
O O16 0.663119 0.500000 0.387675
O O17 0.750000 0.250000 0.385592
O O18 0.250000 0.750000 0.850694
O O19 0.328746 0.000000 0.829113
O O20 0.000000 0.000000 0.041573
O O21 0.884717 0.000000 0.000000
#
# Coordination Sequence:
#
# PCOD8270506 Si02
#       7
#    16  16  16  16  16  16   8
#     4   8  14  27  49  74  96 122 161 206 249 297
#     4  10  20  35  54  76 104 134 171 213 254 306
#     4  10  21  36  52  72  99 132 170 211 258 307
#     4   9  18  33  52  77 107 138 176 222 270 318
#     4  10  20  33  50  72  99 130 164 205 252 302
#     4   9  19  33  52  77 102 136 172 208 257 308
#     4   9  18  32  52  80 108 138 179 223 271 323
#
# _framework density 19.796147000000001
#
# number of rings (size 3 to 8) (size 9 to 14) (size 15 to 20)
#    0.000    2.692    0.000    1.846    1.077    5.846 
#    0.000    3.077    0.000    1.846    0.000    1.077 
#    0.000    0.000    0.000    0.000    0.000    0.000 
#
# Total GULP energy -644547.965582 kJ/mol
# GULP energy per Si atom -12395.153184 kJ/mol
# Density = 1.975109 g / cm^3
# Si number density = 19.796147 Si / 1000 Ang^3
#
#
#
# Elastic Constant Matrix: (Units=GPa)
#
#
# Indices 1 2 3 4 5 6 
#
# 1 124.6502 23.0354 83.4976 0.0000 0.0000 0.0000
# 2 23.0354 41.2623 36.2667 0.0000 0.0000 0.0000
# 3 83.4976 36.2667 156.7993 0.0000 0.0000 0.0000
# 4 0.0000 0.0000 0.0000 15.4971 0.0000 0.0000
# 5 0.0000 0.0000 0.0000 0.0000 32.1506 0.0000
# 6 0.0000 0.0000 0.0000 0.0000 0.0000 21.1681
#
#
#
# Elastic Compliance Matrix: (Units=1/GPa)
#
#
# Indices 1 2 3 4 5 6 
#
# 1 0.012537 -0.001420 -0.006348 0.000000 0.000000 0.000000
# 2 -0.001420 0.030580 -0.006317 0.000000 0.000000 0.000000
# 3 -0.006348 -0.006317 0.011219 0.000000 0.000000 0.000000
# 4 0.000000 0.000000 0.000000 0.064528 0.000000 0.000000
# 5 0.000000 0.000000 0.000000 0.000000 0.031104 0.000000
# 6 0.000000 0.000000 0.000000 0.000000 0.000000 0.047241
#
#
# Mechanical properties :
#
#
# Convention : Reuss Voigt Hill
#
# Bulk Modulus (GPa) = 38.21613 67.59013 52.90313
# Shear Modulus (GPa) = 21.35847 25.75731 23.55789
#
# Velocity S-wave (km/s) = 3.28826 3.61103 3.45342
# Velocity P-wave (km/s) = 5.81064 7.18354 6.53325
#
# Compressibility (1/GPa) = 0.02616696
#
# Stress axis : x y z
#
# Youngs Moduli (GPa) = 79.76514 32.70122 89.13588
#
# Poissons Ratio (x) = 0.04643 0.56580
# Poissons Ratio (y) = 0.11325 0.56306
# Poissons Ratio (z) = 0.50632 0.20657
#
# Static dielectric constant tensor:
#      x y z
#    x 3.729070 0.000000 0.000000 
#    y 0.000000 3.428990 0.000000 
#    z 0.000000 0.000000 4.065970 
# 
# 
# High freq. dielectric constant tensor:
#      x y z
#    x 1.759840 0.000000 0.000000 
#    y 0.000000 1.752870 0.000000 
#    z 0.000000 0.000000 1.776420 
# 
# From -- ./inp_files/78249.got.cif
#   From: 2010.03.12/outbox.cif.g09.slc.cpg/sg65_40_cif.got.tgz:78249.got - 2010.04.10 20:52:16.
