data_PCOD8270523
_publ_section_title
;
Structure prediction by ZEFSAII (Michael W. Deem and Ramdas Pophale) SiO2 
 PCOD8270523
Probable space group: C M M M
;
_chemical_formula_sum "Si O2"
_cell_formula_units_Z 96
_cell_length_a 20.423416
_cell_length_b 28.176585
_cell_length_c 8.943443
_cell_angle_alpha 90.000000
_cell_angle_beta 90.000000
_cell_angle_gamma 90.000000
_cell_volume 5146.612641
_symmetry_space_group_name_H-M "C M M M"
_symmetry_group_IT_number 65
_symmetry_cell_setting 'orthorhombic'
loop_
_space_group_symop_operation_xyz
x,y,z
-x,-y,z
x,-y,-z
-x,y,-z
-x,-y,-z
x,y,-z
-x,y,z
x,-y,z
1/2+x,1/2+y,z
1/2-x,1/2-y,z
1/2+x,1/2-y,-z
1/2-x,1/2+y,-z
1/2-x,1/2-y,-z
1/2+x,1/2+y,-z
1/2-x,1/2+y,z
1/2+x,1/2-y,z
loop_
_atom_site_type_symbol
_atom_site_label
_atom_site_fract_x
_atom_site_fract_y
_atom_site_fract_z
Si Si1 0.192703 0.887454 0.821936
Si Si2 0.575190 0.221848 0.675821
Si Si3 0.815209 0.553126 0.177543
Si Si4 0.427684 0.446793 0.822113
Si Si5 0.187290 0.220101 0.177100
Si Si6 0.925273 0.375996 0.826364
O O1 0.253543 0.917631 0.758331
O O2 0.125991 0.910526 0.757197
O O3 0.198121 0.833515 0.766252
O O4 0.193084 0.888959 0.000000
O O5 0.585365 0.222796 0.500000
O O6 0.500000 0.232823 0.720511
O O7 0.620732 0.261244 0.750040
O O8 0.596008 0.170254 0.735057
O O9 0.815583 0.500000 0.245585
O O10 0.881421 0.579839 0.227003
O O11 0.810709 0.550198 0.000000
O O12 0.500000 0.431263 0.765983
O O13 0.411593 0.500000 0.765667
O O14 0.425836 0.446237 0.000000
O O15 0.250000 0.250000 0.231528
O O16 0.178990 0.223139 0.000000
O O17 0.000000 0.390342 0.794280
O O18 0.913144 0.364215 0.000000
#
# Coordination Sequence:
#
# PCOD8270523 Si02
#       6
#    16  16  16  16  16  16
#     4   9  16  25  39  61  90 123 155 187 229 282
#     4  10  21  36  53  73  98 130 169 211 255 303
#     4   9  16  26  43  68  97 127 158 194 237 286
#     4   8  13  21  33  51  79 114 147 178 216 266
#     4  10  20  33  50  73 101 131 164 204 248 295
#     4   9  17  30  49  72  98 128 161 198 242 292
#
# _framework density 18.653046
#
# number of rings (size 3 to 8) (size 9 to 14) (size 15 to 20)
#    0.000    2.833    0.000    2.500    0.000    7.000 
#    0.000    3.333    0.000    0.500    0.000    2.333 
#    0.000    2.000    0.000    9.167    0.000    7.000 
#
# Total GULP energy -595125.074581 kJ/mol
# GULP energy per Si atom -12398.439054 kJ/mol
# Density = 1.861059 g / cm^3
# Si number density = 18.653046 Si / 1000 Ang^3
#
#
#
# Elastic Constant Matrix: (Units=GPa)
#
#
# Indices 1 2 3 4 5 6 
#
# 1 139.4866 96.8697 20.2963 0.0000 0.0000 0.0000
# 2 96.8697 168.6644 21.3568 0.0000 0.0000 0.0000
# 3 20.2963 21.3568 20.4126 0.0000 0.0000 0.0000
# 4 0.0000 0.0000 0.0000 3.7139 0.0000 0.0000
# 5 0.0000 0.0000 0.0000 0.0000 13.9763 0.0000
# 6 0.0000 0.0000 0.0000 0.0000 0.0000 43.5227
#
#
#
# Elastic Compliance Matrix: (Units=1/GPa)
#
#
# Indices 1 2 3 4 5 6 
#
# 1 0.012467 -0.006445 -0.005654 0.000000 0.000000 0.000000
# 2 -0.006445 0.010166 -0.004228 0.000000 0.000000 0.000000
# 3 -0.005654 -0.004228 0.059034 0.000000 0.000000 0.000000
# 4 0.000000 0.000000 0.000000 0.269257 0.000000 0.000000
# 5 0.000000 0.000000 0.000000 0.000000 0.071550 0.000000
# 6 0.000000 0.000000 0.000000 0.000000 0.000000 0.022977
#
#
# Mechanical properties :
#
#
# Convention : Reuss Voigt Hill
#
# Bulk Modulus (GPa) = 20.40197 67.28992 43.84595
# Shear Modulus (GPa) = 10.11241 24.91196 17.51219
#
# Velocity S-wave (km/s) = 2.33090 3.65847 3.06737
# Velocity P-wave (km/s) = 4.26679 7.34838 6.00850
#
# Compressibility (1/GPa) = 0.04901487
#
# Stress axis : x y z
#
# Youngs Moduli (GPa) = 80.20940 98.37072 16.93928
#
# Poissons Ratio (x) = 0.63395 0.09577
# Poissons Ratio (y) = 0.51691 0.07162
# Poissons Ratio (z) = 0.45348 0.41591
#
# Static dielectric constant tensor:
#      x y z
#    x 3.688730 0.000000 0.000000 
#    y 0.000000 3.616450 0.000000 
#    z 0.000000 0.000000 2.820740 
# 
# 
# High freq. dielectric constant tensor:
#      x y z
#    x 1.740350 0.000000 0.000000 
#    y 0.000000 1.729410 0.000000 
#    z 0.000000 0.000000 1.658520 
# 
# From -- ./inp_files/12231.got.cif
#   From: 2010.03.12/outbox.cif.g09.slc.cpg/sg65_7_cif.got.tgz:12231.got - 2010.04.10 20:52:16.
