data_PCOD8270309
_publ_section_title
;
Structure prediction by ZEFSAII (Michael W. Deem and Ramdas Pophale) SiO2 
 PCOD8270309
Probable space group: C M M M
;
_chemical_formula_sum "Si O2"
_cell_formula_units_Z 72
_cell_length_a 9.944780
_cell_length_b 22.829305
_cell_length_c 18.610543
_cell_angle_alpha 90.000000
_cell_angle_beta 90.000000
_cell_angle_gamma 90.000000
_cell_volume 4225.196536
_symmetry_space_group_name_H-M "C M M M"
_symmetry_group_IT_number 65
_symmetry_cell_setting 'orthorhombic'
loop_
_space_group_symop_operation_xyz
x,y,z
-x,-y,z
x,-y,-z
-x,y,-z
-x,-y,-z
x,y,-z
-x,y,z
x,-y,z
1/2+x,1/2+y,z
1/2-x,1/2-y,z
1/2+x,1/2-y,-z
1/2-x,1/2+y,-z
1/2-x,1/2-y,-z
1/2+x,1/2+y,-z
1/2-x,1/2+y,z
1/2+x,1/2-y,z
loop_
_atom_site_type_symbol
_atom_site_label
_atom_site_fract_x
_atom_site_fract_y
_atom_site_fract_z
Si Si1 0.000000 0.818366 0.915917
Si Si2 0.000000 0.320330 0.081701
Si Si3 0.657741 0.930737 0.294196
Si Si4 0.348903 0.500000 0.084044
Si Si5 0.750870 0.117181 0.852851
Si Si6 0.850010 0.069450 0.420063
O O1 0.000000 0.749125 0.912314
O O2 0.123720 0.842507 0.870982
O O3 0.000000 0.839587 0.000000
O O4 0.126944 0.346486 0.119887
O O5 0.000000 0.340804 0.000000
O O6 0.500000 0.914908 0.299993
O O7 0.730997 0.895058 0.231222
O O8 0.734236 0.908785 0.365862
O O9 0.676756 0.000000 0.281041
O O10 0.500000 0.500000 0.118776
O O11 0.263203 0.444311 0.107071
O O12 0.365291 0.500000 0.000000
O O13 0.816880 0.093644 0.500000
O O14 0.000000 0.090755 0.396332
O O15 0.848960 0.000000 0.421796
#
# Coordination Sequence:
#
# PCOD8270309 Si02
#       6
#     8   8  16   8  16  16
#     4  11  24  41  59  77 100 140 192 240 285 326
#     4  11  24  41  59  77 102 140 188 240 285 322
#     4  10  20  33  47  74 113 147 175 212 268 328
#     4  11  22  35  53  79 108 139 178 223 275 340
#     4  12  22  37  56  80 110 141 181 228 277 333
#     4   8  15  28  48  73 103 142 183 214 248 309
#
# _framework density 17.040627000000001
#
# number of rings (size 3 to 8) (size 9 to 14) (size 15 to 20)
#    0.000    1.667    3.333    3.333    1.556    2.667 
#    0.000    3.333    0.000    0.000    0.000    0.000 
#    0.000    5.333    0.000    0.000    0.000    0.000 
#
# Total GULP energy -446261.044480 kJ/mol
# GULP energy per Si atom -12396.140124 kJ/mol
# Density = 1.700184 g / cm^3
# Si number density = 17.040627 Si / 1000 Ang^3
#
#
#
# Elastic Constant Matrix: (Units=GPa)
#
#
# Indices 1 2 3 4 5 6 
#
# 1 143.6329 32.5162 79.3477 0.0000 0.0000 0.0000
# 2 32.5162 52.5210 32.1508 0.0000 0.0000 0.0000
# 3 79.3477 32.1508 140.3117 0.0000 0.0000 0.0000
# 4 0.0000 0.0000 0.0000 22.4475 0.0000 0.0000
# 5 0.0000 0.0000 0.0000 0.0000 47.3482 0.0000
# 6 0.0000 0.0000 0.0000 0.0000 0.0000 34.1295
#
#
#
# Elastic Compliance Matrix: (Units=1/GPa)
#
#
# Indices 1 2 3 4 5 6 
#
# 1 0.010615 -0.003370 -0.005231 0.000000 0.000000 0.000000
# 2 -0.003370 0.023216 -0.003414 0.000000 0.000000 0.000000
# 3 -0.005231 -0.003414 0.010867 0.000000 0.000000 0.000000
# 4 0.000000 0.000000 0.000000 0.044548 0.000000 0.000000
# 5 0.000000 0.000000 0.000000 0.000000 0.021120 0.000000
# 6 0.000000 0.000000 0.000000 0.000000 0.000000 0.029300
#
#
# Mechanical properties :
#
#
# Convention : Reuss Voigt Hill
#
# Bulk Modulus (GPa) = 48.38103 69.38835 58.88469
# Shear Modulus (GPa) = 29.31088 33.61508 31.46298
#
# Velocity S-wave (km/s) = 4.15186 4.44626 4.30158
# Velocity P-wave (km/s) = 7.17197 8.19553 7.70078
#
# Compressibility (1/GPa) = 0.02066926
#
# Stress axis : x y z
#
# Youngs Moduli (GPa) = 94.21026 43.07345 92.01990
#
# Poissons Ratio (x) = 0.14514 0.48131
# Poissons Ratio (y) = 0.31746 0.31417
# Poissons Ratio (z) = 0.49277 0.14706
#
# Static dielectric constant tensor:
#      x y z
#    x 3.385450 0.000000 0.000000 
#    y 0.000000 2.966360 0.000000 
#    z 0.000000 0.000000 3.427800 
# 
# 
# High freq. dielectric constant tensor:
#      x y z
#    x 1.675280 0.000000 0.000000 
#    y 0.000000 1.621670 0.000000 
#    z 0.000000 0.000000 1.659570 
# 
# From -- ./inp_files/59354.got.cif
#   From: 2010.03.12/outbox.cif.g09.slc.cpg/sg65_30_cif.got.tgz:59354.got - 2010.04.10 20:52:16.
