data_PCOD8270519
_publ_section_title
;
Structure prediction by ZEFSAII (Michael W. Deem and Ramdas Pophale) SiO2 
 PCOD8270519
Probable space group: C M M M
;
_chemical_formula_sum "Si O2"
_cell_formula_units_Z 112
_cell_length_a 14.611096
_cell_length_b 17.078767
_cell_length_c 23.506245
_cell_angle_alpha 90.000000
_cell_angle_beta 90.000000
_cell_angle_gamma 90.000000
_cell_volume 5865.736723
_symmetry_space_group_name_H-M "C M M M"
_symmetry_group_IT_number 65
_symmetry_cell_setting 'orthorhombic'
loop_
_space_group_symop_operation_xyz
x,y,z
-x,-y,z
x,-y,-z
-x,y,-z
-x,-y,-z
x,y,-z
-x,y,z
x,-y,z
1/2+x,1/2+y,z
1/2-x,1/2-y,z
1/2+x,1/2-y,-z
1/2-x,1/2+y,-z
1/2-x,1/2-y,-z
1/2+x,1/2+y,-z
1/2-x,1/2+y,z
1/2+x,1/2-y,z
loop_
_atom_site_type_symbol
_atom_site_label
_atom_site_fract_x
_atom_site_fract_y
_atom_site_fract_z
Si Si1 0.261721 0.589227 0.340746
Si Si2 0.604170 0.352397 0.746728
Si Si3 0.105834 0.673472 0.719259
Si Si4 0.397818 0.590401 0.868671
Si Si5 0.605555 0.908954 0.835145
Si Si6 0.273490 0.092348 0.062503
Si Si7 0.602156 0.593068 0.563898
O O1 0.231814 0.500000 0.352594
O O2 0.327597 0.590158 0.285918
O O3 0.169797 0.640013 0.331118
O O4 0.319826 0.625515 0.393585
O O5 0.500000 0.379132 0.734937
O O6 0.622085 0.265327 0.724290
O O7 0.624643 0.356823 0.813809
O O8 0.137729 0.634439 0.778294
O O9 0.000000 0.652998 0.705708
O O10 0.500000 0.606505 0.891171
O O11 0.384903 0.500000 0.850557
O O12 0.330024 0.613417 0.919571
O O13 0.500000 0.893329 0.847301
O O14 0.658144 0.873566 0.889788
O O15 0.628171 0.000000 0.826295
O O16 0.287977 0.000000 0.058752
O O17 0.292649 0.129351 0.000000
O O18 0.626000 0.621049 0.500000
O O19 0.500000 0.623866 0.580911
O O20 0.601319 0.500000 0.567336
#
# Coordination Sequence:
#
# PCOD8270519 Si02
#       7
#    16  16  16  16  16  16  16
#     4  11  20  30  51  79 104 130 163 205 247 288
#     4  10  20  33  50  73 101 130 161 201 249 298
#     4  10  21  35  50  70 100 137 170 201 242 294
#     4   9  17  29  46  68  93 121 154 194 241 294
#     4   9  17  30  48  67  87 116 158 204 244 282
#     4   9  17  28  43  65  90 115 148 193 244 294
#     4   8  15  29  49  75 106 135 164 202 247 290
#
# _framework density 19.093935999999999
#
# number of rings (size 3 to 8) (size 9 to 14) (size 15 to 20)
#    0.000    2.571    0.000    3.000    0.000    4.000 
#    0.000    2.857    0.000    3.857    0.000    8.000 
#    0.000    0.000    0.000    0.000    0.000    0.000 
#
# Total GULP energy -694269.472403 kJ/mol
# GULP energy per Si atom -12397.669150 kJ/mol
# Density = 1.905048 g / cm^3
# Si number density = 19.093936 Si / 1000 Ang^3
#
#
#
# Elastic Constant Matrix: (Units=GPa)
#
#
# Indices 1 2 3 4 5 6 
#
# 1 98.3868 17.9758 60.9212 0.0000 0.0000 0.0000
# 2 17.9758 32.7609 14.3707 0.0000 0.0000 0.0000
# 3 60.9212 14.3707 104.7730 0.0000 0.0000 0.0000
# 4 0.0000 0.0000 0.0000 8.6377 0.0000 0.0000
# 5 0.0000 0.0000 0.0000 0.0000 34.3693 0.0000
# 6 0.0000 0.0000 0.0000 0.0000 0.0000 20.2823
#
#
#
# Elastic Compliance Matrix: (Units=1/GPa)
#
#
# Indices 1 2 3 4 5 6 
#
# 1 0.016678 -0.005211 -0.008983 0.000000 0.000000 0.000000
# 2 -0.005211 0.034106 -0.001648 0.000000 0.000000 0.000000
# 3 -0.008983 -0.001648 0.014994 0.000000 0.000000 0.000000
# 4 0.000000 0.000000 0.000000 0.115771 0.000000 0.000000
# 5 0.000000 0.000000 0.000000 0.000000 0.029096 0.000000
# 6 0.000000 0.000000 0.000000 0.000000 0.000000 0.049304
#
#
# Mechanical properties :
#
#
# Convention : Reuss Voigt Hill
#
# Bulk Modulus (GPa) = 29.33039 46.93956 38.13498
# Shear Modulus (GPa) = 16.50174 22.16806 19.33490
#
# Velocity S-wave (km/s) = 2.94299 3.41104 3.18562
# Velocity P-wave (km/s) = 5.19063 6.33644 5.79194
#
# Compressibility (1/GPa) = 0.03409433
#
# Stress axis : x y z
#
# Youngs Moduli (GPa) = 59.95799 29.32007 66.69431
#
# Poissons Ratio (x) = 0.15278 0.59912
# Poissons Ratio (y) = 0.31244 0.10992
# Poissons Ratio (z) = 0.53861 0.04832
#
# Static dielectric constant tensor:
#      x y z
#    x 3.676740 0.000000 0.000000 
#    y 0.000000 3.148270 0.000000 
#    z 0.000000 0.000000 3.598850 
# 
# 
# High freq. dielectric constant tensor:
#      x y z
#    x 1.750950 0.000000 0.000000 
#    y 0.000000 1.704310 0.000000 
#    z 0.000000 0.000000 1.728030 
# 
# From -- ./inp_files/69956.got.cif
#   From: 2010.03.12/outbox.cif.g09.slc.cpg/sg65_35_cif.got.tgz:69956.got - 2010.04.10 20:52:16.
