data_PCOD8270648
_publ_section_title
;
Structure prediction by ZEFSAII (Michael W. Deem and Ramdas Pophale) SiO2 
 PCOD8270648
Probable space group: C M M M
;
_chemical_formula_sum "Si O2"
_cell_formula_units_Z 96
_cell_length_a 29.347717
_cell_length_b 8.826498
_cell_length_c 18.814442
_cell_angle_alpha 90.000000
_cell_angle_beta 90.000000
_cell_angle_gamma 90.000000
_cell_volume 4873.647250
_symmetry_space_group_name_H-M "C M M M"
_symmetry_group_IT_number 65
_symmetry_cell_setting 'orthorhombic'
loop_
_space_group_symop_operation_xyz
x,y,z
-x,-y,z
x,-y,-z
-x,y,-z
-x,-y,-z
x,y,-z
-x,y,z
x,-y,z
1/2+x,1/2+y,z
1/2-x,1/2-y,z
1/2+x,1/2-y,-z
1/2-x,1/2+y,-z
1/2-x,1/2-y,-z
1/2+x,1/2+y,-z
1/2-x,1/2+y,z
1/2+x,1/2-y,z
loop_
_atom_site_type_symbol
_atom_site_label
_atom_site_fract_x
_atom_site_fract_y
_atom_site_fract_z
Si Si1 0.167591 0.826315 0.921579
Si Si2 0.572780 0.828671 0.078805
Si Si3 0.116898 0.323590 0.305304
Si Si4 0.549739 0.668195 0.791285
Si Si5 0.948383 0.824064 0.417486
Si Si6 0.702894 0.322352 0.231864
O O1 0.125706 0.712943 0.918639
O O2 0.197863 0.784435 0.852655
O O3 0.150739 0.000000 0.914226
O O4 0.192008 0.805457 0.000000
O O5 0.544146 0.712646 0.126590
O O6 0.566930 0.000000 0.106291
O O7 0.553009 0.812305 0.000000
O O8 0.126381 0.500000 0.315451
O O9 0.082049 0.294671 0.241398
O O10 0.091976 0.260442 0.375675
O O11 0.163956 0.243325 0.283874
O O12 0.500000 0.670200 0.754853
O O13 0.571211 0.500000 0.783080
O O14 0.938198 0.798114 0.500000
O O15 0.000000 0.765124 0.399800
O O16 0.945623 0.000000 0.396922
O O17 0.704371 0.500000 0.244850
O O18 0.750000 0.250000 0.257691
#
# Coordination Sequence:
#
# PCOD8270648 Si02
#       6
#    16  16  16  16  16  16
#     4   9  18  34  56  79 106 145 191 240 298 360
#     4  10  20  33  51  75 104 140 184 237 293 348
#     4  12  24  38  59  87 121 156 192 238 292 344
#     4  11  23  37  54  77 107 148 195 238 285 346
#     4   9  19  38  65  96 129 164 199 233 275 335
#     4  11  23  39  60  85 116 153 198 248 299 357
#
# _framework density 19.697773999999999
#
# number of rings (size 3 to 8) (size 9 to 14) (size 15 to 20)
#    0.000    1.667    1.667    4.000    0.000    6.333 
#    0.000    2.500    0.000    0.500    0.000    0.000 
#    0.000    0.000    0.000    0.000    0.000    0.000 
#
# Total GULP energy -594798.267742 kJ/mol
# GULP energy per Si atom -12391.630578 kJ/mol
# Density = 1.965294 g / cm^3
# Si number density = 19.697774 Si / 1000 Ang^3
#
#
#
# Elastic Constant Matrix: (Units=GPa)
#
#
# Indices 1 2 3 4 5 6 
#
# 1 120.1532 48.8979 49.6812 0.0000 0.0000 0.0000
# 2 48.8979 98.2564 49.1003 0.0000 0.0000 0.0000
# 3 49.6812 49.1003 103.4723 0.0000 0.0000 0.0000
# 4 0.0000 0.0000 0.0000 28.7420 0.0000 0.0000
# 5 0.0000 0.0000 0.0000 0.0000 39.8095 0.0000
# 6 0.0000 0.0000 0.0000 0.0000 0.0000 28.2714
#
#
#
# Elastic Compliance Matrix: (Units=1/GPa)
#
#
# Indices 1 2 3 4 5 6 
#
# 1 0.011397 -0.003850 -0.003645 0.000000 0.000000 0.000000
# 2 -0.003850 0.014642 -0.005099 0.000000 0.000000 0.000000
# 3 -0.003645 -0.005099 0.013834 0.000000 0.000000 0.000000
# 4 0.000000 0.000000 0.000000 0.034792 0.000000 0.000000
# 5 0.000000 0.000000 0.000000 0.000000 0.025120 0.000000
# 6 0.000000 0.000000 0.000000 0.000000 0.000000 0.035371
#
#
# Mechanical properties :
#
#
# Convention : Reuss Voigt Hill
#
# Bulk Modulus (GPa) = 68.10217 68.58228 68.34223
# Shear Modulus (GPa) = 30.25912 30.97809 30.61861
#
# Velocity S-wave (km/s) = 3.92365 3.96999 3.94689
# Velocity P-wave (km/s) = 7.42801 7.47712 7.45260
#
# Compressibility (1/GPa) = 0.01468382
#
# Stress axis : x y z
#
# Youngs Moduli (GPa) = 87.74437 68.29813 72.28432
#
# Poissons Ratio (x) = 0.26296 0.26348
# Poissons Ratio (y) = 0.33783 0.36859
# Poissons Ratio (z) = 0.31983 0.34827
#
# Static dielectric constant tensor:
#      x y z
#    x 3.393770 0.000000 0.000000 
#    y 0.000000 3.531370 0.000000 
#    z 0.000000 0.000000 3.706880 
# 
# 
# High freq. dielectric constant tensor:
#      x y z
#    x 1.749090 0.000000 0.000000 
#    y 0.000000 1.769940 0.000000 
#    z 0.000000 0.000000 1.762490 
# 
# From -- ./inp_files/65746.got.cif
#   From: 2010.03.12/outbox.cif.g09.slc.cpg/sg65_33_cif.got.tgz:65746.got - 2010.04.10 20:52:16.
