data_PCOD8270904
_publ_section_title
;
Structure prediction by ZEFSAII (Michael W. Deem and Ramdas Pophale) SiO2 
 PCOD8270904
Probable space group: C M M M
;
_chemical_formula_sum "Si O2"
_cell_formula_units_Z 88
_cell_length_a 17.882418
_cell_length_b 29.292445
_cell_length_c 9.359144
_cell_angle_alpha 90.000000
_cell_angle_beta 90.000000
_cell_angle_gamma 90.000000
_cell_volume 4902.504430
_symmetry_space_group_name_H-M "C M M M"
_symmetry_group_IT_number 65
_symmetry_cell_setting 'orthorhombic'
loop_
_space_group_symop_operation_xyz
x,y,z
-x,-y,z
x,-y,-z
-x,y,-z
-x,-y,-z
x,y,-z
-x,y,z
x,-y,z
1/2+x,1/2+y,z
1/2-x,1/2-y,z
1/2+x,1/2-y,-z
1/2-x,1/2+y,-z
1/2-x,1/2-y,-z
1/2+x,1/2+y,-z
1/2-x,1/2+y,z
1/2+x,1/2-y,z
loop_
_atom_site_type_symbol
_atom_site_label
_atom_site_fract_x
_atom_site_fract_y
_atom_site_fract_z
Si Si1 0.913934 0.746661 0.658081
Si Si2 0.500000 0.549924 0.330971
Si Si3 0.662263 0.445527 0.337181
Si Si4 0.276739 0.886858 0.830304
Si Si5 0.914716 0.356969 0.668021
Si Si6 0.299398 0.707096 0.166173
O O1 0.878763 0.749379 0.500000
O O2 0.902817 0.695365 0.718576
O O3 0.877903 0.785728 0.755692
O O4 0.000000 0.759169 0.651980
O O5 0.500000 0.500000 0.258685
O O6 0.500000 0.543975 0.500000
O O7 0.420606 0.573897 0.288887
O O8 0.680068 0.430228 0.500000
O O9 0.661795 0.500000 0.326714
O O10 0.725309 0.427031 0.230836
O O11 0.358947 0.889039 0.758789
O O12 0.239301 0.839269 0.783785
O O13 0.284817 0.892255 0.000000
O O14 0.897990 0.362031 0.500000
O O15 0.000000 0.372171 0.700545
O O16 0.250000 0.750000 0.213254
O O17 0.315737 0.706325 0.000000
#
# Coordination Sequence:
#
# PCOD8270904 Si02
#       6
#    16   8  16  16  16  16
#     4   9  18  32  50  72  96 127 172 220 259 295
#     4   7  12  28  55  81 101 127 167 209 249 299
#     4   9  18  35  59  82 104 133 170 213 260 308
#     4  11  22  34  51  77 107 139 174 211 255 307
#     4   9  18  33  53  76 101 131 172 219 261 305
#     4  10  20  34  48  68 102 141 175 206 245 299
#
# _framework density 17.950009999999999
#
# number of rings (size 3 to 8) (size 9 to 14) (size 15 to 20)
#    0.000    2.636    1.818    2.727    0.000    2.909 
#    1.636    2.273    0.000    2.182    0.000    3.818 
#    0.000    0.000    0.000    0.000    0.000    0.000 
#
# Total GULP energy -545320.309709 kJ/mol
# GULP energy per Si atom -12393.643402 kJ/mol
# Density = 1.790916 g / cm^3
# Si number density = 17.950010 Si / 1000 Ang^3
#
#
#
# Elastic Constant Matrix: (Units=GPa)
#
#
# Indices 1 2 3 4 5 6 
#
# 1 128.3268 33.8547 58.5495 0.0000 0.0000 0.0000
# 2 33.8547 39.8106 25.4357 0.0000 0.0000 0.0000
# 3 58.5495 25.4357 61.3608 0.0000 0.0000 0.0000
# 4 0.0000 0.0000 0.0000 25.1669 0.0000 0.0000
# 5 0.0000 0.0000 0.0000 0.0000 22.9749 0.0000
# 6 0.0000 0.0000 0.0000 0.0000 0.0000 27.8269
#
#
#
# Elastic Compliance Matrix: (Units=1/GPa)
#
#
# Indices 1 2 3 4 5 6 
#
# 1 0.014426 -0.004724 -0.011806 0.000000 0.000000 0.000000
# 2 -0.004724 0.035715 -0.010297 0.000000 0.000000 0.000000
# 3 -0.011806 -0.010297 0.031831 0.000000 0.000000 0.000000
# 4 0.000000 0.000000 0.000000 0.039735 0.000000 0.000000
# 5 0.000000 0.000000 0.000000 0.000000 0.043526 0.000000
# 6 0.000000 0.000000 0.000000 0.000000 0.000000 0.035936
#
#
# Mechanical properties :
#
#
# Convention : Reuss Voigt Hill
#
# Bulk Modulus (GPa) = 35.31527 51.68645 43.50086
# Shear Modulus (GPa) = 18.92049 22.63762 20.77905
#
# Velocity S-wave (km/s) = 3.25016 3.55512 3.40605
# Velocity P-wave (km/s) = 5.81392 6.76084 6.30518
#
# Compressibility (1/GPa) = 0.02831637
#
# Stress axis : x y z
#
# Youngs Moduli (GPa) = 69.32112 27.99907 31.41583
#
# Poissons Ratio (x) = 0.13227 0.37091
# Poissons Ratio (y) = 0.32748 0.32350
# Poissons Ratio (z) = 0.81843 0.28832
#
# Static dielectric constant tensor:
#      x y z
#    x 3.484260 0.000000 0.000000 
#    y 0.000000 2.990870 0.000000 
#    z 0.000000 0.000000 3.125770 
# 
# 
# High freq. dielectric constant tensor:
#      x y z
#    x 1.706140 0.000000 0.000000 
#    y 0.000000 1.656760 0.000000 
#    z 0.000000 0.000000 1.682210 
# 
# From -- ./inp_files/9999.got.cif
#   From: 2010.03.12/outbox.cif.g09.slc.cpg/sg65_5_cif.got.tgz:9999.got - 2010.04.10 20:52:16.
