data_PCOD8270350
_publ_section_title
;
Structure prediction by ZEFSAII (Michael W. Deem and Ramdas Pophale) SiO2 
 PCOD8270350
Probable space group: C M M M
;
_chemical_formula_sum "Si O2"
_cell_formula_units_Z 104
_cell_length_a 9.367140
_cell_length_b 29.500470
_cell_length_c 23.212131
_cell_angle_alpha 90.000000
_cell_angle_beta 90.000000
_cell_angle_gamma 90.000000
_cell_volume 6414.324976
_symmetry_space_group_name_H-M "C M M M"
_symmetry_group_IT_number 65
_symmetry_cell_setting 'orthorhombic'
loop_
_space_group_symop_operation_xyz
x,y,z
-x,-y,z
x,-y,-z
-x,y,-z
-x,-y,-z
x,y,-z
-x,y,z
x,-y,z
1/2+x,1/2+y,z
1/2-x,1/2-y,z
1/2+x,1/2-y,-z
1/2-x,1/2+y,-z
1/2-x,1/2-y,-z
1/2+x,1/2+y,-z
1/2-x,1/2+y,z
1/2+x,1/2-y,z
loop_
_atom_site_type_symbol
_atom_site_label
_atom_site_fract_x
_atom_site_fract_y
_atom_site_fract_z
Si Si1 0.166110 0.707746 0.825294
Si Si2 0.662294 0.321100 0.065465
Si Si3 0.335554 0.109750 0.217546
Si Si4 0.839890 0.946206 0.563065
Si Si5 0.344960 0.000000 0.934015
Si Si6 0.165903 0.551794 0.671577
Si Si7 0.662330 0.580614 0.889199
O O1 0.250000 0.750000 0.796377
O O2 0.228827 0.701455 0.889752
O O3 0.189835 0.664083 0.784241
O O4 0.000000 0.719417 0.831340
O O5 0.500000 0.305031 0.078656
O O6 0.671657 0.374984 0.071799
O O7 0.706259 0.308153 0.000000
O O8 0.500000 0.099057 0.200932
O O9 0.296085 0.087559 0.278550
O O10 0.227984 0.087000 0.173596
O O11 0.786378 0.928865 0.500000
O O12 0.740531 0.928400 0.614399
O O13 0.000000 0.928454 0.574139
O O14 0.837329 0.000000 0.563117
O O15 0.254255 0.043721 0.920747
O O16 0.500000 0.000000 0.901481
O O17 0.380070 0.000000 0.000000
O O18 0.215510 0.500000 0.687193
O O19 0.000000 0.551560 0.658321
O O20 0.500000 0.564140 0.881756
#
# Coordination Sequence:
#
# PCOD8270350 Si02
#       7
#    16  16  16  16   8  16  16
#     4  10  20  34  51  69  90 116 148 185 228 279
#     4   9  18  33  51  69  90 113 138 176 228 282
#     4   9  19  34  49  68  94 123 152 187 231 277
#     4   8  14  25  40  60  90 127 162 194 225 255
#     4  11  23  35  47  63  85 117 154 189 228 275
#     4   9  17  28  44  67  94 126 159 190 223 262
#     4  10  20  33  49  68  88 114 149 190 231 271
#
# _framework density 16.213709000000001
#
# number of rings (size 3 to 8) (size 9 to 14) (size 15 to 20)
#    0.000    2.692    0.000    2.077    1.077    4.000 
#    0.000    1.538    0.000    0.000    0.000    0.000 
#    0.000    0.615    0.000    1.385    0.000    2.462 
#
# Total GULP energy -644508.602763 kJ/mol
# GULP energy per Si atom -12394.396207 kJ/mol
# Density = 1.617681 g / cm^3
# Si number density = 16.213709 Si / 1000 Ang^3
#
#
#
# Elastic Constant Matrix: (Units=GPa)
#
#
# Indices 1 2 3 4 5 6 
#
# 1 96.1658 42.3436 47.5233 0.0000 0.0000 0.0000
# 2 42.3436 71.4884 39.8392 0.0000 0.0000 0.0000
# 3 47.5233 39.8392 102.7998 0.0000 0.0000 0.0000
# 4 0.0000 0.0000 0.0000 22.0676 0.0000 0.0000
# 5 0.0000 0.0000 0.0000 0.0000 26.7955 0.0000
# 6 0.0000 0.0000 0.0000 0.0000 0.0000 26.1791
#
#
#
# Elastic Compliance Matrix: (Units=1/GPa)
#
#
# Indices 1 2 3 4 5 6 
#
# 1 0.015629 -0.006672 -0.004640 0.000000 0.000000 0.000000
# 2 -0.006672 0.020690 -0.004934 0.000000 0.000000 0.000000
# 3 -0.004640 -0.004934 0.013785 0.000000 0.000000 0.000000
# 4 0.000000 0.000000 0.000000 0.045315 0.000000 0.000000
# 5 0.000000 0.000000 0.000000 0.000000 0.037320 0.000000
# 6 0.000000 0.000000 0.000000 0.000000 0.000000 0.038198
#
#
# Mechanical properties :
#
#
# Convention : Reuss Voigt Hill
#
# Bulk Modulus (GPa) = 56.77643 58.87399 57.82521
# Shear Modulus (GPa) = 23.88936 24.39164 24.14050
#
# Velocity S-wave (km/s) = 3.84266 3.88285 3.86281
# Velocity P-wave (km/s) = 7.40146 7.51612 7.45901
#
# Compressibility (1/GPa) = 0.01761294
#
# Stress axis : x y z
#
# Youngs Moduli (GPa) = 63.98254 48.33346 72.54509
#
# Poissons Ratio (x) = 0.32247 0.33658
# Poissons Ratio (y) = 0.42688 0.35792
# Poissons Ratio (z) = 0.29686 0.23847
#
# Static dielectric constant tensor:
#      x y z
#    x 3.250900 0.000000 0.000000 
#    y 0.000000 3.109950 0.000000 
#    z 0.000000 0.000000 3.075880 
# 
# 
# High freq. dielectric constant tensor:
#      x y z
#    x 1.635190 0.000000 0.000000 
#    y 0.000000 1.602610 0.000000 
#    z 0.000000 0.000000 1.603590 
# 
# From -- ./inp_files/68478.got.cif
#   From: 2010.03.12/outbox.cif.g09.slc.cpg/sg65_35_cif.got.tgz:68478.got - 2010.04.10 20:52:16.
