data_PCOD8270741
_publ_section_title
;
Structure prediction by ZEFSAII (Michael W. Deem and Ramdas Pophale) SiO2 
 PCOD8270741
Probable space group: C M M M
;
_chemical_formula_sum "Si O2"
_cell_formula_units_Z 80
_cell_length_a 17.818004
_cell_length_b 19.346556
_cell_length_c 13.155772
_cell_angle_alpha 90.000000
_cell_angle_beta 90.000000
_cell_angle_gamma 90.000000
_cell_volume 4535.018417
_symmetry_space_group_name_H-M "C M M M"
_symmetry_group_IT_number 65
_symmetry_cell_setting 'orthorhombic'
loop_
_space_group_symop_operation_xyz
x,y,z
-x,-y,z
x,-y,-z
-x,y,-z
-x,-y,-z
x,y,-z
-x,y,z
x,-y,z
1/2+x,1/2+y,z
1/2-x,1/2-y,z
1/2+x,1/2-y,-z
1/2-x,1/2+y,-z
1/2-x,1/2-y,-z
1/2+x,1/2+y,-z
1/2-x,1/2+y,z
1/2+x,1/2-y,z
loop_
_atom_site_type_symbol
_atom_site_label
_atom_site_fract_x
_atom_site_fract_y
_atom_site_fract_z
Si Si1 0.780929 0.326471 0.385026
Si Si2 0.912012 0.829368 0.881472
Si Si3 0.291903 0.419547 0.222136
Si Si4 0.362318 0.923060 0.881631
Si Si5 0.083557 0.304627 0.755810
O O1 0.786834 0.353872 0.500000
O O2 0.750000 0.250000 0.380407
O O3 0.725375 0.378290 0.325949
O O4 0.864019 0.323233 0.338646
O O5 0.867304 0.893093 0.832261
O O6 0.887058 0.760421 0.821392
O O7 0.000000 0.844561 0.868110
O O8 0.891261 0.820435 0.000000
O O9 0.302568 0.500000 0.248529
O O10 0.223807 0.405745 0.144897
O O11 0.419265 0.870553 0.829476
O O12 0.382437 0.000000 0.843529
O O13 0.373681 0.915847 0.000000
O O14 0.000000 0.290306 0.714115
#
# Coordination Sequence:
#
# PCOD8270741 Si02
#       5
#    16  16  16  16  16
#     4  10  20  37  59  80 100 131 177 221 265 316
#     4  10  20  33  51  78 111 147 183 216 257 312
#     4  10  20  35  54  78 107 139 177 222 269 313
#     4   9  18  31  49  75 106 142 180 216 258 311
#     4  10  20  34  52  78 110 141 174 216 265 315
#
# _framework density 17.640502000000001
#
# number of rings (size 3 to 8) (size 9 to 14) (size 15 to 20)
#    0.000    2.200    2.000    1.200    0.000    4.000 
#    0.000    5.000    0.000    0.600    0.000    7.000 
#    0.000    0.000    0.000    0.000    0.000    0.000 
#
# Total GULP energy -496019.202701 kJ/mol
# GULP energy per Si atom -12400.480068 kJ/mol
# Density = 1.760035 g / cm^3
# Si number density = 17.640502 Si / 1000 Ang^3
#
#
#
# Elastic Constant Matrix: (Units=GPa)
#
#
# Indices 1 2 3 4 5 6 
#
# 1 63.8095 27.2377 36.8129 0.0000 0.0000 0.0000
# 2 27.2377 92.7481 37.0297 0.0000 0.0000 0.0000
# 3 36.8129 37.0297 94.2909 0.0000 0.0000 0.0000
# 4 0.0000 0.0000 0.0000 50.4327 0.0000 0.0000
# 5 0.0000 0.0000 0.0000 0.0000 20.3271 0.0000
# 6 0.0000 0.0000 0.0000 0.0000 0.0000 25.4490
#
#
#
# Elastic Compliance Matrix: (Units=1/GPa)
#
#
# Indices 1 2 3 4 5 6 
#
# 1 0.021120 -0.003452 -0.006890 0.000000 0.000000 0.000000
# 2 -0.003452 0.013351 -0.003896 0.000000 0.000000 0.000000
# 3 -0.006890 -0.003896 0.014825 0.000000 0.000000 0.000000
# 4 0.000000 0.000000 0.000000 0.019828 0.000000 0.000000
# 5 0.000000 0.000000 0.000000 0.000000 0.049195 0.000000
# 6 0.000000 0.000000 0.000000 0.000000 0.000000 0.039294
#
#
# Mechanical properties :
#
#
# Convention : Reuss Voigt Hill
#
# Bulk Modulus (GPa) = 48.02676 50.33435 49.18055
# Shear Modulus (GPa) = 25.90277 29.22629 27.56453
#
# Velocity S-wave (km/s) = 3.83609 4.07476 3.95722
# Velocity P-wave (km/s) = 6.84873 7.12275 6.98709
#
# Compressibility (1/GPa) = 0.02082173
#
# Stress axis : x y z
#
# Youngs Moduli (GPa) = 47.34837 74.90177 67.45177
#
# Poissons Ratio (x) = 0.25852 0.46476
# Poissons Ratio (y) = 0.16342 0.26276
# Poissons Ratio (z) = 0.32624 0.29178
#
# Static dielectric constant tensor:
#      x y z
#    x 3.144430 0.000000 0.000000 
#    y 0.000000 3.376050 0.000000 
#    z 0.000000 0.000000 3.279090 
# 
# 
# High freq. dielectric constant tensor:
#      x y z
#    x 1.678780 0.000000 0.000000 
#    y 0.000000 1.689110 0.000000 
#    z 0.000000 0.000000 1.672140 
# 
# From -- ./inp_files/40023.got.cif
#   From: 2010.03.12/outbox.cif.g09.slc.cpg/sg65_21_cif.got.tgz:40023.got - 2010.04.10 20:52:16.
