data_PCOD8270492
_publ_section_title
;
Structure prediction by ZEFSAII (Michael W. Deem and Ramdas Pophale) SiO2 
 PCOD8270492
Probable space group: C M M M
;
_chemical_formula_sum "Si O2"
_cell_formula_units_Z 80
_cell_length_a 9.372335
_cell_length_b 19.301358
_cell_length_c 25.210630
_cell_angle_alpha 90.000000
_cell_angle_beta 90.000000
_cell_angle_gamma 90.000000
_cell_volume 4560.572541
_symmetry_space_group_name_H-M "C M M M"
_symmetry_group_IT_number 65
_symmetry_cell_setting 'orthorhombic'
loop_
_space_group_symop_operation_xyz
x,y,z
-x,-y,z
x,-y,-z
-x,y,-z
-x,-y,-z
x,y,-z
-x,y,z
x,-y,z
1/2+x,1/2+y,z
1/2-x,1/2-y,z
1/2+x,1/2-y,-z
1/2-x,1/2+y,-z
1/2-x,1/2-y,-z
1/2+x,1/2+y,-z
1/2-x,1/2+y,z
1/2+x,1/2-y,z
loop_
_atom_site_type_symbol
_atom_site_label
_atom_site_fract_x
_atom_site_fract_y
_atom_site_fract_z
Si Si1 0.158205 0.917649 0.097215
Si Si2 0.659617 0.082816 0.000000
Si Si3 0.834441 0.318178 0.411577
Si Si4 0.833026 0.319170 0.710562
Si Si5 0.168927 0.577029 0.500000
Si Si6 0.164359 0.918675 0.215882
O O1 0.204925 0.894385 0.156178
O O2 0.000000 0.889425 0.084540
O O3 0.156123 0.000000 0.095024
O O4 0.264526 0.887591 0.052820
O O5 0.500000 0.111742 0.000000
O O6 0.662881 0.000000 0.000000
O O7 0.750000 0.250000 0.429004
O O8 0.804491 0.337513 0.350710
O O9 0.780443 0.382123 0.447405
O O10 0.000000 0.302518 0.421774
O O11 0.750000 0.250000 0.727275
O O12 0.771917 0.382320 0.744132
O O13 0.000000 0.309071 0.722424
O O14 0.237642 0.500000 0.500000
O O15 0.000000 0.570316 0.500000
O O16 0.000000 0.899249 0.228351
O O17 0.188146 0.000000 0.222433
#
# Coordination Sequence:
#
# PCOD8270492 Si02
#       6
#    16   8  16  16   8  16
#     4   8  14  25  40  58  84 120 157 190 230 283
#     4   9  15  21  33  57  88 119 152 193 236 275
#     4   9  18  32  51  72  93 123 160 197 236 279
#     4  10  20  33  50  72  97 126 163 204 243 287
#     4   9  17  30  49  73 100 127 156 192 234 281
#     4   9  18  32  49  70  97 128 161 199 245 293
#
# _framework density 17.541657000000001
#
# number of rings (size 3 to 8) (size 9 to 14) (size 15 to 20)
#    0.000    3.000    0.000    2.400    0.000    4.000 
#    0.000    4.000    0.000    1.200    0.000    0.700 
#    0.000    0.000    0.000    0.000    0.000    0.000 
#
# Total GULP energy -495891.997071 kJ/mol
# GULP energy per Si atom -12397.299927 kJ/mol
# Density = 1.750173 g / cm^3
# Si number density = 17.541657 Si / 1000 Ang^3
#
#
#
# Elastic Constant Matrix: (Units=GPa)
#
#
# Indices 1 2 3 4 5 6 
#
# 1 96.4671 47.2339 65.4130 0.0000 0.0000 0.0000
# 2 47.2339 78.0201 58.8183 0.0000 0.0000 0.0000
# 3 65.4130 58.8183 118.4612 0.0000 0.0000 0.0000
# 4 0.0000 0.0000 0.0000 3.6190 0.0000 0.0000
# 5 0.0000 0.0000 0.0000 0.0000 21.0154 0.0000
# 6 0.0000 0.0000 0.0000 0.0000 0.0000 24.4742
#
#
#
# Elastic Compliance Matrix: (Units=1/GPa)
#
#
# Indices 1 2 3 4 5 6 
#
# 1 0.017893 -0.005408 -0.007195 0.000000 0.000000 0.000000
# 2 -0.005408 0.022120 -0.007997 0.000000 0.000000 0.000000
# 3 -0.007195 -0.007997 0.016385 0.000000 0.000000 0.000000
# 4 0.000000 0.000000 0.000000 0.276323 0.000000 0.000000
# 5 0.000000 0.000000 0.000000 0.000000 0.047584 0.000000
# 6 0.000000 0.000000 0.000000 0.000000 0.000000 0.040859
#
#
# Mechanical properties :
#
#
# Convention : Reuss Voigt Hill
#
# Bulk Modulus (GPa) = 65.79710 70.65321 68.22516
# Shear Modulus (GPa) = 10.69677 17.92059 14.30868
#
# Velocity S-wave (km/s) = 2.47208 3.19972 2.85914
# Velocity P-wave (km/s) = 6.76304 7.34954 7.06238
#
# Compressibility (1/GPa) = 0.01519824
#
# Stress axis : x y z
#
# Youngs Moduli (GPa) = 55.88685 45.20797 61.03117
#
# Poissons Ratio (x) = 0.24450 0.43913
# Poissons Ratio (y) = 0.30226 0.48804
# Poissons Ratio (z) = 0.40211 0.36151
#
# Static dielectric constant tensor:
#      x y z
#    x 3.277270 0.000000 0.000000 
#    y 0.000000 2.970080 0.000000 
#    z 0.000000 0.000000 3.460520 
# 
# 
# High freq. dielectric constant tensor:
#      x y z
#    x 1.671080 0.000000 0.000000 
#    y 0.000000 1.638250 0.000000 
#    z 0.000000 0.000000 1.690490 
# 
# From -- ./inp_files/72931.got.cif
#   From: 2010.03.12/outbox.cif.g09.slc.cpg/sg65_37_cif.got.tgz:72931.got - 2010.04.10 20:52:16.
