data_PCOD8270449
_publ_section_title
;
Structure prediction by ZEFSAII (Michael W. Deem and Ramdas Pophale) SiO2 
 PCOD8270449
Probable space group: C M M M
;
_chemical_formula_sum "Si O2"
_cell_formula_units_Z 96
_cell_length_a 27.367124
_cell_length_b 8.903128
_cell_length_c 23.895803
_cell_angle_alpha 90.000000
_cell_angle_beta 90.000000
_cell_angle_gamma 90.000000
_cell_volume 5822.284279
_symmetry_space_group_name_H-M "C M M M"
_symmetry_group_IT_number 65
_symmetry_cell_setting 'orthorhombic'
loop_
_space_group_symop_operation_xyz
x,y,z
-x,-y,z
x,-y,-z
-x,y,-z
-x,-y,-z
x,y,-z
-x,y,z
x,-y,z
1/2+x,1/2+y,z
1/2-x,1/2-y,z
1/2+x,1/2-y,-z
1/2-x,1/2+y,-z
1/2-x,1/2-y,-z
1/2+x,1/2+y,-z
1/2-x,1/2+y,z
1/2+x,1/2-y,z
loop_
_atom_site_type_symbol
_atom_site_label
_atom_site_fract_x
_atom_site_fract_y
_atom_site_fract_z
Si Si1 0.891999 0.326916 0.436459
Si Si2 0.852994 0.172635 0.728961
Si Si3 0.196722 0.677451 0.830139
Si Si4 0.301013 0.326256 0.385940
Si Si5 0.697340 0.324112 0.939302
Si Si6 0.555041 0.326324 0.340212
O O1 0.909440 0.302211 0.500000
O O2 0.882713 0.500000 0.422735
O O3 0.841508 0.240741 0.426861
O O4 0.934712 0.266719 0.396326
O O5 0.838736 0.281183 0.779383
O O6 0.815580 0.201330 0.678408
O O7 0.907684 0.217984 0.709399
O O8 0.850758 0.000000 0.748964
O O9 0.202451 0.500000 0.834109
O O10 0.250000 0.750000 0.820828
O O11 0.170997 0.741861 0.887071
O O12 0.296240 0.500000 0.399730
O O13 0.250000 0.250000 0.399232
O O14 0.702414 0.500000 0.926087
O O15 0.750000 0.250000 0.943117
O O16 0.670804 0.299633 0.000000
O O17 0.500000 0.294121 0.319537
O O18 0.563465 0.500000 0.355681
#
# Coordination Sequence:
#
# PCOD8270449 Si02
#       6
#    16  16  16  16  16  16
#     4  10  21  35  50  70  95 121 150 184 222 268
#     4   9  18  32  48  67  91 116 147 186 224 268
#     4  11  20  28  42  64  92 126 160 191 224 262
#     4  10  20  33  50  69  91 122 155 189 228 268
#     4   9  16  26  40  58  84 120 159 195 228 260
#     4   9  19  36  56  74  91 115 146 183 231 280
#
# _framework density 16.488372999999999
#
# number of rings (size 3 to 8) (size 9 to 14) (size 15 to 20)
#    0.000    2.333    0.000    5.500    0.000    8.000 
#    0.000    1.667    0.000    0.000    0.000    0.000 
#    0.000    0.667    0.000    7.667    0.000    2.167 
#
# Total GULP energy -595060.541001 kJ/mol
# GULP energy per Si atom -12397.094604 kJ/mol
# Density = 1.645084 g / cm^3
# Si number density = 16.488373 Si / 1000 Ang^3
#
#
#
# Elastic Constant Matrix: (Units=GPa)
#
#
# Indices 1 2 3 4 5 6 
#
# 1 78.3673 33.0113 32.5146 0.0000 0.0000 0.0000
# 2 33.0113 113.9069 58.4653 0.0000 0.0000 0.0000
# 3 32.5146 58.4653 107.1303 0.0000 0.0000 0.0000
# 4 0.0000 0.0000 0.0000 29.2503 0.0000 0.0000
# 5 0.0000 0.0000 0.0000 0.0000 12.4538 0.0000
# 6 0.0000 0.0000 0.0000 0.0000 0.0000 20.7382
#
#
#
# Elastic Compliance Matrix: (Units=1/GPa)
#
#
# Indices 1 2 3 4 5 6 
#
# 1 0.015231 -0.002836 -0.003075 0.000000 0.000000 0.000000
# 2 -0.002836 0.012723 -0.006083 0.000000 0.000000 0.000000
# 3 -0.003075 -0.006083 0.013587 0.000000 0.000000 0.000000
# 4 0.000000 0.000000 0.000000 0.034188 0.000000 0.000000
# 5 0.000000 0.000000 0.000000 0.000000 0.080297 0.000000
# 6 0.000000 0.000000 0.000000 0.000000 0.000000 0.048220
#
#
# Mechanical properties :
#
#
# Convention : Reuss Voigt Hill
#
# Bulk Modulus (GPa) = 56.96698 60.82077 58.89388
# Shear Modulus (GPa) = 21.35979 24.18267 22.77123
#
# Velocity S-wave (km/s) = 3.60313 3.83384 3.72028
# Velocity P-wave (km/s) = 7.20659 7.52097 7.36545
#
# Compressibility (1/GPa) = 0.01755403
#
# Stress axis : x y z
#
# Youngs Moduli (GPa) = 65.65657 78.59743 73.59764
#
# Poissons Ratio (x) = 0.22288 0.22632
# Poissons Ratio (y) = 0.18618 0.44768
# Poissons Ratio (z) = 0.20190 0.47810
#
# Static dielectric constant tensor:
#      x y z
#    x 2.872820 0.000000 0.000000 
#    y 0.000000 3.232570 0.000000 
#    z 0.000000 0.000000 3.475190 
# 
# 
# High freq. dielectric constant tensor:
#      x y z
#    x 1.594490 0.000000 0.000000 
#    y 0.000000 1.649540 0.000000 
#    z 0.000000 0.000000 1.635580 
# 
# From -- ./inp_files/71684.got.cif
#   From: 2010.03.12/outbox.cif.g09.slc.cpg/sg65_36_cif.got.tgz:71684.got - 2010.04.10 20:52:16.
