data_PCOD8270826
_publ_section_title
;
Structure prediction by ZEFSAII (Michael W. Deem and Ramdas Pophale) SiO2 
 PCOD8270826
Probable space group: C M M M
;
_chemical_formula_sum "Si O2"
_cell_formula_units_Z 104
_cell_length_a 15.895852
_cell_length_b 21.769572
_cell_length_c 16.455384
_cell_angle_alpha 90.000000
_cell_angle_beta 90.000000
_cell_angle_gamma 90.000000
_cell_volume 5694.318078
_symmetry_space_group_name_H-M "C M M M"
_symmetry_group_IT_number 65
_symmetry_cell_setting 'orthorhombic'
loop_
_space_group_symop_operation_xyz
x,y,z
-x,-y,z
x,-y,-z
-x,y,-z
-x,-y,-z
x,y,-z
-x,y,z
x,-y,z
1/2+x,1/2+y,z
1/2-x,1/2-y,z
1/2+x,1/2-y,-z
1/2-x,1/2+y,-z
1/2-x,1/2-y,-z
1/2+x,1/2+y,-z
1/2-x,1/2+y,z
1/2+x,1/2-y,z
loop_
_atom_site_type_symbol
_atom_site_label
_atom_site_fract_x
_atom_site_fract_y
_atom_site_fract_z
Si Si1 0.691498 0.845003 0.500000
Si Si2 0.406238 0.645163 0.658227
Si Si3 0.264422 0.072149 0.354801
Si Si4 0.903741 0.288452 0.089702
Si Si5 0.678421 0.890507 0.182848
Si Si6 0.816570 0.200025 0.194918
Si Si7 0.595897 0.000000 0.095336
Si Si8 0.129620 0.784007 0.500000
O O1 0.685832 0.889302 0.422329
O O2 0.775683 0.806381 0.500000
O O3 0.620842 0.790943 0.500000
O O4 0.500000 0.615632 0.670519
O O5 0.333600 0.593173 0.650119
O O6 0.384851 0.687630 0.735477
O O7 0.413787 0.688852 0.580053
O O8 0.320398 0.084804 0.274796
O O9 0.264669 0.000000 0.375454
O O10 0.888009 0.336668 0.162643
O O11 0.857871 0.225254 0.112757
O O12 0.000000 0.272951 0.085255
O O13 0.872344 0.310842 0.000000
O O14 0.771245 0.862997 0.166702
O O15 0.652316 0.943217 0.121596
O O16 0.750000 0.250000 0.230876
O O17 0.500000 0.000000 0.132518
O O18 0.586334 0.000000 0.000000
#
# Coordination Sequence:
#
# PCOD8270826 Si02
#       8
#     8  16  16  16  16  16   8   8
#     4   9  19  32  55  81 104 141 178 219 256 311
#     4  10  20  33  52  80 113 141 174 220 268 317
#     4  10  20  36  55  78 107 142 189 221 259 309
#     4  10  20  34  53  79 108 136 171 218 274 329
#     4  10  20  34  53  78 108 139 178 222 259 316
#     4   9  20  33  53  76 107 141 177 214 263 322
#     4  11  22  36  56  81 108 140 177 221 272 316
#     4   9  19  30  53  79 112 139 171 212 270 316
#
# _framework density 18.263819999999999
#
# number of rings (size 3 to 8) (size 9 to 14) (size 15 to 20)
#    0.000    2.231    0.769    1.846    8.615    4.923 
#    0.000    0.000    0.000    2.769    0.000    0.538 
#    0.000    4.923    0.000    0.000    0.000    0.000 
#
# Total GULP energy -644213.847922 kJ/mol
# GULP energy per Si atom -12388.727845 kJ/mol
# Density = 1.822225 g / cm^3
# Si number density = 18.263820 Si / 1000 Ang^3
#
#
#
# Elastic Constant Matrix: (Units=GPa)
#
#
# Indices 1 2 3 4 5 6 
#
# 1 61.6546 28.8792 42.4003 0.0000 0.0000 0.0000
# 2 28.8792 114.6615 48.2752 0.0000 0.0000 0.0000
# 3 42.4003 48.2752 95.5419 0.0000 0.0000 0.0000
# 4 0.0000 0.0000 0.0000 28.6468 0.0000 0.0000
# 5 0.0000 0.0000 0.0000 0.0000 73.6943 0.0000
# 6 0.0000 0.0000 0.0000 0.0000 0.0000 11.9940
#
#
#
# Elastic Compliance Matrix: (Units=1/GPa)
#
#
# Indices 1 2 3 4 5 6 
#
# 1 0.023684 -0.001956 -0.009522 0.000000 0.000000 0.000000
# 2 -0.001956 0.011240 -0.004811 0.000000 0.000000 0.000000
# 3 -0.009522 -0.004811 0.017123 0.000000 0.000000 0.000000
# 4 0.000000 0.000000 0.000000 0.034908 0.000000 0.000000
# 5 0.000000 0.000000 0.000000 0.000000 0.013570 0.000000
# 6 0.000000 0.000000 0.000000 0.000000 0.000000 0.083375
#
#
# Mechanical properties :
#
#
# Convention : Reuss Voigt Hill
#
# Bulk Modulus (GPa) = 51.36572 56.77416 54.06994
# Shear Modulus (GPa) = 22.42474 33.02059 27.72267
#
# Velocity S-wave (km/s) = 3.50783 4.25665 3.90025
# Velocity P-wave (km/s) = 6.67771 7.43719 7.06766
#
# Compressibility (1/GPa) = 0.01946824
#
# Stress axis : x y z
#
# Youngs Moduli (GPa) = 42.22215 88.97170 58.39948
#
# Poissons Ratio (x) = 0.17403 0.55610
# Poissons Ratio (y) = 0.08259 0.28096
# Poissons Ratio (z) = 0.40206 0.42804
#
# Static dielectric constant tensor:
#      x y z
#    x 3.302790 0.000000 0.000000 
#    y 0.000000 3.672410 0.000000 
#    z 0.000000 0.000000 3.564650 
# 
# 
# High freq. dielectric constant tensor:
#      x y z
#    x 1.694100 0.000000 0.000000 
#    y 0.000000 1.702340 0.000000 
#    z 0.000000 0.000000 1.712040 
# 
# From -- ./inp_files/53379.got.cif
#   From: 2010.03.12/outbox.cif.g09.slc.cpg/sg65_27_cif.got.tgz:53379.got - 2010.04.10 20:52:16.
