data_PCOD8270614
_publ_section_title
;
Structure prediction by ZEFSAII (Michael W. Deem and Ramdas Pophale) SiO2 
 PCOD8270614
Probable space group: C M M M
;
_chemical_formula_sum "Si O2"
_cell_formula_units_Z 120
_cell_length_a 27.611496
_cell_length_b 27.000098
_cell_length_c 9.003750
_cell_angle_alpha 90.000000
_cell_angle_beta 90.000000
_cell_angle_gamma 90.000000
_cell_volume 6712.413555
_symmetry_space_group_name_H-M "C M M M"
_symmetry_group_IT_number 65
_symmetry_cell_setting 'orthorhombic'
loop_
_space_group_symop_operation_xyz
x,y,z
-x,-y,z
x,-y,-z
-x,y,-z
-x,-y,-z
x,y,-z
-x,y,z
x,-y,z
1/2+x,1/2+y,z
1/2-x,1/2-y,z
1/2+x,1/2-y,-z
1/2-x,1/2+y,-z
1/2-x,1/2-y,-z
1/2+x,1/2+y,-z
1/2-x,1/2+y,z
1/2+x,1/2-y,z
loop_
_atom_site_type_symbol
_atom_site_label
_atom_site_fract_x
_atom_site_fract_y
_atom_site_fract_z
Si Si1 0.783937 0.099218 0.826452
Si Si2 0.233345 0.698556 0.172550
Si Si3 0.054818 0.710700 0.173677
Si Si4 0.359425 0.141700 0.824341
Si Si5 0.191368 0.443130 0.328156
Si Si6 0.944867 0.188704 0.675088
Si Si7 0.114483 0.093766 0.676247
Si Si8 0.946110 0.000000 0.676290
O O1 0.774131 0.157322 0.797990
O O2 0.741770 0.066334 0.755297
O O3 0.834077 0.085530 0.751131
O O4 0.785944 0.086810 0.000000
O O5 0.250000 0.750000 0.250847
O O6 0.181894 0.679518 0.235146
O O7 0.225786 0.708808 0.000000
O O8 0.088531 0.664407 0.218759
O O9 0.073512 0.760236 0.253492
O O10 0.000000 0.697496 0.222062
O O11 0.058689 0.721184 0.000000
O O12 0.352107 0.089446 0.741818
O O13 0.353972 0.132497 0.000000
O O14 0.198134 0.429193 0.500000
O O15 0.176222 0.500000 0.307605
O O16 0.941743 0.194346 0.500000
O O17 0.910454 0.144536 0.731195
O O18 0.000000 0.177228 0.724952
O O19 0.121131 0.093340 0.500000
O O20 0.081120 0.048915 0.732112
O O21 0.948917 0.000000 0.500000
O O22 0.000000 0.000000 0.744424
#
# Coordination Sequence:
#
# PCOD8270614 Si02
#       8
#    16  16  16  16  16  16  16   8
#     4  10  21  34  51  76 104 135 169 207 255 308
#     4   8  15  28  46  68  95 129 166 200 238 293
#     4   9  18  32  52  79 109 140 174 210 251 306
#     4   9  18  32  52  77 104 136 172 211 256 305
#     4  10  21  37  57  77 102 134 168 210 256 307
#     4   9  18  32  49  71 101 137 176 218 262 307
#     4  10  20  33  51  74 100 130 172 225 270 312
#     4   9  18  34  55  73  91 129 181 225 268 315
#
# _framework density 17.877324999999999
#
# number of rings (size 3 to 8) (size 9 to 14) (size 15 to 20)
#    0.000    2.733    0.000    2.000    2.800    3.733 
#    0.000    0.000    0.000    4.000    0.000    2.800 
#    0.000    0.000    0.000    0.000    0.000    0.000 
#
# Total GULP energy -743950.375405 kJ/mol
# GULP energy per Si atom -12399.172923 kJ/mol
# Density = 1.783664 g / cm^3
# Si number density = 17.877325 Si / 1000 Ang^3
#
#
#
# Elastic Constant Matrix: (Units=GPa)
#
#
# Indices 1 2 3 4 5 6 
#
# 1 111.8719 66.9326 33.4664 0.0000 0.0000 0.0000
# 2 66.9326 129.7692 42.4122 0.0000 0.0000 0.0000
# 3 33.4664 42.4122 47.1129 0.0000 0.0000 0.0000
# 4 0.0000 0.0000 0.0000 23.7639 0.0000 0.0000
# 5 0.0000 0.0000 0.0000 0.0000 24.2553 0.0000
# 6 0.0000 0.0000 0.0000 0.0000 0.0000 24.8119
#
#
#
# Elastic Compliance Matrix: (Units=1/GPa)
#
#
# Indices 1 2 3 4 5 6 
#
# 1 0.013641 -0.005482 -0.004755 0.000000 0.000000 0.000000
# 2 -0.005482 0.013121 -0.007918 0.000000 0.000000 0.000000
# 3 -0.004755 -0.007918 0.031731 0.000000 0.000000 0.000000
# 4 0.000000 0.000000 0.000000 0.042081 0.000000 0.000000
# 5 0.000000 0.000000 0.000000 0.000000 0.041228 0.000000
# 6 0.000000 0.000000 0.000000 0.000000 0.000000 0.040303
#
#
# Mechanical properties :
#
#
# Convention : Reuss Voigt Hill
#
# Bulk Modulus (GPa) = 45.07780 63.81961 54.44870
# Shear Modulus (GPa) = 22.14253 24.29575 23.21914
#
# Velocity S-wave (km/s) = 3.52317 3.69050 3.60780
# Velocity P-wave (km/s) = 6.46684 7.34410 6.91939
#
# Compressibility (1/GPa) = 0.02218387
#
# Stress axis : x y z
#
# Youngs Moduli (GPa) = 73.30887 76.21246 31.51447
#
# Poissons Ratio (x) = 0.41777 0.14985
# Poissons Ratio (y) = 0.40185 0.24954
# Poissons Ratio (z) = 0.34858 0.60346
#
# Static dielectric constant tensor:
#      x y z
#    x 3.344310 0.000000 0.000000 
#    y 0.000000 3.410230 0.000000 
#    z 0.000000 0.000000 3.105410 
# 
# 
# High freq. dielectric constant tensor:
#      x y z
#    x 1.687210 0.000000 0.000000 
#    y 0.000000 1.692920 0.000000 
#    z 0.000000 0.000000 1.670770 
# 
# From -- ./inp_files/17096.got.cif
#   From: 2010.03.12/outbox.cif.g09.slc.cpg/sg65_9_cif.got.tgz:17096.got - 2010.04.10 20:52:16.
