data_PCOD8270068
_publ_section_title
;
Structure prediction by ZEFSAII (Michael W. Deem and Ramdas Pophale) SiO2 
 PCOD8270068
Probable space group: C M M M
;
_chemical_formula_sum "Si O2"
_cell_formula_units_Z 80
_cell_length_a 13.919001
_cell_length_b 27.960451
_cell_length_c 11.808442
_cell_angle_alpha 90.000000
_cell_angle_beta 90.000000
_cell_angle_gamma 90.000000
_cell_volume 4595.627707
_symmetry_space_group_name_H-M "C M M M"
_symmetry_group_IT_number 65
_symmetry_cell_setting 'orthorhombic'
loop_
_space_group_symop_operation_xyz
x,y,z
-x,-y,z
x,-y,-z
-x,y,-z
-x,-y,-z
x,y,-z
-x,y,z
x,-y,z
1/2+x,1/2+y,z
1/2-x,1/2-y,z
1/2+x,1/2-y,-z
1/2-x,1/2+y,-z
1/2-x,1/2-y,-z
1/2+x,1/2+y,-z
1/2-x,1/2+y,z
1/2+x,1/2-y,z
loop_
_atom_site_type_symbol
_atom_site_label
_atom_site_fract_x
_atom_site_fract_y
_atom_site_fract_z
Si Si1 0.616117 0.658301 0.000000
Si Si2 0.105451 0.684302 0.225230
Si Si3 0.356066 0.730598 0.626050
Si Si4 0.389839 0.445642 0.368335
Si Si5 0.302850 0.360634 0.239840
Si Si6 0.886829 0.265771 0.000000
O O1 0.661537 0.633767 0.889137
O O2 0.500000 0.653864 0.000000
O O3 0.655653 0.712612 0.000000
O O4 0.085423 0.727203 0.313590
O O5 0.188005 0.646821 0.259120
O O6 0.000000 0.659420 0.208972
O O7 0.148571 0.706423 0.110198
O O8 0.397771 0.720639 0.500000
O O9 0.250000 0.750000 0.616835
O O10 0.362322 0.682043 0.699373
O O11 0.372726 0.435992 0.500000
O O12 0.500000 0.435495 0.335961
O O13 0.362392 0.500000 0.337401
O O14 0.321641 0.410996 0.298396
O O15 0.000000 0.261599 0.000000
#
# Coordination Sequence:
#
# PCOD8270068 Si02
#       6
#     8  16  16  16  16   8
#     4  11  21  31  49  77 104 133 172 213 252 295
#     4  10  20  32  47  71 103 139 174 206 240 287
#     4   9  18  30  44  66  96 130 168 207 246 288
#     4   9  19  37  59  79  98 124 163 211 261 313
#     4  11  20  32  53  74 100 134 169 207 251 301
#     4   9  17  31  47  66 100 141 177 205 235 281
#
# _framework density 17.407851999999998
#
# number of rings (size 3 to 8) (size 9 to 14) (size 15 to 20)
#    0.000    2.200    2.000    2.400    0.000    2.800 
#    0.000    0.500    0.000    2.400    0.000    1.400 
#    0.000    4.000    0.000    0.000    0.000    0.000 
#
# Total GULP energy -495832.331065 kJ/mol
# GULP energy per Si atom -12395.808277 kJ/mol
# Density = 1.736823 g / cm^3
# Si number density = 17.407852 Si / 1000 Ang^3
#
#
#
# Elastic Constant Matrix: (Units=GPa)
#
#
# Indices 1 2 3 4 5 6 
#
# 1 97.9648 48.7481 31.3954 0.0000 0.0000 0.0000
# 2 48.7481 100.2407 47.4282 0.0000 0.0000 0.0000
# 3 31.3954 47.4282 112.9134 0.0000 0.0000 0.0000
# 4 0.0000 0.0000 0.0000 25.1375 0.0000 0.0000
# 5 0.0000 0.0000 0.0000 0.0000 29.5574 0.0000
# 6 0.0000 0.0000 0.0000 0.0000 0.0000 23.3112
#
#
#
# Elastic Compliance Matrix: (Units=1/GPa)
#
#
# Indices 1 2 3 4 5 6 
#
# 1 0.013607 -0.006024 -0.001253 0.000000 0.000000 0.000000
# 2 -0.006024 0.015118 -0.004675 0.000000 0.000000 0.000000
# 3 -0.001253 -0.004675 0.011168 0.000000 0.000000 0.000000
# 4 0.000000 0.000000 0.000000 0.039781 0.000000 0.000000
# 5 0.000000 0.000000 0.000000 0.000000 0.033832 0.000000
# 6 0.000000 0.000000 0.000000 0.000000 0.000000 0.042898
#
#
# Mechanical properties :
#
#
# Convention : Reuss Voigt Hill
#
# Bulk Modulus (GPa) = 62.54494 62.91804 62.73149
# Shear Modulus (GPa) = 26.93405 27.83772 27.38589
#
# Velocity S-wave (km/s) = 3.93776 4.00327 3.97065
# Velocity P-wave (km/s) = 7.52873 7.58882 7.55883
#
# Compressibility (1/GPa) = 0.01598850
#
# Stress axis : x y z
#
# Youngs Moduli (GPa) = 73.49108 66.14777 89.53847
#
# Poissons Ratio (x) = 0.39850 0.11218
# Poissons Ratio (y) = 0.44274 0.41859
# Poissons Ratio (z) = 0.09208 0.30924
#
# Static dielectric constant tensor:
#      x y z
#    x 3.149060 0.000000 0.000000 
#    y 0.000000 2.895980 0.000000 
#    z 0.000000 0.000000 3.576290 
# 
# 
# High freq. dielectric constant tensor:
#      x y z
#    x 1.674830 0.000000 0.000000 
#    y 0.000000 1.625810 0.000000 
#    z 0.000000 0.000000 1.685310 
# 
# From -- ./inp_files/24660.got.cif
#   From: 2010.03.12/outbox.cif.g09.slc.cpg/sg65_13_cif.got.tgz:24660.got - 2010.04.10 20:52:16.
