data_PCOD8270705
_publ_section_title
;
Structure prediction by ZEFSAII (Michael W. Deem and Ramdas Pophale) SiO2 
 PCOD8270705
Probable space group: C M M M
;
_chemical_formula_sum "Si O2"
_cell_formula_units_Z 104
_cell_length_a 29.992496
_cell_length_b 19.377047
_cell_length_c 9.674726
_cell_angle_alpha 90.000000
_cell_angle_beta 90.000000
_cell_angle_gamma 90.000000
_cell_volume 5622.621855
_symmetry_space_group_name_H-M "C M M M"
_symmetry_group_IT_number 65
_symmetry_cell_setting 'orthorhombic'
loop_
_space_group_symop_operation_xyz
x,y,z
-x,-y,z
x,-y,-z
-x,y,-z
-x,-y,-z
x,y,-z
-x,y,z
x,-y,z
1/2+x,1/2+y,z
1/2-x,1/2-y,z
1/2+x,1/2-y,-z
1/2-x,1/2+y,-z
1/2-x,1/2-y,-z
1/2+x,1/2+y,-z
1/2-x,1/2+y,z
1/2+x,1/2-y,z
loop_
_atom_site_type_symbol
_atom_site_label
_atom_site_fract_x
_atom_site_fract_y
_atom_site_fract_z
Si Si1 0.049933 0.922356 0.835912
Si Si2 0.947018 0.500000 0.845433
Si Si3 0.133892 0.297091 0.655692
Si Si4 0.280775 0.580080 0.156308
Si Si5 0.050236 0.377589 0.344750
Si Si6 0.867219 0.833682 0.162030
Si Si7 0.301782 0.078724 0.660505
O O1 0.087292 0.869043 0.779591
O O2 0.000000 0.898530 0.790267
O O3 0.059208 0.000000 0.779633
O O4 0.053280 0.924212 0.000000
O O5 0.930696 0.433108 0.763024
O O6 0.000000 0.500000 0.849737
O O7 0.926710 0.500000 0.000000
O O8 0.147238 0.274661 0.500000
O O9 0.080937 0.310322 0.665887
O O10 0.144948 0.236944 0.761482
O O11 0.158565 0.368475 0.696109
O O12 0.290261 0.500000 0.175410
O O13 0.326656 0.616181 0.196600
O O14 0.241304 0.604796 0.255984
O O15 0.266489 0.598205 0.000000
O O16 0.052631 0.409167 0.500000
O O17 0.000000 0.354941 0.307668
O O18 0.871606 0.817750 0.000000
O O19 0.289307 0.081168 0.500000
O O20 0.315430 0.000000 0.703402
#
# Coordination Sequence:
#
# PCOD8270705 Si02
#       7
#    16   8  16  16  16  16  16
#     4   8  14  27  50  79 107 136 173 212 248 293
#     4   9  17  29  47  73  99 121 155 209 263 299
#     4  10  22  36  51  73 103 138 173 211 256 304
#     4   9  18  34  56  79 102 130 165 207 255 306
#     4   9  18  33  52  71  94 131 175 210 246 299
#     4  10  20  33  51  77 108 137 168 207 253 303
#     4   9  19  36  56  75  96 127 169 215 258 301
#
# _framework density 18.49671
#
# number of rings (size 3 to 8) (size 9 to 14) (size 15 to 20)
#    0.000    2.846    0.000    1.154    1.077    5.846 
#    0.000    3.077    0.000    1.385    0.000    1.077 
#    0.000    0.000    0.000    0.000    0.000    0.000 
#
# Total GULP energy -644598.724330 kJ/mol
# GULP energy per Si atom -12396.129314 kJ/mol
# Density = 1.845461 g / cm^3
# Si number density = 18.496710 Si / 1000 Ang^3
#
#
#
# Elastic Constant Matrix: (Units=GPa)
#
#
# Indices 1 2 3 4 5 6 
#
# 1 111.9244 54.3363 40.4260 0.0000 0.0000 0.0000
# 2 54.3363 84.8378 41.6551 0.0000 0.0000 0.0000
# 3 40.4260 41.6551 61.8983 0.0000 0.0000 0.0000
# 4 0.0000 0.0000 0.0000 25.9815 0.0000 0.0000
# 5 0.0000 0.0000 0.0000 0.0000 22.5034 0.0000
# 6 0.0000 0.0000 0.0000 0.0000 0.0000 16.6910
#
#
#
# Elastic Compliance Matrix: (Units=1/GPa)
#
#
# Indices 1 2 3 4 5 6 
#
# 1 0.013781 -0.006582 -0.004571 0.000000 0.000000 0.000000
# 2 -0.006582 0.020748 -0.009664 0.000000 0.000000 0.000000
# 3 -0.004571 -0.009664 0.025644 0.000000 0.000000 0.000000
# 4 0.000000 0.000000 0.000000 0.038489 0.000000 0.000000
# 5 0.000000 0.000000 0.000000 0.000000 0.044438 0.000000
# 6 0.000000 0.000000 0.000000 0.000000 0.000000 0.059913
#
#
# Mechanical properties :
#
#
# Convention : Reuss Voigt Hill
#
# Bulk Modulus (GPa) = 53.93887 59.05505 56.49696
# Shear Modulus (GPa) = 19.93422 21.18471 20.55946
#
# Velocity S-wave (km/s) = 3.28642 3.38793 3.33756
# Velocity P-wave (km/s) = 6.60495 6.87756 6.74263
#
# Compressibility (1/GPa) = 0.01853951
#
# Stress axis : x y z
#
# Youngs Moduli (GPa) = 72.56375 48.19829 38.99534
#
# Poissons Ratio (x) = 0.31724 0.17825
# Poissons Ratio (y) = 0.47762 0.37684
# Poissons Ratio (z) = 0.33169 0.46577
#
# Static dielectric constant tensor:
#      x y z
#    x 3.536910 0.000000 0.000000 
#    y 0.000000 3.272830 0.000000 
#    z 0.000000 0.000000 3.322400 
# 
# 
# High freq. dielectric constant tensor:
#      x y z
#    x 1.721680 0.000000 0.000000 
#    y 0.000000 1.704260 0.000000 
#    z 0.000000 0.000000 1.696020 
# 
# From -- ./inp_files/18644.got.cif
#   From: 2010.03.12/outbox.cif.g09.slc.cpg/sg65_10_cif.got.tgz:18644.got - 2010.04.10 20:52:16.
