data_PCOD8270302
_publ_section_title
;
Structure prediction by ZEFSAII (Michael W. Deem and Ramdas Pophale) SiO2 
 PCOD8270302
Probable space group: C M M M
;
_chemical_formula_sum "Si O2"
_cell_formula_units_Z 80
_cell_length_a 12.908372
_cell_length_b 21.370818
_cell_length_c 17.797376
_cell_angle_alpha 90.000000
_cell_angle_beta 90.000000
_cell_angle_gamma 90.000000
_cell_volume 4909.628080
_symmetry_space_group_name_H-M "C M M M"
_symmetry_group_IT_number 65
_symmetry_cell_setting 'orthorhombic'
loop_
_space_group_symop_operation_xyz
x,y,z
-x,-y,z
x,-y,-z
-x,y,-z
-x,-y,-z
x,y,-z
-x,y,z
x,-y,z
1/2+x,1/2+y,z
1/2-x,1/2-y,z
1/2+x,1/2-y,-z
1/2-x,1/2+y,-z
1/2-x,1/2-y,-z
1/2+x,1/2+y,-z
1/2-x,1/2+y,z
1/2+x,1/2-y,z
loop_
_atom_site_type_symbol
_atom_site_label
_atom_site_fract_x
_atom_site_fract_y
_atom_site_fract_z
Si Si1 0.876903 0.929946 0.416264
Si Si2 0.250000 0.250000 0.198012
Si Si3 0.882208 0.852092 0.278843
Si Si4 0.382729 0.572452 0.132341
Si Si5 0.307899 0.850902 0.914838
Si Si6 0.500000 0.068365 0.088772
O O1 0.843896 0.908161 0.500000
O O2 0.833015 0.880084 0.355762
O O3 0.000000 0.932050 0.408726
O O4 0.833563 0.000000 0.400745
O O5 0.178246 0.209156 0.252111
O O6 0.316624 0.206871 0.142082
O O7 0.875001 0.908305 0.219184
O O8 0.000000 0.830567 0.291259
O O9 0.500000 0.584121 0.102503
O O10 0.352233 0.500000 0.123631
O O11 0.303500 0.614729 0.084978
O O12 0.396338 0.897108 0.884765
O O13 0.329742 0.827758 0.000000
O O14 0.500000 0.000000 0.126564
O O15 0.500000 0.062254 0.000000
#
# Coordination Sequence:
#
# PCOD8270302 Si02
#       6
#    16   8  16  16  16   8
#     4   8  13  23  43  70  95 117 141 171 212 262
#     4  10  21  32  45  62  86 120 158 186 225 268
#     4   9  17  29  44  63  90 121 149 180 216 261
#     4   9  17  29  46  68  92 117 144 181 235 287
#     4  10  20  33  47  64  86 116 154 196 236 280
#     4   9  18  32  50  68  84 108 146 197 248 278
#
# _framework density 16.294512999999998
#
# number of rings (size 3 to 8) (size 9 to 14) (size 15 to 20)
#    0.000    2.900    0.000    2.100    1.400    4.000 
#    0.000    1.500    0.000    0.000    0.000    0.000 
#    0.000    0.000    0.000    2.200    0.000    0.200 
#
# Total GULP energy -495797.715970 kJ/mol
# GULP energy per Si atom -12394.942899 kJ/mol
# Density = 1.625743 g / cm^3
# Si number density = 16.294513 Si / 1000 Ang^3
#
#
#
# Elastic Constant Matrix: (Units=GPa)
#
#
# Indices 1 2 3 4 5 6 
#
# 1 62.2806 37.8266 28.2325 0.0000 0.0000 0.0000
# 2 37.8266 112.9110 56.8146 0.0000 0.0000 0.0000
# 3 28.2325 56.8146 99.0425 0.0000 0.0000 0.0000
# 4 0.0000 0.0000 0.0000 28.0316 0.0000 0.0000
# 5 0.0000 0.0000 0.0000 0.0000 11.1733 0.0000
# 6 0.0000 0.0000 0.0000 0.0000 0.0000 20.4884
#
#
#
# Elastic Compliance Matrix: (Units=1/GPa)
#
#
# Indices 1 2 3 4 5 6 
#
# 1 0.020658 -0.005564 -0.002697 0.000000 0.000000 0.000000
# 2 -0.005564 0.013949 -0.006416 0.000000 0.000000 0.000000
# 3 -0.002697 -0.006416 0.014546 0.000000 0.000000 0.000000
# 4 0.000000 0.000000 0.000000 0.035674 0.000000 0.000000
# 5 0.000000 0.000000 0.000000 0.000000 0.089499 0.000000
# 6 0.000000 0.000000 0.000000 0.000000 0.000000 0.048808
#
#
# Mechanical properties :
#
#
# Convention : Reuss Voigt Hill
#
# Bulk Modulus (GPa) = 50.50550 57.77573 54.14062
# Shear Modulus (GPa) = 19.29858 22.02934 20.66396
#
# Velocity S-wave (km/s) = 3.44519 3.68087 3.56498
# Velocity P-wave (km/s) = 6.84751 7.32115 7.08829
#
# Compressibility (1/GPa) = 0.01979982
#
# Stress axis : x y z
#
# Youngs Moduli (GPa) = 48.40712 71.69199 68.74871
#
# Poissons Ratio (x) = 0.39886 0.18543
# Poissons Ratio (y) = 0.26931 0.44106
# Poissons Ratio (z) = 0.13056 0.45994
#
# Static dielectric constant tensor:
#      x y z
#    x 2.902820 0.000000 0.000000 
#    y 0.000000 3.131780 0.000000 
#    z 0.000000 0.000000 3.102430 
# 
# 
# High freq. dielectric constant tensor:
#      x y z
#    x 1.598270 0.000000 0.000000 
#    y 0.000000 1.627730 0.000000 
#    z 0.000000 0.000000 1.614600 
# 
# From -- ./inp_files/51376.got.cif
#   From: 2010.03.12/outbox.cif.g09.slc.cpg/sg65_26_cif.got.tgz:51376.got - 2010.04.10 20:52:16.
