data_PCOD8270255
_publ_section_title
;
Structure prediction by ZEFSAII (Michael W. Deem and Ramdas Pophale) SiO2 
 PCOD8270255
Probable space group: C M M M
;
_chemical_formula_sum "Si O2"
_cell_formula_units_Z 104
_cell_length_a 27.409082
_cell_length_b 23.605350
_cell_length_c 8.818426
_cell_angle_alpha 90.000000
_cell_angle_beta 90.000000
_cell_angle_gamma 90.000000
_cell_volume 5705.530209
_symmetry_space_group_name_H-M "C M M M"
_symmetry_group_IT_number 65
_symmetry_cell_setting 'orthorhombic'
loop_
_space_group_symop_operation_xyz
x,y,z
-x,-y,z
x,-y,-z
-x,y,-z
-x,-y,-z
x,y,-z
-x,y,z
x,-y,z
1/2+x,1/2+y,z
1/2-x,1/2-y,z
1/2+x,1/2-y,-z
1/2-x,1/2+y,-z
1/2-x,1/2-y,-z
1/2+x,1/2+y,-z
1/2-x,1/2+y,z
1/2+x,1/2-y,z
loop_
_atom_site_type_symbol
_atom_site_label
_atom_site_fract_x
_atom_site_fract_y
_atom_site_fract_z
Si Si1 0.444683 0.183860 0.319539
Si Si2 0.386068 0.711503 0.324840
Si Si3 0.701492 0.500000 0.180226
Si Si4 0.141978 0.616450 0.825157
Si Si5 0.196374 0.272563 0.171444
Si Si6 0.552587 0.500000 0.321564
Si Si7 0.369613 0.412216 0.680537
Si Si8 0.312898 0.000000 0.180509
O O1 0.441415 0.182056 0.500000
O O2 0.500000 0.171770 0.263627
O O3 0.428700 0.246970 0.260488
O O4 0.407460 0.136773 0.257237
O O5 0.395985 0.701368 0.500000
O O6 0.335160 0.742180 0.298348
O O7 0.380473 0.649779 0.249032
O O8 0.676772 0.442617 0.243435
O O9 0.757205 0.500000 0.238099
O O10 0.697661 0.500000 0.000000
O O11 0.187681 0.660027 0.805680
O O12 0.159285 0.556004 0.757756
O O13 0.127851 0.609972 0.000000
O O14 0.250000 0.250000 0.203441
O O15 0.180369 0.255957 0.000000
O O16 0.500000 0.500000 0.240410
O O17 0.545927 0.500000 0.500000
O O18 0.581755 0.444818 0.271002
O O19 0.360547 0.412229 0.500000
O O20 0.312595 0.000000 0.000000
#
# Coordination Sequence:
#
# PCOD8270255 Si02
#       8
#    16  16   8  16  16   8  16   8
#     4   9  18  34  54  76 103 131 161 202 252 303
#     4   9  18  31  48  71  99 129 160 198 243 292
#     4  10  20  32  51  72  95 135 175 209 251 294
#     4   9  18  34  52  73  99 128 166 209 248 293
#     4   9  18  30  48  71  97 128 160 199 243 289
#     4   8  14  26  45  65  87 120 161 202 238 274
#     4   9  18  32  47  69 101 129 164 209 247 291
#     4   9  19  34  53  74  97 128 171 214 245 289
#
# _framework density 18.227929
#
# number of rings (size 3 to 8) (size 9 to 14) (size 15 to 20)
#    0.000    3.000    0.000    0.692    2.154    1.846 
#    0.000    5.385    0.000    6.000    0.000    6.462 
#    0.000    0.000    0.000    0.000    0.000    0.000 
#
# Total GULP energy -644273.052747 kJ/mol
# GULP energy per Si atom -12389.866399 kJ/mol
# Density = 1.818644 g / cm^3
# Si number density = 18.227929 Si / 1000 Ang^3
#
#
#
# Elastic Constant Matrix: (Units=GPa)
#
#
# Indices 1 2 3 4 5 6 
#
# 1 153.8223 83.6925 23.8142 0.0000 0.0000 0.0000
# 2 83.6925 165.0800 20.7772 0.0000 0.0000 0.0000
# 3 23.8142 20.7772 21.9264 0.0000 0.0000 0.0000
# 4 0.0000 0.0000 0.0000 19.7156 0.0000 0.0000
# 5 0.0000 0.0000 0.0000 0.0000 21.4563 0.0000
# 6 0.0000 0.0000 0.0000 0.0000 0.0000 19.4051
#
#
#
# Elastic Compliance Matrix: (Units=1/GPa)
#
#
# Indices 1 2 3 4 5 6 
#
# 1 0.009779 -0.004111 -0.006725 0.000000 0.000000 0.000000
# 2 -0.004111 0.008607 -0.003690 0.000000 0.000000 0.000000
# 3 -0.006725 -0.003690 0.056408 0.000000 0.000000 0.000000
# 4 0.000000 0.000000 0.000000 0.050721 0.000000 0.000000
# 5 0.000000 0.000000 0.000000 0.000000 0.046606 0.000000
# 6 0.000000 0.000000 0.000000 0.000000 0.000000 0.051533
#
#
# Mechanical properties :
#
#
# Convention : Reuss Voigt Hill
#
# Bulk Modulus (GPa) = 21.86250 66.37742 44.11996
# Shear Modulus (GPa) = 18.65990 26.28504 22.47247
#
# Velocity S-wave (km/s) = 3.20300 3.80151 3.51502
# Velocity P-wave (km/s) = 5.06941 7.46746 6.38208
#
# Compressibility (1/GPa) = 0.04574042
#
# Stress axis : x y z
#
# Youngs Moduli (GPa) = 102.25862 116.19111 17.72796
#
# Poissons Ratio (x) = 0.47771 0.11922
# Poissons Ratio (y) = 0.42043 0.06542
# Poissons Ratio (z) = 0.68771 0.42875
#
# Static dielectric constant tensor:
#      x y z
#    x 3.444670 0.000000 0.000000 
#    y 0.000000 3.602640 0.000000 
#    z 0.000000 0.000000 3.095190 
# 
# 
# High freq. dielectric constant tensor:
#      x y z
#    x 1.701580 0.000000 0.000000 
#    y 0.000000 1.712690 0.000000 
#    z 0.000000 0.000000 1.677490 
# 
# From -- ./inp_files/16840.got.cif
#   From: 2010.03.12/outbox.cif.g09.slc.cpg/sg65_9_cif.got.tgz:16840.got - 2010.04.10 20:52:16.
