data_PCOD8270799
_publ_section_title
;
Structure prediction by ZEFSAII (Michael W. Deem and Ramdas Pophale) SiO2 
 PCOD8270799
Probable space group: C M M M
;
_chemical_formula_sum "Si O2"
_cell_formula_units_Z 104
_cell_length_a 28.568364
_cell_length_b 8.926266
_cell_length_c 20.998123
_cell_angle_alpha 90.000000
_cell_angle_beta 90.000000
_cell_angle_gamma 90.000000
_cell_volume 5354.706490
_symmetry_space_group_name_H-M "C M M M"
_symmetry_group_IT_number 65
_symmetry_cell_setting 'orthorhombic'
loop_
_space_group_symop_operation_xyz
x,y,z
-x,-y,z
x,-y,-z
-x,y,-z
-x,-y,-z
x,y,-z
-x,y,z
x,-y,z
1/2+x,1/2+y,z
1/2-x,1/2-y,z
1/2+x,1/2-y,-z
1/2-x,1/2+y,-z
1/2-x,1/2-y,-z
1/2+x,1/2+y,-z
1/2-x,1/2+y,z
1/2+x,1/2-y,z
loop_
_atom_site_type_symbol
_atom_site_label
_atom_site_fract_x
_atom_site_fract_y
_atom_site_fract_z
Si Si1 0.894824 0.673334 0.373169
Si Si2 0.054037 0.173202 0.740523
Si Si3 0.552686 0.823702 0.869437
Si Si4 0.299503 0.678711 0.816020
Si Si5 0.298583 0.825380 0.684532
Si Si6 0.946472 0.677285 0.500000
Si Si7 0.866115 0.173094 0.070526
O O1 0.908150 0.500000 0.361957
O O2 0.917119 0.773722 0.319341
O O3 0.838304 0.694105 0.370086
O O4 0.916543 0.732578 0.439335
O O5 0.071728 0.260290 0.802605
O O6 0.000000 0.207644 0.726660
O O7 0.063968 0.000000 0.752903
O O8 0.500000 0.766929 0.882285
O O9 0.585238 0.762823 0.925609
O O10 0.555095 0.000000 0.866746
O O11 0.296377 0.500000 0.810492
O O12 0.250000 0.750000 0.831984
O O13 0.317579 0.746659 0.749081
O O14 0.331563 0.731416 0.874692
O O15 0.250000 0.750000 0.661283
O O16 0.288980 0.000000 0.698615
O O17 0.949480 0.500000 0.500000
O O18 0.000000 0.742440 0.500000
O O19 0.877485 0.000000 0.081174
O O20 0.844590 0.201336 0.000000
#
# Coordination Sequence:
#
# PCOD8270799 Si02
#       7
#    16  16  16  16  16   8  16
#     4  10  20  34  55  81 108 142 183 223 262 309
#     4  10  20  33  52  79 108 138 173 216 269 324
#     4  10  21  36  54  77 104 135 176 225 271 316
#     4  10  20  35  56  80 106 136 172 216 266 319
#     4  10  20  34  54  80 107 135 173 220 268 316
#     4   9  18  34  56  81 111 147 183 219 262 311
#     4  10  22  38  54  75 105 141 178 215 262 323
#
# _framework density 19.422166000000001
#
# number of rings (size 3 to 8) (size 9 to 14) (size 15 to 20)
#    0.000    2.077    0.000    4.154    0.000    8.308 
#    0.000    2.308    0.000    1.385    0.000    0.000 
#    0.000    0.000    0.000    0.000    0.000    0.000 
#
# Total GULP energy -644770.856793 kJ/mol
# GULP energy per Si atom -12399.439554 kJ/mol
# Density = 1.937796 g / cm^3
# Si number density = 19.422166 Si / 1000 Ang^3
#
#
#
# Elastic Constant Matrix: (Units=GPa)
#
#
# Indices 1 2 3 4 5 6 
#
# 1 104.6895 33.5773 70.2358 0.0000 0.0000 0.0000
# 2 33.5773 56.5880 19.5708 0.0000 0.0000 0.0000
# 3 70.2358 19.5708 93.2725 0.0000 0.0000 0.0000
# 4 0.0000 0.0000 0.0000 19.8565 0.0000 0.0000
# 5 0.0000 0.0000 0.0000 0.0000 31.4226 0.0000
# 6 0.0000 0.0000 0.0000 0.0000 0.0000 29.3556
#
#
#
# Elastic Compliance Matrix: (Units=1/GPa)
#
#
# Indices 1 2 3 4 5 6 
#
# 1 0.022204 -0.007971 -0.015047 0.000000 0.000000 0.000000
# 2 -0.007971 0.021916 0.001404 0.000000 0.000000 0.000000
# 3 -0.015047 0.001404 0.021758 0.000000 0.000000 0.000000
# 4 0.000000 0.000000 0.000000 0.050361 0.000000 0.000000
# 5 0.000000 0.000000 0.000000 0.000000 0.031824 0.000000
# 6 0.000000 0.000000 0.000000 0.000000 0.000000 0.034065
#
#
# Mechanical properties :
#
#
# Convention : Reuss Voigt Hill
#
# Bulk Modulus (GPa) = 44.15355 55.70198 49.92777
# Shear Modulus (GPa) = 21.46788 24.87135 23.16961
#
# Velocity S-wave (km/s) = 3.32826 3.58238 3.45765
# Velocity P-wave (km/s) = 6.12802 6.77149 6.45778
#
# Compressibility (1/GPa) = 0.02264823
#
# Stress axis : x y z
#
# Youngs Moduli (GPa) = 45.03742 45.62939 45.96085
#
# Poissons Ratio (x) = 0.36370 0.69159
# Poissons Ratio (y) = 0.35899 -0.06452
# Poissons Ratio (z) = 0.67769 -0.06405
#
# Static dielectric constant tensor:
#      x y z
#    x 3.738600 0.000000 0.000000 
#    y 0.000000 3.468690 0.000000 
#    z 0.000000 0.000000 3.609330 
# 
# 
# High freq. dielectric constant tensor:
#      x y z
#    x 1.763950 0.000000 0.000000 
#    y 0.000000 1.752950 0.000000 
#    z 0.000000 0.000000 1.743810 
# 
# From -- ./inp_files/65919.got.cif
#   From: 2010.03.12/outbox.cif.g09.slc.cpg/sg65_33_cif.got.tgz:65919.got - 2010.04.10 20:52:16.
