data_PCOD8270300
_publ_section_title
;
Structure prediction by ZEFSAII (Michael W. Deem and Ramdas Pophale) SiO2 
 PCOD8270300
Probable space group: C M M M
;
_chemical_formula_sum "Si O2"
_cell_formula_units_Z 96
_cell_length_a 35.779205
_cell_length_b 14.065017
_cell_length_c 10.848228
_cell_angle_alpha 90.000000
_cell_angle_beta 90.000000
_cell_angle_gamma 90.000000
_cell_volume 5459.209391
_symmetry_space_group_name_H-M "C M M M"
_symmetry_group_IT_number 65
_symmetry_cell_setting 'orthorhombic'
loop_
_space_group_symop_operation_xyz
x,y,z
-x,-y,z
x,-y,-z
-x,y,-z
-x,-y,-z
x,y,-z
-x,y,z
x,-y,z
1/2+x,1/2+y,z
1/2-x,1/2-y,z
1/2+x,1/2-y,-z
1/2-x,1/2+y,-z
1/2-x,1/2-y,-z
1/2+x,1/2+y,-z
1/2-x,1/2+y,z
1/2+x,1/2-y,z
loop_
_atom_site_type_symbol
_atom_site_label
_atom_site_fract_x
_atom_site_fract_y
_atom_site_fract_z
Si Si1 0.228661 0.893181 0.860384
Si Si2 0.093755 0.888604 0.860754
Si Si3 0.744408 0.889500 0.500000
Si Si4 0.957933 0.112740 0.362585
Si Si5 0.661460 0.295048 0.252539
Si Si6 0.302221 0.891005 0.736572
Si Si7 0.828607 0.886009 0.500000
O O1 0.203989 0.825037 0.776568
O O2 0.273190 0.875701 0.849069
O O3 0.219833 0.000000 0.814439
O O4 0.216781 0.877476 0.000000
O O5 0.066353 0.848485 0.753147
O O6 0.132671 0.831970 0.849896
O O7 0.101618 0.000000 0.841650
O O8 0.077865 0.870516 0.000000
O O9 0.720939 0.858469 0.382475
O O10 0.786033 0.845554 0.500000
O O11 0.751517 0.000000 0.500000
O O12 0.943080 0.143975 0.500000
O O13 0.000000 0.151843 0.345149
O O14 0.958276 0.000000 0.355829
O O15 0.662105 0.179348 0.252602
O O16 0.649864 0.342185 0.382425
O O17 0.316872 0.000000 0.729330
O O18 0.832619 0.000000 0.500000
#
# Coordination Sequence:
#
# PCOD8270300 Si02
#       7
#    16  16   8  16  16  16   8
#     4  10  20  33  47  63  85 115 154 200 249 301
#     4  10  21  34  48  71 103 135 164 196 236 287
#     4   9  17  33  49  62  85 109 147 205 254 294
#     4   8  15  30  52  76 102 133 164 192 225 271
#     4  12  22  31  48  67  92 126 158 197 250 297
#     4  10  21  35  48  64  85 116 162 211 251 293
#     4  11  21  31  48  72  92 116 155 202 253 306
#
# _framework density 17.584963999999999
#
# number of rings (size 3 to 8) (size 9 to 14) (size 15 to 20)
#    0.000    2.000    1.667    3.500    1.167    4.333 
#    0.000    1.667    0.000    0.000    0.000    0.000 
#    0.000    0.667    0.000    3.333    0.000    1.000 
#
# Total GULP energy -594929.704303 kJ/mol
# GULP energy per Si atom -12394.368840 kJ/mol
# Density = 1.754494 g / cm^3
# Si number density = 17.584964 Si / 1000 Ang^3
#
#
#
# Elastic Constant Matrix: (Units=GPa)
#
#
# Indices 1 2 3 4 5 6 
#
# 1 47.4867 25.8522 37.7622 0.0000 0.0000 0.0000
# 2 25.8522 74.2905 31.4039 0.0000 0.0000 0.0000
# 3 37.7622 31.4039 104.6022 0.0000 0.0000 0.0000
# 4 0.0000 0.0000 0.0000 14.3946 0.0000 0.0000
# 5 0.0000 0.0000 0.0000 0.0000 25.4630 0.0000
# 6 0.0000 0.0000 0.0000 0.0000 0.0000 10.4684
#
#
#
# Elastic Compliance Matrix: (Units=1/GPa)
#
#
# Indices 1 2 3 4 5 6 
#
# 1 0.032673 -0.007312 -0.009600 0.000000 0.000000 0.000000
# 2 -0.007312 0.017054 -0.002480 0.000000 0.000000 0.000000
# 3 -0.009600 -0.002480 0.013770 0.000000 0.000000 0.000000
# 4 0.000000 0.000000 0.000000 0.069470 0.000000 0.000000
# 5 0.000000 0.000000 0.000000 0.000000 0.039273 0.000000
# 6 0.000000 0.000000 0.000000 0.000000 0.000000 0.095526
#
#
# Mechanical properties :
#
#
# Convention : Reuss Voigt Hill
#
# Bulk Modulus (GPa) = 40.46475 46.26846 43.36661
# Shear Modulus (GPa) = 15.88371 18.82261 17.35316
#
# Velocity S-wave (km/s) = 3.00868 3.27522 3.14477
# Velocity P-wave (km/s) = 5.92710 6.37740 6.15637
#
# Compressibility (1/GPa) = 0.02471287
#
# Stress axis : x y z
#
# Youngs Moduli (GPa) = 30.60601 58.63889 72.61960
#
# Poissons Ratio (x) = 0.42875 0.69716
# Poissons Ratio (y) = 0.22378 0.18011
# Poissons Ratio (z) = 0.29382 0.14544
#
# Static dielectric constant tensor:
#      x y z
#    x 3.009340 0.000000 0.000000 
#    y 0.000000 3.064580 0.000000 
#    z 0.000000 0.000000 3.543550 
# 
# 
# High freq. dielectric constant tensor:
#      x y z
#    x 1.631360 0.000000 0.000000 
#    y 0.000000 1.643990 0.000000 
#    z 0.000000 0.000000 1.701240 
# 
# From -- ./inp_files/33923.got.cif
#   From: 2010.03.12/outbox.cif.g09.slc.cpg/sg65_17_cif.got.tgz:33923.got - 2010.04.10 20:52:16.
