data_PCOD8270673
_publ_section_title
;
Structure prediction by ZEFSAII (Michael W. Deem and Ramdas Pophale) SiO2 
 PCOD8270673
Probable space group: C M M M
;
_chemical_formula_sum "Si O2"
_cell_formula_units_Z 120
_cell_length_a 9.153548
_cell_length_b 27.711645
_cell_length_c 25.825143
_cell_angle_alpha 90.000000
_cell_angle_beta 90.000000
_cell_angle_gamma 90.000000
_cell_volume 6550.802485
_symmetry_space_group_name_H-M "C M M M"
_symmetry_group_IT_number 65
_symmetry_cell_setting 'orthorhombic'
loop_
_space_group_symop_operation_xyz
x,y,z
-x,-y,z
x,-y,-z
-x,y,-z
-x,-y,-z
x,y,-z
-x,y,z
x,-y,z
1/2+x,1/2+y,z
1/2-x,1/2-y,z
1/2+x,1/2-y,-z
1/2-x,1/2+y,-z
1/2-x,1/2-y,-z
1/2+x,1/2+y,-z
1/2-x,1/2+y,z
1/2+x,1/2-y,z
loop_
_atom_site_type_symbol
_atom_site_label
_atom_site_fract_x
_atom_site_fract_y
_atom_site_fract_z
Si Si1 0.665338 0.943289 0.500000
Si Si2 0.831487 0.124263 0.699314
Si Si3 0.834591 0.555936 0.231359
Si Si4 0.169014 0.554826 0.060359
Si Si5 0.670937 0.382396 0.421287
Si Si6 0.669733 0.699090 0.214237
Si Si7 0.827329 0.890658 0.854785
Si Si8 0.658133 0.208847 0.442461
O O1 0.500000 0.921580 0.500000
O O2 0.750083 0.928375 0.552844
O O3 0.657895 0.000000 0.500000
O O4 0.727587 0.081728 0.718075
O O5 0.798123 0.127200 0.638933
O O6 0.793819 0.173810 0.730332
O O7 0.000000 0.110758 0.710526
O O8 0.827594 0.500000 0.243197
O O9 0.734493 0.568096 0.182544
O O10 0.000000 0.573044 0.220425
O O11 0.219683 0.500000 0.074649
O O12 0.259797 0.596903 0.089262
O O13 0.000000 0.560550 0.075486
O O14 0.193736 0.564077 0.000000
O O15 0.500000 0.386109 0.433174
O O16 0.743103 0.337721 0.449524
O O17 0.500000 0.710758 0.209948
O O18 0.750000 0.750000 0.208631
O O19 0.716799 0.662291 0.167708
O O20 0.000000 0.895272 0.857789
O O21 0.625501 0.228212 0.500000
O O22 0.500000 0.199626 0.414867
O O23 0.750000 0.250000 0.411499
#
# Coordination Sequence:
#
# PCOD8270673 Si02
#       8
#     8  16  16  16  16  16  16  16
#     4  11  25  43  60  79 106 141 181 223 263 309
#     4   9  21  38  54  78 108 136 169 213 265 319
#     4  10  20  33  51  76 104 136 175 216 260 314
#     4   9  18  32  50  76 112 150 187 229 275 323
#     4  11  22  38  60  82 108 139 173 216 266 320
#     4   9  19  36  55  77 106 137 174 218 266 318
#     4  10  20  33  51  77 108 142 181 225 270 320
#     4  10  20  34  54  79 107 135 165 201 248 303
#
# _framework density 18.318365
#
# number of rings (size 3 to 8) (size 9 to 14) (size 15 to 20)
#    0.000    2.200    0.667    3.400    0.000    9.067 
#    0.000    4.667    0.000    0.400    0.000    0.000 
#    0.000    0.000    0.000    0.000    0.000    0.000 
#
# Total GULP energy -743588.399987 kJ/mol
# GULP energy per Si atom -12393.140000 kJ/mol
# Density = 1.827667 g / cm^3
# Si number density = 18.318365 Si / 1000 Ang^3
#
#
#
# Elastic Constant Matrix: (Units=GPa)
#
#
# Indices 1 2 3 4 5 6 
#
# 1 112.9791 63.3069 51.7476 0.0000 0.0000 0.0000
# 2 63.3069 108.1327 50.3299 0.0000 0.0000 0.0000
# 3 51.7476 50.3299 98.0899 0.0000 0.0000 0.0000
# 4 0.0000 0.0000 0.0000 6.4162 0.0000 0.0000
# 5 0.0000 0.0000 0.0000 0.0000 36.3990 0.0000
# 6 0.0000 0.0000 0.0000 0.0000 0.0000 34.8751
#
#
#
# Elastic Compliance Matrix: (Units=1/GPa)
#
#
# Indices 1 2 3 4 5 6 
#
# 1 0.014437 -0.006447 -0.004308 0.000000 0.000000 0.000000
# 2 -0.006447 0.015028 -0.004310 0.000000 0.000000 0.000000
# 3 -0.004308 -0.004310 0.014679 0.000000 0.000000 0.000000
# 4 0.000000 0.000000 0.000000 0.155855 0.000000 0.000000
# 5 0.000000 0.000000 0.000000 0.000000 0.027473 0.000000
# 6 0.000000 0.000000 0.000000 0.000000 0.000000 0.028674
#
#
# Mechanical properties :
#
#
# Convention : Reuss Voigt Hill
#
# Bulk Modulus (GPa) = 71.35757 72.21894 71.78826
# Shear Modulus (GPa) = 17.18521 25.79255 21.48888
#
# Velocity S-wave (km/s) = 3.06623 3.75642 3.42874
# Velocity P-wave (km/s) = 7.18153 7.63703 7.41278
#
# Compressibility (1/GPa) = 0.01401393
#
# Stress axis : x y z
#
# Youngs Moduli (GPa) = 69.26625 66.54107 68.12425
#
# Poissons Ratio (x) = 0.42899 0.29351
# Poissons Ratio (y) = 0.44655 0.29361
# Poissons Ratio (z) = 0.29843 0.28679
#
# Static dielectric constant tensor:
#      x y z
#    x 3.729520 0.000000 0.000000 
#    y 0.000000 3.268530 0.000000 
#    z 0.000000 0.000000 3.341130 
# 
# 
# High freq. dielectric constant tensor:
#      x y z
#    x 1.724300 0.000000 0.000000 
#    y 0.000000 1.699600 0.000000 
#    z 0.000000 0.000000 1.696720 
# 
# From -- ./inp_files/74010.got.cif
#   From: 2010.03.12/outbox.cif.g09.slc.cpg/sg65_38_cif.got.tgz:74010.got - 2010.04.10 20:52:16.
