data_PCOD8270485
_publ_section_title
;
Structure prediction by ZEFSAII (Michael W. Deem and Ramdas Pophale) SiO2 
 PCOD8270485
Probable space group: C M M M
;
_chemical_formula_sum "Si O2"
_cell_formula_units_Z 88
_cell_length_a 19.204077
_cell_length_b 9.520471
_cell_length_c 27.890344
_cell_angle_alpha 90.000000
_cell_angle_beta 90.000000
_cell_angle_gamma 90.000000
_cell_volume 5099.243418
_symmetry_space_group_name_H-M "C M M M"
_symmetry_group_IT_number 65
_symmetry_cell_setting 'orthorhombic'
loop_
_space_group_symop_operation_xyz
x,y,z
-x,-y,z
x,-y,-z
-x,y,-z
-x,-y,-z
x,y,-z
-x,y,z
x,-y,z
1/2+x,1/2+y,z
1/2-x,1/2-y,z
1/2+x,1/2-y,-z
1/2-x,1/2+y,-z
1/2-x,1/2-y,-z
1/2+x,1/2+y,-z
1/2-x,1/2+y,z
1/2+x,1/2-y,z
loop_
_atom_site_type_symbol
_atom_site_label
_atom_site_fract_x
_atom_site_fract_y
_atom_site_fract_z
Si Si1 0.577214 0.166088 0.500000
Si Si2 0.418067 0.338253 0.755507
Si Si3 0.681095 0.164544 0.690571
Si Si4 0.582794 0.842785 0.052599
Si Si5 0.082800 0.844632 0.137236
Si Si6 0.317324 0.162240 0.579857
O O1 0.500000 0.234690 0.500000
O O2 0.618209 0.215101 0.452363
O O3 0.569891 0.000000 0.500000
O O4 0.500000 0.320778 0.748693
O O5 0.396391 0.500000 0.744965
O O6 0.382426 0.229311 0.719874
O O7 0.395375 0.295010 0.809542
O O8 0.750000 0.250000 0.704852
O O9 0.662630 0.187040 0.634973
O O10 0.690987 0.000000 0.702826
O O11 0.500000 0.842541 0.056693
O O12 0.615933 0.752658 0.095807
O O13 0.611515 0.000000 0.058307
O O14 0.604541 0.783046 0.000000
O O15 0.000000 0.845364 0.133879
O O16 0.111997 0.000000 0.127879
O O17 0.250000 0.250000 0.564795
O O18 0.299979 0.000000 0.569575
#
# Coordination Sequence:
#
# PCOD8270485 Si02
#       6
#     8  16  16  16  16  16
#     4   9  17  30  49  73 100 127 154 188 230 271
#     4   9  18  32  48  67  94 126 157 193 240 288
#     4  10  20  33  50  72  96 123 159 200 238 280
#     4   8  13  20  30  47  74 108 144 182 224 268
#     4   8  14  24  37  54  78 110 147 184 224 273
#     4   9  18  32  51  72  93 122 157 192 230 274
#
# _framework density 17.257462
#
# number of rings (size 3 to 8) (size 9 to 14) (size 15 to 20)
#    0.000    3.182    0.000    2.455    0.000    2.909 
#    0.000    5.455    0.000    1.091    0.000    0.000 
#    0.000    0.727    0.000    2.364    0.000    5.273 
#
# Total GULP energy -545343.661355 kJ/mol
# GULP energy per Si atom -12394.174122 kJ/mol
# Density = 1.721818 g / cm^3
# Si number density = 17.257462 Si / 1000 Ang^3
#
#
#
# Elastic Constant Matrix: (Units=GPa)
#
#
# Indices 1 2 3 4 5 6 
#
# 1 67.2101 43.8664 54.9964 0.0000 0.0000 0.0000
# 2 43.8664 87.5139 65.3249 0.0000 0.0000 0.0000
# 3 54.9964 65.3249 121.3640 0.0000 0.0000 0.0000
# 4 0.0000 0.0000 0.0000 24.0895 0.0000 0.0000
# 5 0.0000 0.0000 0.0000 0.0000 1.5990 0.0000
# 6 0.0000 0.0000 0.0000 0.0000 0.0000 22.1412
#
#
#
# Elastic Compliance Matrix: (Units=1/GPa)
#
#
# Indices 1 2 3 4 5 6 
#
# 1 0.026040 -0.007095 -0.007981 0.000000 0.000000 0.000000
# 2 -0.007095 0.021034 -0.008107 0.000000 0.000000 0.000000
# 3 -0.007981 -0.008107 0.016220 0.000000 0.000000 0.000000
# 4 0.000000 0.000000 0.000000 0.041512 0.000000 0.000000
# 5 0.000000 0.000000 0.000000 0.000000 0.625380 0.000000
# 6 0.000000 0.000000 0.000000 0.000000 0.000000 0.045165
#
#
# Mechanical properties :
#
#
# Convention : Reuss Voigt Hill
#
# Bulk Modulus (GPa) = 59.07204 67.16260 63.11732
# Shear Modulus (GPa) = 6.04331 17.02596 11.53464
#
# Velocity S-wave (km/s) = 1.87335 3.14440 2.58812
# Velocity P-wave (km/s) = 6.24367 7.22395 6.75163
#
# Compressibility (1/GPa) = 0.01692848
#
# Stress axis : x y z
#
# Youngs Moduli (GPa) = 38.40187 47.54095 61.65251
#
# Poissons Ratio (x) = 0.33731 0.49207
# Poissons Ratio (y) = 0.27247 0.49980
# Poissons Ratio (z) = 0.30650 0.38540
#
# Static dielectric constant tensor:
#      x y z
#    x 2.851770 0.000000 0.000000 
#    y 0.000000 3.312730 0.000000 
#    z 0.000000 0.000000 3.471120 
# 
# 
# High freq. dielectric constant tensor:
#      x y z
#    x 1.618720 0.000000 0.000000 
#    y 0.000000 1.658910 0.000000 
#    z 0.000000 0.000000 1.680380 
# 
# From -- ./inp_files/77868.got.cif
#   From: 2010.03.12/outbox.cif.g09.slc.cpg/sg65_39_cif.got.tgz:77868.got - 2010.04.10 20:52:16.
