data_PCOD8270576
_publ_section_title
;
Structure prediction by ZEFSAII (Michael W. Deem and Ramdas Pophale) SiO2 
 PCOD8270576
Probable space group: C M M M
;
_chemical_formula_sum "Si O2"
_cell_formula_units_Z 104
_cell_length_a 26.889965
_cell_length_b 17.534285
_cell_length_c 12.917305
_cell_angle_alpha 90.000000
_cell_angle_beta 90.000000
_cell_angle_gamma 90.000000
_cell_volume 6090.461642
_symmetry_space_group_name_H-M "C M M M"
_symmetry_group_IT_number 65
_symmetry_cell_setting 'orthorhombic'
loop_
_space_group_symop_operation_xyz
x,y,z
-x,-y,z
x,-y,-z
-x,y,-z
-x,-y,-z
x,y,-z
-x,y,z
x,-y,z
1/2+x,1/2+y,z
1/2-x,1/2-y,z
1/2+x,1/2-y,-z
1/2-x,1/2+y,-z
1/2-x,1/2-y,-z
1/2+x,1/2+y,-z
1/2-x,1/2+y,z
1/2+x,1/2-y,z
loop_
_atom_site_type_symbol
_atom_site_label
_atom_site_fract_x
_atom_site_fract_y
_atom_site_fract_z
Si Si1 0.000000 0.414305 0.876840
Si Si2 0.557043 0.588795 0.616873
Si Si3 0.298033 0.587338 0.880948
Si Si4 0.691306 0.088217 0.791701
Si Si5 0.097670 0.327831 0.121026
Si Si6 0.301803 0.791630 0.381124
Si Si7 0.370943 0.689425 0.252148
O O1 0.048969 0.371022 0.835908
O O2 0.000000 0.500000 0.831243
O O3 0.000000 0.417630 0.000000
O O4 0.574596 0.607664 0.500000
O O5 0.500000 0.613076 0.631041
O O6 0.563973 0.500000 0.639505
O O7 0.589072 0.633158 0.700138
O O8 0.311962 0.500000 0.855032
O O9 0.239993 0.601949 0.860688
O O10 0.329801 0.642546 0.809761
O O11 0.309371 0.606620 0.000000
O O12 0.645670 0.120859 0.857018
O O13 0.697149 0.129831 0.681949
O O14 0.682061 0.000000 0.767837
O O15 0.100757 0.246145 0.175390
O O16 0.092999 0.312706 0.000000
O O17 0.310652 0.812935 0.500000
O O18 0.250000 0.750000 0.362949
O O19 0.345353 0.735764 0.344493
#
# Coordination Sequence:
#
# PCOD8270576 Si02
#       7
#     8  16  16  16  16  16  16
#     4   9  18  34  52  72 100 131 168 214 258 299
#     4   9  19  36  57  80 104 132 172 222 267 306
#     4  10  20  33  50  74 106 141 175 211 250 300
#     4  10  20  35  54  77 102 137 179 214 255 310
#     4  10  21  33  52  79 105 137 174 215 262 306
#     4  10  20  35  51  74 106 136 168 212 260 307
#     4  11  20  33  54  76 106 138 174 210 256 315
#
# _framework density 17.075880999999999
#
# number of rings (size 3 to 8) (size 9 to 14) (size 15 to 20)
#    0.000    2.077    1.538    2.769    1.077    1.846 
#    0.000    2.308    0.000    0.000    0.000    3.231 
#    0.000    6.462    0.000    0.000    0.000    0.000 
#
# Total GULP energy -644937.732780 kJ/mol
# GULP energy per Si atom -12402.648707 kJ/mol
# Density = 1.703702 g / cm^3
# Si number density = 17.075881 Si / 1000 Ang^3
#
#
#
# Elastic Constant Matrix: (Units=GPa)
#
#
# Indices 1 2 3 4 5 6 
#
# 1 88.6423 46.8550 31.5384 0.0000 0.0000 0.0000
# 2 46.8550 88.3234 35.9489 0.0000 0.0000 0.0000
# 3 31.5384 35.9489 72.1369 0.0000 0.0000 0.0000
# 4 0.0000 0.0000 0.0000 -57.8640 0.0000 0.0000
# 5 0.0000 0.0000 0.0000 0.0000 20.4943 0.0000
# 6 0.0000 0.0000 0.0000 0.0000 0.0000 32.5347
#
#
#
# Elastic Compliance Matrix: (Units=1/GPa)
#
#
# Indices 1 2 3 4 5 6 
#
# 1 0.016371 -0.007240 -0.003549 0.000000 0.000000 0.000000
# 2 -0.007240 0.017405 -0.005508 0.000000 0.000000 0.000000
# 3 -0.003549 -0.005508 0.018159 0.000000 0.000000 0.000000
# 4 0.000000 0.000000 0.000000 -0.017282 0.000000 0.000000
# 5 0.000000 0.000000 0.000000 0.000000 0.048794 0.000000
# 6 0.000000 0.000000 0.000000 0.000000 0.000000 0.030736
#
#
# Mechanical properties :
#
#
# Convention : Reuss Voigt Hill
#
# Bulk Modulus (GPa) = 51.70681 53.08747 52.39714
# Shear Modulus (GPa) = 32.63155 8.01702 20.32429
#
# Velocity S-wave (km/s) = 4.37621 2.16913 3.45372
# Velocity P-wave (km/s) = 7.47538 6.11802 6.83050
#
# Compressibility (1/GPa) = 0.01933981
#
# Stress axis : x y z
#
# Youngs Moduli (GPa) = 61.08286 57.45557 55.06822
#
# Poissons Ratio (x) = 0.41599 0.19546
# Poissons Ratio (y) = 0.44225 0.30332
# Poissons Ratio (z) = 0.21681 0.31647
#
# Static dielectric constant tensor:
#      x y z
#    x 3.224810 0.000000 0.000000 
#    y 0.000000 3.263490 0.000000 
#    z 0.000000 0.000000 3.081180 
# 
# 
# High freq. dielectric constant tensor:
#      x y z
#    x 1.663900 0.000000 0.000000 
#    y 0.000000 1.667380 0.000000 
#    z 0.000000 0.000000 1.652170 
# 
# From -- ./inp_files/27498.got.cif
#   From: 2010.03.12/outbox.cif.g09.slc.cpg/sg65_14_cif.got.tgz:27498.got - 2010.04.10 20:52:16.
