data_PCOD8270241
_publ_section_title
;
Structure prediction by ZEFSAII (Michael W. Deem and Ramdas Pophale) SiO2 
 PCOD8270241
Probable space group: C M M M
;
_chemical_formula_sum "Si O2"
_cell_formula_units_Z 88
_cell_length_a 14.315629
_cell_length_b 27.556611
_cell_length_c 13.161899
_cell_angle_alpha 90.000000
_cell_angle_beta 90.000000
_cell_angle_gamma 90.000000
_cell_volume 5192.240427
_symmetry_space_group_name_H-M "C M M M"
_symmetry_group_IT_number 65
_symmetry_cell_setting 'orthorhombic'
loop_
_space_group_symop_operation_xyz
x,y,z
-x,-y,z
x,-y,-z
-x,y,-z
-x,-y,-z
x,y,-z
-x,y,z
x,-y,z
1/2+x,1/2+y,z
1/2-x,1/2-y,z
1/2+x,1/2-y,-z
1/2-x,1/2+y,-z
1/2-x,1/2-y,-z
1/2+x,1/2+y,-z
1/2-x,1/2+y,z
1/2+x,1/2-y,z
loop_
_atom_site_type_symbol
_atom_site_label
_atom_site_fract_x
_atom_site_fract_y
_atom_site_fract_z
Si Si1 0.187913 0.702529 0.787431
Si Si2 0.610312 0.137500 0.617482
Si Si3 0.198443 0.116435 0.119063
Si Si4 0.500000 0.347679 0.119522
Si Si5 0.000000 0.557431 0.111939
Si Si6 0.500000 0.759941 0.119983
Si Si7 0.672438 0.056772 0.753909
O O1 0.250000 0.750000 0.769802
O O2 0.163004 0.679977 0.678095
O O3 0.245033 0.665338 0.857424
O O4 0.092073 0.712577 0.844821
O O5 0.632078 0.145854 0.500000
O O6 0.500000 0.137963 0.639558
O O7 0.655241 0.085635 0.649404
O O8 0.232937 0.071435 0.187954
O O9 0.091362 0.123001 0.153372
O O10 0.207706 0.103729 0.000000
O O11 0.500000 0.294033 0.168665
O O12 0.500000 0.340329 0.000000
O O13 0.908769 0.574962 0.170510
O O14 0.000000 0.500000 0.103593
O O15 0.000000 0.581211 0.000000
O O16 0.500000 0.757958 0.000000
O O17 0.671061 0.000000 0.729126
#
# Coordination Sequence:
#
# PCOD8270241 Si02
#       7
#    16  16  16   8   8   8  16
#     4  11  21  34  53  79 107 143 179 211 254 307
#     4  10  21  37  54  75 103 133 171 223 274 315
#     4  10  20  32  50  76 108 142 176 213 251 300
#     4   9  18  32  48  72 104 141 180 213 247 289
#     4   9  16  27  45  70 102 133 160 194 241 302
#     4  11  20  31  50  78 113 145 177 209 245 298
#     4  10  20  34  51  75 101 134 174 211 262 318
#
# _framework density 16.948367999999999
#
# number of rings (size 3 to 8) (size 9 to 14) (size 15 to 20)
#    0.000    1.909    3.636    1.091    0.000    2.545 
#    0.000    4.091    0.000    1.636    0.000    5.727 
#    0.000    5.818    0.000    0.000    0.000    0.000 
#
# Total GULP energy -545590.429876 kJ/mol
# GULP energy per Si atom -12399.782497 kJ/mol
# Density = 1.690979 g / cm^3
# Si number density = 16.948368 Si / 1000 Ang^3
#
#
#
# Elastic Constant Matrix: (Units=GPa)
#
#
# Indices 1 2 3 4 5 6 
#
# 1 119.7173 32.7155 32.3469 0.0000 0.0000 0.0000
# 2 32.7155 78.2155 25.1222 0.0000 0.0000 0.0000
# 3 32.3469 25.1222 79.1863 0.0000 0.0000 0.0000
# 4 0.0000 0.0000 0.0000 18.1163 0.0000 0.0000
# 5 0.0000 0.0000 0.0000 0.0000 10.9471 0.0000
# 6 0.0000 0.0000 0.0000 0.0000 0.0000 3.7338
#
#
#
# Elastic Compliance Matrix: (Units=1/GPa)
#
#
# Indices 1 2 3 4 5 6 
#
# 1 0.010068 -0.003218 -0.003092 0.000000 0.000000 0.000000
# 2 -0.003218 0.015264 -0.003528 0.000000 0.000000 0.000000
# 3 -0.003092 -0.003528 0.015011 0.000000 0.000000 0.000000
# 4 0.000000 0.000000 0.000000 0.055199 0.000000 0.000000
# 5 0.000000 0.000000 0.000000 0.000000 0.091348 0.000000
# 6 0.000000 0.000000 0.000000 0.000000 0.000000 0.267821
#
#
# Mechanical properties :
#
#
# Convention : Reuss Voigt Hill
#
# Bulk Modulus (GPa) = 48.38599 50.83204 49.60901
# Shear Modulus (GPa) = 10.38905 19.02175 14.70540
#
# Velocity S-wave (km/s) = 2.47853 3.35376 2.94880
# Velocity P-wave (km/s) = 6.06645 6.71225 6.39751
#
# Compressibility (1/GPa) = 0.02066714
#
# Stress axis : x y z
#
# Youngs Moduli (GPa) = 99.32681 65.51176 66.61924
#
# Poissons Ratio (x) = 0.21082 0.20596
# Poissons Ratio (y) = 0.31964 0.23504
# Poissons Ratio (z) = 0.30708 0.23113
#
# Static dielectric constant tensor:
#      x y z
#    x 1.286260 0.000000 0.000000 
#    y 0.000000 3.126380 0.000000 
#    z 0.000000 0.000000 3.012770 
# 
# 
# High freq. dielectric constant tensor:
#      x y z
#    x 1.657710 0.000000 0.000000 
#    y 0.000000 1.652250 0.000000 
#    z 0.000000 0.000000 1.634630 
# 
# From -- ./inp_files/25180.got.cif
#   From: 2010.03.12/outbox.cif.g09.slc.cpg/sg65_13_cif.got.tgz:25180.got - 2010.04.10 20:52:16.
