data_PCOD8270934
_publ_section_title
;
Structure prediction by ZEFSAII (Michael W. Deem and Ramdas Pophale) SiO2 
 PCOD8270934
Probable space group: C M M M
;
_chemical_formula_sum "Si O2"
_cell_formula_units_Z 96
_cell_length_a 8.890128
_cell_length_b 27.360016
_cell_length_c 23.495221
_cell_angle_alpha 90.000000
_cell_angle_beta 90.000000
_cell_angle_gamma 90.000000
_cell_volume 5714.837626
_symmetry_space_group_name_H-M "C M M M"
_symmetry_group_IT_number 65
_symmetry_cell_setting 'orthorhombic'
loop_
_space_group_symop_operation_xyz
x,y,z
-x,-y,z
x,-y,-z
-x,y,-z
-x,-y,-z
x,y,-z
-x,y,z
x,-y,z
1/2+x,1/2+y,z
1/2-x,1/2-y,z
1/2+x,1/2-y,-z
1/2-x,1/2+y,-z
1/2-x,1/2-y,-z
1/2+x,1/2+y,-z
1/2-x,1/2+y,z
1/2+x,1/2-y,z
loop_
_atom_site_type_symbol
_atom_site_label
_atom_site_fract_x
_atom_site_fract_y
_atom_site_fract_z
Si Si1 0.175542 0.943826 0.279647
Si Si2 0.675908 0.699632 0.234061
Si Si3 0.675115 0.301259 0.565867
Si Si4 0.321699 0.856335 0.663181
Si Si5 0.672528 0.605348 0.164645
Si Si6 0.677619 0.054612 0.063450
O O1 0.271969 0.911681 0.323286
O O2 0.223846 0.930984 0.215225
O O3 0.000000 0.930913 0.287793
O O4 0.211003 0.000000 0.292476
O O5 0.500000 0.706561 0.246424
O O6 0.750000 0.750000 0.213855
O O7 0.753495 0.681580 0.291729
O O8 0.703501 0.660986 0.183498
O O9 0.700389 0.313966 0.500000
O O10 0.500000 0.298675 0.581634
O O11 0.750000 0.250000 0.582175
O O12 0.757145 0.343628 0.601195
O O13 0.500000 0.852281 0.663675
O O14 0.500000 0.596454 0.149904
O O15 0.764187 0.594374 0.107891
O O16 0.500000 0.055191 0.065227
O O17 0.736140 0.000000 0.078906
O O18 0.733710 0.068790 0.000000
#
# Coordination Sequence:
#
# PCOD8270934 Si02
#       6
#    16  16  16  16  16  16
#     4   9  18  33  51  71  98 129 160 197 240 284
#     4  10  20  34  50  70  97 126 159 197 238 284
#     4  10  20  34  52  73  98 128 161 197 239 285
#     4  11  21  32  49  73 101 130 160 195 236 283
#     4   9  18  31  48  71  96 122 154 194 237 280
#     4   9  18  31  46  67  96 127 157 191 232 278
#
# _framework density 16.798378
#
# number of rings (size 3 to 8) (size 9 to 14) (size 15 to 20)
#    0.000    2.333    0.000    5.000    0.000    6.000 
#    0.000    0.833    0.000    1.000    0.000    3.500 
#    0.000    0.000    0.000    0.000    0.000    0.000 
#
# Total GULP energy -595275.754902 kJ/mol
# GULP energy per Si atom -12401.578227 kJ/mol
# Density = 1.676014 g / cm^3
# Si number density = 16.798378 Si / 1000 Ang^3
#
#
#
# Elastic Constant Matrix: (Units=GPa)
#
#
# Indices 1 2 3 4 5 6 
#
# 1 103.8442 55.7454 55.5741 0.0000 0.0000 0.0000
# 2 55.7454 105.6680 58.8069 0.0000 0.0000 0.0000
# 3 55.5741 58.8069 102.3246 0.0000 0.0000 0.0000
# 4 0.0000 0.0000 0.0000 24.2098 0.0000 0.0000
# 5 0.0000 0.0000 0.0000 0.0000 29.3313 0.0000
# 6 0.0000 0.0000 0.0000 0.0000 0.0000 30.2939
#
#
#
# Elastic Compliance Matrix: (Units=1/GPa)
#
#
# Indices 1 2 3 4 5 6 
#
# 1 0.015203 -0.005036 -0.005363 0.000000 0.000000 0.000000
# 2 -0.005036 0.015582 -0.006220 0.000000 0.000000 0.000000
# 3 -0.005363 -0.006220 0.016260 0.000000 0.000000 0.000000
# 4 0.000000 0.000000 0.000000 0.041306 0.000000 0.000000
# 5 0.000000 0.000000 0.000000 0.000000 0.034093 0.000000
# 6 0.000000 0.000000 0.000000 0.000000 0.000000 0.033010
#
#
# Mechanical properties :
#
#
# Convention : Reuss Voigt Hill
#
# Bulk Modulus (GPa) = 72.42340 72.45438 72.43889
# Shear Modulus (GPa) = 25.86730 26.21437 26.04083
#
# Velocity S-wave (km/s) = 3.92837 3.95464 3.94153
# Velocity P-wave (km/s) = 7.98643 8.00485 7.99565
#
# Compressibility (1/GPa) = 0.01380769
#
# Stress axis : x y z
#
# Youngs Moduli (GPa) = 65.77541 64.17718 61.49997
#
# Poissons Ratio (x) = 0.32319 0.32982
# Poissons Ratio (y) = 0.33124 0.38253
# Poissons Ratio (z) = 0.35275 0.39918
#
# Static dielectric constant tensor:
#      x y z
#    x 3.147110 0.000000 0.000000 
#    y 0.000000 3.156080 0.000000 
#    z 0.000000 0.000000 3.078590 
# 
# 
# High freq. dielectric constant tensor:
#      x y z
#    x 1.654050 0.000000 0.000000 
#    y 0.000000 1.639030 0.000000 
#    z 0.000000 0.000000 1.636420 
# 
# From -- ./inp_files/65765.got.cif
#   From: 2010.03.12/outbox.cif.g09.slc.cpg/sg65_33_cif.got.tgz:65765.got - 2010.04.10 20:52:16.
