data_PCOD8270858
_publ_section_title
;
Structure prediction by ZEFSAII (Michael W. Deem and Ramdas Pophale) SiO2 
 PCOD8270858
Probable space group: C M M M
;
_chemical_formula_sum "Si O2"
_cell_formula_units_Z 120
_cell_length_a 17.224033
_cell_length_b 20.014886
_cell_length_c 19.118624
_cell_angle_alpha 90.000000
_cell_angle_beta 90.000000
_cell_angle_gamma 90.000000
_cell_volume 6590.898171
_symmetry_space_group_name_H-M "C M M M"
_symmetry_group_IT_number 65
_symmetry_cell_setting 'orthorhombic'
loop_
_space_group_symop_operation_xyz
x,y,z
-x,-y,z
x,-y,-z
-x,y,-z
-x,-y,-z
x,y,-z
-x,y,z
x,-y,z
1/2+x,1/2+y,z
1/2-x,1/2-y,z
1/2+x,1/2-y,-z
1/2-x,1/2+y,-z
1/2-x,1/2-y,-z
1/2+x,1/2+y,-z
1/2-x,1/2+y,z
1/2+x,1/2-y,z
loop_
_atom_site_type_symbol
_atom_site_label
_atom_site_fract_x
_atom_site_fract_y
_atom_site_fract_z
Si Si1 0.819271 0.925477 0.419863
Si Si2 0.085012 0.763873 0.828799
Si Si3 0.210101 0.573898 0.293594
Si Si4 0.413824 0.813210 0.312006
Si Si5 0.091009 0.793540 0.420562
Si Si6 0.907720 0.000000 0.916700
Si Si7 0.809296 0.890233 0.837858
Si Si8 0.193082 0.687292 0.922435
O O1 0.791808 0.916780 0.500000
O O2 0.744766 0.918428 0.370893
O O3 0.878348 0.866716 0.398424
O O4 0.857013 0.000000 0.409560
O O5 0.077002 0.735585 0.752231
O O6 0.144926 0.823340 0.822418
O O7 0.115375 0.706819 0.881231
O O8 0.000000 0.787601 0.855446
O O9 0.174265 0.500000 0.284189
O O10 0.141234 0.626762 0.288237
O O11 0.278107 0.581898 0.235777
O O12 0.500000 0.840451 0.333151
O O13 0.376154 0.767908 0.374033
O O14 0.114114 0.777002 0.500000
O O15 0.000000 0.797586 0.408842
O O16 0.868274 0.936873 0.879996
O O17 0.000000 0.000000 0.901913
O O18 0.891631 0.000000 0.000000
O O19 0.734465 0.875564 0.885824
O O20 0.250000 0.750000 0.925094
O O21 0.168887 0.664922 0.000000
#
# Coordination Sequence:
#
# PCOD8270858 Si02
#       8
#    16  16  16  16  16   8  16  16
#     4   9  19  34  53  81 116 150 188 229 271 327
#     4  10  20  33  53  80 110 142 177 224 277 328
#     4  11  22  37  58  80 106 145 188 234 286 337
#     4  10  21  37  56  80 108 140 184 237 289 338
#     4   9  18  33  54  81 114 151 189 229 277 334
#     4  11  24  40  58  82 116 154 186 223 278 338
#     4  11  20  36  56  81 109 145 189 229 270 332
#     4   9  18  32  52  77 103 136 179 223 269 326
#
# _framework density 18.206925999999999
#
# number of rings (size 3 to 8) (size 9 to 14) (size 15 to 20)
#    0.000    2.067    2.000    1.600    0.000    3.467 
#    0.000    3.333    0.000    0.000    0.000    3.733 
#    0.000    4.267    0.000    0.000    0.000    0.000 
#
# Total GULP energy -743714.681972 kJ/mol
# GULP energy per Si atom -12395.244700 kJ/mol
# Density = 1.816549 g / cm^3
# Si number density = 18.206926 Si / 1000 Ang^3
#
#
#
# Elastic Constant Matrix: (Units=GPa)
#
#
# Indices 1 2 3 4 5 6 
#
# 1 74.5791 47.2033 37.1910 0.0000 0.0000 0.0000
# 2 47.2033 101.4796 38.8717 0.0000 0.0000 0.0000
# 3 37.1910 38.8717 96.1528 0.0000 0.0000 0.0000
# 4 0.0000 0.0000 0.0000 23.5249 0.0000 0.0000
# 5 0.0000 0.0000 0.0000 0.0000 25.6116 0.0000
# 6 0.0000 0.0000 0.0000 0.0000 0.0000 21.6169
#
#
#
# Elastic Compliance Matrix: (Units=1/GPa)
#
#
# Indices 1 2 3 4 5 6 
#
# 1 0.020778 -0.007793 -0.004886 0.000000 0.000000 0.000000
# 2 -0.007793 0.014583 -0.002881 0.000000 0.000000 0.000000
# 3 -0.004886 -0.002881 0.013455 0.000000 0.000000 0.000000
# 4 0.000000 0.000000 0.000000 0.042508 0.000000 0.000000
# 5 0.000000 0.000000 0.000000 0.000000 0.039045 0.000000
# 6 0.000000 0.000000 0.000000 0.000000 0.000000 0.046260
#
#
# Mechanical properties :
#
#
# Convention : Reuss Voigt Hill
#
# Bulk Modulus (GPa) = 56.51438 57.63817 57.07627
# Shear Modulus (GPa) = 23.40307 24.08036 23.74172
#
# Velocity S-wave (km/s) = 3.58913 3.64069 3.61500
# Velocity P-wave (km/s) = 6.94861 7.02843 6.98864
#
# Compressibility (1/GPa) = 0.01769461
#
# Stress axis : x y z
#
# Youngs Moduli (GPa) = 48.12857 68.57403 74.32330
#
# Poissons Ratio (x) = 0.53441 0.36315
# Poissons Ratio (y) = 0.37507 0.21413
# Poissons Ratio (z) = 0.23516 0.19757
#
# Static dielectric constant tensor:
#      x y z
#    x 3.336870 0.000000 0.000000 
#    y 0.000000 3.439580 0.000000 
#    z 0.000000 0.000000 3.560990 
# 
# 
# High freq. dielectric constant tensor:
#      x y z
#    x 1.689750 0.000000 0.000000 
#    y 0.000000 1.701210 0.000000 
#    z 0.000000 0.000000 1.719380 
# 
# From -- ./inp_files/63059.got.cif
#   From: 2010.03.12/outbox.cif.g09.slc.cpg/sg65_32_cif.got.tgz:63059.got - 2010.04.10 20:52:16.
