data_PCOD8270322
_publ_section_title
;
Structure prediction by ZEFSAII (Michael W. Deem and Ramdas Pophale) SiO2 
 PCOD8270322
Probable space group: C M M M
;
_chemical_formula_sum "Si O2"
_cell_formula_units_Z 72
_cell_length_a 18.309078
_cell_length_b 22.759026
_cell_length_c 9.375158
_cell_angle_alpha 90.000000
_cell_angle_beta 90.000000
_cell_angle_gamma 90.000000
_cell_volume 3906.598172
_symmetry_space_group_name_H-M "C M M M"
_symmetry_group_IT_number 65
_symmetry_cell_setting 'orthorhombic'
loop_
_space_group_symop_operation_xyz
x,y,z
-x,-y,z
x,-y,-z
-x,y,-z
-x,-y,-z
x,y,-z
-x,y,z
x,-y,z
1/2+x,1/2+y,z
1/2-x,1/2-y,z
1/2+x,1/2-y,-z
1/2-x,1/2+y,-z
1/2-x,1/2-y,-z
1/2+x,1/2+y,-z
1/2-x,1/2+y,z
1/2+x,1/2-y,z
loop_
_atom_site_type_symbol
_atom_site_label
_atom_site_fract_x
_atom_site_fract_y
_atom_site_fract_z
Si Si1 0.815519 0.331031 0.668065
Si Si2 0.845473 0.799538 0.668222
Si Si3 0.912647 0.000000 0.660361
Si Si4 0.417422 0.065861 0.669746
Si Si5 0.584430 0.392859 0.157755
O O1 0.819073 0.336130 0.500000
O O2 0.849952 0.268588 0.713151
O O3 0.730969 0.330175 0.714727
O O4 0.861294 0.385588 0.735469
O O5 0.859690 0.807224 0.500000
O O6 0.907069 0.831249 0.760708
O O7 0.880848 0.056286 0.743836
O O8 0.880392 0.000000 0.500000
O O9 0.000000 0.000000 0.653620
O O10 0.414951 0.068224 0.500000
O O11 0.500000 0.080311 0.721451
O O12 0.395097 0.000000 0.721168
O O13 0.500000 0.406420 0.138747
O O14 0.620963 0.391893 0.000000
#
# Coordination Sequence:
#
# PCOD8270322 Si02
#       5
#    16  16   8  16  16
#     4   8  15  28  43  62  94 128 157 198 248 289
#     4   9  17  30  47  67  94 127 162 201 240 283
#     4   9  17  31  51  71  91 119 156 195 236 283
#     4   8  13  22  38  61  89 120 153 191 240 296
#     4  10  20  33  48  68  97 129 160 199 245 288
#
# _framework density 18.430357000000001
#
# number of rings (size 3 to 8) (size 9 to 14) (size 15 to 20)
#    0.000    3.222    0.000    3.000    0.000    3.556 
#    2.000    4.444    0.000    0.000    0.000    0.000 
#    0.000    0.000    0.000    7.778    0.000    8.000 
#
# Total GULP energy -446069.473931 kJ/mol
# GULP energy per Si atom -12390.818720 kJ/mol
# Density = 1.838841 g / cm^3
# Si number density = 18.430357 Si / 1000 Ang^3
#
#
#
# Elastic Constant Matrix: (Units=GPa)
#
#
# Indices 1 2 3 4 5 6 
#
# 1 39.7711 43.9254 10.1596 0.0000 0.0000 0.0000
# 2 43.9254 141.2920 39.5420 0.0000 0.0000 0.0000
# 3 10.1596 39.5420 80.5532 0.0000 0.0000 0.0000
# 4 0.0000 0.0000 0.0000 5.7663 0.0000 0.0000
# 5 0.0000 0.0000 0.0000 0.0000 9.8465 0.0000
# 6 0.0000 0.0000 0.0000 0.0000 0.0000 36.9301
#
#
#
# Elastic Compliance Matrix: (Units=1/GPa)
#
#
# Indices 1 2 3 4 5 6 
#
# 1 0.038388 -0.012264 0.001179 0.000000 0.000000 0.000000
# 2 -0.012264 0.012123 -0.004404 0.000000 0.000000 0.000000
# 3 0.001179 -0.004404 0.014427 0.000000 0.000000 0.000000
# 4 0.000000 0.000000 0.000000 0.173421 0.000000 0.000000
# 5 0.000000 0.000000 0.000000 0.000000 0.101559 0.000000
# 6 0.000000 0.000000 0.000000 0.000000 0.000000 0.027078
#
#
# Mechanical properties :
#
#
# Convention : Reuss Voigt Hill
#
# Bulk Modulus (GPa) = 29.44723 49.87447 39.66085
# Shear Modulus (GPa) = 12.21613 21.70787 16.96200
#
# Velocity S-wave (km/s) = 2.57733 3.43568 3.03698
# Velocity P-wave (km/s) = 4.98690 6.54663 5.81925
#
# Compressibility (1/GPa) = 0.03395905
#
# Stress axis : x y z
#
# Youngs Moduli (GPa) = 26.04989 82.48962 69.31263
#
# Poissons Ratio (x) = 1.01165 -0.08169
# Poissons Ratio (y) = 0.31948 0.30526
# Poissons Ratio (z) = -0.03070 0.36329
#
# Static dielectric constant tensor:
#      x y z
#    x 3.311540 0.000000 0.000000 
#    y 0.000000 3.763400 0.000000 
#    z 0.000000 0.000000 3.051560 
# 
# 
# High freq. dielectric constant tensor:
#      x y z
#    x 1.687060 0.000000 0.000000 
#    y 0.000000 1.727990 0.000000 
#    z 0.000000 0.000000 1.666280 
# 
# From -- ./inp_files/11246.got.cif
#   From: 2010.03.12/outbox.cif.g09.slc.cpg/sg65_6_cif.got.tgz:11246.got - 2010.04.10 20:52:16.
