data_PCOD8270596
_publ_section_title
;
Structure prediction by ZEFSAII (Michael W. Deem and Ramdas Pophale) SiO2 
 PCOD8270596
Probable space group: C M M M
;
_chemical_formula_sum "Si O2"
_cell_formula_units_Z 88
_cell_length_a 15.809965
_cell_length_b 9.029705
_cell_length_c 29.837870
_cell_angle_alpha 90.000000
_cell_angle_beta 90.000000
_cell_angle_gamma 90.000000
_cell_volume 4259.634032
_symmetry_space_group_name_H-M "C M M M"
_symmetry_group_IT_number 65
_symmetry_cell_setting 'orthorhombic'
loop_
_space_group_symop_operation_xyz
x,y,z
-x,-y,z
x,-y,-z
-x,y,-z
-x,-y,-z
x,y,-z
-x,y,z
x,-y,z
1/2+x,1/2+y,z
1/2-x,1/2-y,z
1/2+x,1/2-y,-z
1/2-x,1/2+y,-z
1/2-x,1/2-y,-z
1/2+x,1/2+y,-z
1/2-x,1/2+y,z
1/2+x,1/2-y,z
loop_
_atom_site_type_symbol
_atom_site_label
_atom_site_fract_x
_atom_site_fract_y
_atom_site_fract_z
Si Si1 0.338903 0.172630 0.050062
Si Si2 0.500000 0.669962 0.553021
Si Si3 0.093600 0.324839 0.311904
Si Si4 0.163100 0.676557 0.594789
Si Si5 0.903306 0.838910 0.131379
Si Si6 0.601142 0.164934 0.785128
O O1 0.250000 0.250000 0.056942
O O2 0.401174 0.239910 0.086718
O O3 0.328176 0.000000 0.058721
O O4 0.374663 0.203344 0.000000
O O5 0.500000 0.500000 0.570707
O O6 0.500000 0.672241 0.500000
O O7 0.416340 0.755374 0.568969
O O8 0.085292 0.500000 0.307694
O O9 0.155201 0.281323 0.352536
O O10 0.127910 0.266541 0.263562
O O11 0.000000 0.259080 0.322211
O O12 0.165004 0.500000 0.586887
O O13 0.250000 0.750000 0.576922
O O14 0.859255 0.761828 0.174402
O O15 0.000000 0.861114 0.143946
O O16 0.860727 0.000000 0.123204
O O17 0.500000 0.160041 0.787349
O O18 0.637891 0.000000 0.791176
#
# Coordination Sequence:
#
# PCOD8270596 Si02
#       6
#    16   8  16  16  16  16
#     4  10  21  37  56  75  96 127 170 218 272 335
#     4  11  25  45  67  93 125 163 211 261 312 371
#     4   8  14  29  55  83 110 149 197 240 287 345
#     4  11  22  39  64  94 129 165 207 257 310 368
#     4  10  20  33  50  76 110 142 177 221 269 323
#     4   8  14  27  50  76 104 143 188 228 273 328
#
# _framework density 20.659051000000002
#
# number of rings (size 3 to 8) (size 9 to 14) (size 15 to 20)
#    0.000    2.455    0.909    3.000    0.000    3.636 
#    0.000    4.545    0.000    2.182    0.000    0.000 
#    0.000    0.000    0.000    0.000    0.000    0.000 
#
# Total GULP energy -545286.108971 kJ/mol
# GULP energy per Si atom -12392.866113 kJ/mol
# Density = 2.061203 g / cm^3
# Si number density = 20.659051 Si / 1000 Ang^3
#
#
#
# Elastic Constant Matrix: (Units=GPa)
#
#
# Indices 1 2 3 4 5 6 
#
# 1 79.4466 41.1319 33.0552 0.0000 0.0000 0.0000
# 2 41.1319 123.9846 58.1032 0.0000 0.0000 0.0000
# 3 33.0552 58.1032 117.9663 0.0000 0.0000 0.0000
# 4 0.0000 0.0000 0.0000 27.7000 0.0000 0.0000
# 5 0.0000 0.0000 0.0000 0.0000 6.4409 0.0000
# 6 0.0000 0.0000 0.0000 0.0000 0.0000 25.4164
#
#
#
# Elastic Compliance Matrix: (Units=1/GPa)
#
#
# Indices 1 2 3 4 5 6 
#
# 1 0.015696 -0.004090 -0.002384 0.000000 0.000000 0.000000
# 2 -0.004090 0.011552 -0.004544 0.000000 0.000000 0.000000
# 3 -0.002384 -0.004544 0.011383 0.000000 0.000000 0.000000
# 4 0.000000 0.000000 0.000000 0.036101 0.000000 0.000000
# 5 0.000000 0.000000 0.000000 0.000000 0.155257 0.000000
# 6 0.000000 0.000000 0.000000 0.000000 0.000000 0.039345
#
#
# Mechanical properties :
#
#
# Convention : Reuss Voigt Hill
#
# Bulk Modulus (GPa) = 60.25535 65.10868 62.68202
# Shear Modulus (GPa) = 16.84063 24.51861 20.67962
#
# Velocity S-wave (km/s) = 2.85821 3.44877 3.16728
# Velocity P-wave (km/s) = 6.33422 6.88788 6.61684
#
# Compressibility (1/GPa) = 0.01659604
#
# Stress axis : x y z
#
# Youngs Moduli (GPa) = 63.70849 86.56720 87.85169
#
# Poissons Ratio (x) = 0.35408 0.20941
# Poissons Ratio (y) = 0.26058 0.39916
# Poissons Ratio (z) = 0.15186 0.39332
#
# Static dielectric constant tensor:
#      x y z
#    x 3.395870 0.000000 0.000000 
#    y 0.000000 3.939970 0.000000 
#    z 0.000000 0.000000 4.069000 
# 
# 
# High freq. dielectric constant tensor:
#      x y z
#    x 1.775390 0.000000 0.000000 
#    y 0.000000 1.798850 0.000000 
#    z 0.000000 0.000000 1.821550 
# 
# From -- ./inp_files/77831.got.cif
#   From: 2010.03.12/outbox.cif.g09.slc.cpg/sg65_39_cif.got.tgz:77831.got - 2010.04.10 20:52:16.
