data_PCOD8270755
_publ_section_title
;
Structure prediction by ZEFSAII (Michael W. Deem and Ramdas Pophale) SiO2 
 PCOD8270755
Probable space group: C M M M
;
_chemical_formula_sum "Si O2"
_cell_formula_units_Z 88
_cell_length_a 24.043440
_cell_length_b 19.939871
_cell_length_c 9.698687
_cell_angle_alpha 90.000000
_cell_angle_beta 90.000000
_cell_angle_gamma 90.000000
_cell_volume 4649.774510
_symmetry_space_group_name_H-M "C M M M"
_symmetry_group_IT_number 65
_symmetry_cell_setting 'orthorhombic'
loop_
_space_group_symop_operation_xyz
x,y,z
-x,-y,z
x,-y,-z
-x,y,-z
-x,-y,-z
x,y,-z
-x,y,z
x,-y,z
1/2+x,1/2+y,z
1/2-x,1/2-y,z
1/2+x,1/2-y,-z
1/2-x,1/2+y,-z
1/2-x,1/2-y,-z
1/2+x,1/2+y,-z
1/2-x,1/2+y,z
1/2+x,1/2-y,z
loop_
_atom_site_type_symbol
_atom_site_label
_atom_site_fract_x
_atom_site_fract_y
_atom_site_fract_z
Si Si1 0.936350 0.500000 0.836410
Si Si2 0.124831 0.366658 0.841574
Si Si3 0.750145 0.327949 0.841863
Si Si4 0.940567 0.887357 0.337063
Si Si5 0.062879 0.264469 0.656613
Si Si6 0.322019 0.574143 0.661489
O O1 0.901995 0.564585 0.783360
O O2 0.000000 0.500000 0.778710
O O3 0.937736 0.500000 0.000000
O O4 0.191058 0.365275 0.824586
O O5 0.102242 0.305635 0.754937
O O6 0.107462 0.356303 0.000000
O O7 0.750000 0.250000 0.794869
O O8 0.708060 0.368398 0.746552
O O9 0.729917 0.332147 0.000000
O O10 0.945245 0.888515 0.500000
O O11 0.933142 0.811015 0.288562
O O12 0.886762 0.929098 0.290235
O O13 0.000000 0.915591 0.277682
O O14 0.084653 0.270764 0.500000
O O15 0.000000 0.291539 0.667097
O O16 0.317214 0.592411 0.500000
O O17 0.296913 0.500000 0.690528
#
# Coordination Sequence:
#
# PCOD8270755 Si02
#       6
#     8  16  16  16  16  16
#     4   9  18  32  49  71  97 127 168 213 256 310
#     4  10  20  33  52  73  97 133 176 218 263 315
#     4  10  22  38  56  79 106 140 185 229 272 327
#     4   8  15  30  52  77 106 139 173 212 259 312
#     4   9  17  30  50  76 104 134 169 211 265 320
#     4  10  21  35  54  82 111 140 179 222 268 323
#
# _framework density 18.925647999999999
#
# number of rings (size 3 to 8) (size 9 to 14) (size 15 to 20)
#    0.000    2.636    0.000    2.727    1.273    2.909 
#    0.000    2.273    0.000    3.273    0.000    1.273 
#    0.000    0.000    0.000    0.000    0.000    0.000 
#
# Total GULP energy -545321.094125 kJ/mol
# GULP energy per Si atom -12393.661230 kJ/mol
# Density = 1.888257 g / cm^3
# Si number density = 18.925648 Si / 1000 Ang^3
#
#
#
# Elastic Constant Matrix: (Units=GPa)
#
#
# Indices 1 2 3 4 5 6 
#
# 1 97.1644 57.8815 36.7473 0.0000 0.0000 0.0000
# 2 57.8815 105.3848 39.6855 0.0000 0.0000 0.0000
# 3 36.7473 39.6855 52.4751 0.0000 0.0000 0.0000
# 4 0.0000 0.0000 0.0000 22.5413 0.0000 0.0000
# 5 0.0000 0.0000 0.0000 0.0000 12.6121 0.0000
# 6 0.0000 0.0000 0.0000 0.0000 0.0000 36.0128
#
#
#
# Elastic Compliance Matrix: (Units=1/GPa)
#
#
# Indices 1 2 3 4 5 6 
#
# 1 0.016830 -0.006719 -0.006704 0.000000 0.000000 0.000000
# 2 -0.006719 0.015950 -0.007357 0.000000 0.000000 0.000000
# 3 -0.006704 -0.007357 0.029316 0.000000 0.000000 0.000000
# 4 0.000000 0.000000 0.000000 0.044363 0.000000 0.000000
# 5 0.000000 0.000000 0.000000 0.000000 0.079289 0.000000
# 6 0.000000 0.000000 0.000000 0.000000 0.000000 0.027768
#
#
# Mechanical properties :
#
#
# Convention : Reuss Voigt Hill
#
# Bulk Modulus (GPa) = 48.69888 58.18366 53.44127
# Shear Modulus (GPa) = 19.08968 22.28058 20.68513
#
# Velocity S-wave (km/s) = 3.17940 3.43486 3.30959
# Velocity P-wave (km/s) = 6.26623 6.82210 6.55006
#
# Compressibility (1/GPa) = 0.02053435
#
# Stress axis : x y z
#
# Youngs Moduli (GPa) = 59.41798 62.69600 34.11132
#
# Poissons Ratio (x) = 0.42125 0.22869
# Poissons Ratio (y) = 0.39923 0.25097
# Poissons Ratio (z) = 0.39836 0.46128
#
# Static dielectric constant tensor:
#      x y z
#    x 3.558250 0.000000 0.000000 
#    y 0.000000 3.612470 0.000000 
#    z 0.000000 0.000000 3.113370 
# 
# 
# High freq. dielectric constant tensor:
#      x y z
#    x 1.745120 0.000000 0.000000 
#    y 0.000000 1.740170 0.000000 
#    z 0.000000 0.000000 1.695780 
# 
# From -- ./inp_files/13964.got.cif
#   From: 2010.03.12/outbox.cif.g09.slc.cpg/sg65_7_cif.got.tgz:13964.got - 2010.04.10 20:52:16.
