data_PCOD8270200
_publ_section_title
;
Structure prediction by ZEFSAII (Michael W. Deem and Ramdas Pophale) SiO2 
 PCOD8270200
Probable space group: C M M M
;
_chemical_formula_sum "Si O2"
_cell_formula_units_Z 104
_cell_length_a 8.778624
_cell_length_b 29.839548
_cell_length_c 22.317326
_cell_angle_alpha 90.000000
_cell_angle_beta 90.000000
_cell_angle_gamma 90.000000
_cell_volume 5846.027389
_symmetry_space_group_name_H-M "C M M M"
_symmetry_group_IT_number 65
_symmetry_cell_setting 'orthorhombic'
loop_
_space_group_symop_operation_xyz
x,y,z
-x,-y,z
x,-y,-z
-x,y,-z
-x,-y,-z
x,y,-z
-x,y,z
x,-y,z
1/2+x,1/2+y,z
1/2-x,1/2-y,z
1/2+x,1/2-y,-z
1/2-x,1/2+y,-z
1/2-x,1/2-y,-z
1/2+x,1/2+y,-z
1/2-x,1/2+y,z
1/2+x,1/2-y,z
loop_
_atom_site_type_symbol
_atom_site_label
_atom_site_fract_x
_atom_site_fract_y
_atom_site_fract_z
Si Si1 0.676538 0.295223 0.845091
Si Si2 0.169014 0.951344 0.070875
Si Si3 0.317694 0.700209 0.500000
Si Si4 0.326234 0.863908 0.069847
Si Si5 0.818196 0.355370 0.390784
Si Si6 0.181224 0.797370 0.290937
Si Si7 0.819510 0.451046 0.567498
O O1 0.500000 0.286939 0.845213
O O2 0.750000 0.250000 0.869552
O O3 0.716972 0.333801 0.890991
O O4 0.730548 0.306415 0.777702
O O5 0.292728 0.914750 0.090576
O O6 0.000000 0.938375 0.094633
O O7 0.217606 0.000000 0.096957
O O8 0.163589 0.954254 0.000000
O O9 0.500000 0.702920 0.500000
O O10 0.250000 0.750000 0.500000
O O11 0.260395 0.673901 0.441969
O O12 0.500000 0.852280 0.083906
O O13 0.287366 0.856707 0.000000
O O14 0.758816 0.337497 0.327383
O O15 0.764995 0.407707 0.394651
O O16 0.000000 0.350729 0.396374
O O17 0.250000 0.750000 0.312969
O O18 0.000000 0.797039 0.300507
O O19 0.756818 0.445339 0.500000
O O20 0.763088 0.500000 0.593141
O O21 0.000000 0.451226 0.566082
#
# Coordination Sequence:
#
# PCOD8270200 Si02
#       7
#    16  16   8  16  16  16  16
#     4  10  21  37  56  74  97 131 172 214 255 306
#     4   8  14  26  45  69  98 132 167 201 242 296
#     4  12  24  36  49  70 105 139 168 207 253 300
#     4  10  20  32  49  76 107 135 166 208 258 309
#     4  11  20  33  54  79 104 133 170 209 254 302
#     4  10  21  37  55  76 100 131 171 211 254 304
#     4   8  14  27  49  76 104 133 168 208 246 292
#
# _framework density 17.789860000000001
#
# number of rings (size 3 to 8) (size 9 to 14) (size 15 to 20)
#    0.000    2.308    0.769    3.923    0.000    3.385 
#    0.000    1.538    0.000    3.231    0.000    4.308 
#    0.000    0.000    0.000    0.000    0.000    0.000 
#
# Total GULP energy -644513.079763 kJ/mol
# GULP energy per Si atom -12394.482303 kJ/mol
# Density = 1.774937 g / cm^3
# Si number density = 17.789860 Si / 1000 Ang^3
#
#
#
# Elastic Constant Matrix: (Units=GPa)
#
#
# Indices 1 2 3 4 5 6 
#
# 1 61.7009 36.8221 24.6834 0.0000 0.0000 0.0000
# 2 36.8221 151.4882 51.3290 0.0000 0.0000 0.0000
# 3 24.6834 51.3290 56.5207 0.0000 0.0000 0.0000
# 4 0.0000 0.0000 0.0000 4.8932 0.0000 0.0000
# 5 0.0000 0.0000 0.0000 0.0000 25.4543 0.0000
# 6 0.0000 0.0000 0.0000 0.0000 0.0000 26.2961
#
#
#
# Elastic Compliance Matrix: (Units=1/GPa)
#
#
# Indices 1 2 3 4 5 6 
#
# 1 0.020432 -0.002807 -0.006374 0.000000 0.000000 0.000000
# 2 -0.002807 0.009921 -0.007784 0.000000 0.000000 0.000000
# 3 -0.006374 -0.007784 0.027545 0.000000 0.000000 0.000000
# 4 0.000000 0.000000 0.000000 0.204367 0.000000 0.000000
# 5 0.000000 0.000000 0.000000 0.000000 0.039286 0.000000
# 6 0.000000 0.000000 0.000000 0.000000 0.000000 0.038028
#
#
# Mechanical properties :
#
#
# Convention : Reuss Voigt Hill
#
# Bulk Modulus (GPa) = 41.72082 55.04209 48.38145
# Shear Modulus (GPa) = 13.10620 21.78706 17.44663
#
# Velocity S-wave (km/s) = 2.71721 3.50335 3.13502
# Velocity P-wave (km/s) = 5.77471 6.88273 6.35292
#
# Compressibility (1/GPa) = 0.02396885
#
# Stress axis : x y z
#
# Youngs Moduli (GPa) = 48.94243 100.79844 36.30398
#
# Poissons Ratio (x) = 0.28291 0.23141
# Poissons Ratio (y) = 0.13736 0.28258
# Poissons Ratio (z) = 0.31197 0.78460
#
# Static dielectric constant tensor:
#      x y z
#    x 3.251400 0.000000 0.000000 
#    y 0.000000 3.962280 0.000000 
#    z 0.000000 0.000000 3.131680 
# 
# 
# High freq. dielectric constant tensor:
#      x y z
#    x 1.684580 0.000000 0.000000 
#    y 0.000000 1.701510 0.000000 
#    z 0.000000 0.000000 1.655250 
# 
# From -- ./inp_files/68232.got.cif
#   From: 2010.03.12/outbox.cif.g09.slc.cpg/sg65_35_cif.got.tgz:68232.got - 2010.04.10 20:52:16.
