data_PCOD8270863
_publ_section_title
;
Structure prediction by ZEFSAII (Michael W. Deem and Ramdas Pophale) SiO2 
 PCOD8270863
Probable space group: C M M M
;
_chemical_formula_sum "Si O2"
_cell_formula_units_Z 96
_cell_length_a 8.909457
_cell_length_b 28.549535
_cell_length_c 20.502156
_cell_angle_alpha 90.000000
_cell_angle_beta 90.000000
_cell_angle_gamma 90.000000
_cell_volume 5214.945918
_symmetry_space_group_name_H-M "C M M M"
_symmetry_group_IT_number 65
_symmetry_cell_setting 'orthorhombic'
loop_
_space_group_symop_operation_xyz
x,y,z
-x,-y,z
x,-y,-z
-x,y,-z
-x,-y,-z
x,y,-z
-x,y,z
x,-y,z
1/2+x,1/2+y,z
1/2-x,1/2-y,z
1/2+x,1/2-y,-z
1/2-x,1/2+y,-z
1/2-x,1/2-y,-z
1/2+x,1/2+y,-z
1/2-x,1/2+y,z
1/2+x,1/2-y,z
loop_
_atom_site_type_symbol
_atom_site_label
_atom_site_fract_x
_atom_site_fract_y
_atom_site_fract_z
Si Si1 0.176657 0.199770 0.813515
Si Si2 0.672334 0.052597 0.255420
Si Si3 0.672292 0.142218 0.926438
Si Si4 0.675917 0.636815 0.310460
Si Si5 0.324504 0.447052 0.881643
Si Si6 0.823965 0.798330 0.426702
O O1 0.250000 0.250000 0.803835
O O2 0.234364 0.175715 0.879349
O O3 0.220608 0.168235 0.751632
O O4 0.000000 0.206456 0.819490
O O5 0.500000 0.063036 0.237092
O O6 0.731722 0.088437 0.309730
O O7 0.774868 0.060249 0.192473
O O8 0.690475 0.000000 0.282907
O O9 0.500000 0.141794 0.903585
O O10 0.735026 0.089195 0.926388
O O11 0.687481 0.161582 0.000000
O O12 0.500000 0.625737 0.311089
O O13 0.728812 0.661882 0.376753
O O14 0.500000 0.435854 0.886348
O O15 0.289089 0.500000 0.905239
O O16 0.774837 0.812753 0.500000
O O17 0.750000 0.750000 0.404972
O O18 0.000000 0.790546 0.421740
#
# Coordination Sequence:
#
# PCOD8270863 Si02
#       6
#    16  16  16  16  16  16
#     4  11  23  38  57  80 106 138 179 226 272 322
#     4  10  20  33  53  81 110 141 178 221 269 320
#     4  11  24  40  57  78 106 141 181 225 273 324
#     4  10  20  34  55  83 111 143 181 221 268 317
#     4  10  20  35  56  81 109 140 175 218 270 327
#     4   9  18  33  53  80 115 150 184 221 263 315
#
# _framework density 18.408628
#
# number of rings (size 3 to 8) (size 9 to 14) (size 15 to 20)
#    0.000    1.833    1.667    2.500    0.000    5.333 
#    0.000    1.667    0.000    0.500    0.000    3.500 
#    0.000    0.000    0.000    0.000    0.000    0.000 
#
# Total GULP energy -595324.207335 kJ/mol
# GULP energy per Si atom -12402.587653 kJ/mol
# Density = 1.836673 g / cm^3
# Si number density = 18.408628 Si / 1000 Ang^3
#
#
#
# Elastic Constant Matrix: (Units=GPa)
#
#
# Indices 1 2 3 4 5 6 
#
# 1 68.7551 47.0235 33.6172 0.0000 0.0000 0.0000
# 2 47.0235 115.1265 50.7399 0.0000 0.0000 0.0000
# 3 33.6172 50.7399 91.4857 0.0000 0.0000 0.0000
# 4 0.0000 0.0000 0.0000 24.4777 0.0000 0.0000
# 5 0.0000 0.0000 0.0000 0.0000 21.0397 0.0000
# 6 0.0000 0.0000 0.0000 0.0000 0.0000 37.5441
#
#
#
# Elastic Compliance Matrix: (Units=1/GPa)
#
#
# Indices 1 2 3 4 5 6 
#
# 1 0.021212 -0.006920 -0.003956 0.000000 0.000000 0.000000
# 2 -0.006920 0.013754 -0.005085 0.000000 0.000000 0.000000
# 3 -0.003956 -0.005085 0.015205 0.000000 0.000000 0.000000
# 4 0.000000 0.000000 0.000000 0.040853 0.000000 0.000000
# 5 0.000000 0.000000 0.000000 0.000000 0.047529 0.000000
# 6 0.000000 0.000000 0.000000 0.000000 0.000000 0.026635
#
#
# Mechanical properties :
#
#
# Convention : Reuss Voigt Hill
#
# Bulk Modulus (GPa) = 54.80422 59.79206 57.29814
# Shear Modulus (GPa) = 24.60694 26.21141 25.40917
#
# Velocity S-wave (km/s) = 3.66007 3.77751 3.71925
# Velocity P-wave (km/s) = 6.90630 7.18172 7.04536
#
# Compressibility (1/GPa) = 0.01824677
#
# Stress axis : x y z
#
# Youngs Moduli (GPa) = 47.14364 72.70637 65.76841
#
# Poissons Ratio (x) = 0.50315 0.26020
# Poissons Ratio (y) = 0.32625 0.33445
# Poissons Ratio (z) = 0.18651 0.36973
#
# Static dielectric constant tensor:
#      x y z
#    x 3.433950 0.000000 0.000000 
#    y 0.000000 3.559120 0.000000 
#    z 0.000000 0.000000 3.336670 
# 
# 
# High freq. dielectric constant tensor:
#      x y z
#    x 1.723440 0.000000 0.000000 
#    y 0.000000 1.717530 0.000000 
#    z 0.000000 0.000000 1.696590 
# 
# From -- ./inp_files/60152.got.cif
#   From: 2010.03.12/outbox.cif.g09.slc.cpg/sg65_31_cif.got.tgz:60152.got - 2010.04.10 20:52:16.
