data_PCOD8270046
_publ_section_title
;
Structure prediction by ZEFSAII (Michael W. Deem and Ramdas Pophale) SiO2 
 PCOD8270046
Probable space group: C M M M
;
_chemical_formula_sum "Si O2"
_cell_formula_units_Z 72
_cell_length_a 26.746049
_cell_length_b 9.306996
_cell_length_c 16.328195
_cell_angle_alpha 90.000000
_cell_angle_beta 90.000000
_cell_angle_gamma 90.000000
_cell_volume 4064.501999
_symmetry_space_group_name_H-M "C M M M"
_symmetry_group_IT_number 65
_symmetry_cell_setting 'orthorhombic'
loop_
_space_group_symop_operation_xyz
x,y,z
-x,-y,z
x,-y,-z
-x,y,-z
-x,-y,-z
x,y,-z
-x,y,z
x,-y,z
1/2+x,1/2+y,z
1/2-x,1/2-y,z
1/2+x,1/2-y,-z
1/2-x,1/2+y,-z
1/2-x,1/2-y,-z
1/2+x,1/2+y,-z
1/2-x,1/2+y,z
1/2+x,1/2-y,z
loop_
_atom_site_type_symbol
_atom_site_label
_atom_site_fract_x
_atom_site_fract_y
_atom_site_fract_z
Si Si1 0.557353 0.834759 0.680312
Si Si2 0.798939 0.164897 0.254115
Si Si3 0.099159 0.831938 0.829232
Si Si4 0.138780 0.166489 0.407631
Si Si5 0.056303 0.829721 0.000000
O O1 0.500000 0.822026 0.653654
O O2 0.565044 0.755834 0.766603
O O3 0.589583 0.760184 0.609080
O O4 0.573946 0.000000 0.689362
O O5 0.750000 0.250000 0.227762
O O6 0.842406 0.197201 0.188256
O O7 0.817532 0.212259 0.344736
O O8 0.783590 0.000000 0.253954
O O9 0.086538 0.000000 0.818079
O O10 0.086179 0.776058 0.920060
O O11 0.157578 0.194098 0.500000
O O12 0.124703 0.000000 0.392686
O O13 0.000000 0.766369 0.000000
O O14 0.053913 0.000000 0.000000
#
# Coordination Sequence:
#
# PCOD8270046 Si02
#       5
#    16  16  16  16   8
#     4  10  20  32  47  70 101 134 164 196 240 293
#     4   9  18  32  50  71  96 127 161 199 243 290
#     4   9  18  33  52  74  99 127 164 206 242 283
#     4   9  19  35  52  71  95 124 163 207 246 288
#     4   9  16  28  52  81 101 123 161 205 242 277
#
# _framework density 17.714347
#
# number of rings (size 3 to 8) (size 9 to 14) (size 15 to 20)
#    0.000    2.778    0.000    2.667    0.000    7.556 
#    0.000    3.333    0.000    2.000    0.000    0.000 
#    0.000    0.000    0.000    0.000    0.000    0.000 
#
# Total GULP energy -446384.019203 kJ/mol
# GULP energy per Si atom -12399.556089 kJ/mol
# Density = 1.767403 g / cm^3
# Si number density = 17.714347 Si / 1000 Ang^3
#
#
#
# Elastic Constant Matrix: (Units=GPa)
#
#
# Indices 1 2 3 4 5 6 
#
# 1 105.9900 38.8639 41.1120 0.0000 0.0000 0.0000
# 2 38.8639 57.6169 18.2848 0.0000 0.0000 0.0000
# 3 41.1120 18.2848 114.1528 0.0000 0.0000 0.0000
# 4 0.0000 0.0000 0.0000 9.0272 0.0000 0.0000
# 5 0.0000 0.0000 0.0000 0.0000 16.7979 0.0000
# 6 0.0000 0.0000 0.0000 0.0000 0.0000 32.3756
#
#
#
# Elastic Compliance Matrix: (Units=1/GPa)
#
#
# Indices 1 2 3 4 5 6 
#
# 1 0.013864 -0.008183 -0.003682 0.000000 0.000000 0.000000
# 2 -0.008183 0.023115 -0.000756 0.000000 0.000000 0.000000
# 3 -0.003682 -0.000756 0.010207 0.000000 0.000000 0.000000
# 4 0.000000 0.000000 0.000000 0.110776 0.000000 0.000000
# 5 0.000000 0.000000 0.000000 0.000000 0.059531 0.000000
# 6 0.000000 0.000000 0.000000 0.000000 0.000000 0.030887
#
#
# Mechanical properties :
#
#
# Convention : Reuss Voigt Hill
#
# Bulk Modulus (GPa) = 45.56826 52.69788 49.13307
# Shear Modulus (GPa) = 17.79757 23.60674 20.70215
#
# Velocity S-wave (km/s) = 3.17314 3.65449 3.42228
# Velocity P-wave (km/s) = 6.26138 6.90075 6.58882
#
# Compressibility (1/GPa) = 0.02194510
#
# Stress axis : x y z
#
# Youngs Moduli (GPa) = 72.13168 43.26158 97.96841
#
# Poissons Ratio (x) = 0.35400 0.36074
# Poissons Ratio (y) = 0.59023 0.07402
# Poissons Ratio (z) = 0.26561 0.03269
#
# Static dielectric constant tensor:
#      x y z
#    x 3.144000 0.000000 0.000000 
#    y 0.000000 3.189610 0.000000 
#    z 0.000000 0.000000 3.423660 
# 
# 
# High freq. dielectric constant tensor:
#      x y z
#    x 1.678510 0.000000 0.000000 
#    y 0.000000 1.672820 0.000000 
#    z 0.000000 0.000000 1.681410 
# 
# From -- ./inp_files/49698.got.cif
#   From: 2010.03.12/outbox.cif.g09.slc.cpg/sg65_25_cif.got.tgz:49698.got - 2010.04.10 20:52:16.
