data_PCOD8270897
_publ_section_title
;
Structure prediction by ZEFSAII (Michael W. Deem and Ramdas Pophale) SiO2 
 PCOD8270897
Probable space group: C M M M
;
_chemical_formula_sum "Si O2"
_cell_formula_units_Z 104
_cell_length_a 28.517164
_cell_length_b 26.686416
_cell_length_c 7.973222
_cell_angle_alpha 90.000000
_cell_angle_beta 90.000000
_cell_angle_gamma 90.000000
_cell_volume 6067.788595
_symmetry_space_group_name_H-M "C M M M"
_symmetry_group_IT_number 65
_symmetry_cell_setting 'orthorhombic'
loop_
_space_group_symop_operation_xyz
x,y,z
-x,-y,z
x,-y,-z
-x,y,-z
-x,-y,-z
x,y,-z
-x,y,z
x,-y,z
1/2+x,1/2+y,z
1/2-x,1/2-y,z
1/2+x,1/2-y,-z
1/2-x,1/2+y,-z
1/2-x,1/2-y,-z
1/2+x,1/2+y,-z
1/2-x,1/2+y,z
1/2+x,1/2-y,z
loop_
_atom_site_type_symbol
_atom_site_label
_atom_site_fract_x
_atom_site_fract_y
_atom_site_fract_z
Si Si1 0.053038 0.817782 0.304716
Si Si2 0.889315 0.091111 0.808578
Si Si3 0.555738 0.860596 0.000000
Si Si4 0.055598 0.704828 0.685795
Si Si5 0.050433 0.000000 0.690603
Si Si6 0.691716 0.059355 0.313994
Si Si7 0.290722 0.442113 0.196252
Si Si8 0.130676 0.440446 0.000000
O O1 0.053582 0.830808 0.500000
O O2 0.089023 0.853915 0.210529
O O3 0.071379 0.761472 0.272207
O O4 0.000000 0.824844 0.234580
O O5 0.835952 0.089162 0.738557
O O6 0.921461 0.050346 0.722603
O O7 0.886379 0.075031 0.000000
O O8 0.573427 0.831407 0.833430
O O9 0.579593 0.914995 0.000000
O O10 0.500000 0.868081 0.000000
O O11 0.074739 0.688630 0.500000
O O12 0.000000 0.704086 0.679011
O O13 0.037504 0.000000 0.500000
O O14 0.000000 0.000000 0.788547
O O15 0.673737 0.075758 0.500000
O O16 0.744706 0.079425 0.289388
O O17 0.657704 0.078959 0.166676
O O18 0.693440 0.000000 0.297614
O O19 0.300014 0.500000 0.241661
O O20 0.281210 0.435455 0.000000
O O21 0.123260 0.500000 0.000000
#
# Coordination Sequence:
#
# PCOD8270897 Si02
#       8
#    16  16   8  16   8  16  16   8
#     4   9  18  32  47  65  93 127 165 214 265 303
#     4  11  21  30  44  67  91 124 165 214 267 315
#     4  10  20  33  56  83 107 140 171 187 226 284
#     4   8  16  32  52  74 100 129 169 219 253 279
#     4  11  23  35  41  51  87 137 177 211 255 320
#     4   9  17  30  51  74  97 134 172 205 248 285
#     4   9  16  30  46  63  94 125 161 215 264 300
#     4  10  20  35  52  79 117 141 158 196 223 273
#
# _framework density 17.139686999999999
#
# number of rings (size 3 to 8) (size 9 to 14) (size 15 to 20)
#    0.000    2.538    1.538    2.077    1.077    4.769 
#    0.000    0.000    0.000    0.000    0.000    6.462 
#    0.000    3.692    0.000    0.000    0.000    0.000 
#
# Total GULP energy -644470.005998 kJ/mol
# GULP energy per Si atom -12393.653961 kJ/mol
# Density = 1.710068 g / cm^3
# Si number density = 17.139687 Si / 1000 Ang^3
#
#
#
# Elastic Constant Matrix: (Units=GPa)
#
#
# Indices 1 2 3 4 5 6 
#
# 1 76.8154 39.4999 38.2297 0.0000 0.0000 0.0000
# 2 39.4999 63.4213 34.1711 0.0000 0.0000 0.0000
# 3 38.2297 34.1711 96.8489 0.0000 0.0000 0.0000
# 4 0.0000 0.0000 0.0000 -5.9801 0.0000 0.0000
# 5 0.0000 0.0000 0.0000 0.0000 9.7115 0.0000
# 6 0.0000 0.0000 0.0000 0.0000 0.0000 17.8944
#
#
#
# Elastic Compliance Matrix: (Units=1/GPa)
#
#
# Indices 1 2 3 4 5 6 
#
# 1 0.020596 -0.010430 -0.004450 0.000000 0.000000 0.000000
# 2 -0.010430 0.024750 -0.004616 0.000000 0.000000 0.000000
# 3 -0.004450 -0.004616 0.013710 0.000000 0.000000 0.000000
# 4 0.000000 0.000000 0.000000 -0.167220 0.000000 0.000000
# 5 0.000000 0.000000 0.000000 0.000000 0.102970 0.000000
# 6 0.000000 0.000000 0.000000 0.000000 0.000000 0.055884
#
#
# Mechanical properties :
#
#
# Convention : Reuss Voigt Hill
#
# Bulk Modulus (GPa) = 49.83594 51.20966 50.52280
# Shear Modulus (GPa) = 51.88322 12.67082 32.27702
#
# Velocity S-wave (km/s) = 5.50786 2.72190 4.34426
# Velocity P-wave (km/s) = 8.34195 6.31039 7.39625
#
# Compressibility (1/GPa) = 0.02006584
#
# Stress axis : x y z
#
# Youngs Moduli (GPa) = 48.55256 40.40336 72.93700
#
# Poissons Ratio (x) = 0.42141 0.32457
# Poissons Ratio (y) = 0.50640 0.33664
# Poissons Ratio (z) = 0.21606 0.18648
#
# Static dielectric constant tensor:
#      x y z
#    x 3.099510 0.000000 0.000000 
#    y 0.000000 2.916150 0.000000 
#    z 0.000000 0.000000 3.460610 
# 
# 
# High freq. dielectric constant tensor:
#      x y z
#    x 1.642070 0.000000 0.000000 
#    y 0.000000 1.622150 0.000000 
#    z 0.000000 0.000000 1.672890 
# 
# From -- ./inp_files/16865.got.cif
#   From: 2010.03.12/outbox.cif.g09.slc.cpg/sg65_9_cif.got.tgz:16865.got - 2010.04.10 20:52:16.
