data_PCOD8270832
_publ_section_title
;
Structure prediction by ZEFSAII (Michael W. Deem and Ramdas Pophale) SiO2 
 PCOD8270832
Probable space group: C M M M
;
_chemical_formula_sum "Si O2"
_cell_formula_units_Z 88
_cell_length_a 22.293525
_cell_length_b 22.205274
_cell_length_c 9.508445
_cell_angle_alpha 90.000000
_cell_angle_beta 90.000000
_cell_angle_gamma 90.000000
_cell_volume 4707.001956
_symmetry_space_group_name_H-M "C M M M"
_symmetry_group_IT_number 65
_symmetry_cell_setting 'orthorhombic'
loop_
_space_group_symop_operation_xyz
x,y,z
-x,-y,z
x,-y,-z
-x,y,-z
-x,-y,-z
x,y,-z
-x,y,z
x,-y,z
1/2+x,1/2+y,z
1/2-x,1/2-y,z
1/2+x,1/2-y,-z
1/2-x,1/2+y,-z
1/2-x,1/2-y,-z
1/2+x,1/2+y,-z
1/2-x,1/2+y,z
1/2+x,1/2-y,z
loop_
_atom_site_type_symbol
_atom_site_label
_atom_site_fract_x
_atom_site_fract_y
_atom_site_fract_z
Si Si1 0.120856 0.366575 0.838905
Si Si2 0.740135 0.068096 0.159971
Si Si3 0.433063 0.571121 0.155082
Si Si4 0.316940 0.236432 0.660042
Si Si5 0.335873 0.629761 0.341019
Si Si6 0.500000 0.068901 0.167360
O O1 0.169435 0.419800 0.828191
O O2 0.143832 0.309499 0.750918
O O3 0.058613 0.394246 0.779515
O O4 0.112845 0.345154 0.000000
O O5 0.774781 0.114835 0.258473
O O6 0.753230 0.000000 0.209187
O O7 0.762258 0.077273 0.000000
O O8 0.500000 0.594907 0.183510
O O9 0.431354 0.500000 0.161011
O O10 0.391519 0.595629 0.276156
O O11 0.411568 0.592726 0.000000
O O12 0.311756 0.211634 0.500000
O O13 0.250000 0.250000 0.719771
O O14 0.351394 0.299779 0.665199
O O15 0.326904 0.607633 0.500000
O O16 0.500000 0.000000 0.226778
O O17 0.500000 0.065531 0.000000
#
# Coordination Sequence:
#
# PCOD8270832 Si02
#       6
#    16  16  16  16  16   8
#     4  10  20  35  59  86 111 145 190 232 275 334
#     4  10  20  33  52  81 113 142 176 223 279 333
#     4   9  19  37  58  79 107 142 176 216 271 328
#     4  10  21  39  57  75 109 150 182 222 278 330
#     4  11  22  35  54  79 107 143 186 226 272 328
#     4   9  18  36  61  89 121 151 184 235 294 343
#
# _framework density 18.695553
#
# number of rings (size 3 to 8) (size 9 to 14) (size 15 to 20)
#    0.000    2.091    1.818    2.182    0.000    7.273 
#    1.636    1.364    0.000    2.182    0.000    0.000 
#    0.000    0.000    0.000    0.000    0.000    0.000 
#
# Total GULP energy -545525.129003 kJ/mol
# GULP energy per Si atom -12398.298386 kJ/mol
# Density = 1.865300 g / cm^3
# Si number density = 18.695553 Si / 1000 Ang^3
#
#
#
# Elastic Constant Matrix: (Units=GPa)
#
#
# Indices 1 2 3 4 5 6 
#
# 1 125.9147 47.9021 51.0488 0.0000 0.0000 0.0000
# 2 47.9021 85.4103 48.6906 0.0000 0.0000 0.0000
# 3 51.0488 48.6906 92.3269 0.0000 0.0000 0.0000
# 4 0.0000 0.0000 0.0000 24.2615 0.0000 0.0000
# 5 0.0000 0.0000 0.0000 0.0000 -8.7967 0.0000
# 6 0.0000 0.0000 0.0000 0.0000 0.0000 28.5836
#
#
#
# Elastic Compliance Matrix: (Units=1/GPa)
#
#
# Indices 1 2 3 4 5 6 
#
# 1 0.011072 -0.003889 -0.004071 0.000000 0.000000 0.000000
# 2 -0.003889 0.018107 -0.007399 0.000000 0.000000 0.000000
# 3 -0.004071 -0.007399 0.016984 0.000000 0.000000 0.000000
# 4 0.000000 0.000000 0.000000 0.041218 0.000000 0.000000
# 5 0.000000 0.000000 0.000000 0.000000 -0.113679 0.000000
# 6 0.000000 0.000000 0.000000 0.000000 0.000000 0.034985
#
#
# Mechanical properties :
#
#
# Convention : Reuss Voigt Hill
#
# Bulk Modulus (GPa) = 64.74396 66.54833 65.64615
# Shear Modulus (GPa) = 112.22642 19.21038 65.71840
#
# Velocity S-wave (km/s) = 7.75621 3.20900 5.93533
# Velocity P-wave (km/s) = 10.71996 7.02875 9.06424
#
# Compressibility (1/GPa) = 0.01544546
#
# Stress axis : x y z
#
# Youngs Moduli (GPa) = 90.32002 55.22637 58.87903
#
# Poissons Ratio (x) = 0.21477 0.23969
# Poissons Ratio (y) = 0.35124 0.43565
# Poissons Ratio (z) = 0.36768 0.40862
#
# Static dielectric constant tensor:
#      x y z
#    x 3.535630 0.000000 0.000000 
#    y 0.000000 3.366590 0.000000 
#    z 0.000000 0.000000 3.447970 
# 
# 
# High freq. dielectric constant tensor:
#      x y z
#    x 1.728190 0.000000 0.000000 
#    y 0.000000 1.723910 0.000000 
#    z 0.000000 0.000000 1.711820 
# 
# From -- ./inp_files/11769.got.cif
#   From: 2010.03.12/outbox.cif.g09.slc.cpg/sg65_6_cif.got.tgz:11769.got - 2010.04.10 20:52:16.
