data_PCOD8270846
_publ_section_title
;
Structure prediction by ZEFSAII (Michael W. Deem and Ramdas Pophale) SiO2 
 PCOD8270846
Probable space group: C M M M
;
_chemical_formula_sum "Si O2"
_cell_formula_units_Z 88
_cell_length_a 8.825479
_cell_length_b 19.160673
_cell_length_c 28.459321
_cell_angle_alpha 90.000000
_cell_angle_beta 90.000000
_cell_angle_gamma 90.000000
_cell_volume 4812.531435
_symmetry_space_group_name_H-M "C M M M"
_symmetry_group_IT_number 65
_symmetry_cell_setting 'orthorhombic'
loop_
_space_group_symop_operation_xyz
x,y,z
-x,-y,z
x,-y,-z
-x,y,-z
-x,-y,-z
x,y,-z
-x,y,z
x,-y,z
1/2+x,1/2+y,z
1/2-x,1/2-y,z
1/2+x,1/2-y,-z
1/2-x,1/2+y,-z
1/2-x,1/2-y,-z
1/2+x,1/2+y,-z
1/2-x,1/2+y,z
1/2+x,1/2-y,z
loop_
_atom_site_type_symbol
_atom_site_label
_atom_site_fract_x
_atom_site_fract_y
_atom_site_fract_z
Si Si1 0.176244 0.082212 0.095729
Si Si2 0.322163 0.325424 0.268583
Si Si3 0.324711 0.324421 0.371491
Si Si4 0.320431 0.826836 0.824022
Si Si5 0.829387 0.582687 0.000000
Si Si6 0.325878 0.919265 0.553075
O O1 0.270875 0.122530 0.134620
O O2 0.238293 0.108573 0.045594
O O3 0.000000 0.101523 0.099423
O O4 0.203172 0.000000 0.102493
O O5 0.500000 0.321521 0.257668
O O6 0.250000 0.250000 0.271247
O O7 0.289229 0.358892 0.319993
O O8 0.239479 0.362995 0.224664
O O9 0.500000 0.309360 0.375947
O O10 0.250000 0.250000 0.379518
O O11 0.277733 0.377780 0.411325
O O12 0.500000 0.820351 0.822943
O O13 0.250000 0.750000 0.830931
O O14 0.836762 0.500000 0.000000
O O15 0.000000 0.613764 0.000000
O O16 0.293383 0.893686 0.500000
O O17 0.500000 0.906207 0.566174
O O18 0.284039 0.000000 0.557715
#
# Coordination Sequence:
#
# PCOD8270846 Si02
#       6
#    16  16  16  16   8  16
#     4  10  20  35  55  78 105 137 173 213 257 303
#     4   9  17  31  50  73 101 133 169 207 251 302
#     4  10  20  33  53  79 104 132 168 211 254 298
#     4  11  21  34  54  78 105 137 173 211 255 306
#     4   9  17  31  52  77 104 135 172 211 253 305
#     4   9  19  36  55  74 100 135 171 208 254 306
#
# _framework density 18.285594
#
# number of rings (size 3 to 8) (size 9 to 14) (size 15 to 20)
#    0.000    2.273    0.000    5.182    0.000    5.455 
#    0.000    2.273    0.000    1.091    0.000    0.000 
#    0.000    0.000    0.000    0.000    0.000    0.000 
#
# Total GULP energy -545378.612002 kJ/mol
# GULP energy per Si atom -12394.968455 kJ/mol
# Density = 1.824398 g / cm^3
# Si number density = 18.285594 Si / 1000 Ang^3
#
#
#
# Elastic Constant Matrix: (Units=GPa)
#
#
# Indices 1 2 3 4 5 6 
#
# 1 123.5713 33.4358 67.4657 0.0000 0.0000 0.0000
# 2 33.4358 40.2228 47.5868 0.0000 0.0000 0.0000
# 3 67.4657 47.5868 156.5317 0.0000 0.0000 0.0000
# 4 0.0000 0.0000 0.0000 33.5711 0.0000 0.0000
# 5 0.0000 0.0000 0.0000 0.0000 36.0004 0.0000
# 6 0.0000 0.0000 0.0000 0.0000 0.0000 27.7865
#
#
#
# Elastic Compliance Matrix: (Units=1/GPa)
#
#
# Indices 1 2 3 4 5 6 
#
# 1 0.011363 -0.005702 -0.003164 0.000000 0.000000 0.000000
# 2 -0.005702 0.041688 -0.010216 0.000000 0.000000 0.000000
# 3 -0.003164 -0.010216 0.010858 0.000000 0.000000 0.000000
# 4 0.000000 0.000000 0.000000 0.029788 0.000000 0.000000
# 5 0.000000 0.000000 0.000000 0.000000 0.027777 0.000000
# 6 0.000000 0.000000 0.000000 0.000000 0.000000 0.035989
#
#
# Mechanical properties :
#
#
# Convention : Reuss Voigt Hill
#
# Bulk Modulus (GPa) = 38.84334 68.58914 53.71624
# Shear Modulus (GPa) = 24.48498 30.92743 27.70621
#
# Velocity S-wave (km/s) = 3.66325 4.11707 3.89677
# Velocity P-wave (km/s) = 6.25949 7.75833 7.04886
#
# Compressibility (1/GPa) = 0.02574444
#
# Stress axis : x y z
#
# Youngs Moduli (GPa) = 88.00655 23.98798 92.10059
#
# Poissons Ratio (x) = 0.13679 0.29139
# Poissons Ratio (y) = 0.50185 0.94086
# Poissons Ratio (z) = 0.27844 0.24505
#
# Static dielectric constant tensor:
#      x y z
#    x 3.538810 0.000000 0.000000 
#    y 0.000000 2.976820 0.000000 
#    z 0.000000 0.000000 4.121420 
# 
# 
# High freq. dielectric constant tensor:
#      x y z
#    x 1.725250 0.000000 0.000000 
#    y 0.000000 1.665710 0.000000 
#    z 0.000000 0.000000 1.732020 
# 
# From -- ./inp_files/76595.got.cif
#   From: 2010.03.12/outbox.cif.g09.slc.cpg/sg65_39_cif.got.tgz:76595.got - 2010.04.10 20:52:16.
