data_PCOD8270346
_publ_section_title
;
Structure prediction by ZEFSAII (Michael W. Deem and Ramdas Pophale) SiO2 
 PCOD8270346
Probable space group: C M M M
;
_chemical_formula_sum "Si O2"
_cell_formula_units_Z 80
_cell_length_a 27.232248
_cell_length_b 9.157579
_cell_length_c 18.994312
_cell_angle_alpha 90.000000
_cell_angle_beta 90.000000
_cell_angle_gamma 90.000000
_cell_volume 4736.829304
_symmetry_space_group_name_H-M "C M M M"
_symmetry_group_IT_number 65
_symmetry_cell_setting 'orthorhombic'
loop_
_space_group_symop_operation_xyz
x,y,z
-x,-y,z
x,-y,-z
-x,y,-z
-x,-y,-z
x,y,-z
-x,y,z
x,-y,z
1/2+x,1/2+y,z
1/2-x,1/2-y,z
1/2+x,1/2-y,-z
1/2-x,1/2+y,-z
1/2-x,1/2-y,-z
1/2+x,1/2+y,-z
1/2-x,1/2+y,z
1/2+x,1/2-y,z
loop_
_atom_site_type_symbol
_atom_site_label
_atom_site_fract_x
_atom_site_fract_y
_atom_site_fract_z
Si Si1 0.396372 0.828363 0.283207
Si Si2 0.555304 0.826529 0.577189
Si Si3 0.054620 0.167928 0.839541
Si Si4 0.299215 0.172422 0.795535
Si Si5 0.150359 0.829826 0.919586
O O1 0.407810 0.769144 0.362009
O O2 0.435505 0.759833 0.230293
O O3 0.341052 0.785679 0.261224
O O4 0.404127 0.000000 0.278645
O O5 0.572672 0.769130 0.500000
O O6 0.500000 0.770672 0.592661
O O7 0.555439 0.000000 0.576671
O O8 0.093760 0.206115 0.900411
O O9 0.000000 0.204237 0.868075
O O10 0.059312 0.000000 0.817603
O O11 0.250000 0.250000 0.768453
O O12 0.313314 0.233827 0.872273
O O13 0.291158 0.000000 0.801421
O O14 0.162155 0.000000 0.907023
O O15 0.159119 0.784401 0.000000
#
# Coordination Sequence:
#
# PCOD8270346 Si02
#       5
#    16  16  16  16  16
#     4   9  17  29  46  67  89 115 149 186 220 256
#     4   8  13  22  40  68  97 120 143 174 211 249
#     4   9  17  28  43  65  92 121 150 178 212 256
#     4  10  20  33  49  67  86 111 145 185 228 270
#     4   9  18  32  48  66  89 116 146 181 220 262
#
# _framework density 16.888935
#
# number of rings (size 3 to 8) (size 9 to 14) (size 15 to 20)
#    0.000    3.000    0.000    1.800    0.000    3.200 
#    0.000    2.000    0.000    1.200    0.000    8.400 
#    0.000    0.000    0.000    0.000    0.000    0.600 
#
# Total GULP energy -495832.419513 kJ/mol
# GULP energy per Si atom -12395.810488 kJ/mol
# Density = 1.685049 g / cm^3
# Si number density = 16.888935 Si / 1000 Ang^3
#
#
#
# Elastic Constant Matrix: (Units=GPa)
#
#
# Indices 1 2 3 4 5 6 
#
# 1 97.0057 29.4125 47.9807 0.0000 0.0000 0.0000
# 2 29.4125 34.6288 27.5127 0.0000 0.0000 0.0000
# 3 47.9807 27.5127 124.7951 0.0000 0.0000 0.0000
# 4 0.0000 0.0000 0.0000 14.0497 0.0000 0.0000
# 5 0.0000 0.0000 0.0000 0.0000 18.0977 0.0000
# 6 0.0000 0.0000 0.0000 0.0000 0.0000 21.4354
#
#
#
# Elastic Compliance Matrix: (Units=1/GPa)
#
#
# Indices 1 2 3 4 5 6 
#
# 1 0.015120 -0.009970 -0.003615 0.000000 0.000000 0.000000
# 2 -0.009970 0.041584 -0.005335 0.000000 0.000000 0.000000
# 3 -0.003615 -0.005335 0.010579 0.000000 0.000000 0.000000
# 4 0.000000 0.000000 0.000000 0.071176 0.000000 0.000000
# 5 0.000000 0.000000 0.000000 0.000000 0.055256 0.000000
# 6 0.000000 0.000000 0.000000 0.000000 0.000000 0.046652
#
#
# Mechanical properties :
#
#
# Convention : Reuss Voigt Hill
#
# Bulk Modulus (GPa) = 33.96314 51.80459 42.88387
# Shear Modulus (GPa) = 17.35989 20.81813 19.08901
#
# Velocity S-wave (km/s) = 3.20954 3.51472 3.36559
# Velocity P-wave (km/s) = 5.82136 6.87105 6.36787
#
# Compressibility (1/GPa) = 0.02944368
#
# Stress axis : x y z
#
# Youngs Moduli (GPa) = 66.13885 24.04770 94.52547
#
# Poissons Ratio (x) = 0.23975 0.34173
# Poissons Ratio (y) = 0.65940 0.50425
# Poissons Ratio (z) = 0.23910 0.12828
#
# Static dielectric constant tensor:
#      x y z
#    x 3.245500 0.000000 0.000000 
#    y 0.000000 2.980680 0.000000 
#    z 0.000000 0.000000 3.385180 
# 
# 
# High freq. dielectric constant tensor:
#      x y z
#    x 1.647110 0.000000 0.000000 
#    y 0.000000 1.631500 0.000000 
#    z 0.000000 0.000000 1.642710 
# 
# From -- ./inp_files/49852.got.cif
#   From: 2010.03.12/outbox.cif.g09.slc.cpg/sg65_25_cif.got.tgz:49852.got - 2010.04.10 20:52:16.
