data_PCOD8270463
_publ_section_title
;
Structure prediction by ZEFSAII (Michael W. Deem and Ramdas Pophale) SiO2 
 PCOD8270463
Probable space group: C M M M
;
_chemical_formula_sum "Si O2"
_cell_formula_units_Z 72
_cell_length_a 18.469650
_cell_length_b 9.335325
_cell_length_c 23.111773
_cell_angle_alpha 90.000000
_cell_angle_beta 90.000000
_cell_angle_gamma 90.000000
_cell_volume 3984.936185
_symmetry_space_group_name_H-M "C M M M"
_symmetry_group_IT_number 65
_symmetry_cell_setting 'orthorhombic'
loop_
_space_group_symop_operation_xyz
x,y,z
-x,-y,z
x,-y,-z
-x,y,-z
-x,-y,-z
x,y,-z
-x,y,z
x,-y,z
1/2+x,1/2+y,z
1/2-x,1/2-y,z
1/2+x,1/2-y,-z
1/2-x,1/2+y,-z
1/2-x,1/2-y,-z
1/2+x,1/2+y,-z
1/2-x,1/2+y,z
1/2+x,1/2-y,z
loop_
_atom_site_type_symbol
_atom_site_label
_atom_site_fract_x
_atom_site_fract_y
_atom_site_fract_z
Si Si1 0.419499 0.169731 0.169773
Si Si2 0.413894 0.338255 0.500000
Si Si3 0.916346 0.334374 0.610439
Si Si4 0.174912 0.331337 0.276993
Si Si5 0.322193 0.166954 0.934577
O O1 0.500000 0.236605 0.174319
O O2 0.369901 0.226891 0.221957
O O3 0.385662 0.216981 0.108375
O O4 0.424891 0.000000 0.174165
O O5 0.383961 0.500000 0.500000
O O6 0.500000 0.333981 0.500000
O O7 0.385340 0.258101 0.442846
O O8 0.906997 0.500000 0.593853
O O9 0.870893 0.292272 0.666484
O O10 0.000000 0.298679 0.623639
O O11 0.189759 0.500000 0.272239
O O12 0.250000 0.250000 0.279729
O O13 0.250000 0.250000 0.917362
O O14 0.305125 0.000000 0.927028
O O15 0.346870 0.203093 0.000000
#
# Coordination Sequence:
#
# PCOD8270463 Si02
#       5
#    16   8  16  16  16
#     4   9  17  30  49  72  96 123 160 204 242 278
#     4   9  17  29  48  75 102 125 151 189 238 283
#     4   9  17  31  51  72  94 123 160 196 230 276
#     4  10  20  33  50  71  95 125 159 196 240 286
#     4   9  17  29  47  71  98 129 162 196 237 284
#
# _framework density 18.068042999999999
#
# number of rings (size 3 to 8) (size 9 to 14) (size 15 to 20)
#    0.000    2.778    0.000    1.667    0.000    5.333 
#    0.000    2.778    0.000    4.000    0.000    3.111 
#    0.000    0.000    0.000    0.000    0.000    0.000 
#
# Total GULP energy -446400.160460 kJ/mol
# GULP energy per Si atom -12400.004457 kJ/mol
# Density = 1.802692 g / cm^3
# Si number density = 18.068043 Si / 1000 Ang^3
#
#
#
# Elastic Constant Matrix: (Units=GPa)
#
#
# Indices 1 2 3 4 5 6 
#
# 1 129.3889 44.5153 86.5805 0.0000 0.0000 0.0000
# 2 44.5153 47.7807 52.0062 0.0000 0.0000 0.0000
# 3 86.5805 52.0062 158.3333 0.0000 0.0000 0.0000
# 4 0.0000 0.0000 0.0000 17.2411 0.0000 0.0000
# 5 0.0000 0.0000 0.0000 0.0000 20.0167 0.0000
# 6 0.0000 0.0000 0.0000 0.0000 0.0000 25.7689
#
#
#
# Elastic Compliance Matrix: (Units=1/GPa)
#
#
# Indices 1 2 3 4 5 6 
#
# 1 0.013582 -0.007113 -0.005091 0.000000 0.000000 0.000000
# 2 -0.007113 0.036300 -0.008033 0.000000 0.000000 0.000000
# 3 -0.005091 -0.008033 0.011738 0.000000 0.000000 0.000000
# 4 0.000000 0.000000 0.000000 0.058001 0.000000 0.000000
# 5 0.000000 0.000000 0.000000 0.000000 0.049958 0.000000
# 6 0.000000 0.000000 0.000000 0.000000 0.000000 0.038806
#
#
# Mechanical properties :
#
#
# Convention : Reuss Voigt Hill
#
# Bulk Modulus (GPa) = 47.29090 77.96743 62.62917
# Shear Modulus (GPa) = 19.53818 22.76540 21.15179
#
# Velocity S-wave (km/s) = 3.29198 3.55347 3.42522
# Velocity P-wave (km/s) = 6.37810 7.75126 7.09796
#
# Compressibility (1/GPa) = 0.02114572
#
# Stress axis : x y z
#
# Youngs Moduli (GPa) = 73.62502 27.54841 85.19182
#
# Poissons Ratio (x) = 0.19595 0.43369
# Poissons Ratio (y) = 0.52370 0.68438
# Poissons Ratio (z) = 0.37481 0.22131
#
# Static dielectric constant tensor:
#      x y z
#    x 3.298190 0.000000 0.000000 
#    y 0.000000 3.120300 0.000000 
#    z 0.000000 0.000000 3.568400 
# 
# 
# High freq. dielectric constant tensor:
#      x y z
#    x 1.687820 0.000000 0.000000 
#    y 0.000000 1.669800 0.000000 
#    z 0.000000 0.000000 1.718020 
# 
# From -- ./inp_files/59268.got.cif
#   From: 2010.03.12/outbox.cif.g09.slc.cpg/sg65_30_cif.got.tgz:59268.got - 2010.04.10 20:52:16.
