data_PCOD8270592
_publ_section_title
;
Structure prediction by ZEFSAII (Michael W. Deem and Ramdas Pophale) SiO2 
 PCOD8270592
Probable space group: C M M M
;
_chemical_formula_sum "Si O2"
_cell_formula_units_Z 104
_cell_length_a 9.337510
_cell_length_b 25.806988
_cell_length_c 23.332280
_cell_angle_alpha 90.000000
_cell_angle_beta 90.000000
_cell_angle_gamma 90.000000
_cell_volume 5622.449707
_symmetry_space_group_name_H-M "C M M M"
_symmetry_group_IT_number 65
_symmetry_cell_setting 'orthorhombic'
loop_
_space_group_symop_operation_xyz
x,y,z
-x,-y,z
x,-y,-z
-x,y,-z
-x,-y,-z
x,y,-z
-x,y,z
x,-y,z
1/2+x,1/2+y,z
1/2-x,1/2-y,z
1/2+x,1/2-y,-z
1/2-x,1/2+y,-z
1/2-x,1/2-y,-z
1/2+x,1/2+y,-z
1/2-x,1/2+y,z
1/2+x,1/2-y,z
loop_
_atom_site_type_symbol
_atom_site_label
_atom_site_fract_x
_atom_site_fract_y
_atom_site_fract_z
Si Si1 0.334780 0.408841 0.935607
Si Si2 0.669389 0.303205 0.654032
Si Si3 0.667562 0.352574 0.225827
Si Si4 0.343555 0.500000 0.567912
Si Si5 0.664093 0.058646 0.828446
Si Si6 0.828914 0.888597 0.564296
Si Si7 0.662879 0.298957 0.890258
O O1 0.500000 0.420742 0.919842
O O2 0.234747 0.438962 0.891422
O O3 0.307190 0.347314 0.931722
O O4 0.299087 0.427398 0.000000
O O5 0.500000 0.293696 0.649922
O O6 0.750000 0.250000 0.641973
O O7 0.714282 0.325324 0.715662
O O8 0.725008 0.344075 0.606830
O O9 0.500000 0.366658 0.225074
O O10 0.754161 0.405868 0.217674
O O11 0.708116 0.313861 0.174447
O O12 0.500000 0.500000 0.597353
O O13 0.362234 0.500000 0.500000
O O14 0.265993 0.445333 0.584549
O O15 0.500000 0.077059 0.833533
O O16 0.673981 0.000000 0.805881
O O17 0.775792 0.874986 0.500000
O O18 0.000000 0.892508 0.565395
O O19 0.500000 0.281488 0.892026
O O20 0.750000 0.250000 0.912784
#
# Coordination Sequence:
#
# PCOD8270592 Si02
#       7
#    16  16  16   8  16  16  16
#     4   9  19  35  52  72 101 135 169 203 241 293
#     4  10  20  33  50  76 106 137 175 216 260 311
#     4   9  19  35  51  70  97 129 168 210 251 302
#     4   7  10  20  40  64  93 129 165 207 256 297
#     4  10  21  36  54  76 101 128 161 205 256 307
#     4   8  14  26  45  71 104 138 173 215 262 311
#     4   9  17  29  46  67  92 123 160 200 243 288
#
# _framework density 18.497275999999999
#
# number of rings (size 3 to 8) (size 9 to 14) (size 15 to 20)
#    0.000    3.000    0.000    2.769    0.000    5.538 
#    1.385    1.538    0.000    0.000    0.000    0.000 
#    0.000    1.846    0.000    0.000    0.000    0.000 
#
# Total GULP energy -644540.486440 kJ/mol
# GULP energy per Si atom -12395.009355 kJ/mol
# Density = 1.845518 g / cm^3
# Si number density = 18.497276 Si / 1000 Ang^3
#
#
#
# Elastic Constant Matrix: (Units=GPa)
#
#
# Indices 1 2 3 4 5 6 
#
# 1 48.9359 40.3175 13.3598 0.0000 0.0000 0.0000
# 2 40.3175 123.3515 38.6478 0.0000 0.0000 0.0000
# 3 13.3598 38.6478 74.5596 0.0000 0.0000 0.0000
# 4 0.0000 0.0000 0.0000 19.6424 0.0000 0.0000
# 5 0.0000 0.0000 0.0000 0.0000 10.9801 0.0000
# 6 0.0000 0.0000 0.0000 0.0000 0.0000 30.6568
#
#
#
# Elastic Compliance Matrix: (Units=1/GPa)
#
#
# Indices 1 2 3 4 5 6 
#
# 1 0.027972 -0.009041 -0.000326 0.000000 0.000000 0.000000
# 2 -0.009041 0.012601 -0.004912 0.000000 0.000000 0.000000
# 3 -0.000326 -0.004912 0.016016 0.000000 0.000000 0.000000
# 4 0.000000 0.000000 0.000000 0.050910 0.000000 0.000000
# 5 0.000000 0.000000 0.000000 0.000000 0.091074 0.000000
# 6 0.000000 0.000000 0.000000 0.000000 0.000000 0.032619
#
#
# Mechanical properties :
#
#
# Convention : Reuss Voigt Hill
#
# Bulk Modulus (GPa) = 35.67223 47.94413 41.80818
# Shear Modulus (GPa) = 18.58089 22.55731 20.56910
#
# Velocity S-wave (km/s) = 3.17286 3.49591 3.33829
# Velocity P-wave (km/s) = 5.72273 6.50162 6.12457
#
# Compressibility (1/GPa) = 0.02803301
#
# Stress axis : x y z
#
# Youngs Moduli (GPa) = 35.74964 79.36045 62.43582
#
# Poissons Ratio (x) = 0.71747 0.02035
# Poissons Ratio (y) = 0.32320 0.30666
# Poissons Ratio (z) = 0.01165 0.38979
#
# Static dielectric constant tensor:
#      x y z
#    x 3.090170 0.000000 0.000000 
#    y 0.000000 3.504990 0.000000 
#    z 0.000000 0.000000 3.401620 
# 
# 
# High freq. dielectric constant tensor:
#      x y z
#    x 1.682940 0.000000 0.000000 
#    y 0.000000 1.726250 0.000000 
#    z 0.000000 0.000000 1.705070 
# 
# From -- ./inp_files/68219.got.cif
#   From: 2010.03.12/outbox.cif.g09.slc.cpg/sg65_35_cif.got.tgz:68219.got - 2010.04.10 20:52:16.
