data_PCOD8270840
_publ_section_title
;
Structure prediction by ZEFSAII (Michael W. Deem and Ramdas Pophale) SiO2 
 PCOD8270840
Probable space group: C M M M
;
_chemical_formula_sum "Si O2"
_cell_formula_units_Z 120
_cell_length_a 18.752070
_cell_length_b 20.664900
_cell_length_c 16.163531
_cell_angle_alpha 90.000000
_cell_angle_beta 90.000000
_cell_angle_gamma 90.000000
_cell_volume 6263.524262
_symmetry_space_group_name_H-M "C M M M"
_symmetry_group_IT_number 65
_symmetry_cell_setting 'orthorhombic'
loop_
_space_group_symop_operation_xyz
x,y,z
-x,-y,z
x,-y,-z
-x,y,-z
-x,-y,-z
x,y,-z
-x,y,z
x,-y,z
1/2+x,1/2+y,z
1/2-x,1/2-y,z
1/2+x,1/2-y,-z
1/2-x,1/2+y,-z
1/2-x,1/2-y,-z
1/2+x,1/2+y,-z
1/2-x,1/2+y,z
1/2+x,1/2-y,z
loop_
_atom_site_type_symbol
_atom_site_label
_atom_site_fract_x
_atom_site_fract_y
_atom_site_fract_z
Si Si1 0.848734 0.142190 0.144734
Si Si2 0.578688 0.775102 0.141849
Si Si3 0.665353 0.426357 0.311413
Si Si4 0.690496 0.127524 0.092876
Si Si5 0.082376 0.930224 0.000000
Si Si6 0.577796 0.816925 0.323133
Si Si7 0.327482 0.072119 0.727328
Si Si8 0.582272 0.684173 0.597264
O O1 0.884168 0.209174 0.169082
O O2 0.856960 0.092886 0.219703
O O3 0.768909 0.155368 0.112046
O O4 0.897884 0.111166 0.077540
O O5 0.500000 0.765889 0.099603
O O6 0.632591 0.815057 0.083733
O O7 0.567305 0.813112 0.225723
O O8 0.640224 0.500000 0.330638
O O9 0.750231 0.421126 0.313476
O O10 0.629614 0.377131 0.376081
O O11 0.671157 0.082811 0.172169
O O12 0.691344 0.093837 0.000000
O O13 0.000000 0.943294 0.000000
O O14 0.122468 0.000000 0.000000
O O15 0.500000 0.829437 0.364694
O O16 0.628344 0.879170 0.331539
O O17 0.611153 0.751105 0.361741
O O18 0.357774 0.000000 0.714385
O O19 0.589583 0.692029 0.500000
O O20 0.500000 0.672588 0.624309
#
# Coordination Sequence:
#
# PCOD8270840 Si02
#       8
#    16  16  16  16   8  16  16  16
#     4  11  20  36  55  74 104 149 192 229 278 331
#     4  10  20  33  53  77 106 142 183 230 286 339
#     4  10  21  37  57  82 115 152 189 229 275 332
#     4  10  21  35  51  79 109 144 187 239 284 335
#     4  11  24  36  47  72 105 137 183 236 276 320
#     4   9  18  36  59  83 112 144 181 229 280 335
#     4   9  20  37  58  84 111 146 191 235 280 335
#     4  10  21  38  61  89 117 146 184 228 277 334
#
# _framework density 19.158543000000002
#
# number of rings (size 3 to 8) (size 9 to 14) (size 15 to 20)
#    0.000    2.067    2.000    1.200    0.933    3.467 
#    0.000    2.000    0.000    1.200    0.000    5.600 
#    0.000    0.000    0.000    0.000    0.000    0.000 
#
# Total GULP energy -743360.747868 kJ/mol
# GULP energy per Si atom -12389.345798 kJ/mol
# Density = 1.911494 g / cm^3
# Si number density = 19.158543 Si / 1000 Ang^3
#
#
#
# Elastic Constant Matrix: (Units=GPa)
#
#
# Indices 1 2 3 4 5 6 
#
# 1 89.4554 60.4215 24.6255 0.0000 0.0000 0.0000
# 2 60.4215 145.5180 29.4077 0.0000 0.0000 0.0000
# 3 24.6255 29.4077 67.2604 0.0000 0.0000 0.0000
# 4 0.0000 0.0000 0.0000 0.9802 0.0000 0.0000
# 5 0.0000 0.0000 0.0000 0.0000 20.8515 0.0000
# 6 0.0000 0.0000 0.0000 0.0000 0.0000 30.3618
#
#
#
# Elastic Compliance Matrix: (Units=1/GPa)
#
#
# Indices 1 2 3 4 5 6 
#
# 1 0.016167 -0.006051 -0.003273 0.000000 0.000000 0.000000
# 2 -0.006051 0.009803 -0.002071 0.000000 0.000000 0.000000
# 3 -0.003273 -0.002071 0.016971 0.000000 0.000000 0.000000
# 4 0.000000 0.000000 0.000000 1.020165 0.000000 0.000000
# 5 0.000000 0.000000 0.000000 0.000000 0.047958 0.000000
# 6 0.000000 0.000000 0.000000 0.000000 0.000000 0.032936
#
#
# Mechanical properties :
#
#
# Convention : Reuss Voigt Hill
#
# Bulk Modulus (GPa) = 49.62541 59.01590 54.32065
# Shear Modulus (GPa) = 4.26073 22.95732 13.60903
#
# Velocity S-wave (km/s) = 1.49290 3.46538 2.66811
# Velocity P-wave (km/s) = 5.37870 6.84709 6.15683
#
# Compressibility (1/GPa) = 0.02015097
#
# Stress axis : x y z
#
# Youngs Moduli (GPa) = 61.85377 102.00887 58.92287
#
# Poissons Ratio (x) = 0.61729 0.19288
# Poissons Ratio (y) = 0.37430 0.12200
# Poissons Ratio (z) = 0.20247 0.21122
#
# Static dielectric constant tensor:
#      x y z
#    x 3.809700 0.000000 0.000000 
#    y 0.000000 2.588230 0.000000 
#    z 0.000000 0.000000 3.245870 
# 
# 
# High freq. dielectric constant tensor:
#      x y z
#    x 1.747260 0.000000 0.000000 
#    y 0.000000 1.741720 0.000000 
#    z 0.000000 0.000000 1.727850 
# 
# From -- ./inp_files/54973.got.cif
#   From: 2010.03.12/outbox.cif.g09.slc.cpg/sg65_28_cif.got.tgz:54973.got - 2010.04.10 20:52:16.
