data_PCOD8270737
_publ_section_title
;
Structure prediction by ZEFSAII (Michael W. Deem and Ramdas Pophale) SiO2 
 PCOD8270737
Probable space group: C M M M
;
_chemical_formula_sum "Si O2"
_cell_formula_units_Z 72
_cell_length_a 18.444887
_cell_length_b 8.010432
_cell_length_c 24.695691
_cell_angle_alpha 90.000000
_cell_angle_beta 90.000000
_cell_angle_gamma 90.000000
_cell_volume 3648.825711
_symmetry_space_group_name_H-M "C M M M"
_symmetry_group_IT_number 65
_symmetry_cell_setting 'orthorhombic'
loop_
_space_group_symop_operation_xyz
x,y,z
-x,-y,z
x,-y,-z
-x,y,-z
-x,-y,-z
x,y,-z
-x,y,z
x,-y,z
1/2+x,1/2+y,z
1/2-x,1/2-y,z
1/2+x,1/2-y,-z
1/2-x,1/2+y,-z
1/2-x,1/2-y,-z
1/2+x,1/2+y,-z
1/2-x,1/2+y,z
1/2+x,1/2-y,z
loop_
_atom_site_type_symbol
_atom_site_label
_atom_site_fract_x
_atom_site_fract_y
_atom_site_fract_z
Si Si1 0.413949 0.500000 0.060522
Si Si2 0.416672 0.189857 0.328531
Si Si3 0.084142 0.687531 0.131100
Si Si4 0.668838 0.310792 0.230390
Si Si5 0.085883 0.189765 0.558402
O O1 0.500000 0.500000 0.057940
O O2 0.386959 0.670047 0.089895
O O3 0.381115 0.500000 0.000000
O O4 0.500000 0.250688 0.326111
O O5 0.370198 0.302518 0.288299
O O6 0.385524 0.206700 0.389874
O O7 0.409209 0.000000 0.309666
O O8 0.095419 0.500000 0.106748
O O9 0.127654 0.697065 0.186942
O O10 0.000000 0.719424 0.144370
O O11 0.667143 0.500000 0.209479
O O12 0.750000 0.250000 0.237548
O O13 0.115687 0.258044 0.500000
O O14 0.000000 0.202030 0.556727
O O15 0.111275 0.000000 0.566083
#
# Coordination Sequence:
#
# PCOD8270737 Si02
#       5
#     8  16  16  16  16
#     4   9  18  34  58  90 122 152 188 228 274 323
#     4  10  20  33  51  78 110 141 179 226 274 329
#     4  10  20  36  59  88 119 151 189 231 275 328
#     4  12  24  38  56  79 108 146 186 231 282 335
#     4   8  14  26  45  70 100 135 175 219 269 323
#
# _framework density 19.732375000000001
#
# number of rings (size 3 to 8) (size 9 to 14) (size 15 to 20)
#    0.000    2.111    1.111    4.000    0.000    4.889 
#    0.000    4.444    0.000    1.333    0.000    0.000 
#    0.000    0.000    0.000    0.000    0.000    0.000 
#
# Total GULP energy -446255.242199 kJ/mol
# GULP energy per Si atom -12395.978950 kJ/mol
# Density = 1.968746 g / cm^3
# Si number density = 19.732375 Si / 1000 Ang^3
#
#
#
# Elastic Constant Matrix: (Units=GPa)
#
#
# Indices 1 2 3 4 5 6 
#
# 1 57.7296 26.4383 40.5315 0.0000 0.0000 0.0000
# 2 26.4383 112.4014 46.7599 0.0000 0.0000 0.0000
# 3 40.5315 46.7599 143.2571 0.0000 0.0000 0.0000
# 4 0.0000 0.0000 0.0000 28.2247 0.0000 0.0000
# 5 0.0000 0.0000 0.0000 0.0000 0.9782 0.0000
# 6 0.0000 0.0000 0.0000 0.0000 0.0000 16.7167
#
#
#
# Elastic Compliance Matrix: (Units=1/GPa)
#
#
# Indices 1 2 3 4 5 6 
#
# 1 0.022489 -0.003058 -0.005365 0.000000 0.000000 0.000000
# 2 -0.003058 0.010710 -0.002631 0.000000 0.000000 0.000000
# 3 -0.005365 -0.002631 0.009357 0.000000 0.000000 0.000000
# 4 0.000000 0.000000 0.000000 0.035430 0.000000 0.000000
# 5 0.000000 0.000000 0.000000 0.000000 1.022272 0.000000
# 6 0.000000 0.000000 0.000000 0.000000 0.000000 0.059821
#
#
# Mechanical properties :
#
#
# Convention : Reuss Voigt Hill
#
# Bulk Modulus (GPa) = 48.90058 60.09414 54.49736
# Shear Modulus (GPa) = 4.20521 22.49449 13.34985
#
# Velocity S-wave (km/s) = 1.46142 3.38002 2.60387
# Velocity P-wave (km/s) = 5.26150 6.76413 6.05957
#
# Compressibility (1/GPa) = 0.02044966
#
# Stress axis : x y z
#
# Youngs Moduli (GPa) = 44.46609 93.36745 106.87242
#
# Poissons Ratio (x) = 0.28552 0.57333
# Poissons Ratio (y) = 0.13598 0.28115
# Poissons Ratio (z) = 0.23854 0.24562
#
# Static dielectric constant tensor:
#      x y z
#    x 3.133360 0.000000 0.000000 
#    y 0.000000 3.671520 0.000000 
#    z 0.000000 0.000000 4.200800 
# 
# 
# High freq. dielectric constant tensor:
#      x y z
#    x 1.715110 0.000000 0.000000 
#    y 0.000000 1.776720 0.000000 
#    z 0.000000 0.000000 1.775060 
# 
# From -- ./inp_files/70297.got.cif
#   From: 2010.03.12/outbox.cif.g09.slc.cpg/sg65_36_cif.got.tgz:70297.got - 2010.04.10 20:52:16.
