data_PCOD8270985
_publ_section_title
;
Structure prediction by ZEFSAII (Michael W. Deem and Ramdas Pophale) SiO2 
 PCOD8270985
Probable space group: C M M M
;
_chemical_formula_sum "Si O2"
_cell_formula_units_Z 104
_cell_length_a 23.905080
_cell_length_b 7.903508
_cell_length_c 29.854688
_cell_angle_alpha 90.000000
_cell_angle_beta 90.000000
_cell_angle_gamma 90.000000
_cell_volume 5640.565355
_symmetry_space_group_name_H-M "C M M M"
_symmetry_group_IT_number 65
_symmetry_cell_setting 'orthorhombic'
loop_
_space_group_symop_operation_xyz
x,y,z
-x,-y,z
x,-y,-z
-x,y,-z
-x,-y,-z
x,y,-z
-x,y,z
x,-y,z
1/2+x,1/2+y,z
1/2-x,1/2-y,z
1/2+x,1/2-y,-z
1/2-x,1/2+y,-z
1/2-x,1/2-y,-z
1/2+x,1/2+y,-z
1/2-x,1/2+y,z
1/2+x,1/2-y,z
loop_
_atom_site_type_symbol
_atom_site_label
_atom_site_fract_x
_atom_site_fract_y
_atom_site_fract_z
Si Si1 0.811800 0.300277 0.049561
Si Si2 0.384869 0.196738 0.130011
Si Si3 0.111206 0.807590 0.293791
Si Si4 0.066030 0.500000 0.450288
Si Si5 0.185746 0.200158 0.784410
Si Si6 0.000000 0.811823 0.840968
Si Si7 0.000000 0.689726 0.747309
Si Si8 0.934151 0.198106 0.386512
O O1 0.816844 0.500000 0.048612
O O2 0.750000 0.250000 0.064533
O O3 0.852956 0.224608 0.087095
O O4 0.825713 0.225850 0.000000
O O5 0.348901 0.222336 0.174871
O O6 0.444486 0.288343 0.129752
O O7 0.395396 0.000000 0.123409
O O8 0.160319 0.725967 0.262829
O O9 0.053759 0.793062 0.267261
O O10 0.102077 0.734708 0.343868
O O11 0.127088 0.000000 0.300982
O O12 0.092868 0.500000 0.500000
O O13 0.084669 0.674658 0.425992
O O14 0.000000 0.500000 0.453908
O O15 0.250000 0.250000 0.788216
O O16 0.178206 0.000000 0.786041
O O17 0.000000 0.676775 0.800917
O O18 0.000000 0.000000 0.820617
O O19 0.000000 0.500000 0.727269
O O20 0.000000 0.219075 0.375150
O O21 0.922009 0.000000 0.398903
#
# Coordination Sequence:
#
# PCOD8270985 Si02
#       8
#    16  16  16   8  16   8   8  16
#     4   9  19  36  58  82 106 133 169 217 267 316
#     4  11  22  37  57  80 105 135 178 218 260 318
#     4  10  20  34  51  72 104 142 177 218 261 309
#     4   9  18  30  44  68 104 140 178 218 261 316
#     4  11  23  37  53  74 107 144 175 213 262 314
#     4  12  24  38  53  75 108 141 175 215 266 312
#     4  12  22  30  52  79 101 135 179 219 257 301
#     4   9  17  29  47  70  99 136 177 217 263 315
#
# _framework density 18.437868000000002
#
# number of rings (size 3 to 8) (size 9 to 14) (size 15 to 20)
#    0.000    1.769    2.308    2.769    1.077    3.385 
#    0.000    1.923    0.000    2.308    0.000    0.000 
#    0.000    0.615    0.308    0.000    0.000    0.000 
#
# Total GULP energy -644456.801708 kJ/mol
# GULP energy per Si atom -12393.400033 kJ/mol
# Density = 1.839590 g / cm^3
# Si number density = 18.437868 Si / 1000 Ang^3
#
#
#
# Elastic Constant Matrix: (Units=GPa)
#
#
# Indices 1 2 3 4 5 6 
#
# 1 108.9941 13.6352 59.4861 0.0000 0.0000 0.0000
# 2 13.6352 57.2809 34.1406 0.0000 0.0000 0.0000
# 3 59.4861 34.1406 146.4509 0.0000 0.0000 0.0000
# 4 0.0000 0.0000 0.0000 22.8306 0.0000 0.0000
# 5 0.0000 0.0000 0.0000 0.0000 -1.7859 0.0000
# 6 0.0000 0.0000 0.0000 0.0000 0.0000 16.2916
#
#
#
# Elastic Compliance Matrix: (Units=1/GPa)
#
#
# Indices 1 2 3 4 5 6 
#
# 1 0.011788 0.000055 -0.004801 0.000000 0.000000 0.000000
# 2 0.000055 0.020275 -0.004749 0.000000 0.000000 0.000000
# 3 -0.004801 -0.004749 0.009885 0.000000 0.000000 0.000000
# 4 0.000000 0.000000 0.000000 0.043801 0.000000 0.000000
# 5 0.000000 0.000000 0.000000 0.000000 -0.559941 0.000000
# 6 0.000000 0.000000 0.000000 0.000000 0.000000 0.061381
#
#
# Mechanical properties :
#
#
# Convention : Reuss Voigt Hill
#
# Bulk Modulus (GPa) = 43.55510 58.58330 51.06920
# Shear Modulus (GPa) = -12.94777 21.16486 4.10855
#
# Velocity S-wave (km/s) = -2.65285 3.39175 1.49437
# Velocity P-wave (km/s) = 3.78027 6.86884 5.54398
#
# Compressibility (1/GPa) = 0.02295942
#
# Stress axis : x y z
#
# Youngs Moduli (GPa) = 84.83070 49.32137 101.15849
#
# Poissons Ratio (x) = -0.00274 0.48567
# Poissons Ratio (y) = -0.00471 0.48041
# Poissons Ratio (z) = 0.40728 0.23423
#
# Static dielectric constant tensor:
#      x y z
#    x 3.291950 0.000000 0.000000 
#    y 0.000000 3.384730 0.000000 
#    z 0.000000 0.000000 3.737180 
# 
# 
# High freq. dielectric constant tensor:
#      x y z
#    x 1.685460 0.000000 0.000000 
#    y 0.000000 1.718610 0.000000 
#    z 0.000000 0.000000 1.710220 
# 
# From -- ./inp_files/75821.got.cif
#   From: 2010.03.12/outbox.cif.g09.slc.cpg/sg65_38_cif.got.tgz:75821.got - 2010.04.10 20:52:16.
