data_PCOD8270517
_publ_section_title
;
Structure prediction by ZEFSAII (Michael W. Deem and Ramdas Pophale) SiO2 
 PCOD8270517
Probable space group: C M M M
;
_chemical_formula_sum "Si O2"
_cell_formula_units_Z 88
_cell_length_a 27.891002
_cell_length_b 19.124611
_cell_length_c 8.956249
_cell_angle_alpha 90.000000
_cell_angle_beta 90.000000
_cell_angle_gamma 90.000000
_cell_volume 4777.304090
_symmetry_space_group_name_H-M "C M M M"
_symmetry_group_IT_number 65
_symmetry_cell_setting 'orthorhombic'
loop_
_space_group_symop_operation_xyz
x,y,z
-x,-y,z
x,-y,-z
-x,y,-z
-x,-y,-z
x,y,-z
-x,y,z
x,-y,z
1/2+x,1/2+y,z
1/2-x,1/2-y,z
1/2+x,1/2-y,-z
1/2-x,1/2+y,-z
1/2-x,1/2-y,-z
1/2+x,1/2+y,-z
1/2-x,1/2+y,z
1/2+x,1/2-y,z
loop_
_atom_site_type_symbol
_atom_site_label
_atom_site_fract_x
_atom_site_fract_y
_atom_site_fract_z
Si Si1 0.000000 0.417712 0.667146
Si Si2 0.729747 0.417244 0.834767
Si Si3 0.675670 0.081612 0.326145
Si Si4 0.087653 0.346880 0.823305
Si Si5 0.553948 0.304489 0.177414
Si Si6 0.875441 0.921930 0.821874
O O1 0.047063 0.395065 0.754016
O O2 0.000000 0.500000 0.658028
O O3 0.000000 0.385831 0.500000
O O4 0.728667 0.500000 0.848594
O O5 0.771202 0.393179 0.721442
O O6 0.677408 0.394128 0.772979
O O7 0.739591 0.385298 0.000000
O O8 0.668524 0.095967 0.500000
O O9 0.638939 0.128283 0.233958
O O10 0.667734 0.000000 0.287721
O O11 0.078961 0.267286 0.771872
O O12 0.085377 0.354704 0.000000
O O13 0.500000 0.308168 0.242654
O O14 0.584632 0.369160 0.242979
O O15 0.552122 0.308527 0.000000
O O16 0.885825 0.000000 0.758985
O O17 0.876925 0.923716 0.000000
#
# Coordination Sequence:
#
# PCOD8270517 Si02
#       6
#     8  16  16  16  16  16
#     4  11  23  37  53  73  98 129 170 218 257 293
#     4   8  14  27  48  74 101 129 164 205 250 300
#     4  10  20  33  50  73 100 131 169 213 257 299
#     4  11  21  34  51  73 102 137 171 206 250 300
#     4   9  17  30  47  71 104 136 167 206 251 300
#     4   8  14  26  48  77 105 132 164 205 252 300
#
# _framework density 18.42043
#
# number of rings (size 3 to 8) (size 9 to 14) (size 15 to 20)
#    0.000    2.636    0.909    3.000    0.000    4.364 
#    0.000    2.727    0.000    7.636    0.000    0.000 
#    0.000    0.727    0.000    0.000    0.000    0.000 
#
# Total GULP energy -545452.924515 kJ/mol
# GULP energy per Si atom -12396.657375 kJ/mol
# Density = 1.837850 g / cm^3
# Si number density = 18.420430 Si / 1000 Ang^3
#
#
#
# Elastic Constant Matrix: (Units=GPa)
#
#
# Indices 1 2 3 4 5 6 
#
# 1 157.0700 74.2258 40.0967 0.0000 0.0000 0.0000
# 2 74.2258 94.6483 31.6056 0.0000 0.0000 0.0000
# 3 40.0967 31.6056 56.7255 0.0000 0.0000 0.0000
# 4 0.0000 0.0000 0.0000 8.6353 0.0000 0.0000
# 5 0.0000 0.0000 0.0000 0.0000 0.9089 0.0000
# 6 0.0000 0.0000 0.0000 0.0000 0.0000 67.7016
#
#
#
# Elastic Compliance Matrix: (Units=1/GPa)
#
#
# Indices 1 2 3 4 5 6 
#
# 1 0.010663 -0.007181 -0.003536 0.000000 0.000000 0.000000
# 2 -0.007181 0.017817 -0.004851 0.000000 0.000000 0.000000
# 3 -0.003536 -0.004851 0.022831 0.000000 0.000000 0.000000
# 4 0.000000 0.000000 0.000000 0.115804 0.000000 0.000000
# 5 0.000000 0.000000 0.000000 0.000000 1.100260 0.000000
# 6 0.000000 0.000000 0.000000 0.000000 0.000000 0.014771
#
#
# Mechanical properties :
#
#
# Convention : Reuss Voigt Hill
#
# Bulk Modulus (GPa) = 49.56752 66.70000 58.13376
# Shear Modulus (GPa) = 3.78786 26.28354 15.03570
#
# Velocity S-wave (km/s) = 1.43555 3.78149 2.86011
# Velocity P-wave (km/s) = 5.45116 7.44007 6.52188
#
# Compressibility (1/GPa) = 0.02017450
#
# Stress axis : x y z
#
# Youngs Moduli (GPa) = 93.78308 56.12574 43.80037
#
# Poissons Ratio (x) = 0.40306 0.15487
# Poissons Ratio (y) = 0.67350 0.21247
# Poissons Ratio (z) = 0.33160 0.27226
#
# Static dielectric constant tensor:
#      x y z
#    x 4.430110 0.000000 0.000000 
#    y 0.000000 3.363640 0.000000 
#    z 0.000000 0.000000 3.143040 
# 
# 
# High freq. dielectric constant tensor:
#      x y z
#    x 1.730390 0.000000 0.000000 
#    y 0.000000 1.694040 0.000000 
#    z 0.000000 0.000000 1.679810 
# 
# From -- ./inp_files/18324.got.cif
#   From: 2010.03.12/outbox.cif.g09.slc.cpg/sg65_10_cif.got.tgz:18324.got - 2010.04.10 20:52:16.
