data_PCOD8270623
_publ_section_title
;
Structure prediction by ZEFSAII (Michael W. Deem and Ramdas Pophale) SiO2 
 PCOD8270623
Probable space group: C M M M
;
_chemical_formula_sum "Si O2"
_cell_formula_units_Z 72
_cell_length_a 9.723438
_cell_length_b 14.166291
_cell_length_c 30.346181
_cell_angle_alpha 90.000000
_cell_angle_beta 90.000000
_cell_angle_gamma 90.000000
_cell_volume 4180.036287
_symmetry_space_group_name_H-M "C M M M"
_symmetry_group_IT_number 65
_symmetry_cell_setting 'orthorhombic'
loop_
_space_group_symop_operation_xyz
x,y,z
-x,-y,z
x,-y,-z
-x,y,-z
-x,-y,-z
x,y,-z
-x,y,z
x,-y,z
1/2+x,1/2+y,z
1/2-x,1/2-y,z
1/2+x,1/2-y,-z
1/2-x,1/2+y,-z
1/2-x,1/2-y,-z
1/2+x,1/2+y,-z
1/2-x,1/2+y,z
1/2+x,1/2-y,z
loop_
_atom_site_type_symbol
_atom_site_label
_atom_site_fract_x
_atom_site_fract_y
_atom_site_fract_z
Si Si1 0.158708 0.500000 0.797891
Si Si2 0.340698 0.656479 0.500000
Si Si3 0.659195 0.843473 0.272845
Si Si4 0.157155 0.161129 0.950830
Si Si5 0.659421 0.000000 0.343217
Si Si6 0.340865 0.500000 0.429463
Si Si7 0.839814 0.000000 0.884199
O O1 0.191820 0.593957 0.770091
O O2 0.253792 0.500000 0.840087
O O3 0.000000 0.500000 0.812348
O O4 0.500000 0.686479 0.500000
O O5 0.250000 0.750000 0.500000
O O6 0.306515 0.593948 0.457150
O O7 0.500000 0.813260 0.273355
O O8 0.750000 0.750000 0.272522
O O9 0.694521 0.906052 0.315601
O O10 0.250000 0.250000 0.942488
O O11 0.000000 0.192151 0.944949
O O12 0.201451 0.088480 0.913680
O O13 0.180072 0.118691 0.000000
O O14 0.500000 0.000000 0.356521
O O15 0.749487 0.000000 0.386481
O O16 0.500000 0.500000 0.415726
O O17 0.000000 0.000000 0.871803
#
# Coordination Sequence:
#
# PCOD8270623 Si02
#       7
#     8   8  16  16   8   8   8
#     4   9  20  37  52  70 100 132 161 198 244 293
#     4   9  19  35  52  72 102 139 175 209 248 294
#     4   9  19  36  55  74  99 131 164 201 247 296
#     4   9  18  33  51  71  97 128 161 198 240 286
#     4   9  19  35  53  76 104 131 164 206 251 298
#     4   9  19  35  52  73 104 137 169 209 251 292
#     4  10  20  33  51  74  98 127 163 200 240 288
#
# _framework density 17.224730000000001
#
# number of rings (size 3 to 8) (size 9 to 14) (size 15 to 20)
#    0.000    2.889    0.000    2.333    0.000    6.667 
#    0.000   12.222    0.000    3.333    0.000    0.000 
#    0.000    0.000    0.000    0.000    0.000    0.000 
#
# Total GULP energy -446318.282325 kJ/mol
# GULP energy per Si atom -12397.730065 kJ/mol
# Density = 1.718553 g / cm^3
# Si number density = 17.224730 Si / 1000 Ang^3
#
#
#
# Elastic Constant Matrix: (Units=GPa)
#
#
# Indices 1 2 3 4 5 6 
#
# 1 93.8792 84.9736 88.9011 0.0000 0.0000 0.0000
# 2 84.9736 142.8773 78.7543 0.0000 0.0000 0.0000
# 3 88.9011 78.7543 159.4256 0.0000 0.0000 0.0000
# 4 0.0000 0.0000 0.0000 27.4456 0.0000 0.0000
# 5 0.0000 0.0000 0.0000 0.0000 39.7681 0.0000
# 6 0.0000 0.0000 0.0000 0.0000 0.0000 27.0802
#
#
#
# Elastic Compliance Matrix: (Units=1/GPa)
#
#
# Indices 1 2 3 4 5 6 
#
# 1 0.035597 -0.014057 -0.012906 0.000000 0.000000 0.000000
# 2 -0.014057 0.015169 0.000345 0.000000 0.000000 0.000000
# 3 -0.012906 0.000345 0.013299 0.000000 0.000000 0.000000
# 4 0.000000 0.000000 0.000000 0.036436 0.000000 0.000000
# 5 0.000000 0.000000 0.000000 0.000000 0.025146 0.000000
# 6 0.000000 0.000000 0.000000 0.000000 0.000000 0.036927
#
#
# Mechanical properties :
#
#
# Convention : Reuss Voigt Hill
#
# Bulk Modulus (GPa) = 92.34161 100.16002 96.25081
# Shear Modulus (GPa) = 22.78744 28.42898 25.60821
#
# Velocity S-wave (km/s) = 3.64118 4.06701 3.85997
# Velocity P-wave (km/s) = 8.45008 8.96266 8.71014
#
# Compressibility (1/GPa) = 0.01082935
#
# Stress axis : x y z
#
# Youngs Moduli (GPa) = 28.09199 65.92552 75.19413
#
# Poissons Ratio (x) = 0.92670 0.97048
# Poissons Ratio (y) = 0.39488 -0.02598
# Poissons Ratio (z) = 0.36257 -0.02277
#
# Static dielectric constant tensor:
#      x y z
#    x 3.134960 0.000000 0.000000 
#    y 0.000000 3.154700 0.000000 
#    z 0.000000 0.000000 3.192830 
# 
# 
# High freq. dielectric constant tensor:
#      x y z
#    x 1.665270 0.000000 0.000000 
#    y 0.000000 1.667240 0.000000 
#    z 0.000000 0.000000 1.668890 
# 
# From -- ./inp_files/76393.got.cif
#   From: 2010.03.12/outbox.cif.g09.slc.cpg/sg65_39_cif.got.tgz:76393.got - 2010.04.10 20:52:16.
