data_PCOD8270697
_publ_section_title
;
Structure prediction by ZEFSAII (Michael W. Deem and Ramdas Pophale) SiO2 
 PCOD8270697
Probable space group: C M M M
;
_chemical_formula_sum "Si O2"
_cell_formula_units_Z 120
_cell_length_a 27.000687
_cell_length_b 27.121375
_cell_length_c 9.259941
_cell_angle_alpha 90.000000
_cell_angle_beta 90.000000
_cell_angle_gamma 90.000000
_cell_volume 6781.015508
_symmetry_space_group_name_H-M "C M M M"
_symmetry_group_IT_number 65
_symmetry_cell_setting 'orthorhombic'
loop_
_space_group_symop_operation_xyz
x,y,z
-x,-y,z
x,-y,-z
-x,y,-z
-x,-y,-z
x,y,-z
-x,y,z
x,-y,z
1/2+x,1/2+y,z
1/2-x,1/2-y,z
1/2+x,1/2-y,-z
1/2-x,1/2+y,-z
1/2-x,1/2-y,-z
1/2+x,1/2+y,-z
1/2-x,1/2+y,z
1/2+x,1/2-y,z
loop_
_atom_site_type_symbol
_atom_site_label
_atom_site_fract_x
_atom_site_fract_y
_atom_site_fract_z
Si Si1 0.304648 0.237787 0.669176
Si Si2 0.108060 0.780714 0.165839
Si Si3 0.794093 0.442095 0.166222
Si Si4 0.315808 0.554327 0.829151
Si Si5 0.943439 0.680688 0.832060
Si Si6 0.000000 0.942204 0.331810
Si Si7 0.087755 0.109823 0.831211
Si Si8 0.644843 0.863716 0.330064
O O1 0.308027 0.246997 0.500000
O O2 0.250000 0.250000 0.728171
O O3 0.342196 0.275804 0.742132
O O4 0.319098 0.181815 0.709871
O O5 0.069145 0.737689 0.202431
O O6 0.081709 0.832357 0.202129
O O7 0.124699 0.779263 0.000000
O O8 0.804283 0.500000 0.183704
O O9 0.738728 0.428947 0.223665
O O10 0.832972 0.413369 0.264572
O O11 0.800935 0.425853 0.000000
O O12 0.328777 0.500000 0.766338
O O13 0.357533 0.592904 0.779811
O O14 0.313150 0.550487 0.000000
O O15 0.909263 0.644830 0.737922
O O16 0.000000 0.671072 0.787386
O O17 0.934429 0.669091 0.000000
O O18 0.951545 0.919662 0.260791
O O19 0.000000 0.929378 0.500000
O O20 0.000000 0.000000 0.302383
O O21 0.079245 0.098099 0.000000
O O22 0.638507 0.870079 0.500000
#
# Coordination Sequence:
#
# PCOD8270697 Si02
#       8
#    16  16  16  16  16   8  16  16
#     4   9  19  34  49  69 105 148 179 206 248 306
#     4   9  19  32  50  80 106 129 168 218 263 304
#     4   9  18  33  54  79 108 140 172 209 254 307
#     4   8  15  29  49  74 101 130 168 212 257 306
#     4   9  18  34  55  75 102 137 170 211 260 312
#     4  11  25  41  53  71 101 137 179 225 274 327
#     4  10  20  34  56  80 101 130 172 223 274 319
#     4  10  20  33  51  77 106 138 176 215 255 304
#
# _framework density 17.696463999999999
#
# number of rings (size 3 to 8) (size 9 to 14) (size 15 to 20)
#    0.000    2.733    0.000    1.800    2.800    2.933 
#    0.000    0.667    0.000    1.200    0.000    2.800 
#    0.000    0.000    0.000    0.000    0.000    0.000 
#
# Total GULP energy -744004.021189 kJ/mol
# GULP energy per Si atom -12400.067020 kJ/mol
# Density = 1.765619 g / cm^3
# Si number density = 17.696464 Si / 1000 Ang^3
#
#
#
# Elastic Constant Matrix: (Units=GPa)
#
#
# Indices 1 2 3 4 5 6 
#
# 1 142.0377 61.8076 59.0209 0.0000 0.0000 0.0000
# 2 61.8076 84.5434 45.4757 0.0000 0.0000 0.0000
# 3 59.0209 45.4757 64.8042 0.0000 0.0000 0.0000
# 4 0.0000 0.0000 0.0000 23.4512 0.0000 0.0000
# 5 0.0000 0.0000 0.0000 0.0000 12.8656 0.0000
# 6 0.0000 0.0000 0.0000 0.0000 0.0000 26.3724
#
#
#
# Elastic Compliance Matrix: (Units=1/GPa)
#
#
# Indices 1 2 3 4 5 6 
#
# 1 0.012440 -0.004820 -0.007948 0.000000 0.000000 0.000000
# 2 -0.004820 0.020867 -0.010254 0.000000 0.000000 0.000000
# 3 -0.007948 -0.010254 0.029865 0.000000 0.000000 0.000000
# 4 0.000000 0.000000 0.000000 0.042642 0.000000 0.000000
# 5 0.000000 0.000000 0.000000 0.000000 0.077727 0.000000
# 6 0.000000 0.000000 0.000000 0.000000 0.000000 0.037918
#
#
# Mechanical properties :
#
#
# Convention : Reuss Voigt Hill
#
# Bulk Modulus (GPa) = 58.37731 69.33264 63.85498
# Shear Modulus (GPa) = 18.30077 20.87658 19.58868
#
# Velocity S-wave (km/s) = 3.21931 3.43841 3.33066
# Velocity P-wave (km/s) = 6.84677 7.41805 7.13813
#
# Compressibility (1/GPa) = 0.01712994
#
# Stress axis : x y z
#
# Youngs Moduli (GPa) = 80.38436 47.92187 33.48361
#
# Poissons Ratio (x) = 0.23096 0.26613
# Poissons Ratio (y) = 0.38742 0.34334
# Poissons Ratio (z) = 0.63889 0.49139
#
# Static dielectric constant tensor:
#      x y z
#    x 3.366370 0.000000 0.000000 
#    y 0.000000 3.231750 0.000000 
#    z 0.000000 0.000000 3.106820 
# 
# 
# High freq. dielectric constant tensor:
#      x y z
#    x 1.684960 0.000000 0.000000 
#    y 0.000000 1.678540 0.000000 
#    z 0.000000 0.000000 1.667600 
# 
# From -- ./inp_files/17067.got.cif
#   From: 2010.03.12/outbox.cif.g09.slc.cpg/sg65_9_cif.got.tgz:17067.got - 2010.04.10 20:52:16.
