data_PCOD8270052
_publ_section_title
;
Structure prediction by ZEFSAII (Michael W. Deem and Ramdas Pophale) SiO2 
 PCOD8270052
Probable space group: C M M M
;
_chemical_formula_sum "Si O2"
_cell_formula_units_Z 96
_cell_length_a 30.651465
_cell_length_b 19.541173
_cell_length_c 9.117039
_cell_angle_alpha 90.000000
_cell_angle_beta 90.000000
_cell_angle_gamma 90.000000
_cell_volume 5460.792555
_symmetry_space_group_name_H-M "C M M M"
_symmetry_group_IT_number 65
_symmetry_cell_setting 'orthorhombic'
loop_
_space_group_symop_operation_xyz
x,y,z
-x,-y,z
x,-y,-z
-x,y,-z
-x,-y,-z
x,y,-z
-x,y,z
x,-y,z
1/2+x,1/2+y,z
1/2-x,1/2-y,z
1/2+x,1/2-y,-z
1/2-x,1/2+y,-z
1/2-x,1/2-y,-z
1/2+x,1/2+y,-z
1/2-x,1/2+y,z
1/2+x,1/2-y,z
loop_
_atom_site_type_symbol
_atom_site_label
_atom_site_fract_x
_atom_site_fract_y
_atom_site_fract_z
Si Si1 0.711024 0.081444 0.165398
Si Si2 0.949071 0.829888 0.667880
Si Si3 0.375560 0.078996 0.672353
Si Si4 0.951940 0.324561 0.673911
Si Si5 0.795250 0.918490 0.665615
Si Si6 0.381415 0.579501 0.170981
O O1 0.667496 0.106572 0.247016
O O2 0.753050 0.111173 0.250215
O O3 0.712799 0.000000 0.165895
O O4 0.711137 0.110036 0.000000
O O5 0.934212 0.841391 0.500000
O O6 0.938881 0.752416 0.718950
O O7 0.923642 0.880808 0.773492
O O8 0.000000 0.845879 0.684735
O O9 0.368506 0.090153 0.500000
O O10 0.416371 0.122165 0.734805
O O11 0.384874 0.000000 0.709317
O O12 0.954247 0.329356 0.500000
O O13 0.000000 0.343041 0.737827
O O14 0.795050 0.890196 0.500000
O O15 0.838653 0.892208 0.746409
O O16 0.793781 0.000000 0.667199
O O17 0.388926 0.500000 0.205765
O O18 0.374486 0.592661 0.000000
#
# Coordination Sequence:
#
# PCOD8270052 Si02
#       6
#    16  16  16  16  16  16
#     4   9  16  26  41  63  94 128 157 187 227 273
#     4   9  18  33  51  68  89 122 161 195 229 274
#     4   9  16  26  44  71  98 123 155 194 233 273
#     4   8  15  29  48  69  93 122 157 196 235 274
#     4   9  16  27  45  68  93 121 154 189 225 271
#     4  10  20  32  47  70  98 123 149 187 235 280
#
# _framework density 17.579865999999999
#
# number of rings (size 3 to 8) (size 9 to 14) (size 15 to 20)
#    0.000    3.000    0.000    2.500    0.000    6.000 
#    0.000    4.167    0.000    2.500    0.000    9.333 
#    0.000    0.000    0.000    0.000    0.000    0.000 
#
# Total GULP energy -595126.384428 kJ/mol
# GULP energy per Si atom -12398.466342 kJ/mol
# Density = 1.753985 g / cm^3
# Si number density = 17.579866 Si / 1000 Ang^3
#
#
#
# Elastic Constant Matrix: (Units=GPa)
#
#
# Indices 1 2 3 4 5 6 
#
# 1 138.6191 57.1110 63.3136 0.0000 0.0000 0.0000
# 2 57.1110 51.0625 35.5287 0.0000 0.0000 0.0000
# 3 63.3136 35.5287 91.8718 0.0000 0.0000 0.0000
# 4 0.0000 0.0000 0.0000 12.1808 0.0000 0.0000
# 5 0.0000 0.0000 0.0000 0.0000 14.0898 0.0000
# 6 0.0000 0.0000 0.0000 0.0000 0.0000 5.0422
#
#
#
# Elastic Compliance Matrix: (Units=1/GPa)
#
#
# Indices 1 2 3 4 5 6 
#
# 1 0.015045 -0.013152 -0.005282 0.000000 0.000000 0.000000
# 2 -0.013152 0.038290 -0.005744 0.000000 0.000000 0.000000
# 3 -0.005282 -0.005744 0.016746 0.000000 0.000000 0.000000
# 4 0.000000 0.000000 0.000000 0.082096 0.000000 0.000000
# 5 0.000000 0.000000 0.000000 0.000000 0.070973 0.000000
# 6 0.000000 0.000000 0.000000 0.000000 0.000000 0.198326
#
#
# Mechanical properties :
#
#
# Convention : Reuss Voigt Hill
#
# Bulk Modulus (GPa) = 46.02907 65.94002 55.98454
# Shear Modulus (GPa) = 10.48050 14.63591 12.55821
#
# Velocity S-wave (km/s) = 2.44430 2.88850 2.67564
# Velocity P-wave (km/s) = 5.84857 6.97960 6.43897
#
# Compressibility (1/GPa) = 0.02172540
#
# Stress axis : x y z
#
# Youngs Moduli (GPa) = 66.46568 26.11624 59.71457
#
# Poissons Ratio (x) = 0.34348 0.31543
# Poissons Ratio (y) = 0.87416 0.34299
# Poissons Ratio (z) = 0.35109 0.15001
#
# Static dielectric constant tensor:
#      x y z
#    x 3.544420 0.000000 0.000000 
#    y 0.000000 2.941860 0.000000 
#    z 0.000000 0.000000 3.186400 
# 
# 
# High freq. dielectric constant tensor:
#      x y z
#    x 1.693210 0.000000 0.000000 
#    y 0.000000 1.635650 0.000000 
#    z 0.000000 0.000000 1.668730 
# 
# From -- ./inp_files/16359.got.cif
#   From: 2010.03.12/outbox.cif.g09.slc.cpg/sg65_9_cif.got.tgz:16359.got - 2010.04.10 20:52:16.
