data_PCOD8270212
_publ_section_title
;
Structure prediction by ZEFSAII (Michael W. Deem and Ramdas Pophale) SiO2 
 PCOD8270212
Probable space group: C M M M
;
_chemical_formula_sum "Si O2"
_cell_formula_units_Z 88
_cell_length_a 28.273036
_cell_length_b 16.914643
_cell_length_c 9.308438
_cell_angle_alpha 90.000000
_cell_angle_beta 90.000000
_cell_angle_gamma 90.000000
_cell_volume 4451.558578
_symmetry_space_group_name_H-M "C M M M"
_symmetry_group_IT_number 65
_symmetry_cell_setting 'orthorhombic'
loop_
_space_group_symop_operation_xyz
x,y,z
-x,-y,z
x,-y,-z
-x,y,-z
-x,-y,-z
x,y,-z
-x,y,z
x,-y,z
1/2+x,1/2+y,z
1/2-x,1/2-y,z
1/2+x,1/2-y,-z
1/2-x,1/2+y,-z
1/2-x,1/2-y,-z
1/2+x,1/2+y,-z
1/2-x,1/2+y,z
1/2+x,1/2-y,z
loop_
_atom_site_type_symbol
_atom_site_label
_atom_site_fract_x
_atom_site_fract_y
_atom_site_fract_z
Si Si1 0.770455 0.336144 0.666366
Si Si2 0.410786 0.594442 0.839344
Si Si3 0.143133 0.592275 0.168927
Si Si4 0.500000 0.594204 0.338253
Si Si5 0.552204 0.093801 0.338361
Si Si6 0.324928 0.408370 0.658248
O O1 0.784930 0.346274 0.500000
O O2 0.750000 0.250000 0.699623
O O3 0.815468 0.355223 0.763071
O O4 0.728538 0.396017 0.711512
O O5 0.410973 0.500000 0.844328
O O6 0.454145 0.626403 0.744594
O O7 0.362619 0.628530 0.769029
O O8 0.414967 0.628763 0.000000
O O9 0.151241 0.500000 0.207298
O O10 0.093224 0.624029 0.231718
O O11 0.142574 0.606398 0.000000
O O12 0.500000 0.500000 0.341401
O O13 0.500000 0.628061 0.500000
O O14 0.563347 0.123325 0.500000
O O15 0.500000 0.125215 0.290031
O O16 0.551260 0.000000 0.335144
O O17 0.331143 0.368581 0.500000
O O18 0.336049 0.500000 0.645379
#
# Coordination Sequence:
#
# PCOD8270212 Si02
#       6
#    16  16  16   8  16  16
#     4  10  21  36  53  73  97 131 174 216 256 301
#     4   9  16  25  39  62  91 120 150 187 232 281
#     4  10  20  32  49  76 108 140 173 211 258 311
#     4   9  15  23  37  59  89 121 151 185 228 279
#     4   8  14  26  46  73 104 136 169 206 250 301
#     4   9  17  30  48  69  93 122 157 198 245 294
#
# _framework density 19.768357999999999
#
# number of rings (size 3 to 8) (size 9 to 14) (size 15 to 20)
#    0.000    2.818    0.000    2.455    0.000    6.545 
#    0.000    3.636    0.000    0.000    2.364    0.000 
#    0.000    0.000    0.000    0.000    0.000    0.000 
#
# Total GULP energy -545407.337836 kJ/mol
# GULP energy per Si atom -12395.621314 kJ/mol
# Density = 1.972336 g / cm^3
# Si number density = 19.768358 Si / 1000 Ang^3
#
#
#
# Elastic Constant Matrix: (Units=GPa)
#
#
# Indices 1 2 3 4 5 6 
#
# 1 189.3619 23.5239 108.0545 0.0000 0.0000 0.0000
# 2 23.5239 20.1628 22.4895 0.0000 0.0000 0.0000
# 3 108.0545 22.4895 150.3588 0.0000 0.0000 0.0000
# 4 0.0000 0.0000 0.0000 12.9332 0.0000 0.0000
# 5 0.0000 0.0000 0.0000 0.0000 24.6834 0.0000
# 6 0.0000 0.0000 0.0000 0.0000 0.0000 8.9644
#
#
#
# Elastic Compliance Matrix: (Units=1/GPa)
#
#
# Indices 1 2 3 4 5 6 
#
# 1 0.009218 -0.004040 -0.006020 0.000000 0.000000 0.000000
# 2 -0.004040 0.061298 -0.006265 0.000000 0.000000 0.000000
# 3 -0.006020 -0.006265 0.011914 0.000000 0.000000 0.000000
# 4 0.000000 0.000000 0.000000 0.077320 0.000000 0.000000
# 5 0.000000 0.000000 0.000000 0.000000 0.040513 0.000000
# 6 0.000000 0.000000 0.000000 0.000000 0.000000 0.111553
#
#
# Mechanical properties :
#
#
# Convention : Reuss Voigt Hill
#
# Bulk Modulus (GPa) = 20.08865 74.22436 47.15651
# Shear Modulus (GPa) = 13.84813 23.03724 18.44269
#
# Velocity S-wave (km/s) = 2.64961 3.41744 3.05772
# Velocity P-wave (km/s) = 4.42093 7.29386 6.03096
#
# Compressibility (1/GPa) = 0.04977935
#
# Stress axis : x y z
#
# Youngs Moduli (GPa) = 108.48285 16.31387 83.93280
#
# Poissons Ratio (x) = 0.06590 0.50530
# Poissons Ratio (y) = 0.43824 0.52586
# Poissons Ratio (z) = 0.65310 0.10221
#
# Static dielectric constant tensor:
#      x y z
#    x 3.935240 0.000000 0.000000 
#    y 0.000000 3.017850 0.000000 
#    z 0.000000 0.000000 3.728790 
# 
# 
# High freq. dielectric constant tensor:
#      x y z
#    x 1.787040 0.000000 0.000000 
#    y 0.000000 1.709760 0.000000 
#    z 0.000000 0.000000 1.769850 
# 
# From -- ./inp_files/18287.got.cif
#   From: 2010.03.12/outbox.cif.g09.slc.cpg/sg65_10_cif.got.tgz:18287.got - 2010.04.10 20:52:16.
