data_PCOD8270551
_publ_section_title
;
Structure prediction by ZEFSAII (Michael W. Deem and Ramdas Pophale) SiO2 
 PCOD8270551
Probable space group: C M M M
;
_chemical_formula_sum "Si O2"
_cell_formula_units_Z 104
_cell_length_a 7.933602
_cell_length_b 28.707772
_cell_length_c 24.922691
_cell_angle_alpha 90.000000
_cell_angle_beta 90.000000
_cell_angle_gamma 90.000000
_cell_volume 5676.293342
_symmetry_space_group_name_H-M "C M M M"
_symmetry_group_IT_number 65
_symmetry_cell_setting 'orthorhombic'
loop_
_space_group_symop_operation_xyz
x,y,z
-x,-y,z
x,-y,-z
-x,y,-z
-x,-y,-z
x,y,-z
-x,y,z
x,-y,z
1/2+x,1/2+y,z
1/2-x,1/2-y,z
1/2+x,1/2-y,-z
1/2-x,1/2+y,-z
1/2-x,1/2-y,-z
1/2+x,1/2+y,-z
1/2-x,1/2+y,z
1/2+x,1/2-y,z
loop_
_atom_site_type_symbol
_atom_site_label
_atom_site_fract_x
_atom_site_fract_y
_atom_site_fract_z
Si Si1 0.799059 0.947401 0.159672
Si Si2 0.697672 0.199889 0.106985
Si Si3 0.306251 0.603835 0.265906
Si Si4 0.000000 0.055220 0.559841
Si Si5 0.689247 0.946138 0.631461
Si Si6 0.302119 0.800320 0.770639
Si Si7 0.194585 0.106929 0.941461
O O1 0.734193 0.918404 0.210896
O O2 0.721319 0.924119 0.105691
O O3 0.000000 0.945729 0.157837
O O4 0.731631 0.000000 0.163832
O O5 0.500000 0.192350 0.103329
O O6 0.750000 0.250000 0.083528
O O7 0.762970 0.195754 0.168185
O O8 0.788420 0.161379 0.071328
O O9 0.500000 0.589775 0.274965
O O10 0.198279 0.583516 0.314406
O O11 0.287796 0.659643 0.264004
O O12 0.170220 0.072427 0.589664
O O13 0.000000 0.076758 0.500000
O O14 0.000000 0.000000 0.556333
O O15 0.500000 0.940109 0.607304
O O16 0.725223 0.000000 0.645556
O O17 0.500000 0.807319 0.766676
O O18 0.250000 0.750000 0.746912
O O19 0.000000 0.093851 0.944700
O O20 0.277537 0.096372 0.000000
#
# Coordination Sequence:
#
# PCOD8270551 Si02
#       7
#    16  16  16   8  16  16  16
#     4   9  18  31  49  73  97 127 168 209 258 316
#     4  10  20  34  53  72  95 122 157 201 253 317
#     4  11  19  31  53  76 107 143 173 218 269 319
#     4   9  18  34  54  78 114 156 195 233 273 317
#     4  10  20  33  51  79 114 152 193 234 273 316
#     4  10  20  33  50  74 101 132 168 207 263 326
#     4  10  20  34  51  70  93 121 160 209 260 315
#
# _framework density 18.321815999999998
#
# number of rings (size 3 to 8) (size 9 to 14) (size 15 to 20)
#    0.000    2.077    2.308    1.846    0.000    3.077 
#    0.000    3.077    0.000    1.385    0.000    1.077 
#    0.000    0.615    0.308    0.000    0.000    0.000 
#
# Total GULP energy -644806.884019 kJ/mol
# GULP energy per Si atom -12400.132385 kJ/mol
# Density = 1.828011 g / cm^3
# Si number density = 18.321816 Si / 1000 Ang^3
#
#
#
# Elastic Constant Matrix: (Units=GPa)
#
#
# Indices 1 2 3 4 5 6 
#
# 1 65.0120 12.2659 33.7901 0.0000 0.0000 0.0000
# 2 12.2659 105.1229 46.5117 0.0000 0.0000 0.0000
# 3 33.7901 46.5117 116.8955 0.0000 0.0000 0.0000
# 4 0.0000 0.0000 0.0000 15.2205 0.0000 0.0000
# 5 0.0000 0.0000 0.0000 0.0000 13.8003 0.0000
# 6 0.0000 0.0000 0.0000 0.0000 0.0000 20.1415
#
#
#
# Elastic Compliance Matrix: (Units=1/GPa)
#
#
# Indices 1 2 3 4 5 6 
#
# 1 0.018107 0.000246 -0.005332 0.000000 0.000000 0.000000
# 2 0.000246 0.011549 -0.004666 0.000000 0.000000 0.000000
# 3 -0.005332 -0.004666 0.011953 0.000000 0.000000 0.000000
# 4 0.000000 0.000000 0.000000 0.065701 0.000000 0.000000
# 5 0.000000 0.000000 0.000000 0.000000 0.072462 0.000000
# 6 0.000000 0.000000 0.000000 0.000000 0.000000 0.049649
#
#
# Mechanical properties :
#
#
# Convention : Reuss Voigt Hill
#
# Bulk Modulus (GPa) = 45.24062 52.46288 48.85175
# Shear Modulus (GPa) = 19.50905 22.79664 21.15285
#
# Velocity S-wave (km/s) = 3.26667 3.53120 3.40150
# Velocity P-wave (km/s) = 6.24291 6.73217 6.49215
#
# Compressibility (1/GPa) = 0.02210403
#
# Stress axis : x y z
#
# Youngs Moduli (GPa) = 55.22847 86.59115 83.66366
#
# Poissons Ratio (x) = -0.02134 0.44610
# Poissons Ratio (y) = -0.01361 0.39040
# Poissons Ratio (z) = 0.29448 0.40406
#
# Static dielectric constant tensor:
#      x y z
#    x 3.235080 0.000000 0.000000 
#    y 0.000000 3.321430 0.000000 
#    z 0.000000 0.000000 3.316420 
# 
# 
# High freq. dielectric constant tensor:
#      x y z
#    x 1.705810 0.000000 0.000000 
#    y 0.000000 1.698770 0.000000 
#    z 0.000000 0.000000 1.679080 
# 
# From -- ./inp_files/68490.got.cif
#   From: 2010.03.12/outbox.cif.g09.slc.cpg/sg65_35_cif.got.tgz:68490.got - 2010.04.10 20:52:16.
