data_PCOD8270213
_publ_section_title
;
Structure prediction by ZEFSAII (Michael W. Deem and Ramdas Pophale) SiO2 
 PCOD8270213
Probable space group: C M M M
;
_chemical_formula_sum "Si O2"
_cell_formula_units_Z 72
_cell_length_a 9.022093
_cell_length_b 18.914929
_cell_length_c 22.654533
_cell_angle_alpha 90.000000
_cell_angle_beta 90.000000
_cell_angle_gamma 90.000000
_cell_volume 3866.046996
_symmetry_space_group_name_H-M "C M M M"
_symmetry_group_IT_number 65
_symmetry_cell_setting 'orthorhombic'
loop_
_space_group_symop_operation_xyz
x,y,z
-x,-y,z
x,-y,-z
-x,y,-z
-x,-y,-z
x,y,-z
-x,y,z
x,-y,z
1/2+x,1/2+y,z
1/2-x,1/2-y,z
1/2+x,1/2-y,-z
1/2-x,1/2+y,-z
1/2-x,1/2-y,-z
1/2+x,1/2+y,-z
1/2-x,1/2+y,z
1/2+x,1/2-y,z
loop_
_atom_site_type_symbol
_atom_site_label
_atom_site_fract_x
_atom_site_fract_y
_atom_site_fract_z
Si Si1 0.333271 0.084032 0.435176
Si Si2 0.831910 0.083811 0.678928
Si Si3 0.672310 0.821952 0.769551
Si Si4 0.327202 0.583316 0.000000
Si Si5 0.673971 0.177067 0.906255
O O1 0.278451 0.110324 0.500000
O O2 0.500000 0.111264 0.423473
O O3 0.227539 0.113823 0.383749
O O4 0.331026 0.000000 0.434131
O O5 0.735743 0.113167 0.732556
O O6 0.000000 0.109346 0.686029
O O7 0.817825 0.000000 0.681275
O O8 0.500000 0.813808 0.756763
O O9 0.750000 0.750000 0.749058
O O10 0.704896 0.838236 0.837792
O O11 0.248765 0.613608 0.058198
O O12 0.303286 0.500000 0.000000
O O13 0.500000 0.603686 0.000000
O O14 0.500000 0.181487 0.920574
O O15 0.750000 0.250000 0.926265
#
# Coordination Sequence:
#
# PCOD8270213 Si02
#       5
#    16  16  16   8  16
#     4   8  14  26  45  69  98 133 173 216 260 307
#     4  10  20  32  49  76 108 140 174 215 262 311
#     4  10  21  37  57  79 104 137 176 217 261 310
#     4  11  24  39  56  81 113 145 174 211 260 307
#     4  10  21  38  60  82 105 137 177 218 258 307
#
# _framework density 18.623674999999999
#
# number of rings (size 3 to 8) (size 9 to 14) (size 15 to 20)
#    0.000    2.333    0.000    3.333    0.000    6.222 
#    0.000    6.667    0.000    0.667    0.000    0.000 
#    0.000    0.000    0.000    0.000    0.000    0.000 
#
# Total GULP energy -446426.132319 kJ/mol
# GULP energy per Si atom -12400.725898 kJ/mol
# Density = 1.858129 g / cm^3
# Si number density = 18.623675 Si / 1000 Ang^3
#
#
#
# Elastic Constant Matrix: (Units=GPa)
#
#
# Indices 1 2 3 4 5 6 
#
# 1 132.1482 48.0570 69.4413 0.0000 0.0000 0.0000
# 2 48.0570 56.8270 45.8062 0.0000 0.0000 0.0000
# 3 69.4413 45.8062 115.8314 0.0000 0.0000 0.0000
# 4 0.0000 0.0000 0.0000 12.3768 0.0000 0.0000
# 5 0.0000 0.0000 0.0000 0.0000 34.6453 0.0000
# 6 0.0000 0.0000 0.0000 0.0000 0.0000 30.4324
#
#
#
# Elastic Compliance Matrix: (Units=1/GPa)
#
#
# Indices 1 2 3 4 5 6 
#
# 1 0.012569 -0.006687 -0.004891 0.000000 0.000000 0.000000
# 2 -0.006687 0.029389 -0.007613 0.000000 0.000000 0.000000
# 3 -0.004891 -0.007613 0.014576 0.000000 0.000000 0.000000
# 4 0.000000 0.000000 0.000000 0.080796 0.000000 0.000000
# 5 0.000000 0.000000 0.000000 0.000000 0.028864 0.000000
# 6 0.000000 0.000000 0.000000 0.000000 0.000000 0.032860
#
#
# Mechanical properties :
#
#
# Convention : Reuss Voigt Hill
#
# Bulk Modulus (GPa) = 55.09006 70.15728 62.62367
# Shear Modulus (GPa) = 20.53499 24.92436 22.72967
#
# Velocity S-wave (km/s) = 3.32419 3.66227 3.49732
# Velocity P-wave (km/s) = 6.66172 7.45894 7.07157
#
# Compressibility (1/GPa) = 0.01815210
#
# Stress axis : x y z
#
# Youngs Moduli (GPa) = 79.56032 34.02628 68.60626
#
# Poissons Ratio (x) = 0.22754 0.33554
# Poissons Ratio (y) = 0.53202 0.52231
# Poissons Ratio (z) = 0.38911 0.25905
#
# Static dielectric constant tensor:
#      x y z
#    x 3.621010 0.000000 0.000000 
#    y 0.000000 3.072460 0.000000 
#    z 0.000000 0.000000 3.651790 
# 
# 
# High freq. dielectric constant tensor:
#      x y z
#    x 1.736090 0.000000 0.000000 
#    y 0.000000 1.689210 0.000000 
#    z 0.000000 0.000000 1.736870 
# 
# From -- ./inp_files/66985.got.cif
#   From: 2010.03.12/outbox.cif.g09.slc.cpg/sg65_34_cif.got.tgz:66985.got - 2010.04.10 20:52:16.
