data_PCOD8270127
_publ_section_title
;
Structure prediction by ZEFSAII (Michael W. Deem and Ramdas Pophale) SiO2 
 PCOD8270127
Probable space group: C M M M
;
_chemical_formula_sum "Si O2"
_cell_formula_units_Z 80
_cell_length_a 19.976303
_cell_length_b 9.046729
_cell_length_c 25.199728
_cell_angle_alpha 90.000000
_cell_angle_beta 90.000000
_cell_angle_gamma 90.000000
_cell_volume 4554.099876
_symmetry_space_group_name_H-M "C M M M"
_symmetry_group_IT_number 65
_symmetry_cell_setting 'orthorhombic'
loop_
_space_group_symop_operation_xyz
x,y,z
-x,-y,z
x,-y,-z
-x,y,-z
-x,-y,-z
x,y,-z
-x,y,z
x,-y,z
1/2+x,1/2+y,z
1/2-x,1/2-y,z
1/2+x,1/2-y,-z
1/2-x,1/2+y,-z
1/2-x,1/2-y,-z
1/2+x,1/2+y,-z
1/2-x,1/2+y,z
1/2+x,1/2-y,z
loop_
_atom_site_type_symbol
_atom_site_label
_atom_site_fract_x
_atom_site_fract_y
_atom_site_fract_z
Si Si1 0.318948 0.826161 0.262625
Si Si2 0.421328 0.328325 0.338178
Si Si3 0.682467 0.826708 0.859385
Si Si4 0.925654 0.324401 0.941019
Si Si5 0.420612 0.165700 0.441743
O O1 0.250000 0.750000 0.281455
O O2 0.381863 0.763212 0.294270
O O3 0.333829 0.788124 0.201431
O O4 0.312400 0.000000 0.272685
O O5 0.500000 0.295098 0.330790
O O6 0.405019 0.500000 0.331773
O O7 0.395500 0.277195 0.396305
O O8 0.750000 0.750000 0.878404
O O9 0.623834 0.760494 0.896348
O O10 0.691304 0.000000 0.867720
O O11 0.927072 0.500000 0.937732
O O12 0.000000 0.262243 0.929495
O O13 0.902222 0.274861 0.000000
O O14 0.393822 0.216343 0.500000
O O15 0.500000 0.165676 0.443043
O O16 0.394695 0.000000 0.429007
#
# Coordination Sequence:
#
# PCOD8270127 Si02
#       5
#    16  16  16  16  16
#     4  10  20  34  51  69  94 128 164 203 246 293
#     4  10  20  32  48  73 102 129 161 201 242 287
#     4   9  18  31  48  70  93 120 156 196 237 282
#     4   8  14  26  45  69  96 124 155 192 232 275
#     4   8  14  26  45  69  97 128 161 197 237 281
#
# _framework density 17.566589
#
# number of rings (size 3 to 8) (size 9 to 14) (size 15 to 20)
#    0.000    3.000    0.000    2.400    0.000    3.600 
#    0.000    4.000    0.000    1.200    0.000    1.400 
#    0.000    0.000    0.000    0.000    0.000    0.000 
#
# Total GULP energy -495837.326257 kJ/mol
# GULP energy per Si atom -12395.933156 kJ/mol
# Density = 1.752661 g / cm^3
# Si number density = 17.566589 Si / 1000 Ang^3
#
#
#
# Elastic Constant Matrix: (Units=GPa)
#
#
# Indices 1 2 3 4 5 6 
#
# 1 89.4575 40.5026 73.0931 0.0000 0.0000 0.0000
# 2 40.5026 63.0220 44.2426 0.0000 0.0000 0.0000
# 3 73.0931 44.2426 117.3327 0.0000 0.0000 0.0000
# 4 0.0000 0.0000 0.0000 17.6716 0.0000 0.0000
# 5 0.0000 0.0000 0.0000 0.0000 11.6634 0.0000
# 6 0.0000 0.0000 0.0000 0.0000 0.0000 25.8553
#
#
#
# Elastic Compliance Matrix: (Units=1/GPa)
#
#
# Indices 1 2 3 4 5 6 
#
# 1 0.024808 -0.006928 -0.012842 0.000000 0.000000 0.000000
# 2 -0.006928 0.023515 -0.004551 0.000000 0.000000 0.000000
# 3 -0.012842 -0.004551 0.018239 0.000000 0.000000 0.000000
# 4 0.000000 0.000000 0.000000 0.056588 0.000000 0.000000
# 5 0.000000 0.000000 0.000000 0.000000 0.085738 0.000000
# 6 0.000000 0.000000 0.000000 0.000000 0.000000 0.038677
#
#
# Mechanical properties :
#
#
# Convention : Reuss Voigt Hill
#
# Bulk Modulus (GPa) = 55.80431 65.05430 60.42930
# Shear Modulus (GPa) = 16.54647 18.50300 17.52474
#
# Velocity S-wave (km/s) = 3.07242 3.24899 3.16194
# Velocity P-wave (km/s) = 6.66503 7.15458 6.91413
#
# Compressibility (1/GPa) = 0.01791976
#
# Stress axis : x y z
#
# Youngs Moduli (GPa) = 40.30950 42.52651 54.82861
#
# Poissons Ratio (x) = 0.29463 0.70410
# Poissons Ratio (y) = 0.27927 0.24951
# Poissons Ratio (z) = 0.51765 0.19353
#
# Static dielectric constant tensor:
#      x y z
#    x 3.196670 0.000000 0.000000 
#    y 0.000000 3.119440 0.000000 
#    z 0.000000 0.000000 3.583730 
# 
# 
# High freq. dielectric constant tensor:
#      x y z
#    x 1.656570 0.000000 0.000000 
#    y 0.000000 1.661770 0.000000 
#    z 0.000000 0.000000 1.688370 
# 
# From -- ./inp_files/72773.got.cif
#   From: 2010.03.12/outbox.cif.g09.slc.cpg/sg65_37_cif.got.tgz:72773.got - 2010.04.10 20:52:16.
