data_PCOD8270511
_publ_section_title
;
Structure prediction by ZEFSAII (Michael W. Deem and Ramdas Pophale) SiO2 
 PCOD8270511
Probable space group: C M M M
;
_chemical_formula_sum "Si O2"
_cell_formula_units_Z 88
_cell_length_a 9.008063
_cell_length_b 27.000821
_cell_length_c 21.102411
_cell_angle_alpha 90.000000
_cell_angle_beta 90.000000
_cell_angle_gamma 90.000000
_cell_volume 5132.635954
_symmetry_space_group_name_H-M "C M M M"
_symmetry_group_IT_number 65
_symmetry_cell_setting 'orthorhombic'
loop_
_space_group_symop_operation_xyz
x,y,z
-x,-y,z
x,-y,-z
-x,y,-z
-x,-y,-z
x,y,-z
-x,y,z
x,-y,z
1/2+x,1/2+y,z
1/2-x,1/2-y,z
1/2+x,1/2-y,-z
1/2-x,1/2+y,-z
1/2-x,1/2-y,-z
1/2+x,1/2+y,-z
1/2-x,1/2+y,z
1/2+x,1/2-y,z
loop_
_atom_site_type_symbol
_atom_site_label
_atom_site_fract_x
_atom_site_fract_y
_atom_site_fract_z
Si Si1 0.324996 0.099759 0.368252
Si Si2 0.828144 0.699239 0.302923
Si Si3 0.172215 0.198726 0.926758
Si Si4 0.824098 0.444203 0.500000
Si Si5 0.670290 0.443018 0.749447
Si Si6 0.175526 0.640664 0.179008
O O1 0.500000 0.090321 0.358803
O O2 0.286383 0.157223 0.354515
O O3 0.269294 0.085783 0.438409
O O4 0.239128 0.064365 0.319999
O O5 0.750000 0.750000 0.321481
O O6 0.780624 0.680302 0.233289
O O7 0.000000 0.710889 0.304176
O O8 0.250000 0.250000 0.909087
O O9 0.248107 0.155500 0.886639
O O10 0.000000 0.203468 0.909133
O O11 0.195789 0.185123 0.000000
O O12 0.758207 0.500000 0.500000
O O13 0.000000 0.447106 0.500000
O O14 0.500000 0.425016 0.748864
O O15 0.682685 0.500000 0.768830
O O16 0.762295 0.412774 0.801665
O O17 0.000000 0.636940 0.170030
#
# Coordination Sequence:
#
# PCOD8270511 Si02
#       6
#    16  16  16   8  16  16
#     4   9  18  32  49  71  96 123 161 203 242 289
#     4   9  18  30  45  67  94 124 157 195 237 281
#     4  10  20  33  50  74 105 138 169 202 242 289
#     4   9  16  28  50  73  91 119 159 203 248 291
#     4  10  20  33  50  73 100 128 158 197 248 300
#     4  10  20  33  51  74  98 128 166 206 247 289
#
# _framework density 17.145188000000001
#
# number of rings (size 3 to 8) (size 9 to 14) (size 15 to 20)
#    0.000    2.455    0.000    3.818    0.000    8.364 
#    0.000    0.909    0.000    2.182    0.000    3.818 
#    0.000    0.000    0.000    0.000    0.000    0.000 
#
# Total GULP energy -545662.731569 kJ/mol
# GULP energy per Si atom -12401.425717 kJ/mol
# Density = 1.710616 g / cm^3
# Si number density = 17.145188 Si / 1000 Ang^3
#
#
#
# Elastic Constant Matrix: (Units=GPa)
#
#
# Indices 1 2 3 4 5 6 
#
# 1 84.7580 49.5057 51.4451 0.0000 0.0000 0.0000
# 2 49.5057 109.7455 58.9484 0.0000 0.0000 0.0000
# 3 51.4451 58.9484 111.6742 0.0000 0.0000 0.0000
# 4 0.0000 0.0000 0.0000 23.5265 0.0000 0.0000
# 5 0.0000 0.0000 0.0000 0.0000 22.9016 0.0000
# 6 0.0000 0.0000 0.0000 0.0000 0.0000 31.0491
#
#
#
# Elastic Compliance Matrix: (Units=1/GPa)
#
#
# Indices 1 2 3 4 5 6 
#
# 1 0.018280 -0.005196 -0.005678 0.000000 0.000000 0.000000
# 2 -0.005196 0.014195 -0.005099 0.000000 0.000000 0.000000
# 3 -0.005678 -0.005099 0.014262 0.000000 0.000000 0.000000
# 4 0.000000 0.000000 0.000000 0.042505 0.000000 0.000000
# 5 0.000000 0.000000 0.000000 0.000000 0.043665 0.000000
# 6 0.000000 0.000000 0.000000 0.000000 0.000000 0.032207
#
#
# Mechanical properties :
#
#
# Convention : Reuss Voigt Hill
#
# Bulk Modulus (GPa) = 67.61409 69.55290 68.58350
# Shear Modulus (GPa) = 24.75363 25.24735 25.00049
#
# Velocity S-wave (km/s) = 3.80381 3.84156 3.82273
# Velocity P-wave (km/s) = 7.66902 7.76736 7.71834
#
# Compressibility (1/GPa) = 0.01478982
#
# Stress axis : x y z
#
# Youngs Moduli (GPa) = 54.70588 70.44807 70.11583
#
# Poissons Ratio (x) = 0.36604 0.39813
# Poissons Ratio (y) = 0.28424 0.35754
# Poissons Ratio (z) = 0.31063 0.35924
#
# Static dielectric constant tensor:
#      x y z
#    x 3.202000 0.000000 0.000000 
#    y 0.000000 3.141190 0.000000 
#    z 0.000000 0.000000 3.220240 
# 
# 
# High freq. dielectric constant tensor:
#      x y z
#    x 1.663140 0.000000 0.000000 
#    y 0.000000 1.657390 0.000000 
#    z 0.000000 0.000000 1.651600 
# 
# From -- ./inp_files/59849.got.cif
#   From: 2010.03.12/outbox.cif.g09.slc.cpg/sg65_30_cif.got.tgz:59849.got - 2010.04.10 20:52:16.
