data_PCOD8270674
_publ_section_title
;
Structure prediction by ZEFSAII (Michael W. Deem and Ramdas Pophale) SiO2 
 PCOD8270674
Probable space group: C M M M
;
_chemical_formula_sum "Si O2"
_cell_formula_units_Z 64
_cell_length_a 9.039026
_cell_length_b 16.162429
_cell_length_c 21.821988
_cell_angle_alpha 90.000000
_cell_angle_beta 90.000000
_cell_angle_gamma 90.000000
_cell_volume 3188.031312
_symmetry_space_group_name_H-M "C M M M"
_symmetry_group_IT_number 65
_symmetry_cell_setting 'orthorhombic'
loop_
_space_group_symop_operation_xyz
x,y,z
-x,-y,z
x,-y,-z
-x,y,-z
-x,-y,-z
x,y,-z
-x,y,z
x,-y,z
1/2+x,1/2+y,z
1/2-x,1/2-y,z
1/2+x,1/2-y,-z
1/2-x,1/2+y,-z
1/2-x,1/2-y,-z
1/2+x,1/2+y,-z
1/2-x,1/2+y,z
1/2+x,1/2-y,z
loop_
_atom_site_type_symbol
_atom_site_label
_atom_site_fract_x
_atom_site_fract_y
_atom_site_fract_z
Si Si1 0.176672 0.907896 0.500000
Si Si2 0.675272 0.165727 0.138276
Si Si3 0.171523 0.167317 0.625371
Si Si4 0.324404 0.000000 0.069363
Si Si5 0.669656 0.406235 0.247913
O O1 0.239126 0.864045 0.438991
O O2 0.000000 0.909517 0.500000
O O3 0.240314 0.000000 0.500000
O O4 0.500000 0.175735 0.133803
O O5 0.750000 0.250000 0.112179
O O6 0.724345 0.153576 0.208866
O O7 0.733054 0.084786 0.101134
O O8 0.250000 0.250000 0.646443
O O9 0.200401 0.101885 0.679549
O O10 0.000000 0.185355 0.616259
O O11 0.500000 0.000000 0.071979
O O12 0.265094 0.000000 0.000000
O O13 0.500000 0.382560 0.233172
O O14 0.704625 0.500000 0.229168
#
# Coordination Sequence:
#
# PCOD8270674 Si02
#       5
#     8  16  16   8  16
#     4   9  17  32  53  73  96 131 180 228 274 331
#     4  11  22  38  61  89 119 155 195 236 286 340
#     4  10  20  33  51  76 104 139 179 226 279 334
#     4   9  20  40  63  87 119 156 193 234 282 339
#     4  10  20  35  56  82 113 147 188 237 286 336
#
# _framework density 20.075085000000001
#
# number of rings (size 3 to 8) (size 9 to 14) (size 15 to 20)
#    0.000    2.000    1.250    2.625    0.000    6.500 
#    0.000    0.000    0.000    8.250    0.000    0.000 
#    0.000    0.000    0.000    0.000    0.000    0.000 
#
# Total GULP energy -396778.897873 kJ/mol
# GULP energy per Si atom -12399.340559 kJ/mol
# Density = 2.002939 g / cm^3
# Si number density = 20.075085 Si / 1000 Ang^3
#
#
#
# Elastic Constant Matrix: (Units=GPa)
#
#
# Indices 1 2 3 4 5 6 
#
# 1 47.1370 41.0936 30.1310 0.0000 0.0000 0.0000
# 2 41.0936 143.4996 50.0763 0.0000 0.0000 0.0000
# 3 30.1310 50.0763 115.7833 0.0000 0.0000 0.0000
# 4 0.0000 0.0000 0.0000 26.9975 0.0000 0.0000
# 5 0.0000 0.0000 0.0000 0.0000 21.1822 0.0000
# 6 0.0000 0.0000 0.0000 0.0000 0.0000 30.5682
#
#
#
# Elastic Compliance Matrix: (Units=1/GPa)
#
#
# Indices 1 2 3 4 5 6 
#
# 1 0.030457 -0.007015 -0.004892 0.000000 0.000000 0.000000
# 2 -0.007015 0.009823 -0.002423 0.000000 0.000000 0.000000
# 3 -0.004892 -0.002423 0.010958 0.000000 0.000000 0.000000
# 4 0.000000 0.000000 0.000000 0.037040 0.000000 0.000000
# 5 0.000000 0.000000 0.000000 0.000000 0.047209 0.000000
# 6 0.000000 0.000000 0.000000 0.000000 0.000000 0.032714
#
#
# Mechanical properties :
#
#
# Convention : Reuss Voigt Hill
#
# Bulk Modulus (GPa) = 44.29021 61.00242 52.64631
# Shear Modulus (GPa) = 24.46328 28.09084 26.27706
#
# Velocity S-wave (km/s) = 3.49462 3.74477 3.62185
# Velocity P-wave (km/s) = 6.19623 7.01076 6.61604
#
# Compressibility (1/GPa) = 0.02257835
#
# Stress axis : x y z
#
# Youngs Moduli (GPa) = 32.83276 101.80198 91.25855
#
# Poissons Ratio (x) = 0.71412 0.44646
# Poissons Ratio (y) = 0.23032 0.22111
# Poissons Ratio (z) = 0.16062 0.24666
#
# Static dielectric constant tensor:
#      x y z
#    x 3.263080 0.000000 0.000000 
#    y 0.000000 3.820330 0.000000 
#    z 0.000000 0.000000 3.702820 
# 
# 
# High freq. dielectric constant tensor:
#      x y z
#    x 1.747940 0.000000 0.000000 
#    y 0.000000 1.795510 0.000000 
#    z 0.000000 0.000000 1.786670 
# 
# From -- ./inp_files/66741.got.cif
#   From: 2010.03.12/outbox.cif.g09.slc.cpg/sg65_34_cif.got.tgz:66741.got - 2010.04.10 20:52:16.
