data_PCOD8270763
_publ_section_title
;
Structure prediction by ZEFSAII (Michael W. Deem and Ramdas Pophale) SiO2 
 PCOD8270763
Probable space group: C M M M
;
_chemical_formula_sum "Si O2"
_cell_formula_units_Z 80
_cell_length_a 16.493118
_cell_length_b 9.249087
_cell_length_c 26.984105
_cell_angle_alpha 90.000000
_cell_angle_beta 90.000000
_cell_angle_gamma 90.000000
_cell_volume 4116.324925
_symmetry_space_group_name_H-M "C M M M"
_symmetry_group_IT_number 65
_symmetry_cell_setting 'orthorhombic'
loop_
_space_group_symop_operation_xyz
x,y,z
-x,-y,z
x,-y,-z
-x,y,-z
-x,-y,-z
x,y,-z
-x,y,z
x,-y,z
1/2+x,1/2+y,z
1/2-x,1/2-y,z
1/2+x,1/2-y,-z
1/2-x,1/2+y,-z
1/2-x,1/2-y,-z
1/2+x,1/2+y,-z
1/2-x,1/2+y,z
1/2+x,1/2-y,z
loop_
_atom_site_type_symbol
_atom_site_label
_atom_site_fract_x
_atom_site_fract_y
_atom_site_fract_z
Si Si1 0.500000 0.671076 0.443333
Si Si2 0.166334 0.170508 0.000000
Si Si3 0.093633 0.342743 0.197144
Si Si4 0.670380 0.667682 0.277658
Si Si5 0.404465 0.161609 0.088529
Si Si6 0.166182 0.829947 0.391596
O O1 0.500000 0.500000 0.437347
O O2 0.500000 0.721945 0.500000
O O3 0.415230 0.728792 0.419328
O O4 0.250000 0.250000 0.000000
O O5 0.120984 0.217482 0.950297
O O6 0.176472 0.000000 0.000000
O O7 0.129960 0.500000 0.213326
O O8 0.102643 0.223841 0.240159
O O9 0.130202 0.296363 0.143474
O O10 0.000000 0.362812 0.188037
O O11 0.683620 0.500000 0.270280
O O12 0.750000 0.750000 0.260593
O O13 0.647987 0.703993 0.334277
O O14 0.500000 0.159639 0.088838
O O15 0.372668 0.000000 0.074141
O O16 0.250000 0.750000 0.408777
O O17 0.179423 0.000000 0.401716
#
# Coordination Sequence:
#
# PCOD8270763 Si02
#       6
#     8   8  16  16  16  16
#     4   9  18  34  57  83 111 149 193 234 283 342
#     4  12  25  38  55  79 105 135 175 220 265 314
#     4   9  19  35  55  80 108 138 174 215 262 319
#     4  10  20  33  52  76 107 143 180 222 270 324
#     4   9  19  38  60  79 104 138 172 211 264 322
#     4   9  19  35  55  80 112 148 190 235 284 340
#
# _framework density 19.434811
#
# number of rings (size 3 to 8) (size 9 to 14) (size 15 to 20)
#    0.000    2.500    0.000    3.000    1.400    4.800 
#    0.000    2.500    0.000    0.600    0.000    0.000 
#    0.000    0.000    0.000    0.000    0.000    0.000 
#
# Total GULP energy -495630.265567 kJ/mol
# GULP energy per Si atom -12390.756639 kJ/mol
# Density = 1.939058 g / cm^3
# Si number density = 19.434811 Si / 1000 Ang^3
#
#
#
# Elastic Constant Matrix: (Units=GPa)
#
#
# Indices 1 2 3 4 5 6 
#
# 1 99.0736 42.0087 56.8601 0.0000 0.0000 0.0000
# 2 42.0087 96.6936 58.8156 0.0000 0.0000 0.0000
# 3 56.8601 58.8156 123.2835 0.0000 0.0000 0.0000
# 4 0.0000 0.0000 0.0000 24.8529 0.0000 0.0000
# 5 0.0000 0.0000 0.0000 0.0000 -42.9863 0.0000
# 6 0.0000 0.0000 0.0000 0.0000 0.0000 29.9792
#
#
#
# Elastic Compliance Matrix: (Units=1/GPa)
#
#
# Indices 1 2 3 4 5 6 
#
# 1 0.014363 -0.003114 -0.005139 0.000000 0.000000 0.000000
# 2 -0.003114 0.015245 -0.005837 0.000000 0.000000 0.000000
# 3 -0.005139 -0.005837 0.013266 0.000000 0.000000 0.000000
# 4 0.000000 0.000000 0.000000 0.040237 0.000000 0.000000
# 5 0.000000 0.000000 0.000000 0.000000 -0.023263 0.000000
# 6 0.000000 0.000000 0.000000 0.000000 0.000000 0.033356
#
#
# Mechanical properties :
#
#
# Convention : Reuss Voigt Hill
#
# Bulk Modulus (GPa) = 68.05132 70.49105 69.27119
# Shear Modulus (GPa) = 39.59370 13.12692 26.36031
#
# Velocity S-wave (km/s) = 4.51849 2.60173 3.68685
# Velocity P-wave (km/s) = 7.89389 6.73607 7.33785
#
# Compressibility (1/GPa) = 0.01469479
#
# Stress axis : x y z
#
# Youngs Moduli (GPa) = 69.62196 65.59387 75.38049
#
# Poissons Ratio (x) = 0.20429 0.38736
# Poissons Ratio (y) = 0.21683 0.43998
# Poissons Ratio (z) = 0.35777 0.38286
#
# Static dielectric constant tensor:
#      x y z
#    x 3.557890 0.000000 0.000000 
#    y 0.000000 3.141170 0.000000 
#    z 0.000000 0.000000 3.520140 
# 
# 
# High freq. dielectric constant tensor:
#      x y z
#    x 1.749820 0.000000 0.000000 
#    y 0.000000 1.740770 0.000000 
#    z 0.000000 0.000000 1.763750 
# 
# From -- ./inp_files/75065.got.cif
#   From: 2010.03.12/outbox.cif.g09.slc.cpg/sg65_38_cif.got.tgz:75065.got - 2010.04.10 20:52:16.
