data_PCOD8270792
_publ_section_title
;
Structure prediction by ZEFSAII (Michael W. Deem and Ramdas Pophale) SiO2 
 PCOD8270792
Probable space group: C M M M
;
_chemical_formula_sum "Si O2"
_cell_formula_units_Z 80
_cell_length_a 25.743714
_cell_length_b 17.198758
_cell_length_c 9.215430
_cell_angle_alpha 90.000000
_cell_angle_beta 90.000000
_cell_angle_gamma 90.000000
_cell_volume 4080.222931
_symmetry_space_group_name_H-M "C M M M"
_symmetry_group_IT_number 65
_symmetry_cell_setting 'orthorhombic'
loop_
_space_group_symop_operation_xyz
x,y,z
-x,-y,z
x,-y,-z
-x,y,-z
-x,-y,-z
x,y,-z
-x,y,z
x,-y,z
1/2+x,1/2+y,z
1/2-x,1/2-y,z
1/2+x,1/2-y,-z
1/2-x,1/2+y,-z
1/2-x,1/2-y,-z
1/2+x,1/2+y,-z
1/2-x,1/2+y,z
1/2+x,1/2-y,z
loop_
_atom_site_type_symbol
_atom_site_label
_atom_site_fract_x
_atom_site_fract_y
_atom_site_fract_z
Si Si1 0.155848 0.862836 0.665875
Si Si2 0.244247 0.411243 0.833375
Si Si3 0.942742 0.137785 0.837301
Si Si4 0.557238 0.822519 0.837233
Si Si5 0.656106 0.178210 0.665810
O O1 0.160858 0.889749 0.500000
O O2 0.200117 0.903305 0.758973
O O3 0.100659 0.893648 0.726869
O O4 0.160263 0.770429 0.680044
O O5 0.225432 0.500000 0.821595
O O6 0.203481 0.356582 0.754197
O O7 0.248829 0.384526 0.000000
O O8 0.942458 0.230233 0.836278
O O9 0.000000 0.107938 0.788758
O O10 0.930340 0.107975 0.000000
O O11 0.500000 0.852217 0.786963
O O12 0.601633 0.854037 0.729573
O O13 0.569075 0.852781 0.000000
O O14 0.659984 0.150818 0.500000
#
# Coordination Sequence:
#
# PCOD8270792 Si02
#       5
#    16  16  16  16  16
#     4  10  20  33  52  79 107 134 166 205 251 302
#     4  11  24  39  54  72  96 131 174 215 256 302
#     4   8  14  26  46  73 104 136 168 202 242 289
#     4   8  14  26  46  73 104 136 168 202 242 289
#     4  10  20  33  52  79 107 134 166 205 251 302
#
# _framework density 19.606771999999999
#
# number of rings (size 3 to 8) (size 9 to 14) (size 15 to 20)
#    0.000    2.600    0.000    3.600    0.000    7.200 
#    0.000    4.000    0.000    1.200    0.000    8.400 
#    0.000    0.000    0.000    0.000    0.000    0.000 
#
# Total GULP energy -495903.126897 kJ/mol
# GULP energy per Si atom -12397.578172 kJ/mol
# Density = 1.956215 g / cm^3
# Si number density = 19.606772 Si / 1000 Ang^3
#
#
#
# Elastic Constant Matrix: (Units=GPa)
#
#
# Indices 1 2 3 4 5 6 
#
# 1 131.8663 11.7284 71.5232 0.0000 0.0000 0.0000
# 2 11.7284 19.1243 19.9232 0.0000 0.0000 0.0000
# 3 71.5232 19.9232 148.0141 0.0000 0.0000 0.0000
# 4 0.0000 0.0000 0.0000 15.4277 0.0000 0.0000
# 5 0.0000 0.0000 0.0000 0.0000 23.2953 0.0000
# 6 0.0000 0.0000 0.0000 0.0000 0.0000 -3.9940
#
#
#
# Elastic Compliance Matrix: (Units=1/GPa)
#
#
# Indices 1 2 3 4 5 6 
#
# 1 0.010305 -0.001317 -0.004803 0.000000 0.000000 0.000000
# 2 -0.001317 0.060986 -0.007573 0.000000 0.000000 0.000000
# 3 -0.004803 -0.007573 0.010096 0.000000 0.000000 0.000000
# 4 0.000000 0.000000 0.000000 0.064818 0.000000 0.000000
# 5 0.000000 0.000000 0.000000 0.000000 0.042927 0.000000
# 6 0.000000 0.000000 0.000000 0.000000 0.000000 -0.250375
#
#
# Mechanical properties :
#
#
# Convention : Reuss Voigt Hill
#
# Bulk Modulus (GPa) = 18.51733 56.15046 37.33390
# Shear Modulus (GPa) = -315.32185 20.00114 -147.66035
#
# Velocity S-wave (km/s) = -12.69536 3.19739 -8.68760
# Velocity P-wave (km/s) = 14.33287 6.50627 9.03050
#
# Compressibility (1/GPa) = 0.05400345
#
# Stress axis : x y z
#
# Youngs Moduli (GPa) = 97.03650 16.39724 99.04853
#
# Poissons Ratio (x) = 0.02159 0.47568
# Poissons Ratio (y) = 0.12779 0.75005
# Poissons Ratio (z) = 0.46602 0.12417
#
# Static dielectric constant tensor:
#      x y z
#    x 3.991930 0.000000 0.000000 
#    y 0.000000 3.060190 0.000000 
#    z 0.000000 0.000000 3.760280 
# 
# 
# High freq. dielectric constant tensor:
#      x y z
#    x 1.781150 0.000000 0.000000 
#    y 0.000000 1.714640 0.000000 
#    z 0.000000 0.000000 1.768680 
# 
# From -- ./inp_files/9616.got.cif
#   From: 2010.03.12/outbox.cif.g09.slc.cpg/sg65_5_cif.got.tgz:9616.got - 2010.04.10 20:52:16.
