data_PCOD8270901
_publ_section_title
;
Structure prediction by ZEFSAII (Michael W. Deem and Ramdas Pophale) SiO2 
 PCOD8270901
Probable space group: C M M M
;
_chemical_formula_sum "Si O2"
_cell_formula_units_Z 88
_cell_length_a 19.506260
_cell_length_b 30.317343
_cell_length_c 9.364226
_cell_angle_alpha 90.000000
_cell_angle_beta 90.000000
_cell_angle_gamma 90.000000
_cell_volume 5537.797010
_symmetry_space_group_name_H-M "C M M M"
_symmetry_group_IT_number 65
_symmetry_cell_setting 'orthorhombic'
loop_
_space_group_symop_operation_xyz
x,y,z
-x,-y,z
x,-y,-z
-x,y,-z
-x,-y,-z
x,y,-z
-x,y,z
x,-y,z
1/2+x,1/2+y,z
1/2-x,1/2-y,z
1/2+x,1/2-y,-z
1/2-x,1/2+y,-z
1/2-x,1/2-y,-z
1/2+x,1/2+y,-z
1/2-x,1/2+y,z
1/2+x,1/2-y,z
loop_
_atom_site_type_symbol
_atom_site_label
_atom_site_fract_x
_atom_site_fract_y
_atom_site_fract_z
Si Si1 0.500000 0.947899 0.844903
Si Si2 0.792546 0.207686 0.332973
Si Si3 0.075990 0.775708 0.837075
Si Si4 0.576929 0.171885 0.159738
Si Si5 0.807323 0.371085 0.333128
Si Si6 0.850100 0.449812 0.829802
O O1 0.426872 0.935702 0.771755
O O2 0.500000 0.000000 0.865709
O O3 0.500000 0.925105 0.000000
O O4 0.804003 0.214385 0.500000
O O5 0.750000 0.250000 0.272706
O O6 0.866558 0.202503 0.261402
O O7 0.753831 0.162385 0.296940
O O8 0.077128 0.723695 0.816143
O O9 0.000000 0.793269 0.794106
O O10 0.092043 0.788467 0.000000
O O11 0.500000 0.152915 0.177424
O O12 0.622429 0.150580 0.281478
O O13 0.604566 0.160755 0.000000
O O14 0.811947 0.380970 0.500000
O O15 0.796399 0.417297 0.248658
O O16 0.832507 0.500000 0.786366
O O17 0.845924 0.444212 0.000000
#
# Coordination Sequence:
#
# PCOD8270901 Si02
#       6
#     8  16  16  16  16  16
#     4   7  12  26  47  65  81 109 149 191 233 275
#     4  10  20  34  47  65  97 132 161 189 228 280
#     4   9  18  32  50  71  92 118 158 204 240 271
#     4   9  18  31  45  63  89 122 160 197 235 280
#     4  11  22  32  45  67  94 124 158 198 237 274
#     4   9  18  33  50  66  87 118 156 196 240 286
#
# _framework density 15.890796
#
# number of rings (size 3 to 8) (size 9 to 14) (size 15 to 20)
#    0.000    2.636    1.818    2.727    1.273    2.909 
#    0.000    1.818    0.000    1.636    0.000    0.000 
#    0.000    0.727    0.000    8.000    0.000    5.818 
#
# Total GULP energy -545273.808639 kJ/mol
# GULP energy per Si atom -12392.586560 kJ/mol
# Density = 1.585463 g / cm^3
# Si number density = 15.890796 Si / 1000 Ang^3
#
#
#
# Elastic Constant Matrix: (Units=GPa)
#
#
# Indices 1 2 3 4 5 6 
#
# 1 93.4313 50.8401 46.8759 0.0000 0.0000 0.0000
# 2 50.8401 75.8352 47.0096 0.0000 0.0000 0.0000
# 3 46.8759 47.0096 54.0704 0.0000 0.0000 0.0000
# 4 0.0000 0.0000 0.0000 24.9149 0.0000 0.0000
# 5 0.0000 0.0000 0.0000 0.0000 25.2877 0.0000
# 6 0.0000 0.0000 0.0000 0.0000 0.0000 24.1617
#
#
#
# Elastic Compliance Matrix: (Units=1/GPa)
#
#
# Indices 1 2 3 4 5 6 
#
# 1 0.020047 -0.005782 -0.012352 0.000000 0.000000 0.000000
# 2 -0.005782 0.030269 -0.021303 0.000000 0.000000 0.000000
# 3 -0.012352 -0.021303 0.047724 0.000000 0.000000 0.000000
# 4 0.000000 0.000000 0.000000 0.040137 0.000000 0.000000
# 5 0.000000 0.000000 0.000000 0.000000 0.039545 0.000000
# 6 0.000000 0.000000 0.000000 0.000000 0.000000 0.041388
#
#
# Mechanical properties :
#
#
# Convention : Reuss Voigt Hill
#
# Bulk Modulus (GPa) = 52.17974 56.97646 54.57810
# Shear Modulus (GPa) = 16.42731 20.11361 18.27046
#
# Velocity S-wave (km/s) = 3.21871 3.56158 3.39448
# Velocity P-wave (km/s) = 6.83529 7.26953 7.05575
#
# Compressibility (1/GPa) = 0.01916453
#
# Stress axis : x y z
#
# Youngs Moduli (GPa) = 49.88347 33.03762 20.95390
#
# Poissons Ratio (x) = 0.19104 0.25882
# Poissons Ratio (y) = 0.28845 0.44638
# Poissons Ratio (z) = 0.61616 0.70379
#
# Static dielectric constant tensor:
#      x y z
#    x 3.708270 0.000000 0.000000 
#    y 0.000000 3.039150 0.000000 
#    z 0.000000 0.000000 2.885050 
# 
# 
# High freq. dielectric constant tensor:
#      x y z
#    x 1.584630 0.000000 0.000000 
#    y 0.000000 1.600780 0.000000 
#    z 0.000000 0.000000 1.597980 
# 
# From -- ./inp_files/10149.got.cif
#   From: 2010.03.12/outbox.cif.g09.slc.cpg/sg65_6_cif.got.tgz:10149.got - 2010.04.10 20:52:16.
