data_PCOD8270236
_publ_section_title
;
Structure prediction by ZEFSAII (Michael W. Deem and Ramdas Pophale) SiO2 
 PCOD8270236
Probable space group: C M M M
;
_chemical_formula_sum "Si O2"
_cell_formula_units_Z 72
_cell_length_a 28.676943
_cell_length_b 9.216483
_cell_length_c 15.241114
_cell_angle_alpha 90.000000
_cell_angle_beta 90.000000
_cell_angle_gamma 90.000000
_cell_volume 4028.234929
_symmetry_space_group_name_H-M "C M M M"
_symmetry_group_IT_number 65
_symmetry_cell_setting 'orthorhombic'
loop_
_space_group_symop_operation_xyz
x,y,z
-x,-y,z
x,-y,-z
-x,y,-z
-x,-y,-z
x,y,-z
-x,y,z
x,-y,z
1/2+x,1/2+y,z
1/2-x,1/2-y,z
1/2+x,1/2-y,-z
1/2-x,1/2+y,-z
1/2-x,1/2-y,-z
1/2+x,1/2+y,-z
1/2-x,1/2+y,z
1/2+x,1/2-y,z
loop_
_atom_site_type_symbol
_atom_site_label
_atom_site_fract_x
_atom_site_fract_y
_atom_site_fract_z
Si Si1 0.446034 0.669923 0.173435
Si Si2 0.633160 0.830105 0.748671
Si Si3 0.296354 0.831038 0.400317
Si Si4 0.202872 0.331617 0.900826
Si Si5 0.945025 0.662131 0.000000
O O1 0.500000 0.701288 0.195092
O O2 0.436826 0.500000 0.162422
O O3 0.414701 0.737526 0.251196
O O4 0.429127 0.750085 0.085224
O O5 0.660575 0.785502 0.660750
O O6 0.662944 0.783401 0.833665
O O7 0.620853 0.000000 0.749739
O O8 0.309323 0.788404 0.500000
O O9 0.250000 0.750000 0.368448
O O10 0.285654 0.000000 0.390422
O O11 0.214083 0.500000 0.889777
O O12 0.250000 0.250000 0.876069
O O13 0.186333 0.294356 0.000000
O O14 0.922160 0.500000 0.000000
O O15 0.000000 0.646658 0.000000
#
# Coordination Sequence:
#
# PCOD8270236 Si02
#       5
#    16  16  16  16   8
#     4  10  21  35  50  72 102 133 170 217 260 299
#     4  10  20  32  50  74  99 132 171 210 253 306
#     4   9  18  33  53  78 106 133 166 211 259 307
#     4   9  18  31  45  65  95 128 162 199 237 288
#     4   9  17  31  51  71  94 129 170 209 251 297
#
# _framework density 17.873833000000001
#
# number of rings (size 3 to 8) (size 9 to 14) (size 15 to 20)
#    0.000    2.556    0.000    1.667    1.556    4.444 
#    0.000    0.000    0.000    0.667    0.000    4.667 
#    0.000    0.000    0.000    0.000    0.000    0.000 
#
# Total GULP energy -446432.798557 kJ/mol
# GULP energy per Si atom -12400.911071 kJ/mol
# Density = 1.783315 g / cm^3
# Si number density = 17.873833 Si / 1000 Ang^3
#
#
#
# Elastic Constant Matrix: (Units=GPa)
#
#
# Indices 1 2 3 4 5 6 
#
# 1 105.3949 59.2181 63.2500 0.0000 0.0000 0.0000
# 2 59.2181 79.4104 44.7586 0.0000 0.0000 0.0000
# 3 63.2500 44.7586 90.9861 0.0000 0.0000 0.0000
# 4 0.0000 0.0000 0.0000 20.1158 0.0000 0.0000
# 5 0.0000 0.0000 0.0000 0.0000 27.6857 0.0000
# 6 0.0000 0.0000 0.0000 0.0000 0.0000 34.0087
#
#
#
# Elastic Compliance Matrix: (Units=1/GPa)
#
#
# Indices 1 2 3 4 5 6 
#
# 1 0.020980 -0.010273 -0.009531 0.000000 0.000000 0.000000
# 2 -0.010273 0.022455 -0.003904 0.000000 0.000000 0.000000
# 3 -0.009531 -0.003904 0.019537 0.000000 0.000000 0.000000
# 4 0.000000 0.000000 0.000000 0.049712 0.000000 0.000000
# 5 0.000000 0.000000 0.000000 0.000000 0.036120 0.000000
# 6 0.000000 0.000000 0.000000 0.000000 0.000000 0.029404
#
#
# Mechanical properties :
#
#
# Convention : Reuss Voigt Hill
#
# Bulk Modulus (GPa) = 64.29067 67.80498 66.04782
# Shear Modulus (GPa) = 21.66290 23.59969 22.63130
#
# Velocity S-wave (km/s) = 3.48514 3.63760 3.56219
# Velocity P-wave (km/s) = 7.22788 7.46060 7.34516
#
# Compressibility (1/GPa) = 0.01555436
#
# Stress axis : x y z
#
# Youngs Moduli (GPa) = 47.66431 44.53441 51.18559
#
# Poissons Ratio (x) = 0.45752 0.48784
# Poissons Ratio (y) = 0.48968 0.19985
# Poissons Ratio (z) = 0.45428 0.17388
#
# Static dielectric constant tensor:
#      x y z
#    x 3.272280 0.000000 0.000000 
#    y 0.000000 3.302360 0.000000 
#    z 0.000000 0.000000 3.346910 
# 
# 
# High freq. dielectric constant tensor:
#      x y z
#    x 1.686630 0.000000 0.000000 
#    y 0.000000 1.692290 0.000000 
#    z 0.000000 0.000000 1.674970 
# 
# From -- ./inp_files/36565.got.cif
#   From: 2010.03.12/outbox.cif.g09.slc.cpg/sg65_19_cif.got.tgz:36565.got - 2010.04.10 20:52:16.
