data_PCOD8270538
_publ_section_title
;
Structure prediction by ZEFSAII (Michael W. Deem and Ramdas Pophale) SiO2 
 PCOD8270538
Probable space group: C M M M
;
_chemical_formula_sum "Si O2"
_cell_formula_units_Z 96
_cell_length_a 21.322958
_cell_length_b 19.833978
_cell_length_c 12.641890
_cell_angle_alpha 90.000000
_cell_angle_beta 90.000000
_cell_angle_gamma 90.000000
_cell_volume 5346.496487
_symmetry_space_group_name_H-M "C M M M"
_symmetry_group_IT_number 65
_symmetry_cell_setting 'orthorhombic'
loop_
_space_group_symop_operation_xyz
x,y,z
-x,-y,z
x,-y,-z
-x,y,-z
-x,-y,-z
x,y,-z
-x,y,z
x,-y,z
1/2+x,1/2+y,z
1/2-x,1/2-y,z
1/2+x,1/2-y,-z
1/2-x,1/2+y,-z
1/2-x,1/2-y,-z
1/2+x,1/2+y,-z
1/2-x,1/2+y,z
1/2+x,1/2-y,z
loop_
_atom_site_type_symbol
_atom_site_label
_atom_site_fract_x
_atom_site_fract_y
_atom_site_fract_z
Si Si1 0.929986 0.765109 0.620039
Si Si2 0.631102 0.076666 0.117020
Si Si3 0.721128 0.575866 0.120715
Si Si4 0.350982 0.070310 0.500000
Si Si5 0.068784 0.384966 0.679849
Si Si6 0.303553 0.690751 0.283501
Si Si7 0.756375 0.170356 0.500000
O O1 0.912593 0.788460 0.500000
O O2 0.934658 0.685267 0.619684
O O3 0.874953 0.783140 0.703333
O O4 0.000000 0.793978 0.651281
O O5 0.704932 0.081044 0.130688
O O6 0.599484 0.123883 0.204322
O O7 0.608216 0.000000 0.132816
O O8 0.611811 0.102453 0.000000
O O9 0.699766 0.500000 0.156828
O O10 0.692643 0.636277 0.190115
O O11 0.699483 0.587724 0.000000
O O12 0.391865 0.065540 0.606118
O O13 0.311552 0.137936 0.500000
O O14 0.311062 0.000000 0.500000
O O15 0.000000 0.416039 0.694823
O O16 0.250000 0.750000 0.264723
O O17 0.289798 0.649040 0.391335
O O18 0.750000 0.250000 0.500000
#
# Coordination Sequence:
#
# PCOD8270538 Si02
#       7
#    16  16  16   8  16  16   8
#     4  10  20  36  55  76 107 146 181 216 269 331
#     4   9  18  33  50  68  97 138 180 221 264 311
#     4   9  19  36  56  79 109 142 175 221 284 341
#     4  12  23  32  46  74 109 136 170 229 284 323
#     4  11  21  33  49  69 100 145 186 217 261 323
#     4  11  20  32  57  86 110 140 184 233 270 316
#     4  10  20  33  50  73 104 137 174 220 275 325
#
# _framework density 17.955684000000002
#
# number of rings (size 3 to 8) (size 9 to 14) (size 15 to 20)
#    0.000    1.833    1.667    5.750    0.000    4.333 
#    0.000    1.667    0.000    2.000    0.000    2.333 
#    0.000    0.000    0.000    0.000    0.000    0.000 
#
# Total GULP energy -594661.996764 kJ/mol
# GULP energy per Si atom -12388.791599 kJ/mol
# Density = 1.791482 g / cm^3
# Si number density = 17.955684 Si / 1000 Ang^3
#
#
#
# Elastic Constant Matrix: (Units=GPa)
#
#
# Indices 1 2 3 4 5 6 
#
# 1 93.4379 39.7339 37.4494 0.0000 0.0000 0.0000
# 2 39.7339 80.6604 43.7475 0.0000 0.0000 0.0000
# 3 37.4494 43.7475 107.1143 0.0000 0.0000 0.0000
# 4 0.0000 0.0000 0.0000 33.9938 0.0000 0.0000
# 5 0.0000 0.0000 0.0000 0.0000 3.8193 0.0000
# 6 0.0000 0.0000 0.0000 0.0000 0.0000 12.6677
#
#
#
# Elastic Compliance Matrix: (Units=1/GPa)
#
#
# Indices 1 2 3 4 5 6 
#
# 1 0.014118 -0.005495 -0.002692 0.000000 0.000000 0.000000
# 2 -0.005495 0.018064 -0.005457 0.000000 0.000000 0.000000
# 3 -0.002692 -0.005457 0.012505 0.000000 0.000000 0.000000
# 4 0.000000 0.000000 0.000000 0.029417 0.000000 0.000000
# 5 0.000000 0.000000 0.000000 0.000000 0.261830 0.000000
# 6 0.000000 0.000000 0.000000 0.000000 0.000000 0.078941
#
#
# Mechanical properties :
#
#
# Convention : Reuss Voigt Hill
#
# Bulk Modulus (GPa) = 57.46743 58.11936 57.79339
# Shear Modulus (GPa) = 11.16169 20.78161 15.97165
#
# Velocity S-wave (km/s) = 2.49594 3.40572 2.98569
# Velocity P-wave (km/s) = 6.35460 6.92126 6.64397
#
# Compressibility (1/GPa) = 0.01740116
#
# Stress axis : x y z
#
# Youngs Moduli (GPa) = 70.83322 55.35941 79.96492
#
# Poissons Ratio (x) = 0.30418 0.21525
# Poissons Ratio (y) = 0.38920 0.43633
# Poissons Ratio (z) = 0.19067 0.30207
#
# Static dielectric constant tensor:
#      x y z
#    x 3.339790 0.000000 0.000000 
#    y 0.000000 3.152440 0.000000 
#    z 0.000000 0.000000 3.534920 
# 
# 
# High freq. dielectric constant tensor:
#      x y z
#    x 1.678610 0.000000 0.000000 
#    y 0.000000 1.666790 0.000000 
#    z 0.000000 0.000000 1.701250 
# 
# From -- ./inp_files/29052.got.cif
#   From: 2010.03.12/outbox.cif.g09.slc.cpg/sg65_15_cif.got.tgz:29052.got - 2010.04.10 20:52:16.
