data_PCOD8270654
_publ_section_title
;
Structure prediction by ZEFSAII (Michael W. Deem and Ramdas Pophale) SiO2 
 PCOD8270654
Probable space group: C M M M
;
_chemical_formula_sum "Si O2"
_cell_formula_units_Z 88
_cell_length_a 20.054061
_cell_length_b 16.395274
_cell_length_c 13.473377
_cell_angle_alpha 90.000000
_cell_angle_beta 90.000000
_cell_angle_gamma 90.000000
_cell_volume 4429.936211
_symmetry_space_group_name_H-M "C M M M"
_symmetry_group_IT_number 65
_symmetry_cell_setting 'orthorhombic'
loop_
_space_group_symop_operation_xyz
x,y,z
-x,-y,z
x,-y,-z
-x,y,-z
-x,-y,-z
x,y,-z
-x,y,z
x,-y,z
1/2+x,1/2+y,z
1/2-x,1/2-y,z
1/2+x,1/2-y,-z
1/2-x,1/2+y,-z
1/2-x,1/2-y,-z
1/2+x,1/2+y,-z
1/2-x,1/2+y,z
1/2+x,1/2-y,z
loop_
_atom_site_type_symbol
_atom_site_label
_atom_site_fract_x
_atom_site_fract_y
_atom_site_fract_z
Si Si1 0.879034 0.125156 0.110597
Si Si2 0.740328 0.089735 0.800701
Si Si3 0.000000 0.408726 0.118431
Si Si4 0.873768 0.315801 0.112033
Si Si5 0.290463 0.665285 0.386414
Si Si6 0.924556 0.907493 0.681211
O O1 0.802878 0.099662 0.126895
O O2 0.887515 0.221340 0.117420
O O3 0.923471 0.087812 0.198233
O O4 0.901159 0.095353 0.000000
O O5 0.690079 0.162105 0.823893
O O6 0.759455 0.097185 0.685069
O O7 0.708992 0.000000 0.817613
O O8 0.064229 0.362730 0.160657
O O9 0.000000 0.500000 0.159642
O O10 0.000000 0.404887 0.000000
O O11 0.861236 0.345790 0.000000
O O12 0.280093 0.639821 0.500000
O O13 0.250000 0.750000 0.366186
O O14 0.370888 0.659904 0.360889
O O15 0.000000 0.882376 0.648527
O O16 0.908776 0.000000 0.642653
#
# Coordination Sequence:
#
# PCOD8270654 Si02
#       6
#    16  16   8  16  16  16
#     4  10  20  33  51  75 111 153 191 226 266 322
#     4  11  21  33  53  80 108 141 182 228 278 331
#     4   9  18  32  48  70 100 134 178 229 274 318
#     4  10  20  33  51  75 107 146 186 229 273 320
#     4  10  21  39  61  82 108 141 182 233 286 340
#     4  10  22  38  57  85 120 154 189 232 281 338
#
# _framework density 19.864847000000001
#
# number of rings (size 3 to 8) (size 9 to 14) (size 15 to 20)
#    0.000    1.909    0.000    6.000    1.273    6.909 
#    0.000    1.818    0.000    0.000    0.000    0.000 
#    0.000    2.182    0.000    0.182    0.000    0.000 
#
# Total GULP energy -545175.504596 kJ/mol
# GULP energy per Si atom -12390.352377 kJ/mol
# Density = 1.981963 g / cm^3
# Si number density = 19.864847 Si / 1000 Ang^3
#
#
#
# Elastic Constant Matrix: (Units=GPa)
#
#
# Indices 1 2 3 4 5 6 
#
# 1 109.6939 35.3175 15.4520 0.0000 0.0000 0.0000
# 2 35.3175 88.9927 15.4656 0.0000 0.0000 0.0000
# 3 15.4520 15.4656 77.1820 0.0000 0.0000 0.0000
# 4 0.0000 0.0000 0.0000 17.3463 0.0000 0.0000
# 5 0.0000 0.0000 0.0000 0.0000 14.1415 0.0000
# 6 0.0000 0.0000 0.0000 0.0000 0.0000 35.7490
#
#
#
# Elastic Compliance Matrix: (Units=1/GPa)
#
#
# Indices 1 2 3 4 5 6 
#
# 1 0.010581 -0.003969 -0.001323 0.000000 0.000000 0.000000
# 2 -0.003969 0.013131 -0.001837 0.000000 0.000000 0.000000
# 3 -0.001323 -0.001837 0.013589 0.000000 0.000000 0.000000
# 4 0.000000 0.000000 0.000000 0.057649 0.000000 0.000000
# 5 0.000000 0.000000 0.000000 0.000000 0.070714 0.000000
# 6 0.000000 0.000000 0.000000 0.000000 0.000000 0.027973
#
#
# Mechanical properties :
#
#
# Convention : Reuss Voigt Hill
#
# Bulk Modulus (GPa) = 43.39559 45.37097 44.38328
# Shear Modulus (GPa) = 23.19379 27.42295 25.30837
#
# Velocity S-wave (km/s) = 3.42069 3.71951 3.57323
# Velocity P-wave (km/s) = 6.12326 6.42929 6.27814
#
# Compressibility (1/GPa) = 0.02304382
#
# Stress axis : x y z
#
# Youngs Moduli (GPa) = 94.51318 76.15449 73.58756
#
# Poissons Ratio (x) = 0.30226 0.09735
# Poissons Ratio (y) = 0.37513 0.13515
# Poissons Ratio (z) = 0.12503 0.13986
#
# Static dielectric constant tensor:
#      x y z
#    x 3.712930 0.000000 0.000000 
#    y 0.000000 3.601220 0.000000 
#    z 0.000000 0.000000 3.570230 
# 
# 
# High freq. dielectric constant tensor:
#      x y z
#    x 1.771610 0.000000 0.000000 
#    y 0.000000 1.774370 0.000000 
#    z 0.000000 0.000000 1.753620 
# 
# From -- ./inp_files/43970.got.cif
#   From: 2010.03.12/outbox.cif.g09.slc.cpg/sg65_22_cif.got.tgz:43970.got - 2010.04.10 20:52:16.
