data_PCOD8270021
_publ_section_title
;
Structure prediction by ZEFSAII (Michael W. Deem and Ramdas Pophale) SiO2 
 PCOD8270021
Probable space group: C M M M
;
_chemical_formula_sum "Si O2"
_cell_formula_units_Z 96
_cell_length_a 8.966624
_cell_length_b 27.318951
_cell_length_c 23.789294
_cell_angle_alpha 90.000000
_cell_angle_beta 90.000000
_cell_angle_gamma 90.000000
_cell_volume 5827.396000
_symmetry_space_group_name_H-M "C M M M"
_symmetry_group_IT_number 65
_symmetry_cell_setting 'orthorhombic'
loop_
_space_group_symop_operation_xyz
x,y,z
-x,-y,z
x,-y,-z
-x,y,-z
-x,-y,-z
x,y,-z
-x,y,z
x,-y,z
1/2+x,1/2+y,z
1/2-x,1/2-y,z
1/2+x,1/2-y,-z
1/2-x,1/2+y,-z
1/2-x,1/2-y,-z
1/2+x,1/2+y,-z
1/2-x,1/2+y,z
1/2+x,1/2-y,z
loop_
_atom_site_type_symbol
_atom_site_label
_atom_site_fract_x
_atom_site_fract_y
_atom_site_fract_z
Si Si1 0.676547 0.639516 0.657471
Si Si2 0.177001 0.945032 0.938480
Si Si3 0.672592 0.943370 0.722477
Si Si4 0.173141 0.699332 0.565266
Si Si5 0.672834 0.699498 0.765781
Si Si6 0.176171 0.103022 0.173793
O O1 0.500000 0.635128 0.650573
O O2 0.741027 0.586854 0.674581
O O3 0.750403 0.655383 0.599041
O O4 0.721716 0.679115 0.704964
O O5 0.233481 0.909034 0.889199
O O6 0.000000 0.945616 0.938689
O O7 0.236139 0.000000 0.926905
O O8 0.234679 0.926957 0.000000
O O9 0.500000 0.927936 0.722717
O O10 0.740940 0.933089 0.783633
O O11 0.693441 0.000000 0.707600
O O12 0.197969 0.687677 0.500000
O O13 0.250000 0.750000 0.582630
O O14 0.000000 0.703231 0.580913
O O15 0.500000 0.710503 0.766141
O O16 0.750000 0.750000 0.780928
O O17 0.716178 0.659391 0.812957
O O18 0.000000 0.093928 0.181354
#
# Coordination Sequence:
#
# PCOD8270021 Si02
#       6
#    16  16  16  16  16  16
#     4  10  20  33  50  71  94 122 157 195 235 278
#     4   8  13  22  40  66  90 112 143 186 233 275
#     4  10  20  32  47  69  96 124 153 186 229 282
#     4  10  20  33  50  73 101 131 161 194 233 276
#     4   9  18  29  42  63  88 116 149 184 225 269
#     4   9  17  29  45  66  91 118 151 190 230 274
#
# _framework density 16.473911000000001
#
# number of rings (size 3 to 8) (size 9 to 14) (size 15 to 20)
#    0.000    2.667    0.000    4.000    0.000    7.667 
#    0.000    0.000    0.000    1.500    0.000    5.833 
#    0.000    0.000    0.000    0.000    0.000    0.333 
#
# Total GULP energy -595126.890169 kJ/mol
# GULP energy per Si atom -12398.476879 kJ/mol
# Density = 1.643642 g / cm^3
# Si number density = 16.473911 Si / 1000 Ang^3
#
#
#
# Elastic Constant Matrix: (Units=GPa)
#
#
# Indices 1 2 3 4 5 6 
#
# 1 72.6152 47.5200 46.5639 0.0000 0.0000 0.0000
# 2 47.5200 103.8304 61.8475 0.0000 0.0000 0.0000
# 3 46.5639 61.8475 109.7023 0.0000 0.0000 0.0000
# 4 0.0000 0.0000 0.0000 27.6452 0.0000 0.0000
# 5 0.0000 0.0000 0.0000 0.0000 16.8705 0.0000
# 6 0.0000 0.0000 0.0000 0.0000 0.0000 27.9519
#
#
#
# Elastic Compliance Matrix: (Units=1/GPa)
#
#
# Indices 1 2 3 4 5 6 
#
# 1 0.021602 -0.006662 -0.005413 0.000000 0.000000 0.000000
# 2 -0.006662 0.016555 -0.006506 0.000000 0.000000 0.000000
# 3 -0.005413 -0.006506 0.015081 0.000000 0.000000 0.000000
# 4 0.000000 0.000000 0.000000 0.036173 0.000000 0.000000
# 5 0.000000 0.000000 0.000000 0.000000 0.059275 0.000000
# 6 0.000000 0.000000 0.000000 0.000000 0.000000 0.035776
#
#
# Mechanical properties :
#
#
# Convention : Reuss Voigt Hill
#
# Bulk Modulus (GPa) = 62.20326 66.44563 64.32445
# Shear Modulus (GPa) = 22.02808 23.17462 22.60135
#
# Velocity S-wave (km/s) = 3.66067 3.75473 3.70800
# Velocity P-wave (km/s) = 7.46378 7.69537 7.58046
#
# Compressibility (1/GPa) = 0.01607633
#
# Stress axis : x y z
#
# Youngs Moduli (GPa) = 46.29152 60.40341 66.30868
#
# Poissons Ratio (x) = 0.40242 0.35894
# Poissons Ratio (y) = 0.30841 0.43138
# Poissons Ratio (z) = 0.25059 0.39296
#
# Static dielectric constant tensor:
#      x y z
#    x 3.028870 0.000000 0.000000 
#    y 0.000000 3.045110 0.000000 
#    z 0.000000 0.000000 3.270300 
# 
# 
# High freq. dielectric constant tensor:
#      x y z
#    x 1.628030 0.000000 0.000000 
#    y 0.000000 1.623150 0.000000 
#    z 0.000000 0.000000 1.627650 
# 
# From -- ./inp_files/68011.got.cif
#   From: 2010.03.12/outbox.cif.g09.slc.cpg/sg65_35_cif.got.tgz:68011.got - 2010.04.10 20:52:16.
