data_PCOD8270351
_publ_section_title
;
Structure prediction by ZEFSAII (Michael W. Deem and Ramdas Pophale) SiO2 
 PCOD8270351
Probable space group: C M M M
;
_chemical_formula_sum "Si O2"
_cell_formula_units_Z 104
_cell_length_a 30.279233
_cell_length_b 8.780453
_cell_length_c 23.274190
_cell_angle_alpha 90.000000
_cell_angle_beta 90.000000
_cell_angle_gamma 90.000000
_cell_volume 6187.801421
_symmetry_space_group_name_H-M "C M M M"
_symmetry_group_IT_number 65
_symmetry_cell_setting 'orthorhombic'
loop_
_space_group_symop_operation_xyz
x,y,z
-x,-y,z
x,-y,-z
-x,y,-z
-x,-y,-z
x,y,-z
-x,y,z
x,-y,z
1/2+x,1/2+y,z
1/2-x,1/2-y,z
1/2+x,1/2-y,-z
1/2-x,1/2+y,-z
1/2-x,1/2-y,-z
1/2+x,1/2+y,-z
1/2-x,1/2+y,z
1/2+x,1/2-y,z
loop_
_atom_site_type_symbol
_atom_site_label
_atom_site_fract_x
_atom_site_fract_y
_atom_site_fract_z
Si Si1 0.323300 0.824755 0.437845
Si Si2 0.000000 0.168000 0.566493
Si Si3 0.084539 0.324896 0.387096
Si Si4 0.295351 0.818259 0.314789
Si Si5 0.052344 0.328934 0.937494
Si Si6 0.616854 0.679177 0.274738
Si Si7 0.050019 0.820749 0.822268
O O1 0.309310 0.749507 0.500000
O O2 0.375805 0.806065 0.432139
O O3 0.300716 0.753823 0.380630
O O4 0.309714 0.000000 0.440066
O O5 0.958761 0.270261 0.581983
O O6 0.000000 0.138044 0.500000
O O7 0.000000 0.000000 0.596804
O O8 0.080765 0.500000 0.366581
O O9 0.091403 0.216648 0.332841
O O10 0.250000 0.750000 0.289720
O O11 0.335512 0.762293 0.274585
O O12 0.295015 0.000000 0.313819
O O13 0.069662 0.500000 0.926776
O O14 0.068597 0.223620 0.885244
O O15 0.000000 0.327353 0.939159
O O16 0.069952 0.269943 0.000000
O O17 0.625047 0.500000 0.269074
O O18 0.585433 0.742287 0.223677
O O19 0.000000 0.754800 0.811503
O O20 0.047646 0.000000 0.817515
#
# Coordination Sequence:
#
# PCOD8270351 Si02
#       7
#    16   8  16  16  16  16  16
#     4   8  15  29  48  68  90 113 139 179 230 284
#     4  11  23  35  47  65  89 119 156 197 242 291
#     4  10  20  33  49  68  89 119 157 196 238 285
#     4  10  20  34  52  72  94 120 155 194 242 298
#     4   8  14  25  41  63  93 129 166 202 237 270
#     4  10  20  34  51  70  97 128 159 199 244 287
#     4   9  18  30  45  68  97 132 168 200 237 279
#
# _framework density 16.807262000000001
#
# number of rings (size 3 to 8) (size 9 to 14) (size 15 to 20)
#    0.000    2.692    0.000    3.462    1.077    3.077 
#    0.000    1.538    0.000    8.769    0.000    0.000 
#    0.000    0.615    0.000    2.000    0.000    2.923 
#
# Total GULP energy -644306.990574 kJ/mol
# GULP energy per Si atom -12390.519049 kJ/mol
# Density = 1.676901 g / cm^3
# Si number density = 16.807262 Si / 1000 Ang^3
#
#
#
# Elastic Constant Matrix: (Units=GPa)
#
#
# Indices 1 2 3 4 5 6 
#
# 1 96.7791 28.4053 39.3982 0.0000 0.0000 0.0000
# 2 28.4053 43.1730 18.7496 0.0000 0.0000 0.0000
# 3 39.3982 18.7496 98.2124 0.0000 0.0000 0.0000
# 4 0.0000 0.0000 0.0000 24.0961 0.0000 0.0000
# 5 0.0000 0.0000 0.0000 0.0000 17.3384 0.0000
# 6 0.0000 0.0000 0.0000 0.0000 0.0000 22.2897
#
#
#
# Elastic Compliance Matrix: (Units=1/GPa)
#
#
# Indices 1 2 3 4 5 6 
#
# 1 0.014294 -0.007539 -0.004295 0.000000 0.000000 0.000000
# 2 -0.007539 0.029233 -0.002556 0.000000 0.000000 0.000000
# 3 -0.004295 -0.002556 0.012393 0.000000 0.000000 0.000000
# 4 0.000000 0.000000 0.000000 0.041501 0.000000 0.000000
# 5 0.000000 0.000000 0.000000 0.000000 0.057676 0.000000
# 6 0.000000 0.000000 0.000000 0.000000 0.000000 0.044864
#
#
# Mechanical properties :
#
#
# Convention : Reuss Voigt Hill
#
# Bulk Modulus (GPa) = 36.84730 45.69675 41.27202
# Shear Modulus (GPa) = 21.02715 22.85226 21.93971
#
# Velocity S-wave (km/s) = 3.54089 3.69137 3.61691
# Velocity P-wave (km/s) = 6.21999 6.73914 6.48476
#
# Compressibility (1/GPa) = 0.02713903
#
# Stress axis : x y z
#
# Youngs Moduli (GPa) = 69.95916 34.20747 80.69127
#
# Poissons Ratio (x) = 0.25791 0.34655
# Poissons Ratio (y) = 0.52746 0.20628
# Poissons Ratio (z) = 0.30046 0.08745
#
# Static dielectric constant tensor:
#      x y z
#    x 3.077910 0.000000 0.000000 
#    y 0.000000 3.070770 0.000000 
#    z 0.000000 0.000000 3.392320 
# 
# 
# High freq. dielectric constant tensor:
#      x y z
#    x 1.625410 0.000000 0.000000 
#    y 0.000000 1.640900 0.000000 
#    z 0.000000 0.000000 1.633000 
# 
# From -- ./inp_files/68511.got.cif
#   From: 2010.03.12/outbox.cif.g09.slc.cpg/sg65_35_cif.got.tgz:68511.got - 2010.04.10 20:52:16.
