data_PCOD8270388
_publ_section_title
;
Structure prediction by ZEFSAII (Michael W. Deem and Ramdas Pophale) SiO2 
 PCOD8270388
Probable space group: C M M M
;
_chemical_formula_sum "Si O2"
_cell_formula_units_Z 104
_cell_length_a 9.237169
_cell_length_b 26.148577
_cell_length_c 23.008687
_cell_angle_alpha 90.000000
_cell_angle_beta 90.000000
_cell_angle_gamma 90.000000
_cell_volume 5557.491220
_symmetry_space_group_name_H-M "C M M M"
_symmetry_group_IT_number 65
_symmetry_cell_setting 'orthorhombic'
loop_
_space_group_symop_operation_xyz
x,y,z
-x,-y,z
x,-y,-z
-x,y,-z
-x,-y,-z
x,y,-z
-x,y,z
x,-y,z
1/2+x,1/2+y,z
1/2-x,1/2-y,z
1/2+x,1/2-y,-z
1/2-x,1/2+y,-z
1/2-x,1/2-y,-z
1/2+x,1/2+y,-z
1/2-x,1/2+y,z
1/2+x,1/2-y,z
loop_
_atom_site_type_symbol
_atom_site_label
_atom_site_fract_x
_atom_site_fract_y
_atom_site_fract_z
Si Si1 0.164983 0.500000 0.930895
Si Si2 0.332188 0.399920 0.067644
Si Si3 0.172552 0.944454 0.316609
Si Si4 0.671560 0.341686 0.264871
Si Si5 0.671755 0.698094 0.142219
Si Si6 0.668346 0.701258 0.386498
Si Si7 0.670637 0.405666 0.437034
O O1 0.243721 0.551334 0.907662
O O2 0.000000 0.500000 0.908747
O O3 0.174488 0.500000 0.000000
O O4 0.500000 0.411740 0.079630
O O5 0.283493 0.348093 0.099684
O O6 0.300472 0.391172 0.000000
O O7 0.230412 0.900084 0.273618
O O8 0.234272 0.937531 0.382569
O O9 0.000000 0.940226 0.320153
O O10 0.222475 0.000000 0.293131
O O11 0.500000 0.343875 0.260381
O O12 0.732891 0.316817 0.206074
O O13 0.721493 0.309022 0.320359
O O14 0.500000 0.707247 0.141501
O O15 0.750000 0.750000 0.121424
O O16 0.500000 0.713136 0.386849
O O17 0.750000 0.750000 0.412074
O O18 0.707028 0.653831 0.427395
O O19 0.736426 0.422547 0.500000
O O20 0.500000 0.413788 0.438880
#
# Coordination Sequence:
#
# PCOD8270388 Si02
#       7
#     8  16  16  16  16  16  16
#     4   9  17  31  53  77  99 127 163 199 234 277
#     4   9  18  33  51  72 100 131 162 198 241 286
#     4   8  13  22  37  57  82 111 141 178 221 266
#     4   8  15  28  42  60  86 113 146 186 226 271
#     4  10  20  33  49  70  96 127 162 198 239 285
#     4   9  16  26  41  58  80 110 142 177 217 257
#     4   8  14  23  34  52  80 110 137 169 214 264
#
# _framework density 18.713480000000001
#
# number of rings (size 3 to 8) (size 9 to 14) (size 15 to 20)
#    0.000    3.308    0.000    2.538    0.000    2.462 
#    1.385    1.538    0.000    0.000    0.000    0.000 
#    0.000    6.000    0.000    5.538    0.000    6.154 
#
# Total GULP energy -644340.535554 kJ/mol
# GULP energy per Si atom -12391.164145 kJ/mol
# Density = 1.867089 g / cm^3
# Si number density = 18.713480 Si / 1000 Ang^3
#
#
#
# Elastic Constant Matrix: (Units=GPa)
#
#
# Indices 1 2 3 4 5 6 
#
# 1 32.3038 38.2296 14.6092 0.0000 0.0000 0.0000
# 2 38.2296 136.3423 25.7299 0.0000 0.0000 0.0000
# 3 14.6092 25.7299 56.0869 0.0000 0.0000 0.0000
# 4 0.0000 0.0000 0.0000 19.5090 0.0000 0.0000
# 5 0.0000 0.0000 0.0000 0.0000 9.6123 0.0000
# 6 0.0000 0.0000 0.0000 0.0000 0.0000 25.2202
#
#
#
# Elastic Compliance Matrix: (Units=1/GPa)
#
#
# Indices 1 2 3 4 5 6 
#
# 1 0.048740 -0.012339 -0.007035 0.000000 0.000000 0.000000
# 2 -0.012339 0.011153 -0.001903 0.000000 0.000000 0.000000
# 3 -0.007035 -0.001903 0.020535 0.000000 0.000000 0.000000
# 4 0.000000 0.000000 0.000000 0.051258 0.000000 0.000000
# 5 0.000000 0.000000 0.000000 0.000000 0.104033 0.000000
# 6 0.000000 0.000000 0.000000 0.000000 0.000000 0.039651
#
#
# Mechanical properties :
#
#
# Convention : Reuss Voigt Hill
#
# Bulk Modulus (GPa) = 26.40272 42.43004 34.41638
# Shear Modulus (GPa) = 15.12640 20.61260 17.86950
#
# Velocity S-wave (km/s) = 2.84617 3.32246 3.09350
# Velocity P-wave (km/s) = 4.99405 6.11891 5.58487
#
# Compressibility (1/GPa) = 0.03787489
#
# Stress axis : x y z
#
# Youngs Moduli (GPa) = 20.51714 89.66011 48.69787
#
# Poissons Ratio (x) = 1.10629 0.34259
# Poissons Ratio (y) = 0.25315 0.09265
# Poissons Ratio (z) = 0.14434 0.17059
#
# Static dielectric constant tensor:
#      x y z
#    x 2.853560 0.000000 0.000000 
#    y 0.000000 3.605510 0.000000 
#    z 0.000000 0.000000 3.635890 
# 
# 
# High freq. dielectric constant tensor:
#      x y z
#    x 1.661440 0.000000 0.000000 
#    y 0.000000 1.738000 0.000000 
#    z 0.000000 0.000000 1.717470 
# 
# From -- ./inp_files/68173.got.cif
#   From: 2010.03.12/outbox.cif.g09.slc.cpg/sg65_35_cif.got.tgz:68173.got - 2010.04.10 20:52:16.
