data_PCOD8270270
_publ_section_title
;
Structure prediction by ZEFSAII (Michael W. Deem and Ramdas Pophale) SiO2 
 PCOD8270270
Probable space group: C M M M
;
_chemical_formula_sum "Si O2"
_cell_formula_units_Z 72
_cell_length_a 9.341049
_cell_length_b 28.996726
_cell_length_c 14.788126
_cell_angle_alpha 90.000000
_cell_angle_beta 90.000000
_cell_angle_gamma 90.000000
_cell_volume 4005.509419
_symmetry_space_group_name_H-M "C M M M"
_symmetry_group_IT_number 65
_symmetry_cell_setting 'orthorhombic'
loop_
_space_group_symop_operation_xyz
x,y,z
-x,-y,z
x,-y,-z
-x,y,-z
-x,-y,-z
x,y,-z
-x,y,z
x,-y,z
1/2+x,1/2+y,z
1/2-x,1/2-y,z
1/2+x,1/2-y,-z
1/2-x,1/2+y,-z
1/2-x,1/2-y,-z
1/2+x,1/2+y,-z
1/2-x,1/2+y,z
1/2+x,1/2-y,z
loop_
_atom_site_type_symbol
_atom_site_label
_atom_site_fract_x
_atom_site_fract_y
_atom_site_fract_z
Si Si1 0.165304 0.794901 0.398420
Si Si2 0.665699 0.795519 0.894215
Si Si3 0.163636 0.858358 0.767357
Si Si4 0.835365 0.052074 0.672319
Si Si5 0.340424 0.945361 0.500000
O O1 0.212300 0.809976 0.500000
O O2 0.250000 0.750000 0.365644
O O3 0.199693 0.836030 0.329743
O O4 0.000000 0.781373 0.396479
O O5 0.500000 0.789291 0.868385
O O6 0.750000 0.750000 0.862116
O O7 0.730457 0.839769 0.843952
O O8 0.686712 0.804156 0.000000
O O9 0.189184 0.913398 0.756801
O O10 0.000000 0.847826 0.796215
O O11 0.741972 0.070948 0.589280
O O12 0.000000 0.053908 0.640540
O O13 0.792635 0.000000 0.701962
O O14 0.500000 0.924132 0.500000
O O15 0.345865 0.000000 0.500000
#
# Coordination Sequence:
#
# PCOD8270270 Si02
#       5
#    16  16  16  16   8
#     4   9  18  31  45  64  95 131 164 199 240 291
#     4  10  21  37  57  80 106 133 164 207 258 311
#     4  10  20  32  52  77 101 133 172 215 257 304
#     4   9  18  32  50  72 100 136 176 217 262 308
#     4   9  17  29  45  67  96 131 174 221 263 299
#
# _framework density 17.975241
#
# number of rings (size 3 to 8) (size 9 to 14) (size 15 to 20)
#    0.000    2.556    0.000    1.667    1.556    6.222 
#    0.000    0.000    0.000    0.667    0.000    4.667 
#    0.000    0.000    0.000    0.000    0.000    0.000 
#
# Total GULP energy -446394.788072 kJ/mol
# GULP energy per Si atom -12399.855224 kJ/mol
# Density = 1.793433 g / cm^3
# Si number density = 17.975241 Si / 1000 Ang^3
#
#
#
# Elastic Constant Matrix: (Units=GPa)
#
#
# Indices 1 2 3 4 5 6 
#
# 1 97.9434 50.3737 48.5059 0.0000 0.0000 0.0000
# 2 50.3737 98.7926 43.3767 0.0000 0.0000 0.0000
# 3 48.5059 43.3767 60.5899 0.0000 0.0000 0.0000
# 4 0.0000 0.0000 0.0000 23.3956 0.0000 0.0000
# 5 0.0000 0.0000 0.0000 0.0000 30.7641 0.0000
# 6 0.0000 0.0000 0.0000 0.0000 0.0000 23.3196
#
#
#
# Elastic Compliance Matrix: (Units=1/GPa)
#
#
# Indices 1 2 3 4 5 6 
#
# 1 0.018019 -0.004163 -0.011445 0.000000 0.000000 0.000000
# 2 -0.004163 0.015724 -0.007925 0.000000 0.000000 0.000000
# 3 -0.011445 -0.007925 0.031340 0.000000 0.000000 0.000000
# 4 0.000000 0.000000 0.000000 0.042743 0.000000 0.000000
# 5 0.000000 0.000000 0.000000 0.000000 0.032505 0.000000
# 6 0.000000 0.000000 0.000000 0.000000 0.000000 0.042882
#
#
# Mechanical properties :
#
#
# Convention : Reuss Voigt Hill
#
# Bulk Modulus (GPa) = 55.49845 60.20426 57.85136
# Shear Modulus (GPa) = 21.16080 23.16716 22.16398
#
# Velocity S-wave (km/s) = 3.43479 3.59393 3.51526
# Velocity P-wave (km/s) = 6.83171 7.12653 6.98068
#
# Compressibility (1/GPa) = 0.01801852
#
# Stress axis : x y z
#
# Youngs Moduli (GPa) = 55.49669 63.59660 31.90764
#
# Poissons Ratio (x) = 0.26472 0.36520
# Poissons Ratio (y) = 0.23101 0.25286
# Poissons Ratio (z) = 0.63518 0.50398
#
# Static dielectric constant tensor:
#      x y z
#    x 3.429350 0.000000 0.000000 
#    y 0.000000 3.356920 0.000000 
#    z 0.000000 0.000000 3.137510 
# 
# 
# High freq. dielectric constant tensor:
#      x y z
#    x 1.698160 0.000000 0.000000 
#    y 0.000000 1.688520 0.000000 
#    z 0.000000 0.000000 1.672020 
# 
# From -- ./inp_files/36588.got.cif
#   From: 2010.03.12/outbox.cif.g09.slc.cpg/sg65_19_cif.got.tgz:36588.got - 2010.04.10 20:52:16.
