data_PCOD8270812
_publ_section_title
;
Structure prediction by ZEFSAII (Michael W. Deem and Ramdas Pophale) SiO2 
 PCOD8270812
Probable space group: C M M M
;
_chemical_formula_sum "Si O2"
_cell_formula_units_Z 64
_cell_length_a 25.985874
_cell_length_b 17.619856
_cell_length_c 7.681499
_cell_angle_alpha 90.000000
_cell_angle_beta 90.000000
_cell_angle_gamma 90.000000
_cell_volume 3517.107652
_symmetry_space_group_name_H-M "C M M M"
_symmetry_group_IT_number 65
_symmetry_cell_setting 'orthorhombic'
loop_
_space_group_symop_operation_xyz
x,y,z
-x,-y,z
x,-y,-z
-x,y,-z
-x,-y,-z
x,y,-z
-x,y,z
x,-y,z
1/2+x,1/2+y,z
1/2-x,1/2-y,z
1/2+x,1/2-y,-z
1/2-x,1/2+y,-z
1/2-x,1/2-y,-z
1/2+x,1/2+y,-z
1/2-x,1/2+y,z
1/2+x,1/2-y,z
loop_
_atom_site_type_symbol
_atom_site_label
_atom_site_fract_x
_atom_site_fract_y
_atom_site_fract_z
Si Si1 0.939485 0.762994 0.000000
Si Si2 0.381716 0.583203 0.000000
Si Si3 0.206905 0.412992 0.795393
Si Si4 0.184222 0.860716 0.305993
Si Si5 0.371006 0.208543 0.302452
O O1 0.918464 0.721558 0.172363
O O2 0.925022 0.852140 0.000000
O O3 0.000000 0.754855 0.000000
O O4 0.345621 0.586968 0.169641
O O5 0.408235 0.500000 0.000000
O O6 0.203469 0.500000 0.735274
O O7 0.254939 0.372605 0.704425
O O8 0.154751 0.372585 0.733444
O O9 0.213623 0.405383 0.000000
O O10 0.165319 0.882468 0.500000
O O11 0.172058 0.772695 0.266269
O O12 0.392015 0.211896 0.500000
#
# Coordination Sequence:
#
# PCOD8270812 Si02
#       5
#     8   8  16  16  16
#     4  10  22  40  60  79 101 132 175 231 279 313
#     4  10  20  34  53  80 112 143 176 213 257 311
#     4  11  21  32  51  81 115 147 177 212 256 309
#     4  10  20  33  52  79 112 150 184 209 243 302
#     4  10  21  37  57  79 105 141 181 219 262 314
#
# _framework density 18.196770000000001
#
# number of rings (size 3 to 8) (size 9 to 14) (size 15 to 20)
#    0.000    1.750    2.500    2.250    0.000    7.250 
#    0.000    0.000    0.000    1.500    0.000    8.750 
#    0.000    0.000    0.000    0.000    0.000    0.000 
#
# Total GULP energy -396885.919472 kJ/mol
# GULP energy per Si atom -12402.684983 kJ/mol
# Density = 1.815535 g / cm^3
# Si number density = 18.196770 Si / 1000 Ang^3
#
#
#
# Elastic Constant Matrix: (Units=GPa)
#
#
# Indices 1 2 3 4 5 6 
#
# 1 123.8271 54.7029 50.7109 0.0000 0.0000 0.0000
# 2 54.7029 84.3946 40.1882 0.0000 0.0000 0.0000
# 3 50.7109 40.1882 126.6680 0.0000 0.0000 0.0000
# 4 0.0000 0.0000 0.0000 3.5264 0.0000 0.0000
# 5 0.0000 0.0000 0.0000 0.0000 14.4424 0.0000
# 6 0.0000 0.0000 0.0000 0.0000 0.0000 11.7331
#
#
#
# Elastic Compliance Matrix: (Units=1/GPa)
#
#
# Indices 1 2 3 4 5 6 
#
# 1 0.012090 -0.006516 -0.002773 0.000000 0.000000 0.000000
# 2 -0.006516 0.017470 -0.002934 0.000000 0.000000 0.000000
# 3 -0.002773 -0.002934 0.009936 0.000000 0.000000 0.000000
# 4 0.000000 0.000000 0.000000 0.283573 0.000000 0.000000
# 5 0.000000 0.000000 0.000000 0.000000 0.069241 0.000000
# 6 0.000000 0.000000 0.000000 0.000000 0.000000 0.085229
#
#
# Mechanical properties :
#
#
# Convention : Reuss Voigt Hill
#
# Bulk Modulus (GPa) = 66.44674 69.56598 68.00636
# Shear Modulus (GPa) = 9.86193 18.55955 14.21074
#
# Velocity S-wave (km/s) = 2.33053 3.19711 2.79758
# Velocity P-wave (km/s) = 6.62093 7.20705 6.92020
#
# Compressibility (1/GPa) = 0.01504965
#
# Stress axis : x y z
#
# Youngs Moduli (GPa) = 82.71369 57.24153 100.64814
#
# Poissons Ratio (x) = 0.37299 0.27907
# Poissons Ratio (y) = 0.53897 0.29530
# Poissons Ratio (z) = 0.22935 0.16795
#
# Static dielectric constant tensor:
#      x y z
#    x 2.888830 0.000000 0.000000 
#    y 0.000000 3.423340 0.000000 
#    z 0.000000 0.000000 3.638030 
# 
# 
# High freq. dielectric constant tensor:
#      x y z
#    x 1.658320 0.000000 0.000000 
#    y 0.000000 1.706730 0.000000 
#    z 0.000000 0.000000 1.727740 
# 
# From -- ./inp_files/13355.got.cif
#   From: 2010.03.12/outbox.cif.g09.slc.cpg/sg65_7_cif.got.tgz:13355.got - 2010.04.10 20:52:16.
