data_PCOD8270367
_publ_section_title
;
Structure prediction by ZEFSAII (Michael W. Deem and Ramdas Pophale) SiO2 
 PCOD8270367
Probable space group: C M M M
;
_chemical_formula_sum "Si O2"
_cell_formula_units_Z 96
_cell_length_a 32.076828
_cell_length_b 18.657592
_cell_length_c 9.333354
_cell_angle_alpha 90.000000
_cell_angle_beta 90.000000
_cell_angle_gamma 90.000000
_cell_volume 5585.791817
_symmetry_space_group_name_H-M "C M M M"
_symmetry_group_IT_number 65
_symmetry_cell_setting 'orthorhombic'
loop_
_space_group_symop_operation_xyz
x,y,z
-x,-y,z
x,-y,-z
-x,y,-z
-x,-y,-z
x,y,-z
-x,y,z
x,-y,z
1/2+x,1/2+y,z
1/2-x,1/2-y,z
1/2+x,1/2-y,-z
1/2-x,1/2+y,-z
1/2-x,1/2-y,-z
1/2+x,1/2+y,-z
1/2-x,1/2+y,z
1/2+x,1/2-y,z
loop_
_atom_site_type_symbol
_atom_site_label
_atom_site_fract_x
_atom_site_fract_y
_atom_site_fract_z
Si Si1 0.340053 0.416894 0.834065
Si Si2 0.745905 0.079039 0.169581
Si Si3 0.046693 0.700634 0.334851
Si Si4 0.588487 0.080973 0.834598
Si Si5 0.669700 0.170956 0.166541
Si Si6 0.874769 0.208489 0.331040
O O1 0.349681 0.500000 0.804924
O O2 0.292661 0.397928 0.788536
O O3 0.371015 0.370487 0.736077
O O4 0.347607 0.398083 0.000000
O O5 0.712978 0.137710 0.225679
O O6 0.736102 0.000000 0.234121
O O7 0.741837 0.073530 0.000000
O O8 0.052635 0.680823 0.500000
O O9 0.054655 0.627882 0.248671
O O10 0.079170 0.762707 0.290697
O O11 0.000000 0.728541 0.302132
O O12 0.634759 0.110797 0.809606
O O13 0.587082 0.000000 0.775977
O O14 0.576104 0.083855 0.000000
O O15 0.660160 0.240868 0.260071
O O16 0.672719 0.193806 0.000000
O O17 0.867352 0.205317 0.500000
#
# Coordination Sequence:
#
# PCOD8270367 Si02
#       6
#    16  16  16  16  16  16
#     4   9  18  33  52  72  93 118 150 187 226 271
#     4   8  14  26  46  70  93 122 162 198 221 250
#     4   9  19  35  51  66  87 119 157 191 225 271
#     4   9  17  28  44  69  98 125 155 193 232 264
#     4   9  16  28  47  68  93 127 163 193 221 257
#     4  10  20  33  49  69  93 119 149 188 232 276
#
# _framework density 17.186464000000001
#
# number of rings (size 3 to 8) (size 9 to 14) (size 15 to 20)
#    0.000    3.000    0.000    2.000    0.000    4.667 
#    0.000    5.833    0.000    3.000    0.000    3.500 
#    0.000    0.000    0.000    0.000    0.000    0.000 
#
# Total GULP energy -595121.498683 kJ/mol
# GULP energy per Si atom -12398.364556 kJ/mol
# Density = 1.714735 g / cm^3
# Si number density = 17.186464 Si / 1000 Ang^3
#
#
#
# Elastic Constant Matrix: (Units=GPa)
#
#
# Indices 1 2 3 4 5 6 
#
# 1 82.4494 60.5031 37.7400 0.0000 0.0000 0.0000
# 2 60.5031 112.9352 52.0532 0.0000 0.0000 0.0000
# 3 37.7400 52.0532 57.9689 0.0000 0.0000 0.0000
# 4 0.0000 0.0000 0.0000 19.2836 0.0000 0.0000
# 5 0.0000 0.0000 0.0000 0.0000 21.2081 0.0000
# 6 0.0000 0.0000 0.0000 0.0000 0.0000 15.5032
#
#
#
# Elastic Compliance Matrix: (Units=1/GPa)
#
#
# Indices 1 2 3 4 5 6 
#
# 1 0.021196 -0.008522 -0.006147 0.000000 0.000000 0.000000
# 2 -0.008522 0.018534 -0.011094 0.000000 0.000000 0.000000
# 3 -0.006147 -0.011094 0.031214 0.000000 0.000000 0.000000
# 4 0.000000 0.000000 0.000000 0.051858 0.000000 0.000000
# 5 0.000000 0.000000 0.000000 0.000000 0.047152 0.000000
# 6 0.000000 0.000000 0.000000 0.000000 0.000000 0.064503
#
#
# Mechanical properties :
#
#
# Convention : Reuss Voigt Hill
#
# Bulk Modulus (GPa) = 51.49912 61.54954 56.52433
# Shear Modulus (GPa) = 17.09664 18.06946 17.58305
#
# Velocity S-wave (km/s) = 3.15742 3.24601 3.20203
# Velocity P-wave (km/s) = 6.58198 7.06678 6.82868
#
# Compressibility (1/GPa) = 0.01941781
#
# Stress axis : x y z
#
# Youngs Moduli (GPa) = 47.17847 53.95600 32.03659
#
# Poissons Ratio (x) = 0.45983 0.19693
# Poissons Ratio (y) = 0.40207 0.35541
# Poissons Ratio (z) = 0.29000 0.59858
#
# Static dielectric constant tensor:
#      x y z
#    x 3.243170 0.000000 0.000000 
#    y 0.000000 3.192540 0.000000 
#    z 0.000000 0.000000 3.009160 
# 
# 
# High freq. dielectric constant tensor:
#      x y z
#    x 1.653900 0.000000 0.000000 
#    y 0.000000 1.659080 0.000000 
#    z 0.000000 0.000000 1.641800 
# 
# From -- ./inp_files/16322.got.cif
#   From: 2010.03.12/outbox.cif.g09.slc.cpg/sg65_9_cif.got.tgz:16322.got - 2010.04.10 20:52:16.
