data_PCOD8270243
_publ_section_title
;
Structure prediction by ZEFSAII (Michael W. Deem and Ramdas Pophale) SiO2 
 PCOD8270243
Probable space group: C M M M
;
_chemical_formula_sum "Si O2"
_cell_formula_units_Z 80
_cell_length_a 14.169641
_cell_length_b 33.335029
_cell_length_c 9.406223
_cell_angle_alpha 90.000000
_cell_angle_beta 90.000000
_cell_angle_gamma 90.000000
_cell_volume 4442.986106
_symmetry_space_group_name_H-M "C M M M"
_symmetry_group_IT_number 65
_symmetry_cell_setting 'orthorhombic'
loop_
_space_group_symop_operation_xyz
x,y,z
-x,-y,z
x,-y,-z
-x,y,-z
-x,-y,-z
x,y,-z
-x,y,z
x,-y,z
1/2+x,1/2+y,z
1/2-x,1/2-y,z
1/2+x,1/2-y,-z
1/2-x,1/2+y,-z
1/2-x,1/2-y,-z
1/2+x,1/2+y,-z
1/2-x,1/2+y,z
1/2+x,1/2-y,z
loop_
_atom_site_type_symbol
_atom_site_label
_atom_site_fract_x
_atom_site_fract_y
_atom_site_fract_z
Si Si1 0.388665 0.307840 0.836803
Si Si2 0.787861 0.888639 0.163373
Si Si3 0.612199 0.232538 0.339309
Si Si4 0.893207 0.045940 0.666205
Si Si5 0.893770 0.343928 0.836737
O O1 0.500000 0.311895 0.817927
O O2 0.342981 0.349195 0.783741
O O3 0.347294 0.271863 0.740036
O O4 0.361013 0.298997 0.000000
O O5 0.818153 0.926866 0.253179
O O6 0.675643 0.881701 0.185894
O O7 0.812440 0.897464 0.000000
O O8 0.651237 0.231611 0.500000
O O9 0.500000 0.234362 0.336507
O O10 0.645029 0.192702 0.257412
O O11 0.880959 0.053348 0.500000
O O12 0.000000 0.056835 0.712933
O O13 0.871193 0.000000 0.705149
O O14 0.000000 0.356935 0.793245
O O15 0.890682 0.329352 0.000000
#
# Coordination Sequence:
#
# PCOD8270243 Si02
#       5
#    16  16  16  16  16
#     4   9  17  29  44  64  94 127 156 194 246 296
#     4  10  20  32  50  76  99 124 164 207 242 283
#     4   9  17  29  45  65  90 124 167 208 244 287
#     4   9  19  36  56  78 105 133 155 180 227 292
#     4   9  18  33  50  67  93 130 168 207 251 290
#
# _framework density 18.005908000000002
#
# number of rings (size 3 to 8) (size 9 to 14) (size 15 to 20)
#    0.000    2.800    0.000    1.800    0.000    6.400 
#    0.000    7.000    0.000    0.600    0.000    4.200 
#    0.000    0.000    0.000    0.000    0.000    0.000 
#
# Total GULP energy -496002.848458 kJ/mol
# GULP energy per Si atom -12400.071211 kJ/mol
# Density = 1.796493 g / cm^3
# Si number density = 18.005908 Si / 1000 Ang^3
#
#
#
# Elastic Constant Matrix: (Units=GPa)
#
#
# Indices 1 2 3 4 5 6 
#
# 1 68.5847 57.2343 36.1383 0.0000 0.0000 0.0000
# 2 57.2343 115.7210 63.7337 0.0000 0.0000 0.0000
# 3 36.1383 63.7337 84.2360 0.0000 0.0000 0.0000
# 4 0.0000 0.0000 0.0000 33.1293 0.0000 0.0000
# 5 0.0000 0.0000 0.0000 0.0000 17.6729 0.0000
# 6 0.0000 0.0000 0.0000 0.0000 0.0000 28.1951
#
#
#
# Elastic Compliance Matrix: (Units=1/GPa)
#
#
# Indices 1 2 3 4 5 6 
#
# 1 0.025098 -0.011115 -0.002358 0.000000 0.000000 0.000000
# 2 -0.011115 0.019737 -0.010165 0.000000 0.000000 0.000000
# 3 -0.002358 -0.010165 0.020574 0.000000 0.000000 0.000000
# 4 0.000000 0.000000 0.000000 0.030185 0.000000 0.000000
# 5 0.000000 0.000000 0.000000 0.000000 0.056584 0.000000
# 6 0.000000 0.000000 0.000000 0.000000 0.000000 0.035467
#
#
# Mechanical properties :
#
#
# Convention : Reuss Voigt Hill
#
# Bulk Modulus (GPa) = 55.14496 64.75050 59.94773
# Shear Modulus (GPa) = 20.74996 23.22850 21.98923
#
# Velocity S-wave (km/s) = 3.39838 3.59562 3.49839
# Velocity P-wave (km/s) = 6.78905 7.29909 7.04869
#
# Compressibility (1/GPa) = 0.01813402
#
# Stress axis : x y z
#
# Youngs Moduli (GPa) = 39.84349 50.66633 48.60536
#
# Poissons Ratio (x) = 0.56314 0.11461
# Poissons Ratio (y) = 0.44284 0.49407
# Poissons Ratio (z) = 0.09395 0.51502
#
# Static dielectric constant tensor:
#      x y z
#    x 3.334170 0.000000 0.000000 
#    y 0.000000 3.115510 0.000000 
#    z 0.000000 0.000000 3.345200 
# 
# 
# High freq. dielectric constant tensor:
#      x y z
#    x 1.697930 0.000000 0.000000 
#    y 0.000000 1.673140 0.000000 
#    z 0.000000 0.000000 1.693750 
# 
# From -- ./inp_files/9866.got.cif
#   From: 2010.03.12/outbox.cif.g09.slc.cpg/sg65_5_cif.got.tgz:9866.got - 2010.04.10 20:52:16.
