data_PCOD8270693
_publ_section_title
;
Structure prediction by ZEFSAII (Michael W. Deem and Ramdas Pophale) SiO2 
 PCOD8270693
Probable space group: C M M M
;
_chemical_formula_sum "Si O2"
_cell_formula_units_Z 104
_cell_length_a 8.923380
_cell_length_b 28.422542
_cell_length_c 23.459467
_cell_angle_alpha 90.000000
_cell_angle_beta 90.000000
_cell_angle_gamma 90.000000
_cell_volume 5949.910669
_symmetry_space_group_name_H-M "C M M M"
_symmetry_group_IT_number 65
_symmetry_cell_setting 'orthorhombic'
loop_
_space_group_symop_operation_xyz
x,y,z
-x,-y,z
x,-y,-z
-x,y,-z
-x,-y,-z
x,y,-z
-x,y,z
x,-y,z
1/2+x,1/2+y,z
1/2-x,1/2-y,z
1/2+x,1/2-y,-z
1/2-x,1/2+y,-z
1/2-x,1/2-y,-z
1/2+x,1/2+y,-z
1/2-x,1/2+y,z
1/2+x,1/2-y,z
loop_
_atom_site_type_symbol
_atom_site_label
_atom_site_fract_x
_atom_site_fract_y
_atom_site_fract_z
Si Si1 0.673586 0.299464 0.000000
Si Si2 0.176178 0.800640 0.122959
Si Si3 0.824123 0.137836 0.772503
Si Si4 0.827659 0.552902 0.725216
Si Si5 0.675011 0.446801 0.605168
Si Si6 0.672068 0.857778 0.435595
Si Si7 0.676041 0.300126 0.662791
O O1 0.750000 0.250000 0.000000
O O2 0.715585 0.324284 0.939478
O O3 0.500000 0.288729 0.000000
O O4 0.250000 0.750000 0.130294
O O5 0.236529 0.834955 0.171952
O O6 0.000000 0.793307 0.130693
O O7 0.734492 0.088720 0.772405
O O8 0.782881 0.167313 0.716297
O O9 0.000000 0.127454 0.776438
O O10 0.809744 0.500000 0.749073
O O11 0.727755 0.560317 0.669537
O O12 0.000000 0.563831 0.710210
O O13 0.500000 0.434828 0.602476
O O14 0.707478 0.500000 0.584114
O O15 0.763657 0.410809 0.565269
O O16 0.687195 0.838716 0.500000
O O17 0.500000 0.858573 0.415750
O O18 0.763943 0.823431 0.394859
O O19 0.500000 0.292994 0.656469
O O20 0.750000 0.250000 0.673142
#
# Coordination Sequence:
#
# PCOD8270693 Si02
#       7
#     8  16  16  16  16  16  16
#     4   8  14  26  44  66  99 140 175 211 246 285
#     4   9  17  29  46  72 105 140 177 210 247 292
#     4  10  20  33  51  77 105 134 168 207 252 301
#     4  10  20  33  52  77 103 132 165 203 250 303
#     4  10  20  35  56  80 105 132 162 200 250 307
#     4  11  24  40  57  77 101 131 169 211 254 302
#     4  11  23  38  56  76 100 132 168 209 256 302
#
# _framework density 17.479254000000001
#
# number of rings (size 3 to 8) (size 9 to 14) (size 15 to 20)
#    0.000    2.000    1.538    2.308    0.000    4.923 
#    0.000    1.538    0.000    0.000    0.000    0.538 
#    0.000    4.308    0.000    0.000    0.000    0.000 
#
# Total GULP energy -644665.381598 kJ/mol
# GULP energy per Si atom -12397.411185 kJ/mol
# Density = 1.743947 g / cm^3
# Si number density = 17.479254 Si / 1000 Ang^3
#
#
#
# Elastic Constant Matrix: (Units=GPa)
#
#
# Indices 1 2 3 4 5 6 
#
# 1 65.9817 41.3424 37.2318 0.0000 0.0000 0.0000
# 2 41.3424 94.8251 45.9915 0.0000 0.0000 0.0000
# 3 37.2318 45.9915 111.4898 0.0000 0.0000 0.0000
# 4 0.0000 0.0000 0.0000 21.7418 0.0000 0.0000
# 5 0.0000 0.0000 0.0000 0.0000 17.8638 0.0000
# 6 0.0000 0.0000 0.0000 0.0000 0.0000 32.5277
#
#
#
# Elastic Compliance Matrix: (Units=1/GPa)
#
#
# Indices 1 2 3 4 5 6 
#
# 1 0.022398 -0.007672 -0.004315 0.000000 0.000000 0.000000
# 2 -0.007672 0.015812 -0.003960 0.000000 0.000000 0.000000
# 3 -0.004315 -0.003960 0.012044 0.000000 0.000000 0.000000
# 4 0.000000 0.000000 0.000000 0.045994 0.000000 0.000000
# 5 0.000000 0.000000 0.000000 0.000000 0.055979 0.000000
# 6 0.000000 0.000000 0.000000 0.000000 0.000000 0.030743
#
#
# Mechanical properties :
#
#
# Convention : Reuss Voigt Hill
#
# Bulk Modulus (GPa) = 54.47085 57.93644 56.20365
# Shear Modulus (GPa) = 22.62605 24.27540 23.45073
#
# Velocity S-wave (km/s) = 3.60175 3.73072 3.66680
# Velocity P-wave (km/s) = 6.96618 7.19552 7.08178
#
# Compressibility (1/GPa) = 0.01835844
#
# Stress axis : x y z
#
# Youngs Moduli (GPa) = 44.64750 63.24459 83.02871
#
# Poissons Ratio (x) = 0.48524 0.35824
# Poissons Ratio (y) = 0.34255 0.32883
# Poissons Ratio (z) = 0.19264 0.25047
#
# Static dielectric constant tensor:
#      x y z
#    x 2.842530 0.000000 0.000000 
#    y 0.000000 3.293830 0.000000 
#    z 0.000000 0.000000 3.484020 
# 
# 
# High freq. dielectric constant tensor:
#      x y z
#    x 1.685890 0.000000 0.000000 
#    y 0.000000 1.662850 0.000000 
#    z 0.000000 0.000000 1.665970 
# 
# From -- ./inp_files/68238.got.cif
#   From: 2010.03.12/outbox.cif.g09.slc.cpg/sg65_35_cif.got.tgz:68238.got - 2010.04.10 20:52:16.
