data_PCOD8270632
_publ_section_title
;
Structure prediction by ZEFSAII (Michael W. Deem and Ramdas Pophale) SiO2 
 PCOD8270632
Probable space group: C M M M
;
_chemical_formula_sum "Si O2"
_cell_formula_units_Z 120
_cell_length_a 27.499154
_cell_length_b 27.093063
_cell_length_c 9.245840
_cell_angle_alpha 90.000000
_cell_angle_beta 90.000000
_cell_angle_gamma 90.000000
_cell_volume 6888.486533
_symmetry_space_group_name_H-M "C M M M"
_symmetry_group_IT_number 65
_symmetry_cell_setting 'orthorhombic'
loop_
_space_group_symop_operation_xyz
x,y,z
-x,-y,z
x,-y,-z
-x,y,-z
-x,-y,-z
x,y,-z
-x,y,z
x,-y,z
1/2+x,1/2+y,z
1/2-x,1/2-y,z
1/2+x,1/2-y,-z
1/2-x,1/2+y,-z
1/2-x,1/2-y,-z
1/2+x,1/2+y,-z
1/2-x,1/2+y,z
1/2+x,1/2-y,z
loop_
_atom_site_type_symbol
_atom_site_label
_atom_site_fract_x
_atom_site_fract_y
_atom_site_fract_z
Si Si1 0.443073 0.703377 0.667291
Si Si2 0.136475 0.144747 0.170078
Si Si3 0.054909 0.500000 0.672769
Si Si4 0.945963 0.313704 0.328010
Si Si5 0.264105 0.695808 0.830939
Si Si6 0.318029 0.443575 0.668468
Si Si7 0.779944 0.608375 0.332050
Si Si8 0.387608 0.906263 0.671528
O O1 0.428524 0.696384 0.500000
O O2 0.500000 0.692619 0.689605
O O3 0.413189 0.665132 0.763633
O O4 0.430206 0.758819 0.721467
O O5 0.180114 0.182657 0.207951
O O6 0.146973 0.091165 0.238191
O O7 0.129944 0.137862 0.000000
O O8 0.056184 0.500000 0.500000
O O9 0.081850 0.548210 0.735543
O O10 0.000000 0.500000 0.730696
O O11 0.947242 0.314367 0.500000
O O12 0.908815 0.354635 0.266038
O O13 0.000000 0.325959 0.269291
O O14 0.250000 0.750000 0.774767
O O15 0.227927 0.658886 0.752231
O O16 0.254606 0.690607 0.000000
O O17 0.329087 0.434482 0.500000
O O18 0.328044 0.500000 0.712678
O O19 0.261638 0.431572 0.703393
O O20 0.780720 0.622047 0.500000
O O21 0.831674 0.586505 0.281830
O O22 0.392858 0.905869 0.500000
#
# Coordination Sequence:
#
# PCOD8270632 Si02
#       8
#    16  16   8  16  16  16  16  16
#     4   9  18  32  51  74 101 133 165 198 239 291
#     4  10  20  33  51  75 100 129 164 204 247 290
#     4   9  16  24  36  58  93 135 167 199 254 309
#     4   8  14  25  40  60  89 125 163 201 240 284
#     4   9  19  34  48  65  96 133 163 195 240 293
#     4   9  18  33  52  71  97 131 163 199 244 298
#     4   9  18  29  44  71  97 122 160 204 246 283
#     4   9  16  24  38  62  92 125 163 207 249 290
#
# _framework density 17.420373000000001
#
# number of rings (size 3 to 8) (size 9 to 14) (size 15 to 20)
#    0.000    3.000    0.000    1.600    2.800    2.933 
#    0.000    0.000    0.000    0.400    0.000    2.800 
#    0.000    2.133    0.000    0.000    0.000    0.267 
#
# Total GULP energy -743874.195193 kJ/mol
# GULP energy per Si atom -12397.903253 kJ/mol
# Density = 1.738072 g / cm^3
# Si number density = 17.420373 Si / 1000 Ang^3
#
#
#
# Elastic Constant Matrix: (Units=GPa)
#
#
# Indices 1 2 3 4 5 6 
#
# 1 103.1435 72.0336 33.3179 0.0000 0.0000 0.0000
# 2 72.0336 145.3144 44.5599 0.0000 0.0000 0.0000
# 3 33.3179 44.5599 38.1114 0.0000 0.0000 0.0000
# 4 0.0000 0.0000 0.0000 14.0445 0.0000 0.0000
# 5 0.0000 0.0000 0.0000 0.0000 13.9421 0.0000
# 6 0.0000 0.0000 0.0000 0.0000 0.0000 27.6400
#
#
#
# Elastic Compliance Matrix: (Units=1/GPa)
#
#
# Indices 1 2 3 4 5 6 
#
# 1 0.016057 -0.005698 -0.007375 0.000000 0.000000 0.000000
# 2 -0.005698 0.012750 -0.009926 0.000000 0.000000 0.000000
# 3 -0.007375 -0.009926 0.044292 0.000000 0.000000 0.000000
# 4 0.000000 0.000000 0.000000 0.071202 0.000000 0.000000
# 5 0.000000 0.000000 0.000000 0.000000 0.071725 0.000000
# 6 0.000000 0.000000 0.000000 0.000000 0.000000 0.036179
#
#
# Mechanical properties :
#
#
# Convention : Reuss Voigt Hill
#
# Bulk Modulus (GPa) = 36.89976 65.15468 51.02722
# Shear Modulus (GPa) = 16.27403 20.23585 18.25494
#
# Velocity S-wave (km/s) = 3.05978 3.41195 3.24065
# Velocity P-wave (km/s) = 5.80611 7.28042 6.58466
#
# Compressibility (1/GPa) = 0.02710044
#
# Stress axis : x y z
#
# Youngs Moduli (GPa) = 62.27807 78.43206 22.57744
#
# Poissons Ratio (x) = 0.44690 0.16652
# Poissons Ratio (y) = 0.35486 0.22410
# Poissons Ratio (z) = 0.45932 0.77851
#
# Static dielectric constant tensor:
#      x y z
#    x 3.246890 0.000000 0.000000 
#    y 0.000000 3.343360 0.000000 
#    z 0.000000 0.000000 2.853360 
# 
# 
# High freq. dielectric constant tensor:
#      x y z
#    x 1.670910 0.000000 0.000000 
#    y 0.000000 1.674510 0.000000 
#    z 0.000000 0.000000 1.632190 
# 
# From -- ./inp_files/17101.got.cif
#   From: 2010.03.12/outbox.cif.g09.slc.cpg/sg65_9_cif.got.tgz:17101.got - 2010.04.10 20:52:16.
