data_PCOD8270518
_publ_section_title
;
Structure prediction by ZEFSAII (Michael W. Deem and Ramdas Pophale) SiO2 
 PCOD8270518
Probable space group: C M M M
;
_chemical_formula_sum "Si O2"
_cell_formula_units_Z 104
_cell_length_a 32.369875
_cell_length_b 19.544169
_cell_length_c 9.192947
_cell_angle_alpha 90.000000
_cell_angle_beta 90.000000
_cell_angle_gamma 90.000000
_cell_volume 5815.847203
_symmetry_space_group_name_H-M "C M M M"
_symmetry_group_IT_number 65
_symmetry_cell_setting 'orthorhombic'
loop_
_space_group_symop_operation_xyz
x,y,z
-x,-y,z
x,-y,-z
-x,y,-z
-x,-y,-z
x,y,-z
-x,y,z
x,-y,z
1/2+x,1/2+y,z
1/2-x,1/2-y,z
1/2+x,1/2-y,-z
1/2-x,1/2+y,-z
1/2-x,1/2-y,-z
1/2+x,1/2+y,-z
1/2-x,1/2+y,z
1/2+x,1/2-y,z
loop_
_atom_site_type_symbol
_atom_site_label
_atom_site_fract_x
_atom_site_fract_y
_atom_site_fract_z
Si Si1 0.545672 0.000000 0.328616
Si Si2 0.126126 0.182502 0.332985
Si Si3 0.953161 0.769621 0.833613
Si Si4 0.181733 0.079486 0.832705
Si Si5 0.081401 0.375981 0.835450
Si Si6 0.157398 0.329929 0.334684
Si Si7 0.735364 0.077838 0.333309
O O1 0.568066 0.933119 0.275393
O O2 0.500000 0.000000 0.262963
O O3 0.545897 0.000000 0.500000
O O4 0.120529 0.161634 0.500000
O O5 0.080220 0.195156 0.270402
O O6 0.145621 0.119814 0.247309
O O7 0.157011 0.247586 0.318407
O O8 0.949255 0.687891 0.819921
O O9 0.000000 0.789819 0.787217
O O10 0.944555 0.792124 0.000000
O O11 0.226065 0.097392 0.765829
O O12 0.171499 0.000000 0.813200
O O13 0.182664 0.101711 0.000000
O O14 0.127407 0.357398 0.788811
O O15 0.082020 0.403794 0.000000
O O16 0.143545 0.349302 0.500000
O O17 0.201164 0.364706 0.299985
O O18 0.749785 0.082614 0.500000
O O19 0.719460 0.000000 0.299817
#
# Coordination Sequence:
#
# PCOD8270518 Si02
#       7
#     8  16  16  16  16  16  16
#     4  11  23  35  47  65  93 133 179 225 273 321
#     4  10  20  34  54  80 109 138 172 214 258 312
#     4   9  18  34  55  77 104 137 171 210 258 312
#     4  10  21  37  56  78 104 135 172 215 262 315
#     4  10  20  33  50  73 100 134 175 221 267 310
#     4   9  19  34  51  76 107 140 177 216 261 310
#     4   9  18  33  53  75 102 141 182 218 258 306
#
# _framework density 17.882175
#
# number of rings (size 3 to 8) (size 9 to 14) (size 15 to 20)
#    0.000    2.385    0.000    2.077    1.077    4.923 
#    0.000    3.077    0.000    0.462    0.000    3.231 
#    0.000    0.000    0.000    0.000    0.000    0.000 
#
# Total GULP energy -644733.164489 kJ/mol
# GULP energy per Si atom -12398.714702 kJ/mol
# Density = 1.784147 g / cm^3
# Si number density = 17.882175 Si / 1000 Ang^3
#
#
#
# Elastic Constant Matrix: (Units=GPa)
#
#
# Indices 1 2 3 4 5 6 
#
# 1 106.4956 52.9107 59.5348 0.0000 0.0000 0.0000
# 2 52.9107 63.1037 44.2964 0.0000 0.0000 0.0000
# 3 59.5348 44.2964 101.2494 0.0000 0.0000 0.0000
# 4 0.0000 0.0000 0.0000 31.0889 0.0000 0.0000
# 5 0.0000 0.0000 0.0000 0.0000 30.5258 0.0000
# 6 0.0000 0.0000 0.0000 0.0000 0.0000 13.4422
#
#
#
# Elastic Compliance Matrix: (Units=1/GPa)
#
#
# Indices 1 2 3 4 5 6 
#
# 1 0.018187 -0.011174 -0.005805 0.000000 0.000000 0.000000
# 2 -0.011174 0.029736 -0.006439 0.000000 0.000000 0.000000
# 3 -0.005805 -0.006439 0.016107 0.000000 0.000000 0.000000
# 4 0.000000 0.000000 0.000000 0.032166 0.000000 0.000000
# 5 0.000000 0.000000 0.000000 0.000000 0.032759 0.000000
# 6 0.000000 0.000000 0.000000 0.000000 0.000000 0.074392
#
#
# Mechanical properties :
#
#
# Convention : Reuss Voigt Hill
#
# Bulk Modulus (GPa) = 58.16238 64.92583 61.54410
# Shear Modulus (GPa) = 19.53760 22.61851 21.07806
#
# Velocity S-wave (km/s) = 3.30900 3.56035 3.43697
# Velocity P-wave (km/s) = 6.86988 7.29985 7.08813
#
# Compressibility (1/GPa) = 0.01719324
#
# Stress axis : x y z
#
# Youngs Moduli (GPa) = 54.98348 33.62901 62.08385
#
# Poissons Ratio (x) = 0.37578 0.36042
# Poissons Ratio (y) = 0.61440 0.39976
# Poissons Ratio (z) = 0.31920 0.21654
#
# Static dielectric constant tensor:
#      x y z
#    x 3.205490 0.000000 0.000000 
#    y 0.000000 3.210220 0.000000 
#    z 0.000000 0.000000 3.427030 
# 
# 
# High freq. dielectric constant tensor:
#      x y z
#    x 1.686030 0.000000 0.000000 
#    y 0.000000 1.678100 0.000000 
#    z 0.000000 0.000000 1.703020 
# 
# From -- ./inp_files/18701.got.cif
#   From: 2010.03.12/outbox.cif.g09.slc.cpg/sg65_10_cif.got.tgz:18701.got - 2010.04.10 20:52:16.
