data_PCOD8270316
_publ_section_title
;
Structure prediction by ZEFSAII (Michael W. Deem and Ramdas Pophale) SiO2 
 PCOD8270316
Probable space group: C M M M
;
_chemical_formula_sum "Si O2"
_cell_formula_units_Z 72
_cell_length_a 36.117025
_cell_length_b 8.833710
_cell_length_c 14.094037
_cell_angle_alpha 90.000000
_cell_angle_beta 90.000000
_cell_angle_gamma 90.000000
_cell_volume 4496.664802
_symmetry_space_group_name_H-M "C M M M"
_symmetry_group_IT_number 65
_symmetry_cell_setting 'orthorhombic'
loop_
_space_group_symop_operation_xyz
x,y,z
-x,-y,z
x,-y,-z
-x,y,-z
-x,-y,-z
x,y,-z
-x,y,z
x,-y,z
1/2+x,1/2+y,z
1/2-x,1/2-y,z
1/2+x,1/2-y,-z
1/2-x,1/2+y,-z
1/2-x,1/2-y,-z
1/2+x,1/2+y,-z
1/2-x,1/2+y,z
1/2+x,1/2-y,z
loop_
_atom_site_type_symbol
_atom_site_label
_atom_site_fract_x
_atom_site_fract_y
_atom_site_fract_z
Si Si1 0.043009 0.175334 0.107466
Si Si2 0.569454 0.177708 0.711935
Si Si3 0.137753 0.823731 0.611010
Si Si4 0.500000 0.322825 0.389816
Si Si5 0.213362 0.329830 0.612627
O O1 0.067718 0.275886 0.177581
O O2 0.000000 0.204818 0.129898
O O3 0.052583 0.000000 0.123127
O O4 0.052297 0.224149 0.000000
O O5 0.608279 0.229227 0.669846
O O6 0.536677 0.255698 0.654997
O O7 0.565341 0.000000 0.701431
O O8 0.131383 0.792010 0.500000
O O9 0.178014 0.767743 0.644291
O O10 0.133732 0.000000 0.634640
O O11 0.500000 0.500000 0.369789
O O12 0.500000 0.283402 0.500000
O O13 0.216063 0.335355 0.500000
O O14 0.210283 0.500000 0.653552
O O15 0.250000 0.250000 0.654794
#
# Coordination Sequence:
#
# PCOD8270316 Si02
#       5
#    16  16  16   8  16
#     4   9  18  34  55  73  90 117 153 193 238 288
#     4  12  23  33  48  71  96 122 154 197 243 285
#     4  10  20  33  48  66  92 129 167 200 235 277
#     4  11  23  37  50  63  86 125 167 200 230 273
#     4   9  16  27  44  66  92 122 157 196 236 279
#
# _framework density 16.011868
#
# number of rings (size 3 to 8) (size 9 to 14) (size 15 to 20)
#    0.000    1.889    1.111    5.000    0.000    8.000 
#    0.000    1.111    0.000    0.000    0.000    0.000 
#    0.000    0.889    0.000    3.333    0.000    5.111 
#
# Total GULP energy -446482.497440 kJ/mol
# GULP energy per Si atom -12402.291596 kJ/mol
# Density = 1.597542 g / cm^3
# Si number density = 16.011868 Si / 1000 Ang^3
#
#
#
# Elastic Constant Matrix: (Units=GPa)
#
#
# Indices 1 2 3 4 5 6 
#
# 1 190.9072 196.5838 37.5266 0.0000 0.0000 0.0000
# 2 196.5838 384.2059 34.8063 0.0000 0.0000 0.0000
# 3 37.5266 34.8063 73.2305 0.0000 0.0000 0.0000
# 4 0.0000 0.0000 0.0000 15.5188 0.0000 0.0000
# 5 0.0000 0.0000 0.0000 0.0000 -0.7231 0.0000
# 6 0.0000 0.0000 0.0000 0.0000 0.0000 31.4530
#
#
#
# Elastic Compliance Matrix: (Units=1/GPa)
#
#
# Indices 1 2 3 4 5 6 
#
# 1 0.011796 -0.005735 -0.003319 0.000000 0.000000 0.000000
# 2 -0.005735 0.005508 0.000321 0.000000 0.000000 0.000000
# 3 -0.003319 0.000321 0.015204 0.000000 0.000000 0.000000
# 4 0.000000 0.000000 0.000000 0.064438 0.000000 0.000000
# 5 0.000000 0.000000 0.000000 0.000000 -1.382950 0.000000
# 6 0.000000 0.000000 0.000000 0.000000 0.000000 0.031793
#
#
# Mechanical properties :
#
#
# Convention : Reuss Voigt Hill
#
# Bulk Modulus (GPa) = 66.48165 131.79745 99.13955
# Shear Modulus (GPa) = -4.05933 34.54488 15.24278
#
# Velocity S-wave (km/s) = -1.59396 4.64988 3.08874
# Velocity P-wave (km/s) = 6.18246 10.55081 8.64703
#
# Compressibility (1/GPa) = 0.01504174
#
# Stress axis : x y z
#
# Youngs Moduli (GPa) = 84.77479 181.55332 65.77296
#
# Poissons Ratio (x) = 1.04119 0.21830
# Poissons Ratio (y) = 0.48617 -0.02110
# Poissons Ratio (z) = 0.28137 -0.05825
#
# Static dielectric constant tensor:
#      x y z
#    x 3.126270 0.000000 0.000000 
#    y 0.000000 3.168500 0.000000 
#    z 0.000000 0.000000 2.895820 
# 
# 
# High freq. dielectric constant tensor:
#      x y z
#    x 1.609990 0.000000 0.000000 
#    y 0.000000 1.631040 0.000000 
#    z 0.000000 0.000000 1.580880 
# 
# From -- ./inp_files/47469.got.cif
#   From: 2010.03.12/outbox.cif.g09.slc.cpg/sg65_24_cif.got.tgz:47469.got - 2010.04.10 20:52:16.
