data_PCOD8270062
_publ_section_title
;
Structure prediction by ZEFSAII (Michael W. Deem and Ramdas Pophale) SiO2 
 PCOD8270062
Probable space group: C M M M
;
_chemical_formula_sum "Si O2"
_cell_formula_units_Z 88
_cell_length_a 18.436492
_cell_length_b 8.839082
_cell_length_c 28.479685
_cell_angle_alpha 90.000000
_cell_angle_beta 90.000000
_cell_angle_gamma 90.000000
_cell_volume 4641.096874
_symmetry_space_group_name_H-M "C M M M"
_symmetry_group_IT_number 65
_symmetry_cell_setting 'orthorhombic'
loop_
_space_group_symop_operation_xyz
x,y,z
-x,-y,z
x,-y,-z
-x,y,-z
-x,-y,-z
x,y,-z
-x,y,z
x,-y,z
1/2+x,1/2+y,z
1/2-x,1/2-y,z
1/2+x,1/2-y,-z
1/2-x,1/2+y,-z
1/2-x,1/2-y,-z
1/2+x,1/2+y,-z
1/2-x,1/2+y,z
1/2+x,1/2-y,z
loop_
_atom_site_type_symbol
_atom_site_label
_atom_site_fract_x
_atom_site_fract_y
_atom_site_fract_z
Si Si1 0.914468 0.822865 0.500000
Si Si2 0.582627 0.677981 0.771518
Si Si3 0.170709 0.320067 0.414827
Si Si4 0.171898 0.179939 0.138950
Si Si5 0.417783 0.821806 0.675873
Si Si6 0.918801 0.179699 0.948169
O O1 0.880818 0.744974 0.454673
O O2 0.000000 0.793023 0.500000
O O3 0.895771 0.000000 0.500000
O O4 0.500000 0.728640 0.779875
O O5 0.589612 0.500000 0.766108
O O6 0.627886 0.737344 0.815792
O O7 0.613292 0.751730 0.723926
O O8 0.175643 0.500000 0.419900
O O9 0.250000 0.250000 0.419274
O O10 0.135105 0.269397 0.365703
O O11 0.250000 0.250000 0.142060
O O12 0.133641 0.244890 0.091987
O O13 0.176424 0.000000 0.137692
O O14 0.500000 0.763573 0.666022
O O15 0.417435 0.000000 0.681095
O O16 0.000000 0.242089 0.939622
O O17 0.920582 0.000000 0.945031
O O18 0.891193 0.230636 0.000000
#
# Coordination Sequence:
#
# PCOD8270062 Si02
#       6
#     8  16  16  16  16  16
#     4  11  24  41  62  87 113 143 182 225 266 313
#     4   9  18  33  53  74  97 130 172 216 256 297
#     4  11  23  39  59  83 114 148 181 219 265 315
#     4  10  20  32  47  71 102 132 164 204 253 307
#     4   9  19  36  57  80 105 136 175 217 262 312
#     4   8  14  27  49  73  94 122 165 212 251 292
#
# _framework density 18.961034999999999
#
# number of rings (size 3 to 8) (size 9 to 14) (size 15 to 20)
#    0.000    2.455    0.000    2.727    0.000    6.909 
#    0.000    5.455    0.000    1.636    0.000    1.273 
#    0.000    0.000    0.000    0.000    0.000    0.000 
#
# Total GULP energy -545586.098053 kJ/mol
# GULP energy per Si atom -12399.684047 kJ/mol
# Density = 1.891788 g / cm^3
# Si number density = 18.961035 Si / 1000 Ang^3
#
#
#
# Elastic Constant Matrix: (Units=GPa)
#
#
# Indices 1 2 3 4 5 6 
#
# 1 122.2702 35.8876 94.3895 0.0000 0.0000 0.0000
# 2 35.8876 37.9755 46.1172 0.0000 0.0000 0.0000
# 3 94.3895 46.1172 195.2788 0.0000 0.0000 0.0000
# 4 0.0000 0.0000 0.0000 15.3110 0.0000 0.0000
# 5 0.0000 0.0000 0.0000 0.0000 12.1509 0.0000
# 6 0.0000 0.0000 0.0000 0.0000 0.0000 25.5012
#
#
#
# Elastic Compliance Matrix: (Units=1/GPa)
#
#
# Indices 1 2 3 4 5 6 
#
# 1 0.014322 -0.007190 -0.005225 0.000000 0.000000 0.000000
# 2 -0.007190 0.040531 -0.006097 0.000000 0.000000 0.000000
# 3 -0.005225 -0.006097 0.009086 0.000000 0.000000 0.000000
# 4 0.000000 0.000000 0.000000 0.065313 0.000000 0.000000
# 5 0.000000 0.000000 0.000000 0.000000 0.082298 0.000000
# 6 0.000000 0.000000 0.000000 0.000000 0.000000 0.039214
#
#
# Mechanical properties :
#
#
# Convention : Reuss Voigt Hill
#
# Bulk Modulus (GPa) = 37.15144 78.70146 57.92645
# Shear Modulus (GPa) = 16.84869 22.53463 19.69166
#
# Velocity S-wave (km/s) = 2.98417 3.45116 3.22612
# Velocity P-wave (km/s) = 5.61336 7.58141 6.67036
#
# Compressibility (1/GPa) = 0.02691686
#
# Stress axis : x y z
#
# Youngs Moduli (GPa) = 69.82084 24.67254 110.05803
#
# Poissons Ratio (x) = 0.17739 0.57504
# Poissons Ratio (y) = 0.50200 0.67097
# Poissons Ratio (z) = 0.36480 0.15042
#
# Static dielectric constant tensor:
#      x y z
#    x 3.541790 0.000000 0.000000 
#    y 0.000000 3.230600 0.000000 
#    z 0.000000 0.000000 3.882060 
# 
# 
# High freq. dielectric constant tensor:
#      x y z
#    x 1.736800 0.000000 0.000000 
#    y 0.000000 1.711850 0.000000 
#    z 0.000000 0.000000 1.756790 
# 
# From -- ./inp_files/76557.got.cif
#   From: 2010.03.12/outbox.cif.g09.slc.cpg/sg65_39_cif.got.tgz:76557.got - 2010.04.10 20:52:16.
