data_PCOD8270900
_publ_section_title
;
Structure prediction by ZEFSAII (Michael W. Deem and Ramdas Pophale) SiO2 
 PCOD8270900
Probable space group: C M M M
;
_chemical_formula_sum "Si O2"
_cell_formula_units_Z 96
_cell_length_a 15.917997
_cell_length_b 14.941640
_cell_length_c 18.457665
_cell_angle_alpha 90.000000
_cell_angle_beta 90.000000
_cell_angle_gamma 90.000000
_cell_volume 4389.989145
_symmetry_space_group_name_H-M "C M M M"
_symmetry_group_IT_number 65
_symmetry_cell_setting 'orthorhombic'
loop_
_space_group_symop_operation_xyz
x,y,z
-x,-y,z
x,-y,-z
-x,y,-z
-x,-y,-z
x,y,-z
-x,y,z
x,-y,z
1/2+x,1/2+y,z
1/2-x,1/2-y,z
1/2+x,1/2-y,-z
1/2-x,1/2+y,-z
1/2-x,1/2-y,-z
1/2+x,1/2+y,-z
1/2-x,1/2+y,z
1/2+x,1/2-y,z
loop_
_atom_site_type_symbol
_atom_site_label
_atom_site_fract_x
_atom_site_fract_y
_atom_site_fract_z
Si Si1 0.591711 0.317457 0.802985
Si Si2 0.589957 0.500000 0.111284
Si Si3 0.500000 0.160417 0.418449
Si Si4 0.823256 0.395451 0.419377
Si Si5 0.275649 0.000000 0.921243
Si Si6 0.668109 0.809289 0.917726
Si Si7 0.666268 0.398601 0.670388
Si Si8 0.000000 0.870472 0.582165
O O1 0.500000 0.297806 0.769613
O O2 0.591678 0.412486 0.840791
O O3 0.607946 0.237329 0.859681
O O4 0.655966 0.327708 0.736320
O O5 0.500000 0.500000 0.067209
O O6 0.674932 0.500000 0.065009
O O7 0.500000 0.120683 0.500000
O O8 0.586598 0.126058 0.380989
O O9 0.500000 0.265219 0.417369
O O10 0.820812 0.351607 0.500000
O O11 0.810183 0.500000 0.425885
O O12 0.745313 0.357600 0.373210
O O13 0.308553 0.907867 0.884736
O O14 0.316828 0.000000 0.000000
O O15 0.750000 0.750000 0.922598
O O16 0.629375 0.814068 0.000000
O O17 0.685145 0.500000 0.698796
O O18 0.583365 0.405698 0.621321
O O19 0.000000 0.907303 0.500000
#
# Coordination Sequence:
#
# PCOD8270900 Si02
#       8
#    16   8   8  16   8  16  16   8
#     4  11  22  39  61  90 128 171 215 267 329 391
#     4  10  20  33  58  89 127 170 209 260 328 389
#     4   9  19  37  55  81 123 162 203 263 320 374
#     4   9  18  35  62  90 117 158 214 268 323 388
#     4  10  20  39  63  94 132 167 210 265 323 381
#     4  10  21  39  64  94 128 168 215 263 315 384
#     4  11  22  38  60  88 126 167 211 268 332 396
#     4  11  23  37  57  87 126 169 212 263 325 394
#
# _framework density 21.867934000000002
#
# number of rings (size 3 to 8) (size 9 to 14) (size 15 to 20)
#    0.000    1.833    3.333    1.000    0.000    3.500 
#    3.000    4.583    0.000    1.500    2.167    0.000 
#    0.000    0.000    0.000    0.083    0.000    0.000 
#
# Total GULP energy -594658.186139 kJ/mol
# GULP energy per Si atom -12388.712211 kJ/mol
# Density = 2.181816 g / cm^3
# Si number density = 21.867934 Si / 1000 Ang^3
#
#
#
# Elastic Constant Matrix: (Units=GPa)
#
#
# Indices 1 2 3 4 5 6 
#
# 1 163.4276 39.3347 56.7129 0.0000 0.0000 0.0000
# 2 39.3347 114.9878 37.3414 0.0000 0.0000 0.0000
# 3 56.7129 37.3414 94.3075 0.0000 0.0000 0.0000
# 4 0.0000 0.0000 0.0000 -43.4535 0.0000 0.0000
# 5 0.0000 0.0000 0.0000 0.0000 26.8841 0.0000
# 6 0.0000 0.0000 0.0000 0.0000 0.0000 28.0828
#
#
#
# Elastic Compliance Matrix: (Units=1/GPa)
#
#
# Indices 1 2 3 4 5 6 
#
# 1 0.007906 -0.001332 -0.004227 0.000000 0.000000 0.000000
# 2 -0.001332 0.010204 -0.003239 0.000000 0.000000 0.000000
# 3 -0.004227 -0.003239 0.014428 0.000000 0.000000 0.000000
# 4 0.000000 0.000000 0.000000 -0.023013 0.000000 0.000000
# 5 0.000000 0.000000 0.000000 0.000000 0.037197 0.000000
# 6 0.000000 0.000000 0.000000 0.000000 0.000000 0.035609
#
#
# Mechanical properties :
#
#
# Convention : Reuss Voigt Hill
#
# Bulk Modulus (GPa) = 66.92613 71.05567 68.99090
# Shear Modulus (GPa) = 47.66017 18.25826 32.95921
#
# Velocity S-wave (km/s) = 4.67353 2.89266 3.88647
# Velocity P-wave (km/s) = 7.73263 6.61213 7.19423
#
# Compressibility (1/GPa) = 0.01494185
#
# Stress axis : x y z
#
# Youngs Moduli (GPa) = 126.47931 97.99926 69.30765
#
# Poissons Ratio (x) = 0.13052 0.29298
# Poissons Ratio (y) = 0.16845 0.22452
# Poissons Ratio (z) = 0.53466 0.31747
#
# Static dielectric constant tensor:
#      x y z
#    x 4.230580 0.000000 0.000000 
#    y 0.000000 4.021400 0.000000 
#    z 0.000000 0.000000 3.970360 
# 
# 
# High freq. dielectric constant tensor:
#      x y z
#    x 1.856780 0.000000 0.000000 
#    y 0.000000 1.859750 0.000000 
#    z 0.000000 0.000000 1.834240 
# 
# From -- ./inp_files/62719.got.cif
#   From: 2010.03.12/outbox.cif.g09.slc.cpg/sg65_32_cif.got.tgz:62719.got - 2010.04.10 20:52:16.
