data_PCOD8270589
_publ_section_title
;
Structure prediction by ZEFSAII (Michael W. Deem and Ramdas Pophale) SiO2 
 PCOD8270589
Probable space group: C M M M
;
_chemical_formula_sum "Si O2"
_cell_formula_units_Z 104
_cell_length_a 21.388716
_cell_length_b 26.131702
_cell_length_c 9.351554
_cell_angle_alpha 90.000000
_cell_angle_beta 90.000000
_cell_angle_gamma 90.000000
_cell_volume 5226.803785
_symmetry_space_group_name_H-M "C M M M"
_symmetry_group_IT_number 65
_symmetry_cell_setting 'orthorhombic'
loop_
_space_group_symop_operation_xyz
x,y,z
-x,-y,z
x,-y,-z
-x,y,-z
-x,-y,-z
x,y,-z
-x,y,z
x,-y,z
1/2+x,1/2+y,z
1/2-x,1/2-y,z
1/2+x,1/2-y,-z
1/2-x,1/2+y,-z
1/2-x,1/2-y,-z
1/2+x,1/2+y,-z
1/2-x,1/2+y,z
1/2+x,1/2-y,z
loop_
_atom_site_type_symbol
_atom_site_label
_atom_site_fract_x
_atom_site_fract_y
_atom_site_fract_z
Si Si1 0.150576 0.942729 0.659885
Si Si2 0.746816 0.141919 0.338924
Si Si3 0.573185 0.625875 0.840288
Si Si4 0.571207 0.000000 0.829150
Si Si5 0.130670 0.394854 0.837541
Si Si6 0.929662 0.708325 0.163245
Si Si7 0.141009 0.788978 0.330319
O O1 0.122319 0.937629 0.500000
O O2 0.211051 0.907973 0.674532
O O3 0.098610 0.926929 0.774738
O O4 0.172371 0.000000 0.693505
O O5 0.722279 0.149911 0.500000
O O6 0.688611 0.131846 0.239032
O O7 0.788130 0.192053 0.294045
O O8 0.500000 0.621734 0.847660
O O9 0.591706 0.672016 0.737053
O O10 0.600707 0.634166 0.000000
O O11 0.606931 0.051019 0.771495
O O12 0.500000 0.000000 0.770586
O O13 0.569513 0.000000 0.000000
O O14 0.075268 0.353216 0.827157
O O15 0.151130 0.404706 0.000000
O O16 0.875999 0.733965 0.262678
O O17 0.000000 0.723419 0.212674
O O18 0.918882 0.726745 0.000000
O O19 0.131492 0.787336 0.500000
#
# Coordination Sequence:
#
# PCOD8270589 Si02
#       7
#    16  16  16   8  16  16  16
#     4   9  19  35  53  73 101 142 188 230 276 334
#     4   9  20  37  55  78 110 146 183 228 281 330
#     4  10  20  33  50  75 107 141 179 227 284 337
#     4   9  18  36  61  87 117 151 188 231 278 331
#     4  10  21  36  58  87 114 146 188 231 277 334
#     4  10  21  37  57  83 115 148 183 228 284 337
#     4  10  21  37  57  80 108 146 189 229 274 333
#
# _framework density 19.897435999999999
#
# number of rings (size 3 to 8) (size 9 to 14) (size 15 to 20)
#    0.000    2.385    0.000    2.769    1.077   10.154 
#    0.000    4.615    0.000    1.846    0.000    0.000 
#    0.000    0.000    0.000    0.000    0.000    0.000 
#
# Total GULP energy -644568.234622 kJ/mol
# GULP energy per Si atom -12395.542973 kJ/mol
# Density = 1.985215 g / cm^3
# Si number density = 19.897436 Si / 1000 Ang^3
#
#
#
# Elastic Constant Matrix: (Units=GPa)
#
#
# Indices 1 2 3 4 5 6 
#
# 1 97.3583 38.7555 49.6643 0.0000 0.0000 0.0000
# 2 38.7555 117.9129 37.6306 0.0000 0.0000 0.0000
# 3 49.6643 37.6306 87.1245 0.0000 0.0000 0.0000
# 4 0.0000 0.0000 0.0000 23.4748 0.0000 0.0000
# 5 0.0000 0.0000 0.0000 0.0000 -10.4630 0.0000
# 6 0.0000 0.0000 0.0000 0.0000 0.0000 17.7238
#
#
#
# Elastic Compliance Matrix: (Units=1/GPa)
#
#
# Indices 1 2 3 4 5 6 
#
# 1 0.015128 -0.002575 -0.007511 0.000000 0.000000 0.000000
# 2 -0.002575 0.010275 -0.002970 0.000000 0.000000 0.000000
# 3 -0.007511 -0.002970 0.017042 0.000000 0.000000 0.000000
# 4 0.000000 0.000000 0.000000 0.042599 0.000000 0.000000
# 5 0.000000 0.000000 0.000000 0.000000 -0.095575 0.000000
# 6 0.000000 0.000000 0.000000 0.000000 0.000000 0.056421
#
#
# Mechanical properties :
#
#
# Convention : Reuss Voigt Hill
#
# Bulk Modulus (GPa) = 61.22760 61.61072 61.41916
# Shear Modulus (GPa) = 64.55892 17.90346 41.23119
#
# Velocity S-wave (km/s) = 5.70231 3.00290 4.55707
# Velocity P-wave (km/s) = 8.61356 6.56160 7.65663
#
# Compressibility (1/GPa) = 0.01633250
#
# Stress axis : x y z
#
# Youngs Moduli (GPa) = 66.10212 97.32274 58.67712
#
# Poissons Ratio (x) = 0.25062 0.44074
# Poissons Ratio (y) = 0.17022 0.17428
# Poissons Ratio (z) = 0.49652 0.28906
#
# Static dielectric constant tensor:
#      x y z
#    x 3.484500 0.000000 0.000000 
#    y 0.000000 3.929710 0.000000 
#    z 0.000000 0.000000 3.750760 
# 
# 
# High freq. dielectric constant tensor:
#      x y z
#    x 1.766850 0.000000 0.000000 
#    y 0.000000 1.786650 0.000000 
#    z 0.000000 0.000000 1.763630 
# 
# From -- ./inp_files/12406.got.cif
#   From: 2010.03.12/outbox.cif.g09.slc.cpg/sg65_7_cif.got.tgz:12406.got - 2010.04.10 20:52:16.
