data_PCOD8270591
_publ_section_title
;
Structure prediction by ZEFSAII (Michael W. Deem and Ramdas Pophale) SiO2 
 PCOD8270591
Probable space group: C M M M
;
_chemical_formula_sum "Si O2"
_cell_formula_units_Z 120
_cell_length_a 8.237418
_cell_length_b 29.242633
_cell_length_c 25.470653
_cell_angle_alpha 90.000000
_cell_angle_beta 90.000000
_cell_angle_gamma 90.000000
_cell_volume 6135.467465
_symmetry_space_group_name_H-M "C M M M"
_symmetry_group_IT_number 65
_symmetry_cell_setting 'orthorhombic'
loop_
_space_group_symop_operation_xyz
x,y,z
-x,-y,z
x,-y,-z
-x,y,-z
-x,-y,-z
x,y,-z
-x,y,z
x,-y,z
1/2+x,1/2+y,z
1/2-x,1/2-y,z
1/2+x,1/2-y,-z
1/2-x,1/2+y,-z
1/2-x,1/2-y,-z
1/2+x,1/2+y,-z
1/2-x,1/2+y,z
1/2+x,1/2-y,z
loop_
_atom_site_type_symbol
_atom_site_label
_atom_site_fract_x
_atom_site_fract_y
_atom_site_fract_z
Si Si1 0.685300 0.949576 0.809813
Si Si2 0.315189 0.300727 0.755692
Si Si3 0.814026 0.391440 0.559693
Si Si4 0.686606 0.551227 0.697697
Si Si5 0.311012 0.639025 0.149582
Si Si6 0.809381 0.299290 0.060228
Si Si7 0.320343 0.144066 0.335540
Si Si8 0.500000 0.549970 0.561395
O O1 0.500000 0.944958 0.790666
O O2 0.803051 0.942223 0.760331
O O3 0.725519 0.910518 0.852197
O O4 0.714795 0.000000 0.834838
O O5 0.500000 0.296064 0.770726
O O6 0.250000 0.250000 0.752338
O O7 0.234160 0.330621 0.802507
O O8 0.300119 0.325638 0.699196
O O9 0.782593 0.374211 0.500000
O O10 0.799467 0.348951 0.601160
O O11 0.670146 0.426104 0.577462
O O12 0.000000 0.411945 0.563660
O O13 0.500000 0.558666 0.679780
O O14 0.747107 0.500000 0.682818
O O15 0.797920 0.589508 0.671213
O O16 0.500000 0.631511 0.158365
O O17 0.279342 0.662378 0.093963
O O18 0.750000 0.250000 0.080202
O O19 0.000000 0.303143 0.068298
O O20 0.757606 0.306804 0.000000
O O21 0.500000 0.158314 0.317174
O O22 0.500000 0.500000 0.588683
O O23 0.500000 0.544128 0.500000
#
# Coordination Sequence:
#
# PCOD8270591 Si02
#       8
#    16  16  16  16  16  16  16   8
#     4  10  20  34  54  80 112 150 191 233 275 325
#     4  11  24  39  57  83 115 147 182 226 278 338
#     4   9  20  37  55  77 105 142 189 234 282 341
#     4  10  20  33  50  75 109 146 185 229 274 326
#     4  11  22  36  58  85 115 153 190 229 277 330
#     4  10  21  37  58  85 117 152 191 236 282 330
#     4  11  22  36  57  80 108 145 184 231 284 338
#     4   9  18  32  52  78 108 144 186 232 281 333
#
# _framework density 19.558413000000002
#
# number of rings (size 3 to 8) (size 9 to 14) (size 15 to 20)
#    0.000    1.800    1.333    2.800    1.867    5.867 
#    0.000    2.667    0.000    0.800    0.000    2.800 
#    0.000    0.000    0.000    0.000    0.000    0.000 
#
# Total GULP energy -743683.398553 kJ/mol
# GULP energy per Si atom -12394.723309 kJ/mol
# Density = 1.951390 g / cm^3
# Si number density = 19.558413 Si / 1000 Ang^3
#
#
#
# Elastic Constant Matrix: (Units=GPa)
#
#
# Indices 1 2 3 4 5 6 
#
# 1 72.1251 23.7074 18.3475 0.0000 0.0000 0.0000
# 2 23.7074 113.8016 48.7664 0.0000 0.0000 0.0000
# 3 18.3475 48.7664 81.3021 0.0000 0.0000 0.0000
# 4 0.0000 0.0000 0.0000 20.8326 0.0000 0.0000
# 5 0.0000 0.0000 0.0000 0.0000 28.4113 0.0000
# 6 0.0000 0.0000 0.0000 0.0000 0.0000 29.4718
#
#
#
# Elastic Compliance Matrix: (Units=1/GPa)
#
#
# Indices 1 2 3 4 5 6 
#
# 1 0.015134 -0.002274 -0.002052 0.000000 0.000000 0.000000
# 2 -0.002274 0.012169 -0.006786 0.000000 0.000000 0.000000
# 3 -0.002052 -0.006786 0.016833 0.000000 0.000000 0.000000
# 4 0.000000 0.000000 0.000000 0.048002 0.000000 0.000000
# 5 0.000000 0.000000 0.000000 0.000000 0.035197 0.000000
# 6 0.000000 0.000000 0.000000 0.000000 0.000000 0.033931
#
#
# Mechanical properties :
#
#
# Convention : Reuss Voigt Hill
#
# Bulk Modulus (GPa) = 45.63365 49.87462 47.75414
# Shear Modulus (GPa) = 26.20650 27.50365 26.85507
#
# Velocity S-wave (km/s) = 3.66445 3.75404 3.70952
# Velocity P-wave (km/s) = 6.42549 6.65929 6.54343
#
# Compressibility (1/GPa) = 0.02191365
#
# Stress axis : x y z
#
# Youngs Moduli (GPa) = 66.07631 82.17746 59.40676
#
# Poissons Ratio (x) = 0.18684 0.12188
# Poissons Ratio (y) = 0.15023 0.40313
# Poissons Ratio (z) = 0.13556 0.55765
#
# Static dielectric constant tensor:
#      x y z
#    x 3.649620 0.000000 0.000000 
#    y 0.000000 3.467190 0.000000 
#    z 0.000000 0.000000 3.538120 
# 
# 
# High freq. dielectric constant tensor:
#      x y z
#    x 1.773140 0.000000 0.000000 
#    y 0.000000 1.736760 0.000000 
#    z 0.000000 0.000000 1.755850 
# 
# From -- ./inp_files/73941.got.cif
#   From: 2010.03.12/outbox.cif.g09.slc.cpg/sg65_37_cif.got.tgz:73941.got - 2010.04.10 20:52:16.
