data_PCOD8270759
_publ_section_title
;
Structure prediction by ZEFSAII (Michael W. Deem and Ramdas Pophale) SiO2 
 PCOD8270759
Probable space group: C M M M
;
_chemical_formula_sum "Si O2"
_cell_formula_units_Z 72
_cell_length_a 14.466569
_cell_length_b 8.735654
_cell_length_c 30.733303
_cell_angle_alpha 90.000000
_cell_angle_beta 90.000000
_cell_angle_gamma 90.000000
_cell_volume 3883.919364
_symmetry_space_group_name_H-M "C M M M"
_symmetry_group_IT_number 65
_symmetry_cell_setting 'orthorhombic'
loop_
_space_group_symop_operation_xyz
x,y,z
-x,-y,z
x,-y,-z
-x,y,-z
-x,-y,-z
x,y,-z
-x,y,z
x,-y,z
1/2+x,1/2+y,z
1/2-x,1/2-y,z
1/2+x,1/2-y,-z
1/2-x,1/2+y,-z
1/2-x,1/2-y,-z
1/2+x,1/2+y,-z
1/2-x,1/2+y,z
1/2+x,1/2-y,z
loop_
_atom_site_type_symbol
_atom_site_label
_atom_site_fract_x
_atom_site_fract_y
_atom_site_fract_z
Si Si1 0.500000 0.319975 0.937992
Si Si2 0.353083 0.816658 0.000000
Si Si3 0.500000 0.319171 0.387862
Si Si4 0.000000 0.323511 0.294605
Si Si5 0.648669 0.820074 0.776404
Si Si6 0.000000 0.178364 0.163699
Si Si7 0.152785 0.819103 0.548405
O O1 0.500000 0.500000 0.948871
O O2 0.592189 0.243072 0.957599
O O3 0.500000 0.287774 0.887128
O O4 0.250000 0.750000 0.000000
O O5 0.349581 0.000000 0.000000
O O6 0.500000 0.500000 0.390466
O O7 0.500000 0.273387 0.338038
O O8 0.412904 0.252681 0.414109
O O9 0.091638 0.281466 0.267306
O O10 0.000000 0.500000 0.307469
O O11 0.750000 0.750000 0.772539
O O12 0.593401 0.751358 0.817158
O O13 0.656852 0.000000 0.783745
O O14 0.000000 0.000000 0.174737
O O15 0.119542 0.768341 0.500000
O O16 0.250000 0.750000 0.560113
O O17 0.158608 0.000000 0.550421
#
# Coordination Sequence:
#
# PCOD8270759 Si02
#       7
#     8   8   8   8  16   8  16
#     4  10  21  38  58  83 115 147 184 231 277 323
#     4  11  22  37  58  82 112 153 194 231 274 322
#     4  10  20  33  52  75  99 133 170 206 253 308
#     4   9  21  38  53  75 106 137 171 215 262 312
#     4  10  21  38  59  81 108 142 179 221 270 322
#     4  10  21  37  59  86 114 144 180 225 275 325
#     4   9  18  33  51  72  99 130 166 207 251 301
#
# _framework density 18.537974999999999
#
# number of rings (size 3 to 8) (size 9 to 14) (size 15 to 20)
#    0.000    2.222    0.000    4.000    0.000    8.444 
#    0.000    4.444    0.000    3.333    0.000    0.000 
#    0.000    0.000    0.000    0.000    0.000    0.000 
#
# Total GULP energy -446344.077808 kJ/mol
# GULP energy per Si atom -12398.446606 kJ/mol
# Density = 1.849578 g / cm^3
# Si number density = 18.537975 Si / 1000 Ang^3
#
#
#
# Elastic Constant Matrix: (Units=GPa)
#
#
# Indices 1 2 3 4 5 6 
#
# 1 176.1852 68.8324 84.4784 0.0000 0.0000 0.0000
# 2 68.8324 95.7379 61.1584 0.0000 0.0000 0.0000
# 3 84.4784 61.1584 145.2608 0.0000 0.0000 0.0000
# 4 0.0000 0.0000 0.0000 31.7354 0.0000 0.0000
# 5 0.0000 0.0000 0.0000 0.0000 16.8329 0.0000
# 6 0.0000 0.0000 0.0000 0.0000 0.0000 35.1136
#
#
#
# Elastic Compliance Matrix: (Units=1/GPa)
#
#
# Indices 1 2 3 4 5 6 
#
# 1 0.008989 -0.004272 -0.003429 0.000000 0.000000 0.000000
# 2 -0.004272 0.016319 -0.004386 0.000000 0.000000 0.000000
# 3 -0.003429 -0.004386 0.010725 0.000000 0.000000 0.000000
# 4 0.000000 0.000000 0.000000 0.031511 0.000000 0.000000
# 5 0.000000 0.000000 0.000000 0.000000 0.059408 0.000000
# 6 0.000000 0.000000 0.000000 0.000000 0.000000 0.028479
#
#
# Mechanical properties :
#
#
# Convention : Reuss Voigt Hill
#
# Bulk Modulus (GPa) = 84.33005 94.01358 89.17181
# Shear Modulus (GPa) = 27.23947 30.25068 28.74507
#
# Velocity S-wave (km/s) = 3.83742 4.04396 3.94204
# Velocity P-wave (km/s) = 8.07611 8.52227 8.30219
#
# Compressibility (1/GPa) = 0.01185817
#
# Stress axis : x y z
#
# Youngs Moduli (GPa) = 111.24521 61.27947 93.24110
#
# Poissons Ratio (x) = 0.26181 0.31972
# Poissons Ratio (y) = 0.47529 0.40894
# Poissons Ratio (z) = 0.38145 0.26876
#
# Static dielectric constant tensor:
#      x y z
#    x 3.579130 0.000000 0.000000 
#    y 0.000000 3.434190 0.000000 
#    z 0.000000 0.000000 3.464820 
# 
# 
# High freq. dielectric constant tensor:
#      x y z
#    x 1.727590 0.000000 0.000000 
#    y 0.000000 1.724170 0.000000 
#    z 0.000000 0.000000 1.722350 
# 
# From -- ./inp_files/77580.got.cif
#   From: 2010.03.12/outbox.cif.g09.slc.cpg/sg65_39_cif.got.tgz:77580.got - 2010.04.10 20:52:16.
