data_PCOD8270147
_publ_section_title
;
Structure prediction by ZEFSAII (Michael W. Deem and Ramdas Pophale) SiO2 
 PCOD8270147
Probable space group: C M M M
;
_chemical_formula_sum "Si O2"
_cell_formula_units_Z 96
_cell_length_a 9.244482
_cell_length_b 19.477298
_cell_length_c 30.516536
_cell_angle_alpha 90.000000
_cell_angle_beta 90.000000
_cell_angle_gamma 90.000000
_cell_volume 5494.732120
_symmetry_space_group_name_H-M "C M M M"
_symmetry_group_IT_number 65
_symmetry_cell_setting 'orthorhombic'
loop_
_space_group_symop_operation_xyz
x,y,z
-x,-y,z
x,-y,-z
-x,y,-z
-x,-y,-z
x,y,-z
-x,y,z
x,-y,z
1/2+x,1/2+y,z
1/2-x,1/2-y,z
1/2+x,1/2-y,-z
1/2-x,1/2+y,-z
1/2-x,1/2-y,-z
1/2+x,1/2+y,-z
1/2-x,1/2+y,z
1/2+x,1/2-y,z
loop_
_atom_site_type_symbol
_atom_site_label
_atom_site_fract_x
_atom_site_fract_y
_atom_site_fract_z
Si Si1 0.837933 0.581476 0.951670
Si Si2 0.663333 0.418413 0.547931
Si Si3 0.667767 0.817544 0.295975
Si Si4 0.667048 0.418691 0.131862
Si Si5 0.329332 0.819933 0.195162
Si Si6 0.830079 0.577829 0.368839
O O1 0.837786 0.500000 0.952273
O O2 0.725230 0.607912 0.915275
O O3 0.000000 0.607784 0.940342
O O4 0.791297 0.608702 0.000000
O O5 0.717271 0.391844 0.500000
O O6 0.500000 0.393450 0.555950
O O7 0.671908 0.500000 0.548150
O O8 0.761233 0.389094 0.587249
O O9 0.500000 0.802482 0.302485
O O10 0.750000 0.750000 0.311502
O O11 0.703103 0.836071 0.245867
O O12 0.720548 0.880177 0.326237
O O13 0.500000 0.397159 0.136090
O O14 0.687479 0.500000 0.136973
O O15 0.762013 0.383484 0.169246
O O16 0.500000 0.813439 0.185606
O O17 0.250000 0.750000 0.180530
O O18 0.776515 0.500000 0.361393
O O19 0.000000 0.581060 0.375375
#
# Coordination Sequence:
#
# PCOD8270147 Si02
#       6
#    16  16  16  16  16  16
#     4   8  14  26  45  69  97 129 164 199 236 282
#     4   8  14  25  41  63  92 123 153 185 224 272
#     4   9  19  34  51  70  92 122 157 193 234 282
#     4  10  20  32  48  74 105 132 162 202 243 283
#     4  10  20  35  54  72  94 127 165 202 243 293
#     4   9  17  29  46  70  97 121 150 190 233 275
#
# _framework density 17.47128
#
# number of rings (size 3 to 8) (size 9 to 14) (size 15 to 20)
#    0.000    3.000    0.000    2.000    0.000    3.667 
#    0.000    5.000    0.000    3.000    0.000    0.000 
#    0.000    0.000    0.000    0.000    0.000    0.000 
#
# Total GULP energy -594998.793899 kJ/mol
# GULP energy per Si atom -12395.808206 kJ/mol
# Density = 1.743152 g / cm^3
# Si number density = 17.471280 Si / 1000 Ang^3
#
#
#
# Elastic Constant Matrix: (Units=GPa)
#
#
# Indices 1 2 3 4 5 6 
#
# 1 82.0873 39.1403 61.1984 0.0000 0.0000 0.0000
# 2 39.1403 53.8734 53.8737 0.0000 0.0000 0.0000
# 3 61.1984 53.8737 126.9181 0.0000 0.0000 0.0000
# 4 0.0000 0.0000 0.0000 5.2610 0.0000 0.0000
# 5 0.0000 0.0000 0.0000 0.0000 31.5435 0.0000
# 6 0.0000 0.0000 0.0000 0.0000 0.0000 23.9314
#
#
#
# Elastic Compliance Matrix: (Units=1/GPa)
#
#
# Indices 1 2 3 4 5 6 
#
# 1 0.021281 -0.009035 -0.006426 0.000000 0.000000 0.000000
# 2 -0.009035 0.036088 -0.010962 0.000000 0.000000 0.000000
# 3 -0.006426 -0.010962 0.015631 0.000000 0.000000 0.000000
# 4 0.000000 0.000000 0.000000 0.190077 0.000000 0.000000
# 5 0.000000 0.000000 0.000000 0.000000 0.031702 0.000000
# 6 0.000000 0.000000 0.000000 0.000000 0.000000 0.041786
#
#
# Mechanical properties :
#
#
# Convention : Reuss Voigt Hill
#
# Bulk Modulus (GPa) = 49.61876 63.47816 56.54846
# Shear Modulus (GPa) = 12.62212 19.39161 16.00687
#
# Velocity S-wave (km/s) = 2.69076 3.33515 3.03013
# Velocity P-wave (km/s) = 6.17377 7.15840 6.68424
#
# Compressibility (1/GPa) = 0.02015367
#
# Stress axis : x y z
#
# Youngs Moduli (GPa) = 46.98994 27.70991 63.97529
#
# Poissons Ratio (x) = 0.25035 0.41114
# Poissons Ratio (y) = 0.42454 0.70131
# Poissons Ratio (z) = 0.30198 0.30376
#
# Static dielectric constant tensor:
#      x y z
#    x 3.318730 0.000000 0.000000 
#    y 0.000000 2.944480 0.000000 
#    z 0.000000 0.000000 3.652920 
# 
# 
# High freq. dielectric constant tensor:
#      x y z
#    x 1.676690 0.000000 0.000000 
#    y 0.000000 1.631820 0.000000 
#    z 0.000000 0.000000 1.687680 
# 
# From -- ./inp_files/73220.got.cif
#   From: 2010.03.12/outbox.cif.g09.slc.cpg/sg65_37_cif.got.tgz:73220.got - 2010.04.10 20:52:16.
