data_PCOD8270363
_publ_section_title
;
Structure prediction by ZEFSAII (Michael W. Deem and Ramdas Pophale) SiO2 
 PCOD8270363
Probable space group: C M M M
;
_chemical_formula_sum "Si O2"
_cell_formula_units_Z 56
_cell_length_a 12.787858
_cell_length_b 20.213807
_cell_length_c 13.140592
_cell_angle_alpha 90.000000
_cell_angle_beta 90.000000
_cell_angle_gamma 90.000000
_cell_volume 3396.728624
_symmetry_space_group_name_H-M "C M M M"
_symmetry_group_IT_number 65
_symmetry_cell_setting 'orthorhombic'
loop_
_space_group_symop_operation_xyz
x,y,z
-x,-y,z
x,-y,-z
-x,y,-z
-x,-y,-z
x,y,-z
-x,y,z
x,-y,z
1/2+x,1/2+y,z
1/2-x,1/2-y,z
1/2+x,1/2-y,-z
1/2-x,1/2+y,-z
1/2-x,1/2-y,-z
1/2+x,1/2+y,-z
1/2-x,1/2+y,z
1/2+x,1/2-y,z
loop_
_atom_site_type_symbol
_atom_site_label
_atom_site_fract_x
_atom_site_fract_y
_atom_site_fract_z
Si Si1 0.617646 0.792224 0.381658
Si Si2 0.121349 0.924378 0.117187
Si Si3 0.000000 0.070887 0.616866
Si Si4 0.816418 0.154941 0.700570
O O1 0.634782 0.772604 0.500000
O O2 0.500000 0.818445 0.363942
O O3 0.699736 0.848850 0.347736
O O4 0.638903 0.729143 0.309635
O O5 0.187846 0.871612 0.183140
O O6 0.000000 0.917088 0.149415
O O7 0.158759 0.000000 0.135334
O O8 0.136854 0.904967 0.000000
O O9 0.106557 0.107948 0.640254
O O10 0.000000 0.057173 0.500000
O O11 0.000000 0.000000 0.674936
#
# Coordination Sequence:
#
# PCOD8270363 Si02
#       4
#    16  16   8  16
#     4  10  20  33  49  69 100 139 171 200 238 300
#     4   9  17  30  49  73  99 126 159 203 255 304
#     4  11  20  28  45  75 103 123 155 210 258 290
#     4  11  18  30  50  72  99 129 166 204 250 292
#
# _framework density 16.486450000000001
#
# number of rings (size 3 to 8) (size 9 to 14) (size 15 to 20)
#    0.000    1.857    2.857    5.143    0.000    0.000 
#    0.000    2.857    0.000    6.000    0.000   12.000 
#    0.000    0.000    0.000    0.000    0.000    0.000 
#
# Total GULP energy -347020.434578 kJ/mol
# GULP energy per Si atom -12393.586949 kJ/mol
# Density = 1.644893 g / cm^3
# Si number density = 16.486450 Si / 1000 Ang^3
#
#
#
# Elastic Constant Matrix: (Units=GPa)
#
#
# Indices 1 2 3 4 5 6 
#
# 1 142.4550 53.3429 43.5727 0.0000 0.0000 0.0000
# 2 53.3429 82.3834 45.1454 0.0000 0.0000 0.0000
# 3 43.5727 45.1454 95.5768 0.0000 0.0000 0.0000
# 4 0.0000 0.0000 0.0000 34.1784 0.0000 0.0000
# 5 0.0000 0.0000 0.0000 0.0000 26.0625 0.0000
# 6 0.0000 0.0000 0.0000 0.0000 0.0000 12.8704
#
#
#
# Elastic Compliance Matrix: (Units=1/GPa)
#
#
# Indices 1 2 3 4 5 6 
#
# 1 0.009523 -0.005109 -0.001928 0.000000 0.000000 0.000000
# 2 -0.005109 0.019119 -0.006701 0.000000 0.000000 0.000000
# 3 -0.001928 -0.006701 0.014507 0.000000 0.000000 0.000000
# 4 0.000000 0.000000 0.000000 0.029258 0.000000 0.000000
# 5 0.000000 0.000000 0.000000 0.000000 0.038369 0.000000
# 6 0.000000 0.000000 0.000000 0.000000 0.000000 0.077698
#
#
# Mechanical properties :
#
#
# Convention : Reuss Voigt Hill
#
# Bulk Modulus (GPa) = 63.81108 67.17082 65.49095
# Shear Modulus (GPa) = 22.60648 26.51253 24.55950
#
# Velocity S-wave (km/s) = 3.70701 4.01451 3.86382
# Velocity P-wave (km/s) = 7.55723 7.89430 7.72760
#
# Compressibility (1/GPa) = 0.01567126
#
# Stress axis : x y z
#
# Youngs Moduli (GPa) = 105.01228 52.30388 68.93171
#
# Poissons Ratio (x) = 0.26724 0.13289
# Poissons Ratio (y) = 0.53655 0.46194
# Poissons Ratio (z) = 0.20245 0.35051
#
# Static dielectric constant tensor:
#      x y z
#    x 3.363450 0.000000 0.000000 
#    y 0.000000 3.049150 0.000000 
#    z 0.000000 0.000000 3.232420 
# 
# 
# High freq. dielectric constant tensor:
#      x y z
#    x 1.620250 0.000000 0.000000 
#    y 0.000000 1.614870 0.000000 
#    z 0.000000 0.000000 1.640410 
# 
# From -- ./inp_files/39617.got.cif
#   From: 2010.03.12/outbox.cif.g09.slc.cpg/sg65_20_cif.got.tgz:39617.got - 2010.04.10 20:52:16.
