data_PCOD8270362
_publ_section_title
;
Structure prediction by ZEFSAII (Michael W. Deem and Ramdas Pophale) SiO2 
 PCOD8270362
Probable space group: C M M M
;
_chemical_formula_sum "Si O2"
_cell_formula_units_Z 80
_cell_length_a 9.643852
_cell_length_b 25.626898
_cell_length_c 20.095847
_cell_angle_alpha 90.000000
_cell_angle_beta 90.000000
_cell_angle_gamma 90.000000
_cell_volume 4966.528051
_symmetry_space_group_name_H-M "C M M M"
_symmetry_group_IT_number 65
_symmetry_cell_setting 'orthorhombic'
loop_
_space_group_symop_operation_xyz
x,y,z
-x,-y,z
x,-y,-z
-x,y,-z
-x,-y,-z
x,y,-z
-x,y,z
x,-y,z
1/2+x,1/2+y,z
1/2-x,1/2-y,z
1/2+x,1/2-y,-z
1/2-x,1/2+y,-z
1/2-x,1/2-y,-z
1/2+x,1/2+y,-z
1/2-x,1/2+y,z
1/2+x,1/2-y,z
loop_
_atom_site_type_symbol
_atom_site_label
_atom_site_fract_x
_atom_site_fract_y
_atom_site_fract_z
Si Si1 0.840329 0.937748 0.000000
Si Si2 0.500000 0.174880 0.578305
Si Si3 0.163409 0.057668 0.500000
Si Si4 0.000000 0.201770 0.576993
Si Si5 0.341797 0.061649 0.123061
Si Si6 0.340226 0.439829 0.751017
Si Si7 0.273140 0.627353 0.622977
O O1 0.754041 0.916395 0.936587
O O2 0.000000 0.916488 0.000000
O O3 0.845918 0.000000 0.000000
O O4 0.500000 0.158883 0.500000
O O5 0.500000 0.236737 0.584465
O O6 0.621967 0.150664 0.620923
O O7 0.214816 0.085428 0.434512
O O8 0.000000 0.055798 0.500000
O O9 0.227806 0.000000 0.500000
O O10 0.867682 0.177816 0.612631
O O11 0.000000 0.184475 0.500000
O O12 0.500000 0.084483 0.121172
O O13 0.264294 0.077315 0.190854
O O14 0.350928 0.000000 0.116200
O O15 0.500000 0.433295 0.774372
O O16 0.313631 0.500000 0.729787
O O17 0.308601 0.401262 0.690984
#
# Coordination Sequence:
#
# PCOD8270362 Si02
#       7
#     8   8   8   8  16  16  16
#     4   9  15  25  43  65  93 129 172 211 236 271
#     4  11  24  36  54  74  98 117 156 211 267 314
#     4  11  20  33  52  72  93 126 169 203 236 288
#     4  11  20  38  58  74  90 121 162 209 257 312
#     4   9  17  28  43  66  95 130 168 205 244 282
#     4  10  20  33  49  68  95 133 172 203 238 293
#     4  12  20  36  51  74  95 126 160 204 252 299
#
# _framework density 16.107832999999999
#
# number of rings (size 3 to 8) (size 9 to 14) (size 15 to 20)
#    0.000    1.600    4.000    2.100    1.400    6.800 
#    0.000    2.000    0.000    0.000    0.000    0.000 
#    0.000    0.000    0.000    5.400    0.000    0.700 
#
# Total GULP energy -495839.266803 kJ/mol
# GULP energy per Si atom -12395.981670 kJ/mol
# Density = 1.607117 g / cm^3
# Si number density = 16.107833 Si / 1000 Ang^3
#
#
#
# Elastic Constant Matrix: (Units=GPa)
#
#
# Indices 1 2 3 4 5 6 
#
# 1 148.7941 31.3704 55.4136 0.0000 0.0000 0.0000
# 2 31.3704 50.7182 27.6294 0.0000 0.0000 0.0000
# 3 55.4136 27.6294 105.9956 0.0000 0.0000 0.0000
# 4 0.0000 0.0000 0.0000 18.1773 0.0000 0.0000
# 5 0.0000 0.0000 0.0000 0.0000 34.7477 0.0000
# 6 0.0000 0.0000 0.0000 0.0000 0.0000 21.0092
#
#
#
# Elastic Compliance Matrix: (Units=1/GPa)
#
#
# Indices 1 2 3 4 5 6 
#
# 1 0.008831 -0.003435 -0.003721 0.000000 0.000000 0.000000
# 2 -0.003435 0.024316 -0.004543 0.000000 0.000000 0.000000
# 3 -0.003721 -0.004543 0.012564 0.000000 0.000000 0.000000
# 4 0.000000 0.000000 0.000000 0.055014 0.000000 0.000000
# 5 0.000000 0.000000 0.000000 0.000000 0.028779 0.000000
# 6 0.000000 0.000000 0.000000 0.000000 0.000000 0.047598
#
#
# Mechanical properties :
#
#
# Convention : Reuss Voigt Hill
#
# Bulk Modulus (GPa) = 44.81665 59.37054 52.09359
# Shear Modulus (GPa) = 24.04580 27.52649 25.78615
#
# Velocity S-wave (km/s) = 3.86787 4.13835 4.00540
# Velocity P-wave (km/s) = 6.91596 7.73129 7.33496
#
# Compressibility (1/GPa) = 0.02231314
#
# Stress axis : x y z
#
# Youngs Moduli (GPa) = 113.24084 41.12522 79.59289
#
# Poissons Ratio (x) = 0.14126 0.29619
# Poissons Ratio (y) = 0.38896 0.36156
# Poissons Ratio (z) = 0.42140 0.18682
#
# Static dielectric constant tensor:
#      x y z
#    x 3.265580 0.000000 0.000000 
#    y 0.000000 2.895660 0.000000 
#    z 0.000000 0.000000 3.189890 
# 
# 
# High freq. dielectric constant tensor:
#      x y z
#    x 1.639940 0.000000 0.000000 
#    y 0.000000 1.576950 0.000000 
#    z 0.000000 0.000000 1.613690 
# 
# From -- ./inp_files/50012.got.cif
#   From: 2010.03.12/outbox.cif.g09.slc.cpg/sg65_26_cif.got.tgz:50012.got - 2010.04.10 20:52:16.
