data_PCOD8270896
_publ_section_title
;
Structure prediction by ZEFSAII (Michael W. Deem and Ramdas Pophale) SiO2 
 PCOD8270896
Probable space group: C M M M
;
_chemical_formula_sum "Si O2"
_cell_formula_units_Z 128
_cell_length_a 17.989011
_cell_length_b 21.755462
_cell_length_c 18.216925
_cell_angle_alpha 90.000000
_cell_angle_beta 90.000000
_cell_angle_gamma 90.000000
_cell_volume 7129.362018
_symmetry_space_group_name_H-M "C M M M"
_symmetry_group_IT_number 65
_symmetry_cell_setting 'orthorhombic'
loop_
_space_group_symop_operation_xyz
x,y,z
-x,-y,z
x,-y,-z
-x,y,-z
-x,-y,-z
x,y,-z
-x,y,z
x,-y,z
1/2+x,1/2+y,z
1/2-x,1/2-y,z
1/2+x,1/2-y,-z
1/2-x,1/2+y,-z
1/2-x,1/2-y,-z
1/2+x,1/2+y,-z
1/2-x,1/2+y,z
1/2+x,1/2-y,z
loop_
_atom_site_type_symbol
_atom_site_label
_atom_site_fract_x
_atom_site_fract_y
_atom_site_fract_z
Si Si1 0.580833 0.570890 0.421079
Si Si2 0.706672 0.187429 0.581487
Si Si3 0.810734 0.198421 0.916234
Si Si4 0.085007 0.791510 0.214618
Si Si5 0.311179 0.620099 0.307176
Si Si6 0.325525 0.068546 0.767451
Si Si7 0.730731 0.930410 0.081718
Si Si8 0.916308 0.672987 0.307570
O O1 0.611535 0.597831 0.500000
O O2 0.500000 0.601687 0.405230
O O3 0.568906 0.500000 0.432448
O O4 0.632589 0.577961 0.351222
O O5 0.694173 0.159172 0.500000
O O6 0.750000 0.250000 0.573666
O O7 0.754943 0.144057 0.632018
O O8 0.627069 0.196880 0.620511
O O9 0.750000 0.250000 0.890829
O O10 0.884770 0.207518 0.868241
O O11 0.786372 0.127126 0.906828
O O12 0.832746 0.211996 0.000000
O O13 0.141528 0.828579 0.265960
O O14 0.087007 0.722146 0.242673
O O15 0.000000 0.817185 0.216661
O O16 0.261612 0.582613 0.249289
O O17 0.333141 0.075390 0.856026
O O18 0.382524 0.110948 0.724889
O O19 0.344541 0.000000 0.741505
O O20 0.767486 0.000000 0.089356
O O21 0.695328 0.924502 0.000000
O O22 0.000000 0.660011 0.333045
#
# Coordination Sequence:
#
# PCOD8270896 Si02
#       8
#    16  16  16  16  16  16  16  16
#     4   9  18  32  48  68 100 139 172 207 255 307
#     4  10  20  34  54  79 104 135 173 216 265 317
#     4  10  20  34  56  80 105 144 187 227 273 322
#     4  11  22  34  52  79 111 148 179 215 276 330
#     4  11  19  32  53  76 107 134 171 224 262 311
#     4  10  20  33  56  83 103 137 185 226 267 314
#     4   9  17  31  52  80 111 140 177 225 273 319
#     4  10  22  38  55  78 112 146 174 217 276 329
#
# _framework density 17.953921000000001
#
# number of rings (size 3 to 8) (size 9 to 14) (size 15 to 20)
#    0.000    2.000    2.500    2.250    1.750    0.750 
#    0.000    0.000    0.000    5.625    0.000    7.000 
#    0.000    0.000    0.000    0.000    0.000    0.000 
#
# Total GULP energy -792935.030495 kJ/mol
# GULP energy per Si atom -12389.609851 kJ/mol
# Density = 1.791306 g / cm^3
# Si number density = 17.953921 Si / 1000 Ang^3
#
#
#
# Elastic Constant Matrix: (Units=GPa)
#
#
# Indices 1 2 3 4 5 6 
#
# 1 110.7071 34.9463 54.7645 0.0000 0.0000 0.0000
# 2 34.9463 82.7486 27.5080 0.0000 0.0000 0.0000
# 3 54.7645 27.5080 113.3666 0.0000 0.0000 0.0000
# 4 0.0000 0.0000 0.0000 24.2879 0.0000 0.0000
# 5 0.0000 0.0000 0.0000 0.0000 -7.7756 0.0000
# 6 0.0000 0.0000 0.0000 0.0000 0.0000 20.3726
#
#
#
# Elastic Compliance Matrix: (Units=1/GPa)
#
#
# Indices 1 2 3 4 5 6 
#
# 1 0.012806 -0.003646 -0.005302 0.000000 0.000000 0.000000
# 2 -0.003646 0.014183 -0.001680 0.000000 0.000000 0.000000
# 3 -0.005302 -0.001680 0.011790 0.000000 0.000000 0.000000
# 4 0.000000 0.000000 0.000000 0.041173 0.000000 0.000000
# 5 0.000000 0.000000 0.000000 0.000000 -0.128608 0.000000
# 6 0.000000 0.000000 0.000000 0.000000 0.000000 0.049086
#
#
# Mechanical properties :
#
#
# Convention : Reuss Voigt Hill
#
# Bulk Modulus (GPa) = 57.06642 60.13999 58.60321
# Shear Modulus (GPa) = 181.64181 20.01722 100.82952
#
# Velocity S-wave (km/s) = 10.06930 3.34267 7.50214
# Velocity P-wave (km/s) = 12.92446 6.96186 10.38049
#
# Compressibility (1/GPa) = 0.01752344
#
# Stress axis : x y z
#
# Youngs Moduli (GPa) = 78.08590 70.50649 84.81913
#
# Poissons Ratio (x) = 0.25706 0.44969
# Poissons Ratio (y) = 0.28470 0.14252
# Poissons Ratio (z) = 0.41399 0.11847
#
# Static dielectric constant tensor:
#      x y z
#    x 3.297570 0.000000 0.000000 
#    y 0.000000 3.389040 0.000000 
#    z 0.000000 0.000000 3.726720 
# 
# 
# High freq. dielectric constant tensor:
#      x y z
#    x 1.669610 0.000000 0.000000 
#    y 0.000000 1.692880 0.000000 
#    z 0.000000 0.000000 1.712500 
# 
# From -- ./inp_files/55110.got.cif
#   From: 2010.03.12/outbox.cif.g09.slc.cpg/sg65_28_cif.got.tgz:55110.got - 2010.04.10 20:52:16.
