data_PCOD8270979
_publ_section_title
;
Structure prediction by ZEFSAII (Michael W. Deem and Ramdas Pophale) SiO2 
 PCOD8270979
Probable space group: C M M M
;
_chemical_formula_sum "Si O2"
_cell_formula_units_Z 80
_cell_length_a 17.541716
_cell_length_b 17.696467
_cell_length_c 14.292961
_cell_angle_alpha 90.000000
_cell_angle_beta 90.000000
_cell_angle_gamma 90.000000
_cell_volume 4436.912405
_symmetry_space_group_name_H-M "C M M M"
_symmetry_group_IT_number 65
_symmetry_cell_setting 'orthorhombic'
loop_
_space_group_symop_operation_xyz
x,y,z
-x,-y,z
x,-y,-z
-x,y,-z
-x,-y,-z
x,y,-z
-x,y,z
x,-y,z
1/2+x,1/2+y,z
1/2-x,1/2-y,z
1/2+x,1/2-y,-z
1/2-x,1/2+y,-z
1/2-x,1/2-y,-z
1/2+x,1/2+y,-z
1/2-x,1/2+y,z
1/2+x,1/2-y,z
loop_
_atom_site_type_symbol
_atom_site_label
_atom_site_fract_x
_atom_site_fract_y
_atom_site_fract_z
Si Si1 0.837819 0.234882 0.391666
Si Si2 0.089391 0.704898 0.780293
Si Si3 0.183060 0.810840 0.897193
Si Si4 0.585131 0.582870 0.610582
Si Si5 0.812734 0.586637 0.109848
O O1 0.858283 0.249928 0.500000
O O2 0.750000 0.250000 0.370048
O O3 0.887244 0.292814 0.329217
O O4 0.856434 0.148801 0.360137
O O5 0.117932 0.784126 0.825850
O O6 0.125835 0.632871 0.830645
O O7 0.000000 0.697927 0.791245
O O8 0.250000 0.750000 0.899704
O O9 0.225440 0.888363 0.866277
O O10 0.145711 0.819502 0.000000
O O11 0.581725 0.578757 0.500000
O O12 0.500000 0.602054 0.648701
O O13 0.611475 0.500000 0.648984
O O14 0.822215 0.500000 0.137861
O O15 0.828965 0.601058 0.000000
#
# Coordination Sequence:
#
# PCOD8270979 Si02
#       5
#    16  16  16  16  16
#     4  10  20  34  51  71  99 137 180 220 256 301
#     4  11  21  32  50  76 106 137 168 208 259 311
#     4   8  15  30  51  74 100 128 159 198 247 302
#     4   8  14  27  49  74  96 118 150 201 261 306
#     4   9  18  34  57  81 103 132 172 216 257 297
#
# _framework density 18.030556000000001
#
# number of rings (size 3 to 8) (size 9 to 14) (size 15 to 20)
#    0.000    2.800    0.000    4.800    0.000    3.200 
#    0.000    5.000    0.000    3.600    0.000    4.200 
#    0.000    0.000    0.000    0.000    0.000    0.000 
#
# Total GULP energy -495691.867296 kJ/mol
# GULP energy per Si atom -12392.296682 kJ/mol
# Density = 1.798952 g / cm^3
# Si number density = 18.030556 Si / 1000 Ang^3
#
#
#
# Elastic Constant Matrix: (Units=GPa)
#
#
# Indices 1 2 3 4 5 6 
#
# 1 94.8860 71.6484 39.9464 0.0000 0.0000 0.0000
# 2 71.6484 131.9737 48.7914 0.0000 0.0000 0.0000
# 3 39.9464 48.7914 78.0864 0.0000 0.0000 0.0000
# 4 0.0000 0.0000 0.0000 19.5187 0.0000 0.0000
# 5 0.0000 0.0000 0.0000 0.0000 8.1067 0.0000
# 6 0.0000 0.0000 0.0000 0.0000 0.0000 28.2691
#
#
#
# Elastic Compliance Matrix: (Units=1/GPa)
#
#
# Indices 1 2 3 4 5 6 
#
# 1 0.018878 -0.008685 -0.004231 0.000000 0.000000 0.000000
# 2 -0.008685 0.013849 -0.004210 0.000000 0.000000 0.000000
# 3 -0.004231 -0.004210 0.017602 0.000000 0.000000 0.000000
# 4 0.000000 0.000000 0.000000 0.051233 0.000000 0.000000
# 5 0.000000 0.000000 0.000000 0.000000 0.123354 0.000000
# 6 0.000000 0.000000 0.000000 0.000000 0.000000 0.035374
#
#
# Mechanical properties :
#
#
# Convention : Reuss Voigt Hill
#
# Bulk Modulus (GPa) = 62.20316 69.52429 65.86372
# Shear Modulus (GPa) = 16.67222 20.81623 18.74423
#
# Velocity S-wave (km/s) = 3.04413 3.40148 3.22775
# Velocity P-wave (km/s) = 6.85049 7.35320 7.10629
#
# Compressibility (1/GPa) = 0.01607635
#
# Stress axis : x y z
#
# Youngs Moduli (GPa) = 52.97214 72.20857 56.81323
#
# Poissons Ratio (x) = 0.62710 0.24037
# Poissons Ratio (y) = 0.46004 0.23921
# Poissons Ratio (z) = 0.22411 0.30403
#
# Static dielectric constant tensor:
#      x y z
#    x 3.234000 0.000000 0.000000 
#    y 0.000000 3.744610 0.000000 
#    z 0.000000 0.000000 3.303690 
# 
# 
# High freq. dielectric constant tensor:
#      x y z
#    x 1.679280 0.000000 0.000000 
#    y 0.000000 1.688130 0.000000 
#    z 0.000000 0.000000 1.692170 
# 
# From -- ./inp_files/42328.got.cif
#   From: 2010.03.12/outbox.cif.g09.slc.cpg/sg65_22_cif.got.tgz:42328.got - 2010.04.10 20:52:16.
