data_PCOD8270545
_publ_section_title
;
Structure prediction by ZEFSAII (Michael W. Deem and Ramdas Pophale) SiO2 
 PCOD8270545
Probable space group: C M M M
;
_chemical_formula_sum "Si O2"
_cell_formula_units_Z 88
_cell_length_a 9.183144
_cell_length_b 19.683111
_cell_length_c 27.506821
_cell_angle_alpha 90.000000
_cell_angle_beta 90.000000
_cell_angle_gamma 90.000000
_cell_volume 4971.936089
_symmetry_space_group_name_H-M "C M M M"
_symmetry_group_IT_number 65
_symmetry_cell_setting 'orthorhombic'
loop_
_space_group_symop_operation_xyz
x,y,z
-x,-y,z
x,-y,-z
-x,y,-z
-x,-y,-z
x,y,-z
-x,y,z
x,-y,z
1/2+x,1/2+y,z
1/2-x,1/2-y,z
1/2+x,1/2-y,-z
1/2-x,1/2+y,-z
1/2-x,1/2-y,-z
1/2+x,1/2+y,-z
1/2-x,1/2+y,z
1/2+x,1/2-y,z
loop_
_atom_site_type_symbol
_atom_site_label
_atom_site_fract_x
_atom_site_fract_y
_atom_site_fract_z
Si Si1 0.170587 0.818430 0.308818
Si Si2 0.833123 0.579930 0.241750
Si Si3 0.670117 0.318121 0.420586
Si Si4 0.329629 0.180715 0.944940
Si Si5 0.172495 0.076262 0.500000
Si Si6 0.827608 0.425258 0.867261
O O1 0.250000 0.750000 0.291304
O O2 0.226855 0.881792 0.278173
O O3 0.207934 0.834250 0.364805
O O4 0.000000 0.808922 0.300216
O O5 0.812000 0.500000 0.249488
O O6 0.787886 0.600467 0.186811
O O7 0.000000 0.600792 0.252126
O O8 0.500000 0.305309 0.428547
O O9 0.750000 0.250000 0.438399
O O10 0.724520 0.382369 0.452259
O O11 0.500000 0.192267 0.936495
O O12 0.250000 0.250000 0.932556
O O13 0.264344 0.124934 0.908123
O O14 0.297292 0.156753 0.000000
O O15 0.000000 0.069735 0.500000
O O16 0.240935 0.000000 0.500000
O O17 0.760069 0.500000 0.876298
O O18 0.000000 0.430201 0.872123
#
# Coordination Sequence:
#
# PCOD8270545 Si02
#       6
#    16  16  16  16   8  16
#     4  10  20  33  50  73  99 126 161 202 239 280
#     4   9  18  33  51  70  96 129 160 194 240 288
#     4   9  18  32  51  72  94 124 157 192 233 276
#     4   9  17  29  46  68  93 120 150 187 231 276
#     4   9  17  30  49  73  98 123 154 190 230 277
#     4   8  15  29  48  69  92 119 154 193 230 272
#
# _framework density 17.699342000000001
#
# number of rings (size 3 to 8) (size 9 to 14) (size 15 to 20)
#    0.000    3.000    0.000    1.909    0.000    2.909 
#    0.000    6.364    0.000    2.727    0.000    2.545 
#    0.000    0.000    0.000    0.000    0.000    0.000 
#
# Total GULP energy -545518.740346 kJ/mol
# GULP energy per Si atom -12398.153190 kJ/mol
# Density = 1.765906 g / cm^3
# Si number density = 17.699342 Si / 1000 Ang^3
#
#
#
# Elastic Constant Matrix: (Units=GPa)
#
#
# Indices 1 2 3 4 5 6 
#
# 1 44.5917 40.9669 37.2180 0.0000 0.0000 0.0000
# 2 40.9669 124.8390 84.5596 0.0000 0.0000 0.0000
# 3 37.2180 84.5596 115.8710 0.0000 0.0000 0.0000
# 4 0.0000 0.0000 0.0000 35.5944 0.0000 0.0000
# 5 0.0000 0.0000 0.0000 0.0000 17.0839 0.0000
# 6 0.0000 0.0000 0.0000 0.0000 0.0000 28.1657
#
#
#
# Elastic Compliance Matrix: (Units=1/GPa)
#
#
# Indices 1 2 3 4 5 6 
#
# 1 0.033763 -0.007384 -0.005456 0.000000 0.000000 0.000000
# 2 -0.007384 0.017455 -0.010367 0.000000 0.000000 0.000000
# 3 -0.005456 -0.010367 0.017948 0.000000 0.000000 0.000000
# 4 0.000000 0.000000 0.000000 0.028094 0.000000 0.000000
# 5 0.000000 0.000000 0.000000 0.000000 0.058535 0.000000
# 6 0.000000 0.000000 0.000000 0.000000 0.000000 0.035504
#
#
# Mechanical properties :
#
#
# Convention : Reuss Voigt Hill
#
# Bulk Modulus (GPa) = 43.95005 67.86561 55.90783
# Shear Modulus (GPa) = 20.38337 24.33928 22.36132
#
# Velocity S-wave (km/s) = 3.39727 3.71233 3.55829
# Velocity P-wave (km/s) = 6.34618 7.53671 6.96692
#
# Compressibility (1/GPa) = 0.02275310
#
# Stress axis : x y z
#
# Youngs Moduli (GPa) = 29.61792 57.28942 55.71602
#
# Poissons Ratio (x) = 0.42302 0.30400
# Poissons Ratio (y) = 0.21870 0.57759
# Poissons Ratio (z) = 0.16160 0.59390
#
# Static dielectric constant tensor:
#      x y z
#    x 2.999830 0.000000 0.000000 
#    y 0.000000 3.494350 0.000000 
#    z 0.000000 0.000000 3.456000 
# 
# 
# High freq. dielectric constant tensor:
#      x y z
#    x 1.654200 0.000000 0.000000 
#    y 0.000000 1.684800 0.000000 
#    z 0.000000 0.000000 1.692680 
# 
# From -- ./inp_files/75317.got.cif
#   From: 2010.03.12/outbox.cif.g09.slc.cpg/sg65_38_cif.got.tgz:75317.got - 2010.04.10 20:52:16.
