data_PCOD8270709
_publ_section_title
;
Structure prediction by ZEFSAII (Michael W. Deem and Ramdas Pophale) SiO2 
 PCOD8270709
Probable space group: C M M M
;
_chemical_formula_sum "Si O2"
_cell_formula_units_Z 104
_cell_length_a 28.910358
_cell_length_b 8.924366
_cell_length_c 22.728334
_cell_angle_alpha 90.000000
_cell_angle_beta 90.000000
_cell_angle_gamma 90.000000
_cell_volume 5864.060542
_symmetry_space_group_name_H-M "C M M M"
_symmetry_group_IT_number 65
_symmetry_cell_setting 'orthorhombic'
loop_
_space_group_symop_operation_xyz
x,y,z
-x,-y,z
x,-y,-z
-x,y,-z
-x,-y,-z
x,y,-z
-x,y,z
x,-y,z
1/2+x,1/2+y,z
1/2-x,1/2-y,z
1/2+x,1/2-y,-z
1/2-x,1/2+y,-z
1/2-x,1/2-y,-z
1/2+x,1/2+y,-z
1/2-x,1/2+y,z
1/2+x,1/2-y,z
loop_
_atom_site_type_symbol
_atom_site_label
_atom_site_fract_x
_atom_site_fract_y
_atom_site_fract_z
Si Si1 0.296278 0.175533 0.932838
Si Si2 0.053861 0.824119 0.783587
Si Si3 0.054529 0.174068 0.000000
Si Si4 0.895682 0.322470 0.109126
Si Si5 0.795004 0.331881 0.430062
Si Si6 0.554423 0.168505 0.336044
Si Si7 0.111847 0.824384 0.568161
O O1 0.250000 0.250000 0.905761
O O2 0.341684 0.223628 0.896256
O O3 0.288734 0.000000 0.929957
O O4 0.303731 0.229650 0.000000
O O5 0.085434 0.736705 0.829439
O O6 0.069732 0.767166 0.719706
O O7 0.000000 0.786990 0.795451
O O8 0.063316 0.000000 0.788427
O O9 0.074907 0.249588 0.057585
O O10 0.000000 0.198760 0.000000
O O11 0.067659 0.000000 0.000000
O O12 0.901683 0.500000 0.104908
O O13 0.791921 0.336287 0.500000
O O14 0.797890 0.500000 0.404545
O O15 0.750000 0.250000 0.403711
O O16 0.839212 0.238188 0.409334
O O17 0.500000 0.164485 0.341335
O O18 0.571950 0.244337 0.395529
O O19 0.574226 0.000000 0.329564
O O20 0.103600 0.785322 0.500000
O O21 0.110630 0.000000 0.579695
#
# Coordination Sequence:
#
# PCOD8270709 Si02
#       7
#    16  16   8  16  16  16  16
#     4   9  18  33  51  75 105 137 175 216 258 307
#     4  10  21  37  56  78 104 136 176 217 258 313
#     4  11  23  35  48  73 108 141 174 213 258 307
#     4  11  21  35  54  78 107 138 174 215 262 312
#     4   9  16  27  45  70 101 135 170 208 251 303
#     4  10  21  37  56  77 102 136 178 220 264 315
#     4  10  20  33  51  77 108 140 174 215 266 319
#
# _framework density 17.735151999999999
#
# number of rings (size 3 to 8) (size 9 to 14) (size 15 to 20)
#    0.000    2.077    0.769    3.000    0.000    8.615 
#    0.000    1.538    0.000    0.923    0.000    4.308 
#    0.000    0.000    0.000    0.000    0.000    0.000 
#
# Total GULP energy -644887.228723 kJ/mol
# GULP energy per Si atom -12401.677475 kJ/mol
# Density = 1.769479 g / cm^3
# Si number density = 17.735152 Si / 1000 Ang^3
#
#
#
# Elastic Constant Matrix: (Units=GPa)
#
#
# Indices 1 2 3 4 5 6 
#
# 1 86.5141 59.9976 55.9444 0.0000 0.0000 0.0000
# 2 59.9976 105.4337 43.0648 0.0000 0.0000 0.0000
# 3 55.9444 43.0648 77.3397 0.0000 0.0000 0.0000
# 4 0.0000 0.0000 0.0000 31.0521 0.0000 0.0000
# 5 0.0000 0.0000 0.0000 0.0000 1.3377 0.0000
# 6 0.0000 0.0000 0.0000 0.0000 0.0000 34.9403
#
#
#
# Elastic Compliance Matrix: (Units=1/GPa)
#
#
# Indices 1 2 3 4 5 6 
#
# 1 0.027909 -0.009884 -0.014685 0.000000 0.000000 0.000000
# 2 -0.009884 0.015777 -0.001636 0.000000 0.000000 0.000000
# 3 -0.014685 -0.001636 0.024463 0.000000 0.000000 0.000000
# 4 0.000000 0.000000 0.000000 0.032204 0.000000 0.000000
# 5 0.000000 0.000000 0.000000 0.000000 0.747526 0.000000
# 6 0.000000 0.000000 0.000000 0.000000 0.000000 0.028620
#
#
# Mechanical properties :
#
#
# Convention : Reuss Voigt Hill
#
# Bulk Modulus (GPa) = 63.52826 65.25567 64.39197
# Shear Modulus (GPa) = 5.35243 20.81808 13.08526
#
# Velocity S-wave (km/s) = 1.73912 3.42984 2.71922
# Velocity P-wave (km/s) = 6.31910 7.24979 6.80039
#
# Compressibility (1/GPa) = 0.01574103
#
# Stress axis : x y z
#
# Youngs Moduli (GPa) = 35.83058 63.38292 40.87799
#
# Poissons Ratio (x) = 0.62646 0.60028
# Poissons Ratio (y) = 0.35414 0.06686
# Poissons Ratio (z) = 0.52616 0.10367
#
# Static dielectric constant tensor:
#      x y z
#    x 3.384970 0.000000 0.000000 
#    y 0.000000 3.496780 0.000000 
#    z 0.000000 0.000000 3.084140 
# 
# 
# High freq. dielectric constant tensor:
#      x y z
#    x 1.688730 0.000000 0.000000 
#    y 0.000000 1.704000 0.000000 
#    z 0.000000 0.000000 1.657500 
# 
# From -- ./inp_files/66425.got.cif
#   From: 2010.03.12/outbox.cif.g09.slc.cpg/sg65_34_cif.got.tgz:66425.got - 2010.04.10 20:52:16.
