data_PCOD8270059
_publ_section_title
;
Structure prediction by ZEFSAII (Michael W. Deem and Ramdas Pophale) SiO2 
 PCOD8270059
Probable space group: C M M M
;
_chemical_formula_sum "Si O2"
_cell_formula_units_Z 96
_cell_length_a 27.150681
_cell_length_b 8.993732
_cell_length_c 23.439174
_cell_angle_alpha 90.000000
_cell_angle_beta 90.000000
_cell_angle_gamma 90.000000
_cell_volume 5723.516936
_symmetry_space_group_name_H-M "C M M M"
_symmetry_group_IT_number 65
_symmetry_cell_setting 'orthorhombic'
loop_
_space_group_symop_operation_xyz
x,y,z
-x,-y,z
x,-y,-z
-x,y,-z
-x,-y,-z
x,y,-z
-x,y,z
x,-y,z
1/2+x,1/2+y,z
1/2-x,1/2-y,z
1/2+x,1/2-y,-z
1/2-x,1/2+y,-z
1/2-x,1/2-y,-z
1/2+x,1/2+y,-z
1/2-x,1/2+y,z
1/2+x,1/2-y,z
loop_
_atom_site_type_symbol
_atom_site_label
_atom_site_fract_x
_atom_site_fract_y
_atom_site_fract_z
Si Si1 0.699622 0.828255 0.729753
Si Si2 0.639943 0.176076 0.839783
Si Si3 0.398409 0.174183 0.331558
Si Si4 0.443122 0.671380 0.773695
Si Si5 0.699045 0.672572 0.933835
Si Si6 0.056841 0.828362 0.434801
O O1 0.750000 0.750000 0.713062
O O2 0.679985 0.778810 0.791861
O O3 0.658373 0.788478 0.682729
O O4 0.711648 0.000000 0.730190
O O5 0.587007 0.238972 0.821481
O O6 0.655070 0.251162 0.899123
O O7 0.635736 0.000000 0.847150
O O8 0.434405 0.261401 0.288973
O O9 0.408979 0.225150 0.395826
O O10 0.408742 0.000000 0.323972
O O11 0.500000 0.687696 0.789850
O O12 0.426399 0.500000 0.773434
O O13 0.703265 0.500000 0.917856
O O14 0.750000 0.750000 0.916822
O O15 0.686740 0.696537 0.000000
O O16 0.071680 0.796659 0.500000
O O17 0.000000 0.786787 0.424635
O O18 0.065957 0.000000 0.419360
#
# Coordination Sequence:
#
# PCOD8270059 Si02
#       6
#    16  16  16  16  16  16
#     4   9  19  32  46  68  95 123 155 192 234 279
#     4  10  20  33  50  73 100 128 160 200 245 290
#     4  10  20  32  47  71 100 126 157 197 239 284
#     4  10  20  33  50  72  98 129 163 197 237 287
#     4  10  20  33  50  73 101 132 165 201 242 288
#     4   9  18  32  49  70  96 125 158 195 235 283
#
# _framework density 16.772904
#
# number of rings (size 3 to 8) (size 9 to 14) (size 15 to 20)
#    0.000    2.333    0.000    4.500    0.000   10.333 
#    0.000    0.833    0.000    1.000    0.000    3.500 
#    0.000    0.000    0.000    0.000    0.000    0.000 
#
# Total GULP energy -595328.397001 kJ/mol
# GULP energy per Si atom -12402.674938 kJ/mol
# Density = 1.673473 g / cm^3
# Si number density = 16.772904 Si / 1000 Ang^3
#
#
#
# Elastic Constant Matrix: (Units=GPa)
#
#
# Indices 1 2 3 4 5 6 
#
# 1 93.7067 54.9998 50.4850 0.0000 0.0000 0.0000
# 2 54.9998 100.9941 52.4607 0.0000 0.0000 0.0000
# 3 50.4850 52.4607 91.6448 0.0000 0.0000 0.0000
# 4 0.0000 0.0000 0.0000 31.7253 0.0000 0.0000
# 5 0.0000 0.0000 0.0000 0.0000 26.6415 0.0000
# 6 0.0000 0.0000 0.0000 0.0000 0.0000 31.5447
#
#
#
# Elastic Compliance Matrix: (Units=1/GPa)
#
#
# Indices 1 2 3 4 5 6 
#
# 1 0.017763 -0.006533 -0.006045 0.000000 0.000000 0.000000
# 2 -0.006533 0.016495 -0.005843 0.000000 0.000000 0.000000
# 3 -0.006045 -0.005843 0.017587 0.000000 0.000000 0.000000
# 4 0.000000 0.000000 0.000000 0.031521 0.000000 0.000000
# 5 0.000000 0.000000 0.000000 0.000000 0.037535 0.000000
# 6 0.000000 0.000000 0.000000 0.000000 0.000000 0.031701
#
#
# Mechanical properties :
#
#
# Convention : Reuss Voigt Hill
#
# Bulk Modulus (GPa) = 66.66227 66.91518 66.78872
# Shear Modulus (GPa) = 25.71409 26.54229 26.12819
#
# Velocity S-wave (km/s) = 3.91970 3.98232 3.95113
# Velocity P-wave (km/s) = 7.76632 7.81835 7.79238
#
# Compressibility (1/GPa) = 0.01500099
#
# Stress axis : x y z
#
# Youngs Moduli (GPa) = 56.29589 60.62567 56.86090
#
# Poissons Ratio (x) = 0.39609 0.34375
# Poissons Ratio (y) = 0.36780 0.33224
# Poissons Ratio (z) = 0.34034 0.35424
#
# Static dielectric constant tensor:
#      x y z
#    x 3.023670 0.000000 0.000000 
#    y 0.000000 3.220420 0.000000 
#    z 0.000000 0.000000 3.071580 
# 
# 
# High freq. dielectric constant tensor:
#      x y z
#    x 1.634120 0.000000 0.000000 
#    y 0.000000 1.660430 0.000000 
#    z 0.000000 0.000000 1.635970 
# 
# From -- ./inp_files/60219.got.cif
#   From: 2010.03.12/outbox.cif.g09.slc.cpg/sg65_31_cif.got.tgz:60219.got - 2010.04.10 20:52:16.
