data_PCOD8270323
_publ_section_title
;
Structure prediction by ZEFSAII (Michael W. Deem and Ramdas Pophale) SiO2 
 PCOD8270323
Probable space group: C M M M
;
_chemical_formula_sum "Si O2"
_cell_formula_units_Z 88
_cell_length_a 30.343170
_cell_length_b 19.583347
_cell_length_c 8.546861
_cell_angle_alpha 90.000000
_cell_angle_beta 90.000000
_cell_angle_gamma 90.000000
_cell_volume 5078.722813
_symmetry_space_group_name_H-M "C M M M"
_symmetry_group_IT_number 65
_symmetry_cell_setting 'orthorhombic'
loop_
_space_group_symop_operation_xyz
x,y,z
-x,-y,z
x,-y,-z
-x,y,-z
-x,-y,-z
x,y,-z
-x,y,z
x,-y,z
1/2+x,1/2+y,z
1/2-x,1/2-y,z
1/2+x,1/2-y,-z
1/2-x,1/2+y,-z
1/2-x,1/2-y,-z
1/2+x,1/2+y,-z
1/2-x,1/2+y,z
1/2+x,1/2-y,z
loop_
_atom_site_type_symbol
_atom_site_label
_atom_site_fract_x
_atom_site_fract_y
_atom_site_fract_z
Si Si1 0.549924 0.856985 0.684509
Si Si2 0.552343 0.000000 0.177002
Si Si3 0.671562 0.076477 0.678900
Si Si4 0.206550 0.791472 0.317115
Si Si5 0.234925 0.924687 0.179310
Si Si6 0.630864 0.797510 0.820574
O O1 0.552763 0.851333 0.500000
O O2 0.500000 0.845606 0.744613
O O3 0.568323 0.931713 0.733688
O O4 0.580260 0.797407 0.760041
O O5 0.500000 0.000000 0.177789
O O6 0.570673 0.000000 0.000000
O O7 0.662468 0.099448 0.500000
O O8 0.723507 0.080952 0.706976
O O9 0.647280 0.125212 0.799874
O O10 0.654108 0.000000 0.710124
O O11 0.210078 0.804756 0.500000
O O12 0.250000 0.750000 0.257948
O O13 0.202075 0.864139 0.228973
O O14 0.161755 0.751587 0.280622
O O15 0.212799 0.000000 0.200539
O O16 0.249824 0.914673 0.000000
O O17 0.632895 0.774854 0.000000
#
# Coordination Sequence:
#
# PCOD8270323 Si02
#       6
#    16   8  16  16  16  16
#     4  10  21  37  54  71  96 130 169 213 260 310
#     4   9  17  31  51  73  97 127 167 215 263 305
#     4  10  20  33  48  68  97 133 174 215 255 303
#     4  11  22  36  54  75 103 138 174 212 254 304
#     4  10  20  34  53  76 102 133 170 212 257 303
#     4  12  24  35  52  74 100 133 171 217 263 308
#
# _framework density 17.327190000000002
#
# number of rings (size 3 to 8) (size 9 to 14) (size 15 to 20)
#    0.000    1.545    1.818    4.091    1.273    5.091 
#    0.000    0.000    0.000    0.000    0.000    0.000 
#    0.000    0.727    0.000    7.636    0.000    3.273 
#
# Total GULP energy -545585.307135 kJ/mol
# GULP energy per Si atom -12399.666071 kJ/mol
# Density = 1.728775 g / cm^3
# Si number density = 17.327190 Si / 1000 Ang^3
#
#
#
# Elastic Constant Matrix: (Units=GPa)
#
#
# Indices 1 2 3 4 5 6 
#
# 1 74.7314 40.3231 6.8383 0.0000 0.0000 0.0000
# 2 40.3231 88.0389 23.2863 0.0000 0.0000 0.0000
# 3 6.8383 23.2863 62.6251 0.0000 0.0000 0.0000
# 4 0.0000 0.0000 0.0000 27.3256 0.0000 0.0000
# 5 0.0000 0.0000 0.0000 0.0000 23.7357 0.0000
# 6 0.0000 0.0000 0.0000 0.0000 0.0000 26.3409
#
#
#
# Elastic Compliance Matrix: (Units=1/GPa)
#
#
# Indices 1 2 3 4 5 6 
#
# 1 0.017856 -0.008498 0.001210 0.000000 0.000000 0.000000
# 2 -0.008498 0.016642 -0.005260 0.000000 0.000000 0.000000
# 3 0.001210 -0.005260 0.017792 0.000000 0.000000 0.000000
# 4 0.000000 0.000000 0.000000 0.036596 0.000000 0.000000
# 5 0.000000 0.000000 0.000000 0.000000 0.042131 0.000000
# 6 0.000000 0.000000 0.000000 0.000000 0.000000 0.037964
#
#
# Mechanical properties :
#
#
# Convention : Reuss Voigt Hill
#
# Bulk Modulus (GPa) = 36.77367 40.69898 38.73632
# Shear Modulus (GPa) = 24.61337 25.81030 25.21183
#
# Velocity S-wave (km/s) = 3.77305 3.86370 3.81864
# Velocity P-wave (km/s) = 6.34432 6.59119 6.46893
#
# Compressibility (1/GPa) = 0.02719337
#
# Stress axis : x y z
#
# Youngs Moduli (GPa) = 56.00338 60.08760 56.20550
#
# Poissons Ratio (x) = 0.51065 -0.06802
# Poissons Ratio (y) = 0.47594 0.29566
# Poissons Ratio (z) = -0.06778 0.31608
#
# Static dielectric constant tensor:
#      x y z
#    x 3.186110 0.000000 0.000000 
#    y 0.000000 3.209180 0.000000 
#    z 0.000000 0.000000 3.249060 
# 
# 
# High freq. dielectric constant tensor:
#      x y z
#    x 1.646790 0.000000 0.000000 
#    y 0.000000 1.641910 0.000000 
#    z 0.000000 0.000000 1.684450 
# 
# From -- ./inp_files/12626.got.cif
#   From: 2010.03.12/outbox.cif.g09.slc.cpg/sg65_7_cif.got.tgz:12626.got - 2010.04.10 20:52:16.
