data_PCOD8270751
_publ_section_title
;
Structure prediction by ZEFSAII (Michael W. Deem and Ramdas Pophale) SiO2 
 PCOD8270751
Probable space group: C M M M
;
_chemical_formula_sum "Si O2"
_cell_formula_units_Z 88
_cell_length_a 23.605934
_cell_length_b 21.804320
_cell_length_c 8.924112
_cell_angle_alpha 90.000000
_cell_angle_beta 90.000000
_cell_angle_gamma 90.000000
_cell_volume 4593.341635
_symmetry_space_group_name_H-M "C M M M"
_symmetry_group_IT_number 65
_symmetry_cell_setting 'orthorhombic'
loop_
_space_group_symop_operation_xyz
x,y,z
-x,-y,z
x,-y,-z
-x,y,-z
-x,-y,-z
x,y,-z
-x,y,z
x,-y,z
1/2+x,1/2+y,z
1/2-x,1/2-y,z
1/2+x,1/2-y,-z
1/2-x,1/2+y,-z
1/2-x,1/2-y,-z
1/2+x,1/2+y,-z
1/2-x,1/2+y,z
1/2+x,1/2-y,z
loop_
_atom_site_type_symbol
_atom_site_label
_atom_site_fract_x
_atom_site_fract_y
_atom_site_fract_z
Si Si1 0.743122 0.933591 0.830934
Si Si2 0.066880 0.000000 0.177110
Si Si3 0.933562 0.568673 0.667329
Si Si4 0.147833 0.096345 0.676640
Si Si5 0.145496 0.655567 0.825047
Si Si6 0.312650 0.730605 0.322783
O O1 0.795985 0.940346 0.720021
O O2 0.700209 0.882624 0.770038
O O3 0.712400 0.000000 0.830138
O O4 0.763293 0.917385 0.000000
O O5 0.094518 0.937414 0.244521
O O6 0.000000 0.000000 0.215721
O O7 0.077395 0.000000 0.000000
O O8 0.909724 0.581545 0.500000
O O9 0.916902 0.500000 0.717425
O O10 0.909783 0.616903 0.785672
O O11 0.000000 0.576895 0.666926
O O12 0.136725 0.094138 0.500000
O O13 0.161626 0.165758 0.734253
O O14 0.143194 0.719272 0.736654
O O15 0.147078 0.668815 0.000000
O O16 0.310591 0.730191 0.500000
O O17 0.250000 0.750000 0.259680
#
# Coordination Sequence:
#
# PCOD8270751 Si02
#       6
#    16   8  16  16  16  16
#     4  10  20  33  51  80 119 156 188 230 288 348
#     4  11  25  45  67  89 119 157 192 241 308 365
#     4   9  19  37  59  81 109 150 196 240 287 336
#     4  11  22  37  61  89 114 147 194 244 288 342
#     4  11  22  34  54  85 119 155 195 236 283 342
#     4  10  21  38  57  82 119 158 195 235 286 347
#
# _framework density 19.158166000000001
#
# number of rings (size 3 to 8) (size 9 to 14) (size 15 to 20)
#    0.000    1.727    2.727    2.455    0.000    4.727 
#    0.000    1.818    0.000    1.091    0.000    0.000 
#    0.000    0.000    0.000    0.000    0.000    0.000 
#
# Total GULP energy -545395.596861 kJ/mol
# GULP energy per Si atom -12395.354474 kJ/mol
# Density = 1.911456 g / cm^3
# Si number density = 19.158166 Si / 1000 Ang^3
#
#
#
# Elastic Constant Matrix: (Units=GPa)
#
#
# Indices 1 2 3 4 5 6 
#
# 1 76.1976 52.9690 31.1365 0.0000 0.0000 0.0000
# 2 52.9690 153.8103 38.2245 0.0000 0.0000 0.0000
# 3 31.1365 38.2245 39.4196 0.0000 0.0000 0.0000
# 4 0.0000 0.0000 0.0000 27.7110 0.0000 0.0000
# 5 0.0000 0.0000 0.0000 0.0000 29.3028 0.0000
# 6 0.0000 0.0000 0.0000 0.0000 0.0000 14.1569
#
#
#
# Elastic Compliance Matrix: (Units=1/GPa)
#
#
# Indices 1 2 3 4 5 6 
#
# 1 0.021204 -0.004137 -0.012737 0.000000 0.000000 0.000000
# 2 -0.004137 0.009373 -0.005821 0.000000 0.000000 0.000000
# 3 -0.012737 -0.005821 0.041073 0.000000 0.000000 0.000000
# 4 0.000000 0.000000 0.000000 0.036087 0.000000 0.000000
# 5 0.000000 0.000000 0.000000 0.000000 0.034126 0.000000
# 6 0.000000 0.000000 0.000000 0.000000 0.000000 0.070637
#
#
# Mechanical properties :
#
#
# Convention : Reuss Voigt Hill
#
# Bulk Modulus (GPa) = 38.08039 57.12083 47.60061
# Shear Modulus (GPa) = 18.75157 24.04065 21.39611
#
# Velocity S-wave (km/s) = 3.13193 3.54623 3.34550
# Velocity P-wave (km/s) = 5.74445 6.82992 6.31057
#
# Compressibility (1/GPa) = 0.02626023
#
# Stress axis : x y z
#
# Youngs Moduli (GPa) = 47.16015 106.69162 24.34666
#
# Poissons Ratio (x) = 0.44137 0.31011
# Poissons Ratio (y) = 0.19510 0.14172
# Poissons Ratio (z) = 0.60069 0.62105
#
# Static dielectric constant tensor:
#      x y z
#    x 3.293810 0.000000 0.000000 
#    y 0.000000 3.775200 0.000000 
#    z 0.000000 0.000000 3.513370 
# 
# 
# High freq. dielectric constant tensor:
#      x y z
#    x 1.719880 0.000000 0.000000 
#    y 0.000000 1.757420 0.000000 
#    z 0.000000 0.000000 1.743170 
# 
# From -- ./inp_files/11755.got.cif
#   From: 2010.03.12/outbox.cif.g09.slc.cpg/sg65_6_cif.got.tgz:11755.got - 2010.04.10 20:52:16.
