data_PCOD8270185
_publ_section_title
;
Structure prediction by ZEFSAII (Michael W. Deem and Ramdas Pophale) SiO2 
 PCOD8270185
Probable space group: C M M M
;
_chemical_formula_sum "Si O2"
_cell_formula_units_Z 72
_cell_length_a 16.881338
_cell_length_b 22.894990
_cell_length_c 9.506668
_cell_angle_alpha 90.000000
_cell_angle_beta 90.000000
_cell_angle_gamma 90.000000
_cell_volume 3674.308784
_symmetry_space_group_name_H-M "C M M M"
_symmetry_group_IT_number 65
_symmetry_cell_setting 'orthorhombic'
loop_
_space_group_symop_operation_xyz
x,y,z
-x,-y,z
x,-y,-z
-x,y,-z
-x,-y,-z
x,y,-z
-x,y,z
x,-y,z
1/2+x,1/2+y,z
1/2-x,1/2-y,z
1/2+x,1/2-y,-z
1/2-x,1/2+y,-z
1/2-x,1/2-y,-z
1/2+x,1/2+y,-z
1/2-x,1/2+y,z
1/2+x,1/2-y,z
loop_
_atom_site_type_symbol
_atom_site_label
_atom_site_fract_x
_atom_site_fract_y
_atom_site_fract_z
Si Si1 0.907499 0.667943 0.655539
Si Si2 0.594184 0.500000 0.659673
Si Si3 0.159974 0.233785 0.838510
Si Si4 0.091886 0.109715 0.838177
Si Si5 0.594267 0.064678 0.157241
O O1 0.868962 0.671713 0.500000
O O2 0.894956 0.727565 0.739270
O O3 0.868792 0.613090 0.738745
O O4 0.000000 0.656984 0.640915
O O5 0.500000 0.500000 0.662799
O O6 0.626540 0.500000 0.500000
O O7 0.624637 0.557640 0.740415
O O8 0.250000 0.250000 0.806510
O O9 0.144194 0.166357 0.801922
O O10 0.136993 0.246776 0.000000
O O11 0.000000 0.124006 0.806818
O O12 0.102828 0.090693 0.000000
O O13 0.500000 0.068730 0.154918
O O14 0.620737 0.000000 0.207696
O O15 0.626834 0.076800 0.000000
#
# Coordination Sequence:
#
# PCOD8270185 Si02
#       5
#    16   8  16  16  16
#     4  10  20  32  49  75 104 134 169 210 258 311
#     4   9  17  29  49  79 109 133 162 207 260 313
#     4  10  21  36  54  75 102 137 178 218 258 306
#     4   9  17  31  53  79 105 134 169 212 261 310
#     4   8  14  26  46  71  97 126 162 206 252 293
#
# _framework density 19.595521000000002
#
# number of rings (size 3 to 8) (size 9 to 14) (size 15 to 20)
#    0.000    2.778    0.000    2.333    0.000    5.333 
#    0.000    4.444    2.444    0.000    0.000    0.000 
#    0.000    0.000    0.000    0.000    0.000    0.000 
#
# Total GULP energy -446346.964449 kJ/mol
# GULP energy per Si atom -12398.526790 kJ/mol
# Density = 1.955092 g / cm^3
# Si number density = 19.595521 Si / 1000 Ang^3
#
#
#
# Elastic Constant Matrix: (Units=GPa)
#
#
# Indices 1 2 3 4 5 6 
#
# 1 28.5620 30.8763 20.7104 0.0000 0.0000 0.0000
# 2 30.8763 172.1737 101.0245 0.0000 0.0000 0.0000
# 3 20.7104 101.0245 139.9289 0.0000 0.0000 0.0000
# 4 0.0000 0.0000 0.0000 12.1044 0.0000 0.0000
# 5 0.0000 0.0000 0.0000 0.0000 12.3543 0.0000
# 6 0.0000 0.0000 0.0000 0.0000 0.0000 14.3575
#
#
#
# Elastic Compliance Matrix: (Units=1/GPa)
#
#
# Indices 1 2 3 4 5 6 
#
# 1 0.043589 -0.006995 -0.001402 0.000000 0.000000 0.000000
# 2 -0.006995 0.011199 -0.007050 0.000000 0.000000 0.000000
# 3 -0.001402 -0.007050 0.012444 0.000000 0.000000 0.000000
# 4 0.000000 0.000000 0.000000 0.082615 0.000000 0.000000
# 5 0.000000 0.000000 0.000000 0.000000 0.080943 0.000000
# 6 0.000000 0.000000 0.000000 0.000000 0.000000 0.069650
#
#
# Mechanical properties :
#
#
# Convention : Reuss Voigt Hill
#
# Bulk Modulus (GPa) = 27.51821 71.76521 49.64171
# Shear Modulus (GPa) = 14.55828 20.30011 17.42920
#
# Velocity S-wave (km/s) = 2.72865 3.22212 2.98560
# Velocity P-wave (km/s) = 4.89908 7.10954 6.10518
#
# Compressibility (1/GPa) = 0.03633957
#
# Stress axis : x y z
#
# Youngs Moduli (GPa) = 22.94144 89.29164 80.35973
#
# Poissons Ratio (x) = 0.62455 0.11264
# Poissons Ratio (y) = 0.16046 0.56656
# Poissons Ratio (z) = 0.03216 0.62953
#
# Static dielectric constant tensor:
#      x y z
#    x 3.049180 0.000000 0.000000 
#    y 0.000000 3.716940 0.000000 
#    z 0.000000 0.000000 3.833060 
# 
# 
# High freq. dielectric constant tensor:
#      x y z
#    x 1.711940 0.000000 0.000000 
#    y 0.000000 1.775550 0.000000 
#    z 0.000000 0.000000 1.763120 
# 
# From -- ./inp_files/11210.got.cif
#   From: 2010.03.12/outbox.cif.g09.slc.cpg/sg65_6_cif.got.tgz:11210.got - 2010.04.10 20:52:16.
