data_PCOD8270394
_publ_section_title
;
Structure prediction by ZEFSAII (Michael W. Deem and Ramdas Pophale) SiO2 
 PCOD8270394
Probable space group: C M M M
;
_chemical_formula_sum "Si O2"
_cell_formula_units_Z 88
_cell_length_a 29.898806
_cell_length_b 18.244105
_cell_length_c 9.372888
_cell_angle_alpha 90.000000
_cell_angle_beta 90.000000
_cell_angle_gamma 90.000000
_cell_volume 5112.694416
_symmetry_space_group_name_H-M "C M M M"
_symmetry_group_IT_number 65
_symmetry_cell_setting 'orthorhombic'
loop_
_space_group_symop_operation_xyz
x,y,z
-x,-y,z
x,-y,-z
-x,y,-z
-x,-y,-z
x,y,-z
-x,y,z
x,-y,z
1/2+x,1/2+y,z
1/2-x,1/2-y,z
1/2+x,1/2-y,-z
1/2-x,1/2+y,-z
1/2-x,1/2-y,-z
1/2+x,1/2+y,-z
1/2-x,1/2+y,z
1/2+x,1/2-y,z
loop_
_atom_site_type_symbol
_atom_site_label
_atom_site_fract_x
_atom_site_fract_y
_atom_site_fract_z
Si Si1 0.921973 0.852022 0.337608
Si Si2 0.000000 0.084770 0.156812
Si Si3 0.390208 0.216093 0.167684
Si Si4 0.703486 0.718197 0.166502
Si Si5 0.173965 0.082649 0.338906
Si Si6 0.949858 0.581633 0.168864
O O1 0.937794 0.838631 0.500000
O O2 0.916314 0.774329 0.261828
O O3 0.878401 0.901904 0.333253
O O4 0.957357 0.896035 0.248273
O O5 0.000000 0.000000 0.128443
O O6 0.000000 0.123889 0.000000
O O7 0.337082 0.224974 0.201706
O O8 0.410574 0.137664 0.217398
O O9 0.399121 0.230097 0.000000
O O10 0.750000 0.750000 0.224506
O O11 0.699185 0.639379 0.238705
O O12 0.705727 0.702586 0.000000
O O13 0.191735 0.092300 0.500000
O O14 0.183004 0.000000 0.284417
O O15 0.938511 0.500000 0.228353
O O16 0.000000 0.605362 0.221762
O O17 0.950547 0.578913 0.000000
#
# Coordination Sequence:
#
# PCOD8270394 Si02
#       6
#    16   8  16  16  16  16
#     4  10  20  33  49  70  97 129 162 199 242 287
#     4  11  23  35  47  67  96 129 164 199 235 278
#     4   9  17  30  49  71  95 126 162 201 240 287
#     4   9  18  32  48  70 100 129 159 198 246 295
#     4   9  18  33  52  72  94 124 164 204 243 291
#     4   8  14  25  43  68  94 120 154 198 244 287
#
# _framework density 17.212060000000001
#
# number of rings (size 3 to 8) (size 9 to 14) (size 15 to 20)
#    0.000    2.818    0.000    1.909    1.273    2.909 
#    0.000    0.909    0.000    3.818    0.000    1.273 
#    0.000    0.000    0.000    0.000    0.000    0.000 
#
# Total GULP energy -545285.308688 kJ/mol
# GULP energy per Si atom -12392.847925 kJ/mol
# Density = 1.717288 g / cm^3
# Si number density = 17.212060 Si / 1000 Ang^3
#
#
#
# Elastic Constant Matrix: (Units=GPa)
#
#
# Indices 1 2 3 4 5 6 
#
# 1 97.1653 72.2242 38.3835 0.0000 0.0000 0.0000
# 2 72.2242 133.4822 40.8619 0.0000 0.0000 0.0000
# 3 38.3835 40.8619 66.6546 0.0000 0.0000 0.0000
# 4 0.0000 0.0000 0.0000 14.3884 0.0000 0.0000
# 5 0.0000 0.0000 0.0000 0.0000 20.2235 0.0000
# 6 0.0000 0.0000 0.0000 0.0000 0.0000 -121.0982
#
#
#
# Elastic Compliance Matrix: (Units=1/GPa)
#
#
# Indices 1 2 3 4 5 6 
#
# 1 0.018799 -0.008442 -0.005650 0.000000 0.000000 0.000000
# 2 -0.008442 0.013013 -0.003116 0.000000 0.000000 0.000000
# 3 -0.005650 -0.003116 0.020167 0.000000 0.000000 0.000000
# 4 0.000000 0.000000 0.000000 0.069501 0.000000 0.000000
# 5 0.000000 0.000000 0.000000 0.000000 0.049447 0.000000
# 6 0.000000 0.000000 0.000000 0.000000 0.000000 -0.008258
#
#
# Mechanical properties :
#
#
# Convention : Reuss Voigt Hill
#
# Bulk Modulus (GPa) = 56.94087 66.69346 61.81717
# Shear Modulus (GPa) = 24.63781 -7.57510 8.53135
#
# Velocity S-wave (km/s) = 3.78753 -2.10014 2.22876
# Velocity P-wave (km/s) = 7.23055 5.74033 6.52811
#
# Compressibility (1/GPa) = 0.01756208
#
# Stress axis : x y z
#
# Youngs Moduli (GPa) = 53.19511 76.84403 49.58636
#
# Poissons Ratio (x) = 0.64871 0.28017
# Poissons Ratio (y) = 0.44907 0.15453
# Poissons Ratio (z) = 0.30056 0.23947
#
# Static dielectric constant tensor:
#      x y z
#    x 3.782200 0.000000 0.000000 
#    y 0.000000 3.334620 0.000000 
#    z 0.000000 0.000000 3.189420 
# 
# 
# High freq. dielectric constant tensor:
#      x y z
#    x 1.655750 0.000000 0.000000 
#    y 0.000000 1.663150 0.000000 
#    z 0.000000 0.000000 1.650660 
# 
# From -- ./inp_files/18264.got.cif
#   From: 2010.03.12/outbox.cif.g09.slc.cpg/sg65_10_cif.got.tgz:18264.got - 2010.04.10 20:52:16.
