data_PCOD8270227
_publ_section_title
;
Structure prediction by ZEFSAII (Michael W. Deem and Ramdas Pophale) SiO2 
 PCOD8270227
Probable space group: C M M M
;
_chemical_formula_sum "Si O2"
_cell_formula_units_Z 104
_cell_length_a 25.972711
_cell_length_b 9.746725
_cell_length_c 24.793706
_cell_angle_alpha 90.000000
_cell_angle_beta 90.000000
_cell_angle_gamma 90.000000
_cell_volume 6276.498697
_symmetry_space_group_name_H-M "C M M M"
_symmetry_group_IT_number 65
_symmetry_cell_setting 'orthorhombic'
loop_
_space_group_symop_operation_xyz
x,y,z
-x,-y,z
x,-y,-z
-x,y,-z
-x,-y,-z
x,y,-z
-x,y,z
x,-y,z
1/2+x,1/2+y,z
1/2-x,1/2-y,z
1/2+x,1/2-y,-z
1/2-x,1/2+y,-z
1/2-x,1/2-y,-z
1/2+x,1/2+y,-z
1/2-x,1/2+y,z
1/2+x,1/2-y,z
loop_
_atom_site_type_symbol
_atom_site_label
_atom_site_fract_x
_atom_site_fract_y
_atom_site_fract_z
Si Si1 0.441994 0.344439 0.807099
Si Si2 0.847384 0.759583 0.125758
Si Si3 0.207815 0.000000 0.936579
Si Si4 0.597535 0.843918 0.714105
Si Si5 0.296013 0.842720 0.766556
Si Si6 0.438727 0.656499 0.500000
Si Si7 0.060764 0.656768 0.597786
Si Si8 0.329181 0.000000 0.062461
O O1 0.500000 0.322573 0.828829
O O2 0.433176 0.500000 0.787646
O O3 0.403149 0.312865 0.855882
O O4 0.433705 0.248837 0.755559
O O5 0.813132 0.719679 0.176746
O O6 0.857123 0.629610 0.088396
O O7 0.816519 0.867682 0.090451
O O8 0.268439 0.000000 0.925666
O O9 0.195502 0.000000 0.000000
O O10 0.658408 0.832225 0.723431
O O11 0.586810 0.795768 0.653411
O O12 0.578513 0.000000 0.722850
O O13 0.250000 0.750000 0.743447
O O14 0.278017 0.000000 0.774439
O O15 0.417407 0.500000 0.500000
O O16 0.500000 0.655458 0.500000
O O17 0.418543 0.739157 0.552242
O O18 0.075884 0.500000 0.582596
O O19 0.000000 0.669260 0.604634
O O20 0.341360 0.000000 0.000000
#
# Coordination Sequence:
#
# PCOD8270227 Si02
#       8
#    16  16   8  16  16   8  16   8
#     4  10  21  36  53  73  99 132 168 202 243 294
#     4  11  21  36  53  77 102 129 161 200 245 298
#     4  11  22  36  55  77 101 131 160 195 247 300
#     4   9  19  33  49  75 101 128 167 208 247 289
#     4  10  20  32  50  73 101 131 160 196 244 298
#     4   9  17  27  41  65  96 131 166 199 240 287
#     4   9  16  28  46  67  95 129 164 201 241 286
#     4  11  22  36  55  79 103 125 158 203 249 296
#
# _framework density 16.569748000000001
#
# number of rings (size 3 to 8) (size 9 to 14) (size 15 to 20)
#    0.000    2.077    1.538    2.538    2.154    4.308 
#    0.000    1.538    0.000    2.769    0.000    0.538 
#    0.000    0.000    0.000    0.000    0.000    0.000 
#
# Total GULP energy -644866.387603 kJ/mol
# GULP energy per Si atom -12401.276685 kJ/mol
# Density = 1.653203 g / cm^3
# Si number density = 16.569748 Si / 1000 Ang^3
#
#
#
# Elastic Constant Matrix: (Units=GPa)
#
#
# Indices 1 2 3 4 5 6 
#
# 1 67.5640 39.0978 36.4072 0.0000 0.0000 0.0000
# 2 39.0978 112.7260 52.7769 0.0000 0.0000 0.0000
# 3 36.4072 52.7769 113.4190 0.0000 0.0000 0.0000
# 4 0.0000 0.0000 0.0000 22.1992 0.0000 0.0000
# 5 0.0000 0.0000 0.0000 0.0000 8.7734 0.0000
# 6 0.0000 0.0000 0.0000 0.0000 0.0000 22.5555
#
#
#
# Elastic Compliance Matrix: (Units=1/GPa)
#
#
# Indices 1 2 3 4 5 6 
#
# 1 0.019877 -0.004995 -0.004056 0.000000 0.000000 0.000000
# 2 -0.004995 0.012597 -0.004258 0.000000 0.000000 0.000000
# 3 -0.004056 -0.004258 0.012100 0.000000 0.000000 0.000000
# 4 0.000000 0.000000 0.000000 0.045047 0.000000 0.000000
# 5 0.000000 0.000000 0.000000 0.000000 0.113980 0.000000
# 6 0.000000 0.000000 0.000000 0.000000 0.000000 0.044335
#
#
# Mechanical properties :
#
#
# Convention : Reuss Voigt Hill
#
# Bulk Modulus (GPa) = 55.69347 61.14141 58.41744
# Shear Modulus (GPa) = 17.82268 21.73410 19.77839
#
# Velocity S-wave (km/s) = 3.28322 3.62563 3.45866
# Velocity P-wave (km/s) = 6.93233 7.38285 7.16113
#
# Compressibility (1/GPa) = 0.01795543
#
# Stress axis : x y z
#
# Youngs Moduli (GPa) = 50.30943 79.38199 82.64168
#
# Poissons Ratio (x) = 0.39652 0.33520
# Poissons Ratio (y) = 0.25130 0.35193
# Poissons Ratio (z) = 0.20406 0.33804
#
# Static dielectric constant tensor:
#      x y z
#    x 2.989540 0.000000 0.000000 
#    y 0.000000 3.363720 0.000000 
#    z 0.000000 0.000000 3.102350 
# 
# 
# High freq. dielectric constant tensor:
#      x y z
#    x 1.614490 0.000000 0.000000 
#    y 0.000000 1.656240 0.000000 
#    z 0.000000 0.000000 1.631060 
# 
# From -- ./inp_files/73818.got.cif
#   From: 2010.03.12/outbox.cif.g09.slc.cpg/sg65_37_cif.got.tgz:73818.got - 2010.04.10 20:52:16.
