data_PCOD8270098
_publ_section_title
;
Structure prediction by ZEFSAII (Michael W. Deem and Ramdas Pophale) SiO2 
 PCOD8270098
Probable space group: C M M M
;
_chemical_formula_sum "Si O2"
_cell_formula_units_Z 88
_cell_length_a 15.610255
_cell_length_b 28.560077
_cell_length_c 11.894267
_cell_angle_alpha 90.000000
_cell_angle_beta 90.000000
_cell_angle_gamma 90.000000
_cell_volume 5302.822065
_symmetry_space_group_name_H-M "C M M M"
_symmetry_group_IT_number 65
_symmetry_cell_setting 'orthorhombic'
loop_
_space_group_symop_operation_xyz
x,y,z
-x,-y,z
x,-y,-z
-x,y,-z
-x,-y,-z
x,y,-z
-x,y,z
x,-y,z
1/2+x,1/2+y,z
1/2-x,1/2-y,z
1/2+x,1/2-y,-z
1/2-x,1/2+y,-z
1/2-x,1/2-y,-z
1/2+x,1/2+y,-z
1/2-x,1/2+y,z
1/2+x,1/2-y,z
loop_
_atom_site_type_symbol
_atom_site_label
_atom_site_fract_x
_atom_site_fract_y
_atom_site_fract_z
Si Si1 0.095883 0.194997 0.239730
Si Si2 0.903442 0.694756 0.759070
Si Si3 0.817035 0.551549 0.366484
Si Si4 0.751398 0.147513 0.632263
Si Si5 0.845865 0.194653 0.000000
Si Si6 0.000000 0.555019 0.378515
Si Si7 0.654031 0.805649 0.000000
O O1 0.114150 0.250002 0.247260
O O2 0.162372 0.168686 0.318621
O O3 0.105722 0.177069 0.111477
O O4 0.000000 0.183068 0.280914
O O5 0.834314 0.671093 0.679184
O O6 0.000000 0.682479 0.718420
O O7 0.893737 0.676846 0.887684
O O8 0.829399 0.548377 0.500000
O O9 0.787604 0.500000 0.321079
O O10 0.749105 0.592006 0.336077
O O11 0.910495 0.567085 0.314370
O O12 0.751940 0.155898 0.500000
O O13 0.750069 0.173877 0.000000
O O14 0.843497 0.250149 0.000000
O O15 0.000000 0.500000 0.398011
O O16 0.000000 0.580822 0.500000
#
# Coordination Sequence:
#
# PCOD8270098 Si02
#       7
#    16  16  16  16   8   8   8
#     4  10  20  34  50  69  94 126 165 204 240 275
#     4  10  20  32  48  71  99 130 161 195 234 278
#     4   8  15  28  45  64  88 119 156 199 238 272
#     4  11  22  32  46  69  99 132 163 192 230 288
#     4   9  15  29  53  72  87 116 158 210 247 270
#     4   7  10  20  40  62  82 107 141 185 233 270
#     4   9  15  29  51  70  93 120 156 202 246 271
#
# _framework density 16.594937000000002
#
# number of rings (size 3 to 8) (size 9 to 14) (size 15 to 20)
#    0.000    2.636    1.818    2.182    1.273    4.364 
#    0.000    1.818    0.000    0.545    0.000    5.091 
#    0.000    2.909    0.000    0.000    0.000    0.000 
#
# Total GULP energy -545124.158856 kJ/mol
# GULP energy per Si atom -12389.185429 kJ/mol
# Density = 1.655717 g / cm^3
# Si number density = 16.594937 Si / 1000 Ang^3
#
#
#
# Elastic Constant Matrix: (Units=GPa)
#
#
# Indices 1 2 3 4 5 6 
#
# 1 116.1720 55.9573 48.9900 0.0000 0.0000 0.0000
# 2 55.9573 67.3165 38.6453 0.0000 0.0000 0.0000
# 3 48.9900 38.6453 85.7158 0.0000 0.0000 0.0000
# 4 0.0000 0.0000 0.0000 -1.8670 0.0000 0.0000
# 5 0.0000 0.0000 0.0000 0.0000 16.6093 0.0000
# 6 0.0000 0.0000 0.0000 0.0000 0.0000 19.4347
#
#
#
# Elastic Compliance Matrix: (Units=1/GPa)
#
#
# Indices 1 2 3 4 5 6 
#
# 1 0.015342 -0.010415 -0.004073 0.000000 0.000000 0.000000
# 2 -0.010415 0.027113 -0.006271 0.000000 0.000000 0.000000
# 3 -0.004073 -0.006271 0.016822 0.000000 0.000000 0.000000
# 4 0.000000 0.000000 0.000000 -0.535622 0.000000 0.000000
# 5 0.000000 0.000000 0.000000 0.000000 0.060207 0.000000
# 6 0.000000 0.000000 0.000000 0.000000 0.000000 0.051454
#
#
# Mechanical properties :
#
#
# Convention : Reuss Voigt Hill
#
# Bulk Modulus (GPa) = 56.31213 61.82107 59.06660
# Shear Modulus (GPa) = -15.76072 15.20950 -0.27561
#
# Velocity S-wave (km/s) = -3.08511 3.03068 -0.40797
# Velocity P-wave (km/s) = 4.61697 7.04135 5.95386
#
# Compressibility (1/GPa) = 0.01775816
#
# Stress axis : x y z
#
# Youngs Moduli (GPa) = 65.17951 36.88245 59.44644
#
# Poissons Ratio (x) = 0.38413 0.24213
# Poissons Ratio (y) = 0.67885 0.37281
# Poissons Ratio (z) = 0.26548 0.23131
#
# Static dielectric constant tensor:
#      x y z
#    x 3.281660 0.000000 0.000000 
#    y 0.000000 3.015080 0.000000 
#    z 0.000000 0.000000 2.991740 
# 
# 
# High freq. dielectric constant tensor:
#      x y z
#    x 1.642200 0.000000 0.000000 
#    y 0.000000 1.605880 0.000000 
#    z 0.000000 0.000000 1.614560 
# 
# From -- ./inp_files/25420.got.cif
#   From: 2010.03.12/outbox.cif.g09.slc.cpg/sg65_13_cif.got.tgz:25420.got - 2010.04.10 20:52:16.
