data_PCOD8270126
_publ_section_title
;
Structure prediction by ZEFSAII (Michael W. Deem and Ramdas Pophale) SiO2 
 PCOD8270126
Probable space group: C M M M
;
_chemical_formula_sum "Si O2"
_cell_formula_units_Z 88
_cell_length_a 19.905467
_cell_length_b 9.051648
_cell_length_c 28.060795
_cell_angle_alpha 90.000000
_cell_angle_beta 90.000000
_cell_angle_gamma 90.000000
_cell_volume 5055.917733
_symmetry_space_group_name_H-M "C M M M"
_symmetry_group_IT_number 65
_symmetry_cell_setting 'orthorhombic'
loop_
_space_group_symop_operation_xyz
x,y,z
-x,-y,z
x,-y,-z
-x,y,-z
-x,-y,-z
x,y,-z
-x,y,z
x,-y,z
1/2+x,1/2+y,z
1/2-x,1/2-y,z
1/2+x,1/2-y,-z
1/2-x,1/2+y,-z
1/2-x,1/2-y,-z
1/2+x,1/2+y,-z
1/2-x,1/2+y,z
1/2+x,1/2-y,z
loop_
_atom_site_type_symbol
_atom_site_label
_atom_site_fract_x
_atom_site_fract_y
_atom_site_fract_z
Si Si1 0.574980 0.676979 0.602206
Si Si2 0.420974 0.171357 0.854769
Si Si3 0.317603 0.673104 0.677101
Si Si4 0.579683 0.334362 0.947671
Si Si5 0.920273 0.838489 0.500000
Si Si6 0.319086 0.326059 0.213468
O O1 0.500000 0.734116 0.613904
O O2 0.575213 0.500000 0.599722
O O3 0.622826 0.735826 0.644049
O O4 0.599760 0.740780 0.550196
O O5 0.500000 0.203202 0.848358
O O6 0.394953 0.223000 0.906890
O O7 0.382155 0.263705 0.815146
O O8 0.403965 0.000000 0.849016
O O9 0.308253 0.500000 0.670379
O O10 0.250000 0.750000 0.659658
O O11 0.333867 0.713346 0.731627
O O12 0.500000 0.334235 0.948739
O O13 0.605660 0.500000 0.936266
O O14 0.606491 0.283739 0.000000
O O15 0.000000 0.856382 0.500000
O O16 0.886224 0.000000 0.500000
O O17 0.312553 0.500000 0.204857
O O18 0.250000 0.250000 0.196333
#
# Coordination Sequence:
#
# PCOD8270126 Si02
#       6
#    16  16  16  16   8  16
#     4   8  13  23  41  65  90 116 150 189 226 265
#     4  10  20  32  48  73 102 128 157 196 237 278
#     4   9  18  31  47  66  89 118 150 188 231 277
#     4   8  14  26  45  69  97 128 160 193 230 273
#     4   7  10  18  35  60  89 117 144 181 226 266
#     4  10  20  34  51  68  90 124 162 198 240 289
#
# _framework density 17.405346000000002
#
# number of rings (size 3 to 8) (size 9 to 14) (size 15 to 20)
#    0.000    3.182    0.000    2.727    0.000    2.909 
#    0.000    4.091    0.000    1.091    0.000    0.000 
#    0.000    2.182    0.000    0.000    0.000    0.000 
#
# Total GULP energy -545234.040746 kJ/mol
# GULP energy per Si atom -12391.682744 kJ/mol
# Density = 1.736573 g / cm^3
# Si number density = 17.405346 Si / 1000 Ang^3
#
#
#
# Elastic Constant Matrix: (Units=GPa)
#
#
# Indices 1 2 3 4 5 6 
#
# 1 79.3699 34.3589 67.9713 0.0000 0.0000 0.0000
# 2 34.3589 55.4451 41.9352 0.0000 0.0000 0.0000
# 3 67.9713 41.9352 125.6568 0.0000 0.0000 0.0000
# 4 0.0000 0.0000 0.0000 13.1530 0.0000 0.0000
# 5 0.0000 0.0000 0.0000 0.0000 7.6021 0.0000
# 6 0.0000 0.0000 0.0000 0.0000 0.0000 23.2767
#
#
#
# Elastic Compliance Matrix: (Units=1/GPa)
#
#
# Indices 1 2 3 4 5 6 
#
# 1 0.025436 -0.007164 -0.011368 0.000000 0.000000 0.000000
# 2 -0.007164 0.026143 -0.004849 0.000000 0.000000 0.000000
# 3 -0.011368 -0.004849 0.015726 0.000000 0.000000 0.000000
# 4 0.000000 0.000000 0.000000 0.076028 0.000000 0.000000
# 5 0.000000 0.000000 0.000000 0.000000 0.131542 0.000000
# 6 0.000000 0.000000 0.000000 0.000000 0.000000 0.042961
#
#
# Mechanical properties :
#
#
# Convention : Reuss Voigt Hill
#
# Bulk Modulus (GPa) = 48.68180 61.00029 54.84105
# Shear Modulus (GPa) = 13.46083 16.55347 15.00715
#
# Velocity S-wave (km/s) = 2.78398 3.08727 2.93954
# Velocity P-wave (km/s) = 6.19388 6.91601 6.56489
#
# Compressibility (1/GPa) = 0.02054156
#
# Stress axis : x y z
#
# Youngs Moduli (GPa) = 39.31395 38.25065 63.58939
#
# Poissons Ratio (x) = 0.27405 0.72290
# Poissons Ratio (y) = 0.28166 0.30836
# Poissons Ratio (z) = 0.44693 0.18549
#
# Static dielectric constant tensor:
#      x y z
#    x 3.033250 0.000000 0.000000 
#    y 0.000000 3.013530 0.000000 
#    z 0.000000 0.000000 3.695340 
# 
# 
# High freq. dielectric constant tensor:
#      x y z
#    x 1.640100 0.000000 0.000000 
#    y 0.000000 1.645140 0.000000 
#    z 0.000000 0.000000 1.688430 
# 
# From -- ./inp_files/67565.got.cif
#   From: 2010.03.12/outbox.cif.g09.slc.cpg/sg65_34_cif.got.tgz:67565.got - 2010.04.10 20:52:16.
