data_PCOD8270533
_publ_section_title
;
Structure prediction by ZEFSAII (Michael W. Deem and Ramdas Pophale) SiO2 
 PCOD8270533
Probable space group: C M M M
;
_chemical_formula_sum "Si O2"
_cell_formula_units_Z 104
_cell_length_a 8.492941
_cell_length_b 28.461858
_cell_length_c 23.950500
_cell_angle_alpha 90.000000
_cell_angle_beta 90.000000
_cell_angle_gamma 90.000000
_cell_volume 5789.431756
_symmetry_space_group_name_H-M "C M M M"
_symmetry_group_IT_number 65
_symmetry_cell_setting 'orthorhombic'
loop_
_space_group_symop_operation_xyz
x,y,z
-x,-y,z
x,-y,-z
-x,y,-z
-x,-y,-z
x,y,-z
-x,y,z
x,-y,z
1/2+x,1/2+y,z
1/2-x,1/2-y,z
1/2+x,1/2-y,-z
1/2-x,1/2+y,-z
1/2-x,1/2-y,-z
1/2+x,1/2+y,-z
1/2-x,1/2+y,z
1/2+x,1/2-y,z
loop_
_atom_site_type_symbol
_atom_site_label
_atom_site_fract_x
_atom_site_fract_y
_atom_site_fract_z
Si Si1 0.500000 0.447317 0.934466
Si Si2 0.173750 0.055265 0.340433
Si Si3 0.180484 0.447094 0.227382
Si Si4 0.186285 0.602116 0.887502
Si Si5 0.325180 0.703158 0.566422
Si Si6 0.182414 0.392555 0.438630
Si Si7 0.682679 0.798604 0.062507
O O1 0.500000 0.500000 0.909521
O O2 0.668958 0.424074 0.918167
O O3 0.500000 0.448151 0.000000
O O4 0.235150 0.075324 0.281473
O O5 0.275664 0.067860 0.394271
O O6 0.000000 0.075320 0.350665
O O7 0.177255 0.000000 0.334830
O O8 0.242330 0.500000 0.212015
O O9 0.207683 0.410915 0.177080
O O10 0.000000 0.450807 0.243683
O O11 0.219157 0.657383 0.897087
O O12 0.000000 0.589775 0.905961
O O13 0.321651 0.706460 0.500000
O O14 0.500000 0.698765 0.589988
O O15 0.250000 0.750000 0.592670
O O16 0.230938 0.657668 0.586782
O O17 0.262390 0.401597 0.500000
O O18 0.000000 0.392813 0.448169
O O19 0.500000 0.790927 0.057135
O O20 0.750000 0.750000 0.088048
O O21 0.752885 0.808081 0.000000
#
# Coordination Sequence:
#
# PCOD8270533 Si02
#       7
#     8  16  16  16  16  16  16
#     4  11  24  36  52  82 116 152 187 223 274 334
#     4  10  21  35  52  75 102 133 172 221 270 319
#     4   9  18  34  56  78 100 132 176 224 270 318
#     4  10  21  37  57  81 111 148 189 234 281 330
#     4   9  16  27  45  69  97 128 163 202 245 300
#     4  10  20  33  50  73 102 136 172 212 262 321
#     4   9  18  32  52  79 110 146 187 231 279 329
#
# _framework density 17.963767000000001
#
# number of rings (size 3 to 8) (size 9 to 14) (size 15 to 20)
#    0.000    2.385    0.000    2.308    2.154    5.846 
#    0.000    2.308    0.000    0.923    0.000    4.308 
#    0.000    0.000    0.000    0.000    0.000    0.000 
#
# Total GULP energy -644203.774936 kJ/mol
# GULP energy per Si atom -12388.534133 kJ/mol
# Density = 1.792288 g / cm^3
# Si number density = 17.963767 Si / 1000 Ang^3
#
#
#
# Elastic Constant Matrix: (Units=GPa)
#
#
# Indices 1 2 3 4 5 6 
#
# 1 89.7400 40.1563 36.1595 0.0000 0.0000 0.0000
# 2 40.1563 95.6755 52.4956 0.0000 0.0000 0.0000
# 3 36.1595 52.4956 88.1982 0.0000 0.0000 0.0000
# 4 0.0000 0.0000 0.0000 18.4816 0.0000 0.0000
# 5 0.0000 0.0000 0.0000 0.0000 25.3562 0.0000
# 6 0.0000 0.0000 0.0000 0.0000 0.0000 31.1293
#
#
#
# Elastic Compliance Matrix: (Units=1/GPa)
#
#
# Indices 1 2 3 4 5 6 
#
# 1 0.014383 -0.004160 -0.003421 0.000000 0.000000 0.000000
# 2 -0.004160 0.016724 -0.008249 0.000000 0.000000 0.000000
# 3 -0.003421 -0.008249 0.017650 0.000000 0.000000 0.000000
# 4 0.000000 0.000000 0.000000 0.054108 0.000000 0.000000
# 5 0.000000 0.000000 0.000000 0.000000 0.039438 0.000000
# 6 0.000000 0.000000 0.000000 0.000000 0.000000 0.032124
#
#
# Mechanical properties :
#
#
# Convention : Reuss Voigt Hill
#
# Bulk Modulus (GPa) = 58.48451 59.02627 58.75539
# Shear Modulus (GPa) = 23.60884 24.64689 24.12787
#
# Velocity S-wave (km/s) = 3.62919 3.70812 3.66886
# Velocity P-wave (km/s) = 7.08442 7.15984 7.12223
#
# Compressibility (1/GPa) = 0.01709854
#
# Stress axis : x y z
#
# Youngs Moduli (GPa) = 69.52605 59.79510 56.65676
#
# Poissons Ratio (x) = 0.24874 0.19382
# Poissons Ratio (y) = 0.28921 0.46734
# Poissons Ratio (z) = 0.23784 0.49322
#
# Static dielectric constant tensor:
#      x y z
#    x 2.500050 0.000000 0.000000 
#    y 0.000000 3.371400 0.000000 
#    z 0.000000 0.000000 3.139680 
# 
# 
# High freq. dielectric constant tensor:
#      x y z
#    x 1.708530 0.000000 0.000000 
#    y 0.000000 1.687860 0.000000 
#    z 0.000000 0.000000 1.667480 
# 
# From -- ./inp_files/68200.got.cif
#   From: 2010.03.12/outbox.cif.g09.slc.cpg/sg65_35_cif.got.tgz:68200.got - 2010.04.10 20:52:16.
