data_PCOD8270374
_publ_section_title
;
Structure prediction by ZEFSAII (Michael W. Deem and Ramdas Pophale) SiO2 
 PCOD8270374
Probable space group: C M M M
;
_chemical_formula_sum "Si O2"
_cell_formula_units_Z 104
_cell_length_a 20.101448
_cell_length_b 9.158784
_cell_length_c 32.780967
_cell_angle_alpha 90.000000
_cell_angle_beta 90.000000
_cell_angle_gamma 90.000000
_cell_volume 6035.134039
_symmetry_space_group_name_H-M "C M M M"
_symmetry_group_IT_number 65
_symmetry_cell_setting 'orthorhombic'
loop_
_space_group_symop_operation_xyz
x,y,z
-x,-y,z
x,-y,-z
-x,y,-z
-x,-y,-z
x,y,-z
-x,y,z
x,-y,z
1/2+x,1/2+y,z
1/2-x,1/2-y,z
1/2+x,1/2-y,-z
1/2-x,1/2+y,-z
1/2-x,1/2-y,-z
1/2+x,1/2+y,-z
1/2-x,1/2+y,z
1/2+x,1/2-y,z
loop_
_atom_site_type_symbol
_atom_site_label
_atom_site_fract_x
_atom_site_fract_y
_atom_site_fract_z
Si Si1 0.679326 0.328143 0.411587
Si Si2 0.317469 0.333249 0.500000
Si Si3 0.683483 0.171028 0.892966
Si Si4 0.922500 0.168497 0.744989
Si Si5 0.573846 0.826566 0.954560
Si Si6 0.182513 0.671111 0.200911
Si Si7 0.926536 0.172827 0.652531
O O1 0.690573 0.500000 0.404493
O O2 0.750000 0.250000 0.406138
O O3 0.646346 0.297455 0.456795
O O4 0.627684 0.262023 0.378766
O O5 0.296744 0.500000 0.500000
O O6 0.250000 0.250000 0.500000
O O7 0.750000 0.250000 0.907488
O O8 0.624288 0.235697 0.920802
O O9 0.667149 0.207439 0.846133
O O10 0.693451 0.000000 0.899855
O O11 0.879925 0.271494 0.773920
O O12 0.905987 0.213845 0.698527
O O13 0.000000 0.194818 0.754407
O O14 0.903613 0.000000 0.752756
O O15 0.500000 0.765777 0.944928
O O16 0.572572 0.000000 0.952259
O O17 0.595996 0.776703 0.000000
O O18 0.191463 0.500000 0.208560
O O19 0.250000 0.750000 0.215403
O O20 0.000000 0.237084 0.642536
O O21 0.929836 0.000000 0.647914
#
# Coordination Sequence:
#
# PCOD8270374 Si02
#       7
#    16   8  16  16  16  16  16
#     4   9  16  27  44  65  88 114 146 181 217 259
#     4   8  14  24  39  61  87 113 141 176 216 256
#     4   9  18  31  47  68  93 120 149 183 224 268
#     4   9  18  33  51  69  91 121 155 189 229 278
#     4   8  14  26  45  68  92 118 150 186 220 257
#     4  10  20  33  49  69  95 124 154 192 234 274
#     4   8  15  29  47  65  88 118 147 178 220 267
#
# _framework density 17.232424999999999
#
# number of rings (size 3 to 8) (size 9 to 14) (size 15 to 20)
#    0.000    3.231    0.000    1.846    0.000    2.462 
#    0.000    4.231    0.000    4.154    0.000    1.077 
#    0.000    6.154    0.000    0.000    0.000    0.000 
#
# Total GULP energy -644398.526179 kJ/mol
# GULP energy per Si atom -12392.279350 kJ/mol
# Density = 1.719320 g / cm^3
# Si number density = 17.232425 Si / 1000 Ang^3
#
#
#
# Elastic Constant Matrix: (Units=GPa)
#
#
# Indices 1 2 3 4 5 6 
#
# 1 118.6113 35.5179 89.5691 0.0000 0.0000 0.0000
# 2 35.5179 36.2026 34.5456 0.0000 0.0000 0.0000
# 3 89.5691 34.5456 120.9248 0.0000 0.0000 0.0000
# 4 0.0000 0.0000 0.0000 16.1727 0.0000 0.0000
# 5 0.0000 0.0000 0.0000 0.0000 31.1257 0.0000
# 6 0.0000 0.0000 0.0000 0.0000 0.0000 24.8799
#
#
#
# Elastic Compliance Matrix: (Units=1/GPa)
#
#
# Indices 1 2 3 4 5 6 
#
# 1 0.020609 -0.007771 -0.013045 0.000000 0.000000 0.000000
# 2 -0.007771 0.040905 -0.005929 0.000000 0.000000 0.000000
# 3 -0.013045 -0.005929 0.019626 0.000000 0.000000 0.000000
# 4 0.000000 0.000000 0.000000 0.061833 0.000000 0.000000
# 5 0.000000 0.000000 0.000000 0.000000 0.032128 0.000000
# 6 0.000000 0.000000 0.000000 0.000000 0.000000 0.040193
#
#
# Mechanical properties :
#
#
# Convention : Reuss Voigt Hill
#
# Bulk Modulus (GPa) = 36.16872 66.11155 51.14013
# Shear Modulus (GPa) = 17.98564 22.17608 20.08086
#
# Velocity S-wave (km/s) = 3.23415 3.59120 3.41735
# Velocity P-wave (km/s) = 5.91444 7.45946 6.73143
#
# Compressibility (1/GPa) = 0.02764820
#
# Stress axis : x y z
#
# Youngs Moduli (GPa) = 48.52305 24.44718 50.95326
#
# Poissons Ratio (x) = 0.18998 0.66468
# Poissons Ratio (y) = 0.37708 0.30212
# Poissons Ratio (z) = 0.63298 0.14496
#
# Static dielectric constant tensor:
#      x y z
#    x 3.340990 0.000000 0.000000 
#    y 0.000000 2.886370 0.000000 
#    z 0.000000 0.000000 3.628270 
# 
# 
# High freq. dielectric constant tensor:
#      x y z
#    x 1.657370 0.000000 0.000000 
#    y 0.000000 1.632960 0.000000 
#    z 0.000000 0.000000 1.675890 
# 
# From -- ./inp_files/75486.got.cif
#   From: 2010.03.12/outbox.cif.g09.slc.cpg/sg65_38_cif.got.tgz:75486.got - 2010.04.10 20:52:16.
