data_PCOD8270646
_publ_section_title
;
Structure prediction by ZEFSAII (Michael W. Deem and Ramdas Pophale) SiO2 
 PCOD8270646
Probable space group: C M M M
;
_chemical_formula_sum "Si O2"
_cell_formula_units_Z 88
_cell_length_a 18.351270
_cell_length_b 9.069414
_cell_length_c 28.172591
_cell_angle_alpha 90.000000
_cell_angle_beta 90.000000
_cell_angle_gamma 90.000000
_cell_volume 4688.912650
_symmetry_space_group_name_H-M "C M M M"
_symmetry_group_IT_number 65
_symmetry_cell_setting 'orthorhombic'
loop_
_space_group_symop_operation_xyz
x,y,z
-x,-y,z
x,-y,-z
-x,y,-z
-x,-y,-z
x,y,-z
-x,y,z
x,-y,z
1/2+x,1/2+y,z
1/2-x,1/2-y,z
1/2+x,1/2-y,-z
1/2-x,1/2+y,-z
1/2-x,1/2-y,-z
1/2+x,1/2+y,-z
1/2-x,1/2+y,z
1/2+x,1/2-y,z
loop_
_atom_site_type_symbol
_atom_site_label
_atom_site_fract_x
_atom_site_fract_y
_atom_site_fract_z
Si Si1 0.918078 0.824764 0.000000
Si Si2 0.913253 0.333676 0.276818
Si Si3 0.083962 0.172004 0.182935
Si Si4 0.327621 0.325682 0.090372
Si Si5 0.086386 0.166658 0.630859
Si Si6 0.824569 0.327934 0.554845
O O1 0.875706 0.767943 0.953593
O O2 0.000000 0.759320 0.000000
O O3 0.922205 0.000000 0.000000
O O4 0.883217 0.500000 0.279474
O O5 0.885412 0.259406 0.228354
O O6 0.882171 0.243053 0.321606
O O7 0.000000 0.330853 0.277851
O O8 0.131202 0.222206 0.138119
O O9 0.000000 0.211510 0.172203
O O10 0.092528 0.000000 0.193867
O O11 0.316806 0.500000 0.087823
O O12 0.250000 0.250000 0.088379
O O13 0.110558 0.258033 0.584997
O O14 0.000000 0.167700 0.631613
O O15 0.116461 0.000000 0.628413
O O16 0.842814 0.297860 0.500000
O O17 0.817831 0.500000 0.565917
O O18 0.750000 0.250000 0.570028
#
# Coordination Sequence:
#
# PCOD8270646 Si02
#       6
#     8  16  16  16  16  16
#     4   9  17  32  55  79 100 129 174 216 248 293
#     4   9  17  30  50  76 104 133 167 211 262 310
#     4   9  17  31  51  73  97 129 171 212 249 296
#     4  10  20  33  51  75 104 136 167 206 255 303
#     4  10  20  34  54  80 109 140 175 217 263 311
#     4  10  21  37  56  77 104 139 177 217 262 314
#
# _framework density 18.767676000000002
#
# number of rings (size 3 to 8) (size 9 to 14) (size 15 to 20)
#    0.000    2.455    0.000    2.455    0.000    7.636 
#    0.000    2.727    0.000    4.364    0.000    0.000 
#    0.000    0.000    0.000    0.000    0.000    0.000 
#
# Total GULP energy -545693.136566 kJ/mol
# GULP energy per Si atom -12402.116740 kJ/mol
# Density = 1.872496 g / cm^3
# Si number density = 18.767676 Si / 1000 Ang^3
#
#
#
# Elastic Constant Matrix: (Units=GPa)
#
#
# Indices 1 2 3 4 5 6 
#
# 1 76.0219 37.7182 55.8614 0.0000 0.0000 0.0000
# 2 37.7182 100.3380 70.6968 0.0000 0.0000 0.0000
# 3 55.8614 70.6968 151.4484 0.0000 0.0000 0.0000
# 4 0.0000 0.0000 0.0000 26.8092 0.0000 0.0000
# 5 0.0000 0.0000 0.0000 0.0000 12.0211 0.0000
# 6 0.0000 0.0000 0.0000 0.0000 0.0000 29.4465
#
#
#
# Elastic Compliance Matrix: (Units=1/GPa)
#
#
# Indices 1 2 3 4 5 6 
#
# 1 0.018725 -0.003237 -0.005395 0.000000 0.000000 0.000000
# 2 -0.003237 0.015411 -0.006000 0.000000 0.000000 0.000000
# 3 -0.005395 -0.006000 0.011394 0.000000 0.000000 0.000000
# 4 0.000000 0.000000 0.000000 0.037301 0.000000 0.000000
# 5 0.000000 0.000000 0.000000 0.000000 0.083187 0.000000
# 6 0.000000 0.000000 0.000000 0.000000 0.000000 0.033960
#
#
# Mechanical properties :
#
#
# Convention : Reuss Voigt Hill
#
# Bulk Modulus (GPa) = 61.48441 72.92902 67.20672
# Shear Modulus (GPa) = 21.30717 24.55749 22.93233
#
# Velocity S-wave (km/s) = 3.37309 3.62124 3.49937
# Velocity P-wave (km/s) = 6.92837 7.51184 7.22600
#
# Compressibility (1/GPa) = 0.01626428
#
# Stress axis : x y z
#
# Youngs Moduli (GPa) = 53.40478 64.89070 87.76815
#
# Poissons Ratio (x) = 0.21007 0.47355
# Poissons Ratio (y) = 0.17289 0.52658
# Poissons Ratio (z) = 0.28814 0.38932
#
# Static dielectric constant tensor:
#      x y z
#    x 3.185720 0.000000 0.000000 
#    y 0.000000 3.466980 0.000000 
#    z 0.000000 0.000000 3.622350 
# 
# 
# High freq. dielectric constant tensor:
#      x y z
#    x 1.704370 0.000000 0.000000 
#    y 0.000000 1.725170 0.000000 
#    z 0.000000 0.000000 1.744070 
# 
# From -- ./inp_files/70952.got.cif
#   From: 2010.03.12/outbox.cif.g09.slc.cpg/sg65_36_cif.got.tgz:70952.got - 2010.04.10 20:52:16.
