data_PCOD8270686
_publ_section_title
;
Structure prediction by ZEFSAII (Michael W. Deem and Ramdas Pophale) SiO2 
 PCOD8270686
Probable space group: C M M M
;
_chemical_formula_sum "Si O2"
_cell_formula_units_Z 72
_cell_length_a 32.211445
_cell_length_b 8.712992
_cell_length_c 13.506325
_cell_angle_alpha 90.000000
_cell_angle_beta 90.000000
_cell_angle_gamma 90.000000
_cell_volume 3790.659007
_symmetry_space_group_name_H-M "C M M M"
_symmetry_group_IT_number 65
_symmetry_cell_setting 'orthorhombic'
loop_
_space_group_symop_operation_xyz
x,y,z
-x,-y,z
x,-y,-z
-x,y,-z
-x,-y,-z
x,y,-z
-x,y,z
x,-y,z
1/2+x,1/2+y,z
1/2-x,1/2-y,z
1/2+x,1/2-y,-z
1/2-x,1/2+y,-z
1/2-x,1/2-y,-z
1/2+x,1/2+y,-z
1/2-x,1/2+y,z
1/2+x,1/2-y,z
loop_
_atom_site_type_symbol
_atom_site_label
_atom_site_fract_x
_atom_site_fract_y
_atom_site_fract_z
Si Si1 0.625566 0.677044 0.386916
Si Si2 0.580768 0.818625 0.210300
Si Si3 0.335384 0.818506 0.891907
Si Si4 0.000000 0.181487 0.887347
Si Si5 0.706353 0.182180 0.304073
O O1 0.611276 0.695046 0.500000
O O2 0.628904 0.500000 0.355291
O O3 0.590807 0.760784 0.320903
O O4 0.670567 0.754666 0.374988
O O5 0.618422 0.767499 0.138973
O O6 0.539787 0.740609 0.170371
O O7 0.574665 0.000000 0.212645
O O8 0.302711 0.762355 0.809075
O O9 0.333961 0.000000 0.897914
O O10 0.324623 0.746966 0.000000
O O11 0.000000 0.000000 0.886499
O O12 0.000000 0.244536 0.000000
O O13 0.750000 0.250000 0.339403
O O14 0.706959 0.000000 0.312685
#
# Coordination Sequence:
#
# PCOD8270686 Si02
#       5
#    16  16  16   8  16
#     4  10  21  38  59  80 105 139 177 222 277 332
#     4  10  20  35  57  83 111 143 180 224 269 319
#     4   8  15  29  49  73 102 137 175 214 260 314
#     4  11  23  37  56  85 120 153 183 218 260 309
#     4  10  20  33  51  76 106 140 179 225 272 321
#
# _framework density 18.994057999999999
#
# number of rings (size 3 to 8) (size 9 to 14) (size 15 to 20)
#    0.000    2.333    0.000    4.333    0.000    4.444 
#    0.000    0.556    0.000   16.000    0.000    0.000 
#    0.000    0.000    0.000    0.000    0.000    0.000 
#
# Total GULP energy -446371.672320 kJ/mol
# GULP energy per Si atom -12399.213120 kJ/mol
# Density = 1.895083 g / cm^3
# Si number density = 18.994058 Si / 1000 Ang^3
#
#
#
# Elastic Constant Matrix: (Units=GPa)
#
#
# Indices 1 2 3 4 5 6 
#
# 1 112.4732 31.6133 30.9604 0.0000 0.0000 0.0000
# 2 31.6133 72.1530 26.0061 0.0000 0.0000 0.0000
# 3 30.9604 26.0061 98.6158 0.0000 0.0000 0.0000
# 4 0.0000 0.0000 0.0000 25.3871 0.0000 0.0000
# 5 0.0000 0.0000 0.0000 0.0000 20.1572 0.0000
# 6 0.0000 0.0000 0.0000 0.0000 0.0000 29.3964
#
#
#
# Elastic Compliance Matrix: (Units=1/GPa)
#
#
# Indices 1 2 3 4 5 6 
#
# 1 0.010601 -0.003807 -0.002324 0.000000 0.000000 0.000000
# 2 -0.003807 0.016682 -0.003204 0.000000 0.000000 0.000000
# 3 -0.002324 -0.003204 0.011715 0.000000 0.000000 0.000000
# 4 0.000000 0.000000 0.000000 0.039390 0.000000 0.000000
# 5 0.000000 0.000000 0.000000 0.000000 0.049610 0.000000
# 6 0.000000 0.000000 0.000000 0.000000 0.000000 0.034018
#
#
# Mechanical properties :
#
#
# Convention : Reuss Voigt Hill
#
# Bulk Modulus (GPa) = 49.19422 51.15573 50.17498
# Shear Modulus (GPa) = 26.67201 27.96562 27.31882
#
# Velocity S-wave (km/s) = 3.75137 3.84126 3.79658
# Velocity P-wave (km/s) = 6.68728 6.83116 6.75960
#
# Compressibility (1/GPa) = 0.02032759
#
# Stress axis : x y z
#
# Youngs Moduli (GPa) = 94.33226 59.94377 85.36064
#
# Poissons Ratio (x) = 0.22820 0.19839
# Poissons Ratio (y) = 0.35912 0.27350
# Poissons Ratio (z) = 0.21925 0.19207
#
# Static dielectric constant tensor:
#      x y z
#    x 3.386480 0.000000 0.000000 
#    y 0.000000 3.407250 0.000000 
#    z 0.000000 0.000000 3.732320 
# 
# 
# High freq. dielectric constant tensor:
#      x y z
#    x 1.729020 0.000000 0.000000 
#    y 0.000000 1.734020 0.000000 
#    z 0.000000 0.000000 1.743650 
# 
# From -- ./inp_files/47472.got.cif
#   From: 2010.03.12/outbox.cif.g09.slc.cpg/sg65_24_cif.got.tgz:47472.got - 2010.04.10 20:52:16.
