data_PCOD8270104
_publ_section_title
;
Structure prediction by ZEFSAII (Michael W. Deem and Ramdas Pophale) SiO2 
 PCOD8270104
Probable space group: C M M M
;
_chemical_formula_sum "Si O2"
_cell_formula_units_Z 80
_cell_length_a 27.963644
_cell_length_b 17.334228
_cell_length_c 9.132966
_cell_angle_alpha 90.000000
_cell_angle_beta 90.000000
_cell_angle_gamma 90.000000
_cell_volume 4427.005995
_symmetry_space_group_name_H-M "C M M M"
_symmetry_group_IT_number 65
_symmetry_cell_setting 'orthorhombic'
loop_
_space_group_symop_operation_xyz
x,y,z
-x,-y,z
x,-y,-z
-x,y,-z
-x,-y,-z
x,y,-z
-x,y,z
x,-y,z
1/2+x,1/2+y,z
1/2-x,1/2-y,z
1/2+x,1/2-y,-z
1/2-x,1/2+y,-z
1/2-x,1/2-y,-z
1/2+x,1/2+y,-z
1/2-x,1/2+y,z
1/2+x,1/2-y,z
loop_
_atom_site_type_symbol
_atom_site_label
_atom_site_fract_x
_atom_site_fract_y
_atom_site_fract_z
Si Si1 0.443491 0.915471 0.837184
Si Si2 0.288224 0.590512 0.331278
Si Si3 0.555354 0.765841 0.670960
Si Si4 0.714739 0.178496 0.839497
Si Si5 0.639977 0.298815 0.827029
O O1 0.500000 0.921000 0.841725
O O2 0.427917 0.851161 0.720902
O O3 0.422846 0.000000 0.791658
O O4 0.424593 0.892945 0.000000
O O5 0.292406 0.614774 0.500000
O O6 0.293698 0.500000 0.308786
O O7 0.235642 0.616352 0.274252
O O8 0.330494 0.630771 0.241404
O O9 0.564893 0.757871 0.500000
O O10 0.500000 0.750351 0.710638
O O11 0.587085 0.702619 0.756505
O O12 0.750000 0.250000 0.851744
O O13 0.664300 0.215626 0.789310
O O14 0.709937 0.139249 0.000000
O O15 0.636818 0.312758 0.000000
#
# Coordination Sequence:
#
# PCOD8270104 Si02
#       5
#    16  16  16  16  16
#     4   8  14  26  44  64  87 118 157 200 244 290
#     4  10  20  33  52  79 107 133 162 200 250 305
#     4  10  20  32  48  72 101 134 173 217 262 304
#     4   8  16  31  50  73  98 125 160 199 240 290
#     4  10  20  34  53  75 100 134 173 210 250 297
#
# _framework density 18.070903999999999
#
# number of rings (size 3 to 8) (size 9 to 14) (size 15 to 20)
#    0.000    2.800    0.000    3.600    0.000    7.600 
#    0.000    3.000    0.000    1.800    0.000    4.200 
#    0.000    0.000    0.000    0.000    0.000    0.000 
#
# Total GULP energy -495735.506196 kJ/mol
# GULP energy per Si atom -12393.387655 kJ/mol
# Density = 1.802977 g / cm^3
# Si number density = 18.070904 Si / 1000 Ang^3
#
#
#
# Elastic Constant Matrix: (Units=GPa)
#
#
# Indices 1 2 3 4 5 6 
#
# 1 79.1658 33.6287 54.1002 0.0000 0.0000 0.0000
# 2 33.6287 68.0937 56.6172 0.0000 0.0000 0.0000
# 3 54.1002 56.6172 123.5721 0.0000 0.0000 0.0000
# 4 0.0000 0.0000 0.0000 24.1231 0.0000 0.0000
# 5 0.0000 0.0000 0.0000 0.0000 26.6552 0.0000
# 6 0.0000 0.0000 0.0000 0.0000 0.0000 19.2561
#
#
#
# Elastic Compliance Matrix: (Units=1/GPa)
#
#
# Indices 1 2 3 4 5 6 
#
# 1 0.018648 -0.003911 -0.006372 0.000000 0.000000 0.000000
# 2 -0.003911 0.024543 -0.009533 0.000000 0.000000 0.000000
# 3 -0.006372 -0.009533 0.015250 0.000000 0.000000 0.000000
# 4 0.000000 0.000000 0.000000 0.041454 0.000000 0.000000
# 5 0.000000 0.000000 0.000000 0.000000 0.037516 0.000000
# 6 0.000000 0.000000 0.000000 0.000000 0.000000 0.051932
#
#
# Mechanical properties :
#
#
# Convention : Reuss Voigt Hill
#
# Bulk Modulus (GPa) = 53.16653 62.16930 57.66792
# Shear Modulus (GPa) = 21.25454 22.43925 21.84690
#
# Velocity S-wave (km/s) = 3.43326 3.52765 3.48077
# Velocity P-wave (km/s) = 6.72319 7.14633 6.93799
#
# Compressibility (1/GPa) = 0.01880883
#
# Stress axis : x y z
#
# Youngs Moduli (GPa) = 53.62612 40.74426 65.57512
#
# Poissons Ratio (x) = 0.15936 0.41784
# Poissons Ratio (y) = 0.20975 0.62511
# Poissons Ratio (z) = 0.34170 0.38840
#
# Static dielectric constant tensor:
#      x y z
#    x 3.495510 0.000000 0.000000 
#    y 0.000000 3.160530 0.000000 
#    z 0.000000 0.000000 3.425200 
# 
# 
# High freq. dielectric constant tensor:
#      x y z
#    x 1.687250 0.000000 0.000000 
#    y 0.000000 1.672260 0.000000 
#    z 0.000000 0.000000 1.705910 
# 
# From -- ./inp_files/9893.got.cif
#   From: 2010.03.12/outbox.cif.g09.slc.cpg/sg65_5_cif.got.tgz:9893.got - 2010.04.10 20:52:16.
