data_PCOD8270762
_publ_section_title
;
Structure prediction by ZEFSAII (Michael W. Deem and Ramdas Pophale) SiO2 
 PCOD8270762
Probable space group: C M M M
;
_chemical_formula_sum "Si O2"
_cell_formula_units_Z 88
_cell_length_a 19.648467
_cell_length_b 23.937759
_cell_length_c 10.026409
_cell_angle_alpha 90.000000
_cell_angle_beta 90.000000
_cell_angle_gamma 90.000000
_cell_volume 4715.823894
_symmetry_space_group_name_H-M "C M M M"
_symmetry_group_IT_number 65
_symmetry_cell_setting 'orthorhombic'
loop_
_space_group_symop_operation_xyz
x,y,z
-x,-y,z
x,-y,-z
-x,y,-z
-x,-y,-z
x,y,-z
-x,y,z
x,-y,z
1/2+x,1/2+y,z
1/2-x,1/2-y,z
1/2+x,1/2-y,-z
1/2-x,1/2+y,-z
1/2-x,1/2-y,-z
1/2+x,1/2+y,-z
1/2-x,1/2+y,z
1/2+x,1/2-y,z
loop_
_atom_site_type_symbol
_atom_site_label
_atom_site_fract_x
_atom_site_fract_y
_atom_site_fract_z
Si Si1 0.079630 0.249029 0.650179
Si Si2 0.812408 0.564216 0.847973
Si Si3 0.579625 0.562684 0.000000
Si Si4 0.299301 0.562888 0.645722
Si Si5 0.921015 0.874480 0.733006
Si Si6 0.079022 0.656010 0.848015
O O1 0.111997 0.250500 0.500000
O O2 0.094477 0.191217 0.726291
O O3 0.108676 0.297807 0.745340
O O4 0.000000 0.257533 0.635067
O O5 0.828971 0.500000 0.811924
O O6 0.752964 0.588600 0.753350
O O7 0.881123 0.598632 0.822827
O O8 0.787052 0.570327 0.000000
O O9 0.601205 0.599825 0.874489
O O10 0.613528 0.500000 0.000000
O O11 0.500000 0.553700 0.000000
O O12 0.264305 0.564767 0.500000
O O13 0.317292 0.500000 0.689061
O O14 0.370320 0.595933 0.630661
O O15 0.000000 0.886949 0.696904
O O16 0.000000 0.643504 0.820776
O O17 0.089737 0.677505 0.000000
#
# Coordination Sequence:
#
# PCOD8270762 Si02
#       6
#    16  16   8  16  16  16
#     4   9  18  32  51  76 107 142 177 214 262 315
#     4   9  19  36  56  78 106 140 173 210 264 324
#     4   9  18  30  46  74 105 132 170 222 271 308
#     4  10  21  35  52  75 104 140 179 220 265 311
#     4  10  20  33  52  76 105 141 180 222 262 306
#     4   9  18  33  56  83 108 134 170 217 263 313
#
# _framework density 18.660578000000001
#
# number of rings (size 3 to 8) (size 9 to 14) (size 15 to 20)
#    0.000    2.636    0.000    1.091    2.545    3.273 
#    0.000    3.636    0.000    4.364    0.000    5.091 
#    0.000    0.000    0.000    0.000    0.000    0.000 
#
# Total GULP energy -545344.654942 kJ/mol
# GULP energy per Si atom -12394.196703 kJ/mol
# Density = 1.861811 g / cm^3
# Si number density = 18.660578 Si / 1000 Ang^3
#
#
#
# Elastic Constant Matrix: (Units=GPa)
#
#
# Indices 1 2 3 4 5 6 
#
# 1 72.6256 45.9572 42.3715 0.0000 0.0000 0.0000
# 2 45.9572 109.0712 66.1940 0.0000 0.0000 0.0000
# 3 42.3715 66.1940 121.3017 0.0000 0.0000 0.0000
# 4 0.0000 0.0000 0.0000 26.1806 0.0000 0.0000
# 5 0.0000 0.0000 0.0000 0.0000 18.3589 0.0000
# 6 0.0000 0.0000 0.0000 0.0000 0.0000 19.6693
#
#
#
# Elastic Compliance Matrix: (Units=1/GPa)
#
#
# Indices 1 2 3 4 5 6 
#
# 1 0.019733 -0.006177 -0.003522 0.000000 0.000000 0.000000
# 2 -0.006177 0.015642 -0.006378 0.000000 0.000000 0.000000
# 3 -0.003522 -0.006378 0.012955 0.000000 0.000000 0.000000
# 4 0.000000 0.000000 0.000000 0.038196 0.000000 0.000000
# 5 0.000000 0.000000 0.000000 0.000000 0.054469 0.000000
# 6 0.000000 0.000000 0.000000 0.000000 0.000000 0.050841
#
#
# Mechanical properties :
#
#
# Convention : Reuss Voigt Hill
#
# Bulk Modulus (GPa) = 61.82307 68.00487 64.91397
# Shear Modulus (GPa) = 21.79775 22.74013 22.26894
#
# Velocity S-wave (km/s) = 3.42148 3.49466 3.45826
# Velocity P-wave (km/s) = 6.98648 7.26675 7.12800
#
# Compressibility (1/GPa) = 0.01617519
#
# Stress axis : x y z
#
# Youngs Moduli (GPa) = 50.67683 63.93163 77.19249
#
# Poissons Ratio (x) = 0.39490 0.27188
# Poissons Ratio (y) = 0.31303 0.49233
# Poissons Ratio (z) = 0.17849 0.40775
#
# Static dielectric constant tensor:
#      x y z
#    x 3.127670 0.000000 0.000000 
#    y 0.000000 3.415530 0.000000 
#    z 0.000000 0.000000 3.710960 
# 
# 
# High freq. dielectric constant tensor:
#      x y z
#    x 1.692810 0.000000 0.000000 
#    y 0.000000 1.717550 0.000000 
#    z 0.000000 0.000000 1.736180 
# 
# From -- ./inp_files/11712.got.cif
#   From: 2010.03.12/outbox.cif.g09.slc.cpg/sg65_6_cif.got.tgz:11712.got - 2010.04.10 20:52:16.
