data_PCOD8270002
_publ_section_title
;
Structure prediction by ZEFSAII (Michael W. Deem and Ramdas Pophale) SiO2 
 PCOD8270002
Probable space group: C M M M
;
_chemical_formula_sum "Si O2"
_cell_formula_units_Z 96
_cell_length_a 26.951545
_cell_length_b 9.262194
_cell_length_c 23.621111
_cell_angle_alpha 90.000000
_cell_angle_beta 90.000000
_cell_angle_gamma 90.000000
_cell_volume 5896.548294
_symmetry_space_group_name_H-M "C M M M"
_symmetry_group_IT_number 65
_symmetry_cell_setting 'orthorhombic'
loop_
_space_group_symop_operation_xyz
x,y,z
-x,-y,z
x,-y,-z
-x,y,-z
-x,-y,-z
x,y,-z
-x,y,z
x,-y,z
1/2+x,1/2+y,z
1/2-x,1/2-y,z
1/2+x,1/2-y,-z
1/2-x,1/2+y,-z
1/2-x,1/2-y,-z
1/2+x,1/2+y,-z
1/2-x,1/2+y,z
1/2+x,1/2-y,z
loop_
_atom_site_type_symbol
_atom_site_label
_atom_site_fract_x
_atom_site_fract_y
_atom_site_fract_z
Si Si1 0.700688 0.667704 0.563772
Si Si2 0.557400 0.165872 0.934971
Si Si3 0.200969 0.164852 0.774219
Si Si4 0.363019 0.331047 0.668426
Si Si5 0.442708 0.166510 0.731929
Si Si6 0.601414 0.668385 0.164654
O O1 0.684568 0.710425 0.500000
O O2 0.713431 0.500000 0.568710
O O3 0.750000 0.750000 0.582598
O O4 0.655777 0.708435 0.605616
O O5 0.500000 0.201922 0.923686
O O6 0.591402 0.270275 0.897622
O O7 0.568236 0.000000 0.919067
O O8 0.571109 0.195500 0.000000
O O9 0.250000 0.250000 0.790766
O O10 0.179579 0.212849 0.713236
O O11 0.159268 0.193417 0.821693
O O12 0.217020 0.000000 0.772149
O O13 0.376127 0.500000 0.675165
O O14 0.412142 0.238703 0.680612
O O15 0.500000 0.180921 0.715703
O O16 0.432833 0.248094 0.790642
O O17 0.426904 0.000000 0.738881
O O18 0.587641 0.500000 0.167601
#
# Coordination Sequence:
#
# PCOD8270002 Si02
#       6
#    16  16  16  16  16  16
#     4   9  17  29  46  69  96 124 154 189 229 274
#     4   9  18  32  49  70  96 124 154 188 225 267
#     4   9  18  30  44  65  91 118 149 185 224 266
#     4   9  18  31  46  67  94 121 151 188 229 272
#     4  10  20  32  47  68  92 119 153 190 228 273
#     4  10  20  32  47  70  97 122 151 187 227 272
#
# _framework density 16.280711
#
# number of rings (size 3 to 8) (size 9 to 14) (size 15 to 20)
#    0.000    2.667    0.000    3.500    0.000    8.000 
#    0.000    0.833    0.000    1.000    0.000    3.500 
#    0.000    0.000    0.000    0.000    0.000    0.000 
#
# Total GULP energy -595237.959451 kJ/mol
# GULP energy per Si atom -12400.790822 kJ/mol
# Density = 1.624366 g / cm^3
# Si number density = 16.280711 Si / 1000 Ang^3
#
#
#
# Elastic Constant Matrix: (Units=GPa)
#
#
# Indices 1 2 3 4 5 6 
#
# 1 93.2770 60.1209 52.3462 0.0000 0.0000 0.0000
# 2 60.1209 90.2698 53.0178 0.0000 0.0000 0.0000
# 3 52.3462 53.0178 100.5700 0.0000 0.0000 0.0000
# 4 0.0000 0.0000 0.0000 25.4008 0.0000 0.0000
# 5 0.0000 0.0000 0.0000 0.0000 22.9973 0.0000
# 6 0.0000 0.0000 0.0000 0.0000 0.0000 31.7762
#
#
#
# Elastic Compliance Matrix: (Units=1/GPa)
#
#
# Indices 1 2 3 4 5 6 
#
# 1 0.020385 -0.010639 -0.005002 0.000000 0.000000 0.000000
# 2 -0.010639 0.021599 -0.005849 0.000000 0.000000 0.000000
# 3 -0.005002 -0.005849 0.015630 0.000000 0.000000 0.000000
# 4 0.000000 0.000000 0.000000 0.039369 0.000000 0.000000
# 5 0.000000 0.000000 0.000000 0.000000 0.043483 0.000000
# 6 0.000000 0.000000 0.000000 0.000000 0.000000 0.031470
#
#
# Mechanical properties :
#
#
# Convention : Reuss Voigt Hill
#
# Bulk Modulus (GPa) = 68.33013 68.34294 68.33653
# Shear Modulus (GPa) = 22.74867 23.94364 23.34615
#
# Velocity S-wave (km/s) = 3.74207 3.83910 3.79090
# Velocity P-wave (km/s) = 7.79307 7.85624 7.82472
#
# Compressibility (1/GPa) = 0.01463483
#
# Stress axis : x y z
#
# Youngs Moduli (GPa) = 49.05579 46.29890 63.97977
#
# Poissons Ratio (x) = 0.49258 0.32000
# Poissons Ratio (y) = 0.52191 0.37420
# Poissons Ratio (z) = 0.24536 0.27079
#
# Static dielectric constant tensor:
#      x y z
#    x 2.912280 0.000000 0.000000 
#    y 0.000000 3.123190 0.000000 
#    z 0.000000 0.000000 3.081660 
# 
# 
# High freq. dielectric constant tensor:
#      x y z
#    x 1.610720 0.000000 0.000000 
#    y 0.000000 1.633440 0.000000 
#    z 0.000000 0.000000 1.618250 
# 
# From -- ./inp_files/68014.got.cif
#   From: 2010.03.12/outbox.cif.g09.slc.cpg/sg65_35_cif.got.tgz:68014.got - 2010.04.10 20:52:16.
