data_PCOD8270483
_publ_section_title
;
Structure prediction by ZEFSAII (Michael W. Deem and Ramdas Pophale) SiO2 
 PCOD8270483
Probable space group: C M M M
;
_chemical_formula_sum "Si O2"
_cell_formula_units_Z 120
_cell_length_a 26.718186
_cell_length_b 27.833333
_cell_length_c 9.007772
_cell_angle_alpha 90.000000
_cell_angle_beta 90.000000
_cell_angle_gamma 90.000000
_cell_volume 6698.685209
_symmetry_space_group_name_H-M "C M M M"
_symmetry_group_IT_number 65
_symmetry_cell_setting 'orthorhombic'
loop_
_space_group_symop_operation_xyz
x,y,z
-x,-y,z
x,-y,-z
-x,y,-z
-x,-y,-z
x,y,-z
-x,y,z
x,-y,z
1/2+x,1/2+y,z
1/2-x,1/2-y,z
1/2+x,1/2-y,-z
1/2-x,1/2+y,-z
1/2-x,1/2-y,-z
1/2+x,1/2+y,-z
1/2-x,1/2+y,z
1/2+x,1/2-y,z
loop_
_atom_site_type_symbol
_atom_site_label
_atom_site_fract_x
_atom_site_fract_y
_atom_site_fract_z
Si Si1 0.738155 0.697233 0.674824
Si Si2 0.846887 0.142923 0.170763
Si Si3 0.802238 0.393184 0.325102
Si Si4 0.000000 0.554349 0.823649
Si Si5 0.941579 0.292017 0.329555
Si Si6 0.555915 0.694234 0.828364
Si Si7 0.215500 0.054077 0.171625
Si Si8 0.905040 0.615458 0.823640
O O1 0.732496 0.699185 0.500000
O O2 0.750000 0.750000 0.739715
O O3 0.685032 0.681060 0.737614
O O4 0.781770 0.659699 0.720526
O O5 0.905657 0.150864 0.206332
O O6 0.831521 0.088403 0.211861
O O7 0.835316 0.153540 0.000000
O O8 0.810648 0.397474 0.500000
O O9 0.762660 0.433061 0.273453
O O10 0.853717 0.405103 0.242024
O O11 0.950526 0.581924 0.766291
O O12 0.000000 0.500000 0.760218
O O13 0.000000 0.553495 0.000000
O O14 0.924388 0.295464 0.500000
O O15 0.927939 0.239615 0.269463
O O16 0.911469 0.330655 0.234844
O O17 0.000000 0.302480 0.310396
O O18 0.500000 0.676591 0.786043
O O19 0.558196 0.709921 0.000000
O O20 0.198302 0.000000 0.206716
O O21 0.231309 0.060244 0.000000
O O22 0.902351 0.616055 0.000000
#
# Coordination Sequence:
#
# PCOD8270483 Si02
#       8
#    16  16  16   8  16  16  16  16
#     4   9  19  34  49  69 101 139 170 204 256 312
#     4   9  18  32  51  77 103 133 174 216 254 301
#     4  10  21  35  51  76 106 134 170 215 262 313
#     4   9  20  38  57  75  95 127 171 215 258 305
#     4  10  20  33  50  72 101 137 176 214 252 298
#     4   9  18  32  50  75 108 142 175 210 253 305
#     4   9  18  35  57  77 100 133 174 217 262 312
#     4  11  21  35  55  76 102 134 171 216 263 313
#
# _framework density 17.913962999999999
#
# number of rings (size 3 to 8) (size 9 to 14) (size 15 to 20)
#    0.000    2.467    0.667    1.200    1.867    2.667 
#    0.000    1.333    0.000    3.200    0.000    2.800 
#    0.000    0.000    0.000   10.000    0.000   10.400 
#
# Total GULP energy -744008.963262 kJ/mol
# GULP energy per Si atom -12400.149388 kJ/mol
# Density = 1.787319 g / cm^3
# Si number density = 17.913963 Si / 1000 Ang^3
#
#
#
# Elastic Constant Matrix: (Units=GPa)
#
#
# Indices 1 2 3 4 5 6 
#
# 1 124.2285 67.2179 34.3430 0.0000 0.0000 0.0000
# 2 67.2179 122.1147 30.1594 0.0000 0.0000 0.0000
# 3 34.3430 30.1594 50.7961 0.0000 0.0000 0.0000
# 4 0.0000 0.0000 0.0000 18.7346 0.0000 0.0000
# 5 0.0000 0.0000 0.0000 0.0000 21.6137 0.0000
# 6 0.0000 0.0000 0.0000 0.0000 0.0000 18.7453
#
#
#
# Elastic Compliance Matrix: (Units=1/GPa)
#
#
# Indices 1 2 3 4 5 6 
#
# 1 0.012505 -0.005619 -0.005118 0.000000 0.000000 0.000000
# 2 -0.005619 0.012121 -0.003398 0.000000 0.000000 0.000000
# 3 -0.005118 -0.003398 0.025164 0.000000 0.000000 0.000000
# 4 0.000000 0.000000 0.000000 0.053377 0.000000 0.000000
# 5 0.000000 0.000000 0.000000 0.000000 0.046267 0.000000
# 6 0.000000 0.000000 0.000000 0.000000 0.000000 0.053347
#
#
# Mechanical properties :
#
#
# Convention : Reuss Voigt Hill
#
# Bulk Modulus (GPa) = 46.46785 62.28663 54.37724
# Shear Modulus (GPa) = 20.98852 22.84666 21.91759
#
# Velocity S-wave (km/s) = 3.42662 3.57509 3.50164
# Velocity P-wave (km/s) = 6.45379 7.20326 6.83880
#
# Compressibility (1/GPa) = 0.02152026
#
# Stress axis : x y z
#
# Youngs Moduli (GPa) = 79.96698 82.49923 39.73888
#
# Poissons Ratio (x) = 0.46359 0.20339
# Poissons Ratio (y) = 0.44936 0.13502
# Poissons Ratio (z) = 0.40929 0.28030
#
# Static dielectric constant tensor:
#      x y z
#    x 3.380510 0.000000 0.000000 
#    y 0.000000 3.350790 0.000000 
#    z 0.000000 0.000000 3.274070 
# 
# 
# High freq. dielectric constant tensor:
#      x y z
#    x 1.690550 0.000000 0.000000 
#    y 0.000000 1.681780 0.000000 
#    z 0.000000 0.000000 1.689190 
# 
# From -- ./inp_files/17085.got.cif
#   From: 2010.03.12/outbox.cif.g09.slc.cpg/sg65_9_cif.got.tgz:17085.got - 2010.04.10 20:52:16.
