data_PCOD8270159
_publ_section_title
;
Structure prediction by ZEFSAII (Michael W. Deem and Ramdas Pophale) SiO2 
 PCOD8270159
Probable space group: C M M M
;
_chemical_formula_sum "Si O2"
_cell_formula_units_Z 96
_cell_length_a 17.047906
_cell_length_b 23.812570
_cell_length_c 12.512446
_cell_angle_alpha 90.000000
_cell_angle_beta 90.000000
_cell_angle_gamma 90.000000
_cell_volume 5079.483196
_symmetry_space_group_name_H-M "C M M M"
_symmetry_group_IT_number 65
_symmetry_cell_setting 'orthorhombic'
loop_
_space_group_symop_operation_xyz
x,y,z
-x,-y,z
x,-y,-z
-x,y,-z
-x,-y,-z
x,y,-z
-x,y,z
x,-y,z
1/2+x,1/2+y,z
1/2-x,1/2-y,z
1/2+x,1/2-y,-z
1/2-x,1/2+y,-z
1/2-x,1/2-y,-z
1/2+x,1/2+y,-z
1/2-x,1/2+y,z
1/2+x,1/2-y,z
loop_
_atom_site_type_symbol
_atom_site_label
_atom_site_fract_x
_atom_site_fract_y
_atom_site_fract_z
Si Si1 0.294875 0.437664 0.758390
Si Si2 0.747068 0.165168 0.121892
Si Si3 0.411580 0.834195 0.240118
Si Si4 0.642086 0.064020 0.625563
Si Si5 0.588298 0.380493 0.619736
Si Si6 0.171732 0.771869 0.311520
O O1 0.293771 0.500000 0.805346
O O2 0.280271 0.397303 0.858676
O O3 0.230697 0.427991 0.665744
O O4 0.377803 0.425921 0.701883
O O5 0.653844 0.163250 0.147329
O O6 0.797700 0.207940 0.193967
O O7 0.759954 0.182896 0.000000
O O8 0.500000 0.829490 0.192836
O O9 0.410819 0.889873 0.314426
O O10 0.392447 0.777684 0.306765
O O11 0.639037 0.076189 0.500000
O O12 0.612836 0.000000 0.650034
O O13 0.592174 0.404827 0.500000
O O14 0.500000 0.367869 0.655545
O O15 0.636372 0.322767 0.622868
O O16 0.250000 0.750000 0.372583
#
# Coordination Sequence:
#
# PCOD8270159 Si02
#       6
#    16  16  16  16  16  16
#     4   9  18  33  53  75  99 130 169 208 243 290
#     4   9  19  36  55  74  97 127 165 209 254 296
#     4  10  20  32  49  76 105 131 163 204 251 300
#     4   9  18  33  52  73 100 136 174 207 238 280
#     4  10  20  32  48  74 107 137 163 199 250 298
#     4   9  19  34  52  72  98 133 172 209 242 287
#
# _framework density 18.899560999999999
#
# number of rings (size 3 to 8) (size 9 to 14) (size 15 to 20)
#    0.000    2.667    0.000    2.000    0.000    6.667 
#    0.000    1.667    0.000   12.000    0.000    9.333 
#    0.000    0.000    0.000    0.000    0.000    0.000 
#
# Total GULP energy -594927.285460 kJ/mol
# GULP energy per Si atom -12394.318447 kJ/mol
# Density = 1.885655 g / cm^3
# Si number density = 18.899561 Si / 1000 Ang^3
#
#
#
# Elastic Constant Matrix: (Units=GPa)
#
#
# Indices 1 2 3 4 5 6 
#
# 1 106.0557 19.1933 16.0598 0.0000 0.0000 0.0000
# 2 19.1933 95.9321 5.1485 0.0000 0.0000 0.0000
# 3 16.0598 5.1485 54.9321 0.0000 0.0000 0.0000
# 4 0.0000 0.0000 0.0000 13.7503 0.0000 0.0000
# 5 0.0000 0.0000 0.0000 0.0000 15.2212 0.0000
# 6 0.0000 0.0000 0.0000 0.0000 0.0000 21.1930
#
#
#
# Elastic Compliance Matrix: (Units=1/GPa)
#
#
# Indices 1 2 3 4 5 6 
#
# 1 0.010195 -0.001889 -0.002804 0.000000 0.000000 0.000000
# 2 -0.001889 0.010827 -0.000462 0.000000 0.000000 0.000000
# 3 -0.002804 -0.000462 0.019067 0.000000 0.000000 0.000000
# 4 0.000000 0.000000 0.000000 0.072726 0.000000 0.000000
# 5 0.000000 0.000000 0.000000 0.000000 0.065698 0.000000
# 6 0.000000 0.000000 0.000000 0.000000 0.000000 0.047185
#
#
# Mechanical properties :
#
#
# Convention : Reuss Voigt Hill
#
# Bulk Modulus (GPa) = 33.58084 37.52478 35.55281
# Shear Modulus (GPa) = 20.33055 24.46746 22.39900
#
# Velocity S-wave (km/s) = 3.28337 3.60196 3.44635
# Velocity P-wave (km/s) = 5.67280 6.09892 5.88971
#
# Compressibility (1/GPa) = 0.02977889
#
# Stress axis : x y z
#
# Youngs Moduli (GPa) = 98.08261 92.36286 52.44580
#
# Poissons Ratio (x) = 0.17451 0.14704
# Poissons Ratio (y) = 0.18531 0.02425
# Poissons Ratio (z) = 0.27499 0.04271
#
# Static dielectric constant tensor:
#      x y z
#    x 3.488780 0.000000 0.000000 
#    y 0.000000 3.708970 0.000000 
#    z 0.000000 0.000000 2.989230 
# 
# 
# High freq. dielectric constant tensor:
#      x y z
#    x 1.729170 0.000000 0.000000 
#    y 0.000000 1.752730 0.000000 
#    z 0.000000 0.000000 1.695220 
# 
# From -- ./inp_files/27113.got.cif
#   From: 2010.03.12/outbox.cif.g09.slc.cpg/sg65_14_cif.got.tgz:27113.got - 2010.04.10 20:52:16.
