data_PCOD8270532
_publ_section_title
;
Structure prediction by ZEFSAII (Michael W. Deem and Ramdas Pophale) SiO2 
 PCOD8270532
Probable space group: C M M M
;
_chemical_formula_sum "Si O2"
_cell_formula_units_Z 64
_cell_length_a 18.091779
_cell_length_b 8.967552
_cell_length_c 20.796902
_cell_angle_alpha 90.000000
_cell_angle_beta 90.000000
_cell_angle_gamma 90.000000
_cell_volume 3374.067938
_symmetry_space_group_name_H-M "C M M M"
_symmetry_group_IT_number 65
_symmetry_cell_setting 'orthorhombic'
loop_
_space_group_symop_operation_xyz
x,y,z
-x,-y,z
x,-y,-z
-x,y,-z
-x,-y,-z
x,y,-z
-x,y,z
x,-y,z
1/2+x,1/2+y,z
1/2-x,1/2-y,z
1/2+x,1/2-y,-z
1/2-x,1/2+y,-z
1/2-x,1/2-y,-z
1/2+x,1/2+y,-z
1/2-x,1/2+y,z
1/2+x,1/2-y,z
loop_
_atom_site_type_symbol
_atom_site_label
_atom_site_fract_x
_atom_site_fract_y
_atom_site_fract_z
Si Si1 0.587783 0.663453 0.500000
Si Si2 0.413884 0.672017 0.886501
Si Si3 0.827156 0.174029 0.241255
Si Si4 0.670536 0.175785 0.000000
Si Si5 0.916889 0.821124 0.637929
O O1 0.624547 0.500000 0.500000
O O2 0.500000 0.646880 0.500000
O O3 0.610385 0.742876 0.567715
O O4 0.500000 0.709771 0.887191
O O5 0.399351 0.500000 0.905101
O O6 0.383619 0.708660 0.815987
O O7 0.373758 0.777133 0.936984
O O8 0.750000 0.250000 0.225801
O O9 0.862429 0.239631 0.306898
O O10 0.812667 0.000000 0.248446
O O11 0.750000 0.250000 0.000000
O O12 0.681108 0.000000 0.000000
O O13 0.000000 0.765016 0.653017
O O14 0.916838 0.000000 0.636097
#
# Coordination Sequence:
#
# PCOD8270532 Si02
#       5
#     8  16  16   8  16
#     4   7  10  18  37  66  95 121 156 207 256 292
#     4  10  21  38  59  81 105 135 172 214 259 306
#     4  10  20  33  50  73 102 135 169 207 252 302
#     4  12  25  40  59  83 111 141 171 206 251 302
#     4   8  13  24  44  69  95 125 165 210 252 295
#
# _framework density 18.968201000000001
#
# number of rings (size 3 to 8) (size 9 to 14) (size 15 to 20)
#    0.000    2.625    0.000    4.500    0.000    8.000 
#    0.000    0.625    0.000    2.250    0.000    0.000 
#    0.000    3.000    0.000    0.000    0.000    0.000 
#
# Total GULP energy -396601.157201 kJ/mol
# GULP energy per Si atom -12393.786163 kJ/mol
# Density = 1.892503 g / cm^3
# Si number density = 18.968201 Si / 1000 Ang^3
#
#
#
# Elastic Constant Matrix: (Units=GPa)
#
#
# Indices 1 2 3 4 5 6 
#
# 1 121.7113 45.5615 64.4355 0.0000 0.0000 0.0000
# 2 45.5615 55.4572 52.3534 0.0000 0.0000 0.0000
# 3 64.4355 52.3534 152.6167 0.0000 0.0000 0.0000
# 4 0.0000 0.0000 0.0000 -17.0463 0.0000 0.0000
# 5 0.0000 0.0000 0.0000 0.0000 122.3164 0.0000
# 6 0.0000 0.0000 0.0000 0.0000 0.0000 22.1203
#
#
#
# Elastic Compliance Matrix: (Units=1/GPa)
#
#
# Indices 1 2 3 4 5 6 
#
# 1 0.012526 -0.007836 -0.002601 0.000000 0.000000 0.000000
# 2 -0.007836 0.031570 -0.007521 0.000000 0.000000 0.000000
# 3 -0.002601 -0.007521 0.010230 0.000000 0.000000 0.000000
# 4 0.000000 0.000000 0.000000 -0.058664 0.000000 0.000000
# 5 0.000000 0.000000 0.000000 0.000000 0.008176 0.000000
# 6 0.000000 0.000000 0.000000 0.000000 0.000000 0.045207
#
#
# Mechanical properties :
#
#
# Convention : Reuss Voigt Hill
#
# Bulk Modulus (GPa) = 54.31577 72.72064 63.51821
# Shear Modulus (GPa) = 54.88552 36.64042 45.76297
#
# Velocity S-wave (km/s) = 5.38501 4.39985 4.91717
# Velocity P-wave (km/s) = 8.20742 8.01455 8.11156
#
# Compressibility (1/GPa) = 0.01841086
#
# Stress axis : x y z
#
# Youngs Moduli (GPa) = 79.83198 31.67556 97.74744
#
# Poissons Ratio (x) = 0.24821 0.25420
# Poissons Ratio (y) = 0.62557 0.73519
# Poissons Ratio (z) = 0.20761 0.23824
#
# Static dielectric constant tensor:
#      x y z
#    x 3.413770 0.000000 0.000000 
#    y 0.000000 3.011640 0.000000 
#    z 0.000000 0.000000 4.006110 
# 
# 
# High freq. dielectric constant tensor:
#      x y z
#    x 1.728610 0.000000 0.000000 
#    y 0.000000 1.683370 0.000000 
#    z 0.000000 0.000000 1.765480 
# 
# From -- ./inp_files/63281.got.cif
#   From: 2010.03.12/outbox.cif.g09.slc.cpg/sg65_32_cif.got.tgz:63281.got - 2010.04.10 20:52:16.
