data_PCOD8270040
_publ_section_title
;
Structure prediction by ZEFSAII (Michael W. Deem and Ramdas Pophale) SiO2 
 PCOD8270040
Probable space group: C M M M
;
_chemical_formula_sum "Si O2"
_cell_formula_units_Z 104
_cell_length_a 18.523317
_cell_length_b 9.387847
_cell_length_c 33.424100
_cell_angle_alpha 90.000000
_cell_angle_beta 90.000000
_cell_angle_gamma 90.000000
_cell_volume 5812.252649
_symmetry_space_group_name_H-M "C M M M"
_symmetry_group_IT_number 65
_symmetry_cell_setting 'orthorhombic'
loop_
_space_group_symop_operation_xyz
x,y,z
-x,-y,z
x,-y,-z
-x,y,-z
-x,-y,-z
x,y,-z
-x,y,z
x,-y,z
1/2+x,1/2+y,z
1/2-x,1/2-y,z
1/2+x,1/2-y,-z
1/2-x,1/2+y,-z
1/2-x,1/2-y,-z
1/2+x,1/2+y,-z
1/2-x,1/2+y,z
1/2+x,1/2-y,z
loop_
_atom_site_type_symbol
_atom_site_label
_atom_site_fract_x
_atom_site_fract_y
_atom_site_fract_z
Si Si1 0.676038 0.668220 0.882993
Si Si2 0.417185 0.833412 0.729147
Si Si3 0.580567 0.668989 0.955583
Si Si4 0.585829 0.339012 0.500000
Si Si5 0.416354 0.835089 0.423874
Si Si6 0.583012 0.335491 0.806306
Si Si7 0.324327 0.832802 0.653277
O O1 0.690187 0.500000 0.885646
O O2 0.750000 0.750000 0.878643
O O3 0.635796 0.727799 0.922546
O O4 0.627888 0.708907 0.845004
O O5 0.500000 0.791945 0.719809
O O6 0.388555 0.753608 0.768513
O O7 0.368864 0.783396 0.692053
O O8 0.409334 0.000000 0.737044
O O9 0.500000 0.729179 0.947380
O O10 0.577500 0.500000 0.952469
O O11 0.606580 0.715990 0.000000
O O12 0.615957 0.500000 0.500000
O O13 0.500000 0.336407 0.500000
O O14 0.614032 0.258043 0.460621
O O15 0.500000 0.801945 0.414870
O O16 0.371399 0.790994 0.385114
O O17 0.405830 0.000000 0.435088
O O18 0.500000 0.299675 0.815752
O O19 0.593758 0.500000 0.795634
O O20 0.250000 0.750000 0.651734
O O21 0.308293 0.000000 0.654447
#
# Coordination Sequence:
#
# PCOD8270040 Si02
#       7
#    16  16  16   8  16  16  16
#     4  10  20  32  47  70 100 130 159 195 240 289
#     4   9  18  34  55  76  97 124 161 203 244 286
#     4   8  14  27  49  73  93 119 161 207 244 281
#     4   9  17  29  48  77 106 127 155 201 250 287
#     4   9  17  32  54  75  96 127 166 202 237 283
#     4   9  18  33  52  72  94 123 161 202 240 280
#     4  10  21  35  51  73 101 131 162 198 241 288
#
# _framework density 17.893234
#
# number of rings (size 3 to 8) (size 9 to 14) (size 15 to 20)
#    0.000    2.846    0.000    1.615    0.000    7.385 
#    0.000    3.462    0.000    6.000    0.000    1.077 
#    0.000    0.000    0.000    0.000    0.000    0.000 
#
# Total GULP energy -644797.879989 kJ/mol
# GULP energy per Si atom -12399.959231 kJ/mol
# Density = 1.785251 g / cm^3
# Si number density = 17.893234 Si / 1000 Ang^3
#
#
#
# Elastic Constant Matrix: (Units=GPa)
#
#
# Indices 1 2 3 4 5 6 
#
# 1 101.4393 45.7086 87.6144 0.0000 0.0000 0.0000
# 2 45.7086 50.6771 65.9588 0.0000 0.0000 0.0000
# 3 87.6144 65.9588 186.3048 0.0000 0.0000 0.0000
# 4 0.0000 0.0000 0.0000 23.9751 0.0000 0.0000
# 5 0.0000 0.0000 0.0000 0.0000 6.3390 0.0000
# 6 0.0000 0.0000 0.0000 0.0000 0.0000 28.3430
#
#
#
# Elastic Compliance Matrix: (Units=1/GPa)
#
#
# Indices 1 2 3 4 5 6 
#
# 1 0.019106 -0.010271 -0.005349 0.000000 0.000000 0.000000
# 2 -0.010271 0.042118 -0.010081 0.000000 0.000000 0.000000
# 3 -0.005349 -0.010081 0.011452 0.000000 0.000000 0.000000
# 4 0.000000 0.000000 0.000000 0.041710 0.000000 0.000000
# 5 0.000000 0.000000 0.000000 0.000000 0.157753 0.000000
# 6 0.000000 0.000000 0.000000 0.000000 0.000000 0.035282
#
#
# Mechanical properties :
#
#
# Convention : Reuss Voigt Hill
#
# Bulk Modulus (GPa) = 47.00560 81.88721 64.44640
# Shear Modulus (GPa) = 13.66441 21.00740 17.33590
#
# Velocity S-wave (km/s) = 2.76644 3.43015 3.11602
# Velocity P-wave (km/s) = 6.04412 7.84548 7.00296
#
# Compressibility (1/GPa) = 0.02127406
#
# Stress axis : x y z
#
# Youngs Moduli (GPa) = 52.33937 23.74284 87.32128
#
# Poissons Ratio (x) = 0.24387 0.46706
# Poissons Ratio (y) = 0.53759 0.88029
# Poissons Ratio (z) = 0.27995 0.23935
#
# Static dielectric constant tensor:
#      x y z
#    x 3.208160 0.000000 0.000000 
#    y 0.000000 3.118300 0.000000 
#    z 0.000000 0.000000 3.571450 
# 
# 
# High freq. dielectric constant tensor:
#      x y z
#    x 1.680770 0.000000 0.000000 
#    y 0.000000 1.669030 0.000000 
#    z 0.000000 0.000000 1.708660 
# 
# From -- ./inp_files/78271.got.cif
#   From: 2010.03.12/outbox.cif.g09.slc.cpg/sg65_40_cif.got.tgz:78271.got - 2010.04.10 20:52:16.
