data_PCOD8270848
_publ_section_title
;
Structure prediction by ZEFSAII (Michael W. Deem and Ramdas Pophale) SiO2 
 PCOD8270848
Probable space group: C M M M
;
_chemical_formula_sum "Si O2"
_cell_formula_units_Z 88
_cell_length_a 27.382844
_cell_length_b 19.320970
_cell_length_c 9.057107
_cell_angle_alpha 90.000000
_cell_angle_beta 90.000000
_cell_angle_gamma 90.000000
_cell_volume 4791.781174
_symmetry_space_group_name_H-M "C M M M"
_symmetry_group_IT_number 65
_symmetry_cell_setting 'orthorhombic'
loop_
_space_group_symop_operation_xyz
x,y,z
-x,-y,z
x,-y,-z
-x,y,-z
-x,-y,-z
x,y,-z
-x,y,z
x,-y,z
1/2+x,1/2+y,z
1/2-x,1/2-y,z
1/2+x,1/2-y,-z
1/2-x,1/2+y,-z
1/2-x,1/2-y,-z
1/2+x,1/2+y,-z
1/2-x,1/2+y,z
1/2+x,1/2-y,z
loop_
_atom_site_type_symbol
_atom_site_label
_atom_site_fract_x
_atom_site_fract_y
_atom_site_fract_z
Si Si1 0.195176 0.420987 0.825786
Si Si2 0.500000 0.078635 0.175427
Si Si3 0.445424 0.424390 0.324523
Si Si4 0.402441 0.156907 0.175136
Si Si5 0.619421 0.300612 0.325494
Si Si6 0.769822 0.176764 0.672926
O O1 0.194762 0.500000 0.772329
O O2 0.144541 0.386771 0.772361
O O3 0.241909 0.384454 0.754886
O O4 0.200273 0.415164 0.000000
O O5 0.451497 0.118455 0.231666
O O6 0.500000 0.000000 0.237935
O O7 0.500000 0.075843 0.000000
O O8 0.444941 0.421045 0.500000
O O9 0.500000 0.413498 0.264307
O O10 0.425780 0.500000 0.273261
O O11 0.412568 0.363256 0.260483
O O12 0.399089 0.231857 0.247122
O O13 0.403467 0.165245 0.000000
O O14 0.614013 0.289262 0.500000
O O15 0.673772 0.323283 0.283116
O O16 0.761074 0.166449 0.500000
O O17 0.750000 0.250000 0.728537
#
# Coordination Sequence:
#
# PCOD8270848 Si02
#       6
#    16   8  16  16  16  16
#     4  10  21  36  55  79 105 137 179 220 259 309
#     4   9  18  34  55  77 104 139 178 218 259 309
#     4   8  15  29  49  73  99 128 165 207 250 298
#     4  10  20  34  54  79 106 138 174 215 262 312
#     4  10  20  33  53  79 106 135 171 215 259 311
#     4  10  20  35  52  75 107 139 173 213 260 310
#
# _framework density 18.364778000000001
#
# number of rings (size 3 to 8) (size 9 to 14) (size 15 to 20)
#    0.000    2.455    1.818    1.091    1.273    4.364 
#    0.000    1.818    0.000    2.727    0.000    1.273 
#    0.000    0.000    0.000    0.000    0.000    0.000 
#
# Total GULP energy -545533.222571 kJ/mol
# GULP energy per Si atom -12398.482331 kJ/mol
# Density = 1.832298 g / cm^3
# Si number density = 18.364778 Si / 1000 Ang^3
#
#
#
# Elastic Constant Matrix: (Units=GPa)
#
#
# Indices 1 2 3 4 5 6 
#
# 1 140.0925 107.3107 25.5060 0.0000 0.0000 0.0000
# 2 107.3107 201.1665 32.5976 0.0000 0.0000 0.0000
# 3 25.5060 32.5976 15.5927 0.0000 0.0000 0.0000
# 4 0.0000 0.0000 0.0000 28.4946 0.0000 0.0000
# 5 0.0000 0.0000 0.0000 0.0000 -8.4667 0.0000
# 6 0.0000 0.0000 0.0000 0.0000 0.0000 42.1342
#
#
#
# Elastic Compliance Matrix: (Units=1/GPa)
#
#
# Indices 1 2 3 4 5 6 
#
# 1 0.013079 -0.005308 -0.010297 0.000000 0.000000 0.000000
# 2 -0.005308 0.009672 -0.011537 0.000000 0.000000 0.000000
# 3 -0.010297 -0.011537 0.105095 0.000000 0.000000 0.000000
# 4 0.000000 0.000000 0.000000 0.035094 0.000000 0.000000
# 5 0.000000 0.000000 0.000000 0.000000 -0.118110 0.000000
# 6 0.000000 0.000000 0.000000 0.000000 0.000000 0.023734
#
#
# Mechanical properties :
#
#
# Convention : Reuss Voigt Hill
#
# Bulk Modulus (GPa) = 13.59400 76.40890 45.00145
# Shear Modulus (GPa) = 33.92818 25.19491 29.56154
#
# Velocity S-wave (km/s) = 4.30287 3.70795 4.01644
# Velocity P-wave (km/s) = 5.66609 7.74780 6.78723
#
# Compressibility (1/GPa) = 0.07356185
#
# Stress axis : x y z
#
# Youngs Moduli (GPa) = 76.45816 103.38844 9.51518
#
# Poissons Ratio (x) = 0.54883 0.09797
# Poissons Ratio (y) = 0.40587 0.10978
# Poissons Ratio (z) = 0.78727 1.19282
#
# Static dielectric constant tensor:
#      x y z
#    x 3.617630 0.000000 0.000000 
#    y 0.000000 3.619910 0.000000 
#    z 0.000000 0.000000 2.975600 
# 
# 
# High freq. dielectric constant tensor:
#      x y z
#    x 1.724600 0.000000 0.000000 
#    y 0.000000 1.727420 0.000000 
#    z 0.000000 0.000000 1.670700 
# 
# From -- ./inp_files/12311.got.cif
#   From: 2010.03.12/outbox.cif.g09.slc.cpg/sg65_7_cif.got.tgz:12311.got - 2010.04.10 20:52:16.
