data_PCOD8270099
_publ_section_title
;
Structure prediction by ZEFSAII (Michael W. Deem and Ramdas Pophale) SiO2 
 PCOD8270099
Probable space group: C M M M
;
_chemical_formula_sum "Si O2"
_cell_formula_units_Z 88
_cell_length_a 9.007585
_cell_length_b 19.008710
_cell_length_c 28.412397
_cell_angle_alpha 90.000000
_cell_angle_beta 90.000000
_cell_angle_gamma 90.000000
_cell_volume 4864.843664
_symmetry_space_group_name_H-M "C M M M"
_symmetry_group_IT_number 65
_symmetry_cell_setting 'orthorhombic'
loop_
_space_group_symop_operation_xyz
x,y,z
-x,-y,z
x,-y,-z
-x,y,-z
-x,-y,-z
x,y,-z
-x,y,z
x,-y,z
1/2+x,1/2+y,z
1/2-x,1/2-y,z
1/2+x,1/2-y,-z
1/2-x,1/2+y,-z
1/2-x,1/2-y,-z
1/2+x,1/2+y,-z
1/2-x,1/2+y,z
1/2+x,1/2-y,z
loop_
_atom_site_type_symbol
_atom_site_label
_atom_site_fract_x
_atom_site_fract_y
_atom_site_fract_z
Si Si1 0.826624 0.174606 0.638903
Si Si2 0.667761 0.918129 0.815422
Si Si3 0.171735 0.175994 0.742348
Si Si4 0.827945 0.581221 0.076549
Si Si5 0.673322 0.174342 0.448868
Si Si6 0.175854 0.826034 0.000000
O O1 0.750000 0.250000 0.640316
O O2 0.797244 0.141294 0.690581
O O3 0.749459 0.131985 0.595139
O O4 0.000000 0.181460 0.628306
O O5 0.500000 0.895243 0.803573
O O6 0.779533 0.878018 0.781895
O O7 0.704557 0.900021 0.869352
O O8 0.689586 0.000000 0.806244
O O9 0.250000 0.250000 0.749509
O O10 0.000000 0.191672 0.748561
O O11 0.788378 0.500000 0.066067
O O12 0.000000 0.594915 0.064142
O O13 0.724431 0.631340 0.046075
O O14 0.698015 0.136734 0.500000
O O15 0.500000 0.183180 0.438473
O O16 0.750000 0.250000 0.451171
O O17 0.250000 0.750000 0.000000
O O18 0.000000 0.816850 0.000000
#
# Coordination Sequence:
#
# PCOD8270099 Si02
#       6
#    16  16  16  16  16   8
#     4   9  16  25  37  55  81 115 154 192 235 286
#     4   9  19  36  57  79 102 131 167 205 247 296
#     4  10  20  32  48  71  99 132 167 205 249 296
#     4   9  19  38  61  81 104 135 168 204 249 298
#     4   9  15  21  31  49  74 107 147 189 234 283
#     4  12  25  38  55  81 111 141 173 208 247 290
#
# _framework density 18.088968000000001
#
# number of rings (size 3 to 8) (size 9 to 14) (size 15 to 20)
#    0.000    2.545    0.000    4.909    0.000    6.545 
#    0.000    1.818    0.000    0.000    0.000    0.000 
#    0.000    0.727    0.000    8.000    0.000    8.909 
#
# Total GULP energy -545191.122720 kJ/mol
# GULP energy per Si atom -12390.707335 kJ/mol
# Density = 1.804780 g / cm^3
# Si number density = 18.088968 Si / 1000 Ang^3
#
#
#
# Elastic Constant Matrix: (Units=GPa)
#
#
# Indices 1 2 3 4 5 6 
#
# 1 126.7757 42.6601 79.0250 0.0000 0.0000 0.0000
# 2 42.6601 51.4687 55.0334 0.0000 0.0000 0.0000
# 3 79.0250 55.0334 153.6804 0.0000 0.0000 0.0000
# 4 0.0000 0.0000 0.0000 -15.9388 0.0000 0.0000
# 5 0.0000 0.0000 0.0000 0.0000 37.4344 0.0000
# 6 0.0000 0.0000 0.0000 0.0000 0.0000 23.9406
#
#
#
# Elastic Compliance Matrix: (Units=1/GPa)
#
#
# Indices 1 2 3 4 5 6 
#
# 1 0.012556 -0.005677 -0.004423 0.000000 0.000000 0.000000
# 2 -0.005677 0.034052 -0.009275 0.000000 0.000000 0.000000
# 3 -0.004423 -0.009275 0.012103 0.000000 0.000000 0.000000
# 4 0.000000 0.000000 0.000000 -0.062740 0.000000 0.000000
# 5 0.000000 0.000000 0.000000 0.000000 0.026713 0.000000
# 6 0.000000 0.000000 0.000000 0.000000 0.000000 0.041770
#
#
# Mechanical properties :
#
#
# Convention : Reuss Voigt Hill
#
# Bulk Modulus (GPa) = 50.10033 76.15130 63.12582
# Shear Modulus (GPa) = 45.51344 19.43432 32.47388
#
# Velocity S-wave (km/s) = 5.02150 3.28132 4.24161
# Velocity P-wave (km/s) = 7.83437 7.51969 7.67864
#
# Compressibility (1/GPa) = 0.01995995
#
# Stress axis : x y z
#
# Youngs Moduli (GPa) = 79.64632 29.36688 82.62498
#
# Poissons Ratio (x) = 0.16672 0.36547
# Poissons Ratio (y) = 0.45216 0.76633
# Poissons Ratio (z) = 0.35230 0.27237
#
# Static dielectric constant tensor:
#      x y z
#    x 3.417330 0.000000 0.000000 
#    y 0.000000 2.823080 0.000000 
#    z 0.000000 0.000000 4.336690 
# 
# 
# High freq. dielectric constant tensor:
#      x y z
#    x 1.710320 0.000000 0.000000 
#    y 0.000000 1.638130 0.000000 
#    z 0.000000 0.000000 1.731320 
# 
# From -- ./inp_files/76649.got.cif
#   From: 2010.03.12/outbox.cif.g09.slc.cpg/sg65_39_cif.got.tgz:76649.got - 2010.04.10 20:52:16.
