data_PCOD8270271
_publ_section_title
;
Structure prediction by ZEFSAII (Michael W. Deem and Ramdas Pophale) SiO2 
 PCOD8270271
Probable space group: C M M M
;
_chemical_formula_sum "Si O2"
_cell_formula_units_Z 88
_cell_length_a 16.557809
_cell_length_b 30.241108
_cell_length_c 9.645903
_cell_angle_alpha 90.000000
_cell_angle_beta 90.000000
_cell_angle_gamma 90.000000
_cell_volume 4829.959154
_symmetry_space_group_name_H-M "C M M M"
_symmetry_group_IT_number 65
_symmetry_cell_setting 'orthorhombic'
loop_
_space_group_symop_operation_xyz
x,y,z
-x,-y,z
x,-y,-z
-x,y,-z
-x,-y,-z
x,y,-z
-x,y,z
x,-y,z
1/2+x,1/2+y,z
1/2-x,1/2-y,z
1/2+x,1/2-y,-z
1/2-x,1/2+y,-z
1/2-x,1/2-y,-z
1/2+x,1/2+y,-z
1/2-x,1/2+y,z
1/2+x,1/2-y,z
loop_
_atom_site_type_symbol
_atom_site_label
_atom_site_fract_x
_atom_site_fract_y
_atom_site_fract_z
Si Si1 0.704150 0.625793 0.163740
Si Si2 0.343755 0.092317 0.656295
Si Si3 0.830701 0.774650 0.163242
Si Si4 0.000000 0.650674 0.349757
Si Si5 0.590523 0.000000 0.664675
Si Si6 0.000000 0.266460 0.165248
Si Si7 0.589923 0.451324 0.835585
O O1 0.787841 0.618977 0.239547
O O2 0.670476 0.673856 0.203673
O O3 0.644576 0.588052 0.223452
O O4 0.717739 0.621617 0.000000
O O5 0.307690 0.090940 0.500000
O O6 0.425772 0.118389 0.659713
O O7 0.359549 0.042908 0.713959
O O8 0.750000 0.750000 0.224941
O O9 0.916919 0.756535 0.220389
O O10 0.829350 0.767577 0.000000
O O11 0.000000 0.684376 0.223476
O O12 0.000000 0.675425 0.500000
O O13 0.500000 0.000000 0.729048
O O14 0.582302 0.000000 0.500000
O O15 0.000000 0.268015 0.000000
O O16 0.500000 0.444966 0.775418
O O17 0.623180 0.500000 0.791219
O O18 0.587060 0.447996 0.000000
#
# Coordination Sequence:
#
# PCOD8270271 Si02
#       7
#    16  16  16   8   8   8  16
#     4  10  20  32  52  77 104 134 170 215 259 303
#     4  10  20  34  53  76 103 137 175 212 254 309
#     4   9  18  32  49  74 104 132 167 210 258 311
#     4  10  20  35  54  76 102 133 173 213 255 310
#     4   9  16  32  55  75  98 137 182 216 251 305
#     4  10  20  34  57  79 102 136 173 217 266 313
#     4   8  15  28  46  70 100 130 161 201 250 302
#
# _framework density 18.219615000000001
#
# number of rings (size 3 to 8) (size 9 to 14) (size 15 to 20)
#    0.000    2.636    0.909    1.636    2.545    2.182 
#    0.000    0.909    0.000    4.364    0.000    1.273 
#    0.000    0.000    0.000    0.000    0.000    0.000 
#
# Total GULP energy -545317.183555 kJ/mol
# GULP energy per Si atom -12393.572354 kJ/mol
# Density = 1.817815 g / cm^3
# Si number density = 18.219615 Si / 1000 Ang^3
#
#
#
# Elastic Constant Matrix: (Units=GPa)
#
#
# Indices 1 2 3 4 5 6 
#
# 1 115.2358 55.7270 22.4964 0.0000 0.0000 0.0000
# 2 55.7270 130.7417 28.2079 0.0000 0.0000 0.0000
# 3 22.4964 28.2079 24.9244 0.0000 0.0000 0.0000
# 4 0.0000 0.0000 0.0000 15.0703 0.0000 0.0000
# 5 0.0000 0.0000 0.0000 0.0000 96.9146 0.0000
# 6 0.0000 0.0000 0.0000 0.0000 0.0000 18.1062
#
#
#
# Elastic Compliance Matrix: (Units=1/GPa)
#
#
# Indices 1 2 3 4 5 6 
#
# 1 0.011674 -0.003576 -0.006490 0.000000 0.000000 0.000000
# 2 -0.003576 0.011215 -0.009465 0.000000 0.000000 0.000000
# 3 -0.006490 -0.009465 0.056691 0.000000 0.000000 0.000000
# 4 0.000000 0.000000 0.000000 0.066356 0.000000 0.000000
# 5 0.000000 0.000000 0.000000 0.000000 0.010318 0.000000
# 6 0.000000 0.000000 0.000000 0.000000 0.000000 0.055230
#
#
# Mechanical properties :
#
#
# Convention : Reuss Voigt Hill
#
# Bulk Modulus (GPa) = 24.68002 53.75162 39.21582
# Shear Modulus (GPa) = 18.93572 36.98294 27.95933
#
# Velocity S-wave (km/s) = 3.22732 4.51026 3.92161
# Velocity P-wave (km/s) = 5.24049 7.52924 6.48661
#
# Compressibility (1/GPa) = 0.04051860
#
# Stress axis : x y z
#
# Youngs Moduli (GPa) = 85.66042 89.16763 17.63944
#
# Poissons Ratio (x) = 0.31883 0.11448
# Poissons Ratio (y) = 0.30629 0.16696
# Poissons Ratio (z) = 0.55594 0.84397
#
# Static dielectric constant tensor:
#      x y z
#    x 3.565290 0.000000 0.000000 
#    y 0.000000 3.615430 0.000000 
#    z 0.000000 0.000000 2.923930 
# 
# 
# High freq. dielectric constant tensor:
#      x y z
#    x 1.714940 0.000000 0.000000 
#    y 0.000000 1.721960 0.000000 
#    z 0.000000 0.000000 1.648750 
# 
# From -- ./inp_files/25207.got.cif
#   From: 2010.03.12/outbox.cif.g09.slc.cpg/sg65_13_cif.got.tgz:25207.got - 2010.04.10 20:52:16.
