data_PCOD8270688
_publ_section_title
;
Structure prediction by ZEFSAII (Michael W. Deem and Ramdas Pophale) SiO2 
 PCOD8270688
Probable space group: C M M M
;
_chemical_formula_sum "Si O2"
_cell_formula_units_Z 48
_cell_length_a 7.600467
_cell_length_b 37.842073
_cell_length_c 8.918774
_cell_angle_alpha 90.000000
_cell_angle_beta 90.000000
_cell_angle_gamma 90.000000
_cell_volume 2565.194830
_symmetry_space_group_name_H-M "C M M M"
_symmetry_group_IT_number 65
_symmetry_cell_setting 'orthorhombic'
loop_
_space_group_symop_operation_xyz
x,y,z
-x,-y,z
x,-y,-z
-x,y,-z
-x,-y,-z
x,y,-z
-x,y,z
x,-y,z
1/2+x,1/2+y,z
1/2-x,1/2-y,z
1/2+x,1/2-y,-z
1/2-x,1/2+y,-z
1/2-x,1/2-y,-z
1/2+x,1/2+y,-z
1/2-x,1/2+y,z
1/2+x,1/2-y,z
loop_
_atom_site_type_symbol
_atom_site_label
_atom_site_fract_x
_atom_site_fract_y
_atom_site_fract_z
Si Si1 0.000000 0.660713 0.178223
Si Si2 0.804150 0.788254 0.178211
Si Si3 0.701760 0.540964 0.172669
Si Si4 0.500000 0.915291 0.675861
O O1 0.171535 0.681757 0.236562
O O2 0.000000 0.622421 0.247569
O O3 0.000000 0.657216 0.000000
O O4 0.750000 0.750000 0.243647
O O5 0.000000 0.798027 0.233785
O O6 0.795588 0.786412 0.000000
O O7 0.500000 0.551170 0.206027
O O8 0.734610 0.500000 0.208510
O O9 0.825195 0.563872 0.278102
O O10 0.748144 0.548928 0.000000
O O11 0.500000 0.910132 0.500000
#
# Coordination Sequence:
#
# PCOD8270688 Si02
#       4
#     8  16  16   8
#     4  10  20  33  51  76 106 141 182 228 277 329
#     4   9  15  26  48  78 104 125 161 222 286 331
#     4   9  19  38  64  89 111 141 186 237 285 333
#     4  12  25  37  52  79 120 160 192 226 272 333
#
# _framework density 18.712029000000001
#
# number of rings (size 3 to 8) (size 9 to 14) (size 15 to 20)
#    0.000    2.333    1.667    3.000    0.000    4.667 
#    0.000    5.000    0.000    1.000    0.000    0.000 
#    0.000    0.000    0.000    0.000    0.000    0.000 
#
# Total GULP energy -297593.617528 kJ/mol
# GULP energy per Si atom -12399.734064 kJ/mol
# Density = 1.866944 g / cm^3
# Si number density = 18.712029 Si / 1000 Ang^3
#
#
#
# Elastic Constant Matrix: (Units=GPa)
#
#
# Indices 1 2 3 4 5 6 
#
# 1 158.2734 72.4766 27.6260 0.0000 0.0000 0.0000
# 2 72.4766 116.0645 26.0985 0.0000 0.0000 0.0000
# 3 27.6260 26.0985 34.3962 0.0000 0.0000 0.0000
# 4 0.0000 0.0000 0.0000 -10.1104 0.0000 0.0000
# 5 0.0000 0.0000 0.0000 0.0000 11.4856 0.0000
# 6 0.0000 0.0000 0.0000 0.0000 0.0000 355.8518
#
#
#
# Elastic Compliance Matrix: (Units=1/GPa)
#
#
# Indices 1 2 3 4 5 6 
#
# 1 0.009215 -0.004932 -0.003660 0.000000 0.000000 0.000000
# 2 -0.004932 0.013027 -0.005924 0.000000 0.000000 0.000000
# 3 -0.003660 -0.005924 0.036507 0.000000 0.000000 0.000000
# 4 0.000000 0.000000 0.000000 -0.098908 0.000000 0.000000
# 5 0.000000 0.000000 0.000000 0.000000 0.087066 0.000000
# 6 0.000000 0.000000 0.000000 0.000000 0.000000 0.002810
#
#
# Mechanical properties :
#
#
# Convention : Reuss Voigt Hill
#
# Bulk Modulus (GPa) = 33.64754 62.34847 47.99801
# Shear Modulus (GPa) = 56.39891 83.61425 70.00658
#
# Velocity S-wave (km/s) = 5.49599 6.69192 6.12322
# Velocity P-wave (km/s) = 7.63514 9.64890 8.70048
#
# Compressibility (1/GPa) = 0.02971985
#
# Stress axis : x y z
#
# Youngs Moduli (GPa) = 108.51641 76.76093 27.39199
#
# Poissons Ratio (x) = 0.37855 0.10024
# Poissons Ratio (y) = 0.53515 0.16227
# Poissons Ratio (z) = 0.39712 0.45472
#
# Static dielectric constant tensor:
#      x y z
#    x 3.754070 0.000000 0.000000 
#    y 0.000000 3.431230 0.000000 
#    z 0.000000 0.000000 2.943300 
# 
# 
# High freq. dielectric constant tensor:
#      x y z
#    x 1.747130 0.000000 0.000000 
#    y 0.000000 1.729150 0.000000 
#    z 0.000000 0.000000 1.675180 
# 
# From -- ./inp_files/3112.got.cif
#   From: 2010.03.12/outbox.cif.g09.slc.cpg/sg65_2_cif.got.tgz:3112.got - 2010.04.10 20:52:16.
