data_PCOD8270854
_publ_section_title
;
Structure prediction by ZEFSAII (Michael W. Deem and Ramdas Pophale) SiO2 
 PCOD8270854
Probable space group: C M M M
;
_chemical_formula_sum "Si O2"
_cell_formula_units_Z 80
_cell_length_a 16.356149
_cell_length_b 27.352159
_cell_length_c 9.367401
_cell_angle_alpha 90.000000
_cell_angle_beta 90.000000
_cell_angle_gamma 90.000000
_cell_volume 4190.750278
_symmetry_space_group_name_H-M "C M M M"
_symmetry_group_IT_number 65
_symmetry_cell_setting 'orthorhombic'
loop_
_space_group_symop_operation_xyz
x,y,z
-x,-y,z
x,-y,-z
-x,y,-z
-x,-y,-z
x,y,-z
-x,y,z
x,-y,z
1/2+x,1/2+y,z
1/2-x,1/2-y,z
1/2+x,1/2-y,-z
1/2-x,1/2+y,-z
1/2-x,1/2-y,-z
1/2+x,1/2+y,-z
1/2-x,1/2+y,z
1/2+x,1/2-y,z
loop_
_atom_site_type_symbol
_atom_site_label
_atom_site_fract_x
_atom_site_fract_y
_atom_site_fract_z
Si Si1 0.367812 0.111511 0.166404
Si Si2 0.838696 0.189601 0.659490
Si Si3 0.677215 0.598299 0.834721
Si Si4 0.500000 0.057327 0.660604
Si Si5 0.354200 0.203200 0.339177
Si Si6 0.093057 0.000000 0.169852
O O1 0.273828 0.097754 0.193324
O O2 0.419515 0.072220 0.252772
O O3 0.392313 0.164967 0.227408
O O4 0.390462 0.110170 0.000000
O O5 0.868365 0.177132 0.500000
O O6 0.865652 0.144888 0.760024
O O7 0.742246 0.196339 0.662630
O O8 0.877999 0.241487 0.708992
O O9 0.639081 0.548301 0.771783
O O10 0.656429 0.603636 0.000000
O O11 0.500000 0.079818 0.500000
O O12 0.500000 0.000000 0.649395
O O13 0.386969 0.193373 0.500000
O O14 0.000000 0.000000 0.225496
O O15 0.096708 0.000000 0.000000
#
# Coordination Sequence:
#
# PCOD8270854 Si02
#       6
#    16  16  16   8  16   8
#     4  10  20  33  53  80 108 137 173 222 271 310
#     4   8  14  26  47  75 104 136 172 213 257 306
#     4   9  18  31  52  80 105 135 176 221 266 317
#     4  11  25  41  55  73 103 143 185 220 259 318
#     4   8  14  27  48  73 104 139 174 210 255 311
#     4   9  18  34  55  76 103 138 174 211 263 321
#
# _framework density 19.089659999999999
#
# number of rings (size 3 to 8) (size 9 to 14) (size 15 to 20)
#    0.000    3.000    0.000    2.100    1.400    2.400 
#    0.000    4.500    2.200    1.200    0.000    0.000 
#    0.000    0.000    0.000    0.000    0.000    0.000 
#
# Total GULP energy -495778.179172 kJ/mol
# GULP energy per Si atom -12394.454479 kJ/mol
# Density = 1.904621 g / cm^3
# Si number density = 19.089660 Si / 1000 Ang^3
#
#
#
# Elastic Constant Matrix: (Units=GPa)
#
#
# Indices 1 2 3 4 5 6 
#
# 1 48.8026 43.3707 34.4883 0.0000 0.0000 0.0000
# 2 43.3707 168.5745 69.8443 0.0000 0.0000 0.0000
# 3 34.4883 69.8443 101.2003 0.0000 0.0000 0.0000
# 4 0.0000 0.0000 0.0000 35.2258 0.0000 0.0000
# 5 0.0000 0.0000 0.0000 0.0000 14.7739 0.0000
# 6 0.0000 0.0000 0.0000 0.0000 0.0000 14.0130
#
#
#
# Elastic Compliance Matrix: (Units=1/GPa)
#
#
# Indices 1 2 3 4 5 6 
#
# 1 0.029526 -0.004800 -0.006750 0.000000 0.000000 0.000000
# 2 -0.004800 0.009088 -0.004636 0.000000 0.000000 0.000000
# 3 -0.006750 -0.004636 0.015381 0.000000 0.000000 0.000000
# 4 0.000000 0.000000 0.000000 0.028388 0.000000 0.000000
# 5 0.000000 0.000000 0.000000 0.000000 0.067687 0.000000
# 6 0.000000 0.000000 0.000000 0.000000 0.000000 0.071362
#
#
# Mechanical properties :
#
#
# Convention : Reuss Voigt Hill
#
# Bulk Modulus (GPa) = 46.24526 68.22046 57.23286
# Shear Modulus (GPa) = 19.15615 24.19416 21.67515
#
# Velocity S-wave (km/s) = 3.17122 3.56391 3.37328
# Velocity P-wave (km/s) = 6.13895 7.26290 6.72445
#
# Compressibility (1/GPa) = 0.02162384
#
# Stress axis : x y z
#
# Youngs Moduli (GPa) = 33.86811 110.03543 65.01349
#
# Poissons Ratio (x) = 0.52817 0.43881
# Poissons Ratio (y) = 0.16257 0.30143
# Poissons Ratio (z) = 0.22860 0.51016
#
# Static dielectric constant tensor:
#      x y z
#    x 3.165860 0.000000 0.000000 
#    y 0.000000 3.911720 0.000000 
#    z 0.000000 0.000000 3.496040 
# 
# 
# High freq. dielectric constant tensor:
#      x y z
#    x 1.709570 0.000000 0.000000 
#    y 0.000000 1.755170 0.000000 
#    z 0.000000 0.000000 1.728150 
# 
# From -- ./inp_files/9754.got.cif
#   From: 2010.03.12/outbox.cif.g09.slc.cpg/sg65_5_cif.got.tgz:9754.got - 2010.04.10 20:52:16.
