data_PCOD8270269
_publ_section_title
;
Structure prediction by ZEFSAII (Michael W. Deem and Ramdas Pophale) SiO2 
 PCOD8270269
Probable space group: C M M M
;
_chemical_formula_sum "Si O2"
_cell_formula_units_Z 60
_cell_length_a 14.303692
_cell_length_b 33.846691
_cell_length_c 7.647397
_cell_angle_alpha 90.000000
_cell_angle_beta 90.000000
_cell_angle_gamma 90.000000
_cell_volume 3702.354524
_symmetry_space_group_name_H-M "C M M M"
_symmetry_group_IT_number 65
_symmetry_cell_setting 'orthorhombic'
loop_
_space_group_symop_operation_xyz
x,y,z
-x,-y,z
x,-y,-z
-x,y,-z
-x,-y,-z
x,y,-z
-x,y,z
x,-y,z
1/2+x,1/2+y,z
1/2-x,1/2-y,z
1/2+x,1/2-y,-z
1/2-x,1/2+y,-z
1/2-x,1/2-y,-z
1/2+x,1/2+y,-z
1/2-x,1/2+y,z
1/2+x,1/2-y,z
loop_
_atom_site_type_symbol
_atom_site_label
_atom_site_fract_x
_atom_site_fract_y
_atom_site_fract_z
Si Si1 0.500000 0.291862 0.700769
Si Si2 0.000000 0.729740 0.000000
Si Si3 0.610756 0.500000 0.809077
Si Si4 0.793937 0.705947 0.000000
Si Si5 0.188916 0.164039 0.697565
Si Si6 0.105668 0.915074 0.208933
O O1 0.500000 0.277762 0.500000
O O2 0.410542 0.317727 0.747722
O O3 0.500000 0.254113 0.822077
O O4 0.094102 0.704220 0.000000
O O5 0.500000 0.500000 0.831654
O O6 0.638143 0.541615 0.715725
O O7 0.658274 0.500000 0.000000
O O8 0.750000 0.750000 0.000000
O O9 0.764672 0.682362 0.826831
O O10 0.219343 0.174471 0.500000
O O11 0.178708 0.116870 0.717649
O O12 0.000000 0.905446 0.273862
O O13 0.107993 0.915576 0.000000
#
# Coordination Sequence:
#
# PCOD8270269 Si02
#       6
#     8   4   8   8  16  16
#     4  10  20  32  52  77 101 129 165 206 241 286
#     4  12  24  40  56  72  94 122 166 210 264 302
#     4   7  12  22  37  67  99 136 172 201 235 276
#     4  12  24  38  56  73  95 127 165 211 257 299
#     4  11  21  33  51  77 103 133 171 205 241 290
#     4   9  15  25  46  69 102 139 173 204 237 281
#
# _framework density 16.205901999999998
#
# number of rings (size 3 to 8) (size 9 to 14) (size 15 to 20)
#    0.000    2.000    5.333    1.600    0.000    1.600 
#    0.000    0.667    0.000    2.400    0.000    0.000 
#    0.000    2.133    0.000    2.400    0.000    0.000 
#
# Total GULP energy -371767.882484 kJ/mol
# GULP energy per Si atom -12392.262749 kJ/mol
# Density = 1.616902 g / cm^3
# Si number density = 16.205902 Si / 1000 Ang^3
#
#
#
# Elastic Constant Matrix: (Units=GPa)
#
#
# Indices 1 2 3 4 5 6 
#
# 1 86.4982 49.9003 36.9581 0.0000 0.0000 0.0000
# 2 49.9003 123.8818 40.3152 0.0000 0.0000 0.0000
# 3 36.9581 40.3152 73.9805 0.0000 0.0000 0.0000
# 4 0.0000 0.0000 0.0000 2.4278 0.0000 0.0000
# 5 0.0000 0.0000 0.0000 0.0000 28.8025 0.0000
# 6 0.0000 0.0000 0.0000 0.0000 0.0000 -0.0494
#
#
#
# Elastic Compliance Matrix: (Units=1/GPa)
#
#
# Indices 1 2 3 4 5 6 
#
# 1 0.016851 -0.004921 -0.005737 0.000000 0.000000 0.000000
# 2 -0.004921 0.011249 -0.003672 0.000000 0.000000 0.000000
# 3 -0.005737 -0.003672 0.018384 0.000000 0.000000 0.000000
# 4 0.000000 0.000000 0.000000 0.411891 0.000000 0.000000
# 5 0.000000 0.000000 0.000000 0.000000 0.034719 0.000000
# 6 0.000000 0.000000 0.000000 0.000000 0.000000-20.224253
#
#
# Mechanical properties :
#
#
# Convention : Reuss Voigt Hill
#
# Bulk Modulus (GPa) = 56.09976 59.85642 57.97809
# Shear Modulus (GPa) = -0.25385 16.71530 8.23072
#
# Velocity S-wave (km/s) = -0.39621 3.21508 2.25607
# Velocity P-wave (km/s) = 5.87220 7.12723 6.52994
#
# Compressibility (1/GPa) = 0.01782539
#
# Stress axis : x y z
#
# Youngs Moduli (GPa) = 59.34470 88.89441 54.39549
#
# Poissons Ratio (x) = 0.43742 0.31204
# Poissons Ratio (y) = 0.29202 0.19974
# Poissons Ratio (z) = 0.34043 0.32642
#
# Static dielectric constant tensor:
#      x y z
#    x 2.983320 0.000000 0.000000 
#    y 0.000000 3.409770 0.000000 
#    z 0.000000 0.000000 3.014000 
# 
# 
# High freq. dielectric constant tensor:
#      x y z
#    x 1.556480 0.000000 0.000000 
#    y 0.000000 1.631680 0.000000 
#    z 0.000000 0.000000 1.628210 
# 
# From -- ./inp_files/4808.got.cif
#   From: 2010.03.12/outbox.cif.g09.slc.cpg/sg65_3_cif.got.tgz:4808.got - 2010.04.10 20:52:16.
