data_PCOD8270725
_publ_section_title
;
Structure prediction by ZEFSAII (Michael W. Deem and Ramdas Pophale) SiO2 
 PCOD8270725
Probable space group: C M M M
;
_chemical_formula_sum "Si O2"
_cell_formula_units_Z 96
_cell_length_a 8.751462
_cell_length_b 19.048225
_cell_length_c 31.214560
_cell_angle_alpha 90.000000
_cell_angle_beta 90.000000
_cell_angle_gamma 90.000000
_cell_volume 5203.461448
_symmetry_space_group_name_H-M "C M M M"
_symmetry_group_IT_number 65
_symmetry_cell_setting 'orthorhombic'
loop_
_space_group_symop_operation_xyz
x,y,z
-x,-y,z
x,-y,-z
-x,y,-z
-x,-y,-z
x,y,-z
-x,y,z
x,-y,z
1/2+x,1/2+y,z
1/2-x,1/2-y,z
1/2+x,1/2-y,-z
1/2-x,1/2+y,-z
1/2-x,1/2-y,-z
1/2+x,1/2+y,-z
1/2-x,1/2+y,z
1/2+x,1/2-y,z
loop_
_atom_site_type_symbol
_atom_site_label
_atom_site_fract_x
_atom_site_fract_y
_atom_site_fract_z
Si Si1 0.318735 0.078536 0.545290
Si Si2 0.679834 0.823989 0.201879
Si Si3 0.826096 0.082967 0.132018
Si Si4 0.320340 0.676110 0.707886
Si Si5 0.328131 0.083369 0.046872
Si Si6 0.675521 0.916362 0.637749
O O1 0.267333 0.116676 0.500000
O O2 0.500000 0.074680 0.546952
O O3 0.267759 0.112793 0.590675
O O4 0.252238 0.000000 0.543677
O O5 0.500000 0.815785 0.207045
O O6 0.750000 0.750000 0.187056
O O7 0.716859 0.882567 0.166935
O O8 0.749697 0.848266 0.247064
O O9 0.780920 0.111241 0.084698
O O10 0.000000 0.104801 0.140978
O O11 0.802156 0.000000 0.135162
O O12 0.500000 0.684584 0.713435
O O13 0.250000 0.750000 0.692913
O O14 0.284486 0.617325 0.672907
O O15 0.500000 0.110609 0.055333
O O16 0.326910 0.000000 0.046763
O O17 0.270809 0.110320 0.000000
O O18 0.500000 0.894653 0.646629
O O19 0.693114 0.000000 0.639451
#
# Coordination Sequence:
#
# PCOD8270725 Si02
#       6
#    16  16  16  16  16  16
#     4   7  10  19  39  68  99 129 161 197 237 284
#     4  11  22  38  58  76  98 129 167 207 251 305
#     4  10  20  33  51  78 109 137 169 209 250 292
#     4  11  22  37  55  73  97 129 167 207 249 300
#     4   8  14  26  45  70 101 136 172 208 247 292
#     4   9  17  30  50  77 106 133 164 203 247 294
#
# _framework density 18.449258
#
# number of rings (size 3 to 8) (size 9 to 14) (size 15 to 20)
#    0.000    2.667    0.000    6.500    0.000    2.333 
#    0.000    1.667    0.000    1.500    0.000    2.333 
#    0.000    0.000    0.000    0.000    0.000    0.000 
#
# Total GULP energy -594731.685744 kJ/mol
# GULP energy per Si atom -12390.243453 kJ/mol
# Density = 1.840727 g / cm^3
# Si number density = 18.449258 Si / 1000 Ang^3
#
#
#
# Elastic Constant Matrix: (Units=GPa)
#
#
# Indices 1 2 3 4 5 6 
#
# 1 111.6037 27.1573 54.3547 0.0000 0.0000 0.0000
# 2 27.1573 33.3613 44.7764 0.0000 0.0000 0.0000
# 3 54.3547 44.7764 150.0102 0.0000 0.0000 0.0000
# 4 0.0000 0.0000 0.0000 -0.7680 0.0000 0.0000
# 5 0.0000 0.0000 0.0000 0.0000 20.8291 0.0000
# 6 0.0000 0.0000 0.0000 0.0000 0.0000 21.1757
#
#
#
# Elastic Compliance Matrix: (Units=1/GPa)
#
#
# Indices 1 2 3 4 5 6 
#
# 1 0.011637 -0.006363 -0.002317 0.000000 0.000000 0.000000
# 2 -0.006363 0.053489 -0.013660 0.000000 0.000000 0.000000
# 3 -0.002317 -0.013660 0.011583 0.000000 0.000000 0.000000
# 4 0.000000 0.000000 0.000000 -1.302124 0.000000 0.000000
# 5 0.000000 0.000000 0.000000 0.000000 0.048010 0.000000
# 6 0.000000 0.000000 0.000000 0.000000 0.000000 0.047224
#
#
# Mechanical properties :
#
#
# Convention : Reuss Voigt Hill
#
# Bulk Modulus (GPa) = 31.22237 60.83912 46.03075
# Shear Modulus (GPa) = -4.65193 19.49314 7.42061
#
# Velocity S-wave (km/s) = -1.58964 3.25404 2.00771
# Velocity P-wave (km/s) = 3.68658 6.86778 5.51168
#
# Compressibility (1/GPa) = 0.03202832
#
# Stress axis : x y z
#
# Youngs Moduli (GPa) = 85.93106 18.69553 86.33074
#
# Poissons Ratio (x) = 0.11896 0.20006
# Poissons Ratio (y) = 0.54676 1.17930
# Poissons Ratio (z) = 0.19914 0.25539
#
# Static dielectric constant tensor:
#      x y z
#    x 3.283880 0.000000 0.000000 
#    y 0.000000 2.923830 0.000000 
#    z 0.000000 0.000000 3.931860 
# 
# 
# High freq. dielectric constant tensor:
#      x y z
#    x 1.703270 0.000000 0.000000 
#    y 0.000000 1.663320 0.000000 
#    z 0.000000 0.000000 1.741470 
# 
# From -- ./inp_files/73193.got.cif
#   From: 2010.03.12/outbox.cif.g09.slc.cpg/sg65_37_cif.got.tgz:73193.got - 2010.04.10 20:52:16.
