data_PCOD8270189
_publ_section_title
;
Structure prediction by ZEFSAII (Michael W. Deem and Ramdas Pophale) SiO2 
 PCOD8270189
Probable space group: C M M M
;
_chemical_formula_sum "Si O2"
_cell_formula_units_Z 96
_cell_length_a 31.432372
_cell_length_b 9.089057
_cell_length_c 18.438729
_cell_angle_alpha 90.000000
_cell_angle_beta 90.000000
_cell_angle_gamma 90.000000
_cell_volume 5267.771934
_symmetry_space_group_name_H-M "C M M M"
_symmetry_group_IT_number 65
_symmetry_cell_setting 'orthorhombic'
loop_
_space_group_symop_operation_xyz
x,y,z
-x,-y,z
x,-y,-z
-x,y,-z
-x,-y,-z
x,y,-z
-x,y,z
x,-y,z
1/2+x,1/2+y,z
1/2-x,1/2-y,z
1/2+x,1/2-y,-z
1/2-x,1/2+y,-z
1/2-x,1/2-y,-z
1/2+x,1/2+y,-z
1/2-x,1/2+y,z
1/2+x,1/2-y,z
loop_
_atom_site_type_symbol
_atom_site_label
_atom_site_fract_x
_atom_site_fract_y
_atom_site_fract_z
Si Si1 0.544740 0.825598 0.419072
Si Si2 0.129242 0.666680 0.913780
Si Si3 0.953015 0.834231 0.086182
Si Si4 0.292496 0.328879 0.672529
Si Si5 0.136236 0.331568 0.586517
Si Si6 0.706552 0.672919 0.839702
O O1 0.543170 0.760179 0.500000
O O2 0.500000 0.776405 0.379146
O O3 0.589598 0.777611 0.383246
O O4 0.546354 0.000000 0.424179
O O5 0.134186 0.500000 0.885486
O O6 0.084256 0.729172 0.883397
O O7 0.167600 0.765212 0.885446
O O8 0.129972 0.673130 0.000000
O O9 0.000000 0.780099 0.112581
O O10 0.944721 0.000000 0.114268
O O11 0.952017 0.832622 0.000000
O O12 0.285604 0.500000 0.660835
O O13 0.250000 0.250000 0.645348
O O14 0.330750 0.276306 0.622993
O O15 0.302226 0.289912 0.755849
O O16 0.138190 0.315823 0.500000
O O17 0.145670 0.500000 0.609386
O O18 0.710905 0.500000 0.854011
O O19 0.750000 0.750000 0.866039
#
# Coordination Sequence:
#
# PCOD8270189 Si02
#       6
#    16  16  16  16  16  16
#     4   7  10  19  38  65  95 124 154 188 225 268
#     4  10  20  32  49  76 105 130 159 198 243 287
#     4   8  14  26  45  69  98 132 166 198 236 283
#     4  10  21  36  53  71  92 123 162 200 241 289
#     4   9  17  29  48  75 102 127 158 197 240 283
#     4  10  21  37  55  72  92 123 163 202 243 294
#
# _framework density 18.224022000000001
#
# number of rings (size 3 to 8) (size 9 to 14) (size 15 to 20)
#    0.000    3.000    0.000    3.500    0.000    4.333 
#    0.000    1.667    0.000    1.500    0.000    7.000 
#    0.000    0.000    0.000    0.000    0.000    0.000 
#
# Total GULP energy -594714.113525 kJ/mol
# GULP energy per Si atom -12389.877365 kJ/mol
# Density = 1.818254 g / cm^3
# Si number density = 18.224022 Si / 1000 Ang^3
#
#
#
# Elastic Constant Matrix: (Units=GPa)
#
#
# Indices 1 2 3 4 5 6 
#
# 1 174.2542 61.3941 30.6240 0.0000 0.0000 0.0000
# 2 61.3941 82.5802 19.9303 0.0000 0.0000 0.0000
# 3 30.6240 19.9303 20.0901 0.0000 0.0000 0.0000
# 4 0.0000 0.0000 0.0000 21.2086 0.0000 0.0000
# 5 0.0000 0.0000 0.0000 0.0000 -16.6738 0.0000
# 6 0.0000 0.0000 0.0000 0.0000 0.0000 32.1260
#
#
#
# Elastic Compliance Matrix: (Units=1/GPa)
#
#
# Indices 1 2 3 4 5 6 
#
# 1 0.008908 -0.004399 -0.009215 0.000000 0.000000 0.000000
# 2 -0.004399 0.018093 -0.011245 0.000000 0.000000 0.000000
# 3 -0.009215 -0.011245 0.074978 0.000000 0.000000 0.000000
# 4 0.000000 0.000000 0.000000 0.047151 0.000000 0.000000
# 5 0.000000 0.000000 0.000000 0.000000 -0.059974 0.000000
# 6 0.000000 0.000000 0.000000 0.000000 0.000000 0.031127
#
#
# Mechanical properties :
#
#
# Convention : Reuss Voigt Hill
#
# Bulk Modulus (GPa) = 19.13415 55.64683 37.39049
# Shear Modulus (GPa) = 26.67803 18.33056 22.50430
#
# Velocity S-wave (km/s) = 3.83024 3.17495 3.51788
# Velocity P-wave (km/s) = 5.48481 6.63638 6.08789
#
# Compressibility (1/GPa) = 0.05226258
#
# Stress axis : x y z
#
# Youngs Moduli (GPa) = 112.25898 55.26881 13.33730
#
# Poissons Ratio (x) = 0.24311 0.12290
# Poissons Ratio (y) = 0.49378 0.14997
# Poissons Ratio (z) = 1.03448 0.62147
#
# Static dielectric constant tensor:
#      x y z
#    x 3.934260 0.000000 0.000000 
#    y 0.000000 3.286660 0.000000 
#    z 0.000000 0.000000 2.905950 
# 
# 
# High freq. dielectric constant tensor:
#      x y z
#    x 1.734120 0.000000 0.000000 
#    y 0.000000 1.693630 0.000000 
#    z 0.000000 0.000000 1.653040 
# 
# From -- ./inp_files/60298.got.cif
#   From: 2010.03.12/outbox.cif.g09.slc.cpg/sg65_31_cif.got.tgz:60298.got - 2010.04.10 20:52:16.
