data_PCOD8270928
_publ_section_title
;
Structure prediction by ZEFSAII (Michael W. Deem and Ramdas Pophale) SiO2 
 PCOD8270928
Probable space group: C M M M
;
_chemical_formula_sum "Si O2"
_cell_formula_units_Z 72
_cell_length_a 9.605573
_cell_length_b 34.253818
_cell_length_c 12.215440
_cell_angle_alpha 90.000000
_cell_angle_beta 90.000000
_cell_angle_gamma 90.000000
_cell_volume 4019.216287
_symmetry_space_group_name_H-M "C M M M"
_symmetry_group_IT_number 65
_symmetry_cell_setting 'orthorhombic'
loop_
_space_group_symop_operation_xyz
x,y,z
-x,-y,z
x,-y,-z
-x,y,-z
-x,-y,-z
x,y,-z
-x,y,z
x,-y,z
1/2+x,1/2+y,z
1/2-x,1/2-y,z
1/2+x,1/2-y,-z
1/2-x,1/2+y,-z
1/2-x,1/2-y,-z
1/2+x,1/2+y,-z
1/2-x,1/2+y,z
1/2+x,1/2-y,z
loop_
_atom_site_type_symbol
_atom_site_label
_atom_site_fract_x
_atom_site_fract_y
_atom_site_fract_z
Si Si1 0.331858 0.791007 0.000000
Si Si2 0.658435 0.215626 0.376315
Si Si3 0.160073 0.344614 0.802973
Si Si4 0.834307 0.455562 0.500000
Si Si5 0.165728 0.500000 0.876327
Si Si6 0.833542 0.427448 0.265265
O O1 0.250000 0.750000 0.000000
O O2 0.278108 0.816703 0.102984
O O3 0.500000 0.783461 0.000000
O O4 0.705541 0.207402 0.500000
O O5 0.500000 0.229733 0.368097
O O6 0.750000 0.250000 0.323363
O O7 0.682398 0.175612 0.313540
O O8 0.228097 0.387518 0.788245
O O9 0.000000 0.350468 0.833588
O O10 0.778377 0.500000 0.500000
O O11 0.779696 0.433738 0.390136
O O12 0.000000 0.456222 0.500000
O O13 0.221070 0.462132 0.812062
O O14 0.000000 0.500000 0.877996
O O15 0.224904 0.500000 0.000000
O O16 0.000000 0.425893 0.267411
#
# Coordination Sequence:
#
# PCOD8270928 Si02
#       6
#     8  16  16   8   8  16
#     4  10  20  34  50  67  89 119 153 188 228 274
#     4   9  17  29  44  62  84 111 143 178 218 261
#     4   9  18  28  41  60  83 111 147 185 220 260
#     4   9  14  22  34  50  75 108 151 187 215 257
#     4   9  16  23  33  49  75 110 145 176 213 259
#     4   9  16  24  35  53  77 109 146 184 217 255
#
# _framework density 17.913941000000001
#
# number of rings (size 3 to 8) (size 9 to 14) (size 15 to 20)
#    0.000    2.889    1.111    0.667    3.111    0.000 
#    0.000    0.000    0.000    0.000    0.000    0.000 
#    0.000    0.000    0.000    5.000    0.000   22.111 
#
# Total GULP energy -446109.099526 kJ/mol
# GULP energy per Si atom -12391.919431 kJ/mol
# Density = 1.787317 g / cm^3
# Si number density = 17.913941 Si / 1000 Ang^3
#
#
#
# Elastic Constant Matrix: (Units=GPa)
#
#
# Indices 1 2 3 4 5 6 
#
# 1 14.1107 25.3324 14.7811 0.0000 0.0000 0.0000
# 2 25.3324 175.2817 79.6158 0.0000 0.0000 0.0000
# 3 14.7811 79.6158 135.2758 0.0000 0.0000 0.0000
# 4 0.0000 0.0000 0.0000 24.0594 0.0000 0.0000
# 5 0.0000 0.0000 0.0000 0.0000 7.8117 0.0000
# 6 0.0000 0.0000 0.0000 0.0000 0.0000 13.2031
#
#
#
# Elastic Compliance Matrix: (Units=1/GPa)
#
#
# Indices 1 2 3 4 5 6 
#
# 1 0.096699 -0.012524 -0.003195 0.000000 0.000000 0.000000
# 2 -0.012524 0.009409 -0.004169 0.000000 0.000000 0.000000
# 3 -0.003195 -0.004169 0.010195 0.000000 0.000000 0.000000
# 4 0.000000 0.000000 0.000000 0.041564 0.000000 0.000000
# 5 0.000000 0.000000 0.000000 0.000000 0.128013 0.000000
# 6 0.000000 0.000000 0.000000 0.000000 0.000000 0.075740
#
#
# Mechanical properties :
#
#
# Convention : Reuss Voigt Hill
#
# Bulk Modulus (GPa) = 13.06739 62.68074 37.87407
# Shear Modulus (GPa) = 11.71223 22.67742 17.19482
#
# Velocity S-wave (km/s) = 2.55974 3.56182 3.10152
# Velocity P-wave (km/s) = 4.00583 7.20981 5.83215
#
# Compressibility (1/GPa) = 0.07652635
#
# Stress axis : x y z
#
# Youngs Moduli (GPa) = 10.34142 106.28390 98.08675
#
# Poissons Ratio (x) = 1.33111 0.31338
# Poissons Ratio (y) = 0.12952 0.40893
# Poissons Ratio (z) = 0.03304 0.44310
#
# Static dielectric constant tensor:
#      x y z
#    x 2.602780 0.000000 0.000000 
#    y 0.000000 3.564890 0.000000 
#    z 0.000000 0.000000 3.605750 
# 
# 
# High freq. dielectric constant tensor:
#      x y z
#    x 1.599470 0.000000 0.000000 
#    y 0.000000 1.706540 0.000000 
#    z 0.000000 0.000000 1.710890 
# 
# From -- ./inp_files/22756.got.cif
#   From: 2010.03.12/outbox.cif.g09.slc.cpg/sg65_12_cif.got.tgz:22756.got - 2010.04.10 20:52:16.
