data_PCOD8270431
_publ_section_title
;
Structure prediction by ZEFSAII (Michael W. Deem and Ramdas Pophale) SiO2 
 PCOD8270431
Probable space group: C M M M
;
_chemical_formula_sum "Si O2"
_cell_formula_units_Z 96
_cell_length_a 15.042649
_cell_length_b 14.460603
_cell_length_c 22.860241
_cell_angle_alpha 90.000000
_cell_angle_beta 90.000000
_cell_angle_gamma 90.000000
_cell_volume 4972.691646
_symmetry_space_group_name_H-M "C M M M"
_symmetry_group_IT_number 65
_symmetry_cell_setting 'orthorhombic'
loop_
_space_group_symop_operation_xyz
x,y,z
-x,-y,z
x,-y,-z
-x,y,-z
-x,-y,-z
x,y,-z
-x,y,z
x,-y,z
1/2+x,1/2+y,z
1/2-x,1/2-y,z
1/2+x,1/2-y,-z
1/2-x,1/2+y,-z
1/2-x,1/2-y,-z
1/2+x,1/2+y,-z
1/2-x,1/2+y,z
1/2+x,1/2-y,z
loop_
_atom_site_type_symbol
_atom_site_label
_atom_site_fract_x
_atom_site_fract_y
_atom_site_fract_z
Si Si1 0.901128 0.897687 0.225037
Si Si2 0.151681 0.725415 0.171250
Si Si3 0.895391 0.604336 0.066445
Si Si4 0.719742 0.390599 0.331657
Si Si5 0.099867 0.110135 0.434746
Si Si6 0.598973 0.891544 0.720061
O O1 0.899494 0.824423 0.171570
O O2 0.836840 0.858586 0.275517
O O3 0.000000 0.903249 0.251471
O O4 0.871188 0.000000 0.203167
O O5 0.250000 0.750000 0.190808
O O6 0.152052 0.678848 0.107679
O O7 0.106536 0.656279 0.217145
O O8 0.864236 0.500000 0.081831
O O9 0.000000 0.612571 0.075442
O O10 0.868817 0.628199 0.000000
O O11 0.715916 0.500000 0.336092
O O12 0.673185 0.348284 0.389682
O O13 0.822603 0.356715 0.324232
O O14 0.124251 0.145137 0.500000
O O15 0.000000 0.143652 0.417901
O O16 0.101954 0.000000 0.433018
O O17 0.500000 0.870903 0.693941
O O18 0.611651 0.000000 0.731519
#
# Coordination Sequence:
#
# PCOD8270431 Si02
#       6
#    16  16  16  16  16  16
#     4  10  20  33  49  72 105 142 175 211 261 323
#     4  12  22  33  53  78 109 139 172 219 270 318
#     4   9  19  37  60  83 106 136 178 226 269 309
#     4   9  16  28  45  69 101 135 175 221 270 319
#     4   8  13  22  40  68 101 138 179 223 271 320
#     4  10  20  34  52  74 102 138 181 227 272 319
#
# _framework density 19.305440999999998
#
# number of rings (size 3 to 8) (size 9 to 14) (size 15 to 20)
#    0.000    2.333    1.667    3.500    0.000    4.333 
#    0.000    0.000    0.000    1.000    0.000    8.167 
#    0.000    2.667    0.000    0.333    0.000    0.167 
#
# Total GULP energy -594813.469720 kJ/mol
# GULP energy per Si atom -12391.947286 kJ/mol
# Density = 1.926150 g / cm^3
# Si number density = 19.305441 Si / 1000 Ang^3
#
#
#
# Elastic Constant Matrix: (Units=GPa)
#
#
# Indices 1 2 3 4 5 6 
#
# 1 131.5068 33.2009 54.7834 0.0000 0.0000 0.0000
# 2 33.2009 70.9403 52.6022 0.0000 0.0000 0.0000
# 3 54.7834 52.6022 109.3111 0.0000 0.0000 0.0000
# 4 0.0000 0.0000 0.0000 14.8166 0.0000 0.0000
# 5 0.0000 0.0000 0.0000 0.0000 18.2103 0.0000
# 6 0.0000 0.0000 0.0000 0.0000 0.0000 18.6615
#
#
#
# Elastic Compliance Matrix: (Units=1/GPa)
#
#
# Indices 1 2 3 4 5 6 
#
# 1 0.009706 -0.001455 -0.004164 0.000000 0.000000 0.000000
# 2 -0.001455 0.022135 -0.009923 0.000000 0.000000 0.000000
# 3 -0.004164 -0.009923 0.016010 0.000000 0.000000 0.000000
# 4 0.000000 0.000000 0.000000 0.067492 0.000000 0.000000
# 5 0.000000 0.000000 0.000000 0.000000 0.054914 0.000000
# 6 0.000000 0.000000 0.000000 0.000000 0.000000 0.053586
#
#
# Mechanical properties :
#
#
# Convention : Reuss Voigt Hill
#
# Bulk Modulus (GPa) = 59.63813 65.88124 62.75969
# Shear Modulus (GPa) = 19.19268 21.74912 20.47090
#
# Velocity S-wave (km/s) = 3.15645 3.36010 3.25986
# Velocity P-wave (km/s) = 6.65155 7.01808 6.83728
#
# Compressibility (1/GPa) = 0.01676780
#
# Stress axis : x y z
#
# Youngs Moduli (GPa) = 103.02616 45.17788 62.46030
#
# Poissons Ratio (x) = 0.06572 0.26011
# Poissons Ratio (y) = 0.14987 0.61976
# Poissons Ratio (z) = 0.42905 0.44828
#
# Static dielectric constant tensor:
#      x y z
#    x 3.745220 0.000000 0.000000 
#    y 0.000000 3.490200 0.000000 
#    z 0.000000 0.000000 3.481100 
# 
# 
# High freq. dielectric constant tensor:
#      x y z
#    x 1.755500 0.000000 0.000000 
#    y 0.000000 1.739000 0.000000 
#    z 0.000000 0.000000 1.718560 
# 
# From -- ./inp_files/62620.got.cif
#   From: 2010.03.12/outbox.cif.g09.slc.cpg/sg65_32_cif.got.tgz:62620.got - 2010.04.10 20:52:16.
