data_PCOD8270606
_publ_section_title
;
Structure prediction by ZEFSAII (Michael W. Deem and Ramdas Pophale) SiO2 
 PCOD8270606
Probable space group: C M M M
;
_chemical_formula_sum "Si O2"
_cell_formula_units_Z 88
_cell_length_a 15.582632
_cell_length_b 34.397002
_cell_length_c 9.054479
_cell_angle_alpha 90.000000
_cell_angle_beta 90.000000
_cell_angle_gamma 90.000000
_cell_volume 4853.162933
_symmetry_space_group_name_H-M "C M M M"
_symmetry_group_IT_number 65
_symmetry_cell_setting 'orthorhombic'
loop_
_space_group_symop_operation_xyz
x,y,z
-x,-y,z
x,-y,-z
-x,y,-z
-x,-y,-z
x,y,-z
-x,y,z
x,-y,z
1/2+x,1/2+y,z
1/2-x,1/2-y,z
1/2+x,1/2-y,-z
1/2-x,1/2+y,-z
1/2-x,1/2-y,-z
1/2+x,1/2+y,-z
1/2-x,1/2+y,z
1/2+x,1/2-y,z
loop_
_atom_site_type_symbol
_atom_site_label
_atom_site_fract_x
_atom_site_fract_y
_atom_site_fract_z
Si Si1 0.170772 0.456475 0.174115
Si Si2 0.000000 0.454080 0.663956
Si Si3 0.249099 0.620627 0.825681
Si Si4 0.095991 0.674356 0.171567
Si Si5 0.651162 0.749038 0.674477
Si Si6 0.403711 0.671773 0.828555
O O1 0.197462 0.500000 0.227518
O O2 0.083935 0.440915 0.247989
O O3 0.243415 0.424995 0.220979
O O4 0.154657 0.456450 0.000000
O O5 0.000000 0.500000 0.652395
O O6 0.000000 0.435505 0.500000
O O7 0.166206 0.644072 0.765047
O O8 0.337349 0.639372 0.765656
O O9 0.248000 0.623201 0.000000
O O10 0.102389 0.714167 0.260613
O O11 0.000000 0.657154 0.195003
O O12 0.113106 0.683451 0.000000
O O13 0.640932 0.749076 0.500000
O O14 0.750000 0.750000 0.724199
O O15 0.606436 0.710889 0.737338
O O16 0.500000 0.655473 0.806763
O O17 0.384974 0.680881 0.000000
#
# Coordination Sequence:
#
# PCOD8270606 Si02
#       6
#    16   8  16  16  16  16
#     4   9  17  30  50  73  98 132 170 204 245 297
#     4   9  17  29  45  69 101 133 165 201 241 289
#     4   9  18  32  51  74 100 126 160 209 246 282
#     4  10  20  33  51  72  95 130 169 200 237 289
#     4  11  22  35  51  72 101 133 163 201 249 297
#     4  10  20  35  56  76  94 127 172 210 248 295
#
# _framework density 18.132504999999998
#
# number of rings (size 3 to 8) (size 9 to 14) (size 15 to 20)
#    0.000    2.273    1.818    1.364    1.273    4.727 
#    0.000    1.818    0.000    0.545    0.000    3.818 
#    0.000    0.000    0.000    6.182    0.000    6.545 
#
# Total GULP energy -545448.200090 kJ/mol
# GULP energy per Si atom -12396.550002 kJ/mol
# Density = 1.809123 g / cm^3
# Si number density = 18.132505 Si / 1000 Ang^3
#
#
#
# Elastic Constant Matrix: (Units=GPa)
#
#
# Indices 1 2 3 4 5 6 
#
# 1 125.5774 63.4332 22.3584 0.0000 0.0000 0.0000
# 2 63.4332 127.4897 21.2725 0.0000 0.0000 0.0000
# 3 22.3584 21.2725 37.4830 0.0000 0.0000 0.0000
# 4 0.0000 0.0000 0.0000 3.3745 0.0000 0.0000
# 5 0.0000 0.0000 0.0000 0.0000 14.0767 0.0000
# 6 0.0000 0.0000 0.0000 0.0000 0.0000 24.0258
#
#
#
# Elastic Compliance Matrix: (Units=1/GPa)
#
#
# Indices 1 2 3 4 5 6 
#
# 1 0.011120 -0.004889 -0.003858 0.000000 0.000000 0.000000
# 2 -0.004889 0.010814 -0.003221 0.000000 0.000000 0.000000
# 3 -0.003858 -0.003221 0.030808 0.000000 0.000000 0.000000
# 4 0.000000 0.000000 0.000000 0.296342 0.000000 0.000000
# 5 0.000000 0.000000 0.000000 0.000000 0.071039 0.000000
# 6 0.000000 0.000000 0.000000 0.000000 0.000000 0.041622
#
#
# Mechanical properties :
#
#
# Convention : Reuss Voigt Hill
#
# Bulk Modulus (GPa) = 34.71558 56.07536 45.39547
# Shear Modulus (GPa) = 10.09526 20.52781 15.31154
#
# Velocity S-wave (km/s) = 2.36211 3.36832 2.90905
# Velocity P-wave (km/s) = 5.16009 6.79116 6.03102
#
# Compressibility (1/GPa) = 0.02880551
#
# Stress axis : x y z
#
# Youngs Moduli (GPa) = 89.93050 92.47542 32.45898
#
# Poissons Ratio (x) = 0.45210 0.12524
# Poissons Ratio (y) = 0.43966 0.10454
# Poissons Ratio (z) = 0.34698 0.29785
#
# Static dielectric constant tensor:
#      x y z
#    x 3.577240 0.000000 0.000000 
#    y 0.000000 3.480680 0.000000 
#    z 0.000000 0.000000 3.186300 
# 
# 
# High freq. dielectric constant tensor:
#      x y z
#    x 1.695480 0.000000 0.000000 
#    y 0.000000 1.696030 0.000000 
#    z 0.000000 0.000000 1.679230 
# 
# From -- ./inp_files/10024.got.cif
#   From: 2010.03.12/outbox.cif.g09.slc.cpg/sg65_6_cif.got.tgz:10024.got - 2010.04.10 20:52:16.
