data_PCOD8270921
_publ_section_title
;
Structure prediction by ZEFSAII (Michael W. Deem and Ramdas Pophale) SiO2 
 PCOD8270921
Probable space group: C M M M
;
_chemical_formula_sum "Si O2"
_cell_formula_units_Z 104
_cell_length_a 9.316230
_cell_length_b 27.322536
_cell_length_c 26.689561
_cell_angle_alpha 90.000000
_cell_angle_beta 90.000000
_cell_angle_gamma 90.000000
_cell_volume 6793.641715
_symmetry_space_group_name_H-M "C M M M"
_symmetry_group_IT_number 65
_symmetry_cell_setting 'orthorhombic'
loop_
_space_group_symop_operation_xyz
x,y,z
-x,-y,z
x,-y,-z
-x,y,-z
-x,-y,-z
x,y,-z
-x,y,z
x,-y,z
1/2+x,1/2+y,z
1/2-x,1/2-y,z
1/2+x,1/2-y,-z
1/2-x,1/2+y,-z
1/2-x,1/2-y,-z
1/2+x,1/2+y,-z
1/2-x,1/2+y,z
1/2+x,1/2-y,z
loop_
_atom_site_type_symbol
_atom_site_label
_atom_site_fract_x
_atom_site_fract_y
_atom_site_fract_z
Si Si1 0.165569 0.944846 0.894794
Si Si2 0.829853 0.300693 0.849115
Si Si3 0.329291 0.554434 0.296798
Si Si4 0.833035 0.884113 0.203181
Si Si5 0.339154 0.058463 0.500000
Si Si6 0.340278 0.441774 0.406907
Si Si7 0.165195 0.637565 0.943938
O O1 0.189654 0.925197 0.838881
O O2 0.248113 0.912127 0.935076
O O3 0.000000 0.943126 0.909837
O O4 0.225355 0.000000 0.897177
O O5 0.750000 0.250000 0.841577
O O6 0.766836 0.337573 0.807726
O O7 0.790425 0.320386 0.904645
O O8 0.000000 0.294501 0.841474
O O9 0.500000 0.550785 0.295453
O O10 0.266066 0.500000 0.286160
O O11 0.276311 0.592699 0.255102
O O12 0.280590 0.573403 0.351907
O O13 0.000000 0.867968 0.205929
O O14 0.500000 0.078850 0.500000
O O15 0.261850 0.079310 0.450317
O O16 0.336348 0.000000 0.500000
O O17 0.500000 0.420457 0.415620
O O18 0.346634 0.500000 0.409544
O O19 0.000000 0.623878 0.936534
O O20 0.197103 0.657103 0.000000
#
# Coordination Sequence:
#
# PCOD8270921 Si02
#       7
#    16  16  16  16   8  16  16
#     4   9  17  28  43  64  88 113 140 168 197 232
#     4  10  20  34  50  66  83 103 130 164 204 250
#     4   8  13  22  39  62  84 108 141 176 205 237
#     4   9  16  28  46  65  85 109 136 167 204 244
#     4   9  15  21  29  43  67 101 140 179 214 243
#     4   8  13  21  33  49  70 100 139 177 207 235
#     4   9  19  34  48  63  84 108 134 165 201 242
#
# _framework density 15.308431000000001
#
# number of rings (size 3 to 8) (size 9 to 14) (size 15 to 20)
#    0.000    3.154    0.000    2.077    0.000    4.615 
#    0.000    2.308    0.000    2.308    0.000    0.000 
#    0.000    0.000    0.000    0.692    0.000    7.769 
#
# Total GULP energy -644585.717338 kJ/mol
# GULP energy per Si atom -12395.879180 kJ/mol
# Density = 1.527359 g / cm^3
# Si number density = 15.308431 Si / 1000 Ang^3
#
#
#
# Elastic Constant Matrix: (Units=GPa)
#
#
# Indices 1 2 3 4 5 6 
#
# 1 62.0988 37.5460 44.1197 0.0000 0.0000 0.0000
# 2 37.5460 83.3888 43.3727 0.0000 0.0000 0.0000
# 3 44.1197 43.3727 124.1945 0.0000 0.0000 0.0000
# 4 0.0000 0.0000 0.0000 11.1609 0.0000 0.0000
# 5 0.0000 0.0000 0.0000 0.0000 15.4944 0.0000
# 6 0.0000 0.0000 0.0000 0.0000 0.0000 19.5674
#
#
#
# Elastic Compliance Matrix: (Units=1/GPa)
#
#
# Indices 1 2 3 4 5 6 
#
# 1 0.025482 -0.008266 -0.006165 0.000000 0.000000 0.000000
# 2 -0.008266 0.017335 -0.003117 0.000000 0.000000 0.000000
# 3 -0.006165 -0.003117 0.011331 0.000000 0.000000 0.000000
# 4 0.000000 0.000000 0.000000 0.089599 0.000000 0.000000
# 5 0.000000 0.000000 0.000000 0.000000 0.064539 0.000000
# 6 0.000000 0.000000 0.000000 0.000000 0.000000 0.051105
#
#
# Mechanical properties :
#
#
# Convention : Reuss Voigt Hill
#
# Bulk Modulus (GPa) = 52.49494 57.75097 55.12296
# Shear Modulus (GPa) = 16.62014 18.88746 17.75380
#
# Velocity S-wave (km/s) = 3.29855 3.51635 3.40919
# Velocity P-wave (km/s) = 6.99094 7.36839 7.18214
#
# Compressibility (1/GPa) = 0.01904945
#
# Stress axis : x y z
#
# Youngs Moduli (GPa) = 39.24373 57.68514 88.25460
#
# Poissons Ratio (x) = 0.47685 0.54413
# Poissons Ratio (y) = 0.32441 0.27513
# Poissons Ratio (z) = 0.24195 0.17983
#
# Static dielectric constant tensor:
#      x y z
#    x 2.893410 0.000000 0.000000 
#    y 0.000000 2.652930 0.000000 
#    z 0.000000 0.000000 3.195570 
# 
# 
# High freq. dielectric constant tensor:
#      x y z
#    x 1.576330 0.000000 0.000000 
#    y 0.000000 1.543010 0.000000 
#    z 0.000000 0.000000 1.589340 
# 
# From -- ./inp_files/73742.got.cif
#   From: 2010.03.12/outbox.cif.g09.slc.cpg/sg65_37_cif.got.tgz:73742.got - 2010.04.10 20:52:16.
