data_PCOD8270543
_publ_section_title
;
Structure prediction by ZEFSAII (Michael W. Deem and Ramdas Pophale) SiO2 
 PCOD8270543
Probable space group: C M M M
;
_chemical_formula_sum "Si O2"
_cell_formula_units_Z 104
_cell_length_a 18.788517
_cell_length_b 9.209988
_cell_length_c 33.207612
_cell_angle_alpha 90.000000
_cell_angle_beta 90.000000
_cell_angle_gamma 90.000000
_cell_volume 5746.312131
_symmetry_space_group_name_H-M "C M M M"
_symmetry_group_IT_number 65
_symmetry_cell_setting 'orthorhombic'
loop_
_space_group_symop_operation_xyz
x,y,z
-x,-y,z
x,-y,-z
-x,y,-z
-x,-y,-z
x,y,-z
-x,y,z
x,-y,z
1/2+x,1/2+y,z
1/2-x,1/2-y,z
1/2+x,1/2-y,-z
1/2-x,1/2+y,-z
1/2-x,1/2-y,-z
1/2+x,1/2+y,-z
1/2-x,1/2+y,z
1/2+x,1/2-y,z
loop_
_atom_site_type_symbol
_atom_site_label
_atom_site_fract_x
_atom_site_fract_y
_atom_site_fract_z
Si Si1 0.821629 0.331274 0.953078
Si Si2 0.415925 0.334532 0.892617
Si Si3 0.917758 0.332431 0.813548
Si Si4 0.415343 0.161284 0.424394
Si Si5 0.579428 0.173052 0.664061
Si Si6 0.085040 0.162290 0.500000
Si Si7 0.324525 0.171144 0.263290
O O1 0.814605 0.500000 0.941793
O O2 0.750000 0.250000 0.939973
O O3 0.886189 0.258871 0.929392
O O4 0.837582 0.309181 0.000000
O O5 0.500000 0.326503 0.896320
O O6 0.388364 0.500000 0.894843
O O7 0.390708 0.265435 0.850500
O O8 0.906390 0.500000 0.825403
O O9 0.871762 0.287932 0.775141
O O10 0.000000 0.301673 0.803084
O O11 0.500000 0.154632 0.426715
O O12 0.393831 0.223709 0.380311
O O13 0.384375 0.261385 0.459880
O O14 0.383930 0.000000 0.430617
O O15 0.500000 0.234326 0.673019
O O16 0.634229 0.231301 0.697411
O O17 0.575795 0.000000 0.665047
O O18 0.000000 0.166538 0.500000
O O19 0.114535 0.000000 0.500000
O O20 0.250000 0.250000 0.259565
O O21 0.311668 0.000000 0.266289
#
# Coordination Sequence:
#
# PCOD8270543 Si02
#       7
#    16  16  16  16  16   8  16
#     4  10  21  37  57  80 107 140 177 216 257 302
#     4  10  21  36  55  80 109 139 171 210 255 302
#     4   9  18  34  55  75  97 130 171 210 246 289
#     4   8  13  22  38  59  82 111 149 190 228 268
#     4   8  14  27  48  70  90 118 160 202 234 273
#     4   9  15  21  31  53  88 121 144 175 225 281
#     4  10  20  33  50  73  99 126 158 198 245 293
#
# _framework density 18.098564
#
# number of rings (size 3 to 8) (size 9 to 14) (size 15 to 20)
#    0.000    2.846    0.000    2.538    0.000    6.154 
#    0.000    3.846    0.000    2.308    0.000    0.538 
#    0.000    0.000    0.000    0.000    0.000    0.000 
#
# Total GULP energy -644714.242209 kJ/mol
# GULP energy per Si atom -12398.350812 kJ/mol
# Density = 1.805737 g / cm^3
# Si number density = 18.098564 Si / 1000 Ang^3
#
#
#
# Elastic Constant Matrix: (Units=GPa)
#
#
# Indices 1 2 3 4 5 6 
#
# 1 60.2196 36.7325 54.1865 0.0000 0.0000 0.0000
# 2 36.7325 96.6050 69.2467 0.0000 0.0000 0.0000
# 3 54.1865 69.2467 135.9251 0.0000 0.0000 0.0000
# 4 0.0000 0.0000 0.0000 18.9643 0.0000 0.0000
# 5 0.0000 0.0000 0.0000 0.0000 5.6620 0.0000
# 6 0.0000 0.0000 0.0000 0.0000 0.0000 25.3507
#
#
#
# Elastic Compliance Matrix: (Units=1/GPa)
#
#
# Indices 1 2 3 4 5 6 
#
# 1 0.026839 -0.003994 -0.008664 0.000000 0.000000 0.000000
# 2 -0.003994 0.016900 -0.007017 0.000000 0.000000 0.000000
# 3 -0.008664 -0.007017 0.014386 0.000000 0.000000 0.000000
# 4 0.000000 0.000000 0.000000 0.052731 0.000000 0.000000
# 5 0.000000 0.000000 0.000000 0.000000 0.176617 0.000000
# 6 0.000000 0.000000 0.000000 0.000000 0.000000 0.039447
#
#
# Mechanical properties :
#
#
# Convention : Reuss Voigt Hill
#
# Bulk Modulus (GPa) = 53.26873 68.12013 60.69443
# Shear Modulus (GPa) = 13.42177 18.83432 16.12804
#
# Velocity S-wave (km/s) = 2.72617 3.22941 2.98841
# Velocity P-wave (km/s) = 6.27741 7.18510 6.74653
#
# Compressibility (1/GPa) = 0.01877274
#
# Stress axis : x y z
#
# Youngs Moduli (GPa) = 37.25974 59.17030 69.51175
#
# Poissons Ratio (x) = 0.23635 0.60227
# Poissons Ratio (y) = 0.14883 0.48780
# Poissons Ratio (z) = 0.32283 0.41523
#
# Static dielectric constant tensor:
#      x y z
#    x 3.042100 0.000000 0.000000 
#    y 0.000000 3.309560 0.000000 
#    z 0.000000 0.000000 3.608130 
# 
# 
# High freq. dielectric constant tensor:
#      x y z
#    x 1.667450 0.000000 0.000000 
#    y 0.000000 1.687070 0.000000 
#    z 0.000000 0.000000 1.716410 
# 
# From -- ./inp_files/78190.got.cif
#   From: 2010.03.12/outbox.cif.g09.slc.cpg/sg65_40_cif.got.tgz:78190.got - 2010.04.10 20:52:16.
