data_PCOD8270962
_publ_section_title
;
Structure prediction by ZEFSAII (Michael W. Deem and Ramdas Pophale) SiO2 
 PCOD8270962
Probable space group: C M M M
;
_chemical_formula_sum "Si O2"
_cell_formula_units_Z 88
_cell_length_a 9.381115
_cell_length_b 19.454941
_cell_length_c 28.012352
_cell_angle_alpha 90.000000
_cell_angle_beta 90.000000
_cell_angle_gamma 90.000000
_cell_volume 5112.507439
_symmetry_space_group_name_H-M "C M M M"
_symmetry_group_IT_number 65
_symmetry_cell_setting 'orthorhombic'
loop_
_space_group_symop_operation_xyz
x,y,z
-x,-y,z
x,-y,-z
-x,y,-z
-x,-y,-z
x,y,-z
-x,y,z
x,-y,z
1/2+x,1/2+y,z
1/2-x,1/2-y,z
1/2+x,1/2-y,-z
1/2-x,1/2+y,-z
1/2-x,1/2-y,-z
1/2+x,1/2+y,-z
1/2-x,1/2+y,z
1/2+x,1/2-y,z
loop_
_atom_site_type_symbol
_atom_site_label
_atom_site_fract_x
_atom_site_fract_y
_atom_site_fract_z
Si Si1 0.333291 0.921788 0.641485
Si Si2 0.332252 0.574607 0.000000
Si Si3 0.164689 0.316449 0.279033
Si Si4 0.163963 0.917991 0.896574
Si Si5 0.167629 0.681139 0.830848
Si Si6 0.839253 0.081685 0.552346
O O1 0.500000 0.917201 0.632163
O O2 0.286720 0.880153 0.688406
O O3 0.259424 0.888989 0.594591
O O4 0.283728 0.000000 0.650237
O O5 0.292531 0.611272 0.949719
O O6 0.257304 0.500000 0.000000
O O7 0.500000 0.562998 0.000000
O O8 0.250000 0.250000 0.295955
O O9 0.198068 0.335416 0.224419
O O10 0.000000 0.299132 0.286260
O O11 0.270504 0.883303 0.859457
O O12 0.000000 0.898806 0.884507
O O13 0.184377 0.000000 0.894534
O O14 0.250000 0.750000 0.846736
O O15 0.000000 0.690020 0.841360
O O16 0.787894 0.108357 0.500000
O O17 0.000000 0.106671 0.561835
O O18 0.831123 0.000000 0.552538
#
# Coordination Sequence:
#
# PCOD8270962 Si02
#       6
#    16   8  16  16  16  16
#     4   9  17  29  46  69  94 118 148 187 228 270
#     4   7  12  26  48  71  96 127 157 187 230 281
#     4   9  19  34  50  67  90 123 157 190 231 278
#     4   9  17  31  52  76 100 126 158 195 235 281
#     4  10  20  34  51  70  95 127 162 199 240 285
#     4   8  14  25  41  63  92 122 149 180 222 269
#
# _framework density 17.212689999999998
#
# number of rings (size 3 to 8) (size 9 to 14) (size 15 to 20)
#    0.000    3.182    0.000    2.182    0.000    2.909 
#    0.000    4.545    0.000    4.364    0.000    0.000 
#    0.000    0.000    0.000    0.000    0.000    0.000 
#
# Total GULP energy -545268.583329 kJ/mol
# GULP energy per Si atom -12392.467803 kJ/mol
# Density = 1.717351 g / cm^3
# Si number density = 17.212690 Si / 1000 Ang^3
#
#
#
# Elastic Constant Matrix: (Units=GPa)
#
#
# Indices 1 2 3 4 5 6 
#
# 1 67.2998 40.6595 57.3249 0.0000 0.0000 0.0000
# 2 40.6595 62.6904 57.9907 0.0000 0.0000 0.0000
# 3 57.3249 57.9907 124.2811 0.0000 0.0000 0.0000
# 4 0.0000 0.0000 0.0000 6.6256 0.0000 0.0000
# 5 0.0000 0.0000 0.0000 0.0000 28.1392 0.0000
# 6 0.0000 0.0000 0.0000 0.0000 0.0000 25.0637
#
#
#
# Elastic Compliance Matrix: (Units=1/GPa)
#
#
# Indices 1 2 3 4 5 6 
#
# 1 0.028227 -0.011020 -0.007877 0.000000 0.000000 0.000000
# 2 -0.011020 0.032368 -0.010020 0.000000 0.000000 0.000000
# 3 -0.007877 -0.010020 0.016355 0.000000 0.000000 0.000000
# 4 0.000000 0.000000 0.000000 0.150930 0.000000 0.000000
# 5 0.000000 0.000000 0.000000 0.000000 0.035538 0.000000
# 6 0.000000 0.000000 0.000000 0.000000 0.000000 0.039898
#
#
# Mechanical properties :
#
#
# Convention : Reuss Voigt Hill
#
# Bulk Modulus (GPa) = 52.31705 62.91349 57.61527
# Shear Modulus (GPa) = 13.60462 18.51877 16.06169
#
# Velocity S-wave (km/s) = 2.81442 3.28362 3.05803
# Velocity P-wave (km/s) = 6.40482 7.14186 6.78336
#
# Compressibility (1/GPa) = 0.01911423
#
# Stress axis : x y z
#
# Youngs Moduli (GPa) = 35.42745 30.89504 61.14273
#
# Poissons Ratio (x) = 0.34047 0.48165
# Poissons Ratio (y) = 0.39042 0.61265
# Poissons Ratio (z) = 0.27908 0.30957
#
# Static dielectric constant tensor:
#      x y z
#    x 3.140960 0.000000 0.000000 
#    y 0.000000 2.928870 0.000000 
#    z 0.000000 0.000000 3.613970 
# 
# 
# High freq. dielectric constant tensor:
#      x y z
#    x 1.654780 0.000000 0.000000 
#    y 0.000000 1.627880 0.000000 
#    z 0.000000 0.000000 1.678090 
# 
# From -- ./inp_files/67566.got.cif
#   From: 2010.03.12/outbox.cif.g09.slc.cpg/sg65_34_cif.got.tgz:67566.got - 2010.04.10 20:52:16.
