data_PCOD8270349
_publ_section_title
;
Structure prediction by ZEFSAII (Michael W. Deem and Ramdas Pophale) SiO2 
 PCOD8270349
Probable space group: C M M M
;
_chemical_formula_sum "Si O2"
_cell_formula_units_Z 64
_cell_length_a 28.512819
_cell_length_b 8.031541
_cell_length_c 17.078348
_cell_angle_alpha 90.000000
_cell_angle_beta 90.000000
_cell_angle_gamma 90.000000
_cell_volume 3910.973711
_symmetry_space_group_name_H-M "C M M M"
_symmetry_group_IT_number 65
_symmetry_cell_setting 'orthorhombic'
loop_
_space_group_symop_operation_xyz
x,y,z
-x,-y,z
x,-y,-z
-x,y,-z
-x,-y,-z
x,y,-z
-x,y,z
x,-y,z
1/2+x,1/2+y,z
1/2-x,1/2-y,z
1/2+x,1/2-y,-z
1/2-x,1/2+y,-z
1/2-x,1/2-y,-z
1/2+x,1/2+y,-z
1/2-x,1/2+y,z
1/2+x,1/2-y,z
loop_
_atom_site_type_symbol
_atom_site_label
_atom_site_fract_x
_atom_site_fract_y
_atom_site_fract_z
Si Si1 0.604781 0.190087 0.647252
Si Si2 0.055064 0.692456 0.806304
Si Si3 0.550313 0.688134 0.500000
Si Si4 0.055419 0.000000 0.912869
Si Si5 0.199348 0.195868 0.410825
O O1 0.583726 0.247790 0.729751
O O2 0.580688 0.284435 0.576693
O O3 0.660524 0.222023 0.645204
O O4 0.592849 0.000000 0.634142
O O5 0.066563 0.500000 0.831815
O O6 0.000000 0.709368 0.787977
O O7 0.071313 0.827342 0.871163
O O8 0.536146 0.500000 0.500000
O O9 0.500000 0.787408 0.500000
O O10 0.000000 0.000000 0.917939
O O11 0.077453 0.000000 0.000000
O O12 0.193164 0.261613 0.500000
O O13 0.250000 0.250000 0.378241
O O14 0.193709 0.000000 0.407340
#
# Coordination Sequence:
#
# PCOD8270349 Si02
#       5
#    16  16   8   8  16
#     4  11  21  33  49  68  95 131 167 206 250 290
#     4   9  19  33  49  72 102 135 167 204 247 293
#     4  11  23  33  44  65  92 129 175 211 239 283
#     4   9  18  32  52  75  99 131 165 200 248 302
#     4  10  20  33  49  67  91 124 165 208 251 291
#
# _framework density 16.364211999999998
#
# number of rings (size 3 to 8) (size 9 to 14) (size 15 to 20)
#    0.000    2.000    1.250    2.625    3.500    3.500 
#    0.000    2.500    0.000    0.000    0.000    0.000 
#    0.000    1.000    0.500    0.000    0.000    0.000 
#
# Total GULP energy -396680.447432 kJ/mol
# GULP energy per Si atom -12396.263982 kJ/mol
# Density = 1.632697 g / cm^3
# Si number density = 16.364212 Si / 1000 Ang^3
#
#
#
# Elastic Constant Matrix: (Units=GPa)
#
#
# Indices 1 2 3 4 5 6 
#
# 1 86.9859 16.0176 47.1310 0.0000 0.0000 0.0000
# 2 16.0176 74.5546 58.3677 0.0000 0.0000 0.0000
# 3 47.1310 58.3677 116.4965 0.0000 0.0000 0.0000
# 4 0.0000 0.0000 0.0000 25.2766 0.0000 0.0000
# 5 0.0000 0.0000 0.0000 0.0000 3.6177 0.0000
# 6 0.0000 0.0000 0.0000 0.0000 0.0000 21.5476
#
#
#
# Elastic Compliance Matrix: (Units=1/GPa)
#
#
# Indices 1 2 3 4 5 6 
#
# 1 0.015005 0.002516 -0.007331 0.000000 0.000000 0.000000
# 2 0.002516 0.022491 -0.012286 0.000000 0.000000 0.000000
# 3 -0.007331 -0.012286 0.017706 0.000000 0.000000 0.000000
# 4 0.000000 0.000000 0.000000 0.039562 0.000000 0.000000
# 5 0.000000 0.000000 0.000000 0.000000 0.276418 0.000000
# 6 0.000000 0.000000 0.000000 0.000000 0.000000 0.046409
#
#
# Mechanical properties :
#
#
# Convention : Reuss Voigt Hill
#
# Bulk Modulus (GPa) = 47.62281 57.89661 52.75971
# Shear Modulus (GPa) = 10.89814 20.52312 15.71063
#
# Velocity S-wave (km/s) = 2.58345 3.54523 3.10185
# Velocity P-wave (km/s) = 6.16960 7.22600 6.71859
#
# Compressibility (1/GPa) = 0.02099834
#
# Stress axis : x y z
#
# Youngs Moduli (GPa) = 66.64469 44.46134 56.47916
#
# Poissons Ratio (x) = -0.11184 0.41404
# Poissons Ratio (y) = -0.16765 0.69393
# Poissons Ratio (z) = 0.48857 0.54627
#
# Static dielectric constant tensor:
#      x y z
#    x 3.116760 0.000000 0.000000 
#    y 0.000000 3.244340 0.000000 
#    z 0.000000 0.000000 3.021230 
# 
# 
# High freq. dielectric constant tensor:
#      x y z
#    x 1.615490 0.000000 0.000000 
#    y 0.000000 1.647530 0.000000 
#    z 0.000000 0.000000 1.596190 
# 
# From -- ./inp_files/36322.got.cif
#   From: 2010.03.12/outbox.cif.g09.slc.cpg/sg65_19_cif.got.tgz:36322.got - 2010.04.10 20:52:16.
