data_PCOD8270961
_publ_section_title
;
Structure prediction by ZEFSAII (Michael W. Deem and Ramdas Pophale) SiO2 
 PCOD8270961
Probable space group: C M M M
;
_chemical_formula_sum "Si O2"
_cell_formula_units_Z 88
_cell_length_a 19.934351
_cell_length_b 8.874149
_cell_length_c 28.325299
_cell_angle_alpha 90.000000
_cell_angle_beta 90.000000
_cell_angle_gamma 90.000000
_cell_volume 5010.756751
_symmetry_space_group_name_H-M "C M M M"
_symmetry_group_IT_number 65
_symmetry_cell_setting 'orthorhombic'
loop_
_space_group_symop_operation_xyz
x,y,z
-x,-y,z
x,-y,-z
-x,y,-z
-x,-y,-z
x,y,-z
-x,y,z
x,-y,z
1/2+x,1/2+y,z
1/2-x,1/2-y,z
1/2+x,1/2-y,-z
1/2-x,1/2+y,-z
1/2-x,1/2-y,-z
1/2+x,1/2+y,-z
1/2-x,1/2+y,z
1/2+x,1/2-y,z
loop_
_atom_site_type_symbol
_atom_site_label
_atom_site_fract_x
_atom_site_fract_y
_atom_site_fract_z
Si Si1 0.319856 0.677867 0.166057
Si Si2 0.681427 0.322808 0.274148
Si Si3 0.924837 0.819456 0.651113
Si Si4 0.420401 0.669685 0.000000
Si Si5 0.921550 0.323544 0.904361
Si Si6 0.079691 0.168665 0.549958
O O1 0.315763 0.500000 0.158513
O O2 0.250000 0.750000 0.148530
O O3 0.333741 0.722662 0.220272
O O4 0.381981 0.744004 0.137521
O O5 0.688364 0.500000 0.279518
O O6 0.750000 0.250000 0.292032
O O7 0.622198 0.258320 0.307093
O O8 0.897501 0.756331 0.599902
O O9 0.000000 0.760301 0.661484
O O10 0.924798 0.000000 0.649266
O O11 0.394687 0.756902 0.953787
O O12 0.391364 0.500000 0.000000
O O13 0.500000 0.667498 0.000000
O O14 0.906850 0.500000 0.904131
O O15 0.000000 0.288378 0.897061
O O16 0.101701 0.250690 0.500000
O O17 0.000000 0.161784 0.552352
O O18 0.108814 0.000000 0.547797
#
# Coordination Sequence:
#
# PCOD8270961 Si02
#       6
#    16  16  16   8  16  16
#     4  10  20  34  51  70  94 125 162 201 241 286
#     4   9  18  31  47  65  87 119 153 186 228 278
#     4   8  13  22  38  61  86 111 145 189 230 267
#     4   9  17  31  52  77 104 133 164 195 229 273
#     4  10  20  34  53  77 104 132 161 194 234 279
#     4   7   9  14  27  50  80 110 138 174 223 271
#
# _framework density 17.562217
#
# number of rings (size 3 to 8) (size 9 to 14) (size 15 to 20)
#    0.000    3.182    0.000    3.000    0.000    3.636 
#    0.000    2.273    0.000    1.091    0.000    0.000 
#    0.000    0.000    0.000    4.545    0.000    3.636 
#
# Total GULP energy -545127.297689 kJ/mol
# GULP energy per Si atom -12389.256766 kJ/mol
# Density = 1.752225 g / cm^3
# Si number density = 17.562217 Si / 1000 Ang^3
#
#
#
# Elastic Constant Matrix: (Units=GPa)
#
#
# Indices 1 2 3 4 5 6 
#
# 1 81.5109 30.6246 73.5098 0.0000 0.0000 0.0000
# 2 30.6246 52.2034 38.2130 0.0000 0.0000 0.0000
# 3 73.5098 38.2130 141.2162 0.0000 0.0000 0.0000
# 4 0.0000 0.0000 0.0000 10.1765 0.0000 0.0000
# 5 0.0000 0.0000 0.0000 0.0000 8.0075 0.0000
# 6 0.0000 0.0000 0.0000 0.0000 0.0000 22.2545
#
#
#
# Elastic Compliance Matrix: (Units=1/GPa)
#
#
# Indices 1 2 3 4 5 6 
#
# 1 0.024695 -0.006331 -0.011142 0.000000 0.000000 0.000000
# 2 -0.006331 0.025511 -0.003607 0.000000 0.000000 0.000000
# 3 -0.011142 -0.003607 0.013857 0.000000 0.000000 0.000000
# 4 0.000000 0.000000 0.000000 0.098265 0.000000 0.000000
# 5 0.000000 0.000000 0.000000 0.000000 0.124883 0.000000
# 6 0.000000 0.000000 0.000000 0.000000 0.000000 0.044935
#
#
# Mechanical properties :
#
#
# Convention : Reuss Voigt Hill
#
# Bulk Modulus (GPa) = 45.65762 62.18058 53.91910
# Shear Modulus (GPa) = 13.10247 16.92658 15.01452
#
# Velocity S-wave (km/s) = 2.73437 3.10789 2.92710
# Velocity P-wave (km/s) = 6.00193 6.95424 6.49556
#
# Compressibility (1/GPa) = 0.02190215
#
# Stress axis : x y z
#
# Youngs Moduli (GPa) = 40.49383 39.19919 72.16411
#
# Poissons Ratio (x) = 0.24818 0.80403
# Poissons Ratio (y) = 0.25638 0.26033
# Poissons Ratio (z) = 0.45117 0.14141
#
# Static dielectric constant tensor:
#      x y z
#    x 3.064100 0.000000 0.000000 
#    y 0.000000 2.965610 0.000000 
#    z 0.000000 0.000000 3.769280 
# 
# 
# High freq. dielectric constant tensor:
#      x y z
#    x 1.645070 0.000000 0.000000 
#    y 0.000000 1.645080 0.000000 
#    z 0.000000 0.000000 1.700210 
# 
# From -- ./inp_files/73153.got.cif
#   From: 2010.03.12/outbox.cif.g09.slc.cpg/sg65_37_cif.got.tgz:73153.got - 2010.04.10 20:52:16.
