data_PCOD8270548
_publ_section_title
;
Structure prediction by ZEFSAII (Michael W. Deem and Ramdas Pophale) SiO2 
 PCOD8270548
Probable space group: C M M M
;
_chemical_formula_sum "Si O2"
_cell_formula_units_Z 80
_cell_length_a 9.228272
_cell_length_b 26.664961
_cell_length_c 18.753362
_cell_angle_alpha 90.000000
_cell_angle_beta 90.000000
_cell_angle_gamma 90.000000
_cell_volume 4614.668161
_symmetry_space_group_name_H-M "C M M M"
_symmetry_group_IT_number 65
_symmetry_cell_setting 'orthorhombic'
loop_
_space_group_symop_operation_xyz
x,y,z
-x,-y,z
x,-y,-z
-x,y,-z
-x,-y,-z
x,y,-z
-x,y,z
x,-y,z
1/2+x,1/2+y,z
1/2-x,1/2-y,z
1/2+x,1/2-y,-z
1/2-x,1/2+y,-z
1/2-x,1/2-y,-z
1/2+x,1/2+y,-z
1/2-x,1/2+y,z
1/2+x,1/2-y,z
loop_
_atom_site_type_symbol
_atom_site_label
_atom_site_fract_x
_atom_site_fract_y
_atom_site_fract_z
Si Si1 0.834304 0.299061 0.782423
Si Si2 0.671992 0.943695 0.000000
Si Si3 0.169955 0.697454 0.500000
Si Si4 0.330789 0.098258 0.148887
Si Si5 0.332330 0.442349 0.717723
Si Si6 0.170461 0.642309 0.356258
O O1 0.750000 0.250000 0.806692
O O2 0.805145 0.342585 0.840029
O O3 0.783728 0.318102 0.704658
O O4 0.000000 0.283299 0.779735
O O5 0.727998 0.915230 0.070417
O O6 0.500000 0.944386 0.000000
O O7 0.734358 0.000000 0.000000
O O8 0.250000 0.750000 0.500000
O O9 0.216782 0.665243 0.431619
O O10 0.000000 0.708726 0.500000
O O11 0.500000 0.084667 0.158567
O O12 0.242655 0.066069 0.206062
O O13 0.500000 0.426921 0.723857
O O14 0.314517 0.500000 0.695158
O O15 0.256402 0.409344 0.656187
O O16 0.000000 0.630369 0.351739
#
# Coordination Sequence:
#
# PCOD8270548 Si02
#       6
#    16   8   8  16  16  16
#     4   9  17  29  46  68  94 125 159 195 234 277
#     4   9  16  28  50  75  95 121 159 201 244 289
#     4  10  20  34  53  78 105 131 162 201 247 296
#     4   9  18  32  50  73  98 125 162 203 241 288
#     4  10  20  33  50  73  99 128 163 202 245 291
#     4   9  19  34  51  73  99 128 164 201 238 287
#
# _framework density 17.336024999999999
#
# number of rings (size 3 to 8) (size 9 to 14) (size 15 to 20)
#    0.000    2.700    0.000    3.000    0.000    6.400 
#    0.000    1.500    0.000    4.800    0.000    0.000 
#    0.000    0.000    0.000    0.000    0.000    0.000 
#
# Total GULP energy -496024.886106 kJ/mol
# GULP energy per Si atom -12400.622153 kJ/mol
# Density = 1.729657 g / cm^3
# Si number density = 17.336025 Si / 1000 Ang^3
#
#
#
# Elastic Constant Matrix: (Units=GPa)
#
#
# Indices 1 2 3 4 5 6 
#
# 1 63.3488 55.8104 38.2508 0.0000 0.0000 0.0000
# 2 55.8104 128.9196 72.1980 0.0000 0.0000 0.0000
# 3 38.2508 72.1980 144.6091 0.0000 0.0000 0.0000
# 4 0.0000 0.0000 0.0000 21.2587 0.0000 0.0000
# 5 0.0000 0.0000 0.0000 0.0000 12.6460 0.0000
# 6 0.0000 0.0000 0.0000 0.0000 0.0000 33.7733
#
#
#
# Elastic Compliance Matrix: (Units=1/GPa)
#
#
# Indices 1 2 3 4 5 6 
#
# 1 0.025828 -0.010210 -0.001734 0.000000 0.000000 0.000000
# 2 -0.010210 0.014803 -0.004690 0.000000 0.000000 0.000000
# 3 -0.001734 -0.004690 0.009716 0.000000 0.000000 0.000000
# 4 0.000000 0.000000 0.000000 0.047040 0.000000 0.000000
# 5 0.000000 0.000000 0.000000 0.000000 0.079076 0.000000
# 6 0.000000 0.000000 0.000000 0.000000 0.000000 0.029609
#
#
# Mechanical properties :
#
#
# Convention : Reuss Voigt Hill
#
# Bulk Modulus (GPa) = 58.55489 74.37732 66.46610
# Shear Modulus (GPa) = 20.40545 24.91016 22.65780
#
# Velocity S-wave (km/s) = 3.43455 3.79476 3.61914
# Velocity P-wave (km/s) = 7.04116 7.88649 7.47578
#
# Compressibility (1/GPa) = 0.01707799
#
# Stress axis : x y z
#
# Youngs Moduli (GPa) = 38.71829 67.55297 102.92774
#
# Poissons Ratio (x) = 0.68969 0.17852
# Poissons Ratio (y) = 0.39530 0.48274
# Poissons Ratio (z) = 0.06715 0.31683
#
# Static dielectric constant tensor:
#      x y z
#    x 3.115290 0.000000 0.000000 
#    y 0.000000 3.208330 0.000000 
#    z 0.000000 0.000000 3.345010 
# 
# 
# High freq. dielectric constant tensor:
#      x y z
#    x 1.657450 0.000000 0.000000 
#    y 0.000000 1.672660 0.000000 
#    z 0.000000 0.000000 1.661900 
# 
# From -- ./inp_files/50177.got.cif
#   From: 2010.03.12/outbox.cif.g09.slc.cpg/sg65_26_cif.got.tgz:50177.got - 2010.04.10 20:52:16.
