data_PCOD8270936
_publ_section_title
;
Structure prediction by ZEFSAII (Michael W. Deem and Ramdas Pophale) SiO2 
 PCOD8270936
Probable space group: C M M M
;
_chemical_formula_sum "Si O2"
_cell_formula_units_Z 96
_cell_length_a 19.276277
_cell_length_b 29.402420
_cell_length_c 9.296198
_cell_angle_alpha 90.000000
_cell_angle_beta 90.000000
_cell_angle_gamma 90.000000
_cell_volume 5268.798633
_symmetry_space_group_name_H-M "C M M M"
_symmetry_group_IT_number 65
_symmetry_cell_setting 'orthorhombic'
loop_
_space_group_symop_operation_xyz
x,y,z
-x,-y,z
x,-y,-z
-x,y,-z
-x,-y,-z
x,y,-z
-x,y,z
x,-y,z
1/2+x,1/2+y,z
1/2-x,1/2-y,z
1/2+x,1/2-y,-z
1/2-x,1/2+y,-z
1/2-x,1/2-y,-z
1/2+x,1/2+y,-z
1/2-x,1/2+y,z
1/2+x,1/2-y,z
loop_
_atom_site_type_symbol
_atom_site_label
_atom_site_fract_x
_atom_site_fract_y
_atom_site_fract_z
Si Si1 0.577983 0.234402 0.167738
Si Si2 0.201049 0.119952 0.668995
Si Si3 0.923472 0.445970 0.661011
Si Si4 0.792722 0.446108 0.164690
Si Si5 0.706778 0.206758 0.331921
Si Si6 0.579343 0.339324 0.835252
O O1 0.500000 0.218742 0.208066
O O2 0.632384 0.203893 0.254803
O O3 0.587935 0.286969 0.210550
O O4 0.591629 0.227495 0.000000
O O5 0.195428 0.111139 0.500000
O O6 0.229668 0.074975 0.745742
O O7 0.251451 0.161607 0.707049
O O8 0.124888 0.129718 0.730391
O O9 0.905776 0.428325 0.500000
O O10 0.923681 0.500000 0.661123
O O11 0.865662 0.427730 0.770886
O O12 0.000000 0.428334 0.708084
O O13 0.786644 0.500000 0.179562
O O14 0.788819 0.430249 0.000000
O O15 0.692821 0.211749 0.500000
O O16 0.750000 0.250000 0.273830
O O17 0.500000 0.354813 0.816496
O O18 0.603257 0.346138 0.000000
#
# Coordination Sequence:
#
# PCOD8270936 Si02
#       6
#    16  16  16  16  16  16
#     4   9  18  32  51  76 105 140 180 217 257 306
#     4  11  22  35  54  79 107 140 177 217 262 314
#     4   8  14  27  49  75 101 130 166 209 257 309
#     4  10  21  36  54  77 105 137 176 223 271 317
#     4  10  20  34  50  75 108 138 172 213 255 304
#     4   9  18  33  53  78 107 137 172 214 259 311
#
# _framework density 18.220472000000001
#
# number of rings (size 3 to 8) (size 9 to 14) (size 15 to 20)
#    0.000    2.500    1.667    2.500    0.000    3.667 
#    0.000    4.167    0.000    1.500    0.000    3.500 
#    0.000    0.000    0.000    0.000    0.000    0.000 
#
# Total GULP energy -595226.568029 kJ/mol
# GULP energy per Si atom -12400.553501 kJ/mol
# Density = 1.817900 g / cm^3
# Si number density = 18.220472 Si / 1000 Ang^3
#
#
#
# Elastic Constant Matrix: (Units=GPa)
#
#
# Indices 1 2 3 4 5 6 
#
# 1 115.4689 26.0604 61.5970 0.0000 0.0000 0.0000
# 2 26.0604 32.3450 31.8285 0.0000 0.0000 0.0000
# 3 61.5970 31.8285 96.4576 0.0000 0.0000 0.0000
# 4 0.0000 0.0000 0.0000 23.5212 0.0000 0.0000
# 5 0.0000 0.0000 0.0000 0.0000 39.5323 0.0000
# 6 0.0000 0.0000 0.0000 0.0000 0.0000 25.9987
#
#
#
# Elastic Compliance Matrix: (Units=1/GPa)
#
#
# Indices 1 2 3 4 5 6 
#
# 1 0.013400 -0.003518 -0.007396 0.000000 0.000000 0.000000
# 2 -0.003518 0.046706 -0.013165 0.000000 0.000000 0.000000
# 3 -0.007396 -0.013165 0.019434 0.000000 0.000000 0.000000
# 4 0.000000 0.000000 0.000000 0.042515 0.000000 0.000000
# 5 0.000000 0.000000 0.000000 0.000000 0.025296 0.000000
# 6 0.000000 0.000000 0.000000 0.000000 0.000000 0.038464
#
#
# Mechanical properties :
#
#
# Convention : Reuss Voigt Hill
#
# Bulk Modulus (GPa) = 31.86578 53.69372 42.77975
# Shear Modulus (GPa) = 20.45539 26.12946 23.29242
#
# Velocity S-wave (km/s) = 3.35425 3.79102 3.57930
# Velocity P-wave (km/s) = 5.70335 6.97820 6.37274
#
# Compressibility (1/GPa) = 0.03138162
#
# Stress axis : x y z
#
# Youngs Moduli (GPa) = 74.62773 21.41038 51.45490
#
# Poissons Ratio (x) = 0.07533 0.38057
# Poissons Ratio (y) = 0.26256 0.67741
# Poissons Ratio (z) = 0.55195 0.28187
#
# Static dielectric constant tensor:
#      x y z
#    x 3.451790 0.000000 0.000000 
#    y 0.000000 3.024350 0.000000 
#    z 0.000000 0.000000 3.344790 
# 
# 
# High freq. dielectric constant tensor:
#      x y z
#    x 1.711170 0.000000 0.000000 
#    y 0.000000 1.671500 0.000000 
#    z 0.000000 0.000000 1.707250 
# 
# From -- ./inp_files/12213.got.cif
#   From: 2010.03.12/outbox.cif.g09.slc.cpg/sg65_7_cif.got.tgz:12213.got - 2010.04.10 20:52:16.
