data_PCOD8270876
_publ_section_title
;
Structure prediction by ZEFSAII (Michael W. Deem and Ramdas Pophale) SiO2 
 PCOD8270876
Probable space group: C M M M
;
_chemical_formula_sum "Si O2"
_cell_formula_units_Z 64
_cell_length_a 28.387127
_cell_length_b 9.690760
_cell_length_c 12.779981
_cell_angle_alpha 90.000000
_cell_angle_beta 90.000000
_cell_angle_gamma 90.000000
_cell_volume 3515.681203
_symmetry_space_group_name_H-M "C M M M"
_symmetry_group_IT_number 65
_symmetry_cell_setting 'orthorhombic'
loop_
_space_group_symop_operation_xyz
x,y,z
-x,-y,z
x,-y,-z
-x,y,-z
-x,-y,-z
x,y,-z
-x,y,z
x,-y,z
1/2+x,1/2+y,z
1/2-x,1/2-y,z
1/2+x,1/2-y,-z
1/2-x,1/2+y,-z
1/2-x,1/2-y,-z
1/2+x,1/2+y,-z
1/2-x,1/2+y,z
1/2+x,1/2-y,z
loop_
_atom_site_type_symbol
_atom_site_label
_atom_site_fract_x
_atom_site_fract_y
_atom_site_fract_z
Si Si1 0.104464 0.337581 0.207680
Si Si2 0.945008 0.158103 0.619804
Si Si3 0.706500 0.846225 0.500000
Si Si4 0.295861 0.157604 0.727815
Si Si5 0.553175 0.836043 0.000000
O O1 0.095342 0.500000 0.224564
O O2 0.083765 0.259075 0.306535
O O3 0.160611 0.307397 0.195660
O O4 0.079875 0.281166 0.102720
O O5 0.931465 0.191665 0.500000
O O6 0.000000 0.184164 0.638259
O O7 0.932031 0.000000 0.646023
O O8 0.750000 0.750000 0.500000
O O9 0.680675 0.819359 0.611011
O O10 0.726612 0.000000 0.500000
O O11 0.250000 0.250000 0.751147
O O12 0.279221 0.000000 0.742496
O O13 0.500000 0.777853 0.000000
O O14 0.553197 0.000000 0.000000
#
# Coordination Sequence:
#
# PCOD8270876 Si02
#       5
#    16  16   8  16   8
#     4  10  20  33  54  79 103 135 178 222 260 304
#     4   9  19  35  52  74 107 140 168 207 264 324
#     4   8  14  26  42  62  91 124 159 199 242 291
#     4   9  18  31  48  71 101 135 171 212 256 305
#     4   9  18  34  54  77 105 135 171 217 268 315
#
# _framework density 18.204153000000002
#
# number of rings (size 3 to 8) (size 9 to 14) (size 15 to 20)
#    0.000    2.875    0.000    1.500    1.750    3.000 
#    0.000    2.500    0.000    2.250    0.000    0.000 
#    0.000    0.000    0.000    0.000    0.000    0.000 
#
# Total GULP energy -396462.179445 kJ/mol
# GULP energy per Si atom -12389.443108 kJ/mol
# Density = 1.816272 g / cm^3
# Si number density = 18.204153 Si / 1000 Ang^3
#
#
#
# Elastic Constant Matrix: (Units=GPa)
#
#
# Indices 1 2 3 4 5 6 
#
# 1 124.8334 51.0243 75.7460 0.0000 0.0000 0.0000
# 2 51.0243 62.6406 48.5886 0.0000 0.0000 0.0000
# 3 75.7460 48.5886 97.3922 0.0000 0.0000 0.0000
# 4 0.0000 0.0000 0.0000 14.0365 0.0000 0.0000
# 5 0.0000 0.0000 0.0000 0.0000 29.2067 0.0000
# 6 0.0000 0.0000 0.0000 0.0000 0.0000 27.5531
#
#
#
# Elastic Compliance Matrix: (Units=1/GPa)
#
#
# Indices 1 2 3 4 5 6 
#
# 1 0.016297 -0.005617 -0.009873 0.000000 0.000000 0.000000
# 2 -0.005617 0.027978 -0.009589 0.000000 0.000000 0.000000
# 3 -0.009873 -0.009589 0.022730 0.000000 0.000000 0.000000
# 4 0.000000 0.000000 0.000000 0.071243 0.000000 0.000000
# 5 0.000000 0.000000 0.000000 0.000000 0.034239 0.000000
# 6 0.000000 0.000000 0.000000 0.000000 0.000000 0.036293
#
#
# Mechanical properties :
#
#
# Convention : Reuss Voigt Hill
#
# Bulk Modulus (GPa) = 59.35785 70.62044 64.98914
# Shear Modulus (GPa) = 18.89978 21.45976 20.17977
#
# Velocity S-wave (km/s) = 3.22563 3.43715 3.33306
# Velocity P-wave (km/s) = 6.82279 7.39120 7.11267
#
# Compressibility (1/GPa) = 0.01684697
#
# Stress axis : x y z
#
# Youngs Moduli (GPa) = 61.36112 35.74290 43.99434
#
# Poissons Ratio (x) = 0.20076 0.43434
# Poissons Ratio (y) = 0.34466 0.42188
# Poissons Ratio (z) = 0.60579 0.34275
#
# Static dielectric constant tensor:
#      x y z
#    x 3.184570 0.000000 0.000000 
#    y 0.000000 3.210220 0.000000 
#    z 0.000000 0.000000 2.957670 
# 
# 
# High freq. dielectric constant tensor:
#      x y z
#    x 1.700610 0.000000 0.000000 
#    y 0.000000 1.690850 0.000000 
#    z 0.000000 0.000000 1.697970 
# 
# From -- ./inp_files/20985.got.cif
#   From: 2010.03.12/outbox.cif.g09.slc.cpg/sg65_11_cif.got.tgz:20985.got - 2010.04.10 20:52:16.
