data_PCOD8270849
_publ_section_title
;
Structure prediction by ZEFSAII (Michael W. Deem and Ramdas Pophale) SiO2 
 PCOD8270849
Probable space group: C M M M
;
_chemical_formula_sum "Si O2"
_cell_formula_units_Z 112
_cell_length_a 18.628217
_cell_length_b 16.841119
_cell_length_c 20.380184
_cell_angle_alpha 90.000000
_cell_angle_beta 90.000000
_cell_angle_gamma 90.000000
_cell_volume 6393.671717
_symmetry_space_group_name_H-M "C M M M"
_symmetry_group_IT_number 65
_symmetry_cell_setting 'orthorhombic'
loop_
_space_group_symop_operation_xyz
x,y,z
-x,-y,z
x,-y,-z
-x,y,-z
-x,-y,-z
x,y,-z
-x,y,z
x,-y,z
1/2+x,1/2+y,z
1/2-x,1/2-y,z
1/2+x,1/2-y,-z
1/2-x,1/2+y,-z
1/2-x,1/2-y,-z
1/2+x,1/2+y,-z
1/2-x,1/2+y,z
1/2+x,1/2-y,z
loop_
_atom_site_type_symbol
_atom_site_label
_atom_site_fract_x
_atom_site_fract_y
_atom_site_fract_z
Si Si1 0.723674 0.409474 0.572036
Si Si2 0.199149 0.592112 0.835089
Si Si3 0.196766 0.176823 0.927117
Si Si4 0.211096 0.330116 0.698725
Si Si5 0.578905 0.261193 0.286087
Si Si6 0.917534 0.722632 0.862157
Si Si7 0.419780 0.411784 0.365362
O O1 0.746241 0.376596 0.500000
O O2 0.749294 0.500000 0.579248
O O3 0.758684 0.360339 0.630257
O O4 0.637130 0.403172 0.575852
O O5 0.180173 0.500000 0.844369
O O6 0.271066 0.612159 0.876636
O O7 0.216082 0.607496 0.758151
O O8 0.129896 0.641871 0.860530
O O9 0.250000 0.250000 0.925918
O O10 0.117955 0.210509 0.908616
O O11 0.192173 0.139129 0.000000
O O12 0.250000 0.250000 0.723224
O O13 0.128912 0.307033 0.683637
O O14 0.500000 0.239454 0.311684
O O15 0.583290 0.263005 0.208379
O O16 0.601369 0.349475 0.308796
O O17 0.000000 0.703863 0.884400
O O18 0.500000 0.396507 0.393243
O O19 0.414232 0.500000 0.334046
#
# Coordination Sequence:
#
# PCOD8270849 Si02
#       7
#    16  16  16  16  16  16  16
#     4  10  21  34  49  72 100 131 167 212 266 316
#     4  10  20  33  53  79 106 140 177 214 263 313
#     4   9  18  33  52  75 105 139 173 206 248 306
#     4  11  19  33  52  75 100 134 172 217 257 304
#     4   9  17  31  49  72 102 132 165 208 253 301
#     4   9  18  33  53  77 105 134 173 221 263 303
#     4   9  17  30  48  70  98 130 161 197 249 310
#
# _framework density 17.517320999999999
#
# number of rings (size 3 to 8) (size 9 to 14) (size 15 to 20)
#    0.000    2.429    1.429    2.571    0.000    1.429 
#    0.000    1.429    0.000    2.143    0.000    6.000 
#    0.000    0.000    0.000    0.000    0.000    0.000 
#
# Total GULP energy -693990.817819 kJ/mol
# GULP energy per Si atom -12392.693175 kJ/mol
# Density = 1.747745 g / cm^3
# Si number density = 17.517321 Si / 1000 Ang^3
#
#
#
# Elastic Constant Matrix: (Units=GPa)
#
#
# Indices 1 2 3 4 5 6 
#
# 1 97.1812 39.6532 51.9085 0.0000 0.0000 0.0000
# 2 39.6532 81.5977 44.4010 0.0000 0.0000 0.0000
# 3 51.9085 44.4010 95.9623 0.0000 0.0000 0.0000
# 4 0.0000 0.0000 0.0000 19.1390 0.0000 0.0000
# 5 0.0000 0.0000 0.0000 0.0000 18.0760 0.0000
# 6 0.0000 0.0000 0.0000 0.0000 0.0000 19.1969
#
#
#
# Elastic Compliance Matrix: (Units=1/GPa)
#
#
# Indices 1 2 3 4 5 6 
#
# 1 0.015361 -0.003934 -0.006489 0.000000 0.000000 0.000000
# 2 -0.003934 0.017386 -0.005917 0.000000 0.000000 0.000000
# 3 -0.006489 -0.005917 0.016668 0.000000 0.000000 0.000000
# 4 0.000000 0.000000 0.000000 0.052249 0.000000 0.000000
# 5 0.000000 0.000000 0.000000 0.000000 0.055322 0.000000
# 6 0.000000 0.000000 0.000000 0.000000 0.000000 0.052092
#
#
# Mechanical properties :
#
#
# Convention : Reuss Voigt Hill
#
# Bulk Modulus (GPa) = 59.74826 60.74074 60.24450
# Shear Modulus (GPa) = 20.21526 20.53427 20.37477
#
# Velocity S-wave (km/s) = 3.40077 3.42749 3.41416
# Velocity P-wave (km/s) = 7.04290 7.10025 7.07163
#
# Compressibility (1/GPa) = 0.01673689
#
# Stress axis : x y z
#
# Youngs Moduli (GPa) = 65.09830 57.51594 59.99351
#
# Poissons Ratio (x) = 0.22627 0.38931
# Poissons Ratio (y) = 0.25610 0.35496
# Poissons Ratio (z) = 0.42243 0.34030
#
# Static dielectric constant tensor:
#      x y z
#    x 3.601560 0.000000 0.000000 
#    y 0.000000 3.153120 0.000000 
#    z 0.000000 0.000000 3.193790 
# 
# 
# High freq. dielectric constant tensor:
#      x y z
#    x 1.680310 0.000000 0.000000 
#    y 0.000000 1.660060 0.000000 
#    z 0.000000 0.000000 1.665120 
# 
# From -- ./inp_files/63927.got.cif
#   From: 2010.03.12/outbox.cif.g09.slc.cpg/sg65_32_cif.got.tgz:63927.got - 2010.04.10 20:52:16.
