data_PCOD8270332
_publ_section_title
;
Structure prediction by ZEFSAII (Michael W. Deem and Ramdas Pophale) SiO2 
 PCOD8270332
Probable space group: C M M M
;
_chemical_formula_sum "Si O2"
_cell_formula_units_Z 76
_cell_length_a 13.967253
_cell_length_b 27.961126
_cell_length_c 12.615579
_cell_angle_alpha 90.000000
_cell_angle_beta 90.000000
_cell_angle_gamma 90.000000
_cell_volume 4926.889749
_symmetry_space_group_name_H-M "C M M M"
_symmetry_group_IT_number 65
_symmetry_cell_setting 'orthorhombic'
loop_
_space_group_symop_operation_xyz
x,y,z
-x,-y,z
x,-y,-z
-x,y,-z
-x,-y,-z
x,y,-z
-x,y,z
x,-y,z
1/2+x,1/2+y,z
1/2-x,1/2-y,z
1/2+x,1/2-y,-z
1/2-x,1/2+y,-z
1/2-x,1/2-y,-z
1/2+x,1/2+y,-z
1/2-x,1/2+y,z
1/2+x,1/2-y,z
loop_
_atom_site_type_symbol
_atom_site_label
_atom_site_fract_x
_atom_site_fract_y
_atom_site_fract_z
Si Si1 0.609186 0.054019 0.124186
Si Si2 0.500000 0.200598 0.805974
Si Si3 0.292363 0.696434 0.000000
Si Si4 0.791607 0.198488 0.622076
Si Si5 0.000000 0.228494 0.000000
Si Si6 0.304506 0.853561 0.805731
Si Si7 0.500000 0.271226 0.379332
O O1 0.500000 0.061111 0.163537
O O2 0.682455 0.089292 0.184722
O O3 0.642952 0.000000 0.148203
O O4 0.614665 0.065292 0.000000
O O5 0.500000 0.240770 0.894298
O O6 0.591470 0.168178 0.821220
O O7 0.500000 0.223641 0.690042
O O8 0.250000 0.750000 0.000000
O O9 0.406752 0.695664 0.000000
O O10 0.262567 0.668065 0.895770
O O11 0.766662 0.187877 0.500000
O O12 0.750000 0.250000 0.656797
O O13 0.741578 0.157705 0.691743
O O14 0.905682 0.197132 0.643019
O O15 0.500000 0.252616 0.500000
#
# Coordination Sequence:
#
# PCOD8270332 Si02
#       7
#    16   8   8  16   4  16   8
#     4   9  18  32  51  74  99 126 162 206 246 289
#     4  12  20  28  47  69 100 133 162 196 236 284
#     4  12  22  32  45  69  99 133 163 199 238 287
#     4  10  20  33  48  69  97 132 171 202 234 282
#     4  12  24  32  40  66 108 132 160 192 244 286
#     4  12  20  31  50  73  98 132 164 197 240 296
#     4  10  20  34  48  65  96 135 174 208 228 266
#
# _framework density 15.425553000000001
#
# number of rings (size 3 to 8) (size 9 to 14) (size 15 to 20)
#    0.000    1.263    6.316    2.526    0.000    0.000 
#    0.000    0.000    0.000    0.632    0.000    5.158 
#    0.000    2.526    0.000    0.000    0.000    0.000 
#
# Total GULP energy -471266.943873 kJ/mol
# GULP energy per Si atom -12401.761681 kJ/mol
# Density = 1.539044 g / cm^3
# Si number density = 15.425553 Si / 1000 Ang^3
#
#
#
# Elastic Constant Matrix: (Units=GPa)
#
#
# Indices 1 2 3 4 5 6 
#
# 1 115.9150 45.7154 36.7272 0.0000 0.0000 0.0000
# 2 45.7154 105.8012 45.8335 0.0000 0.0000 0.0000
# 3 36.7272 45.8335 75.8872 0.0000 0.0000 0.0000
# 4 0.0000 0.0000 0.0000 20.9385 0.0000 0.0000
# 5 0.0000 0.0000 0.0000 0.0000 25.3860 0.0000
# 6 0.0000 0.0000 0.0000 0.0000 0.0000 24.5207
#
#
#
# Elastic Compliance Matrix: (Units=1/GPa)
#
#
# Indices 1 2 3 4 5 6 
#
# 1 0.010983 -0.003309 -0.003317 0.000000 0.000000 0.000000
# 2 -0.003309 0.013798 -0.006732 0.000000 0.000000 0.000000
# 3 -0.003317 -0.006732 0.018849 0.000000 0.000000 0.000000
# 4 0.000000 0.000000 0.000000 0.047759 0.000000 0.000000
# 5 0.000000 0.000000 0.000000 0.000000 0.039392 0.000000
# 6 0.000000 0.000000 0.000000 0.000000 0.000000 0.040782
#
#
# Mechanical properties :
#
#
# Convention : Reuss Voigt Hill
#
# Bulk Modulus (GPa) = 59.12341 61.57283 60.34812
# Shear Modulus (GPa) = 24.51998 25.45754 24.98876
#
# Velocity S-wave (km/s) = 3.99127 4.06686 4.02924
# Velocity P-wave (km/s) = 7.72345 7.87751 7.80086
#
# Compressibility (1/GPa) = 0.01691378
#
# Stress axis : x y z
#
# Youngs Moduli (GPa) = 91.05075 72.47608 53.05373
#
# Poissons Ratio (x) = 0.23979 0.17599
# Poissons Ratio (y) = 0.30125 0.35716
# Poissons Ratio (z) = 0.30203 0.48792
#
# Static dielectric constant tensor:
#      x y z
#    x 3.129960 0.000000 0.000000 
#    y 0.000000 2.793910 0.000000 
#    z 0.000000 0.000000 3.093990 
# 
# 
# High freq. dielectric constant tensor:
#      x y z
#    x 1.597490 0.000000 0.000000 
#    y 0.000000 1.557620 0.000000 
#    z 0.000000 0.000000 1.592100 
# 
# From -- ./inp_files/25068.got.cif
#   From: 2010.03.12/outbox.cif.g09.slc.cpg/sg65_13_cif.got.tgz:25068.got - 2010.04.10 20:52:16.
