data_PCOD8270664
_publ_section_title
;
Structure prediction by ZEFSAII (Michael W. Deem and Ramdas Pophale) SiO2 
 PCOD8270664
Probable space group: C M M M
;
_chemical_formula_sum "Si O2"
_cell_formula_units_Z 104
_cell_length_a 19.252338
_cell_length_b 9.000370
_cell_length_c 32.523285
_cell_angle_alpha 90.000000
_cell_angle_beta 90.000000
_cell_angle_gamma 90.000000
_cell_volume 5635.575156
_symmetry_space_group_name_H-M "C M M M"
_symmetry_group_IT_number 65
_symmetry_cell_setting 'orthorhombic'
loop_
_space_group_symop_operation_xyz
x,y,z
-x,-y,z
x,-y,-z
-x,y,-z
-x,-y,-z
x,y,-z
-x,y,z
x,-y,z
1/2+x,1/2+y,z
1/2-x,1/2-y,z
1/2+x,1/2-y,-z
1/2-x,1/2+y,-z
1/2-x,1/2-y,-z
1/2+x,1/2+y,-z
1/2-x,1/2+y,z
1/2+x,1/2-y,z
loop_
_atom_site_type_symbol
_atom_site_label
_atom_site_fract_x
_atom_site_fract_y
_atom_site_fract_z
Si Si1 0.179005 0.825133 0.700561
Si Si2 0.077274 0.823462 0.229254
Si Si3 0.677316 0.675625 0.934842
Si Si4 0.918632 0.669034 0.453537
Si Si5 0.679257 0.326751 0.840430
Si Si6 0.820534 0.826328 0.392622
Si Si7 0.081831 0.324875 0.000000
O O1 0.250000 0.750000 0.715348
O O2 0.117183 0.768281 0.729911
O O3 0.160642 0.778095 0.653934
O O4 0.189461 0.000000 0.704693
O O5 0.117122 0.767618 0.188395
O O6 0.000000 0.753968 0.229308
O O7 0.072589 0.000000 0.229114
O O8 0.681382 0.500000 0.943781
O O9 0.750000 0.750000 0.948254
O O10 0.660706 0.710940 0.887414
O O11 0.614892 0.749421 0.959868
O O12 0.895047 0.706449 0.500000
O O13 0.898496 0.500000 0.442710
O O14 0.882550 0.779792 0.422150
O O15 0.000000 0.693849 0.448959
O O16 0.691029 0.500000 0.833960
O O17 0.750000 0.250000 0.826355
O O18 0.750000 0.750000 0.407683
O O19 0.809022 0.000000 0.395835
O O20 0.097343 0.500000 0.000000
O O21 0.000000 0.291780 0.000000
#
# Coordination Sequence:
#
# PCOD8270664 Si02
#       7
#    16  16  16  16  16  16   8
#     4   9  18  32  51  73  98 131 167 205 247 292
#     4   9  17  30  49  74 103 133 166 204 246 292
#     4  10  20  35  56  80 105 134 172 215 255 300
#     4   9  19  36  55  74  99 132 167 204 251 305
#     4   9  18  32  53  78 101 131 168 206 248 294
#     4  10  20  33  51  76 103 132 169 211 254 299
#     4  11  24  39  54  75 105 139 172 209 258 309
#
# _framework density 18.454194999999999
#
# number of rings (size 3 to 8) (size 9 to 14) (size 15 to 20)
#    0.000    2.538    0.000    2.308    0.000    4.000 
#    0.000    3.846    0.000    1.846    0.000    0.000 
#    0.000    0.000    0.000    0.000    0.000    0.000 
#
# Total GULP energy -644847.509958 kJ/mol
# GULP energy per Si atom -12400.913653 kJ/mol
# Density = 1.841219 g / cm^3
# Si number density = 18.454195 Si / 1000 Ang^3
#
#
#
# Elastic Constant Matrix: (Units=GPa)
#
#
# Indices 1 2 3 4 5 6 
#
# 1 142.9838 46.3406 82.1062 0.0000 0.0000 0.0000
# 2 46.3406 58.5324 38.0994 0.0000 0.0000 0.0000
# 3 82.1062 38.0994 115.5915 0.0000 0.0000 0.0000
# 4 0.0000 0.0000 0.0000 18.4977 0.0000 0.0000
# 5 0.0000 0.0000 0.0000 0.0000 29.4468 0.0000
# 6 0.0000 0.0000 0.0000 0.0000 0.0000 30.5895
#
#
#
# Elastic Compliance Matrix: (Units=1/GPa)
#
#
# Indices 1 2 3 4 5 6 
#
# 1 0.013058 -0.005476 -0.007471 0.000000 0.000000 0.000000
# 2 -0.005476 0.024047 -0.004037 0.000000 0.000000 0.000000
# 3 -0.007471 -0.004037 0.015288 0.000000 0.000000 0.000000
# 4 0.000000 0.000000 0.000000 0.054061 0.000000 0.000000
# 5 0.000000 0.000000 0.000000 0.000000 0.033960 0.000000
# 6 0.000000 0.000000 0.000000 0.000000 0.000000 0.032691
#
#
# Mechanical properties :
#
#
# Convention : Reuss Voigt Hill
#
# Bulk Modulus (GPa) = 54.26602 72.24444 63.25523
# Shear Modulus (GPa) = 23.45065 25.74423 24.59744
#
# Velocity S-wave (km/s) = 3.56862 3.73907 3.65484
# Velocity P-wave (km/s) = 6.81540 7.60748 7.22231
#
# Compressibility (1/GPa) = 0.01842774
#
# Stress axis : x y z
#
# Youngs Moduli (GPa) = 76.57905 41.58497 65.40986
#
# Poissons Ratio (x) = 0.22770 0.48866
# Poissons Ratio (y) = 0.41932 0.26403
# Poissons Ratio (z) = 0.57210 0.16786
#
# Static dielectric constant tensor:
#      x y z
#    x 3.473990 0.000000 0.000000 
#    y 0.000000 3.275230 0.000000 
#    z 0.000000 0.000000 3.578410 
# 
# 
# High freq. dielectric constant tensor:
#      x y z
#    x 1.712610 0.000000 0.000000 
#    y 0.000000 1.701560 0.000000 
#    z 0.000000 0.000000 1.727620 
# 
# From -- ./inp_files/78238.got.cif
#   From: 2010.03.12/outbox.cif.g09.slc.cpg/sg65_40_cif.got.tgz:78238.got - 2010.04.10 20:52:16.
