data_PCOD8270616
_publ_section_title
;
Structure prediction by ZEFSAII (Michael W. Deem and Ramdas Pophale) SiO2 
 PCOD8270616
Probable space group: C M M M
;
_chemical_formula_sum "Si O2"
_cell_formula_units_Z 64
_cell_length_a 8.953784
_cell_length_b 19.466725
_cell_length_c 21.731995
_cell_angle_alpha 90.000000
_cell_angle_beta 90.000000
_cell_angle_gamma 90.000000
_cell_volume 3787.905219
_symmetry_space_group_name_H-M "C M M M"
_symmetry_group_IT_number 65
_symmetry_cell_setting 'orthorhombic'
loop_
_space_group_symop_operation_xyz
x,y,z
-x,-y,z
x,-y,-z
-x,y,-z
-x,-y,-z
x,y,-z
-x,y,z
x,-y,z
1/2+x,1/2+y,z
1/2-x,1/2-y,z
1/2+x,1/2-y,-z
1/2-x,1/2+y,-z
1/2-x,1/2-y,-z
1/2+x,1/2+y,-z
1/2-x,1/2+y,z
1/2+x,1/2-y,z
loop_
_atom_site_type_symbol
_atom_site_label
_atom_site_fract_x
_atom_site_fract_y
_atom_site_fract_z
Si Si1 0.323754 0.500000 0.067371
Si Si2 0.327111 0.181421 0.737249
Si Si3 0.822482 0.678138 0.596632
Si Si4 0.833865 0.076383 0.819147
Si Si5 0.176708 0.080938 0.500000
O O1 0.500000 0.500000 0.058379
O O2 0.283385 0.432105 0.108512
O O3 0.244308 0.500000 0.000000
O O4 0.500000 0.194911 0.741166
O O5 0.250000 0.250000 0.761499
O O6 0.279546 0.164251 0.667504
O O7 0.285242 0.120057 0.782293
O O8 0.750000 0.750000 0.574382
O O9 0.750560 0.615149 0.559892
O O10 0.000000 0.681071 0.585339
O O11 0.000000 0.109327 0.814354
O O12 0.837636 0.000000 0.789616
O O13 0.000000 0.094111 0.500000
O O14 0.213734 0.000000 0.500000
#
# Coordination Sequence:
#
# PCOD8270616 Si02
#       5
#     8  16  16  16   8
#     4   7  12  26  49  75 101 132 169 202 239 291
#     4  10  20  33  51  74 101 132 166 206 250 296
#     4  10  21  37  56  75  97 130 168 206 249 300
#     4   8  16  29  48  74 101 131 164 201 246 291
#     4  11  24  39  54  75 101 131 164 205 252 295
#
# _framework density 16.895882
#
# number of rings (size 3 to 8) (size 9 to 14) (size 15 to 20)
#    0.750    2.000    0.000    2.250    0.000    5.500 
#    0.000    5.000    0.000    2.250    0.000    0.000 
#    0.000    0.000    0.000    0.000    0.000    0.000 
#
# Total GULP energy -396482.002514 kJ/mol
# GULP energy per Si atom -12390.062579 kJ/mol
# Density = 1.685743 g / cm^3
# Si number density = 16.895882 Si / 1000 Ang^3
#
#
#
# Elastic Constant Matrix: (Units=GPa)
#
#
# Indices 1 2 3 4 5 6 
#
# 1 65.6927 41.3058 36.2692 0.0000 0.0000 0.0000
# 2 41.3058 99.3855 59.4138 0.0000 0.0000 0.0000
# 3 36.2692 59.4138 107.3392 0.0000 0.0000 0.0000
# 4 0.0000 0.0000 0.0000 -11.5855 0.0000 0.0000
# 5 0.0000 0.0000 0.0000 0.0000 18.6058 0.0000
# 6 0.0000 0.0000 0.0000 0.0000 0.0000 32.8322
#
#
#
# Elastic Compliance Matrix: (Units=1/GPa)
#
#
# Indices 1 2 3 4 5 6 
#
# 1 0.021432 -0.006842 -0.003454 0.000000 0.000000 0.000000
# 2 -0.006842 0.017222 -0.007221 0.000000 0.000000 0.000000
# 3 -0.003454 -0.007221 0.014480 0.000000 0.000000 0.000000
# 4 0.000000 0.000000 0.000000 -0.086315 0.000000 0.000000
# 5 0.000000 0.000000 0.000000 0.000000 0.053747 0.000000
# 6 0.000000 0.000000 0.000000 0.000000 0.000000 0.030458
#
#
# Mechanical properties :
#
#
# Convention : Reuss Voigt Hill
#
# Bulk Modulus (GPa) = 55.25028 60.71056 57.98042
# Shear Modulus (GPa) = 54.29345 16.99908 35.64626
#
# Velocity S-wave (km/s) = 5.67485 3.17536 4.59820
# Velocity P-wave (km/s) = 8.70115 7.03236 7.91088
#
# Compressibility (1/GPa) = 0.01809946
#
# Stress axis : x y z
#
# Youngs Moduli (GPa) = 46.65971 58.06446 69.05934
#
# Poissons Ratio (x) = 0.39729 0.23856
# Poissons Ratio (y) = 0.31926 0.49867
# Poissons Ratio (z) = 0.16118 0.41927
#
# Static dielectric constant tensor:
#      x y z
#    x 3.076890 0.000000 0.000000 
#    y 0.000000 3.021830 0.000000 
#    z 0.000000 0.000000 3.409830 
# 
# 
# High freq. dielectric constant tensor:
#      x y z
#    x 1.650530 0.000000 0.000000 
#    y 0.000000 1.635210 0.000000 
#    z 0.000000 0.000000 1.646340 
# 
# From -- ./inp_files/67196.got.cif
#   From: 2010.03.12/outbox.cif.g09.slc.cpg/sg65_34_cif.got.tgz:67196.got - 2010.04.10 20:52:16.
