data_PCOD8270701
_publ_section_title
;
Structure prediction by ZEFSAII (Michael W. Deem and Ramdas Pophale) SiO2 
 PCOD8270701
Probable space group: C M M M
;
_chemical_formula_sum "Si O2"
_cell_formula_units_Z 80
_cell_length_a 8.958847
_cell_length_b 18.410978
_cell_length_c 25.788934
_cell_angle_alpha 90.000000
_cell_angle_beta 90.000000
_cell_angle_gamma 90.000000
_cell_volume 4253.656045
_symmetry_space_group_name_H-M "C M M M"
_symmetry_group_IT_number 65
_symmetry_cell_setting 'orthorhombic'
loop_
_space_group_symop_operation_xyz
x,y,z
-x,-y,z
x,-y,-z
-x,y,-z
-x,-y,-z
x,y,-z
-x,y,z
x,-y,z
1/2+x,1/2+y,z
1/2-x,1/2-y,z
1/2+x,1/2-y,-z
1/2-x,1/2+y,-z
1/2-x,1/2-y,-z
1/2+x,1/2+y,-z
1/2-x,1/2+y,z
1/2+x,1/2-y,z
loop_
_atom_site_type_symbol
_atom_site_label
_atom_site_fract_x
_atom_site_fract_y
_atom_site_fract_z
Si Si1 0.676927 0.828303 0.748737
Si Si2 0.822709 0.419113 0.846904
Si Si3 0.832552 0.413788 0.443059
Si Si4 0.171084 0.085907 0.658390
Si Si5 0.824422 0.674638 0.058217
O O1 0.500000 0.819670 0.748972
O O2 0.750000 0.750000 0.746357
O O3 0.736040 0.869185 0.800129
O O4 0.724270 0.875442 0.699685
O O5 0.754879 0.500000 0.841379
O O6 0.767910 0.386351 0.901746
O O7 0.000000 0.422984 0.845232
O O8 0.780043 0.385467 0.500000
O O9 0.832931 0.500000 0.443544
O O10 0.720303 0.386020 0.398623
O O11 0.000000 0.385506 0.431240
O O12 0.000000 0.108364 0.667211
O O13 0.194459 0.000000 0.663981
O O14 0.750000 0.750000 0.074002
O O15 0.000000 0.686076 0.062703
O O16 0.778244 0.650689 0.000000
#
# Coordination Sequence:
#
# PCOD8270701 Si02
#       5
#    16  16  16  16  16
#     4  11  22  36  54  73  98 133 172 214 260 312
#     4   9  18  32  51  76 102 129 166 211 257 304
#     4   8  14  26  46  73 104 137 172 208 248 297
#     4  10  20  33  51  77 107 136 170 213 257 303
#     4   9  17  30  50  75 103 135 169 206 248 297
#
# _framework density 18.807351000000001
#
# number of rings (size 3 to 8) (size 9 to 14) (size 15 to 20)
#    0.000    2.600    0.000    3.000    0.000    2.800 
#    0.000    5.000    0.000    3.600    0.000    2.800 
#    0.000    0.000    0.000    0.000    0.000    0.000 
#
# Total GULP energy -495906.670526 kJ/mol
# GULP energy per Si atom -12397.666763 kJ/mol
# Density = 1.876454 g / cm^3
# Si number density = 18.807351 Si / 1000 Ang^3
#
#
#
# Elastic Constant Matrix: (Units=GPa)
#
#
# Indices 1 2 3 4 5 6 
#
# 1 54.4270 31.9287 36.2414 0.0000 0.0000 0.0000
# 2 31.9287 76.0284 55.6073 0.0000 0.0000 0.0000
# 3 36.2414 55.6073 143.0125 0.0000 0.0000 0.0000
# 4 0.0000 0.0000 0.0000 9.5152 0.0000 0.0000
# 5 0.0000 0.0000 0.0000 0.0000 19.0043 0.0000
# 6 0.0000 0.0000 0.0000 0.0000 0.0000 22.2247
#
#
#
# Elastic Compliance Matrix: (Units=1/GPa)
#
#
# Indices 1 2 3 4 5 6 
#
# 1 0.025384 -0.008322 -0.003197 0.000000 0.000000 0.000000
# 2 -0.008322 0.021108 -0.006099 0.000000 0.000000 0.000000
# 3 -0.003197 -0.006099 0.010174 0.000000 0.000000 0.000000
# 4 0.000000 0.000000 0.000000 0.105096 0.000000 0.000000
# 5 0.000000 0.000000 0.000000 0.000000 0.052620 0.000000
# 6 0.000000 0.000000 0.000000 0.000000 0.000000 0.044995
#
#
# Mechanical properties :
#
#
# Convention : Reuss Voigt Hill
#
# Bulk Modulus (GPa) = 46.66086 57.89142 52.27614
# Shear Modulus (GPa) = 16.56974 20.12820 18.34897
#
# Velocity S-wave (km/s) = 2.97143 3.27499 3.12689
# Velocity P-wave (km/s) = 6.05279 6.71929 6.39473
#
# Compressibility (1/GPa) = 0.02143124
#
# Stress axis : x y z
#
# Youngs Moduli (GPa) = 39.39512 47.37447 98.29137
#
# Poissons Ratio (x) = 0.39425 0.31422
# Poissons Ratio (y) = 0.32785 0.59944
# Poissons Ratio (z) = 0.12594 0.28892
#
# Static dielectric constant tensor:
#      x y z
#    x 3.284280 0.000000 0.000000 
#    y 0.000000 3.363420 0.000000 
#    z 0.000000 0.000000 3.864930 
# 
# 
# High freq. dielectric constant tensor:
#      x y z
#    x 1.710350 0.000000 0.000000 
#    y 0.000000 1.706270 0.000000 
#    z 0.000000 0.000000 1.750320 
# 
# From -- ./inp_files/72731.got.cif
#   From: 2010.03.12/outbox.cif.g09.slc.cpg/sg65_37_cif.got.tgz:72731.got - 2010.04.10 20:52:16.
