data_PCOD8270427
_publ_section_title
;
Structure prediction by ZEFSAII (Michael W. Deem and Ramdas Pophale) SiO2 
 PCOD8270427
Probable space group: C M M M
;
_chemical_formula_sum "Si O2"
_cell_formula_units_Z 104
_cell_length_a 20.331672
_cell_length_b 32.281603
_cell_length_c 9.015127
_cell_angle_alpha 90.000000
_cell_angle_beta 90.000000
_cell_angle_gamma 90.000000
_cell_volume 5916.979114
_symmetry_space_group_name_H-M "C M M M"
_symmetry_group_IT_number 65
_symmetry_cell_setting 'orthorhombic'
loop_
_space_group_symop_operation_xyz
x,y,z
-x,-y,z
x,-y,-z
-x,y,-z
-x,-y,-z
x,y,-z
-x,y,z
x,-y,z
1/2+x,1/2+y,z
1/2-x,1/2-y,z
1/2+x,1/2-y,-z
1/2-x,1/2+y,-z
1/2-x,1/2-y,-z
1/2+x,1/2+y,-z
1/2-x,1/2+y,z
1/2+x,1/2-y,z
loop_
_atom_site_type_symbol
_atom_site_label
_atom_site_fract_x
_atom_site_fract_y
_atom_site_fract_z
Si Si1 0.571744 0.500000 0.823155
Si Si2 0.845074 0.925634 0.831051
Si Si3 0.925022 0.782293 0.175125
Si Si4 0.074661 0.696590 0.670016
Si Si5 0.174911 0.844659 0.325722
Si Si6 0.302467 0.046568 0.168637
Si Si7 0.180661 0.370027 0.325731
O O1 0.500000 0.500000 0.755966
O O2 0.605067 0.541318 0.764576
O O3 0.574909 0.500000 0.000000
O O4 0.856972 0.887821 0.720691
O O5 0.775043 0.947391 0.822343
O O6 0.860484 0.911568 0.000000
O O7 0.911955 0.735564 0.225826
O O8 0.867123 0.809026 0.247589
O O9 0.000000 0.795738 0.222274
O O10 0.917389 0.785167 0.000000
O O11 0.090325 0.709110 0.500000
O O12 0.121293 0.659465 0.723711
O O13 0.000000 0.680855 0.686138
O O14 0.170437 0.837043 0.500000
O O15 0.251337 0.847950 0.271150
O O16 0.334679 0.084435 0.259220
O O17 0.319667 0.000000 0.230202
O O18 0.327384 0.049761 0.000000
O O19 0.184647 0.376509 0.500000
#
# Coordination Sequence:
#
# PCOD8270427 Si02
#       7
#     8  16  16  16  16  16  16
#     4   9  16  26  43  65  87 117 158 201 244 286
#     4   9  16  29  46  65  92 125 162 204 245 286
#     4  10  21  36  53  73  97 129 170 209 245 291
#     4   9  18  35  57  76  98 130 164 200 246 300
#     4  10  20  33  49  72 102 132 162 202 250 295
#     4   9  16  28  48  71  96 129 166 203 243 289
#     4   9  19  33  50  77 105 129 163 204 248 297
#
# _framework density 17.576536999999998
#
# number of rings (size 3 to 8) (size 9 to 14) (size 15 to 20)
#    0.000    2.692    0.769    0.923    0.000    3.692 
#    0.000    5.000    0.000    0.923    0.000    3.231 
#    0.000    0.000    0.000    0.000    0.000    0.000 
#
# Total GULP energy -644440.507623 kJ/mol
# GULP energy per Si atom -12393.086685 kJ/mol
# Density = 1.753653 g / cm^3
# Si number density = 17.576537 Si / 1000 Ang^3
#
#
#
# Elastic Constant Matrix: (Units=GPa)
#
#
# Indices 1 2 3 4 5 6 
#
# 1 87.0598 74.1264 31.2310 0.0000 0.0000 0.0000
# 2 74.1264 136.2125 44.6419 0.0000 0.0000 0.0000
# 3 31.2310 44.6419 51.2795 0.0000 0.0000 0.0000
# 4 0.0000 0.0000 0.0000 38.8222 0.0000 0.0000
# 5 0.0000 0.0000 0.0000 0.0000 18.6075 0.0000
# 6 0.0000 0.0000 0.0000 0.0000 0.0000 39.8134
#
#
#
# Elastic Compliance Matrix: (Units=1/GPa)
#
#
# Indices 1 2 3 4 5 6 
#
# 1 0.022023 -0.010619 -0.004169 0.000000 0.000000 0.000000
# 2 -0.010619 0.015392 -0.006933 0.000000 0.000000 0.000000
# 3 -0.004169 -0.006933 0.028075 0.000000 0.000000 0.000000
# 4 0.000000 0.000000 0.000000 0.025758 0.000000 0.000000
# 5 0.000000 0.000000 0.000000 0.000000 0.053742 0.000000
# 6 0.000000 0.000000 0.000000 0.000000 0.000000 0.025117
#
#
# Mechanical properties :
#
#
# Convention : Reuss Voigt Hill
#
# Bulk Modulus (GPa) = 45.35065 63.83891 54.59478
# Shear Modulus (GPa) = 22.63495 27.75214 25.19354
#
# Velocity S-wave (km/s) = 3.59248 3.97789 3.79008
# Velocity P-wave (km/s) = 6.56244 7.58271 7.09095
#
# Compressibility (1/GPa) = 0.02205040
#
# Stress axis : x y z
#
# Youngs Moduli (GPa) = 45.40735 64.96809 35.61871
#
# Poissons Ratio (x) = 0.68987 0.14848
# Poissons Ratio (y) = 0.48216 0.24693
# Poissons Ratio (z) = 0.18928 0.45041
#
# Static dielectric constant tensor:
#      x y z
#    x 3.279470 0.000000 0.000000 
#    y 0.000000 3.335640 0.000000 
#    z 0.000000 0.000000 3.176220 
# 
# 
# High freq. dielectric constant tensor:
#      x y z
#    x 1.663800 0.000000 0.000000 
#    y 0.000000 1.684270 0.000000 
#    z 0.000000 0.000000 1.667870 
# 
# From -- ./inp_files/12735.got.cif
#   From: 2010.03.12/outbox.cif.g09.slc.cpg/sg65_7_cif.got.tgz:12735.got - 2010.04.10 20:52:16.
