data_PCOD8270647
_publ_section_title
;
Structure prediction by ZEFSAII (Michael W. Deem and Ramdas Pophale) SiO2 
 PCOD8270647
Probable space group: C M M M
;
_chemical_formula_sum "Si O2"
_cell_formula_units_Z 80
_cell_length_a 8.890494
_cell_length_b 18.185981
_cell_length_c 25.916725
_cell_angle_alpha 90.000000
_cell_angle_beta 90.000000
_cell_angle_gamma 90.000000
_cell_volume 4190.277131
_symmetry_space_group_name_H-M "C M M M"
_symmetry_group_IT_number 65
_symmetry_cell_setting 'orthorhombic'
loop_
_space_group_symop_operation_xyz
x,y,z
-x,-y,z
x,-y,-z
-x,y,-z
-x,-y,-z
x,y,-z
-x,y,z
x,-y,z
1/2+x,1/2+y,z
1/2-x,1/2-y,z
1/2+x,1/2-y,-z
1/2-x,1/2+y,-z
1/2-x,1/2-y,-z
1/2+x,1/2+y,-z
1/2-x,1/2+y,z
1/2+x,1/2-y,z
loop_
_atom_site_type_symbol
_atom_site_label
_atom_site_fract_x
_atom_site_fract_y
_atom_site_fract_z
Si Si1 0.322153 0.670340 0.000000
Si Si2 0.676058 0.084821 0.299627
Si Si3 0.321025 0.082494 0.500000
Si Si4 0.173578 0.586872 0.907026
Si Si5 0.830784 0.087381 0.803533
Si Si6 0.821728 0.329262 0.400763
O O1 0.250000 0.750000 0.000000
O O2 0.272034 0.626239 0.949815
O O3 0.500000 0.678192 0.000000
O O4 0.500000 0.094129 0.289772
O O5 0.760641 0.117383 0.249648
O O6 0.731867 0.130212 0.348924
O O7 0.717595 0.000000 0.309540
O O8 0.500000 0.079621 0.500000
O O9 0.261620 0.124230 0.550667
O O10 0.255110 0.000000 0.500000
O O11 0.196202 0.500000 0.913166
O O12 0.230981 0.615013 0.851453
O O13 0.000000 0.609138 0.913427
O O14 0.000000 0.117680 0.809480
O O15 0.828572 0.000000 0.802146
O O16 0.750000 0.250000 0.403140
O O17 0.000000 0.321949 0.402471
#
# Coordination Sequence:
#
# PCOD8270647 Si02
#       6
#     8  16   8  16  16  16
#     4  12  25  40  57  79 111 147 183 224 271 324
#     4   9  17  31  51  74 100 133 174 216 257 305
#     4   9  17  32  55  79 100 129 174 220 258 303
#     4  10  20  36  59  85 112 143 181 224 269 319
#     4   9  17  30  51  80 109 136 171 218 269 315
#     4  10  20  33  51  75 104 137 171 211 259 311
#
# _framework density 19.091815
#
# number of rings (size 3 to 8) (size 9 to 14) (size 15 to 20)
#    0.000    2.300    0.000    3.300    0.000    8.000 
#    0.000    1.000    0.000    4.800    0.000    0.000 
#    0.000    0.000    0.000    0.000    0.000    0.000 
#
# Total GULP energy -496075.261519 kJ/mol
# GULP energy per Si atom -12401.881538 kJ/mol
# Density = 1.904836 g / cm^3
# Si number density = 19.091815 Si / 1000 Ang^3
#
#
#
# Elastic Constant Matrix: (Units=GPa)
#
#
# Indices 1 2 3 4 5 6 
#
# 1 95.6236 42.0047 65.2027 0.0000 0.0000 0.0000
# 2 42.0047 91.3214 69.7830 0.0000 0.0000 0.0000
# 3 65.2027 69.7830 190.5353 0.0000 0.0000 0.0000
# 4 0.0000 0.0000 0.0000 0.1502 0.0000 0.0000
# 5 0.0000 0.0000 0.0000 0.0000 22.6844 0.0000
# 6 0.0000 0.0000 0.0000 0.0000 0.0000 27.7340
#
#
#
# Elastic Compliance Matrix: (Units=1/GPa)
#
#
# Indices 1 2 3 4 5 6 
#
# 1 0.014638 -0.004034 -0.003532 0.000000 0.000000 0.000000
# 2 -0.004034 0.016318 -0.004596 0.000000 0.000000 0.000000
# 3 -0.003532 -0.004596 0.008140 0.000000 0.000000 0.000000
# 4 0.000000 0.000000 0.000000 6.659477 0.000000 0.000000
# 5 0.000000 0.000000 0.000000 0.000000 0.044083 0.000000
# 6 0.000000 0.000000 0.000000 0.000000 0.000000 0.036057
#
#
# Mechanical properties :
#
#
# Convention : Reuss Voigt Hill
#
# Bulk Modulus (GPa) = 67.69357 81.27344 74.48350
# Shear Modulus (GPa) = 0.73443 23.47970 12.10707
#
# Velocity S-wave (km/s) = 0.62090 3.51070 2.52096
# Velocity P-wave (km/s) = 6.00399 7.68736 6.89722
#
# Compressibility (1/GPa) = 0.01477245
#
# Stress axis : x y z
#
# Youngs Moduli (GPa) = 68.31571 61.28275 122.84788
#
# Poissons Ratio (x) = 0.24723 0.43386
# Poissons Ratio (y) = 0.27560 0.56459
# Poissons Ratio (z) = 0.24127 0.28164
#
# Static dielectric constant tensor:
#      x y z
#    x 3.437460 0.000000 0.000000 
#    y 0.000000 3.322540 0.000000 
#    z 0.000000 0.000000 3.916720 
# 
# 
# High freq. dielectric constant tensor:
#      x y z
#    x 1.733760 0.000000 0.000000 
#    y 0.000000 1.718770 0.000000 
#    z 0.000000 0.000000 1.763560 
# 
# From -- ./inp_files/72868.got.cif
#   From: 2010.03.12/outbox.cif.g09.slc.cpg/sg65_37_cif.got.tgz:72868.got - 2010.04.10 20:52:16.
