data_PCOD8270510
_publ_section_title
;
Structure prediction by ZEFSAII (Michael W. Deem and Ramdas Pophale) SiO2 
 PCOD8270510
Probable space group: C M M M
;
_chemical_formula_sum "Si O2"
_cell_formula_units_Z 88
_cell_length_a 19.162681
_cell_length_b 9.023335
_cell_length_c 28.245064
_cell_angle_alpha 90.000000
_cell_angle_beta 90.000000
_cell_angle_gamma 90.000000
_cell_volume 4883.890457
_symmetry_space_group_name_H-M "C M M M"
_symmetry_group_IT_number 65
_symmetry_cell_setting 'orthorhombic'
loop_
_space_group_symop_operation_xyz
x,y,z
-x,-y,z
x,-y,-z
-x,y,-z
-x,-y,-z
x,y,-z
-x,y,z
x,-y,z
1/2+x,1/2+y,z
1/2-x,1/2-y,z
1/2+x,1/2-y,-z
1/2-x,1/2+y,-z
1/2-x,1/2-y,-z
1/2+x,1/2+y,-z
1/2-x,1/2+y,z
1/2+x,1/2-y,z
loop_
_atom_site_type_symbol
_atom_site_label
_atom_site_fract_x
_atom_site_fract_y
_atom_site_fract_z
Si Si1 0.083205 0.167361 0.092997
Si Si2 0.821162 0.172601 0.444879
Si Si3 0.416764 0.167462 0.813934
Si Si4 0.583091 0.332631 0.721075
Si Si5 0.083213 0.667355 0.000000
Si Si6 0.917519 0.329515 0.626947
O O1 0.111922 0.251257 0.139287
O O2 0.000000 0.168090 0.092962
O O3 0.111778 0.000000 0.093285
O O4 0.112032 0.249648 0.046435
O O5 0.835033 0.201203 0.500000
O O6 0.750000 0.250000 0.428205
O O7 0.885399 0.244699 0.417479
O O8 0.816071 0.000000 0.432815
O O9 0.500000 0.168135 0.813755
O O10 0.387585 0.252695 0.767960
O O11 0.388270 0.000000 0.813324
O O12 0.500000 0.332677 0.722192
O O13 0.612052 0.500000 0.719303
O O14 0.610283 0.243960 0.675363
O O15 0.111760 0.500000 0.000000
O O16 0.000000 0.668194 0.000000
O O17 0.894137 0.500000 0.626654
O O18 0.000000 0.313024 0.622567
#
# Coordination Sequence:
#
# PCOD8270510 Si02
#       6
#    16  16  16  16   8  16
#     4   9  15  21  28  38  53  76 109 150 197 248
#     4  10  21  37  56  76  99 128 161 196 234 278
#     4   9  15  22  32  46  65  90 121 158 203 255
#     4   9  16  26  40  58  81 108 138 174 217 264
#     4   9  15  21  27  35  49  71 103 147 198 247
#     4  10  20  33  50  73 100 128 158 194 236 280
#
# _framework density 18.018421
#
# number of rings (size 3 to 8) (size 9 to 14) (size 15 to 20)
#    0.000    2.636    0.000    3.000    0.000   10.182 
#    0.000    1.818    0.000    0.000    0.000    0.000 
#    0.000    0.000    0.000    0.000    0.000    0.000 
#
# Total GULP energy -545621.503457 kJ/mol
# GULP energy per Si atom -12400.488715 kJ/mol
# Density = 1.797741 g / cm^3
# Si number density = 18.018421 Si / 1000 Ang^3
#
#
#
# Elastic Constant Matrix: (Units=GPa)
#
#
# Indices 1 2 3 4 5 6 
#
# 1 13.3112 22.8582 26.3057 0.0000 0.0000 0.0000
# 2 22.8582 185.5025 91.8710 0.0000 0.0000 0.0000
# 3 26.3057 91.8710 142.0140 0.0000 0.0000 0.0000
# 4 0.0000 0.0000 0.0000 43.1474 0.0000 0.0000
# 5 0.0000 0.0000 0.0000 0.0000 1.0059 0.0000
# 6 0.0000 0.0000 0.0000 0.0000 0.0000 15.0907
#
#
#
# Elastic Compliance Matrix: (Units=1/GPa)
#
#
# Indices 1 2 3 4 5 6 
#
# 1 0.122431 -0.005672 -0.019009 0.000000 0.000000 0.000000
# 2 -0.005672 0.008195 -0.004251 0.000000 0.000000 0.000000
# 3 -0.019009 -0.004251 0.013313 0.000000 0.000000 0.000000
# 4 0.000000 0.000000 0.000000 0.023176 0.000000 0.000000
# 5 0.000000 0.000000 0.000000 0.000000 0.994117 0.000000
# 6 0.000000 0.000000 0.000000 0.000000 0.000000 0.066266
#
#
# Mechanical properties :
#
#
# Convention : Reuss Voigt Hill
#
# Bulk Modulus (GPa) = 11.61780 69.21082 40.41431
# Shear Modulus (GPa) = 3.80502 25.16832 14.48667
#
# Velocity S-wave (km/s) = 1.45476 3.74145 2.83855
# Velocity P-wave (km/s) = 3.04688 7.56036 5.76379
#
# Compressibility (1/GPa) = 0.08607478
#
# Stress axis : x y z
#
# Youngs Moduli (GPa) = 8.16788 122.02735 75.11722
#
# Poissons Ratio (x) = 0.69214 1.42790
# Poissons Ratio (y) = 0.04633 0.31930
# Poissons Ratio (z) = 0.15526 0.51871
#
# Static dielectric constant tensor:
#      x y z
#    x 2.548700 0.000000 0.000000 
#    y 0.000000 3.609910 0.000000 
#    z 0.000000 0.000000 3.522830 
# 
# 
# High freq. dielectric constant tensor:
#      x y z
#    x 1.607970 0.000000 0.000000 
#    y 0.000000 1.721900 0.000000 
#    z 0.000000 0.000000 1.715310 
# 
# From -- ./inp_files/73073.got.cif
#   From: 2010.03.12/outbox.cif.g09.slc.cpg/sg65_37_cif.got.tgz:73073.got - 2010.04.10 20:52:16.
