data_PCOD8270209
_publ_section_title
;
Structure prediction by ZEFSAII (Michael W. Deem and Ramdas Pophale) SiO2 
 PCOD8270209
Probable space group: C M M M
;
_chemical_formula_sum "Si O2"
_cell_formula_units_Z 72
_cell_length_a 15.741723
_cell_length_b 8.805687
_cell_length_c 25.117046
_cell_angle_alpha 90.000000
_cell_angle_beta 90.000000
_cell_angle_gamma 90.000000
_cell_volume 3481.641668
_symmetry_space_group_name_H-M "C M M M"
_symmetry_group_IT_number 65
_symmetry_cell_setting 'orthorhombic'
loop_
_space_group_symop_operation_xyz
x,y,z
-x,-y,z
x,-y,-z
-x,y,-z
-x,-y,-z
x,y,-z
-x,y,z
x,-y,z
1/2+x,1/2+y,z
1/2-x,1/2-y,z
1/2+x,1/2-y,-z
1/2-x,1/2+y,-z
1/2-x,1/2-y,-z
1/2+x,1/2+y,-z
1/2-x,1/2+y,z
1/2+x,1/2-y,z
loop_
_atom_site_type_symbol
_atom_site_label
_atom_site_fract_x
_atom_site_fract_y
_atom_site_fract_z
Si Si1 0.500000 0.819852 0.440298
Si Si2 0.158386 0.318929 0.629783
Si Si3 0.601094 0.670287 0.941869
Si Si4 0.597296 0.834855 0.840234
Si Si5 0.660537 0.320733 0.741094
O O1 0.500000 0.753001 0.500000
O O2 0.413852 0.763822 0.411449
O O3 0.500000 0.000000 0.441014
O O4 0.166635 0.500000 0.631879
O O5 0.250000 0.250000 0.613373
O O6 0.127923 0.257307 0.686951
O O7 0.500000 0.667156 0.937275
O O8 0.636481 0.500000 0.936341
O O9 0.641683 0.767557 0.893469
O O10 0.627675 0.737450 0.000000
O O11 0.500000 0.858715 0.854190
O O12 0.600578 0.720322 0.790317
O O13 0.638593 0.000000 0.826863
O O14 0.665427 0.500000 0.732005
O O15 0.750000 0.250000 0.757101
#
# Coordination Sequence:
#
# PCOD8270209 Si02
#       5
#     8  16  16  16  16
#     4   9  20  38  61  89 121 159 198 235 284 343
#     4  10  20  37  60  86 117 155 196 240 289 344
#     4   8  14  26  44  67  98 135 175 220 270 323
#     4  10  20  32  49  76 107 138 177 223 273 328
#     4  11  22  37  56  78 107 142 181 225 278 335
#
# _framework density 20.679898000000001
#
# number of rings (size 3 to 8) (size 9 to 14) (size 15 to 20)
#    0.000    2.333    0.000    5.333    1.556    2.222 
#    0.000    3.889    0.000    5.333    0.000    0.000 
#    0.000    0.000    0.000    0.000    0.000    0.000 
#
# Total GULP energy -446166.721243 kJ/mol
# GULP energy per Si atom -12393.520035 kJ/mol
# Density = 2.063283 g / cm^3
# Si number density = 20.679898 Si / 1000 Ang^3
#
#
#
# Elastic Constant Matrix: (Units=GPa)
#
#
# Indices 1 2 3 4 5 6 
#
# 1 63.5702 32.2562 61.1657 0.0000 0.0000 0.0000
# 2 32.2562 118.1881 56.1983 0.0000 0.0000 0.0000
# 3 61.1657 56.1983 180.4461 0.0000 0.0000 0.0000
# 4 0.0000 0.0000 0.0000 23.3616 0.0000 0.0000
# 5 0.0000 0.0000 0.0000 0.0000 28.7387 0.0000
# 6 0.0000 0.0000 0.0000 0.0000 0.0000 23.8679
#
#
#
# Elastic Compliance Matrix: (Units=1/GPa)
#
#
# Indices 1 2 3 4 5 6 
#
# 1 0.024328 -0.003191 -0.007253 0.000000 0.000000 0.000000
# 2 -0.003191 0.010350 -0.002142 0.000000 0.000000 0.000000
# 3 -0.007253 -0.002142 0.008667 0.000000 0.000000 0.000000
# 4 0.000000 0.000000 0.000000 0.042805 0.000000 0.000000
# 5 0.000000 0.000000 0.000000 0.000000 0.034796 0.000000
# 6 0.000000 0.000000 0.000000 0.000000 0.000000 0.041897
#
#
# Mechanical properties :
#
#
# Convention : Reuss Voigt Hill
#
# Bulk Modulus (GPa) = 55.02154 73.49389 64.25771
# Shear Modulus (GPa) = 25.76333 29.36591 27.56462
#
# Velocity S-wave (km/s) = 3.53344 3.77241 3.65488
# Velocity P-wave (km/s) = 6.58111 7.38855 6.99649
#
# Compressibility (1/GPa) = 0.01817470
#
# Stress axis : x y z
#
# Youngs Moduli (GPa) = 41.10463 96.61400 115.37585
#
# Poissons Ratio (x) = 0.30830 0.83678
# Poissons Ratio (y) = 0.13117 0.24712
# Poissons Ratio (z) = 0.29812 0.20694
#
# Static dielectric constant tensor:
#      x y z
#    x 3.547340 0.000000 0.000000 
#    y 0.000000 3.916950 0.000000 
#    z 0.000000 0.000000 3.976050 
# 
# 
# High freq. dielectric constant tensor:
#      x y z
#    x 1.779060 0.000000 0.000000 
#    y 0.000000 1.805750 0.000000 
#    z 0.000000 0.000000 1.817650 
# 
# From -- ./inp_files/74623.got.cif
#   From: 2010.03.12/outbox.cif.g09.slc.cpg/sg65_38_cif.got.tgz:74623.got - 2010.04.10 20:52:16.
