data_PCOD8270981
_publ_section_title
;
Structure prediction by ZEFSAII (Michael W. Deem and Ramdas Pophale) SiO2 
 PCOD8270981
Probable space group: C M M M
;
_chemical_formula_sum "Si O2"
_cell_formula_units_Z 104
_cell_length_a 19.753000
_cell_length_b 9.031266
_cell_length_c 32.544550
_cell_angle_alpha 90.000000
_cell_angle_beta 90.000000
_cell_angle_gamma 90.000000
_cell_volume 5805.771891
_symmetry_space_group_name_H-M "C M M M"
_symmetry_group_IT_number 65
_symmetry_cell_setting 'orthorhombic'
loop_
_space_group_symop_operation_xyz
x,y,z
-x,-y,z
x,-y,-z
-x,y,-z
-x,-y,-z
x,y,-z
-x,y,z
x,-y,z
1/2+x,1/2+y,z
1/2-x,1/2-y,z
1/2+x,1/2-y,-z
1/2-x,1/2+y,-z
1/2-x,1/2-y,-z
1/2+x,1/2+y,-z
1/2-x,1/2+y,z
1/2+x,1/2-y,z
loop_
_atom_site_type_symbol
_atom_site_label
_atom_site_fract_x
_atom_site_fract_y
_atom_site_fract_z
Si Si1 0.319181 0.674579 0.351084
Si Si2 0.318576 0.671988 0.951942
Si Si3 0.317732 0.673008 0.742605
Si Si4 0.920213 0.673864 0.588872
Si Si5 0.421211 0.828441 0.500000
Si Si6 0.077534 0.827702 0.810612
Si Si7 0.920916 0.327810 0.106296
O O1 0.312025 0.500000 0.356647
O O2 0.250000 0.750000 0.366630
O O3 0.333997 0.720465 0.304035
O O4 0.382182 0.732644 0.376940
O O5 0.313529 0.500000 0.940841
O O6 0.250000 0.750000 0.936573
O O7 0.382444 0.743254 0.929648
O O8 0.329644 0.698940 0.000000
O O9 0.305170 0.500000 0.745579
O O10 0.250000 0.750000 0.758940
O O11 0.379727 0.723590 0.771167
O O12 0.904483 0.500000 0.594089
O O13 0.893538 0.733147 0.543761
O O14 0.000000 0.703130 0.593741
O O15 0.500000 0.798193 0.500000
O O16 0.405440 0.000000 0.500000
O O17 0.102507 0.734899 0.849742
O O18 0.000000 0.792028 0.799919
O O19 0.088234 0.000000 0.820762
O O20 0.902924 0.500000 0.104454
O O21 0.000000 0.297555 0.099403
#
# Coordination Sequence:
#
# PCOD8270981 Si02
#       7
#    16  16  16  16   8  16  16
#     4  10  20  34  51  72 101 134 168 207 251 299
#     4  10  21  37  57  80 106 137 174 215 257 302
#     4   9  19  34  52  73  97 129 166 205 250 299
#     4   9  17  31  52  76 100 128 164 204 248 299
#     4   7  12  26  48  71  96 127 161 199 244 295
#     4   9  18  34  54  74  99 132 169 208 250 297
#     4  10  21  36  54  78 108 140 173 210 253 300
#
# _framework density 17.913208999999998
#
# number of rings (size 3 to 8) (size 9 to 14) (size 15 to 20)
#    0.000    2.692    0.000    2.308    0.000    4.923 
#    0.000    5.385    0.000    3.231    0.000    0.000 
#    0.000    0.000    0.000    0.000    0.000    0.000 
#
# Total GULP energy -644686.670700 kJ/mol
# GULP energy per Si atom -12397.820590 kJ/mol
# Density = 1.787244 g / cm^3
# Si number density = 17.913209 Si / 1000 Ang^3
#
#
#
# Elastic Constant Matrix: (Units=GPa)
#
#
# Indices 1 2 3 4 5 6 
#
# 1 86.9761 48.7038 65.4678 0.0000 0.0000 0.0000
# 2 48.7038 79.3429 53.8461 0.0000 0.0000 0.0000
# 3 65.4678 53.8461 101.7187 0.0000 0.0000 0.0000
# 4 0.0000 0.0000 0.0000 25.6150 0.0000 0.0000
# 5 0.0000 0.0000 0.0000 0.0000 18.4441 0.0000
# 6 0.0000 0.0000 0.0000 0.0000 0.0000 32.3317
#
#
#
# Elastic Compliance Matrix: (Units=1/GPa)
#
#
# Indices 1 2 3 4 5 6 
#
# 1 0.024415 -0.006746 -0.012143 0.000000 0.000000 0.000000
# 2 -0.006746 0.021534 -0.007057 0.000000 0.000000 0.000000
# 3 -0.012143 -0.007057 0.021382 0.000000 0.000000 0.000000
# 4 0.000000 0.000000 0.000000 0.039040 0.000000 0.000000
# 5 0.000000 0.000000 0.000000 0.000000 0.054218 0.000000
# 6 0.000000 0.000000 0.000000 0.000000 0.000000 0.030929
#
#
# Mechanical properties :
#
#
# Convention : Reuss Voigt Hill
#
# Bulk Modulus (GPa) = 64.77232 67.11924 65.94578
# Shear Modulus (GPa) = 20.11611 21.94617 21.03114
#
# Velocity S-wave (km/s) = 3.35472 3.50400 3.43017
# Velocity P-wave (km/s) = 7.15842 7.34310 7.25135
#
# Compressibility (1/GPa) = 0.01543869
#
# Stress axis : x y z
#
# Youngs Moduli (GPa) = 40.95840 46.43790 46.76805
#
# Poissons Ratio (x) = 0.31328 0.56789
# Poissons Ratio (y) = 0.27632 0.33006
# Poissons Ratio (z) = 0.49734 0.32773
#
# Static dielectric constant tensor:
#      x y z
#    x 3.245010 0.000000 0.000000 
#    y 0.000000 3.267170 0.000000 
#    z 0.000000 0.000000 3.521790 
# 
# 
# High freq. dielectric constant tensor:
#      x y z
#    x 1.684370 0.000000 0.000000 
#    y 0.000000 1.689160 0.000000 
#    z 0.000000 0.000000 1.701100 
# 
# From -- ./inp_files/75533.got.cif
#   From: 2010.03.12/outbox.cif.g09.slc.cpg/sg65_38_cif.got.tgz:75533.got - 2010.04.10 20:52:16.
