data_PCOD8270728
_publ_section_title
;
Structure prediction by ZEFSAII (Michael W. Deem and Ramdas Pophale) SiO2 
 PCOD8270728
Probable space group: C M M M
;
_chemical_formula_sum "Si O2"
_cell_formula_units_Z 80
_cell_length_a 8.756227
_cell_length_b 19.413929
_cell_length_c 25.314614
_cell_angle_alpha 90.000000
_cell_angle_beta 90.000000
_cell_angle_gamma 90.000000
_cell_volume 4303.301337
_symmetry_space_group_name_H-M "C M M M"
_symmetry_group_IT_number 65
_symmetry_cell_setting 'orthorhombic'
loop_
_space_group_symop_operation_xyz
x,y,z
-x,-y,z
x,-y,-z
-x,y,-z
-x,-y,-z
x,y,-z
-x,y,z
x,-y,z
1/2+x,1/2+y,z
1/2-x,1/2-y,z
1/2+x,1/2-y,-z
1/2-x,1/2+y,-z
1/2-x,1/2-y,-z
1/2+x,1/2+y,-z
1/2-x,1/2+y,z
1/2+x,1/2-y,z
loop_
_atom_site_type_symbol
_atom_site_label
_atom_site_fract_x
_atom_site_fract_y
_atom_site_fract_z
Si Si1 0.325529 0.580101 0.060505
Si Si2 0.824973 0.418886 0.336958
Si Si3 0.179955 0.177175 0.747147
Si Si4 0.179039 0.677953 0.858347
Si Si5 0.328404 0.581740 0.557782
O O1 0.500000 0.599193 0.074489
O O2 0.295978 0.500000 0.070436
O O3 0.210305 0.621520 0.097221
O O4 0.290320 0.599295 0.000000
O O5 0.794128 0.500000 0.331602
O O6 0.718773 0.381269 0.294955
O O7 0.782233 0.391900 0.395730
O O8 0.000000 0.400151 0.325965
O O9 0.250000 0.250000 0.729014
O O10 0.247149 0.153754 0.803361
O O11 0.000000 0.185310 0.752227
O O12 0.250000 0.750000 0.877265
O O13 0.000000 0.686999 0.850003
O O14 0.272146 0.608742 0.500000
O O15 0.500000 0.608548 0.568819
O O16 0.327909 0.500000 0.556969
#
# Coordination Sequence:
#
# PCOD8270728 Si02
#       5
#    16  16  16  16  16
#     4   9  19  37  59  82 110 143 177 214 259 310
#     4  10  20  33  51  78 109 138 174 218 260 307
#     4  11  22  38  58  77 103 138 176 217 264 317
#     4  11  22  37  57  80 107 138 176 219 261 309
#     4   8  14  26  45  70 101 136 173 213 258 307
#
# _framework density 18.590378000000001
#
# number of rings (size 3 to 8) (size 9 to 14) (size 15 to 20)
#    0.000    2.200    0.000    6.600    0.000    3.600 
#    0.000    3.000    0.000    0.600    0.000    0.000 
#    0.000    0.000    0.000    0.000    0.000    0.000 
#
# Total GULP energy -496002.014828 kJ/mol
# GULP energy per Si atom -12400.050371 kJ/mol
# Density = 1.854807 g / cm^3
# Si number density = 18.590378 Si / 1000 Ang^3
#
#
#
# Elastic Constant Matrix: (Units=GPa)
#
#
# Indices 1 2 3 4 5 6 
#
# 1 136.9688 40.8817 58.1319 0.0000 0.0000 0.0000
# 2 40.8817 53.8950 55.8672 0.0000 0.0000 0.0000
# 3 58.1319 55.8672 119.4081 0.0000 0.0000 0.0000
# 4 0.0000 0.0000 0.0000 -8.9680 0.0000 0.0000
# 5 0.0000 0.0000 0.0000 0.0000 35.5070 0.0000
# 6 0.0000 0.0000 0.0000 0.0000 0.0000 26.7760
#
#
#
# Elastic Compliance Matrix: (Units=1/GPa)
#
#
# Indices 1 2 3 4 5 6 
#
# 1 0.009811 -0.004837 -0.002513 0.000000 0.000000 0.000000
# 2 -0.004837 0.038412 -0.015617 0.000000 0.000000 0.000000
# 3 -0.002513 -0.015617 0.016905 0.000000 0.000000 0.000000
# 4 0.000000 0.000000 0.000000 -0.111508 0.000000 0.000000
# 5 0.000000 0.000000 0.000000 0.000000 0.028163 0.000000
# 6 0.000000 0.000000 0.000000 0.000000 0.000000 0.037347
#
#
# Mechanical properties :
#
#
# Convention : Reuss Voigt Hill
#
# Bulk Modulus (GPa) = 52.10055 68.89260 60.49658
# Shear Modulus (GPa) = 69.96562 21.02241 45.49402
#
# Velocity S-wave (km/s) = 6.14142 3.36642 4.95227
# Velocity P-wave (km/s) = 8.85301 7.22835 8.08161
#
# Compressibility (1/GPa) = 0.01919365
#
# Stress axis : x y z
#
# Youngs Moduli (GPa) = 101.92234 26.03353 59.15425
#
# Poissons Ratio (x) = 0.12592 0.14868
# Poissons Ratio (y) = 0.49299 0.92381
# Poissons Ratio (z) = 0.25618 0.40656
#
# Static dielectric constant tensor:
#      x y z
#    x 3.456000 0.000000 0.000000 
#    y 0.000000 3.109430 0.000000 
#    z 0.000000 0.000000 3.619180 
# 
# 
# High freq. dielectric constant tensor:
#      x y z
#    x 1.728260 0.000000 0.000000 
#    y 0.000000 1.692450 0.000000 
#    z 0.000000 0.000000 1.732800 
# 
# From -- ./inp_files/72826.got.cif
#   From: 2010.03.12/outbox.cif.g09.slc.cpg/sg65_37_cif.got.tgz:72826.got - 2010.04.10 20:52:16.
