data_PCOD8270092
_publ_section_title
;
Structure prediction by ZEFSAII (Michael W. Deem and Ramdas Pophale) SiO2 
 PCOD8270092
Probable space group: C M M M
;
_chemical_formula_sum "Si O2"
_cell_formula_units_Z 72
_cell_length_a 26.300114
_cell_length_b 15.776669
_cell_length_c 9.876623
_cell_angle_alpha 90.000000
_cell_angle_beta 90.000000
_cell_angle_gamma 90.000000
_cell_volume 4098.089337
_symmetry_space_group_name_H-M "C M M M"
_symmetry_group_IT_number 65
_symmetry_cell_setting 'orthorhombic'
loop_
_space_group_symop_operation_xyz
x,y,z
-x,-y,z
x,-y,-z
-x,y,-z
-x,-y,-z
x,y,-z
-x,y,z
x,-y,z
1/2+x,1/2+y,z
1/2-x,1/2-y,z
1/2+x,1/2-y,-z
1/2-x,1/2+y,-z
1/2-x,1/2-y,-z
1/2+x,1/2+y,-z
1/2-x,1/2+y,z
1/2+x,1/2-y,z
loop_
_atom_site_type_symbol
_atom_site_label
_atom_site_fract_x
_atom_site_fract_y
_atom_site_fract_z
Si Si1 0.273875 0.341116 0.285421
Si Si2 0.056486 0.700384 0.500000
Si Si3 0.154152 0.779355 0.500000
Si Si4 0.202020 0.406254 0.500000
Si Si5 0.867562 0.600859 0.000000
Si Si6 0.748329 0.099331 0.000000
Si Si7 0.557153 0.099303 0.229693
O O1 0.250000 0.250000 0.287558
O O2 0.326788 0.329647 0.366523
O O3 0.237138 0.405113 0.365761
O O4 0.280397 0.371598 0.131093
O O5 0.093177 0.782304 0.500000
O O6 0.067246 0.642564 0.371413
O O7 0.000000 0.737804 0.500000
O O8 0.166619 0.677279 0.500000
O O9 0.174441 0.500000 0.500000
O O10 0.809657 0.637349 0.000000
O O11 0.899175 0.634160 0.129392
O O12 0.866698 0.500000 0.000000
O O13 0.743905 0.000000 0.000000
O O14 0.500000 0.119226 0.174609
O O15 0.563652 0.000000 0.250814
#
# Coordination Sequence:
#
# PCOD8270092 Si02
#       7
#    16   8   8   8   8   8  16
#     4   9  19  34  47  67  99 133 164 199 245 294
#     4  10  20  32  48  70  91 117 167 215 237 280
#     4   9  20  35  50  67  97 137 164 193 256 305
#     4   9  17  30  50  71  95 131 174 206 227 275
#     4   9  19  29  42  66  93 126 163 199 239 277
#     4  11  21  32  49  75 100 123 166 212 239 283
#     4   9  17  30  45  63  92 128 166 209 248 274
#
# _framework density 17.569161999999999
#
# number of rings (size 3 to 8) (size 9 to 14) (size 15 to 20)
#    0.000    2.667    0.000    3.000    6.222    3.556 
#    0.000    0.000    0.000    0.000    0.000    0.000 
#    0.000   16.889    0.000    0.000    0.000    0.000 
#
# Total GULP energy -446044.452492 kJ/mol
# GULP energy per Si atom -12390.123680 kJ/mol
# Density = 1.752917 g / cm^3
# Si number density = 17.569162 Si / 1000 Ang^3
#
#
#
# Elastic Constant Matrix: (Units=GPa)
#
#
# Indices 1 2 3 4 5 6 
#
# 1 96.4502 28.2632 64.5325 0.0000 0.0000 0.0000
# 2 28.2632 31.0611 17.2350 0.0000 0.0000 0.0000
# 3 64.5325 17.2350 144.6381 0.0000 0.0000 0.0000
# 4 0.0000 0.0000 0.0000 33.0462 0.0000 0.0000
# 5 0.0000 0.0000 0.0000 0.0000 30.8870 0.0000
# 6 0.0000 0.0000 0.0000 0.0000 0.0000 22.6084
#
#
#
# Elastic Compliance Matrix: (Units=1/GPa)
#
#
# Indices 1 2 3 4 5 6 
#
# 1 0.018844 -0.013365 -0.006815 0.000000 0.000000 0.000000
# 2 -0.013365 0.043953 0.000726 0.000000 0.000000 0.000000
# 3 -0.006815 0.000726 0.009868 0.000000 0.000000 0.000000
# 4 0.000000 0.000000 0.000000 0.030261 0.000000 0.000000
# 5 0.000000 0.000000 0.000000 0.000000 0.032376 0.000000
# 6 0.000000 0.000000 0.000000 0.000000 0.000000 0.044231
#
#
# Mechanical properties :
#
#
# Convention : Reuss Voigt Hill
#
# Bulk Modulus (GPa) = 29.62414 54.69008 42.15711
# Shear Modulus (GPa) = 21.76793 28.11622 24.94207
#
# Velocity S-wave (km/s) = 3.52374 4.00474 3.77191
# Velocity P-wave (km/s) = 5.78392 7.25120 6.55872
#
# Compressibility (1/GPa) = 0.03375625
#
# Stress axis : x y z
#
# Youngs Moduli (GPa) = 53.06621 22.75133 101.33775
#
# Poissons Ratio (x) = 0.30408 0.69063
# Poissons Ratio (y) = 0.70925 -0.07354
# Poissons Ratio (z) = 0.36165 -0.01651
#
# Static dielectric constant tensor:
#      x y z
#    x 3.364050 0.000000 0.000000 
#    y 0.000000 2.934350 0.000000 
#    z 0.000000 0.000000 3.160100 
# 
# 
# High freq. dielectric constant tensor:
#      x y z
#    x 1.659650 0.000000 0.000000 
#    y 0.000000 1.631200 0.000000 
#    z 0.000000 0.000000 1.695490 
# 
# From -- ./inp_files/13688.got.cif
#   From: 2010.03.12/outbox.cif.g09.slc.cpg/sg65_7_cif.got.tgz:13688.got - 2010.04.10 20:52:16.
