data_PCOD8270406
_publ_section_title
;
Structure prediction by ZEFSAII (Michael W. Deem and Ramdas Pophale) SiO2 
 PCOD8270406
Probable space group: C M M M
;
_chemical_formula_sum "Si O2"
_cell_formula_units_Z 80
_cell_length_a 19.281360
_cell_length_b 8.981453
_cell_length_c 25.411004
_cell_angle_alpha 90.000000
_cell_angle_beta 90.000000
_cell_angle_gamma 90.000000
_cell_volume 4400.541180
_symmetry_space_group_name_H-M "C M M M"
_symmetry_group_IT_number 65
_symmetry_cell_setting 'orthorhombic'
loop_
_space_group_symop_operation_xyz
x,y,z
-x,-y,z
x,-y,-z
-x,y,-z
-x,-y,-z
x,y,-z
-x,y,z
x,-y,z
1/2+x,1/2+y,z
1/2-x,1/2-y,z
1/2+x,1/2-y,-z
1/2-x,1/2+y,-z
1/2-x,1/2-y,-z
1/2+x,1/2+y,-z
1/2-x,1/2+y,z
1/2+x,1/2-y,z
loop_
_atom_site_type_symbol
_atom_site_label
_atom_site_fract_x
_atom_site_fract_y
_atom_site_fract_z
Si Si1 0.081895 0.828267 0.208898
Si Si2 0.178268 0.324561 0.290427
Si Si3 0.577175 0.823083 0.500000
Si Si4 0.082760 0.831665 0.000000
Si Si5 0.320700 0.174341 0.410801
Si Si6 0.417464 0.831965 0.896336
O O1 0.115525 0.740844 0.257020
O O2 0.109095 0.758159 0.154356
O O3 0.000000 0.808763 0.214449
O O4 0.104166 0.000000 0.210140
O O5 0.183853 0.500000 0.281461
O O6 0.250000 0.250000 0.272203
O O7 0.161557 0.283437 0.350814
O O8 0.500000 0.753427 0.500000
O O9 0.617064 0.767528 0.447727
O O10 0.572455 0.000000 0.500000
O O11 0.111753 0.747882 0.948509
O O12 0.000000 0.830994 0.000000
O O13 0.110983 0.000000 0.000000
O O14 0.250000 0.250000 0.429681
O O15 0.309648 0.000000 0.417631
O O16 0.500000 0.832660 0.897896
O O17 0.388496 0.000000 0.893969
#
# Coordination Sequence:
#
# PCOD8270406 Si02
#       6
#    16  16   8   8  16  16
#     4  10  20  33  49  71 100 132 165 205 255 306
#     4  10  20  34  52  74  99 129 168 210 251 298
#     4   9  17  30  49  75 104 131 162 200 242 289
#     4   9  15  23  37  59  90 127 164 203 248 297
#     4   9  18  32  52  74  96 127 164 203 244 289
#     4   9  16  26  41  63  92 126 164 205 249 298
#
# _framework density 18.179580999999999
#
# number of rings (size 3 to 8) (size 9 to 14) (size 15 to 20)
#    0.000    2.600    0.000    2.400    0.000    6.400 
#    0.000    2.000    0.000    1.200    0.000    0.700 
#    0.000    0.000    0.000    0.000    0.000    0.000 
#
# Total GULP energy -496033.831847 kJ/mol
# GULP energy per Si atom -12400.845796 kJ/mol
# Density = 1.813820 g / cm^3
# Si number density = 18.179581 Si / 1000 Ang^3
#
#
#
# Elastic Constant Matrix: (Units=GPa)
#
#
# Indices 1 2 3 4 5 6 
#
# 1 70.1801 35.7367 58.7818 0.0000 0.0000 0.0000
# 2 35.7367 104.8393 55.6095 0.0000 0.0000 0.0000
# 3 58.7818 55.6095 133.9099 0.0000 0.0000 0.0000
# 4 0.0000 0.0000 0.0000 25.2242 0.0000 0.0000
# 5 0.0000 0.0000 0.0000 0.0000 8.1234 0.0000
# 6 0.0000 0.0000 0.0000 0.0000 0.0000 23.8594
#
#
#
# Elastic Compliance Matrix: (Units=1/GPa)
#
#
# Indices 1 2 3 4 5 6 
#
# 1 0.023360 -0.003237 -0.008910 0.000000 0.000000 0.000000
# 2 -0.003237 0.012681 -0.003846 0.000000 0.000000 0.000000
# 3 -0.008910 -0.003846 0.012976 0.000000 0.000000 0.000000
# 4 0.000000 0.000000 0.000000 0.039644 0.000000 0.000000
# 5 0.000000 0.000000 0.000000 0.000000 0.123101 0.000000
# 6 0.000000 0.000000 0.000000 0.000000 0.000000 0.041912
#
#
# Mechanical properties :
#
#
# Convention : Reuss Voigt Hill
#
# Bulk Modulus (GPa) = 58.71000 67.68726 63.19863
# Shear Modulus (GPa) = 17.16220 22.02817 19.59519
#
# Velocity S-wave (km/s) = 3.07585 3.48472 3.28665
# Velocity P-wave (km/s) = 6.70664 7.31467 7.01725
#
# Compressibility (1/GPa) = 0.01703287
#
# Stress axis : x y z
#
# Youngs Moduli (GPa) = 42.80763 78.85538 77.06553
#
# Poissons Ratio (x) = 0.25522 0.68668
# Poissons Ratio (y) = 0.13855 0.29636
# Poissons Ratio (z) = 0.38143 0.30324
#
# Static dielectric constant tensor:
#      x y z
#    x 3.074680 0.000000 0.000000 
#    y 0.000000 3.413670 0.000000 
#    z 0.000000 0.000000 3.555470 
# 
# 
# High freq. dielectric constant tensor:
#      x y z
#    x 1.662030 0.000000 0.000000 
#    y 0.000000 1.707760 0.000000 
#    z 0.000000 0.000000 1.718630 
# 
# From -- ./inp_files/67277.got.cif
#   From: 2010.03.12/outbox.cif.g09.slc.cpg/sg65_34_cif.got.tgz:67277.got - 2010.04.10 20:52:16.
