data_PCOD8270248
_publ_section_title
;
Structure prediction by ZEFSAII (Michael W. Deem and Ramdas Pophale) SiO2 
 PCOD8270248
Probable space group: C M M M
;
_chemical_formula_sum "Si O2"
_cell_formula_units_Z 128
_cell_length_a 18.818683
_cell_length_b 17.161341
_cell_length_c 22.357430
_cell_angle_alpha 90.000000
_cell_angle_beta 90.000000
_cell_angle_gamma 90.000000
_cell_volume 7220.417785
_symmetry_space_group_name_H-M "C M M M"
_symmetry_group_IT_number 65
_symmetry_cell_setting 'orthorhombic'
loop_
_space_group_symop_operation_xyz
x,y,z
-x,-y,z
x,-y,-z
-x,y,-z
-x,-y,-z
x,y,-z
-x,y,z
x,-y,z
1/2+x,1/2+y,z
1/2-x,1/2-y,z
1/2+x,1/2-y,-z
1/2-x,1/2+y,-z
1/2-x,1/2-y,-z
1/2+x,1/2+y,-z
1/2-x,1/2+y,z
1/2+x,1/2-y,z
loop_
_atom_site_type_symbol
_atom_site_label
_atom_site_fract_x
_atom_site_fract_y
_atom_site_fract_z
Si Si1 0.326277 0.908481 0.229234
Si Si2 0.581449 0.196975 0.159934
Si Si3 0.696142 0.410284 0.430355
Si Si4 0.920065 0.845177 0.761171
Si Si5 0.829192 0.219758 0.067147
Si Si6 0.303408 0.182530 0.650720
Si Si7 0.916265 0.803713 0.625427
Si Si8 0.311030 0.587618 0.841165
O O1 0.394674 0.883798 0.190405
O O2 0.326937 0.869259 0.293767
O O3 0.259431 0.879255 0.190315
O O4 0.326090 0.000000 0.239289
O O5 0.500000 0.190598 0.142702
O O6 0.598682 0.262670 0.208998
O O7 0.622529 0.214997 0.098633
O O8 0.713085 0.404747 0.500000
O O9 0.688385 0.500000 0.409563
O O10 0.763025 0.370874 0.397416
O O11 0.621590 0.365832 0.418117
O O12 0.906339 0.839096 0.691154
O O13 0.871253 0.911559 0.789922
O O14 0.000000 0.869877 0.775373
O O15 0.750000 0.250000 0.065988
O O16 0.833765 0.138118 0.101887
O O17 0.857744 0.206267 0.000000
O O18 0.250000 0.250000 0.673017
O O19 0.374606 0.220888 0.621493
O O20 0.000000 0.792628 0.609073
O O21 0.299838 0.500000 0.864116
#
# Coordination Sequence:
#
# PCOD8270248 Si02
#       8
#    16  16  16  16  16  16  16  16
#     4  11  21  32  52  83 111 140 177 219 271 323
#     4  10  20  35  55  77 107 141 175 214 262 317
#     4  10  22  39  56  77 108 148 190 226 267 323
#     4   9  18  32  52  77 107 142 173 210 266 327
#     4  10  20  35  57  78 100 137 184 225 263 310
#     4  10  20  33  57  82 111 145 180 226 274 325
#     4  10  20  34  55  82 111 142 179 228 279 325
#     4  10  20  32  50  78 110 139 174 220 272 324
#
# _framework density 17.727506000000002
#
# number of rings (size 3 to 8) (size 9 to 14) (size 15 to 20)
#    0.000    2.000    2.500    1.875    1.750    5.250 
#    0.000    1.875    0.000    1.500    0.000    5.250 
#    0.000    0.000    0.000    0.000    0.000    0.000 
#
# Total GULP energy -793604.004736 kJ/mol
# GULP energy per Si atom -12400.062574 kJ/mol
# Density = 1.768716 g / cm^3
# Si number density = 17.727506 Si / 1000 Ang^3
#
#
#
# Elastic Constant Matrix: (Units=GPa)
#
#
# Indices 1 2 3 4 5 6 
#
# 1 108.3451 45.7829 42.0117 0.0000 0.0000 0.0000
# 2 45.7829 90.4118 44.6774 0.0000 0.0000 0.0000
# 3 42.0117 44.6774 91.4220 0.0000 0.0000 0.0000
# 4 0.0000 0.0000 0.0000 23.6306 0.0000 0.0000
# 5 0.0000 0.0000 0.0000 0.0000 13.0575 0.0000
# 6 0.0000 0.0000 0.0000 0.0000 0.0000 17.7103
#
#
#
# Elastic Compliance Matrix: (Units=1/GPa)
#
#
# Indices 1 2 3 4 5 6 
#
# 1 0.012541 -0.004618 -0.003506 0.000000 0.000000 0.000000
# 2 -0.004618 0.016282 -0.005835 0.000000 0.000000 0.000000
# 3 -0.003506 -0.005835 0.015401 0.000000 0.000000 0.000000
# 4 0.000000 0.000000 0.000000 0.042318 0.000000 0.000000
# 5 0.000000 0.000000 0.000000 0.000000 0.076584 0.000000
# 6 0.000000 0.000000 0.000000 0.000000 0.000000 0.056464
#
#
# Mechanical properties :
#
#
# Convention : Reuss Voigt Hill
#
# Bulk Modulus (GPa) = 61.32717 61.68035 61.50376
# Shear Modulus (GPa) = 19.76725 21.39348 20.58037
#
# Velocity S-wave (km/s) = 3.34288 3.47767 3.41094
# Velocity P-wave (km/s) = 7.04054 7.14105 7.09098
#
# Compressibility (1/GPa) = 0.01630599
#
# Stress axis : x y z
#
# Youngs Moduli (GPa) = 79.74083 61.41660 64.93056
#
# Poissons Ratio (x) = 0.28361 0.22766
# Poissons Ratio (y) = 0.36822 0.37887
# Poissons Ratio (z) = 0.27959 0.35837
#
# Static dielectric constant tensor:
#      x y z
#    x 3.390240 0.000000 0.000000 
#    y 0.000000 3.212900 0.000000 
#    z 0.000000 0.000000 3.251070 
# 
# 
# High freq. dielectric constant tensor:
#      x y z
#    x 1.687960 0.000000 0.000000 
#    y 0.000000 1.678180 0.000000 
#    z 0.000000 0.000000 1.679890 
# 
# From -- ./inp_files/64875.got.cif
#   From: 2010.03.12/outbox.cif.g09.slc.cpg/sg65_33_cif.got.tgz:64875.got - 2010.04.10 20:52:16.
