data_PCOD8270767
_publ_section_title
;
Structure prediction by ZEFSAII (Michael W. Deem and Ramdas Pophale) SiO2 
 PCOD8270767
Probable space group: C M M M
;
_chemical_formula_sum "Si O2"
_cell_formula_units_Z 96
_cell_length_a 27.840837
_cell_length_b 20.073449
_cell_length_c 9.264045
_cell_angle_alpha 90.000000
_cell_angle_beta 90.000000
_cell_angle_gamma 90.000000
_cell_volume 5177.319212
_symmetry_space_group_name_H-M "C M M M"
_symmetry_group_IT_number 65
_symmetry_cell_setting 'orthorhombic'
loop_
_space_group_symop_operation_xyz
x,y,z
-x,-y,z
x,-y,-z
-x,y,-z
-x,-y,-z
x,y,-z
-x,y,z
x,-y,z
1/2+x,1/2+y,z
1/2-x,1/2-y,z
1/2+x,1/2-y,-z
1/2-x,1/2+y,-z
1/2-x,1/2-y,-z
1/2+x,1/2+y,-z
1/2-x,1/2+y,z
1/2+x,1/2-y,z
loop_
_atom_site_type_symbol
_atom_site_label
_atom_site_fract_x
_atom_site_fract_y
_atom_site_fract_z
Si Si1 0.445697 0.076389 0.331414
Si Si2 0.280292 0.185925 0.167306
Si Si3 0.946409 0.815822 0.171521
Si Si4 0.891319 0.686681 0.832296
Si Si5 0.225150 0.076900 0.668904
Si Si6 0.628546 0.576379 0.167042
O O1 0.438586 0.088457 0.500000
O O2 0.500000 0.095661 0.285578
O O3 0.407171 0.119960 0.247279
O O4 0.435421 0.000000 0.291424
O O5 0.250000 0.250000 0.217725
O O6 0.335727 0.201843 0.196738
O O7 0.266451 0.121747 0.261170
O O8 0.270305 0.169672 0.000000
O O9 0.921430 0.748840 0.230035
O O10 0.915989 0.879693 0.222664
O O11 0.000000 0.821204 0.236779
O O12 0.948401 0.814014 0.000000
O O13 0.901801 0.676108 0.000000
O O14 0.221770 0.091668 0.500000
O O15 0.174649 0.096257 0.740291
O O16 0.238040 0.000000 0.700021
O O17 0.613729 0.500000 0.190667
O O18 0.640754 0.591463 0.000000
#
# Coordination Sequence:
#
# PCOD8270767 Si02
#       6
#    16  16  16  16  16  16
#     4   9  19  36  55  74 100 135 170 204 247 300
#     4  10  21  37  56  77 103 136 174 215 259 309
#     4   9  17  30  50  77 107 135 166 208 254 298
#     4  10  20  33  52  77 102 131 168 210 255 301
#     4  10  21  36  54  77 105 137 173 213 258 308
#     4   9  17  31  53  78 104 137 174 210 250 297
#
# _framework density 18.542414000000001
#
# number of rings (size 3 to 8) (size 9 to 14) (size 15 to 20)
#    0.000    2.500    0.000    2.500    0.000    7.000 
#    0.000    8.333    0.000    1.500    0.000    2.333 
#    0.000    0.000    0.000    0.000    0.000    0.000 
#
# Total GULP energy -595325.255036 kJ/mol
# GULP energy per Si atom -12402.609480 kJ/mol
# Density = 1.850021 g / cm^3
# Si number density = 18.542414 Si / 1000 Ang^3
#
#
#
# Elastic Constant Matrix: (Units=GPa)
#
#
# Indices 1 2 3 4 5 6 
#
# 1 91.0122 49.2210 33.3900 0.0000 0.0000 0.0000
# 2 49.2210 96.1183 37.4506 0.0000 0.0000 0.0000
# 3 33.3900 37.4506 50.5471 0.0000 0.0000 0.0000
# 4 0.0000 0.0000 0.0000 20.8479 0.0000 0.0000
# 5 0.0000 0.0000 0.0000 0.0000 13.9692 0.0000
# 6 0.0000 0.0000 0.0000 0.0000 0.0000 41.9952
#
#
#
# Elastic Compliance Matrix: (Units=1/GPa)
#
#
# Indices 1 2 3 4 5 6 
#
# 1 0.016614 -0.005949 -0.006567 0.000000 0.000000 0.000000
# 2 -0.005949 0.016756 -0.008485 0.000000 0.000000 0.000000
# 3 -0.006567 -0.008485 0.030408 0.000000 0.000000 0.000000
# 4 0.000000 0.000000 0.000000 0.047966 0.000000 0.000000
# 5 0.000000 0.000000 0.000000 0.000000 0.071586 0.000000
# 6 0.000000 0.000000 0.000000 0.000000 0.000000 0.023812
#
#
# Mechanical properties :
#
#
# Convention : Reuss Voigt Hill
#
# Bulk Modulus (GPa) = 45.92184 53.08899 49.50541
# Shear Modulus (GPa) = 19.50039 23.20351 21.35195
#
# Velocity S-wave (km/s) = 3.24646 3.54132 3.39709
# Velocity P-wave (km/s) = 6.23476 6.73903 6.49179
#
# Compressibility (1/GPa) = 0.02177613
#
# Stress axis : x y z
#
# Youngs Moduli (GPa) = 60.18912 59.67878 32.88594
#
# Poissons Ratio (x) = 0.35504 0.21597
# Poissons Ratio (y) = 0.35808 0.27904
# Poissons Ratio (z) = 0.39527 0.50637
#
# Static dielectric constant tensor:
#      x y z
#    x 3.479020 0.000000 0.000000 
#    y 0.000000 3.478210 0.000000 
#    z 0.000000 0.000000 3.168770 
# 
# 
# High freq. dielectric constant tensor:
#      x y z
#    x 1.723620 0.000000 0.000000 
#    y 0.000000 1.729100 0.000000 
#    z 0.000000 0.000000 1.693140 
# 
# From -- ./inp_files/12233.got.cif
#   From: 2010.03.12/outbox.cif.g09.slc.cpg/sg65_7_cif.got.tgz:12233.got - 2010.04.10 20:52:16.
