data_PCOD8270069
_publ_section_title
;
Structure prediction by ZEFSAII (Michael W. Deem and Ramdas Pophale) SiO2 
 PCOD8270069
Probable space group: C M M M
;
_chemical_formula_sum "Si O2"
_cell_formula_units_Z 96
_cell_length_a 22.763510
_cell_length_b 27.059986
_cell_length_c 8.779602
_cell_angle_alpha 90.000000
_cell_angle_beta 90.000000
_cell_angle_gamma 90.000000
_cell_volume 5408.061539
_symmetry_space_group_name_H-M "C M M M"
_symmetry_group_IT_number 65
_symmetry_cell_setting 'orthorhombic'
loop_
_space_group_symop_operation_xyz
x,y,z
-x,-y,z
x,-y,-z
-x,y,-z
-x,-y,-z
x,y,-z
-x,y,z
x,-y,z
1/2+x,1/2+y,z
1/2-x,1/2-y,z
1/2+x,1/2-y,-z
1/2-x,1/2+y,-z
1/2-x,1/2-y,-z
1/2+x,1/2+y,-z
1/2-x,1/2+y,z
1/2+x,1/2-y,z
loop_
_atom_site_type_symbol
_atom_site_label
_atom_site_fract_x
_atom_site_fract_y
_atom_site_fract_z
Si Si1 0.243176 0.803692 0.332170
Si Si2 0.150577 0.629574 0.333112
Si Si3 0.431751 0.797504 0.176890
Si Si4 0.749793 0.943165 0.319841
Si Si5 0.567204 0.694483 0.679648
Si Si6 0.339847 0.373620 0.176471
O O1 0.211252 0.804760 0.500000
O O2 0.250000 0.750000 0.264938
O O3 0.307607 0.824084 0.354364
O O4 0.208125 0.831540 0.201795
O O5 0.125772 0.613509 0.500000
O O6 0.098102 0.650621 0.229172
O O7 0.190408 0.584921 0.260822
O O8 0.500000 0.804327 0.214790
O O9 0.408219 0.747277 0.258428
O O10 0.419225 0.790346 0.000000
O O11 0.754167 0.934176 0.500000
O O12 0.811110 0.923091 0.249543
O O13 0.743366 0.000000 0.274207
O O14 0.574020 0.694843 0.500000
O O15 0.500000 0.688231 0.731762
O O16 0.600601 0.646177 0.745382
O O17 0.351996 0.383444 0.000000
#
# Coordination Sequence:
#
# PCOD8270069 Si02
#       6
#    16  16  16  16  16  16
#     4   9  17  29  45  66  95 129 163 199 237 283
#     4   9  17  29  48  73  97 125 163 204 245 290
#     4  10  20  32  47  71 104 138 169 202 242 289
#     4   9  19  37  58  76  96 125 162 206 254 300
#     4  10  20  34  52  72  98 136 176 207 237 280
#     4  11  21  31  48  74 102 129 158 198 247 297
#
# _framework density 17.751277000000002
#
# number of rings (size 3 to 8) (size 9 to 14) (size 15 to 20)
#    0.000    2.333    0.000    4.500    0.000    6.667 
#    0.000    0.000    0.000    1.000    0.000    7.000 
#    0.000    0.000    0.000    0.000    0.000    0.000 
#
# Total GULP energy -594674.623557 kJ/mol
# GULP energy per Si atom -12389.054657 kJ/mol
# Density = 1.771087 g / cm^3
# Si number density = 17.751277 Si / 1000 Ang^3
#
#
#
# Elastic Constant Matrix: (Units=GPa)
#
#
# Indices 1 2 3 4 5 6 
#
# 1 73.1118 40.7056 29.7222 0.0000 0.0000 0.0000
# 2 40.7056 129.7263 31.6350 0.0000 0.0000 0.0000
# 3 29.7222 31.6350 75.1998 0.0000 0.0000 0.0000
# 4 0.0000 0.0000 0.0000 18.4643 0.0000 0.0000
# 5 0.0000 0.0000 0.0000 0.0000 25.0219 0.0000
# 6 0.0000 0.0000 0.0000 0.0000 0.0000 26.6844
#
#
#
# Elastic Compliance Matrix: (Units=1/GPa)
#
#
# Indices 1 2 3 4 5 6 
#
# 1 0.018338 -0.004442 -0.005379 0.000000 0.000000 0.000000
# 2 -0.004442 0.009666 -0.002310 0.000000 0.000000 0.000000
# 3 -0.005379 -0.002310 0.016396 0.000000 0.000000 0.000000
# 4 0.000000 0.000000 0.000000 0.054159 0.000000 0.000000
# 5 0.000000 0.000000 0.000000 0.000000 0.039965 0.000000
# 6 0.000000 0.000000 0.000000 0.000000 0.000000 0.037475
#
#
# Mechanical properties :
#
#
# Convention : Reuss Voigt Hill
#
# Bulk Modulus (GPa) = 49.66260 53.57371 51.61815
# Shear Modulus (GPa) = 24.15764 25.76579 24.96171
#
# Velocity S-wave (km/s) = 3.69303 3.81397 3.75399
# Velocity P-wave (km/s) = 6.79870 7.04563 6.92327
#
# Compressibility (1/GPa) = 0.02013588
#
# Stress axis : x y z
#
# Youngs Moduli (GPa) = 54.53240 103.45693 60.99084
#
# Poissons Ratio (x) = 0.45958 0.32807
# Poissons Ratio (y) = 0.24225 0.14092
# Poissons Ratio (z) = 0.29333 0.23903
#
# Static dielectric constant tensor:
#      x y z
#    x 3.446260 0.000000 0.000000 
#    y 0.000000 3.245100 0.000000 
#    z 0.000000 0.000000 3.241200 
# 
# 
# High freq. dielectric constant tensor:
#      x y z
#    x 1.676600 0.000000 0.000000 
#    y 0.000000 1.665640 0.000000 
#    z 0.000000 0.000000 1.682750 
# 
# From -- ./inp_files/14586.got.cif
#   From: 2010.03.12/outbox.cif.g09.slc.cpg/sg65_8_cif.got.tgz:14586.got - 2010.04.10 20:52:16.
