data_PCOD8270684
_publ_section_title
;
Structure prediction by ZEFSAII (Michael W. Deem and Ramdas Pophale) SiO2 
 PCOD8270684
Probable space group: C M M M
;
_chemical_formula_sum "Si O2"
_cell_formula_units_Z 104
_cell_length_a 29.407395
_cell_length_b 20.918259
_cell_length_c 9.131489
_cell_angle_alpha 90.000000
_cell_angle_beta 90.000000
_cell_angle_gamma 90.000000
_cell_volume 5617.249202
_symmetry_space_group_name_H-M "C M M M"
_symmetry_group_IT_number 65
_symmetry_cell_setting 'orthorhombic'
loop_
_space_group_symop_operation_xyz
x,y,z
-x,-y,z
x,-y,-z
-x,y,-z
-x,-y,-z
x,y,-z
-x,y,z
x,-y,z
1/2+x,1/2+y,z
1/2-x,1/2-y,z
1/2+x,1/2-y,-z
1/2-x,1/2+y,-z
1/2-x,1/2-y,-z
1/2+x,1/2+y,-z
1/2-x,1/2+y,z
1/2+x,1/2-y,z
loop_
_atom_site_type_symbol
_atom_site_label
_atom_site_fract_x
_atom_site_fract_y
_atom_site_fract_z
Si Si1 0.382993 0.740158 0.328392
Si Si2 0.794467 0.712230 0.170919
Si Si3 0.053740 0.000000 0.162753
Si Si4 0.552239 0.625719 0.672455
Si Si5 0.678844 0.071636 0.830913
Si Si6 0.050297 0.674549 0.834728
Si Si7 0.085713 0.427924 0.662961
O O1 0.374257 0.738632 0.500000
O O2 0.335313 0.750336 0.249605
O O3 0.411244 0.678097 0.275346
O O4 0.415629 0.797497 0.284296
O O5 0.750000 0.750000 0.225935
O O6 0.790314 0.635107 0.204754
O O7 0.802083 0.722883 0.000000
O O8 0.070080 0.937858 0.249315
O O9 0.000000 0.000000 0.153698
O O10 0.075111 0.000000 0.000000
O O11 0.554044 0.614743 0.500000
O O12 0.500000 0.643689 0.718523
O O13 0.636386 0.078910 0.725360
O O14 0.701665 0.000000 0.803938
O O15 0.663227 0.075498 0.000000
O O16 0.049767 0.601781 0.778593
O O17 0.000000 0.704567 0.825458
O O18 0.069118 0.681095 0.000000
O O19 0.084371 0.396772 0.500000
O O20 0.070284 0.500000 0.650452
#
# Coordination Sequence:
#
# PCOD8270684 Si02
#       7
#    16  16   8  16  16  16  16
#     4  11  22  36  56  81 109 144 184 227 273 323
#     4  10  21  37  58  83 111 144 181 225 278 335
#     4   9  17  29  49  79 109 139 181 227 267 313
#     4   9  18  33  53  77 107 145 184 220 267 326
#     4   9  17  32  56  81 105 139 182 224 271 330
#     4  11  23  36  51  74 107 147 186 225 272 324
#     4  10  20  33  51  76 105 139 181 228 274 317
#
# _framework density 18.514400999999999
#
# number of rings (size 3 to 8) (size 9 to 14) (size 15 to 20)
#    0.000    2.077    1.538    2.077    0.000    5.538 
#    0.000    3.077    1.692    0.000    0.000    0.000 
#    0.000    0.000    0.000    0.000    0.000    0.000 
#
# Total GULP energy -644179.884790 kJ/mol
# GULP energy per Si atom -12388.074708 kJ/mol
# Density = 1.847226 g / cm^3
# Si number density = 18.514401 Si / 1000 Ang^3
#
#
#
# Elastic Constant Matrix: (Units=GPa)
#
#
# Indices 1 2 3 4 5 6 
#
# 1 96.0184 61.4276 32.7284 0.0000 0.0000 0.0000
# 2 61.4276 125.1667 41.5663 0.0000 0.0000 0.0000
# 3 32.7284 41.5663 52.5461 0.0000 0.0000 0.0000
# 4 0.0000 0.0000 0.0000 24.2034 0.0000 0.0000
# 5 0.0000 0.0000 0.0000 0.0000 12.8184 0.0000
# 6 0.0000 0.0000 0.0000 0.0000 0.0000 29.3948
#
#
#
# Elastic Compliance Matrix: (Units=1/GPa)
#
#
# Indices 1 2 3 4 5 6 
#
# 1 0.016142 -0.006216 -0.005137 0.000000 0.000000 0.000000
# 2 -0.006216 0.013230 -0.006593 0.000000 0.000000 0.000000
# 3 -0.005137 -0.006593 0.027446 0.000000 0.000000 0.000000
# 4 0.000000 0.000000 0.000000 0.041316 0.000000 0.000000
# 5 0.000000 0.000000 0.000000 0.000000 0.078013 0.000000
# 6 0.000000 0.000000 0.000000 0.000000 0.000000 0.034020
#
#
# Mechanical properties :
#
#
# Convention : Reuss Voigt Hill
#
# Bulk Modulus (GPa) = 47.78993 60.57508 54.18250
# Shear Modulus (GPa) = 19.76003 22.48391 21.12197
#
# Velocity S-wave (km/s) = 3.27047 3.48861 3.38130
# Velocity P-wave (km/s) = 6.33479 7.00114 6.67629
#
# Compressibility (1/GPa) = 0.02092491
#
# Stress axis : x y z
#
# Youngs Moduli (GPa) = 61.94829 75.58775 36.43480
#
# Poissons Ratio (x) = 0.46987 0.18717
# Poissons Ratio (y) = 0.38508 0.24023
# Poissons Ratio (z) = 0.31823 0.49838
#
# Static dielectric constant tensor:
#      x y z
#    x 3.135070 0.000000 0.000000 
#    y 0.000000 3.873520 0.000000 
#    z 0.000000 0.000000 3.494930 
# 
# 
# High freq. dielectric constant tensor:
#      x y z
#    x 1.676330 0.000000 0.000000 
#    y 0.000000 1.730880 0.000000 
#    z 0.000000 0.000000 1.726050 
# 
# From -- ./inp_files/18601.got.cif
#   From: 2010.03.12/outbox.cif.g09.slc.cpg/sg65_10_cif.got.tgz:18601.got - 2010.04.10 20:52:16.
