data_PCOD8270413
_publ_section_title
;
Structure prediction by ZEFSAII (Michael W. Deem and Ramdas Pophale) SiO2 
 PCOD8270413
Probable space group: C M M M
;
_chemical_formula_sum "Si O2"
_cell_formula_units_Z 88
_cell_length_a 8.651866
_cell_length_b 18.901360
_cell_length_c 28.643761
_cell_angle_alpha 90.000000
_cell_angle_beta 90.000000
_cell_angle_gamma 90.000000
_cell_volume 4684.172496
_symmetry_space_group_name_H-M "C M M M"
_symmetry_group_IT_number 65
_symmetry_cell_setting 'orthorhombic'
loop_
_space_group_symop_operation_xyz
x,y,z
-x,-y,z
x,-y,-z
-x,y,-z
-x,-y,-z
x,y,-z
-x,y,z
x,-y,z
1/2+x,1/2+y,z
1/2-x,1/2-y,z
1/2+x,1/2-y,-z
1/2-x,1/2+y,-z
1/2-x,1/2-y,-z
1/2+x,1/2+y,-z
1/2-x,1/2+y,z
1/2+x,1/2-y,z
loop_
_atom_site_type_symbol
_atom_site_label
_atom_site_fract_x
_atom_site_fract_y
_atom_site_fract_z
Si Si1 0.826115 0.584496 0.851007
Si Si2 0.681043 0.824160 0.319858
Si Si3 0.816188 0.579410 0.049428
Si Si4 0.183095 0.174017 0.580747
Si Si5 0.679729 0.083176 0.500000
Si Si6 0.824468 0.916574 0.757043
O O1 0.825105 0.500000 0.854205
O O2 0.761060 0.614724 0.901276
O O3 0.718762 0.611303 0.808805
O O4 0.000000 0.611658 0.841317
O O5 0.500000 0.816058 0.328964
O O6 0.750000 0.750000 0.302174
O O7 0.761757 0.847831 0.367770
O O8 0.711856 0.882646 0.280850
O O9 0.750538 0.500000 0.047125
O O10 0.000000 0.576978 0.052162
O O11 0.765066 0.617638 0.000000
O O12 0.250000 0.250000 0.565742
O O13 0.241629 0.114332 0.545916
O O14 0.000000 0.178186 0.579250
O O15 0.500000 0.102660 0.500000
O O16 0.708616 0.000000 0.500000
O O17 0.000000 0.894556 0.746420
O O18 0.799635 0.000000 0.754065
#
# Coordination Sequence:
#
# PCOD8270413 Si02
#       6
#    16  16  16  16   8  16
#     4   8  13  22  37  58  85 119 160 203 248 299
#     4  11  22  38  59  81 106 135 172 215 259 306
#     4   7   9  14  27  49  77 110 150 196 243 291
#     4  11  22  39  62  85 111 142 178 215 256 306
#     4  11  24  41  60  85 117 149 182 219 258 299
#     4  10  20  33  49  71 101 136 172 210 255 306
#
# _framework density 18.786669
#
# number of rings (size 3 to 8) (size 9 to 14) (size 15 to 20)
#    0.000    2.455    0.000    7.091    0.000    2.545 
#    0.000    0.000    0.000    0.545    0.000    3.818 
#    0.000    0.727    0.000    2.000    0.000    5.091 
#
# Total GULP energy -545213.243897 kJ/mol
# GULP energy per Si atom -12391.210089 kJ/mol
# Density = 1.874391 g / cm^3
# Si number density = 18.786669 Si / 1000 Ang^3
#
#
#
# Elastic Constant Matrix: (Units=GPa)
#
#
# Indices 1 2 3 4 5 6 
#
# 1 116.1411 36.2735 51.3887 0.0000 0.0000 0.0000
# 2 36.2735 41.4475 51.1600 0.0000 0.0000 0.0000
# 3 51.3887 51.1600 152.1768 0.0000 0.0000 0.0000
# 4 0.0000 0.0000 0.0000 3.7601 0.0000 0.0000
# 5 0.0000 0.0000 0.0000 0.0000 15.4670 0.0000
# 6 0.0000 0.0000 0.0000 0.0000 0.0000 20.7667
#
#
#
# Elastic Compliance Matrix: (Units=1/GPa)
#
#
# Indices 1 2 3 4 5 6 
#
# 1 0.011918 -0.009337 -0.000886 0.000000 0.000000 0.000000
# 2 -0.009337 0.048556 -0.013171 0.000000 0.000000 0.000000
# 3 -0.000886 -0.013171 0.011298 0.000000 0.000000 0.000000
# 4 0.000000 0.000000 0.000000 0.265949 0.000000 0.000000
# 5 0.000000 0.000000 0.000000 0.000000 0.064654 0.000000
# 6 0.000000 0.000000 0.000000 0.000000 0.000000 0.048154
#
#
# Mechanical properties :
#
#
# Convention : Reuss Voigt Hill
#
# Bulk Modulus (GPa) = 40.02425 65.26775 52.64600
# Shear Modulus (GPa) = 9.88838 19.39500 14.64169
#
# Velocity S-wave (km/s) = 2.29672 3.21655 2.79474
# Velocity P-wave (km/s) = 5.32767 6.97222 6.20468
#
# Compressibility (1/GPa) = 0.02498485
#
# Stress axis : x y z
#
# Youngs Moduli (GPa) = 83.90425 20.59490 88.50981
#
# Poissons Ratio (x) = 0.19230 0.07838
# Poissons Ratio (y) = 0.78345 1.16573
# Poissons Ratio (z) = 0.07430 0.27125
#
# Static dielectric constant tensor:
#      x y z
#    x 3.372320 0.000000 0.000000 
#    y 0.000000 2.874840 0.000000 
#    z 0.000000 0.000000 3.971610 
# 
# 
# High freq. dielectric constant tensor:
#      x y z
#    x 1.721360 0.000000 0.000000 
#    y 0.000000 1.670580 0.000000 
#    z 0.000000 0.000000 1.759360 
# 
# From -- ./inp_files/76470.got.cif
#   From: 2010.03.12/outbox.cif.g09.slc.cpg/sg65_39_cif.got.tgz:76470.got - 2010.04.10 20:52:16.
