data_PCOD8270479
_publ_section_title
;
Structure prediction by ZEFSAII (Michael W. Deem and Ramdas Pophale) SiO2 
 PCOD8270479
Probable space group: C M M M
;
_chemical_formula_sum "Si O2"
_cell_formula_units_Z 88
_cell_length_a 11.245816
_cell_length_b 28.279400
_cell_length_c 15.029835
_cell_angle_alpha 90.000000
_cell_angle_beta 90.000000
_cell_angle_gamma 90.000000
_cell_volume 4779.862209
_symmetry_space_group_name_H-M "C M M M"
_symmetry_group_IT_number 65
_symmetry_cell_setting 'orthorhombic'
loop_
_space_group_symop_operation_xyz
x,y,z
-x,-y,z
x,-y,-z
-x,y,-z
-x,-y,-z
x,y,-z
-x,y,z
x,-y,z
1/2+x,1/2+y,z
1/2-x,1/2-y,z
1/2+x,1/2-y,-z
1/2-x,1/2+y,-z
1/2-x,1/2-y,-z
1/2+x,1/2+y,-z
1/2-x,1/2+y,z
1/2+x,1/2-y,z
loop_
_atom_site_type_symbol
_atom_site_label
_atom_site_fract_x
_atom_site_fract_y
_atom_site_fract_z
Si Si1 0.256535 0.947518 0.313477
Si Si2 0.500000 0.550531 0.634939
Si Si3 0.244201 0.194070 0.397258
Si Si4 0.366439 0.859521 0.246923
Si Si5 0.500000 0.655276 0.403736
Si Si6 0.866067 0.444120 0.500000
Si Si7 0.136890 0.717113 0.103244
O O1 0.115289 0.949764 0.303234
O O2 0.295863 0.908951 0.241620
O O3 0.294324 0.928063 0.411838
O O4 0.311336 0.000000 0.295687
O O5 0.500000 0.500000 0.579224
O O6 0.500000 0.598752 0.579093
O O7 0.263921 0.178057 0.500000
O O8 0.250000 0.250000 0.388394
O O9 0.343824 0.171822 0.334865
O O10 0.119285 0.174196 0.356415
O O11 0.500000 0.876246 0.252325
O O12 0.340158 0.830518 0.157785
O O13 0.500000 0.680313 0.500000
O O14 0.872243 0.500000 0.500000
O O15 0.000000 0.422817 0.500000
O O16 0.250000 0.750000 0.129886
O O17 0.000000 0.736705 0.123864
O O18 0.145524 0.704325 0.000000
#
# Coordination Sequence:
#
# PCOD8270479 Si02
#       7
#    16   8  16  16   8   8  16
#     4  10  21  35  50  73 105 143 184 228 275 323
#     4  10  20  33  50  72 100 137 182 231 279 320
#     4  10  22  37  51  71 104 145 184 223 266 321
#     4  11  22  34  54  82 106 140 182 220 274 326
#     4  10  20  35  52  70  98 142 189 228 274 319
#     4   9  18  31  47  67  96 138 184 227 272 317
#     4   9  19  39  63  88 117 144 178 226 278 335
#
# _framework density 18.410571999999998
#
# number of rings (size 3 to 8) (size 9 to 14) (size 15 to 20)
#    0.000    2.091    1.818    1.091    3.818    1.636 
#    3.273    0.000    0.000    0.545    0.000    2.545 
#    0.000    2.182    0.000    0.000    0.000    0.000 
#
# Total GULP energy -545092.629294 kJ/mol
# GULP energy per Si atom -12388.468848 kJ/mol
# Density = 1.836867 g / cm^3
# Si number density = 18.410572 Si / 1000 Ang^3
#
#
#
# Elastic Constant Matrix: (Units=GPa)
#
#
# Indices 1 2 3 4 5 6 
#
# 1 128.5674 52.1341 35.7714 0.0000 0.0000 0.0000
# 2 52.1341 112.5810 35.2436 0.0000 0.0000 0.0000
# 3 35.7714 35.2436 44.0584 0.0000 0.0000 0.0000
# 4 0.0000 0.0000 0.0000 25.3012 0.0000 0.0000
# 5 0.0000 0.0000 0.0000 0.0000 12.3501 0.0000
# 6 0.0000 0.0000 0.0000 0.0000 0.0000 32.2049
#
#
#
# Elastic Compliance Matrix: (Units=1/GPa)
#
#
# Indices 1 2 3 4 5 6 
#
# 1 0.010756 -0.002998 -0.006335 0.000000 0.000000 0.000000
# 2 -0.002998 0.012685 -0.007713 0.000000 0.000000 0.000000
# 3 -0.006335 -0.007713 0.034011 0.000000 0.000000 0.000000
# 4 0.000000 0.000000 0.000000 0.039524 0.000000 0.000000
# 5 0.000000 0.000000 0.000000 0.000000 0.080971 0.000000
# 6 0.000000 0.000000 0.000000 0.000000 0.000000 0.031051
#
#
# Mechanical properties :
#
#
# Convention : Reuss Voigt Hill
#
# Bulk Modulus (GPa) = 42.80853 59.05612 50.93233
# Shear Modulus (GPa) = 19.93002 24.77511 22.35256
#
# Velocity S-wave (km/s) = 3.29375 3.67236 3.48820
# Velocity P-wave (km/s) = 6.14554 7.08015 6.62934
#
# Compressibility (1/GPa) = 0.02335983
#
# Stress axis : x y z
#
# Youngs Moduli (GPa) = 92.96929 78.83056 29.40239
#
# Poissons Ratio (x) = 0.23632 0.18627
# Poissons Ratio (y) = 0.27871 0.22679
# Poissons Ratio (z) = 0.58896 0.60806
#
# Static dielectric constant tensor:
#      x y z
#    x 3.772930 0.000000 0.000000 
#    y 0.000000 3.470830 0.000000 
#    z 0.000000 0.000000 3.017110 
# 
# 
# High freq. dielectric constant tensor:
#      x y z
#    x 1.733390 0.000000 0.000000 
#    y 0.000000 1.719990 0.000000 
#    z 0.000000 0.000000 1.657500 
# 
# From -- ./inp_files/38726.got.cif
#   From: 2010.03.12/outbox.cif.g09.slc.cpg/sg65_20_cif.got.tgz:38726.got - 2010.04.10 20:52:16.
