data_PCOD8270293
_publ_section_title
;
Structure prediction by ZEFSAII (Michael W. Deem and Ramdas Pophale) SiO2 
 PCOD8270293
Probable space group: C M M M
;
_chemical_formula_sum "Si O2"
_cell_formula_units_Z 104
_cell_length_a 17.160529
_cell_length_b 18.473045
_cell_length_c 20.018771
_cell_angle_alpha 90.000000
_cell_angle_beta 90.000000
_cell_angle_gamma 90.000000
_cell_volume 6346.095031
_symmetry_space_group_name_H-M "C M M M"
_symmetry_group_IT_number 65
_symmetry_cell_setting 'orthorhombic'
loop_
_space_group_symop_operation_xyz
x,y,z
-x,-y,z
x,-y,-z
-x,y,-z
-x,-y,-z
x,y,-z
-x,y,z
x,-y,z
1/2+x,1/2+y,z
1/2-x,1/2-y,z
1/2+x,1/2-y,-z
1/2-x,1/2+y,-z
1/2-x,1/2-y,-z
1/2+x,1/2+y,-z
1/2-x,1/2+y,z
1/2+x,1/2-y,z
loop_
_atom_site_type_symbol
_atom_site_label
_atom_site_fract_x
_atom_site_fract_y
_atom_site_fract_z
Si Si1 0.702288 0.183551 0.262179
Si Si2 0.090022 0.144994 0.074948
Si Si3 0.362609 0.918386 0.922929
Si Si4 0.416122 0.084720 0.500000
Si Si5 0.593339 0.084612 0.354270
Si Si6 0.085168 0.714165 0.849820
Si Si7 0.284979 0.418874 0.835497
O O1 0.750000 0.250000 0.298043
O O2 0.644652 0.137356 0.308788
O O3 0.649778 0.222503 0.206664
O O4 0.765143 0.130851 0.227986
O O5 0.104194 0.229413 0.091309
O O6 0.132012 0.097820 0.131537
O O7 0.000000 0.123626 0.079025
O O8 0.121703 0.130104 0.000000
O O9 0.418586 0.865735 0.881733
O O10 0.275827 0.908353 0.895439
O O11 0.393186 0.000000 0.911944
O O12 0.362786 0.896900 0.000000
O O13 0.500000 0.124015 0.500000
O O14 0.375229 0.104094 0.570518
O O15 0.430993 0.000000 0.500000
O O16 0.500000 0.099587 0.346733
O O17 0.609547 0.000000 0.336824
O O18 0.000000 0.729694 0.818414
O O19 0.285234 0.500000 0.807477
#
# Coordination Sequence:
#
# PCOD8270293 Si02
#       7
#    16  16  16   8  16  16  16
#     4  11  20  33  48  71  97 133 162 189 232 286
#     4  10  20  33  49  66  82 109 154 206 256 297
#     4   9  18  30  45  65  87 113 143 182 240 302
#     4   7  12  26  49  78 108 134 161 193 230 270
#     4   9  17  31  54  81 106 133 165 199 232 272
#     4  10  20  33  46  63  89 119 154 193 235 285
#     4  10  20  34  48  65  89 116 151 196 242 292
#
# _framework density 16.388031000000002
#
# number of rings (size 3 to 8) (size 9 to 14) (size 15 to 20)
#    0.000    2.385    1.538    2.769    0.000    3.077 
#    0.000    4.231    0.000    0.000    0.000    0.000 
#    0.000    0.000    0.000    0.000    0.000   28.077 
#
# Total GULP energy -644301.593694 kJ/mol
# GULP energy per Si atom -12390.415263 kJ/mol
# Density = 1.635073 g / cm^3
# Si number density = 16.388031 Si / 1000 Ang^3
#
#
#
# Elastic Constant Matrix: (Units=GPa)
#
#
# Indices 1 2 3 4 5 6 
#
# 1 61.7137 40.9076 34.6069 0.0000 0.0000 0.0000
# 2 40.9076 78.3105 32.7008 0.0000 0.0000 0.0000
# 3 34.6069 32.7008 77.5173 0.0000 0.0000 0.0000
# 4 0.0000 0.0000 0.0000 15.8743 0.0000 0.0000
# 5 0.0000 0.0000 0.0000 0.0000 8.3627 0.0000
# 6 0.0000 0.0000 0.0000 0.0000 0.0000 21.3277
#
#
#
# Elastic Compliance Matrix: (Units=1/GPa)
#
#
# Indices 1 2 3 4 5 6 
#
# 1 0.028141 -0.011475 -0.007722 0.000000 0.000000 0.000000
# 2 -0.011475 0.020180 -0.003390 0.000000 0.000000 0.000000
# 3 -0.007722 -0.003390 0.017778 0.000000 0.000000 0.000000
# 4 0.000000 0.000000 0.000000 0.062995 0.000000 0.000000
# 5 0.000000 0.000000 0.000000 0.000000 0.119579 0.000000
# 6 0.000000 0.000000 0.000000 0.000000 0.000000 0.046887
#
#
# Mechanical properties :
#
#
# Convention : Reuss Voigt Hill
#
# Bulk Modulus (GPa) = 47.79325 48.21912 48.00618
# Shear Modulus (GPa) = 14.37984 16.40134 15.39059
#
# Velocity S-wave (km/s) = 2.96541 3.16699 3.06786
# Velocity P-wave (km/s) = 6.39935 6.54678 6.47349
#
# Compressibility (1/GPa) = 0.02092346
#
# Stress axis : x y z
#
# Youngs Moduli (GPa) = 35.53546 49.55476 56.24983
#
# Poissons Ratio (x) = 0.56867 0.43438
# Poissons Ratio (y) = 0.40779 0.19067
# Poissons Ratio (z) = 0.27441 0.16798
#
# Static dielectric constant tensor:
#      x y z
#    x 3.019090 0.000000 0.000000 
#    y 0.000000 3.092200 0.000000 
#    z 0.000000 0.000000 3.069270 
# 
# 
# High freq. dielectric constant tensor:
#      x y z
#    x 1.620760 0.000000 0.000000 
#    y 0.000000 1.627810 0.000000 
#    z 0.000000 0.000000 1.604740 
# 
# From -- ./inp_files/54624.got.cif
#   From: 2010.03.12/outbox.cif.g09.slc.cpg/sg65_28_cif.got.tgz:54624.got - 2010.04.10 20:52:16.
