data_PCOD8270509
_publ_section_title
;
Structure prediction by ZEFSAII (Michael W. Deem and Ramdas Pophale) SiO2 
 PCOD8270509
Probable space group: C M M M
;
_chemical_formula_sum "Si O2"
_cell_formula_units_Z 96
_cell_length_a 9.103901
_cell_length_b 19.017082
_cell_length_c 30.862777
_cell_angle_alpha 90.000000
_cell_angle_beta 90.000000
_cell_angle_gamma 90.000000
_cell_volume 5343.261219
_symmetry_space_group_name_H-M "C M M M"
_symmetry_group_IT_number 65
_symmetry_cell_setting 'orthorhombic'
loop_
_space_group_symop_operation_xyz
x,y,z
-x,-y,z
x,-y,-z
-x,y,-z
-x,-y,-z
x,y,-z
-x,y,z
x,-y,z
1/2+x,1/2+y,z
1/2-x,1/2-y,z
1/2+x,1/2-y,-z
1/2-x,1/2+y,-z
1/2-x,1/2-y,-z
1/2+x,1/2+y,-z
1/2-x,1/2+y,z
1/2+x,1/2-y,z
loop_
_atom_site_type_symbol
_atom_site_label
_atom_site_fract_x
_atom_site_fract_y
_atom_site_fract_z
Si Si1 0.334174 0.583854 0.714304
Si Si2 0.666058 0.083734 0.798570
Si Si3 0.334846 0.583617 0.547665
Si Si4 0.670737 0.821366 0.949423
Si Si5 0.835101 0.416071 0.630183
Si Si6 0.331333 0.583253 0.884024
O O1 0.500000 0.612693 0.716463
O O2 0.333743 0.500000 0.714629
O O3 0.244460 0.613123 0.755467
O O4 0.258901 0.612541 0.670582
O O5 0.500000 0.112968 0.800583
O O6 0.756165 0.111171 0.840014
O O7 0.665224 0.000000 0.797694
O O8 0.278341 0.608039 0.500000
O O9 0.500000 0.611217 0.555379
O O10 0.334181 0.500000 0.549864
O O11 0.231489 0.614455 0.585400
O O12 0.500000 0.816117 0.937243
O O13 0.750000 0.750000 0.934755
O O14 0.745205 0.885909 0.924834
O O15 0.694213 0.835635 0.000000
O O16 0.832915 0.500000 0.629758
O O17 0.000000 0.387483 0.634804
O O18 0.500000 0.608146 0.884327
O O19 0.319203 0.500000 0.887511
#
# Coordination Sequence:
#
# PCOD8270509 Si02
#       6
#    16  16  16  16  16  16
#     4   9  15  22  32  45  63  88 117 149 189 240
#     4   9  16  26  40  58  81 107 135 169 210 255
#     4   8  13  20  27  33  43  62  90 127 174 227
#     4  10  21  37  56  76  99 128 161 196 234 276
#     4   9  15  20  26  37  52  71  99 136 179 229
#     4  10  20  33  50  73 100 128 158 192 231 276
#
# _framework density 17.966555
#
# number of rings (size 3 to 8) (size 9 to 14) (size 15 to 20)
#    0.000    2.833    0.000    3.000    0.000    8.667 
#    0.000    3.333    0.000    0.000    0.000    0.000 
#    0.000    0.000    0.000    0.000    0.000    0.000 
#
# Total GULP energy -595094.479809 kJ/mol
# GULP energy per Si atom -12397.801663 kJ/mol
# Density = 1.792566 g / cm^3
# Si number density = 17.966555 Si / 1000 Ang^3
#
#
#
# Elastic Constant Matrix: (Units=GPa)
#
#
# Indices 1 2 3 4 5 6 
#
# 1 171.8858 20.0826 88.3989 0.0000 0.0000 0.0000
# 2 20.0826 10.8139 22.5279 0.0000 0.0000 0.0000
# 3 88.3989 22.5279 136.1770 0.0000 0.0000 0.0000
# 4 0.0000 0.0000 0.0000 0.8353 0.0000 0.0000
# 5 0.0000 0.0000 0.0000 0.0000 41.2243 0.0000
# 6 0.0000 0.0000 0.0000 0.0000 0.0000 13.7184
#
#
#
# Elastic Compliance Matrix: (Units=1/GPa)
#
#
# Indices 1 2 3 4 5 6 
#
# 1 0.009066 -0.006983 -0.004730 0.000000 0.000000 0.000000
# 2 -0.006983 0.146481 -0.019699 0.000000 0.000000 0.000000
# 3 -0.004730 -0.019699 0.013673 0.000000 0.000000 0.000000
# 4 0.000000 0.000000 0.000000 1.197108 0.000000 0.000000
# 5 0.000000 0.000000 0.000000 0.000000 0.024258 0.000000
# 6 0.000000 0.000000 0.000000 0.000000 0.000000 0.072895
#
#
# Mechanical properties :
#
#
# Convention : Reuss Voigt Hill
#
# Bulk Modulus (GPa) = 9.39895 64.54395 36.97145
# Shear Modulus (GPa) = 3.20149 23.68008 13.44079
#
# Velocity S-wave (km/s) = 1.33633 3.63438 2.73811
# Velocity P-wave (km/s) = 2.76112 7.32216 5.53344
#
# Compressibility (1/GPa) = 0.10639489
#
# Stress axis : x y z
#
# Youngs Moduli (GPa) = 110.29752 6.82681 73.13759
#
# Poissons Ratio (x) = 0.04767 0.34595
# Poissons Ratio (y) = 0.77023 1.44077
# Poissons Ratio (z) = 0.52173 0.13448
#
# Static dielectric constant tensor:
#      x y z
#    x 3.584470 0.000000 0.000000 
#    y 0.000000 2.516930 0.000000 
#    z 0.000000 0.000000 3.585830 
# 
# 
# High freq. dielectric constant tensor:
#      x y z
#    x 1.713820 0.000000 0.000000 
#    y 0.000000 1.602390 0.000000 
#    z 0.000000 0.000000 1.714150 
# 
# From -- ./inp_files/73063.got.cif
#   From: 2010.03.12/outbox.cif.g09.slc.cpg/sg65_37_cif.got.tgz:73063.got - 2010.04.10 20:52:16.
