data_PCOD8270513
_publ_section_title
;
Structure prediction by ZEFSAII (Michael W. Deem and Ramdas Pophale) SiO2 
 PCOD8270513
Probable space group: C M M M
;
_chemical_formula_sum "Si O2"
_cell_formula_units_Z 112
_cell_length_a 31.461845
_cell_length_b 13.242812
_cell_length_c 14.339581
_cell_angle_alpha 90.000000
_cell_angle_beta 90.000000
_cell_angle_gamma 90.000000
_cell_volume 5974.490327
_symmetry_space_group_name_H-M "C M M M"
_symmetry_group_IT_number 65
_symmetry_cell_setting 'orthorhombic'
loop_
_space_group_symop_operation_xyz
x,y,z
-x,-y,z
x,-y,-z
-x,y,-z
-x,-y,-z
x,y,-z
-x,y,z
x,-y,z
1/2+x,1/2+y,z
1/2-x,1/2-y,z
1/2+x,1/2-y,-z
1/2-x,1/2+y,-z
1/2-x,1/2-y,-z
1/2+x,1/2+y,-z
1/2-x,1/2+y,z
1/2+x,1/2-y,z
loop_
_atom_site_type_symbol
_atom_site_label
_atom_site_fract_x
_atom_site_fract_y
_atom_site_fract_z
Si Si1 0.628315 0.886359 0.106828
Si Si2 0.799278 0.772749 0.897958
Si Si3 0.451670 0.788406 0.397867
Si Si4 0.193006 0.182286 0.694520
Si Si5 0.608788 0.612267 0.606746
Si Si6 0.046950 0.384125 0.789116
Si Si7 0.220381 0.615306 0.390083
O O1 0.671859 0.825608 0.122255
O O2 0.587414 0.834452 0.158335
O O3 0.636570 0.000000 0.144501
O O4 0.615081 0.888553 0.000000
O O5 0.750000 0.750000 0.906537
O O6 0.803698 0.840766 0.805721
O O7 0.813094 0.820220 0.000000
O O8 0.435484 0.826281 0.500000
O O9 0.500000 0.754449 0.405411
O O10 0.427461 0.689305 0.362493
O O11 0.445095 0.876045 0.322114
O O12 0.149902 0.129790 0.667839
O O13 0.192758 0.302740 0.668565
O O14 0.230772 0.127414 0.639826
O O15 0.621872 0.628747 0.500000
O O16 0.591215 0.500000 0.624631
O O17 0.045611 0.500000 0.818131
O O18 0.000000 0.336288 0.814235
O O19 0.215852 0.638284 0.500000
O O20 0.205476 0.500000 0.368355
#
# Coordination Sequence:
#
# PCOD8270513 Si02
#       7
#    16  16  16  16  16  16  16
#     4   9  18  32  50  72  99 131 167 211 260 306
#     4  10  20  35  51  70  96 130 172 215 256 301
#     4   9  18  32  49  71 102 137 170 204 243 290
#     4  11  19  34  53  72  98 131 163 206 254 300
#     4  10  20  33  52  76  99 127 166 209 254 304
#     4   9  17  30  50  77 107 137 169 205 248 303
#     4  10  20  33  50  73 100 129 161 198 244 299
#
# _framework density 18.746369000000001
#
# number of rings (size 3 to 8) (size 9 to 14) (size 15 to 20)
#    0.000    2.286    1.429    3.000    0.000    2.571 
#    0.000    5.000    0.000    2.571    0.000    0.000 
#    0.000    0.000    0.000   12.286    0.000    0.429 
#
# Total GULP energy -693754.374026 kJ/mol
# GULP energy per Si atom -12388.470965 kJ/mol
# Density = 1.870370 g / cm^3
# Si number density = 18.746369 Si / 1000 Ang^3
#
#
#
# Elastic Constant Matrix: (Units=GPa)
#
#
# Indices 1 2 3 4 5 6 
#
# 1 88.4438 10.9016 23.0796 0.0000 0.0000 0.0000
# 2 10.9016 38.3769 9.3545 0.0000 0.0000 0.0000
# 3 23.0796 9.3545 86.3760 0.0000 0.0000 0.0000
# 4 0.0000 0.0000 0.0000 15.1069 0.0000 0.0000
# 5 0.0000 0.0000 0.0000 0.0000 23.7815 0.0000
# 6 0.0000 0.0000 0.0000 0.0000 0.0000 18.1206
#
#
#
# Elastic Compliance Matrix: (Units=1/GPa)
#
#
# Indices 1 2 3 4 5 6 
#
# 1 0.012440 -0.002797 -0.003021 0.000000 0.000000 0.000000
# 2 -0.002797 0.027393 -0.002219 0.000000 0.000000 0.000000
# 3 -0.003021 -0.002219 0.012625 0.000000 0.000000 0.000000
# 4 0.000000 0.000000 0.000000 0.066195 0.000000 0.000000
# 5 0.000000 0.000000 0.000000 0.000000 0.042049 0.000000
# 6 0.000000 0.000000 0.000000 0.000000 0.000000 0.055186
#
#
# Mechanical properties :
#
#
# Convention : Reuss Voigt Hill
#
# Bulk Modulus (GPa) = 27.48577 33.31870 30.40223
# Shear Modulus (GPa) = 20.48424 22.72587 21.60506
#
# Velocity S-wave (km/s) = 3.30919 3.48556 3.39852
# Velocity P-wave (km/s) = 5.41246 5.83188 5.62608
#
# Compressibility (1/GPa) = 0.03638247
#
# Stress axis : x y z
#
# Youngs Moduli (GPa) = 80.38758 36.50583 79.20907
#
# Poissons Ratio (x) = 0.10212 0.23929
# Poissons Ratio (y) = 0.22487 0.17578
# Poissons Ratio (z) = 0.24285 0.08101
#
# Static dielectric constant tensor:
#      x y z
#    x 3.536260 0.000000 0.000000 
#    y 0.000000 3.272710 0.000000 
#    z 0.000000 0.000000 3.887260 
# 
# 
# High freq. dielectric constant tensor:
#      x y z
#    x 1.728990 0.000000 0.000000 
#    y 0.000000 1.690950 0.000000 
#    z 0.000000 0.000000 1.736220 
# 
# From -- ./inp_files/47951.got.cif
#   From: 2010.03.12/outbox.cif.g09.slc.cpg/sg65_24_cif.got.tgz:47951.got - 2010.04.10 20:52:16.
