data_PCOD8270906
_publ_section_title
;
Structure prediction by ZEFSAII (Michael W. Deem and Ramdas Pophale) SiO2 
 PCOD8270906
Probable space group: C M M M
;
_chemical_formula_sum "Si O2"
_cell_formula_units_Z 88
_cell_length_a 17.166220
_cell_length_b 18.245508
_cell_length_c 19.581858
_cell_angle_alpha 90.000000
_cell_angle_beta 90.000000
_cell_angle_gamma 90.000000
_cell_volume 6133.163334
_symmetry_space_group_name_H-M "C M M M"
_symmetry_group_IT_number 65
_symmetry_cell_setting 'orthorhombic'
loop_
_space_group_symop_operation_xyz
x,y,z
-x,-y,z
x,-y,-z
-x,y,-z
-x,-y,-z
x,y,-z
-x,y,z
x,-y,z
1/2+x,1/2+y,z
1/2-x,1/2-y,z
1/2+x,1/2-y,-z
1/2-x,1/2+y,-z
1/2-x,1/2-y,-z
1/2+x,1/2+y,-z
1/2-x,1/2+y,z
1/2+x,1/2-y,z
loop_
_atom_site_type_symbol
_atom_site_label
_atom_site_fract_x
_atom_site_fract_y
_atom_site_fract_z
Si Si1 0.090388 0.795363 0.078513
Si Si2 0.586999 0.086843 0.427816
Si Si3 0.854363 0.343997 0.852255
Si Si4 0.209746 0.083681 0.078358
Si Si5 0.500000 0.916082 0.078507
Si Si6 0.093126 0.415137 0.279952
O O1 0.137973 0.741752 0.129257
O O2 0.126618 0.876238 0.087058
O O3 0.000000 0.798146 0.099779
O O4 0.099579 0.768430 0.000000
O O5 0.629375 0.111451 0.500000
O O6 0.500000 0.119188 0.430025
O O7 0.624960 0.110504 0.355340
O O8 0.582075 0.000000 0.425633
O O9 0.771895 0.374896 0.875352
O O10 0.922588 0.384222 0.891184
O O11 0.864091 0.360057 0.771894
O O12 0.199815 0.000000 0.102739
O O13 0.238212 0.086975 0.000000
O O14 0.500000 0.000000 0.096746
O O15 0.500000 0.897300 0.000000
O O16 0.115381 0.500000 0.264486
O O17 0.000000 0.406025 0.275016
#
# Coordination Sequence:
#
# PCOD8270906 Si02
#       6
#    16  16  16  16   8  16
#     4  10  20  34  49  62  78 105 140 177 216 253
#     4   7  10  17  29  45  68 102 142 174 194 220
#     4  12  19  28  42  61  87 110 135 167 207 252
#     4  10  21  34  47  62  80 105 139 179 216 249
#     4  11  20  26  36  54  80 114 142 164 194 237
#     4   9  15  22  33  52  80 112 141 168 199 236
#
# _framework density 14.348224
#
# number of rings (size 3 to 8) (size 9 to 14) (size 15 to 20)
#    0.000    2.273    1.818    5.455    0.000    3.273 
#    0.000    1.818    0.000    0.000    0.000    0.000 
#    0.000    2.909    0.000    0.727    0.000    1.091 
#
# Total GULP energy -545108.728796 kJ/mol
# GULP energy per Si atom -12388.834745 kJ/mol
# Density = 1.431557 g / cm^3
# Si number density = 14.348224 Si / 1000 Ang^3
#
#
#
# Elastic Constant Matrix: (Units=GPa)
#
#
# Indices 1 2 3 4 5 6 
#
# 1 41.7685 33.9972 28.9717 0.0000 0.0000 0.0000
# 2 33.9972 66.9511 27.1405 0.0000 0.0000 0.0000
# 3 28.9717 27.1405 116.4111 0.0000 0.0000 0.0000
# 4 0.0000 0.0000 0.0000 12.2725 0.0000 0.0000
# 5 0.0000 0.0000 0.0000 0.0000 12.6384 0.0000
# 6 0.0000 0.0000 0.0000 0.0000 0.0000 32.2159
#
#
#
# Elastic Compliance Matrix: (Units=1/GPa)
#
#
# Indices 1 2 3 4 5 6 
#
# 1 0.044811 -0.020137 -0.006458 0.000000 0.000000 0.000000
# 2 -0.020137 0.025544 -0.000944 0.000000 0.000000 0.000000
# 3 -0.006458 -0.000944 0.010417 0.000000 0.000000 0.000000
# 4 0.000000 0.000000 0.000000 0.081483 0.000000 0.000000
# 5 0.000000 0.000000 0.000000 0.000000 0.079124 0.000000
# 6 0.000000 0.000000 0.000000 0.000000 0.000000 0.031041
#
#
# Mechanical properties :
#
#
# Convention : Reuss Voigt Hill
#
# Bulk Modulus (GPa) = 38.91661 45.03884 41.97772
# Shear Modulus (GPa) = 14.87820 20.42677 17.65248
#
# Velocity S-wave (km/s) = 3.22364 3.77721 3.51136
# Velocity P-wave (km/s) = 6.40606 7.10501 6.76457
#
# Compressibility (1/GPa) = 0.02569597
#
# Stress axis : x y z
#
# Youngs Moduli (GPa) = 22.31597 39.14771 95.99299
#
# Poissons Ratio (x) = 0.78831 0.61988
# Poissons Ratio (y) = 0.44937 0.09061
# Poissons Ratio (z) = 0.14411 0.03695
#
# Static dielectric constant tensor:
#      x y z
#    x 2.521250 0.000000 0.000000 
#    y 0.000000 2.734890 0.000000 
#    z 0.000000 0.000000 3.246610 
# 
# 
# High freq. dielectric constant tensor:
#      x y z
#    x 1.517140 0.000000 0.000000 
#    y 0.000000 1.525240 0.000000 
#    z 0.000000 0.000000 1.542520 
# 
# From -- ./inp_files/63752.got.cif
#   From: 2010.03.12/outbox.cif.g09.slc.cpg/sg65_32_cif.got.tgz:63752.got - 2010.04.10 20:52:16.
