data_PCOD8270531
_publ_section_title
;
Structure prediction by ZEFSAII (Michael W. Deem and Ramdas Pophale) SiO2 
 PCOD8270531
Probable space group: C M M M
;
_chemical_formula_sum "Si O2"
_cell_formula_units_Z 120
_cell_length_a 8.954907
_cell_length_b 29.079151
_cell_length_c 25.824258
_cell_angle_alpha 90.000000
_cell_angle_beta 90.000000
_cell_angle_gamma 90.000000
_cell_volume 6724.665005
_symmetry_space_group_name_H-M "C M M M"
_symmetry_group_IT_number 65
_symmetry_cell_setting 'orthorhombic'
loop_
_space_group_symop_operation_xyz
x,y,z
-x,-y,z
x,-y,-z
-x,y,-z
-x,-y,-z
x,y,-z
-x,y,z
x,-y,z
1/2+x,1/2+y,z
1/2-x,1/2-y,z
1/2+x,1/2-y,-z
1/2-x,1/2+y,-z
1/2-x,1/2-y,-z
1/2+x,1/2+y,-z
1/2-x,1/2+y,z
1/2+x,1/2-y,z
loop_
_atom_site_type_symbol
_atom_site_label
_atom_site_fract_x
_atom_site_fract_y
_atom_site_fract_z
Si Si1 0.327381 0.630318 0.057723
Si Si2 0.324115 0.947464 0.603509
Si Si3 0.332370 0.445407 0.500000
Si Si4 0.176256 0.613000 0.700765
Si Si5 0.170802 0.552155 0.892385
Si Si6 0.175928 0.798495 0.260146
Si Si7 0.325707 0.702699 0.858138
Si Si8 0.671119 0.553203 0.785534
O O1 0.500000 0.618414 0.067884
O O2 0.229479 0.584133 0.061444
O O3 0.265995 0.665231 0.101198
O O4 0.305190 0.650920 0.000000
O O5 0.500000 0.946050 0.595789
O O6 0.250178 0.927593 0.551381
O O7 0.271734 0.914090 0.649507
O O8 0.272176 0.000000 0.615420
O O9 0.328874 0.500000 0.500000
O O10 0.500000 0.426014 0.500000
O O11 0.256873 0.662386 0.702632
O O12 0.222749 0.582334 0.749103
O O13 0.000000 0.620791 0.701842
O O14 0.187063 0.500000 0.911585
O O15 0.276031 0.561975 0.843551
O O16 0.000000 0.563353 0.877788
O O17 0.250000 0.750000 0.274877
O O18 0.214277 0.811969 0.200635
O O19 0.000000 0.794574 0.269264
O O20 0.500000 0.710096 0.864792
O O21 0.250000 0.750000 0.873459
O O22 0.500000 0.570090 0.780321
O O23 0.687280 0.500000 0.770152
#
# Coordination Sequence:
#
# PCOD8270531 Si02
#       8
#    16  16   8  16  16  16  16  16
#     4  10  21  36  53  74 100 128 159 197 243 297
#     4   9  18  32  49  71 104 145 182 215 255 302
#     4   9  17  29  47  71 100 137 182 227 261 293
#     4  11  21  32  50  77 107 138 173 213 257 304
#     4  10  21  36  53  72  95 126 165 207 248 293
#     4  10  20  35  54  75 101 133 170 212 257 306
#     4   9  19  35  54  75  98 125 158 196 241 296
#     4  10  20  33  50  73 102 135 168 203 248 304
#
# _framework density 17.844756
#
# number of rings (size 3 to 8) (size 9 to 14) (size 15 to 20)
#    0.000    2.200    0.000    3.000    0.000    6.933 
#    0.000    2.667    0.000    0.000    0.000    0.467 
#    0.000    0.000    0.000    0.000    0.000    0.000 
#
# Total GULP energy -744114.015226 kJ/mol
# GULP energy per Si atom -12401.900254 kJ/mol
# Density = 1.780414 g / cm^3
# Si number density = 17.844756 Si / 1000 Ang^3
#
#
#
# Elastic Constant Matrix: (Units=GPa)
#
#
# Indices 1 2 3 4 5 6 
#
# 1 62.1752 47.5535 34.0529 0.0000 0.0000 0.0000
# 2 47.5535 103.0608 64.8098 0.0000 0.0000 0.0000
# 3 34.0529 64.8098 85.5869 0.0000 0.0000 0.0000
# 4 0.0000 0.0000 0.0000 22.8799 0.0000 0.0000
# 5 0.0000 0.0000 0.0000 0.0000 22.3896 0.0000
# 6 0.0000 0.0000 0.0000 0.0000 0.0000 32.4914
#
#
#
# Elastic Compliance Matrix: (Units=1/GPa)
#
#
# Indices 1 2 3 4 5 6 
#
# 1 0.025094 -0.010118 -0.002322 0.000000 0.000000 0.000000
# 2 -0.010118 0.022604 -0.013091 0.000000 0.000000 0.000000
# 3 -0.002322 -0.013091 0.022521 0.000000 0.000000 0.000000
# 4 0.000000 0.000000 0.000000 0.043707 0.000000 0.000000
# 5 0.000000 0.000000 0.000000 0.000000 0.044664 0.000000
# 6 0.000000 0.000000 0.000000 0.000000 0.000000 0.030777
#
#
# Mechanical properties :
#
#
# Convention : Reuss Voigt Hill
#
# Bulk Modulus (GPa) = 52.20256 60.40615 56.30436
# Shear Modulus (GPa) = 20.25811 22.51263 21.38537
#
# Velocity S-wave (km/s) = 3.37299 3.55573 3.46556
# Velocity P-wave (km/s) = 6.66983 7.12615 6.90176
#
# Compressibility (1/GPa) = 0.01915615
#
# Stress axis : x y z
#
# Youngs Moduli (GPa) = 39.84951 44.24035 44.40345
#
# Poissons Ratio (x) = 0.44764 0.10312
# Poissons Ratio (y) = 0.40321 0.58127
# Poissons Ratio (z) = 0.09255 0.57913
#
# Static dielectric constant tensor:
#      x y z
#    x 3.323710 0.000000 0.000000 
#    y 0.000000 3.298030 0.000000 
#    z 0.000000 0.000000 3.256340 
# 
# 
# High freq. dielectric constant tensor:
#      x y z
#    x 1.698230 0.000000 0.000000 
#    y 0.000000 1.679400 0.000000 
#    z 0.000000 0.000000 1.675320 
# 
# From -- ./inp_files/73876.got.cif
#   From: 2010.03.12/outbox.cif.g09.slc.cpg/sg65_37_cif.got.tgz:73876.got - 2010.04.10 20:52:16.
