data_PCOD8270113
_publ_section_title
;
Structure prediction by ZEFSAII (Michael W. Deem and Ramdas Pophale) SiO2 
 PCOD8270113
Probable space group: C M M M
;
_chemical_formula_sum "Si O2"
_cell_formula_units_Z 120
_cell_length_a 8.758053
_cell_length_b 29.631391
_cell_length_c 25.887203
_cell_angle_alpha 90.000000
_cell_angle_beta 90.000000
_cell_angle_gamma 90.000000
_cell_volume 6718.073293
_symmetry_space_group_name_H-M "C M M M"
_symmetry_group_IT_number 65
_symmetry_cell_setting 'orthorhombic'
loop_
_space_group_symop_operation_xyz
x,y,z
-x,-y,z
x,-y,-z
-x,y,-z
-x,-y,-z
x,y,-z
-x,y,z
x,-y,z
1/2+x,1/2+y,z
1/2-x,1/2-y,z
1/2+x,1/2-y,-z
1/2-x,1/2+y,-z
1/2-x,1/2-y,-z
1/2+x,1/2+y,-z
1/2-x,1/2+y,z
1/2+x,1/2-y,z
loop_
_atom_site_type_symbol
_atom_site_label
_atom_site_fract_x
_atom_site_fract_y
_atom_site_fract_z
Si Si1 0.818263 0.386045 0.699064
Si Si2 0.178902 0.358233 0.942717
Si Si3 0.178748 0.203280 0.857471
Si Si4 0.664974 0.447071 0.500000
Si Si5 0.819442 0.451103 0.902679
Si Si6 0.181024 0.449983 0.787953
Si Si7 0.319006 0.297976 0.740084
Si Si8 0.682704 0.448237 0.612031
O O1 0.752417 0.413413 0.748369
O O2 0.748290 0.335960 0.702065
O O3 0.762666 0.412290 0.648755
O O4 0.000000 0.382671 0.698501
O O5 0.271382 0.334115 0.898072
O O6 0.226764 0.411105 0.941351
O O7 0.000000 0.352065 0.931471
O O8 0.220665 0.339990 0.000000
O O9 0.250000 0.250000 0.876146
O O10 0.231980 0.191083 0.799269
O O11 0.000000 0.208982 0.859521
O O12 0.636479 0.500000 0.500000
O O13 0.500000 0.422702 0.500000
O O14 0.747117 0.435124 0.554415
O O15 0.755146 0.500000 0.921703
O O16 0.755744 0.439776 0.845345
O O17 0.000000 0.454872 0.898783
O O18 0.234235 0.500000 0.770584
O O19 0.000000 0.447090 0.787092
O O20 0.500000 0.296125 0.734405
O O21 0.250000 0.250000 0.722968
O O22 0.500000 0.443336 0.614268
O O23 0.729034 0.500000 0.626266
#
# Coordination Sequence:
#
# PCOD8270113 Si02
#       8
#    16  16  16   8  16  16  16  16
#     4  11  20  29  46  73 105 137 165 200 248 298
#     4  10  20  32  48  72  99 125 156 196 240 286
#     4  10  21  37  57  76  95 121 153 192 240 295
#     4   7  12  26  47  67  92 135 186 225 255 289
#     4   8  14  26  44  65  90 122 159 195 229 269
#     4   8  14  24  39  62  93 127 159 190 228 278
#     4  10  21  37  55  75  97 123 159 200 245 298
#     4   9  17  30  48  71 102 141 183 222 256 291
#
# _framework density 17.862264
#
# number of rings (size 3 to 8) (size 9 to 14) (size 15 to 20)
#    0.000    2.733    0.000    4.000    0.000    4.267 
#    0.000    1.667    0.000    1.600    0.000    5.133 
#    0.000    0.000    0.000    0.000    0.000    0.000 
#
# Total GULP energy -743488.961633 kJ/mol
# GULP energy per Si atom -12391.482694 kJ/mol
# Density = 1.782161 g / cm^3
# Si number density = 17.862264 Si / 1000 Ang^3
#
#
#
# Elastic Constant Matrix: (Units=GPa)
#
#
# Indices 1 2 3 4 5 6 
#
# 1 45.6517 32.3075 26.6591 0.0000 0.0000 0.0000
# 2 32.3075 111.2857 52.7049 0.0000 0.0000 0.0000
# 3 26.6591 52.7049 83.7644 0.0000 0.0000 0.0000
# 4 0.0000 0.0000 0.0000 -84.7677 0.0000 0.0000
# 5 0.0000 0.0000 0.0000 0.0000 12.8281 0.0000
# 6 0.0000 0.0000 0.0000 0.0000 0.0000 18.8510
#
#
#
# Elastic Compliance Matrix: (Units=1/GPa)
#
#
# Indices 1 2 3 4 5 6 
#
# 1 0.029344 -0.005835 -0.005668 0.000000 0.000000 0.000000
# 2 -0.005835 0.013960 -0.006927 0.000000 0.000000 0.000000
# 3 -0.005668 -0.006927 0.018101 0.000000 0.000000 0.000000
# 4 0.000000 0.000000 0.000000 -0.011797 0.000000 0.000000
# 5 0.000000 0.000000 0.000000 0.000000 0.077954 0.000000
# 6 0.000000 0.000000 0.000000 0.000000 0.000000 0.053048
#
#
# Mechanical properties :
#
#
# Convention : Reuss Voigt Hill
#
# Bulk Modulus (GPa) = 40.73991 51.56052 46.15022
# Shear Modulus (GPa) = 22.15815 -2.01571 10.07122
#
# Velocity S-wave (km/s) = 3.52589 -1.06345 2.37708
# Velocity P-wave (km/s) = 6.27959 5.23645 5.78159
#
# Compressibility (1/GPa) = 0.02454595
#
# Stress axis : x y z
#
# Youngs Moduli (GPa) = 34.07856 71.63154 55.24670
#
# Poissons Ratio (x) = 0.41794 0.31314
# Poissons Ratio (y) = 0.19883 0.38269
# Poissons Ratio (z) = 0.19316 0.49619
#
# Static dielectric constant tensor:
#      x y z
#    x 2.969590 0.000000 0.000000 
#    y 0.000000 3.396770 0.000000 
#    z 0.000000 0.000000 3.489150 
# 
# 
# High freq. dielectric constant tensor:
#      x y z
#    x 1.660130 0.000000 0.000000 
#    y 0.000000 1.685430 0.000000 
#    z 0.000000 0.000000 1.681180 
# 
# From -- ./inp_files/73915.got.cif
#   From: 2010.03.12/outbox.cif.g09.slc.cpg/sg65_37_cif.got.tgz:73915.got - 2010.04.10 20:52:16.
