data_PCOD8270074
_publ_section_title
;
Structure prediction by ZEFSAII (Michael W. Deem and Ramdas Pophale) SiO2 
 PCOD8270074
Probable space group: C M M M
;
_chemical_formula_sum "Si O2"
_cell_formula_units_Z 72
_cell_length_a 9.032659
_cell_length_b 16.244277
_cell_length_c 24.516604
_cell_angle_alpha 90.000000
_cell_angle_beta 90.000000
_cell_angle_gamma 90.000000
_cell_volume 3597.297152
_symmetry_space_group_name_H-M "C M M M"
_symmetry_group_IT_number 65
_symmetry_cell_setting 'orthorhombic'
loop_
_space_group_symop_operation_xyz
x,y,z
-x,-y,z
x,-y,-z
-x,y,-z
-x,-y,-z
x,y,-z
-x,y,z
x,-y,z
1/2+x,1/2+y,z
1/2-x,1/2-y,z
1/2+x,1/2-y,-z
1/2-x,1/2+y,-z
1/2-x,1/2-y,-z
1/2+x,1/2+y,-z
1/2-x,1/2+y,z
1/2+x,1/2-y,z
loop_
_atom_site_type_symbol
_atom_site_label
_atom_site_fract_x
_atom_site_fract_y
_atom_site_fract_z
Si Si1 0.175661 0.000000 0.438212
Si Si2 0.171430 0.331149 0.831515
Si Si3 0.675452 0.334218 0.377500
Si Si4 0.175754 0.592206 0.059171
Si Si5 0.169953 0.593164 0.280225
O O1 0.233124 0.915230 0.410263
O O2 0.234460 0.000000 0.500000
O O3 0.000000 0.000000 0.435536
O O4 0.250000 0.250000 0.810544
O O5 0.243076 0.358456 0.889534
O O6 0.198834 0.398447 0.784505
O O7 0.000000 0.312548 0.839734
O O8 0.500000 0.324220 0.381635
O O9 0.750000 0.250000 0.400507
O O10 0.724557 0.346580 0.314689
O O11 0.238957 0.500000 0.062015
O O12 0.000000 0.589237 0.064838
O O13 0.220625 0.631268 0.000000
O O14 0.207468 0.500000 0.296599
O O15 0.000000 0.615499 0.293908
#
# Coordination Sequence:
#
# PCOD8270074 Si02
#       5
#     8  16  16  16  16
#     4   9  20  40  63  87 119 157 194 233 280 332
#     4  10  20  32  47  72 103 135 171 215 268 325
#     4  11  22  38  61  89 119 154 193 235 282 335
#     4   8  14  27  48  70  91 121 167 218 263 313
#     4  10  20  35  56  80 109 144 184 232 282 333
#
# _framework density 20.015028000000001
#
# number of rings (size 3 to 8) (size 9 to 14) (size 15 to 20)
#    0.000    2.333    1.111    2.667    0.000    6.222 
#    0.000    0.000    0.000    6.667    0.000    1.556 
#    0.000    0.000    0.000    0.000    0.000    0.000 
#
# Total GULP energy -446201.207194 kJ/mol
# GULP energy per Si atom -12394.477978 kJ/mol
# Density = 1.996947 g / cm^3
# Si number density = 20.015028 Si / 1000 Ang^3
#
#
#
# Elastic Constant Matrix: (Units=GPa)
#
#
# Indices 1 2 3 4 5 6 
#
# 1 41.9870 36.1360 29.2754 0.0000 0.0000 0.0000
# 2 36.1360 126.7173 50.9600 0.0000 0.0000 0.0000
# 3 29.2754 50.9600 119.9580 0.0000 0.0000 0.0000
# 4 0.0000 0.0000 0.0000 25.6076 0.0000 0.0000
# 5 0.0000 0.0000 0.0000 0.0000 19.6543 0.0000
# 6 0.0000 0.0000 0.0000 0.0000 0.0000 27.3377
#
#
#
# Elastic Compliance Matrix: (Units=1/GPa)
#
#
# Indices 1 2 3 4 5 6 
#
# 1 0.033902 -0.007647 -0.005025 0.000000 0.000000 0.000000
# 2 -0.007647 0.011242 -0.002910 0.000000 0.000000 0.000000
# 3 -0.005025 -0.002910 0.010799 0.000000 0.000000 0.000000
# 4 0.000000 0.000000 0.000000 0.039051 0.000000 0.000000
# 5 0.000000 0.000000 0.000000 0.000000 0.050880 0.000000
# 6 0.000000 0.000000 0.000000 0.000000 0.000000 0.036580
#
#
# Mechanical properties :
#
#
# Convention : Reuss Voigt Hill
#
# Bulk Modulus (GPa) = 40.35598 57.93390 49.14494
# Shear Modulus (GPa) = 22.53504 26.00597 24.27051
#
# Velocity S-wave (km/s) = 3.35909 3.60852 3.48604
# Velocity P-wave (km/s) = 5.93728 6.80955 6.38832
#
# Compressibility (1/GPa) = 0.02477948
#
# Stress axis : x y z
#
# Youngs Moduli (GPa) = 29.49678 88.94870 92.60354
#
# Poissons Ratio (x) = 0.68019 0.46535
# Poissons Ratio (y) = 0.22556 0.26945
# Poissons Ratio (z) = 0.14823 0.25882
#
# Static dielectric constant tensor:
#      x y z
#    x 3.163480 0.000000 0.000000 
#    y 0.000000 3.727930 0.000000 
#    z 0.000000 0.000000 3.809660 
# 
# 
# High freq. dielectric constant tensor:
#      x y z
#    x 1.735340 0.000000 0.000000 
#    y 0.000000 1.783240 0.000000 
#    z 0.000000 0.000000 1.789520 
# 
# From -- ./inp_files/72505.got.cif
#   From: 2010.03.12/outbox.cif.g09.slc.cpg/sg65_37_cif.got.tgz:72505.got - 2010.04.10 20:52:16.
