data_PCOD8270780
_publ_section_title
;
Structure prediction by ZEFSAII (Michael W. Deem and Ramdas Pophale) SiO2 
 PCOD8270780
Probable space group: C M M M
;
_chemical_formula_sum "Si O2"
_cell_formula_units_Z 72
_cell_length_a 9.068102
_cell_length_b 18.428877
_cell_length_c 22.923504
_cell_angle_alpha 90.000000
_cell_angle_beta 90.000000
_cell_angle_gamma 90.000000
_cell_volume 3830.859913
_symmetry_space_group_name_H-M "C M M M"
_symmetry_group_IT_number 65
_symmetry_cell_setting 'orthorhombic'
loop_
_space_group_symop_operation_xyz
x,y,z
-x,-y,z
x,-y,-z
-x,y,-z
-x,-y,-z
x,y,-z
-x,y,z
x,-y,z
1/2+x,1/2+y,z
1/2-x,1/2-y,z
1/2+x,1/2-y,-z
1/2-x,1/2+y,-z
1/2-x,1/2-y,-z
1/2+x,1/2+y,-z
1/2-x,1/2+y,z
1/2+x,1/2-y,z
loop_
_atom_site_type_symbol
_atom_site_label
_atom_site_fract_x
_atom_site_fract_y
_atom_site_fract_z
Si Si1 0.324749 0.418279 0.500000
Si Si2 0.671665 0.583807 0.724243
Si Si3 0.666451 0.914201 0.160156
Si Si4 0.325702 0.327428 0.389267
Si Si5 0.672252 0.324071 0.932791
O O1 0.259461 0.500000 0.500000
O O2 0.500000 0.422542 0.500000
O O3 0.268013 0.375724 0.443097
O O4 0.500000 0.593728 0.738287
O O5 0.708220 0.500000 0.710402
O O6 0.762074 0.613432 0.779611
O O7 0.721670 0.631322 0.669377
O O8 0.500000 0.884192 0.156126
O O9 0.760951 0.888277 0.105309
O O10 0.669928 0.000000 0.158417
O O11 0.500000 0.316416 0.392600
O O12 0.250000 0.250000 0.391633
O O13 0.500000 0.316446 0.920498
O O14 0.750000 0.250000 0.913711
O O15 0.705323 0.342582 0.000000
#
# Coordination Sequence:
#
# PCOD8270780 Si02
#       5
#     8  16  16  16  16
#     4   9  17  32  55  79 102 133 176 218 254 301
#     4   9  18  34  54  74  99 135 179 220 258 306
#     4  10  21  36  55  80 109 141 177 219 266 314
#     4  10  20  33  52  78 106 136 170 213 263 311
#     4  10  21  37  57  80 107 140 177 218 265 317
#
# _framework density 18.794736
#
# number of rings (size 3 to 8) (size 9 to 14) (size 15 to 20)
#    0.000    2.333    0.000    2.333    0.000    7.556 
#    0.000    4.444    0.000    2.667    0.000    0.000 
#    0.000    0.000    0.000    0.000    0.000    0.000 
#
# Total GULP energy -446511.411246 kJ/mol
# GULP energy per Si atom -12403.094757 kJ/mol
# Density = 1.875196 g / cm^3
# Si number density = 18.794736 Si / 1000 Ang^3
#
#
#
# Elastic Constant Matrix: (Units=GPa)
#
#
# Indices 1 2 3 4 5 6 
#
# 1 76.8832 39.6381 60.3193 0.0000 0.0000 0.0000
# 2 39.6381 94.8365 66.5467 0.0000 0.0000 0.0000
# 3 60.3193 66.5467 142.7978 0.0000 0.0000 0.0000
# 4 0.0000 0.0000 0.0000 28.1289 0.0000 0.0000
# 5 0.0000 0.0000 0.0000 0.0000 23.5064 0.0000
# 6 0.0000 0.0000 0.0000 0.0000 0.0000 33.8977
#
#
#
# Elastic Compliance Matrix: (Units=1/GPa)
#
#
# Indices 1 2 3 4 5 6 
#
# 1 0.020275 -0.003662 -0.006858 0.000000 0.000000 0.000000
# 2 -0.003662 0.016329 -0.006063 0.000000 0.000000 0.000000
# 3 -0.006858 -0.006063 0.012725 0.000000 0.000000 0.000000
# 4 0.000000 0.000000 0.000000 0.035551 0.000000 0.000000
# 5 0.000000 0.000000 0.000000 0.000000 0.042542 0.000000
# 6 0.000000 0.000000 0.000000 0.000000 0.000000 0.029501
#
#
# Mechanical properties :
#
#
# Convention : Reuss Voigt Hill
#
# Bulk Modulus (GPa) = 61.86579 71.94730 66.90655
# Shear Modulus (GPa) = 25.57855 26.97416 26.27636
#
# Velocity S-wave (km/s) = 3.69310 3.79251 3.74313
# Velocity P-wave (km/s) = 7.15355 7.58559 7.37274
#
# Compressibility (1/GPa) = 0.01616402
#
# Stress axis : x y z
#
# Youngs Moduli (GPa) = 49.32150 61.23899 78.58431
#
# Poissons Ratio (x) = 0.22426 0.53892
# Poissons Ratio (y) = 0.18062 0.47645
# Poissons Ratio (z) = 0.33824 0.37129
#
# Static dielectric constant tensor:
#      x y z
#    x 3.423410 0.000000 0.000000 
#    y 0.000000 3.374000 0.000000 
#    z 0.000000 0.000000 3.592870 
# 
# 
# High freq. dielectric constant tensor:
#      x y z
#    x 1.720190 0.000000 0.000000 
#    y 0.000000 1.727840 0.000000 
#    z 0.000000 0.000000 1.742940 
# 
# From -- ./inp_files/59255.got.cif
#   From: 2010.03.12/outbox.cif.g09.slc.cpg/sg65_30_cif.got.tgz:59255.got - 2010.04.10 20:52:16.
