data_PCOD8270811
_publ_section_title
;
Structure prediction by ZEFSAII (Michael W. Deem and Ramdas Pophale) SiO2 
 PCOD8270811
Probable space group: C M M M
;
_chemical_formula_sum "Si O2"
_cell_formula_units_Z 104
_cell_length_a 8.713436
_cell_length_b 29.713926
_cell_length_c 22.675122
_cell_angle_alpha 90.000000
_cell_angle_beta 90.000000
_cell_angle_gamma 90.000000
_cell_volume 5870.824737
_symmetry_space_group_name_H-M "C M M M"
_symmetry_group_IT_number 65
_symmetry_cell_setting 'orthorhombic'
loop_
_space_group_symop_operation_xyz
x,y,z
-x,-y,z
x,-y,-z
-x,y,-z
-x,-y,-z
x,y,-z
-x,y,z
x,-y,z
1/2+x,1/2+y,z
1/2-x,1/2-y,z
1/2+x,1/2-y,-z
1/2-x,1/2+y,-z
1/2-x,1/2-y,-z
1/2+x,1/2+y,-z
1/2-x,1/2+y,z
1/2+x,1/2-y,z
loop_
_atom_site_type_symbol
_atom_site_label
_atom_site_fract_x
_atom_site_fract_y
_atom_site_fract_z
Si Si1 0.319275 0.947892 0.621453
Si Si2 0.826677 0.203735 0.238116
Si Si3 0.182608 0.500000 0.932522
Si Si4 0.176137 0.164022 0.883300
Si Si5 0.683259 0.798454 0.000000
Si Si6 0.821568 0.424560 0.156655
Si Si7 0.671871 0.446822 0.500000
Si Si8 0.181738 0.104805 0.728443
O O1 0.500000 0.941504 0.626810
O O2 0.264545 0.930912 0.557478
O O3 0.235510 0.915249 0.666926
O O4 0.272626 0.000000 0.632419
O O5 0.750000 0.250000 0.261204
O O6 0.815757 0.202547 0.166734
O O7 0.756064 0.156621 0.263957
O O8 0.000000 0.206967 0.260020
O O9 0.242369 0.457509 0.894492
O O10 0.000000 0.500000 0.937453
O O11 0.249941 0.500000 0.000000
O O12 0.246912 0.178741 0.943702
O O13 0.289600 0.125020 0.864725
O O14 0.000000 0.147636 0.890614
O O15 0.750000 0.750000 0.000000
O O16 0.500000 0.799690 0.000000
O O17 0.740957 0.429246 0.220450
O O18 0.000000 0.433917 0.166575
O O19 0.661479 0.500000 0.500000
O O20 0.500000 0.426100 0.500000
O O21 0.000000 0.105889 0.733071
#
# Coordination Sequence:
#
# PCOD8270811 Si02
#       8
#    16  16   8  16   8  16   8  16
#     4  10  20  33  52  79 112 147 186 226 262 305
#     4   9  19  34  53  74 100 131 166 210 260 312
#     4   9  20  36  53  73  99 130 170 219 266 318
#     4  10  21  37  53  73 101 128 160 207 258 316
#     4  12  24  36  52  75  98 125 158 198 253 318
#     4  10  20  35  55  76 100 133 173 217 265 317
#     4   9  17  31  51  77 110 149 186 217 261 313
#     4  10  21  36  52  77 110 142 177 220 270 318
#
# _framework density 17.714718000000001
#
# number of rings (size 3 to 8) (size 9 to 14) (size 15 to 20)
#    0.000    2.154    0.000    4.154    2.154    6.769 
#    0.000    1.154    0.000    1.846    0.000    0.538 
#    0.000    0.000    0.000    0.000    0.000    0.000 
#
# Total GULP energy -644410.961211 kJ/mol
# GULP energy per Si atom -12392.518485 kJ/mol
# Density = 1.767440 g / cm^3
# Si number density = 17.714718 Si / 1000 Ang^3
#
#
#
# Elastic Constant Matrix: (Units=GPa)
#
#
# Indices 1 2 3 4 5 6 
#
# 1 61.4892 30.1514 32.5686 0.0000 0.0000 0.0000
# 2 30.1514 74.2345 45.9963 0.0000 0.0000 0.0000
# 3 32.5686 45.9963 126.3385 0.0000 0.0000 0.0000
# 4 0.0000 0.0000 0.0000 14.3592 0.0000 0.0000
# 5 0.0000 0.0000 0.0000 0.0000 31.5474 0.0000
# 6 0.0000 0.0000 0.0000 0.0000 0.0000 23.1476
#
#
#
# Elastic Compliance Matrix: (Units=1/GPa)
#
#
# Indices 1 2 3 4 5 6 
#
# 1 0.021154 -0.006732 -0.003002 0.000000 0.000000 0.000000
# 2 -0.006732 0.019537 -0.005377 0.000000 0.000000 0.000000
# 3 -0.003002 -0.005377 0.010647 0.000000 0.000000 0.000000
# 4 0.000000 0.000000 0.000000 0.069642 0.000000 0.000000
# 5 0.000000 0.000000 0.000000 0.000000 0.031698 0.000000
# 6 0.000000 0.000000 0.000000 0.000000 0.000000 0.043201
#
#
# Mechanical properties :
#
#
# Convention : Reuss Voigt Hill
#
# Bulk Modulus (GPa) = 47.36006 53.27717 50.31862
# Shear Modulus (GPa) = 21.44626 24.03392 22.74009
#
# Velocity S-wave (km/s) = 3.48321 3.68736 3.58674
# Velocity P-wave (km/s) = 6.55514 6.94761 6.75423
#
# Compressibility (1/GPa) = 0.02111484
#
# Stress axis : x y z
#
# Youngs Moduli (GPa) = 47.27182 51.18504 93.92278
#
# Poissons Ratio (x) = 0.34456 0.28200
# Poissons Ratio (y) = 0.31822 0.50507
# Poissons Ratio (z) = 0.14193 0.27525
#
# Static dielectric constant tensor:
#      x y z
#    x 3.319620 0.000000 0.000000 
#    y 0.000000 3.266150 0.000000 
#    z 0.000000 0.000000 3.337090 
# 
# 
# High freq. dielectric constant tensor:
#      x y z
#    x 1.688470 0.000000 0.000000 
#    y 0.000000 1.670460 0.000000 
#    z 0.000000 0.000000 1.679790 
# 
# From -- ./inp_files/68587.got.cif
#   From: 2010.03.12/outbox.cif.g09.slc.cpg/sg65_35_cif.got.tgz:68587.got - 2010.04.10 20:52:16.
