data_PCOD8270008
_publ_section_title
;
Structure prediction by ZEFSAII (Michael W. Deem and Ramdas Pophale) SiO2 
 PCOD8270008
Probable space group: C M M M
;
_chemical_formula_sum "Si O2"
_cell_formula_units_Z 104
_cell_length_a 9.087652
_cell_length_b 26.934230
_cell_length_c 23.940170
_cell_angle_alpha 90.000000
_cell_angle_beta 90.000000
_cell_angle_gamma 90.000000
_cell_volume 5859.809295
_symmetry_space_group_name_H-M "C M M M"
_symmetry_group_IT_number 65
_symmetry_cell_setting 'orthorhombic'
loop_
_space_group_symop_operation_xyz
x,y,z
-x,-y,z
x,-y,-z
-x,y,-z
-x,-y,-z
x,y,-z
-x,y,z
x,-y,z
1/2+x,1/2+y,z
1/2-x,1/2-y,z
1/2+x,1/2-y,-z
1/2-x,1/2+y,-z
1/2-x,1/2-y,-z
1/2+x,1/2+y,-z
1/2-x,1/2+y,z
1/2+x,1/2-y,z
loop_
_atom_site_type_symbol
_atom_site_label
_atom_site_fract_x
_atom_site_fract_y
_atom_site_fract_z
Si Si1 0.668052 0.056868 0.263150
Si Si2 0.175402 0.608080 0.563349
Si Si3 0.826265 0.862882 0.333022
Si Si4 0.830091 0.557181 0.935876
Si Si5 0.670319 0.699689 0.771444
Si Si6 0.841304 0.500000 0.565358
Si Si7 0.826721 0.101865 0.836316
O O1 0.500000 0.075975 0.260510
O O2 0.758896 0.086657 0.309035
O O3 0.741944 0.062656 0.202511
O O4 0.674772 0.000000 0.281756
O O5 0.218136 0.622976 0.500000
O O6 0.253968 0.646440 0.605926
O O7 0.238433 0.552499 0.578870
O O8 0.000000 0.609594 0.570988
O O9 0.785496 0.817951 0.291134
O O10 0.000000 0.868974 0.338458
O O11 0.786330 0.500000 0.925288
O O12 0.728053 0.593452 0.899332
O O13 0.000000 0.565621 0.920048
O O14 0.801659 0.571475 0.000000
O O15 0.500000 0.711350 0.774198
O O16 0.750000 0.750000 0.787990
O O17 0.713390 0.657472 0.816276
O O18 0.872539 0.500000 0.500000
O O19 0.000000 0.500000 0.596421
O O20 0.000000 0.092282 0.831381
#
# Coordination Sequence:
#
# PCOD8270008 Si02
#       7
#    16  16  16  16  16   8  16
#     4  10  20  32  47  68  96 133 172 204 238 288
#     4   9  17  30  48  69  95 130 169 203 236 284
#     4  10  21  34  48  72 102 126 155 201 256 303
#     4   9  18  32  50  75 109 148 186 215 236 272
#     4   9  20  37  55  75  97 123 158 205 259 310
#     4   7  12  24  41  61  87 121 161 199 224 253
#     4  10  20  33  50  76 106 131 163 209 259 303
#
# _framework density 17.748017999999998
#
# number of rings (size 3 to 8) (size 9 to 14) (size 15 to 20)
#    0.000    2.692    0.000    4.154    1.077    7.692 
#    0.000    0.769    0.000    2.308    0.000    0.000 
#    0.000    0.000    0.000    0.000    0.000    0.000 
#
# Total GULP energy -644535.003436 kJ/mol
# GULP energy per Si atom -12394.903912 kJ/mol
# Density = 1.770762 g / cm^3
# Si number density = 17.748018 Si / 1000 Ang^3
#
#
#
# Elastic Constant Matrix: (Units=GPa)
#
#
# Indices 1 2 3 4 5 6 
#
# 1 68.3827 34.3063 42.6438 0.0000 0.0000 0.0000
# 2 34.3063 71.4708 35.8023 0.0000 0.0000 0.0000
# 3 42.6438 35.8023 105.9292 0.0000 0.0000 0.0000
# 4 0.0000 0.0000 0.0000 16.0905 0.0000 0.0000
# 5 0.0000 0.0000 0.0000 0.0000 33.4279 0.0000
# 6 0.0000 0.0000 0.0000 0.0000 0.0000 25.5710
#
#
#
# Elastic Compliance Matrix: (Units=1/GPa)
#
#
# Indices 1 2 3 4 5 6 
#
# 1 0.022447 -0.007521 -0.006494 0.000000 0.000000 0.000000
# 2 -0.007521 0.019364 -0.003517 0.000000 0.000000 0.000000
# 3 -0.006494 -0.003517 0.013243 0.000000 0.000000 0.000000
# 4 0.000000 0.000000 0.000000 0.062148 0.000000 0.000000
# 5 0.000000 0.000000 0.000000 0.000000 0.029915 0.000000
# 6 0.000000 0.000000 0.000000 0.000000 0.000000 0.039107
#
#
# Mechanical properties :
#
#
# Convention : Reuss Voigt Hill
#
# Bulk Modulus (GPa) = 50.02756 52.36529 51.19643
# Shear Modulus (GPa) = 21.93446 23.88656 22.91051
#
# Velocity S-wave (km/s) = 3.51933 3.67259 3.59678
# Velocity P-wave (km/s) = 6.69052 6.89586 6.79396
#
# Compressibility (1/GPa) = 0.01998898
#
# Stress axis : x y z
#
# Youngs Moduli (GPa) = 44.54978 51.64308 75.51002
#
# Poissons Ratio (x) = 0.38843 0.49039
# Poissons Ratio (y) = 0.33507 0.26555
# Poissons Ratio (z) = 0.28932 0.18162
#
# Static dielectric constant tensor:
#      x y z
#    x 3.199210 0.000000 0.000000 
#    y 0.000000 3.071570 0.000000 
#    z 0.000000 0.000000 3.382360 
# 
# 
# High freq. dielectric constant tensor:
#      x y z
#    x 1.681370 0.000000 0.000000 
#    y 0.000000 1.653120 0.000000 
#    z 0.000000 0.000000 1.689560 
# 
# From -- ./inp_files/68248.got.cif
#   From: 2010.03.12/outbox.cif.g09.slc.cpg/sg65_35_cif.got.tgz:68248.got - 2010.04.10 20:52:16.
