data_PCOD8270953
_publ_section_title
;
Structure prediction by ZEFSAII (Michael W. Deem and Ramdas Pophale) SiO2 
 PCOD8270953
Probable space group: C M M M
;
_chemical_formula_sum "Si O2"
_cell_formula_units_Z 88
_cell_length_a 8.872780
_cell_length_b 25.685975
_cell_length_c 22.093088
_cell_angle_alpha 90.000000
_cell_angle_beta 90.000000
_cell_angle_gamma 90.000000
_cell_volume 5035.147430
_symmetry_space_group_name_H-M "C M M M"
_symmetry_group_IT_number 65
_symmetry_cell_setting 'orthorhombic'
loop_
_space_group_symop_operation_xyz
x,y,z
-x,-y,z
x,-y,-z
-x,y,-z
-x,-y,-z
x,y,-z
-x,y,z
x,-y,z
1/2+x,1/2+y,z
1/2-x,1/2-y,z
1/2+x,1/2-y,-z
1/2-x,1/2+y,-z
1/2-x,1/2-y,-z
1/2+x,1/2+y,-z
1/2-x,1/2+y,z
1/2+x,1/2-y,z
loop_
_atom_site_type_symbol
_atom_site_label
_atom_site_fract_x
_atom_site_fract_y
_atom_site_fract_z
Si Si1 0.826101 0.805453 0.067202
Si Si2 0.176340 0.500000 0.569546
Si Si3 0.825214 0.653743 0.817487
Si Si4 0.167087 0.057562 0.778787
Si Si5 0.679526 0.303686 0.300634
Si Si6 0.669439 0.587677 0.644776
O O1 0.750000 0.750000 0.067875
O O2 0.739334 0.840019 0.115515
O O3 0.000000 0.799879 0.085800
O O4 0.810178 0.830427 0.000000
O O5 0.225216 0.500000 0.500000
O O6 0.234474 0.445529 0.597385
O O7 0.000000 0.500000 0.578865
O O8 0.799869 0.593041 0.804243
O O9 0.738406 0.688551 0.767942
O O10 0.000000 0.668240 0.814769
O O11 0.174869 0.055659 0.706603
O O12 0.000000 0.078442 0.797815
O O13 0.193031 0.000000 0.804628
O O14 0.500000 0.299571 0.298642
O O15 0.750000 0.250000 0.326827
O O16 0.729493 0.352870 0.342851
O O17 0.500000 0.591018 0.619316
#
# Coordination Sequence:
#
# PCOD8270953 Si02
#       6
#    16   8  16  16  16  16
#     4  10  20  34  51  69  92 125 164 206 252 299
#     4  11  23  35  51  79 111 139 170 213 256 293
#     4  11  21  31  47  73 103 133 166 204 250 303
#     4   9  17  32  52  73 100 130 163 205 252 300
#     4  10  20  34  52  76 106 137 171 210 256 308
#     4   9  18  34  54  76 102 136 173 209 252 302
#
# _framework density 17.477143999999999
#
# number of rings (size 3 to 8) (size 9 to 14) (size 15 to 20)
#    0.000    2.091    0.909    4.636    0.000    5.818 
#    0.000    0.000    0.000    1.091    0.000    3.818 
#    0.000    0.000    0.000    0.000    0.000    0.000 
#
# Total GULP energy -545360.943810 kJ/mol
# GULP energy per Si atom -12394.566905 kJ/mol
# Density = 1.743737 g / cm^3
# Si number density = 17.477144 Si / 1000 Ang^3
#
#
#
# Elastic Constant Matrix: (Units=GPa)
#
#
# Indices 1 2 3 4 5 6 
#
# 1 99.3639 43.9581 46.7812 0.0000 0.0000 0.0000
# 2 43.9581 115.9137 46.9784 0.0000 0.0000 0.0000
# 3 46.7812 46.9784 84.9826 0.0000 0.0000 0.0000
# 4 0.0000 0.0000 0.0000 18.5043 0.0000 0.0000
# 5 0.0000 0.0000 0.0000 0.0000 25.5604 0.0000
# 6 0.0000 0.0000 0.0000 0.0000 0.0000 31.6849
#
#
#
# Elastic Compliance Matrix: (Units=1/GPa)
#
#
# Indices 1 2 3 4 5 6 
#
# 1 0.014292 -0.002876 -0.006278 0.000000 0.000000 0.000000
# 2 -0.002876 0.011697 -0.004883 0.000000 0.000000 0.000000
# 3 -0.006278 -0.004883 0.017922 0.000000 0.000000 0.000000
# 4 0.000000 0.000000 0.000000 0.054041 0.000000 0.000000
# 5 0.000000 0.000000 0.000000 0.000000 0.039123 0.000000
# 6 0.000000 0.000000 0.000000 0.000000 0.000000 0.031561
#
#
# Mechanical properties :
#
#
# Convention : Reuss Voigt Hill
#
# Bulk Modulus (GPa) = 63.13903 63.96618 63.55260
# Shear Modulus (GPa) = 24.75400 25.98609 25.37005
#
# Velocity S-wave (km/s) = 3.76754 3.86017 3.81414
# Velocity P-wave (km/s) = 7.42502 7.51979 7.47255
#
# Compressibility (1/GPa) = 0.01583806
#
# Stress axis : x y z
#
# Youngs Moduli (GPa) = 69.97041 85.49477 55.79690
#
# Poissons Ratio (x) = 0.24585 0.35028
# Poissons Ratio (y) = 0.20121 0.27245
# Poissons Ratio (z) = 0.43925 0.41746
#
# Static dielectric constant tensor:
#      x y z
#    x 3.303540 0.000000 0.000000 
#    y 0.000000 3.277080 0.000000 
#    z 0.000000 0.000000 3.172070 
# 
# 
# High freq. dielectric constant tensor:
#      x y z
#    x 1.682050 0.000000 0.000000 
#    y 0.000000 1.675580 0.000000 
#    z 0.000000 0.000000 1.645060 
# 
# From -- ./inp_files/59812.got.cif
#   From: 2010.03.12/outbox.cif.g09.slc.cpg/sg65_30_cif.got.tgz:59812.got - 2010.04.10 20:52:16.
