data_PCOD8270220
_publ_section_title
;
Structure prediction by ZEFSAII (Michael W. Deem and Ramdas Pophale) SiO2 
 PCOD8270220
Probable space group: C M M M
;
_chemical_formula_sum "Si O2"
_cell_formula_units_Z 80
_cell_length_a 14.403638
_cell_length_b 18.783319
_cell_length_c 15.297774
_cell_angle_alpha 90.000000
_cell_angle_beta 90.000000
_cell_angle_gamma 90.000000
_cell_volume 4138.784108
_symmetry_space_group_name_H-M "C M M M"
_symmetry_group_IT_number 65
_symmetry_cell_setting 'orthorhombic'
loop_
_space_group_symop_operation_xyz
x,y,z
-x,-y,z
x,-y,-z
-x,y,-z
-x,-y,-z
x,y,-z
-x,y,z
x,-y,z
1/2+x,1/2+y,z
1/2-x,1/2-y,z
1/2+x,1/2-y,-z
1/2-x,1/2+y,-z
1/2-x,1/2-y,-z
1/2+x,1/2+y,-z
1/2-x,1/2+y,z
1/2+x,1/2-y,z
loop_
_atom_site_type_symbol
_atom_site_label
_atom_site_fract_x
_atom_site_fract_y
_atom_site_fract_z
Si Si1 0.391179 0.841589 0.401910
Si Si2 0.259407 0.866861 0.905740
Si Si3 0.395998 0.301603 0.677645
Si Si4 0.394662 0.257562 0.128127
Si Si5 0.750807 0.580771 0.715361
O O1 0.364024 0.865184 0.500000
O O2 0.500000 0.849101 0.384592
O O3 0.362508 0.758155 0.391370
O O4 0.344073 0.893531 0.331778
O O5 0.347911 0.815120 0.902695
O O6 0.162695 0.824057 0.908407
O O7 0.260883 0.917280 0.820896
O O8 0.264995 0.908137 0.000000
O O9 0.500000 0.328864 0.657798
O O10 0.390905 0.258754 0.767793
O O11 0.331496 0.370536 0.677684
O O12 0.500000 0.261706 0.092801
O O13 0.729010 0.500000 0.688767
#
# Coordination Sequence:
#
# PCOD8270220 Si02
#       5
#    16  16  16  16  16
#     4  10  21  39  64  88 108 138 182 229 277 329
#     4  10  20  32  49  77 109 144 188 228 268 322
#     4   9  18  35  59  84 110 141 182 229 274 324
#     4   9  16  30  53  79 107 137 176 233 284 315
#     4  11  23  37  54  80 117 154 184 222 273 328
#
# _framework density 19.329349000000001
#
# number of rings (size 3 to 8) (size 9 to 14) (size 15 to 20)
#    0.000    2.200    2.000    1.800    0.000    4.800 
#    0.000    1.000    0.000    0.000    0.000   12.600 
#    0.000    0.000    0.000    0.000    0.000    0.000 
#
# Total GULP energy -495775.048820 kJ/mol
# GULP energy per Si atom -12394.376221 kJ/mol
# Density = 1.928535 g / cm^3
# Si number density = 19.329349 Si / 1000 Ang^3
#
#
#
# Elastic Constant Matrix: (Units=GPa)
#
#
# Indices 1 2 3 4 5 6 
#
# 1 109.1161 35.8401 33.0144 0.0000 0.0000 0.0000
# 2 35.8401 84.9002 26.1242 0.0000 0.0000 0.0000
# 3 33.0144 26.1242 76.4318 0.0000 0.0000 0.0000
# 4 0.0000 0.0000 0.0000 4.4076 0.0000 0.0000
# 5 0.0000 0.0000 0.0000 0.0000 11.6581 0.0000
# 6 0.0000 0.0000 0.0000 0.0000 0.0000 6.7877
#
#
#
# Elastic Compliance Matrix: (Units=1/GPa)
#
#
# Indices 1 2 3 4 5 6 
#
# 1 0.011505 -0.003719 -0.003698 0.000000 0.000000 0.000000
# 2 -0.003719 0.014365 -0.003304 0.000000 0.000000 0.000000
# 3 -0.003698 -0.003304 0.015810 0.000000 0.000000 0.000000
# 4 0.000000 0.000000 0.000000 0.226881 0.000000 0.000000
# 5 0.000000 0.000000 0.000000 0.000000 0.085777 0.000000
# 6 0.000000 0.000000 0.000000 0.000000 0.000000 0.147325
#
#
# Mechanical properties :
#
#
# Convention : Reuss Voigt Hill
#
# Bulk Modulus (GPa) = 49.41065 51.15617 50.28341
# Shear Modulus (GPa) = 9.43663 16.26864 12.85264
#
# Velocity S-wave (km/s) = 2.21193 2.90428 2.58142
# Velocity P-wave (km/s) = 5.66935 6.14568 5.91231
#
# Compressibility (1/GPa) = 0.02023855
#
# Stress axis : x y z
#
# Youngs Moduli (GPa) = 86.91860 69.61407 63.24999
#
# Poissons Ratio (x) = 0.25888 0.23393
# Poissons Ratio (y) = 0.32323 0.20895
# Poissons Ratio (z) = 0.32147 0.22998
#
# Static dielectric constant tensor:
#      x y z
#    x 3.675770 0.000000 0.000000 
#    y 0.000000 3.082340 0.000000 
#    z 0.000000 0.000000 3.766950 
# 
# 
# High freq. dielectric constant tensor:
#      x y z
#    x 1.757630 0.000000 0.000000 
#    y 0.000000 1.707690 0.000000 
#    z 0.000000 0.000000 1.764740 
# 
# From -- ./inp_files/40006.got.cif
#   From: 2010.03.12/outbox.cif.g09.slc.cpg/sg65_21_cif.got.tgz:40006.got - 2010.04.10 20:52:16.
