data_PCOD8270133
_publ_section_title
;
Structure prediction by ZEFSAII (Michael W. Deem and Ramdas Pophale) SiO2 
 PCOD8270133
Probable space group: C M M M
;
_chemical_formula_sum "Si O2"
_cell_formula_units_Z 88
_cell_length_a 18.579256
_cell_length_b 8.796064
_cell_length_c 28.231886
_cell_angle_alpha 90.000000
_cell_angle_beta 90.000000
_cell_angle_gamma 90.000000
_cell_volume 4613.776909
_symmetry_space_group_name_H-M "C M M M"
_symmetry_group_IT_number 65
_symmetry_cell_setting 'orthorhombic'
loop_
_space_group_symop_operation_xyz
x,y,z
-x,-y,z
x,-y,-z
-x,y,-z
-x,-y,-z
x,y,-z
-x,y,z
x,-y,z
1/2+x,1/2+y,z
1/2-x,1/2-y,z
1/2+x,1/2-y,-z
1/2-x,1/2+y,-z
1/2-x,1/2-y,-z
1/2+x,1/2+y,-z
1/2-x,1/2+y,z
1/2+x,1/2-y,z
loop_
_atom_site_type_symbol
_atom_site_label
_atom_site_fract_x
_atom_site_fract_y
_atom_site_fract_z
Si Si1 0.918883 0.819316 0.500000
Si Si2 0.582952 0.674547 0.770098
Si Si3 0.328406 0.320215 0.410424
Si Si4 0.172265 0.180235 0.139280
Si Si5 0.417031 0.822671 0.672194
Si Si6 0.919421 0.180634 0.947615
O O1 0.877126 0.759527 0.453742
O O2 0.000000 0.752222 0.500000
O O3 0.921989 0.000000 0.500000
O O4 0.500000 0.694278 0.784086
O O5 0.600314 0.500000 0.757249
O O6 0.628448 0.732631 0.814611
O O7 0.603868 0.778458 0.725569
O O8 0.320764 0.500000 0.411614
O O9 0.250000 0.250000 0.415083
O O10 0.365835 0.271653 0.361975
O O11 0.250000 0.250000 0.142733
O O12 0.133396 0.247178 0.092415
O O13 0.177245 0.000000 0.136690
O O14 0.500000 0.778945 0.661914
O O15 0.402969 0.000000 0.664604
O O16 0.000000 0.243168 0.938697
O O17 0.921017 0.000000 0.944275
O O18 0.892558 0.231552 0.000000
#
# Coordination Sequence:
#
# PCOD8270133 Si02
#       6
#     8  16  16  16  16  16
#     4   9  19  36  59  85 110 141 182 223 262 310
#     4   9  18  34  55  75  97 132 178 221 258 301
#     4  11  22  37  58  83 114 148 181 219 264 314
#     4  10  20  32  48  73 103 133 166 207 256 309
#     4  10  21  37  57  82 110 139 176 221 267 317
#     4   8  14  27  49  74  97 125 166 212 251 292
#
# _framework density 19.073309999999999
#
# number of rings (size 3 to 8) (size 9 to 14) (size 15 to 20)
#    0.000    2.455    0.000    3.000    0.000    5.818 
#    0.000    3.182    0.000    4.909    0.000    1.273 
#    0.000    0.000    0.000    0.000    0.000    0.000 
#
# Total GULP energy -545636.002446 kJ/mol
# GULP energy per Si atom -12400.818237 kJ/mol
# Density = 1.902990 g / cm^3
# Si number density = 19.073310 Si / 1000 Ang^3
#
#
#
# Elastic Constant Matrix: (Units=GPa)
#
#
# Indices 1 2 3 4 5 6 
#
# 1 145.7708 35.2532 97.6538 0.0000 0.0000 0.0000
# 2 35.2532 41.2545 33.2787 0.0000 0.0000 0.0000
# 3 97.6538 33.2787 152.1900 0.0000 0.0000 0.0000
# 4 0.0000 0.0000 0.0000 16.0568 0.0000 0.0000
# 5 0.0000 0.0000 0.0000 0.0000 12.5586 0.0000
# 6 0.0000 0.0000 0.0000 0.0000 0.0000 27.5761
#
#
#
# Elastic Compliance Matrix: (Units=1/GPa)
#
#
# Indices 1 2 3 4 5 6 
#
# 1 0.012916 -0.005284 -0.007132 0.000000 0.000000 0.000000
# 2 -0.005284 0.031593 -0.003518 0.000000 0.000000 0.000000
# 3 -0.007132 -0.003518 0.011916 0.000000 0.000000 0.000000
# 4 0.000000 0.000000 0.000000 0.062279 0.000000 0.000000
# 5 0.000000 0.000000 0.000000 0.000000 0.079627 0.000000
# 6 0.000000 0.000000 0.000000 0.000000 0.000000 0.036263
#
#
# Mechanical properties :
#
#
# Convention : Reuss Voigt Hill
#
# Bulk Modulus (GPa) = 40.72105 74.62076 57.67090
# Shear Modulus (GPa) = 18.20520 22.77361 20.48941
#
# Velocity S-wave (km/s) = 3.09283 3.45919 3.28112
# Velocity P-wave (km/s) = 5.84382 7.42716 6.68255
#
# Compressibility (1/GPa) = 0.02455733
#
# Stress axis : x y z
#
# Youngs Moduli (GPa) = 77.42448 31.65296 83.91808
#
# Poissons Ratio (x) = 0.16724 0.59852
# Poissons Ratio (y) = 0.40908 0.29522
# Poissons Ratio (z) = 0.55220 0.11135
#
# Static dielectric constant tensor:
#      x y z
#    x 3.623950 0.000000 0.000000 
#    y 0.000000 3.170640 0.000000 
#    z 0.000000 0.000000 3.739240 
# 
# 
# High freq. dielectric constant tensor:
#      x y z
#    x 1.743860 0.000000 0.000000 
#    y 0.000000 1.710830 0.000000 
#    z 0.000000 0.000000 1.757920 
# 
# From -- ./inp_files/76560.got.cif
#   From: 2010.03.12/outbox.cif.g09.slc.cpg/sg65_39_cif.got.tgz:76560.got - 2010.04.10 20:52:16.
