data_PCOD8270234
_publ_section_title
;
Structure prediction by ZEFSAII (Michael W. Deem and Ramdas Pophale) SiO2 
 PCOD8270234
Probable space group: C M M M
;
_chemical_formula_sum "Si O2"
_cell_formula_units_Z 88
_cell_length_a 19.385162
_cell_length_b 27.219402
_cell_length_c 9.174514
_cell_angle_alpha 90.000000
_cell_angle_beta 90.000000
_cell_angle_gamma 90.000000
_cell_volume 4840.955407
_symmetry_space_group_name_H-M "C M M M"
_symmetry_group_IT_number 65
_symmetry_cell_setting 'orthorhombic'
loop_
_space_group_symop_operation_xyz
x,y,z
-x,-y,z
x,-y,-z
-x,y,-z
-x,-y,-z
x,y,-z
-x,y,z
x,-y,z
1/2+x,1/2+y,z
1/2-x,1/2-y,z
1/2+x,1/2-y,-z
1/2-x,1/2+y,-z
1/2-x,1/2-y,-z
1/2+x,1/2+y,-z
1/2-x,1/2+y,z
1/2+x,1/2-y,z
loop_
_atom_site_type_symbol
_atom_site_label
_atom_site_fract_x
_atom_site_fract_y
_atom_site_fract_z
Si Si1 0.812739 0.159725 0.668153
Si Si2 0.684984 0.805136 0.164806
Si Si3 0.226160 0.053364 0.670717
Si Si4 0.355559 0.916967 0.164995
Si Si5 0.500000 0.057577 0.837167
Si Si6 0.078809 0.763028 0.331286
O O1 0.789348 0.161404 0.500000
O O2 0.759467 0.195364 0.754980
O O3 0.815106 0.102524 0.723986
O O4 0.889025 0.182279 0.689043
O O5 0.660736 0.860363 0.167040
O O6 0.625319 0.774785 0.243105
O O7 0.694629 0.785611 0.000000
O O8 0.237344 0.057218 0.500000
O O9 0.300658 0.052221 0.744334
O O10 0.190186 0.000000 0.708668
O O11 0.430331 0.923902 0.241330
O O12 0.355904 0.937935 0.000000
O O13 0.500000 0.000000 0.840684
O O14 0.500000 0.080257 0.000000
O O15 0.080476 0.747502 0.500000
O O16 0.000000 0.763513 0.272665
#
# Coordination Sequence:
#
# PCOD8270234 Si02
#       6
#    16  16  16  16   8  16
#     4   9  18  34  53  71  97 130 162 199 240 289
#     4  10  20  32  50  74  99 127 162 204 245 285
#     4   9  17  30  49  71  93 118 152 195 242 286
#     4   9  18  30  45  65  91 123 158 194 233 281
#     4   9  16  26  41  59  83 119 157 189 224 269
#     4  10  21  35  51  71  96 130 168 200 239 293
#
# _framework density 18.178229999999999
#
# number of rings (size 3 to 8) (size 9 to 14) (size 15 to 20)
#    0.000    2.636    0.000    1.636    1.273    5.091 
#    0.000    0.455    0.000    2.182    0.000    3.818 
#    0.000    0.000    0.000   10.727    0.000   11.273 
#
# Total GULP energy -545173.201269 kJ/mol
# GULP energy per Si atom -12390.300029 kJ/mol
# Density = 1.813686 g / cm^3
# Si number density = 18.178230 Si / 1000 Ang^3
#
#
#
# Elastic Constant Matrix: (Units=GPa)
#
#
# Indices 1 2 3 4 5 6 
#
# 1 96.0578 43.6320 28.2832 0.0000 0.0000 0.0000
# 2 43.6320 72.5556 28.5292 0.0000 0.0000 0.0000
# 3 28.2832 28.5292 45.3470 0.0000 0.0000 0.0000
# 4 0.0000 0.0000 0.0000 15.4815 0.0000 0.0000
# 5 0.0000 0.0000 0.0000 0.0000 25.7623 0.0000
# 6 0.0000 0.0000 0.0000 0.0000 0.0000 9.7563
#
#
#
# Elastic Compliance Matrix: (Units=1/GPa)
#
#
# Indices 1 2 3 4 5 6 
#
# 1 0.015108 -0.007148 -0.004925 0.000000 0.000000 0.000000
# 2 -0.007148 0.021695 -0.009190 0.000000 0.000000 0.000000
# 3 -0.004925 -0.009190 0.030906 0.000000 0.000000 0.000000
# 4 0.000000 0.000000 0.000000 0.064593 0.000000 0.000000
# 5 0.000000 0.000000 0.000000 0.000000 0.038816 0.000000
# 6 0.000000 0.000000 0.000000 0.000000 0.000000 0.102498
#
#
# Mechanical properties :
#
#
# Convention : Reuss Voigt Hill
#
# Bulk Modulus (GPa) = 39.71376 46.09434 42.90405
# Shear Modulus (GPa) = 15.40649 17.76777 16.58713
#
# Velocity S-wave (km/s) = 2.91439 3.12976 3.02399
# Velocity P-wave (km/s) = 5.76361 6.20262 5.98714
#
# Compressibility (1/GPa) = 0.02518019
#
# Stress axis : x y z
#
# Youngs Moduli (GPa) = 66.19165 46.09346 32.35598
#
# Poissons Ratio (x) = 0.32950 0.15937
# Poissons Ratio (y) = 0.47317 0.29737
# Poissons Ratio (z) = 0.32602 0.42362
#
# Static dielectric constant tensor:
#      x y z
#    x 3.183360 0.000000 0.000000 
#    y 0.000000 3.731260 0.000000 
#    z 0.000000 0.000000 3.453200 
# 
# 
# High freq. dielectric constant tensor:
#      x y z
#    x 1.682500 0.000000 0.000000 
#    y 0.000000 1.718740 0.000000 
#    z 0.000000 0.000000 1.687980 
# 
# From -- ./inp_files/10035.got.cif
#   From: 2010.03.12/outbox.cif.g09.slc.cpg/sg65_6_cif.got.tgz:10035.got - 2010.04.10 20:52:16.
