data_PCOD8270905
_publ_section_title
;
Structure prediction by ZEFSAII (Michael W. Deem and Ramdas Pophale) SiO2 
 PCOD8270905
Probable space group: C M M M
;
_chemical_formula_sum "Si O2"
_cell_formula_units_Z 88
_cell_length_a 19.688455
_cell_length_b 30.359083
_cell_length_c 8.970022
_cell_angle_alpha 90.000000
_cell_angle_beta 90.000000
_cell_angle_gamma 90.000000
_cell_volume 5361.592402
_symmetry_space_group_name_H-M "C M M M"
_symmetry_group_IT_number 65
_symmetry_cell_setting 'orthorhombic'
loop_
_space_group_symop_operation_xyz
x,y,z
-x,-y,z
x,-y,-z
-x,y,-z
-x,-y,-z
x,y,-z
-x,y,z
x,-y,z
1/2+x,1/2+y,z
1/2-x,1/2-y,z
1/2+x,1/2-y,-z
1/2-x,1/2+y,-z
1/2-x,1/2-y,-z
1/2+x,1/2+y,-z
1/2-x,1/2+y,z
1/2+x,1/2-y,z
loop_
_atom_site_type_symbol
_atom_site_label
_atom_site_fract_x
_atom_site_fract_y
_atom_site_fract_z
Si Si1 0.076113 0.671936 0.832371
Si Si2 0.924777 0.224170 0.830040
Si Si3 0.000000 0.552278 0.331108
Si Si4 0.805297 0.628273 0.673851
Si Si5 0.710884 0.706707 0.676287
Si Si6 0.638371 0.050066 0.823994
O O1 0.079360 0.723867 0.813776
O O2 0.122668 0.650649 0.707169
O O3 0.000000 0.654826 0.803563
O O4 0.099770 0.658611 0.000000
O O5 0.866484 0.202645 0.729923
O O6 0.000000 0.208167 0.777678
O O7 0.912569 0.209757 0.000000
O O8 0.067516 0.567927 0.244480
O O9 0.000000 0.500000 0.332802
O O10 0.000000 0.570937 0.500000
O O11 0.798399 0.618420 0.500000
O O12 0.747487 0.661944 0.730704
O O13 0.801560 0.581614 0.761683
O O14 0.711862 0.709799 0.500000
O O15 0.750000 0.750000 0.741876
O O16 0.654197 0.000000 0.774441
O O17 0.633190 0.053861 0.000000
#
# Coordination Sequence:
#
# PCOD8270905 Si02
#       6
#    16  16   8  16  16  16
#     4   9  18  31  45  64  92 125 163 203 241 283
#     4   9  18  32  50  71  94 125 165 204 240 281
#     4   9  17  31  51  71  91 119 157 201 247 289
#     4  11  22  33  48  69  94 126 162 202 244 287
#     4  10  20  34  48  69 100 130 162 198 237 284
#     4  10  21  36  51  67  90 121 159 202 246 290
#
# _framework density 16.413035000000001
#
# number of rings (size 3 to 8) (size 9 to 14) (size 15 to 20)
#    0.000    2.273    1.818    2.455    1.273    4.727 
#    0.000    1.818    0.000    0.000    0.000    0.000 
#    0.000    0.727    0.000    8.000    0.000    5.818 
#
# Total GULP energy -545466.346158 kJ/mol
# GULP energy per Si atom -12396.962413 kJ/mol
# Density = 1.637568 g / cm^3
# Si number density = 16.413035 Si / 1000 Ang^3
#
#
#
# Elastic Constant Matrix: (Units=GPa)
#
#
# Indices 1 2 3 4 5 6 
#
# 1 92.1439 51.1865 22.3609 0.0000 0.0000 0.0000
# 2 51.1865 78.5587 24.6255 0.0000 0.0000 0.0000
# 3 22.3609 24.6255 39.8304 0.0000 0.0000 0.0000
# 4 0.0000 0.0000 0.0000 23.2377 0.0000 0.0000
# 5 0.0000 0.0000 0.0000 0.0000 27.0131 0.0000
# 6 0.0000 0.0000 0.0000 0.0000 0.0000 27.5969
#
#
#
# Elastic Compliance Matrix: (Units=1/GPa)
#
#
# Indices 1 2 3 4 5 6 
#
# 1 0.017376 -0.010250 -0.003418 0.000000 0.000000 0.000000
# 2 -0.010250 0.021836 -0.007746 0.000000 0.000000 0.000000
# 3 -0.003418 -0.007746 0.031814 0.000000 0.000000 0.000000
# 4 0.000000 0.000000 0.000000 0.043034 0.000000 0.000000
# 5 0.000000 0.000000 0.000000 0.000000 0.037019 0.000000
# 6 0.000000 0.000000 0.000000 0.000000 0.000000 0.036236
#
#
# Mechanical properties :
#
#
# Convention : Reuss Voigt Hill
#
# Bulk Modulus (GPa) = 35.46263 45.20875 40.33569
# Shear Modulus (GPa) = 20.87313 23.06022 21.96668
#
# Velocity S-wave (km/s) = 3.57002 3.75239 3.66234
# Velocity P-wave (km/s) = 6.21664 6.81015 6.52015
#
# Compressibility (1/GPa) = 0.02819870
#
# Stress axis : x y z
#
# Youngs Moduli (GPa) = 57.55016 45.79528 31.43266
#
# Poissons Ratio (x) = 0.46942 0.10742
# Poissons Ratio (y) = 0.58992 0.24347
# Poissons Ratio (z) = 0.19668 0.35472
#
# Static dielectric constant tensor:
#      x y z
#    x 3.135670 0.000000 0.000000 
#    y 0.000000 3.165530 0.000000 
#    z 0.000000 0.000000 3.062490 
# 
# 
# High freq. dielectric constant tensor:
#      x y z
#    x 1.603590 0.000000 0.000000 
#    y 0.000000 1.617560 0.000000 
#    z 0.000000 0.000000 1.634060 
# 
# From -- ./inp_files/10017.got.cif
#   From: 2010.03.12/outbox.cif.g09.slc.cpg/sg65_6_cif.got.tgz:10017.got - 2010.04.10 20:52:16.
