data_PCOD8270222
_publ_section_title
;
Structure prediction by ZEFSAII (Michael W. Deem and Ramdas Pophale) SiO2 
 PCOD8270222
Probable space group: C M M M
;
_chemical_formula_sum "Si O2"
_cell_formula_units_Z 120
_cell_length_a 8.822163
_cell_length_b 27.891986
_cell_length_c 25.817699
_cell_angle_alpha 90.000000
_cell_angle_beta 90.000000
_cell_angle_gamma 90.000000
_cell_volume 6352.900441
_symmetry_space_group_name_H-M "C M M M"
_symmetry_group_IT_number 65
_symmetry_cell_setting 'orthorhombic'
loop_
_space_group_symop_operation_xyz
x,y,z
-x,-y,z
x,-y,-z
-x,y,-z
-x,-y,-z
x,y,-z
-x,y,z
x,-y,z
1/2+x,1/2+y,z
1/2-x,1/2-y,z
1/2+x,1/2-y,-z
1/2-x,1/2+y,-z
1/2-x,1/2-y,-z
1/2+x,1/2+y,-z
1/2-x,1/2+y,z
1/2+x,1/2-y,z
loop_
_atom_site_type_symbol
_atom_site_label
_atom_site_fract_x
_atom_site_fract_y
_atom_site_fract_z
Si Si1 0.822459 0.116503 0.742067
Si Si2 0.821940 0.946620 0.161922
Si Si3 0.821312 0.299931 0.198947
Si Si4 0.179085 0.299990 0.441560
Si Si5 0.821864 0.802950 0.000000
Si Si6 0.820588 0.147383 0.105470
Si Si7 0.167689 0.943730 0.442966
Si Si8 0.675075 0.883685 0.634087
O O1 0.779805 0.072573 0.780608
O O2 0.725810 0.162730 0.757225
O O3 0.777307 0.104771 0.683772
O O4 0.000000 0.128036 0.746777
O O5 0.766084 0.907356 0.118890
O O6 0.000000 0.952171 0.156507
O O7 0.748554 0.000000 0.153396
O O8 0.750000 0.250000 0.215824
O O9 0.758162 0.315220 0.143360
O O10 0.000000 0.295225 0.195792
O O11 0.233092 0.314058 0.500000
O O12 0.250000 0.250000 0.424340
O O13 0.234196 0.337778 0.398357
O O14 0.000000 0.295681 0.440350
O O15 0.750000 0.750000 0.000000
O O16 0.771231 0.835759 0.951547
O O17 0.000000 0.794289 0.000000
O O18 0.000000 0.150955 0.113953
O O19 0.206018 0.923238 0.500000
O O20 0.299155 0.928240 0.403823
O O21 0.000000 0.925359 0.425708
O O22 0.167085 0.000000 0.444880
O O23 0.500000 0.879419 0.650147
#
# Coordination Sequence:
#
# PCOD8270222 Si02
#       8
#    16  16  16  16   8  16  16  16
#     4  10  21  36  53  76 105 136 174 217 261 315
#     4   8  15  31  55  77  99 133 175 219 266 311
#     4  11  21  35  55  77 103 137 177 219 265 315
#     4   9  19  35  53  73  98 130 168 208 251 305
#     4  10  20  32  49  77 113 149 182 220 265 314
#     4   9  18  33  52  78 110 142 180 221 261 313
#     4   9  19  36  56  77 101 132 172 214 258 315
#     4  11  22  35  52  77 108 137 168 212 266 321
#
# _framework density 18.889009000000001
#
# number of rings (size 3 to 8) (size 9 to 14) (size 15 to 20)
#    0.000    2.400    0.000    4.000    0.000    4.800 
#    0.000    5.000    0.000   11.600    0.000    0.000 
#    0.000    4.800    0.000    0.000    0.000    0.000 
#
# Total GULP energy -743697.047352 kJ/mol
# GULP energy per Si atom -12394.950789 kJ/mol
# Density = 1.884602 g / cm^3
# Si number density = 18.889009 Si / 1000 Ang^3
#
#
#
# Elastic Constant Matrix: (Units=GPa)
#
#
# Indices 1 2 3 4 5 6 
#
# 1 45.1832 22.6787 23.2294 0.0000 0.0000 0.0000
# 2 22.6787 116.3266 52.2078 0.0000 0.0000 0.0000
# 3 23.2294 52.2078 121.5217 0.0000 0.0000 0.0000
# 4 0.0000 0.0000 0.0000 19.0973 0.0000 0.0000
# 5 0.0000 0.0000 0.0000 0.0000 11.0922 0.0000
# 6 0.0000 0.0000 0.0000 0.0000 0.0000 26.2849
#
#
#
# Elastic Compliance Matrix: (Units=1/GPa)
#
#
# Indices 1 2 3 4 5 6 
#
# 1 0.025624 -0.003466 -0.003409 0.000000 0.000000 0.000000
# 2 -0.003466 0.011119 -0.004114 0.000000 0.000000 0.000000
# 3 -0.003409 -0.004114 0.010648 0.000000 0.000000 0.000000
# 4 0.000000 0.000000 0.000000 0.052363 0.000000 0.000000
# 5 0.000000 0.000000 0.000000 0.000000 0.090153 0.000000
# 6 0.000000 0.000000 0.000000 0.000000 0.000000 0.038045
#
#
# Mechanical properties :
#
#
# Convention : Reuss Voigt Hill
#
# Bulk Modulus (GPa) = 39.35010 53.25148 46.30079
# Shear Modulus (GPa) = 19.34970 23.62260 21.48615
#
# Velocity S-wave (km/s) = 3.20408 3.54022 3.37634
# Velocity P-wave (km/s) = 5.87926 6.70551 6.30593
#
# Compressibility (1/GPa) = 0.02541290
#
# Stress axis : x y z
#
# Youngs Moduli (GPa) = 39.02535 89.93916 93.91196
#
# Poissons Ratio (x) = 0.31169 0.32018
# Poissons Ratio (y) = 0.13524 0.38638
# Poissons Ratio (z) = 0.13305 0.37004
#
# Static dielectric constant tensor:
#      x y z
#    x 3.437300 0.000000 0.000000 
#    y 0.000000 4.029520 0.000000 
#    z 0.000000 0.000000 3.536220 
# 
# 
# High freq. dielectric constant tensor:
#      x y z
#    x 1.718280 0.000000 0.000000 
#    y 0.000000 1.736320 0.000000 
#    z 0.000000 0.000000 1.731390 
# 
# From -- ./inp_files/73896.got.cif
#   From: 2010.03.12/outbox.cif.g09.slc.cpg/sg65_37_cif.got.tgz:73896.got - 2010.04.10 20:52:16.
