data_PCOD8270441
_publ_section_title
;
Structure prediction by ZEFSAII (Michael W. Deem and Ramdas Pophale) SiO2 
 PCOD8270441
Probable space group: C M M M
;
_chemical_formula_sum "Si O2"
_cell_formula_units_Z 80
_cell_length_a 8.009757
_cell_length_b 27.098366
_cell_length_c 19.981182
_cell_angle_alpha 90.000000
_cell_angle_beta 90.000000
_cell_angle_gamma 90.000000
_cell_volume 4336.942063
_symmetry_space_group_name_H-M "C M M M"
_symmetry_group_IT_number 65
_symmetry_cell_setting 'orthorhombic'
loop_
_space_group_symop_operation_xyz
x,y,z
-x,-y,z
x,-y,-z
-x,y,-z
-x,-y,-z
x,y,-z
-x,y,z
x,-y,z
1/2+x,1/2+y,z
1/2-x,1/2-y,z
1/2+x,1/2-y,-z
1/2-x,1/2+y,-z
1/2-x,1/2-y,-z
1/2+x,1/2+y,-z
1/2-x,1/2+y,z
1/2+x,1/2-y,z
loop_
_atom_site_type_symbol
_atom_site_label
_atom_site_fract_x
_atom_site_fract_y
_atom_site_fract_z
Si Si1 0.500000 0.557453 0.578102
Si Si2 0.307596 0.054938 0.803941
Si Si3 0.196463 0.598615 0.660726
Si Si4 0.190956 0.696240 0.728019
Si Si5 0.308732 0.652570 0.137924
Si Si6 0.802791 0.806280 0.000000
O O1 0.500000 0.500000 0.595222
O O2 0.500000 0.568290 0.500000
O O3 0.326089 0.580080 0.605255
O O4 0.500000 0.060792 0.823440
O O5 0.283923 0.063869 0.725256
O O6 0.207877 0.094200 0.848671
O O7 0.241574 0.000000 0.820723
O O8 0.265531 0.653098 0.681216
O O9 0.000000 0.597757 0.636495
O O10 0.250000 0.750000 0.705939
O O11 0.220075 0.685596 0.806034
O O12 0.000000 0.693247 0.713093
O O13 0.500000 0.668189 0.140188
O O14 0.229807 0.666560 0.065957
O O15 0.750000 0.750000 0.000000
O O16 0.000000 0.811367 0.000000
#
# Coordination Sequence:
#
# PCOD8270441 Si02
#       6
#     8  16  16  16  16   8
#     4  11  24  38  58  88 116 149 191 225 266 333
#     4   9  18  33  53  77 104 134 174 224 273 321
#     4   9  20  37  56  83 117 148 181 230 279 325
#     4  10  20  33  54  84 109 138 178 228 278 325
#     4  10  20  33  49  73 105 136 177 222 269 322
#     4  10  22  36  49  68  97 137 174 213 265 328
#
# _framework density 18.446176999999999
#
# number of rings (size 3 to 8) (size 9 to 14) (size 15 to 20)
#    0.000    2.300    0.000    3.600    7.000    5.200 
#    0.000    1.500    0.000    3.600    0.000    0.000 
#    0.000    0.000    0.000    0.000    0.000    0.000 
#
# Total GULP energy -495769.638617 kJ/mol
# GULP energy per Si atom -12394.240965 kJ/mol
# Density = 1.840419 g / cm^3
# Si number density = 18.446177 Si / 1000 Ang^3
#
#
#
# Elastic Constant Matrix: (Units=GPa)
#
#
# Indices 1 2 3 4 5 6 
#
# 1 59.3487 29.2553 40.5593 0.0000 0.0000 0.0000
# 2 29.2553 134.9044 55.9319 0.0000 0.0000 0.0000
# 3 40.5593 55.9319 100.3609 0.0000 0.0000 0.0000
# 4 0.0000 0.0000 0.0000 22.5840 0.0000 0.0000
# 5 0.0000 0.0000 0.0000 0.0000 22.2843 0.0000
# 6 0.0000 0.0000 0.0000 0.0000 0.0000 31.6538
#
#
#
# Elastic Compliance Matrix: (Units=1/GPa)
#
#
# Indices 1 2 3 4 5 6 
#
# 1 0.023512 -0.001508 -0.008662 0.000000 0.000000 0.000000
# 2 -0.001508 0.009737 -0.004817 0.000000 0.000000 0.000000
# 3 -0.008662 -0.004817 0.016149 0.000000 0.000000 0.000000
# 4 0.000000 0.000000 0.000000 0.044279 0.000000 0.000000
# 5 0.000000 0.000000 0.000000 0.000000 0.044875 0.000000
# 6 0.000000 0.000000 0.000000 0.000000 0.000000 0.031592
#
#
# Mechanical properties :
#
#
# Convention : Reuss Voigt Hill
#
# Bulk Modulus (GPa) = 51.47990 60.67854 56.07922
# Shear Modulus (GPa) = 24.20226 26.56226 25.38226
#
# Velocity S-wave (km/s) = 3.62615 3.79883 3.71350
# Velocity P-wave (km/s) = 6.74542 7.22550 6.98958
#
# Compressibility (1/GPa) = 0.01942506
#
# Stress axis : x y z
#
# Youngs Moduli (GPa) = 42.53088 102.70334 61.92244
#
# Poissons Ratio (x) = 0.15484 0.53637
# Poissons Ratio (y) = 0.06412 0.29829
# Poissons Ratio (z) = 0.36840 0.49473
#
# Static dielectric constant tensor:
#      x y z
#    x 3.394960 0.000000 0.000000 
#    y 0.000000 3.513750 0.000000 
#    z 0.000000 0.000000 3.248820 
# 
# 
# High freq. dielectric constant tensor:
#      x y z
#    x 1.719290 0.000000 0.000000 
#    y 0.000000 1.727570 0.000000 
#    z 0.000000 0.000000 1.683590 
# 
# From -- ./inp_files/49908.got.cif
#   From: 2010.03.12/outbox.cif.g09.slc.cpg/sg65_25_cif.got.tgz:49908.got - 2010.04.10 20:52:16.
