data_PCOD8270203
_publ_section_title
;
Structure prediction by ZEFSAII (Michael W. Deem and Ramdas Pophale) SiO2 
 PCOD8270203
Probable space group: C M M M
;
_chemical_formula_sum "Si O2"
_cell_formula_units_Z 88
_cell_length_a 9.030408
_cell_length_b 19.259438
_cell_length_c 27.675697
_cell_angle_alpha 90.000000
_cell_angle_beta 90.000000
_cell_angle_gamma 90.000000
_cell_volume 4813.373357
_symmetry_space_group_name_H-M "C M M M"
_symmetry_group_IT_number 65
_symmetry_cell_setting 'orthorhombic'
loop_
_space_group_symop_operation_xyz
x,y,z
-x,-y,z
x,-y,-z
-x,y,-z
-x,-y,-z
x,y,-z
-x,y,z
x,-y,z
1/2+x,1/2+y,z
1/2-x,1/2-y,z
1/2+x,1/2-y,-z
1/2-x,1/2+y,-z
1/2-x,1/2-y,-z
1/2+x,1/2+y,-z
1/2-x,1/2+y,z
1/2+x,1/2-y,z
loop_
_atom_site_type_symbol
_atom_site_label
_atom_site_fract_x
_atom_site_fract_y
_atom_site_fract_z
Si Si1 0.828989 0.917927 0.096133
Si Si2 0.667521 0.082551 0.000000
Si Si3 0.827856 0.679639 0.718542
Si Si4 0.330636 0.582111 0.353233
Si Si5 0.166516 0.582489 0.446946
Si Si6 0.673142 0.820879 0.830886
O O1 0.753371 0.889964 0.047106
O O2 0.746035 0.884949 0.141491
O O3 0.000000 0.895552 0.095587
O O4 0.811239 0.000000 0.101032
O O5 0.500000 0.111744 0.000000
O O6 0.666820 0.000000 0.000000
O O7 0.750000 0.750000 0.700871
O O8 0.763141 0.614634 0.689894
O O9 0.796211 0.665861 0.774662
O O10 0.000000 0.686867 0.707402
O O11 0.500000 0.604526 0.347664
O O12 0.309463 0.500000 0.349652
O O13 0.273561 0.610956 0.404994
O O14 0.219984 0.608988 0.500000
O O15 0.168912 0.500000 0.446730
O O16 0.000000 0.609052 0.436773
O O17 0.500000 0.816490 0.842723
O O18 0.750000 0.750000 0.848275
#
# Coordination Sequence:
#
# PCOD8270203 Si02
#       6
#    16   8  16  16  16  16
#     4  10  20  34  54  80 109 140 173 210 253 301
#     4   9  17  31  52  77 106 139 174 211 251 299
#     4  10  21  37  56  75  99 134 173 212 256 309
#     4  10  20  32  49  76 107 136 169 211 254 298
#     4   8  14  26  45  69  98 132 168 206 250 299
#     4  10  21  37  56  77 102 134 172 213 258 307
#
# _framework density 18.282397
#
# number of rings (size 3 to 8) (size 9 to 14) (size 15 to 20)
#    0.000    2.455    0.000    3.000    0.000    6.545 
#    0.000    5.909    0.000    0.545    0.000    0.000 
#    0.000    0.000    0.000    0.000    0.000    0.000 
#
# Total GULP energy -545636.554604 kJ/mol
# GULP energy per Si atom -12400.830786 kJ/mol
# Density = 1.824079 g / cm^3
# Si number density = 18.282397 Si / 1000 Ang^3
#
#
#
# Elastic Constant Matrix: (Units=GPa)
#
#
# Indices 1 2 3 4 5 6 
#
# 1 140.0690 41.4928 73.9387 0.0000 0.0000 0.0000
# 2 41.4928 38.7637 41.6334 0.0000 0.0000 0.0000
# 3 73.9387 41.6334 105.8874 0.0000 0.0000 0.0000
# 4 0.0000 0.0000 0.0000 7.5214 0.0000 0.0000
# 5 0.0000 0.0000 0.0000 0.0000 36.3705 0.0000
# 6 0.0000 0.0000 0.0000 0.0000 0.0000 29.9963
#
#
#
# Elastic Compliance Matrix: (Units=1/GPa)
#
#
# Indices 1 2 3 4 5 6 
#
# 1 0.012262 -0.006802 -0.005888 0.000000 0.000000 0.000000
# 2 -0.006802 0.048427 -0.014292 0.000000 0.000000 0.000000
# 3 -0.005888 -0.014292 0.019175 0.000000 0.000000 0.000000
# 4 0.000000 0.000000 0.000000 0.132954 0.000000 0.000000
# 5 0.000000 0.000000 0.000000 0.000000 0.027495 0.000000
# 6 0.000000 0.000000 0.000000 0.000000 0.000000 0.033337
#
#
# Mechanical properties :
#
#
# Convention : Reuss Voigt Hill
#
# Bulk Modulus (GPa) = 38.60729 66.53889 52.57309
# Shear Modulus (GPa) = 14.86997 23.28798 19.07898
#
# Velocity S-wave (km/s) = 2.85502 3.57289 3.23394
# Velocity P-wave (km/s) = 5.65961 7.31402 6.53935
#
# Compressibility (1/GPa) = 0.02590185
#
# Stress axis : x y z
#
# Youngs Moduli (GPa) = 81.54967 20.64949 52.15157
#
# Poissons Ratio (x) = 0.14045 0.30708
# Poissons Ratio (y) = 0.55467 0.74533
# Poissons Ratio (z) = 0.48019 0.29511
#
# Static dielectric constant tensor:
#      x y z
#    x 3.571690 0.000000 0.000000 
#    y 0.000000 3.008040 0.000000 
#    z 0.000000 0.000000 3.557860 
# 
# 
# High freq. dielectric constant tensor:
#      x y z
#    x 1.724100 0.000000 0.000000 
#    y 0.000000 1.671910 0.000000 
#    z 0.000000 0.000000 1.718370 
# 
# From -- ./inp_files/65153.got.cif
#   From: 2010.03.12/outbox.cif.g09.slc.cpg/sg65_33_cif.got.tgz:65153.got - 2010.04.10 20:52:16.
