data_PCOD8270432
_publ_section_title
;
Structure prediction by ZEFSAII (Michael W. Deem and Ramdas Pophale) SiO2 
 PCOD8270432
Probable space group: C M M M
;
_chemical_formula_sum "Si O2"
_cell_formula_units_Z 120
_cell_length_a 9.138831
_cell_length_b 29.260054
_cell_length_c 25.545123
_cell_angle_alpha 90.000000
_cell_angle_beta 90.000000
_cell_angle_gamma 90.000000
_cell_volume 6830.834570
_symmetry_space_group_name_H-M "C M M M"
_symmetry_group_IT_number 65
_symmetry_cell_setting 'orthorhombic'
loop_
_space_group_symop_operation_xyz
x,y,z
-x,-y,z
x,-y,-z
-x,y,-z
-x,-y,-z
x,y,-z
-x,y,z
x,-y,z
1/2+x,1/2+y,z
1/2-x,1/2-y,z
1/2+x,1/2-y,-z
1/2-x,1/2+y,-z
1/2-x,1/2-y,-z
1/2+x,1/2+y,-z
1/2-x,1/2+y,z
1/2+x,1/2-y,z
loop_
_atom_site_type_symbol
_atom_site_label
_atom_site_fract_x
_atom_site_fract_y
_atom_site_fract_z
Si Si1 0.329776 0.704163 0.237829
Si Si2 0.172654 0.446826 0.104268
Si Si3 0.664455 0.445958 0.000000
Si Si4 0.172581 0.795963 0.643134
Si Si5 0.328209 0.607030 0.195695
Si Si6 0.833470 0.446853 0.719030
Si Si7 0.831005 0.133365 0.441872
Si Si8 0.830502 0.449173 0.598547
O O1 0.500000 0.715288 0.236031
O O2 0.250000 0.750000 0.217506
O O3 0.282400 0.691649 0.297291
O O4 0.291592 0.661075 0.200756
O O5 0.209661 0.500000 0.116204
O O6 0.248097 0.429509 0.051025
O O7 0.234384 0.414693 0.149429
O O8 0.000000 0.439752 0.099056
O O9 0.656318 0.500000 0.000000
O O10 0.500000 0.425223 0.000000
O O11 0.250000 0.750000 0.625220
O O12 0.233845 0.833835 0.603033
O O13 0.000000 0.789733 0.637138
O O14 0.500000 0.599183 0.185611
O O15 0.283647 0.582511 0.249276
O O16 0.808630 0.500000 0.731578
O O17 0.803399 0.435907 0.658768
O O18 0.000000 0.433490 0.734587
O O19 0.805255 0.154154 0.500000
O O20 0.753538 0.084638 0.439455
O O21 0.000000 0.124919 0.430717
O O22 0.770751 0.500000 0.587906
O O23 0.000000 0.446586 0.584875
#
# Coordination Sequence:
#
# PCOD8270432 Si02
#       8
#    16  16   8  16  16  16  16  16
#     4   9  19  34  51  71  95 124 159 199 243 293
#     4  10  20  33  49  72 105 144 181 213 248 291
#     4   9  17  31  51  73 100 137 180 223 259 289
#     4   9  18  34  53  72  95 122 153 191 238 293
#     4  11  21  31  47  74 104 132 165 205 247 290
#     4   9  18  32  48  68  96 128 160 194 237 291
#     4  10  21  35  50  70  96 123 152 191 239 289
#     4   9  19  35  52  69  91 122 160 199 237 281
#
# _framework density 17.567399999999999
#
# number of rings (size 3 to 8) (size 9 to 14) (size 15 to 20)
#    0.000    2.467    0.000    3.000    0.000    7.733 
#    0.000    5.333    0.000    0.000    0.000    0.467 
#    0.000    0.000    0.000    0.000    0.000    0.000 
#
# Total GULP energy -743962.939093 kJ/mol
# GULP energy per Si atom -12399.382318 kJ/mol
# Density = 1.752742 g / cm^3
# Si number density = 17.567400 Si / 1000 Ang^3
#
#
#
# Elastic Constant Matrix: (Units=GPa)
#
#
# Indices 1 2 3 4 5 6 
#
# 1 64.4311 42.4268 38.9577 0.0000 0.0000 0.0000
# 2 42.4268 95.4451 49.9046 0.0000 0.0000 0.0000
# 3 38.9577 49.9046 74.3306 0.0000 0.0000 0.0000
# 4 0.0000 0.0000 0.0000 18.2368 0.0000 0.0000
# 5 0.0000 0.0000 0.0000 0.0000 29.5416 0.0000
# 6 0.0000 0.0000 0.0000 0.0000 0.0000 30.0436
#
#
#
# Elastic Compliance Matrix: (Units=1/GPa)
#
#
# Indices 1 2 3 4 5 6 
#
# 1 0.025165 -0.006611 -0.008751 0.000000 0.000000 0.000000
# 2 -0.006611 0.017881 -0.008541 0.000000 0.000000 0.000000
# 3 -0.008751 -0.008541 0.023774 0.000000 0.000000 0.000000
# 4 0.000000 0.000000 0.000000 0.054834 0.000000 0.000000
# 5 0.000000 0.000000 0.000000 0.000000 0.033851 0.000000
# 6 0.000000 0.000000 0.000000 0.000000 0.000000 0.033285
#
#
# Mechanical properties :
#
#
# Convention : Reuss Voigt Hill
#
# Bulk Modulus (GPa) = 52.58798 55.19832 53.89315
# Shear Modulus (GPa) = 20.58190 22.42557 21.50373
#
# Velocity S-wave (km/s) = 3.42657 3.57675 3.50247
# Velocity P-wave (km/s) = 6.75686 6.96754 6.86301
#
# Compressibility (1/GPa) = 0.01901575
#
# Stress axis : x y z
#
# Youngs Moduli (GPa) = 39.73852 55.92445 42.06295
#
# Poissons Ratio (x) = 0.36969 0.36809
# Poissons Ratio (y) = 0.26269 0.35924
# Poissons Ratio (z) = 0.34775 0.47763
#
# Static dielectric constant tensor:
#      x y z
#    x 3.239280 0.000000 0.000000 
#    y 0.000000 3.201620 0.000000 
#    z 0.000000 0.000000 3.250700 
# 
# 
# High freq. dielectric constant tensor:
#      x y z
#    x 1.680910 0.000000 0.000000 
#    y 0.000000 1.664530 0.000000 
#    z 0.000000 0.000000 1.669220 
# 
# From -- ./inp_files/73924.got.cif
#   From: 2010.03.12/outbox.cif.g09.slc.cpg/sg65_37_cif.got.tgz:73924.got - 2010.04.10 20:52:16.
