data_PCOD8270997
_publ_section_title
;
Structure prediction by ZEFSAII (Michael W. Deem and Ramdas Pophale) SiO2 
 PCOD8270997
Probable space group: C M M M
;
_chemical_formula_sum "Si O2"
_cell_formula_units_Z 72
_cell_length_a 8.816208
_cell_length_b 28.396883
_cell_length_c 18.491415
_cell_angle_alpha 90.000000
_cell_angle_beta 90.000000
_cell_angle_gamma 90.000000
_cell_volume 4629.378022
_symmetry_space_group_name_H-M "C M M M"
_symmetry_group_IT_number 65
_symmetry_cell_setting 'orthorhombic'
loop_
_space_group_symop_operation_xyz
x,y,z
-x,-y,z
x,-y,-z
-x,y,-z
-x,-y,-z
x,y,-z
-x,y,z
x,-y,z
1/2+x,1/2+y,z
1/2-x,1/2-y,z
1/2+x,1/2-y,-z
1/2-x,1/2+y,-z
1/2-x,1/2-y,-z
1/2+x,1/2+y,-z
1/2-x,1/2+y,z
1/2+x,1/2-y,z
loop_
_atom_site_type_symbol
_atom_site_label
_atom_site_fract_x
_atom_site_fract_y
_atom_site_fract_z
Si Si1 0.680324 0.552539 0.000000
Si Si2 0.676155 0.055894 0.266891
Si Si3 0.179819 0.447333 0.576396
Si Si4 0.678756 0.390100 0.862265
Si Si5 0.321375 0.798932 0.917112
O O1 0.740861 0.578987 0.070949
O O2 0.748806 0.500000 0.000000
O O3 0.500000 0.550598 0.000000
O O4 0.500000 0.067461 0.252234
O O5 0.729860 0.075155 0.346748
O O6 0.780160 0.083438 0.211057
O O7 0.704544 0.000000 0.260603
O O8 0.231348 0.421732 0.500000
O O9 0.245658 0.500000 0.573825
O O10 0.000000 0.449886 0.578710
O O11 0.500000 0.382884 0.867042
O O12 0.757712 0.339387 0.865065
O O13 0.500000 0.795649 0.908591
O O14 0.250000 0.750000 0.890823
O O15 0.273093 0.809489 0.000000
#
# Coordination Sequence:
#
# PCOD8270997 Si02
#       5
#     8  16  16  16  16
#     4   9  18  30  42  57  80 115 156 189 212 245
#     4   9  17  28  42  63  91 120 152 190 227 262
#     4   7  10  19  37  59  82 111 147 184 221 261
#     4  11  20  31  46  63  88 119 153 186 222 265
#     4  10  20  34  52  70  88 108 139 182 230 274
#
# _framework density 15.552844
#
# number of rings (size 3 to 8) (size 9 to 14) (size 15 to 20)
#    0.000    2.778    1.111    4.000    0.000    2.222 
#    0.000    0.000    0.000    3.333    0.000    3.111 
#    0.000    0.889    0.000    2.444    0.000    3.556 
#
# Total GULP energy -446013.697945 kJ/mol
# GULP energy per Si atom -12389.269387 kJ/mol
# Density = 1.551745 g / cm^3
# Si number density = 15.552844 Si / 1000 Ang^3
#
#
#
# Elastic Constant Matrix: (Units=GPa)
#
#
# Indices 1 2 3 4 5 6 
#
# 1 43.3298 26.2445 23.6703 0.0000 0.0000 0.0000
# 2 26.2445 80.5196 43.1693 0.0000 0.0000 0.0000
# 3 23.6703 43.1693 129.1429 0.0000 0.0000 0.0000
# 4 0.0000 0.0000 0.0000 4.3367 0.0000 0.0000
# 5 0.0000 0.0000 0.0000 0.0000 13.8893 0.0000
# 6 0.0000 0.0000 0.0000 0.0000 0.0000 21.0792
#
#
#
# Elastic Compliance Matrix: (Units=1/GPa)
#
#
# Indices 1 2 3 4 5 6 
#
# 1 0.029493 -0.008181 -0.002671 0.000000 0.000000 0.000000
# 2 -0.008181 0.017400 -0.004317 0.000000 0.000000 0.000000
# 3 -0.002671 -0.004317 0.009676 0.000000 0.000000 0.000000
# 4 0.000000 0.000000 0.000000 0.230592 0.000000 0.000000
# 5 0.000000 0.000000 0.000000 0.000000 0.071998 0.000000
# 6 0.000000 0.000000 0.000000 0.000000 0.000000 0.047440
#
#
# Mechanical properties :
#
#
# Convention : Reuss Voigt Hill
#
# Bulk Modulus (GPa) = 38.12226 48.79563 43.45894
# Shear Modulus (GPa) = 11.21879 18.52159 14.87019
#
# Velocity S-wave (km/s) = 2.68868 3.45466 3.09545
# Velocity P-wave (km/s) = 5.84836 6.88150 6.38586
#
# Compressibility (1/GPa) = 0.02623140
#
# Stress axis : x y z
#
# Youngs Moduli (GPa) = 33.90630 57.47019 103.34838
#
# Poissons Ratio (x) = 0.47016 0.27605
# Poissons Ratio (y) = 0.27738 0.44616
# Poissons Ratio (z) = 0.09057 0.24810
#
# Static dielectric constant tensor:
#      x y z
#    x 2.701850 0.000000 0.000000 
#    y 0.000000 2.740820 0.000000 
#    z 0.000000 0.000000 3.338760 
# 
# 
# High freq. dielectric constant tensor:
#      x y z
#    x 1.578050 0.000000 0.000000 
#    y 0.000000 1.559610 0.000000 
#    z 0.000000 0.000000 1.600000 
# 
# From -- ./inp_files/49729.got.cif
#   From: 2010.03.12/outbox.cif.g09.slc.cpg/sg65_25_cif.got.tgz:49729.got - 2010.04.10 20:52:16.
