data_PCOD8270967
_publ_section_title
;
Structure prediction by ZEFSAII (Michael W. Deem and Ramdas Pophale) SiO2 
 PCOD8270967
Probable space group: C M M M
;
_chemical_formula_sum "Si O2"
_cell_formula_units_Z 104
_cell_length_a 29.252957
_cell_length_b 9.161334
_cell_length_c 20.580517
_cell_angle_alpha 90.000000
_cell_angle_beta 90.000000
_cell_angle_gamma 90.000000
_cell_volume 5515.498489
_symmetry_space_group_name_H-M "C M M M"
_symmetry_group_IT_number 65
_symmetry_cell_setting 'orthorhombic'
loop_
_space_group_symop_operation_xyz
x,y,z
-x,-y,z
x,-y,-z
-x,y,-z
-x,-y,-z
x,y,-z
-x,y,z
x,-y,z
1/2+x,1/2+y,z
1/2-x,1/2-y,z
1/2+x,1/2-y,-z
1/2-x,1/2+y,-z
1/2-x,1/2-y,-z
1/2+x,1/2+y,-z
1/2-x,1/2+y,z
1/2+x,1/2-y,z
loop_
_atom_site_type_symbol
_atom_site_label
_atom_site_fract_x
_atom_site_fract_y
_atom_site_fract_z
Si Si1 0.551251 0.327412 0.318843
Si Si2 0.203812 0.171768 0.116476
Si Si3 0.205043 0.830232 0.264635
Si Si4 0.700225 0.324353 0.500000
Si Si5 0.552182 0.169043 0.813448
Si Si6 0.358301 0.328524 0.621032
Si Si7 0.617997 0.832632 0.927736
O O1 0.500000 0.277543 0.340036
O O2 0.553422 0.500000 0.308939
O O3 0.565802 0.258472 0.250393
O O4 0.588231 0.278169 0.374068
O O5 0.250000 0.250000 0.093335
O O6 0.192817 0.213249 0.191164
O O7 0.162752 0.232626 0.073727
O O8 0.209192 0.000000 0.105640
O O9 0.250000 0.750000 0.289720
O O10 0.163902 0.780157 0.310803
O O11 0.215262 0.000000 0.270962
O O12 0.706478 0.500000 0.500000
O O13 0.750000 0.250000 0.500000
O O14 0.670603 0.263906 0.438908
O O15 0.500000 0.199105 0.832649
O O16 0.581686 0.223600 0.874751
O O17 0.560862 0.000000 0.798085
O O18 0.356716 0.500000 0.611662
O O19 0.631760 0.000000 0.913354
O O20 0.596530 0.818061 0.000000
#
# Coordination Sequence:
#
# PCOD8270967 Si02
#       7
#    16  16  16   8  16  16  16
#     4   9  17  31  52  75  98 126 162 202 245 293
#     4  10  20  34  52  72  95 125 162 206 253 298
#     4   9  17  29  46  68  93 119 152 195 241 287
#     4  10  20  34  51  71 101 137 170 202 237 284
#     4   9  18  33  53  77 103 129 160 202 250 296
#     4   9  17  30  48  71  99 130 161 197 241 283
#     4  10  21  35  50  70  97 129 164 200 241 295
#
# _framework density 18.855957
#
# number of rings (size 3 to 8) (size 9 to 14) (size 15 to 20)
#    0.000    2.615    0.000    1.846    0.000    3.385 
#    0.000    3.462    0.000    2.308    0.000    3.231 
#    0.000    3.077    0.000    0.000    0.000    0.000 
#
# Total GULP energy -644599.894847 kJ/mol
# GULP energy per Si atom -12396.151824 kJ/mol
# Density = 1.881304 g / cm^3
# Si number density = 18.855957 Si / 1000 Ang^3
#
#
#
# Elastic Constant Matrix: (Units=GPa)
#
#
# Indices 1 2 3 4 5 6 
#
# 1 137.1470 30.8411 67.9384 0.0000 0.0000 0.0000
# 2 30.8411 36.8673 21.0484 0.0000 0.0000 0.0000
# 3 67.9384 21.0484 88.2375 0.0000 0.0000 0.0000
# 4 0.0000 0.0000 0.0000 19.1890 0.0000 0.0000
# 5 0.0000 0.0000 0.0000 0.0000 19.0799 0.0000
# 6 0.0000 0.0000 0.0000 0.0000 0.0000 26.3740
#
#
#
# Elastic Compliance Matrix: (Units=1/GPa)
#
#
# Indices 1 2 3 4 5 6 
#
# 1 0.012802 -0.005883 -0.008454 0.000000 0.000000 0.000000
# 2 -0.005883 0.034104 -0.003606 0.000000 0.000000 0.000000
# 3 -0.008454 -0.003606 0.018702 0.000000 0.000000 0.000000
# 4 0.000000 0.000000 0.000000 0.052113 0.000000 0.000000
# 5 0.000000 0.000000 0.000000 0.000000 0.052411 0.000000
# 6 0.000000 0.000000 0.000000 0.000000 0.000000 0.037916
#
#
# Mechanical properties :
#
#
# Convention : Reuss Voigt Hill
#
# Bulk Modulus (GPa) = 33.64318 55.76751 44.70535
# Shear Modulus (GPa) = 19.69734 22.42350 21.06042
#
# Velocity S-wave (km/s) = 3.23557 3.45222 3.34565
# Velocity P-wave (km/s) = 5.64265 6.74760 6.21971
#
# Compressibility (1/GPa) = 0.02972370
#
# Stress axis : x y z
#
# Youngs Moduli (GPa) = 78.11248 29.32179 53.47033
#
# Poissons Ratio (x) = 0.17250 0.45201
# Poissons Ratio (y) = 0.45955 0.19280
# Poissons Ratio (z) = 0.66033 0.10572
#
# Static dielectric constant tensor:
#      x y z
#    x 3.713070 0.000000 0.000000 
#    y 0.000000 3.234690 0.000000 
#    z 0.000000 0.000000 3.509120 
# 
# 
# High freq. dielectric constant tensor:
#      x y z
#    x 1.740590 0.000000 0.000000 
#    y 0.000000 1.708910 0.000000 
#    z 0.000000 0.000000 1.723590 
# 
# From -- ./inp_files/65850.got.cif
#   From: 2010.03.12/outbox.cif.g09.slc.cpg/sg65_33_cif.got.tgz:65850.got - 2010.04.10 20:52:16.
