data_PCOD8270676
_publ_section_title
;
Structure prediction by ZEFSAII (Michael W. Deem and Ramdas Pophale) SiO2 
 PCOD8270676
Probable space group: C M M M
;
_chemical_formula_sum "Si O2"
_cell_formula_units_Z 88
_cell_length_a 8.891396
_cell_length_b 24.786477
_cell_length_c 21.727651
_cell_angle_alpha 90.000000
_cell_angle_beta 90.000000
_cell_angle_gamma 90.000000
_cell_volume 4788.478403
_symmetry_space_group_name_H-M "C M M M"
_symmetry_group_IT_number 65
_symmetry_cell_setting 'orthorhombic'
loop_
_space_group_symop_operation_xyz
x,y,z
-x,-y,z
x,-y,-z
-x,y,-z
-x,-y,-z
x,y,-z
-x,y,z
x,-y,z
1/2+x,1/2+y,z
1/2-x,1/2-y,z
1/2+x,1/2-y,-z
1/2-x,1/2+y,-z
1/2-x,1/2-y,-z
1/2+x,1/2+y,-z
1/2-x,1/2+y,z
1/2+x,1/2-y,z
loop_
_atom_site_type_symbol
_atom_site_label
_atom_site_fract_x
_atom_site_fract_y
_atom_site_fract_z
Si Si1 0.820844 0.500000 0.931008
Si Si2 0.677901 0.500000 0.607217
Si Si3 0.323870 0.694670 0.203196
Si Si4 0.327076 0.892017 0.430413
Si Si5 0.824796 0.588358 0.836992
Si Si6 0.823251 0.194967 0.345055
Si Si7 0.327273 0.000000 0.263478
O O1 0.766425 0.553846 0.895587
O O2 0.000000 0.500000 0.930566
O O3 0.754620 0.500000 0.000000
O O4 0.500000 0.500000 0.599104
O O5 0.747877 0.550653 0.572834
O O6 0.715929 0.500000 0.679344
O O7 0.500000 0.700047 0.193814
O O8 0.250000 0.750000 0.178848
O O9 0.264910 0.644245 0.163946
O O10 0.279715 0.684978 0.274192
O O11 0.314714 0.869888 0.500000
O O12 0.500000 0.897213 0.409702
O O13 0.242071 0.853225 0.384256
O O14 0.793759 0.553555 0.775837
O O15 0.000000 0.601892 0.843047
O O16 0.750000 0.250000 0.369271
O O17 0.000000 0.198498 0.354980
O O18 0.500000 0.000000 0.285969
#
# Coordination Sequence:
#
# PCOD8270676 Si02
#       7
#     8   8  16  16  16  16   8
#     4   8  15  30  53  80 109 142 178 212 247 290
#     4  12  24  36  53  76 101 130 166 210 261 314
#     4  10  20  33  51  76 105 136 168 207 255 304
#     4  11  24  40  56  73  96 130 170 211 257 310
#     4   9  17  30  51  79 107 137 173 209 248 296
#     4  10  21  37  57  80 104 132 167 208 257 309
#     4   9  18  32  51  75 104 135 164 201 252 309
#
# _framework density 18.377445000000002
#
# number of rings (size 3 to 8) (size 9 to 14) (size 15 to 20)
#    0.000    2.091    0.000    4.909    0.000    8.727 
#    0.000    1.364    0.000    1.636    0.000    0.000 
#    0.000    0.000    0.000    0.000    0.000    0.000 
#
# Total GULP energy -545713.894128 kJ/mol
# GULP energy per Si atom -12402.588503 kJ/mol
# Density = 1.833562 g / cm^3
# Si number density = 18.377445 Si / 1000 Ang^3
#
#
#
# Elastic Constant Matrix: (Units=GPa)
#
#
# Indices 1 2 3 4 5 6 
#
# 1 77.3083 46.5945 27.5809 0.0000 0.0000 0.0000
# 2 46.5945 150.9058 42.4355 0.0000 0.0000 0.0000
# 3 27.5809 42.4355 77.3822 0.0000 0.0000 0.0000
# 4 0.0000 0.0000 0.0000 -94.1190 0.0000 0.0000
# 5 0.0000 0.0000 0.0000 0.0000 16.3125 0.0000
# 6 0.0000 0.0000 0.0000 0.0000 0.0000 39.0936
#
#
#
# Elastic Compliance Matrix: (Units=1/GPa)
#
#
# Indices 1 2 3 4 5 6 
#
# 1 0.016745 -0.004129 -0.003704 0.000000 0.000000 0.000000
# 2 -0.004129 0.008853 -0.003383 0.000000 0.000000 0.000000
# 3 -0.003704 -0.003383 0.016098 0.000000 0.000000 0.000000
# 4 0.000000 0.000000 0.000000 -0.010625 0.000000 0.000000
# 5 0.000000 0.000000 0.000000 0.000000 0.061303 0.000000
# 6 0.000000 0.000000 0.000000 0.000000 0.000000 0.025580
#
#
# Mechanical properties :
#
#
# Convention : Reuss Voigt Hill
#
# Bulk Modulus (GPa) = 51.90992 59.86866 55.88929
# Shear Modulus (GPa) = 34.05813 4.85644 19.45728
#
# Velocity S-wave (km/s) = 4.30962 1.62737 3.25739
# Velocity P-wave (km/s) = 7.28503 6.01491 6.68022
#
# Compressibility (1/GPa) = 0.01926414
#
# Stress axis : x y z
#
# Youngs Moduli (GPa) = 59.71870 112.95838 62.11767
#
# Poissons Ratio (x) = 0.46637 0.23010
# Poissons Ratio (y) = 0.24656 0.21016
# Poissons Ratio (z) = 0.22121 0.38216
#
# Static dielectric constant tensor:
#      x y z
#    x 3.311720 0.000000 0.000000 
#    y 0.000000 3.480000 0.000000 
#    z 0.000000 0.000000 3.325790 
# 
# 
# High freq. dielectric constant tensor:
#      x y z
#    x 1.711350 0.000000 0.000000 
#    y 0.000000 1.722180 0.000000 
#    z 0.000000 0.000000 1.690990 
# 
# From -- ./inp_files/59923.got.cif
#   From: 2010.03.12/outbox.cif.g09.slc.cpg/sg65_30_cif.got.tgz:59923.got - 2010.04.10 20:52:16.
