data_PCOD8270383
_publ_section_title
;
Structure prediction by ZEFSAII (Michael W. Deem and Ramdas Pophale) SiO2 
 PCOD8270383
Probable space group: C M M M
;
_chemical_formula_sum "Si O2"
_cell_formula_units_Z 72
_cell_length_a 31.939163
_cell_length_b 9.231671
_cell_length_c 13.592343
_cell_angle_alpha 90.000000
_cell_angle_beta 90.000000
_cell_angle_gamma 90.000000
_cell_volume 4007.727409
_symmetry_space_group_name_H-M "C M M M"
_symmetry_group_IT_number 65
_symmetry_cell_setting 'orthorhombic'
loop_
_space_group_symop_operation_xyz
x,y,z
-x,-y,z
x,-y,-z
-x,y,-z
-x,-y,-z
x,y,-z
-x,y,z
x,-y,z
1/2+x,1/2+y,z
1/2-x,1/2-y,z
1/2+x,1/2-y,-z
1/2-x,1/2+y,-z
1/2-x,1/2-y,-z
1/2+x,1/2+y,-z
1/2-x,1/2+y,z
1/2+x,1/2-y,z
loop_
_atom_site_type_symbol
_atom_site_label
_atom_site_fract_x
_atom_site_fract_y
_atom_site_fract_z
Si Si1 0.331799 0.667138 0.113220
Si Si2 0.500000 0.672625 0.110786
Si Si3 0.876094 0.669223 0.388218
Si Si4 0.790890 0.329915 0.717145
Si Si5 0.917270 0.831814 0.781341
O O1 0.320226 0.500000 0.133375
O O2 0.300610 0.768527 0.174356
O O3 0.379603 0.698038 0.143265
O O4 0.326306 0.708750 0.000000
O O5 0.500000 0.500000 0.105906
O O6 0.459139 0.729763 0.168085
O O7 0.500000 0.735705 0.000000
O O8 0.882089 0.720891 0.500000
O O9 0.884330 0.500000 0.376179
O O10 0.828953 0.708113 0.355570
O O11 0.909941 0.750894 0.321589
O O12 0.782398 0.500000 0.724279
O O13 0.750000 0.250000 0.674295
O O14 0.921912 0.000000 0.756500
#
# Coordination Sequence:
#
# PCOD8270383 Si02
#       5
#    16   8  16  16  16
#     4   9  17  30  48  69  95 128 163 197 235 282
#     4   9  16  28  50  79 108 134 159 193 238 283
#     4   9  19  36  54  70  93 127 162 197 242 291
#     4  10  20  33  49  70  95 122 156 199 243 288
#     4   9  17  30  50  76 101 126 161 201 238 280
#
# _framework density 17.965292999999999
#
# number of rings (size 3 to 8) (size 9 to 14) (size 15 to 20)
#    0.000    2.778    0.000    1.333    0.000    5.333 
#    0.000    1.111    0.000    6.000    0.000    0.000 
#    0.000    0.000    0.000    0.000    0.000    0.000 
#
# Total GULP energy -446463.965859 kJ/mol
# GULP energy per Si atom -12401.776829 kJ/mol
# Density = 1.792440 g / cm^3
# Si number density = 17.965293 Si / 1000 Ang^3
#
#
#
# Elastic Constant Matrix: (Units=GPa)
#
#
# Indices 1 2 3 4 5 6 
#
# 1 106.5859 37.9653 52.8878 0.0000 0.0000 0.0000
# 2 37.9653 53.0795 43.7777 0.0000 0.0000 0.0000
# 3 52.8878 43.7777 140.7385 0.0000 0.0000 0.0000
# 4 0.0000 0.0000 0.0000 27.2977 0.0000 0.0000
# 5 0.0000 0.0000 0.0000 0.0000 18.4701 0.0000
# 6 0.0000 0.0000 0.0000 0.0000 0.0000 22.8673
#
#
#
# Elastic Compliance Matrix: (Units=1/GPa)
#
#
# Indices 1 2 3 4 5 6 
#
# 1 0.013337 -0.007271 -0.002750 0.000000 0.000000 0.000000
# 2 -0.007271 0.029305 -0.006383 0.000000 0.000000 0.000000
# 3 -0.002750 -0.006383 0.010124 0.000000 0.000000 0.000000
# 4 0.000000 0.000000 0.000000 0.036633 0.000000 0.000000
# 5 0.000000 0.000000 0.000000 0.000000 0.054141 0.000000
# 6 0.000000 0.000000 0.000000 0.000000 0.000000 0.043731
#
#
# Mechanical properties :
#
#
# Convention : Reuss Voigt Hill
#
# Bulk Modulus (GPa) = 50.10656 63.29616 56.70136
# Shear Modulus (GPa) = 22.05253 24.77857 23.41555
#
# Velocity S-wave (km/s) = 3.50738 3.71785 3.61415
# Velocity P-wave (km/s) = 6.65985 7.33068 7.00330
#
# Compressibility (1/GPa) = 0.01995746
#
# Stress axis : x y z
#
# Youngs Moduli (GPa) = 74.98210 34.12419 98.77204
#
# Poissons Ratio (x) = 0.24811 0.27163
# Poissons Ratio (y) = 0.54519 0.63047
# Poissons Ratio (z) = 0.20620 0.21782
#
# Static dielectric constant tensor:
#      x y z
#    x 3.356170 0.000000 0.000000 
#    y 0.000000 3.170360 0.000000 
#    z 0.000000 0.000000 3.331230 
# 
# 
# High freq. dielectric constant tensor:
#      x y z
#    x 1.692900 0.000000 0.000000 
#    y 0.000000 1.680040 0.000000 
#    z 0.000000 0.000000 1.693740 
# 
# From -- ./inp_files/36548.got.cif
#   From: 2010.03.12/outbox.cif.g09.slc.cpg/sg65_19_cif.got.tgz:36548.got - 2010.04.10 20:52:16.
