data_PCOD8270397
_publ_section_title
;
Structure prediction by ZEFSAII (Michael W. Deem and Ramdas Pophale) SiO2 
 PCOD8270397
Probable space group: C M M M
;
_chemical_formula_sum "Si O2"
_cell_formula_units_Z 104
_cell_length_a 9.115580
_cell_length_b 19.909849
_cell_length_c 32.493807
_cell_angle_alpha 90.000000
_cell_angle_beta 90.000000
_cell_angle_gamma 90.000000
_cell_volume 5897.295227
_symmetry_space_group_name_H-M "C M M M"
_symmetry_group_IT_number 65
_symmetry_cell_setting 'orthorhombic'
loop_
_space_group_symop_operation_xyz
x,y,z
-x,-y,z
x,-y,-z
-x,y,-z
-x,-y,-z
x,y,-z
-x,y,z
x,-y,z
1/2+x,1/2+y,z
1/2-x,1/2-y,z
1/2+x,1/2-y,-z
1/2-x,1/2+y,-z
1/2-x,1/2-y,-z
1/2+x,1/2+y,-z
1/2-x,1/2+y,z
1/2+x,1/2-y,z
loop_
_atom_site_type_symbol
_atom_site_label
_atom_site_fract_x
_atom_site_fract_y
_atom_site_fract_z
Si Si1 0.828060 0.818548 0.353206
Si Si2 0.831215 0.078741 0.103039
Si Si3 0.669899 0.920208 0.589230
Si Si4 0.672947 0.926905 0.500000
Si Si5 0.171881 0.817381 0.741339
Si Si6 0.173901 0.926162 0.195405
Si Si7 0.828826 0.682743 0.047668
O O1 0.750000 0.750000 0.367721
O O2 0.770497 0.882087 0.378385
O O3 0.790668 0.834352 0.305822
O O4 0.000000 0.809733 0.360710
O O5 0.783693 0.097978 0.149561
O O6 0.728478 0.118492 0.072015
O O7 0.000000 0.098464 0.095093
O O8 0.807392 0.000000 0.095408
O O9 0.500000 0.904367 0.598538
O O10 0.715437 0.891785 0.543416
O O11 0.698964 0.000000 0.592187
O O12 0.500000 0.937331 0.500000
O O13 0.748415 0.000000 0.500000
O O14 0.250000 0.750000 0.755809
O O15 0.236848 0.876050 0.770158
O O16 0.000000 0.807743 0.748024
O O17 0.000000 0.930515 0.198715
O O18 0.240824 0.000000 0.204033
O O19 0.750000 0.750000 0.063825
O O20 0.000000 0.691482 0.055690
O O21 0.792181 0.670467 0.000000
#
# Coordination Sequence:
#
# PCOD8270397 Si02
#       7
#    16  16  16   8  16  16  16
#     4  10  20  33  49  70  98 131 165 201 242 287
#     4   9  18  33  53  76 102 132 164 198 239 289
#     4   9  17  31  52  75  98 125 158 197 241 290
#     4   7  12  26  48  71  94 123 157 191 234 289
#     4   9  18  32  50  70  94 126 161 198 238 283
#     4   8  15  30  51  73  97 126 160 196 235 281
#     4  10  21  36  53  73  99 131 166 205 247 290
#
# _framework density 17.635202
#
# number of rings (size 3 to 8) (size 9 to 14) (size 15 to 20)
#    0.000    3.000    0.000    2.769    0.000    3.692 
#    0.000    6.154    0.000    2.769    0.000    0.000 
#    0.000    0.000    0.000    0.000    0.000    0.000 
#
# Total GULP energy -644556.239867 kJ/mol
# GULP energy per Si atom -12395.312305 kJ/mol
# Density = 1.759506 g / cm^3
# Si number density = 17.635202 Si / 1000 Ang^3
#
#
#
# Elastic Constant Matrix: (Units=GPa)
#
#
# Indices 1 2 3 4 5 6 
#
# 1 58.4167 44.3947 44.6931 0.0000 0.0000 0.0000
# 2 44.3947 96.5068 71.6797 0.0000 0.0000 0.0000
# 3 44.6931 71.6797 103.7777 0.0000 0.0000 0.0000
# 4 0.0000 0.0000 0.0000 19.9740 0.0000 0.0000
# 5 0.0000 0.0000 0.0000 0.0000 20.3667 0.0000
# 6 0.0000 0.0000 0.0000 0.0000 0.0000 30.9935
#
#
#
# Elastic Compliance Matrix: (Units=1/GPa)
#
#
# Indices 1 2 3 4 5 6 
#
# 1 0.028347 -0.008158 -0.006573 0.000000 0.000000 0.000000
# 2 -0.008158 0.023625 -0.012805 0.000000 0.000000 0.000000
# 3 -0.006573 -0.012805 0.021311 0.000000 0.000000 0.000000
# 4 0.000000 0.000000 0.000000 0.050065 0.000000 0.000000
# 5 0.000000 0.000000 0.000000 0.000000 0.049100 0.000000
# 6 0.000000 0.000000 0.000000 0.000000 0.000000 0.032265
#
#
# Mechanical properties :
#
#
# Convention : Reuss Voigt Hill
#
# Bulk Modulus (GPa) = 54.90993 64.47068 59.69030
# Shear Modulus (GPa) = 18.80713 20.79577 19.80145
#
# Velocity S-wave (km/s) = 3.26920 3.43770 3.35451
# Velocity P-wave (km/s) = 6.74199 7.23840 6.99460
#
# Compressibility (1/GPa) = 0.01821164
#
# Stress axis : x y z
#
# Youngs Moduli (GPa) = 35.27687 42.32716 46.92336
#
# Poissons Ratio (x) = 0.34530 0.30845
# Poissons Ratio (y) = 0.28778 0.60085
# Poissons Ratio (z) = 0.23189 0.54200
#
# Static dielectric constant tensor:
#      x y z
#    x 3.029930 0.000000 0.000000 
#    y 0.000000 3.320140 0.000000 
#    z 0.000000 0.000000 3.466480 
# 
# 
# High freq. dielectric constant tensor:
#      x y z
#    x 1.659930 0.000000 0.000000 
#    y 0.000000 1.674610 0.000000 
#    z 0.000000 0.000000 1.689090 
# 
# From -- ./inp_files/76928.got.cif
#   From: 2010.03.12/outbox.cif.g09.slc.cpg/sg65_39_cif.got.tgz:76928.got - 2010.04.10 20:52:16.
