data_PCOD8270105
_publ_section_title
;
Structure prediction by ZEFSAII (Michael W. Deem and Ramdas Pophale) SiO2 
 PCOD8270105
Probable space group: C M M M
;
_chemical_formula_sum "Si O2"
_cell_formula_units_Z 64
_cell_length_a 14.331037
_cell_length_b 27.614644
_cell_length_c 9.129473
_cell_angle_alpha 90.000000
_cell_angle_beta 90.000000
_cell_angle_gamma 90.000000
_cell_volume 3612.956849
_symmetry_space_group_name_H-M "C M M M"
_symmetry_group_IT_number 65
_symmetry_cell_setting 'orthorhombic'
loop_
_space_group_symop_operation_xyz
x,y,z
-x,-y,z
x,-y,-z
-x,y,-z
-x,-y,-z
x,y,-z
-x,y,z
x,-y,z
1/2+x,1/2+y,z
1/2-x,1/2-y,z
1/2+x,1/2-y,-z
1/2-x,1/2+y,-z
1/2-x,1/2-y,-z
1/2+x,1/2+y,-z
1/2-x,1/2+y,z
1/2+x,1/2-y,z
loop_
_atom_site_type_symbol
_atom_site_label
_atom_site_fract_x
_atom_site_fract_y
_atom_site_fract_z
Si Si1 0.603682 0.824291 0.332331
Si Si2 0.854936 0.233788 0.159625
Si Si3 0.393665 0.443831 0.668631
Si Si4 0.721429 0.365143 0.173271
O O1 0.637024 0.822526 0.500000
O O2 0.500000 0.847305 0.318577
O O3 0.595441 0.768879 0.274808
O O4 0.676198 0.856715 0.241973
O O5 0.750000 0.250000 0.138404
O O6 0.850739 0.178153 0.216144
O O7 0.905032 0.236756 0.000000
O O8 0.378540 0.429336 0.500000
O O9 0.500000 0.432660 0.715881
O O10 0.371208 0.500000 0.692763
O O11 0.321666 0.414692 0.768479
O O12 0.735268 0.367975 0.000000
#
# Coordination Sequence:
#
# PCOD8270105 Si02
#       4
#    16  16  16  16
#     4  10  20  32  48  72 101 135 174 211 247 290
#     4   8  16  30  45  65  95 129 164 201 242 287
#     4   9  19  36  56  77 101 129 161 200 249 301
#     4  10  20  33  51  75 102 134 169 205 249 298
#
# _framework density 17.714023000000001
#
# number of rings (size 3 to 8) (size 9 to 14) (size 15 to 20)
#    0.000    2.750    0.000    3.750    0.000    9.500 
#    0.000    6.250    0.000    0.750    0.000    5.250 
#    0.000    0.000    0.000    0.000    0.000    0.000 
#
# Total GULP energy -396611.953888 kJ/mol
# GULP energy per Si atom -12394.123559 kJ/mol
# Density = 1.767371 g / cm^3
# Si number density = 17.714023 Si / 1000 Ang^3
#
#
#
# Elastic Constant Matrix: (Units=GPa)
#
#
# Indices 1 2 3 4 5 6 
#
# 1 92.4354 46.6693 55.8171 0.0000 0.0000 0.0000
# 2 46.6693 84.2128 49.6790 0.0000 0.0000 0.0000
# 3 55.8171 49.6790 109.2819 0.0000 0.0000 0.0000
# 4 0.0000 0.0000 0.0000 1929.2163 0.0000 0.0000
# 5 0.0000 0.0000 0.0000 0.0000 -222.0292 0.0000
# 6 0.0000 0.0000 0.0000 0.0000 0.0000 22.2131
#
#
#
# Elastic Compliance Matrix: (Units=1/GPa)
#
#
# Indices 1 2 3 4 5 6 
#
# 1 0.017678 -0.006108 -0.006252 0.000000 0.000000 0.000000
# 2 -0.006108 0.018337 -0.005216 0.000000 0.000000 0.000000
# 3 -0.006252 -0.005216 0.014715 0.000000 0.000000 0.000000
# 4 0.000000 0.000000 0.000000 0.000518 0.000000 0.000000
# 5 0.000000 0.000000 0.000000 0.000000 -0.004504 0.000000
# 6 0.000000 0.000000 0.000000 0.000000 0.000000 0.045018
#
#
# Mechanical properties :
#
#
# Convention : Reuss Voigt Hill
#
# Bulk Modulus (GPa) = 64.19857 65.58454 64.89155
# Shear Modulus (GPa) = 37.84773 354.79768 196.32271
#
# Velocity S-wave (km/s) = 4.62735 14.16781 10.53896
# Velocity P-wave (km/s) = 8.05420 17.45681 13.59431
#
# Compressibility (1/GPa) = 0.01557667
#
# Stress axis : x y z
#
# Youngs Moduli (GPa) = 56.56779 54.53512 67.95666
#
# Poissons Ratio (x) = 0.33312 0.42489
# Poissons Ratio (y) = 0.34554 0.35446
# Poissons Ratio (z) = 0.35368 0.28445
#
# Static dielectric constant tensor:
#      x y z
#    x 3.159550 0.000000 0.000000 
#    y 0.000000 3.354010 0.000000 
#    z 0.000000 0.000000 3.330020 
# 
# 
# High freq. dielectric constant tensor:
#      x y z
#    x 1.677170 0.000000 0.000000 
#    y 0.000000 1.663110 0.000000 
#    z 0.000000 0.000000 1.691590 
# 
# From -- ./inp_files/6696.got.cif
#   From: 2010.03.12/outbox.cif.g09.slc.cpg/sg65_4_cif.got.tgz:6696.got - 2010.04.10 20:52:16.
