data_PCOD8270553
_publ_section_title
;
Structure prediction by ZEFSAII (Michael W. Deem and Ramdas Pophale) SiO2 
 PCOD8270553
Probable space group: C M M M
;
_chemical_formula_sum "Si O2"
_cell_formula_units_Z 112
_cell_length_a 22.473414
_cell_length_b 29.022054
_cell_length_c 9.596573
_cell_angle_alpha 90.000000
_cell_angle_beta 90.000000
_cell_angle_gamma 90.000000
_cell_volume 6259.121319
_symmetry_space_group_name_H-M "C M M M"
_symmetry_group_IT_number 65
_symmetry_cell_setting 'orthorhombic'
loop_
_space_group_symop_operation_xyz
x,y,z
-x,-y,z
x,-y,-z
-x,y,-z
-x,-y,-z
x,y,-z
-x,y,z
x,-y,z
1/2+x,1/2+y,z
1/2-x,1/2-y,z
1/2+x,1/2-y,-z
1/2-x,1/2+y,-z
1/2-x,1/2-y,-z
1/2+x,1/2+y,-z
1/2-x,1/2+y,z
1/2+x,1/2-y,z
loop_
_atom_site_type_symbol
_atom_site_label
_atom_site_fract_x
_atom_site_fract_y
_atom_site_fract_z
Si Si1 0.566844 0.277564 0.665316
Si Si2 0.876431 0.315699 0.662955
Si Si3 0.627740 0.369386 0.661966
Si Si4 0.568629 0.446966 0.838424
Si Si5 0.679358 0.052003 0.161881
Si Si6 0.763679 0.627763 0.659169
Si Si7 0.433517 0.891585 0.841507
O O1 0.566930 0.280061 0.500000
O O2 0.500000 0.269368 0.722241
O O3 0.610417 0.236304 0.714670
O O4 0.590942 0.326175 0.723075
O O5 0.890178 0.320404 0.500000
O O6 0.808285 0.330083 0.698103
O O7 0.922184 0.348644 0.741557
O O8 0.613598 0.378598 0.500000
O O9 0.610893 0.415160 0.745633
O O10 0.696585 0.355987 0.684009
O O11 0.500000 0.436785 0.801711
O O12 0.584062 0.500000 0.804558
O O13 0.580974 0.436496 0.000000
O O14 0.724955 0.083462 0.246015
O O15 0.611517 0.066947 0.192411
O O16 0.687033 0.000000 0.214262
O O17 0.695300 0.056734 0.000000
O O18 0.774418 0.612733 0.500000
O O19 0.500000 0.910419 0.816283
O O20 0.424789 0.874495 0.000000
#
# Coordination Sequence:
#
# PCOD8270553 Si02
#       7
#    16  16  16  16  16  16  16
#     4   9  17  29  48  74  99 123 155 196 237 278
#     4   9  17  31  50  69  93 128 165 195 228 277
#     4  10  20  33  50  74 102 128 157 196 240 282
#     4   9  19  36  55  74  98 128 161 197 238 286
#     4   9  18  32  49  68  91 123 161 198 239 286
#     4   9  19  33  48  69  96 127 162 198 235 277
#     4   9  17  29  46  69  96 123 154 197 243 284
#
# _framework density 17.893885000000001
#
# number of rings (size 3 to 8) (size 9 to 14) (size 15 to 20)
#    0.000    2.857    0.000    1.286    0.000    4.286 
#    0.000    8.571    0.000    2.571    0.000    9.000 
#    0.000    0.000    0.000    0.000    0.000    0.000 
#
# Total GULP energy -694326.192805 kJ/mol
# GULP energy per Si atom -12398.682014 kJ/mol
# Density = 1.785316 g / cm^3
# Si number density = 17.893885 Si / 1000 Ang^3
#
#
#
# Elastic Constant Matrix: (Units=GPa)
#
#
# Indices 1 2 3 4 5 6 
#
# 1 95.8894 54.5490 30.7271 0.0000 0.0000 0.0000
# 2 54.5490 129.6075 41.0459 0.0000 0.0000 0.0000
# 3 30.7271 41.0459 42.2045 0.0000 0.0000 0.0000
# 4 0.0000 0.0000 0.0000 16.3957 0.0000 0.0000
# 5 0.0000 0.0000 0.0000 0.0000 24.3713 0.0000
# 6 0.0000 0.0000 0.0000 0.0000 0.0000 24.7141
#
#
#
# Elastic Compliance Matrix: (Units=1/GPa)
#
#
# Indices 1 2 3 4 5 6 
#
# 1 0.014985 -0.004121 -0.006902 0.000000 0.000000 0.000000
# 2 -0.004121 0.012283 -0.008946 0.000000 0.000000 0.000000
# 3 -0.006902 -0.008946 0.037419 0.000000 0.000000 0.000000
# 4 0.000000 0.000000 0.000000 0.060992 0.000000 0.000000
# 5 0.000000 0.000000 0.000000 0.000000 0.041032 0.000000
# 6 0.000000 0.000000 0.000000 0.000000 0.000000 0.040463
#
#
# Mechanical properties :
#
#
# Convention : Reuss Voigt Hill
#
# Bulk Modulus (GPa) = 40.40390 57.81614 49.11002
# Shear Modulus (GPa) = 19.58024 22.52150 21.05087
#
# Velocity S-wave (km/s) = 3.31152 3.55154 3.43363
# Velocity P-wave (km/s) = 6.10330 7.01418 6.57453
#
# Compressibility (1/GPa) = 0.02475008
#
# Stress axis : x y z
#
# Youngs Moduli (GPa) = 66.73511 81.41313 26.72441
#
# Poissons Ratio (x) = 0.33550 0.18445
# Poissons Ratio (y) = 0.27501 0.23906
# Poissons Ratio (z) = 0.46059 0.72829
#
# Static dielectric constant tensor:
#      x y z
#    x 3.368920 0.000000 0.000000 
#    y 0.000000 3.345100 0.000000 
#    z 0.000000 0.000000 3.158390 
# 
# 
# High freq. dielectric constant tensor:
#      x y z
#    x 1.697250 0.000000 0.000000 
#    y 0.000000 1.688780 0.000000 
#    z 0.000000 0.000000 1.672280 
# 
# From -- ./inp_files/29601.got.cif
#   From: 2010.03.12/outbox.cif.g09.slc.cpg/sg65_15_cif.got.tgz:29601.got - 2010.04.10 20:52:16.
