data_PCOD8270508
_publ_section_title
;
Structure prediction by ZEFSAII (Michael W. Deem and Ramdas Pophale) SiO2 
 PCOD8270508
Probable space group: C M M M
;
_chemical_formula_sum "Si O2"
_cell_formula_units_Z 80
_cell_length_a 19.084513
_cell_length_b 9.109412
_cell_length_c 25.609196
_cell_angle_alpha 90.000000
_cell_angle_beta 90.000000
_cell_angle_gamma 90.000000
_cell_volume 4452.125221
_symmetry_space_group_name_H-M "C M M M"
_symmetry_group_IT_number 65
_symmetry_cell_setting 'orthorhombic'
loop_
_space_group_symop_operation_xyz
x,y,z
-x,-y,z
x,-y,-z
-x,y,-z
-x,-y,-z
x,y,-z
-x,y,z
x,-y,z
1/2+x,1/2+y,z
1/2-x,1/2-y,z
1/2+x,1/2-y,-z
1/2-x,1/2+y,-z
1/2-x,1/2-y,-z
1/2+x,1/2+y,-z
1/2-x,1/2+y,z
1/2+x,1/2-y,z
loop_
_atom_site_type_symbol
_atom_site_label
_atom_site_fract_x
_atom_site_fract_y
_atom_site_fract_z
Si Si1 0.416681 0.665042 0.442538
Si Si2 0.417075 0.168739 0.139180
Si Si3 0.083412 0.165619 0.757993
Si Si4 0.083664 0.664910 0.656901
Si Si5 0.321015 0.670603 0.060983
O O1 0.392227 0.721072 0.500000
O O2 0.500000 0.665696 0.439985
O O3 0.389218 0.500000 0.433036
O O4 0.386088 0.768913 0.397181
O O5 0.500000 0.182391 0.134619
O O6 0.389346 0.241828 0.192616
O O7 0.385623 0.255426 0.090404
O O8 0.392752 0.000000 0.138383
O O9 0.112594 0.240367 0.705339
O O10 0.000000 0.165040 0.757015
O O11 0.112634 0.000000 0.761549
O O12 0.112073 0.500000 0.662580
O O13 0.000000 0.667023 0.656629
O O14 0.315700 0.500000 0.075677
O O15 0.250000 0.750000 0.078847
O O16 0.334915 0.694082 0.000000
#
# Coordination Sequence:
#
# PCOD8270508 Si02
#       5
#    16  16  16  16  16
#     4   8  13  20  28  38  55  83 122 167 212 258
#     4  10  20  33  50  73 100 127 157 196 239 281
#     4   9  16  26  40  57  79 108 142 180 223 271
#     4   9  15  21  30  45  66  93 127 169 217 266
#     4  10  21  37  56  76  99 128 161 195 232 278
#
# _framework density 17.968945999999999
#
# number of rings (size 3 to 8) (size 9 to 14) (size 15 to 20)
#    0.000    2.800    0.000    3.000    0.000    8.000 
#    0.000    4.000    0.000    0.000    0.000    0.000 
#    0.000    0.000    0.000    0.000    0.000    1.000 
#
# Total GULP energy -495915.198973 kJ/mol
# GULP energy per Si atom -12397.879974 kJ/mol
# Density = 1.792805 g / cm^3
# Si number density = 17.968946 Si / 1000 Ang^3
#
#
#
# Elastic Constant Matrix: (Units=GPa)
#
#
# Indices 1 2 3 4 5 6 
#
# 1 14.9582 24.3916 26.1872 0.0000 0.0000 0.0000
# 2 24.3916 164.1103 84.2370 0.0000 0.0000 0.0000
# 3 26.1872 84.2370 125.9144 0.0000 0.0000 0.0000
# 4 0.0000 0.0000 0.0000 38.6968 0.0000 0.0000
# 5 0.0000 0.0000 0.0000 0.0000 1.2903 0.0000
# 6 0.0000 0.0000 0.0000 0.0000 0.0000 16.6119
#
#
#
# Elastic Compliance Matrix: (Units=1/GPa)
#
#
# Indices 1 2 3 4 5 6 
#
# 1 0.110210 -0.007029 -0.018219 0.000000 0.000000 0.000000
# 2 -0.007029 0.009729 -0.005047 0.000000 0.000000 0.000000
# 3 -0.018219 -0.005047 0.015107 0.000000 0.000000 0.000000
# 4 0.000000 0.000000 0.000000 0.025842 0.000000 0.000000
# 5 0.000000 0.000000 0.000000 0.000000 0.775041 0.000000
# 6 0.000000 0.000000 0.000000 0.000000 0.000000 0.060198
#
#
# Mechanical properties :
#
#
# Convention : Reuss Voigt Hill
#
# Bulk Modulus (GPa) = 13.43049 63.84605 38.63827
# Shear Modulus (GPa) = 4.62306 22.66428 13.64367
#
# Velocity S-wave (km/s) = 1.60574 3.55534 2.75851
# Velocity P-wave (km/s) = 3.30581 7.24309 5.62986
#
# Compressibility (1/GPa) = 0.07445742
#
# Stress axis : x y z
#
# Youngs Moduli (GPa) = 9.07358 102.79028 66.19401
#
# Poissons Ratio (x) = 0.72250 1.20597
# Poissons Ratio (y) = 0.06378 0.33405
# Poissons Ratio (z) = 0.16531 0.51874
#
# Static dielectric constant tensor:
#      x y z
#    x 2.600900 0.000000 0.000000 
#    y 0.000000 3.573340 0.000000 
#    z 0.000000 0.000000 3.578050 
# 
# 
# High freq. dielectric constant tensor:
#      x y z
#    x 1.611990 0.000000 0.000000 
#    y 0.000000 1.712460 0.000000 
#    z 0.000000 0.000000 1.712670 
# 
# From -- ./inp_files/72746.got.cif
#   From: 2010.03.12/outbox.cif.g09.slc.cpg/sg65_37_cif.got.tgz:72746.got - 2010.04.10 20:52:16.
