data_PCOD8270023
_publ_section_title
;
Structure prediction by ZEFSAII (Michael W. Deem and Ramdas Pophale) SiO2 
 PCOD8270023
Probable space group: C M M M
;
_chemical_formula_sum "Si O2"
_cell_formula_units_Z 72
_cell_length_a 9.188776
_cell_length_b 18.675133
_cell_length_c 23.282067
_cell_angle_alpha 90.000000
_cell_angle_beta 90.000000
_cell_angle_gamma 90.000000
_cell_volume 3995.240272
_symmetry_space_group_name_H-M "C M M M"
_symmetry_group_IT_number 65
_symmetry_cell_setting 'orthorhombic'
loop_
_space_group_symop_operation_xyz
x,y,z
-x,-y,z
x,-y,-z
-x,y,-z
-x,-y,-z
x,y,-z
-x,y,z
x,-y,z
1/2+x,1/2+y,z
1/2-x,1/2-y,z
1/2+x,1/2-y,-z
1/2-x,1/2+y,-z
1/2-x,1/2-y,-z
1/2+x,1/2+y,-z
1/2-x,1/2+y,z
1/2+x,1/2-y,z
loop_
_atom_site_type_symbol
_atom_site_label
_atom_site_fract_x
_atom_site_fract_y
_atom_site_fract_z
Si Si1 0.171672 0.324836 0.167485
Si Si2 0.668532 0.082593 0.722466
Si Si3 0.164297 0.914741 0.389409
Si Si4 0.172765 0.579994 0.936144
Si Si5 0.664683 0.914537 0.500000
O O1 0.250000 0.250000 0.173894
O O2 0.213372 0.372892 0.221882
O O3 0.233864 0.364655 0.110803
O O4 0.000000 0.312331 0.163221
O O5 0.500000 0.092156 0.706678
O O6 0.760752 0.112552 0.668962
O O7 0.704918 0.000000 0.735531
O O8 0.252939 0.884550 0.443866
O O9 0.000000 0.885196 0.392031
O O10 0.166183 0.000000 0.390907
O O11 0.233345 0.500000 0.923839
O O12 0.000000 0.577462 0.931691
O O13 0.221178 0.605086 0.000000
O O14 0.500000 0.885339 0.500000
O O15 0.665424 0.000000 0.500000
#
# Coordination Sequence:
#
# PCOD8270023 Si02
#       5
#    16  16  16  16   8
#     4  10  20  32  47  69  96 125 157 195 239 284
#     4   9  17  30  47  65  87 119 160 200 235 276
#     4   9  16  25  39  62  91 120 151 191 239 284
#     4   8  14  27  49  74  96 121 158 200 236 274
#     4   9  15  23  37  59  90 125 156 187 228 279
#
# _framework density 18.021443999999999
#
# number of rings (size 3 to 8) (size 9 to 14) (size 15 to 20)
#    0.000    3.000    0.000    2.333    0.000    8.000 
#    0.000    0.000    0.000    2.000    0.000    2.333 
#    0.000    0.000    0.000    0.000    0.000    0.000 
#
# Total GULP energy -446319.084996 kJ/mol
# GULP energy per Si atom -12397.752361 kJ/mol
# Density = 1.798043 g / cm^3
# Si number density = 18.021444 Si / 1000 Ang^3
#
#
#
# Elastic Constant Matrix: (Units=GPa)
#
#
# Indices 1 2 3 4 5 6 
#
# 1 82.3800 35.7402 74.9595 0.0000 0.0000 0.0000
# 2 35.7402 70.9432 66.0948 0.0000 0.0000 0.0000
# 3 74.9595 66.0948 186.3104 0.0000 0.0000 0.0000
# 4 0.0000 0.0000 0.0000 2.1039 0.0000 0.0000
# 5 0.0000 0.0000 0.0000 0.0000 17.4124 0.0000
# 6 0.0000 0.0000 0.0000 0.0000 0.0000 19.3966
#
#
#
# Elastic Compliance Matrix: (Units=1/GPa)
#
#
# Indices 1 2 3 4 5 6 
#
# 1 0.019818 -0.003817 -0.006619 0.000000 0.000000 0.000000
# 2 -0.003817 0.021790 -0.006194 0.000000 0.000000 0.000000
# 3 -0.006619 -0.006194 0.010228 0.000000 0.000000 0.000000
# 4 0.000000 0.000000 0.000000 0.475311 0.000000 0.000000
# 5 0.000000 0.000000 0.000000 0.000000 0.057430 0.000000
# 6 0.000000 0.000000 0.000000 0.000000 0.000000 0.051555
#
#
# Mechanical properties :
#
#
# Convention : Reuss Voigt Hill
#
# Bulk Modulus (GPa) = 53.83770 77.02472 65.43121
# Shear Modulus (GPa) = 7.40098 18.63852 13.01975
#
# Velocity S-wave (km/s) = 2.02871 3.21945 2.69078
# Velocity P-wave (km/s) = 5.95203 7.52683 6.78527
#
# Compressibility (1/GPa) = 0.01857435
#
# Stress axis : x y z
#
# Youngs Moduli (GPa) = 50.45912 45.89321 97.77007
#
# Poissons Ratio (x) = 0.17518 0.64718
# Poissons Ratio (y) = 0.19260 0.60562
# Poissons Ratio (z) = 0.33401 0.28428
#
# Static dielectric constant tensor:
#      x y z
#    x 3.164190 0.000000 0.000000 
#    y 0.000000 2.956150 0.000000 
#    z 0.000000 0.000000 3.640940 
# 
# 
# High freq. dielectric constant tensor:
#      x y z
#    x 1.674950 0.000000 0.000000 
#    y 0.000000 1.652810 0.000000 
#    z 0.000000 0.000000 1.717780 
# 
# From -- ./inp_files/59196.got.cif
#   From: 2010.03.12/outbox.cif.g09.slc.cpg/sg65_30_cif.got.tgz:59196.got - 2010.04.10 20:52:16.
