data_PCOD8270740
_publ_section_title
;
Structure prediction by ZEFSAII (Michael W. Deem and Ramdas Pophale) SiO2 
 PCOD8270740
Probable space group: C M M M
;
_chemical_formula_sum "Si O2"
_cell_formula_units_Z 104
_cell_length_a 22.748501
_cell_length_b 27.546172
_cell_length_c 9.217139
_cell_angle_alpha 90.000000
_cell_angle_beta 90.000000
_cell_angle_gamma 90.000000
_cell_volume 5775.773798
_symmetry_space_group_name_H-M "C M M M"
_symmetry_group_IT_number 65
_symmetry_cell_setting 'orthorhombic'
loop_
_space_group_symop_operation_xyz
x,y,z
-x,-y,z
x,-y,-z
-x,y,-z
-x,-y,-z
x,y,-z
-x,y,z
x,-y,z
1/2+x,1/2+y,z
1/2-x,1/2-y,z
1/2+x,1/2-y,-z
1/2-x,1/2+y,-z
1/2-x,1/2-y,-z
1/2+x,1/2+y,-z
1/2-x,1/2+y,z
1/2+x,1/2-y,z
loop_
_atom_site_type_symbol
_atom_site_label
_atom_site_fract_x
_atom_site_fract_y
_atom_site_fract_z
Si Si1 0.933975 0.945994 0.672081
Si Si2 0.566318 0.727269 0.165185
Si Si3 0.568831 0.907516 0.333620
Si Si4 0.370926 0.825758 0.162283
Si Si5 0.929949 0.500000 0.162957
Si Si6 0.367477 0.351467 0.327779
Si Si7 0.239920 0.804296 0.834350
O O1 0.936339 0.944938 0.500000
O O2 0.886908 0.905541 0.724776
O O3 0.000000 0.934614 0.731207
O O4 0.914240 0.000000 0.725307
O O5 0.500000 0.745304 0.194537
O O6 0.611623 0.770557 0.196668
O O7 0.581088 0.684265 0.275353
O O8 0.573412 0.708803 0.000000
O O9 0.584157 0.916995 0.500000
O O10 0.500000 0.901557 0.307884
O O11 0.599272 0.858780 0.281966
O O12 0.594594 0.952597 0.243366
O O13 0.301259 0.832676 0.173443
O O14 0.392984 0.839703 0.000000
O O15 0.000000 0.500000 0.167872
O O16 0.905609 0.500000 0.000000
O O17 0.361138 0.348446 0.500000
O O18 0.305884 0.335812 0.257401
O O19 0.250000 0.750000 0.771184
O O20 0.216698 0.800168 0.000000
#
# Coordination Sequence:
#
# PCOD8270740 Si02
#       7
#    16  16  16  16   8  16  16
#     4   8  15  30  52  78 109 143 176 212 261 323
#     4  10  20  34  52  75 106 142 176 212 259 316
#     4  10  20  33  51  78 111 139 165 211 273 321
#     4  10  20  35  55  74  96 136 184 222 255 309
#     4   9  17  31  53  77 101 135 177 211 244 305
#     4  11  21  32  53  82 109 136 174 223 271 320
#     4  10  20  38  58  73  98 140 185 221 257 307
#
# _framework density 18.006245
#
# number of rings (size 3 to 8) (size 9 to 14) (size 15 to 20)
#    0.000    2.231    1.538    2.538    0.000    4.923 
#    0.000    0.000    1.692    1.846    0.000    5.385 
#    0.000    0.000    0.000    0.000    0.000    0.000 
#
# Total GULP energy -644734.758084 kJ/mol
# GULP energy per Si atom -12398.745348 kJ/mol
# Density = 1.796526 g / cm^3
# Si number density = 18.006245 Si / 1000 Ang^3
#
#
#
# Elastic Constant Matrix: (Units=GPa)
#
#
# Indices 1 2 3 4 5 6 
#
# 1 84.8787 51.5316 46.7726 0.0000 0.0000 0.0000
# 2 51.5316 125.9296 55.4522 0.0000 0.0000 0.0000
# 3 46.7726 55.4522 70.9982 0.0000 0.0000 0.0000
# 4 0.0000 0.0000 0.0000 27.8116 0.0000 0.0000
# 5 0.0000 0.0000 0.0000 0.0000 27.9129 0.0000
# 6 0.0000 0.0000 0.0000 0.0000 0.0000 19.5850
#
#
#
# Elastic Compliance Matrix: (Units=1/GPa)
#
#
# Indices 1 2 3 4 5 6 
#
# 1 0.019477 -0.003536 -0.010069 0.000000 0.000000 0.000000
# 2 -0.003536 0.012746 -0.007625 0.000000 0.000000 0.000000
# 3 -0.010069 -0.007625 0.026674 0.000000 0.000000 0.000000
# 4 0.000000 0.000000 0.000000 0.035956 0.000000 0.000000
# 5 0.000000 0.000000 0.000000 0.000000 0.035826 0.000000
# 6 0.000000 0.000000 0.000000 0.000000 0.000000 0.051059
#
#
# Mechanical properties :
#
#
# Convention : Reuss Voigt Hill
#
# Bulk Modulus (GPa) = 60.84495 65.47993 63.16244
# Shear Modulus (GPa) = 21.76956 23.59857 22.68406
#
# Velocity S-wave (km/s) = 3.48084 3.62412 3.55320
# Velocity P-wave (km/s) = 7.07244 7.34550 7.21026
#
# Compressibility (1/GPa) = 0.01643522
#
# Stress axis : x y z
#
# Youngs Moduli (GPa) = 51.34202 78.45740 37.48970
#
# Poissons Ratio (x) = 0.27745 0.37750
# Poissons Ratio (y) = 0.18156 0.28587
# Poissons Ratio (z) = 0.51698 0.59826
#
# Static dielectric constant tensor:
#      x y z
#    x 3.239820 0.000000 0.000000 
#    y 0.000000 3.484420 0.000000 
#    z 0.000000 0.000000 3.205390 
# 
# 
# High freq. dielectric constant tensor:
#      x y z
#    x 1.685360 0.000000 0.000000 
#    y 0.000000 1.695990 0.000000 
#    z 0.000000 0.000000 1.683800 
# 
# From -- ./inp_files/14744.got.cif
#   From: 2010.03.12/outbox.cif.g09.slc.cpg/sg65_8_cif.got.tgz:14744.got - 2010.04.10 20:52:16.
