data_PCOD8270197
_publ_section_title
;
Structure prediction by ZEFSAII (Michael W. Deem and Ramdas Pophale) SiO2 
 PCOD8270197
Probable space group: C M M M
;
_chemical_formula_sum "Si O2"
_cell_formula_units_Z 80
_cell_length_a 19.553788
_cell_length_b 9.137963
_cell_length_c 24.825539
_cell_angle_alpha 90.000000
_cell_angle_beta 90.000000
_cell_angle_gamma 90.000000
_cell_volume 4435.871777
_symmetry_space_group_name_H-M "C M M M"
_symmetry_group_IT_number 65
_symmetry_cell_setting 'orthorhombic'
loop_
_space_group_symop_operation_xyz
x,y,z
-x,-y,z
x,-y,-z
-x,y,-z
-x,-y,-z
x,y,-z
-x,y,z
x,-y,z
1/2+x,1/2+y,z
1/2-x,1/2-y,z
1/2+x,1/2-y,-z
1/2-x,1/2+y,-z
1/2-x,1/2-y,-z
1/2+x,1/2+y,-z
1/2-x,1/2+y,z
1/2+x,1/2-y,z
loop_
_atom_site_type_symbol
_atom_site_label
_atom_site_fract_x
_atom_site_fract_y
_atom_site_fract_z
Si Si1 0.420244 0.666879 0.561294
Si Si2 0.918822 0.335824 0.940730
Si Si3 0.919182 0.831186 0.163073
Si Si4 0.819212 0.671476 0.759707
Si Si5 0.317983 0.830297 0.634802
O O1 0.397599 0.698079 0.500000
O O2 0.500000 0.697582 0.568198
O O3 0.402887 0.500000 0.576887
O O4 0.382105 0.775769 0.600974
O O5 0.892602 0.500000 0.927800
O O6 0.892092 0.225216 0.895024
O O7 0.000000 0.334867 0.941313
O O8 0.891944 0.286254 0.000000
O O9 0.883790 0.737975 0.209586
O O10 0.000000 0.807321 0.169102
O O11 0.898730 0.000000 0.168734
O O12 0.812966 0.500000 0.771923
O O13 0.750000 0.750000 0.779543
O O14 0.832262 0.704013 0.697112
O O15 0.250000 0.750000 0.614403
O O16 0.307079 0.000000 0.624127
#
# Coordination Sequence:
#
# PCOD8270197 Si02
#       5
#    16  16  16  16  16
#     4   9  19  36  56  78 106 139 171 205 250 301
#     4   8  14  26  45  69  98 132 168 207 252 298
#     4  10  20  32  49  76 106 135 170 210 251 299
#     4  10  21  37  55  74 100 134 171 211 256 306
#     4  10  21  36  55  78 102 132 171 213 255 300
#
# _framework density 18.034787000000001
#
# number of rings (size 3 to 8) (size 9 to 14) (size 15 to 20)
#    0.000    2.600    0.000    3.000    0.000    6.000 
#    0.000    7.000    0.000    0.600    0.000    0.000 
#    0.000    0.000    0.000    0.000    0.000    0.000 
#
# Total GULP energy -496009.310085 kJ/mol
# GULP energy per Si atom -12400.232752 kJ/mol
# Density = 1.799374 g / cm^3
# Si number density = 18.034787 Si / 1000 Ang^3
#
#
#
# Elastic Constant Matrix: (Units=GPa)
#
#
# Indices 1 2 3 4 5 6 
#
# 1 57.8091 48.1091 48.2018 0.0000 0.0000 0.0000
# 2 48.1091 113.8454 64.3260 0.0000 0.0000 0.0000
# 3 48.2018 64.3260 91.2946 0.0000 0.0000 0.0000
# 4 0.0000 0.0000 0.0000 34.9256 0.0000 0.0000
# 5 0.0000 0.0000 0.0000 0.0000 5.7035 0.0000
# 6 0.0000 0.0000 0.0000 0.0000 0.0000 33.0785
#
#
#
# Elastic Compliance Matrix: (Units=1/GPa)
#
#
# Indices 1 2 3 4 5 6 
#
# 1 0.033969 -0.007013 -0.012994 0.000000 0.000000 0.000000
# 2 -0.007013 0.016042 -0.007600 0.000000 0.000000 0.000000
# 3 -0.012994 -0.007600 0.023169 0.000000 0.000000 0.000000
# 4 0.000000 0.000000 0.000000 0.028632 0.000000 0.000000
# 5 0.000000 0.000000 0.000000 0.000000 0.175330 0.000000
# 6 0.000000 0.000000 0.000000 0.000000 0.000000 0.030231
#
#
# Mechanical properties :
#
#
# Convention : Reuss Voigt Hill
#
# Bulk Modulus (GPa) = 55.66069 64.91365 60.28717
# Shear Modulus (GPa) = 13.56577 21.56234 17.56405
#
# Velocity S-wave (km/s) = 2.74560 3.46149 3.12412
# Velocity P-wave (km/s) = 6.40165 7.21440 6.82014
#
# Compressibility (1/GPa) = 0.01796600
#
# Stress axis : x y z
#
# Youngs Moduli (GPa) = 29.43899 62.33735 43.16099
#
# Poissons Ratio (x) = 0.43716 0.56081
# Poissons Ratio (y) = 0.20645 0.32804
# Poissons Ratio (z) = 0.38252 0.47379
#
# Static dielectric constant tensor:
#      x y z
#    x 3.063120 0.000000 0.000000 
#    y 0.000000 3.423560 0.000000 
#    z 0.000000 0.000000 3.488200 
# 
# 
# High freq. dielectric constant tensor:
#      x y z
#    x 1.673290 0.000000 0.000000 
#    y 0.000000 1.706810 0.000000 
#    z 0.000000 0.000000 1.703980 
# 
# From -- ./inp_files/72752.got.cif
#   From: 2010.03.12/outbox.cif.g09.slc.cpg/sg65_37_cif.got.tgz:72752.got - 2010.04.10 20:52:16.
