data_PCOD8270617
_publ_section_title
;
Structure prediction by ZEFSAII (Michael W. Deem and Ramdas Pophale) SiO2 
 PCOD8270617
Probable space group: C M M M
;
_chemical_formula_sum "Si O2"
_cell_formula_units_Z 112
_cell_length_a 27.262709
_cell_length_b 14.966956
_cell_length_c 15.069864
_cell_angle_alpha 90.000000
_cell_angle_beta 90.000000
_cell_angle_gamma 90.000000
_cell_volume 6149.103781
_symmetry_space_group_name_H-M "C M M M"
_symmetry_group_IT_number 65
_symmetry_cell_setting 'orthorhombic'
loop_
_space_group_symop_operation_xyz
x,y,z
-x,-y,z
x,-y,-z
-x,y,-z
-x,-y,-z
x,y,-z
-x,y,z
x,-y,z
1/2+x,1/2+y,z
1/2-x,1/2-y,z
1/2+x,1/2-y,-z
1/2-x,1/2+y,-z
1/2-x,1/2-y,-z
1/2+x,1/2+y,-z
1/2-x,1/2+y,z
1/2+x,1/2-y,z
loop_
_atom_site_type_symbol
_atom_site_label
_atom_site_fract_x
_atom_site_fract_y
_atom_site_fract_z
Si Si1 0.055486 0.745011 0.601240
Si Si2 0.796410 0.602514 0.240099
Si Si3 0.345240 0.230671 0.900453
Si Si4 0.413783 0.400636 0.270787
Si Si5 0.312139 0.601194 0.194028
Si Si6 0.364232 0.897598 0.601131
Si Si7 0.054704 0.811539 0.099616
O O1 0.065790 0.773062 0.500000
O O2 0.063861 0.831500 0.660711
O O3 0.090234 0.663721 0.630493
O O4 0.000000 0.711262 0.614020
O O5 0.805773 0.500000 0.215098
O O6 0.823627 0.659105 0.165902
O O7 0.738785 0.624916 0.242571
O O8 0.817847 0.625465 0.336967
O O9 0.321735 0.328897 0.885057
O O10 0.404313 0.234442 0.886441
O O11 0.331901 0.201086 0.000000
O O12 0.427636 0.500000 0.302952
O O13 0.354879 0.388463 0.267432
O O14 0.436346 0.388408 0.172224
O O15 0.311589 0.500000 0.155161
O O16 0.348098 0.878605 0.500000
O O17 0.381108 0.000000 0.613165
O O18 0.000000 0.770532 0.111896
O O19 0.060421 0.852174 0.000000
#
# Coordination Sequence:
#
# PCOD8270617 Si02
#       7
#    16  16  16  16  16  16  16
#     4  10  21  35  51  74 103 132 163 201 244 292
#     4  10  20  34  52  75 103 131 162 205 251 296
#     4  10  20  33  51  74 101 135 170 203 243 293
#     4  10  20  34  51  71  99 135 169 201 241 290
#     4   9  19  34  51  72 100 133 167 205 248 289
#     4   9  18  34  56  78  98 124 161 205 253 300
#     4   9  18  32  50  72  97 127 165 208 250 288
#
# _framework density 18.214037000000001
#
# number of rings (size 3 to 8) (size 9 to 14) (size 15 to 20)
#    0.000    2.429    0.000    2.571    0.000    3.714 
#    0.000    7.857    0.000    7.286    0.000    2.000 
#    0.000    0.000    0.000    0.000    0.000    0.143 
#
# Total GULP energy -694227.236755 kJ/mol
# GULP energy per Si atom -12396.914942 kJ/mol
# Density = 1.817258 g / cm^3
# Si number density = 18.214037 Si / 1000 Ang^3
#
#
#
# Elastic Constant Matrix: (Units=GPa)
#
#
# Indices 1 2 3 4 5 6 
#
# 1 144.0678 44.9974 54.2558 0.0000 0.0000 0.0000
# 2 44.9974 70.8293 45.8277 0.0000 0.0000 0.0000
# 3 54.2558 45.8277 94.2762 0.0000 0.0000 0.0000
# 4 0.0000 0.0000 0.0000 22.9868 0.0000 0.0000
# 5 0.0000 0.0000 0.0000 0.0000 23.9454 0.0000
# 6 0.0000 0.0000 0.0000 0.0000 0.0000 21.7072
#
#
#
# Elastic Compliance Matrix: (Units=1/GPa)
#
#
# Indices 1 2 3 4 5 6 
#
# 1 0.009461 -0.003629 -0.003681 0.000000 0.000000 0.000000
# 2 -0.003629 0.021988 -0.008600 0.000000 0.000000 0.000000
# 3 -0.003681 -0.008600 0.016906 0.000000 0.000000 0.000000
# 4 0.000000 0.000000 0.000000 0.043503 0.000000 0.000000
# 5 0.000000 0.000000 0.000000 0.000000 0.041762 0.000000
# 6 0.000000 0.000000 0.000000 0.000000 0.000000 0.046068
#
#
# Mechanical properties :
#
#
# Convention : Reuss Voigt Hill
#
# Bulk Modulus (GPa) = 60.47554 66.59276 63.53415
# Shear Modulus (GPa) = 23.03952 24.66738 23.85345
#
# Velocity S-wave (km/s) = 3.56045 3.68408 3.62279
# Velocity P-wave (km/s) = 7.08358 7.39846 7.24273
#
# Compressibility (1/GPa) = 0.01653561
#
# Stress axis : x y z
#
# Youngs Moduli (GPa) = 105.70014 45.47883 59.15130
#
# Poissons Ratio (x) = 0.16504 0.21771
# Poissons Ratio (y) = 0.38358 0.50870
# Poissons Ratio (z) = 0.38904 0.39112
#
# Static dielectric constant tensor:
#      x y z
#    x 3.655470 0.000000 0.000000 
#    y 0.000000 3.284630 0.000000 
#    z 0.000000 0.000000 3.343760 
# 
# 
# High freq. dielectric constant tensor:
#      x y z
#    x 1.719100 0.000000 0.000000 
#    y 0.000000 1.691870 0.000000 
#    z 0.000000 0.000000 1.698540 
# 
# From -- ./inp_files/41090.got.cif
#   From: 2010.03.12/outbox.cif.g09.slc.cpg/sg65_21_cif.got.tgz:41090.got - 2010.04.10 20:52:16.
