data_PCOD8270957
_publ_section_title
;
Structure prediction by ZEFSAII (Michael W. Deem and Ramdas Pophale) SiO2 
 PCOD8270957
Probable space group: C M M M
;
_chemical_formula_sum "Si O2"
_cell_formula_units_Z 104
_cell_length_a 8.895816
_cell_length_b 28.593584
_cell_length_c 23.109414
_cell_angle_alpha 90.000000
_cell_angle_beta 90.000000
_cell_angle_gamma 90.000000
_cell_volume 5878.185929
_symmetry_space_group_name_H-M "C M M M"
_symmetry_group_IT_number 65
_symmetry_cell_setting 'orthorhombic'
loop_
_space_group_symop_operation_xyz
x,y,z
-x,-y,z
x,-y,-z
-x,y,-z
-x,-y,-z
x,y,-z
-x,y,z
x,-y,z
1/2+x,1/2+y,z
1/2-x,1/2-y,z
1/2+x,1/2-y,-z
1/2-x,1/2+y,-z
1/2-x,1/2-y,-z
1/2+x,1/2+y,-z
1/2-x,1/2+y,z
1/2+x,1/2-y,z
loop_
_atom_site_type_symbol
_atom_site_label
_atom_site_fract_x
_atom_site_fract_y
_atom_site_fract_z
Si Si1 0.175897 0.140325 0.670696
Si Si2 0.821836 0.699843 0.229445
Si Si3 0.679197 0.199133 0.000000
Si Si4 0.326464 0.947077 0.290186
Si Si5 0.821418 0.352134 0.114580
Si Si6 0.824134 0.797718 0.435304
Si Si7 0.178617 0.449164 0.157981
O O1 0.270417 0.165891 0.719912
O O2 0.223750 0.086058 0.670031
O O3 0.220285 0.160813 0.608108
O O4 0.000000 0.146134 0.683464
O O5 0.750000 0.750000 0.239090
O O6 0.765045 0.678791 0.168456
O O7 0.000000 0.704599 0.230907
O O8 0.750000 0.250000 0.000000
O O9 0.739339 0.170905 0.055763
O O10 0.500000 0.203851 0.000000
O O11 0.500000 0.932052 0.295642
O O12 0.271214 0.941751 0.224097
O O13 0.303212 0.000000 0.311865
O O14 0.759137 0.405628 0.120044
O O15 0.000000 0.353610 0.114069
O O16 0.767032 0.810710 0.500000
O O17 0.750000 0.750000 0.412867
O O18 0.000000 0.788847 0.435243
O O19 0.239257 0.500000 0.135381
O O20 0.000000 0.450061 0.155817
#
# Coordination Sequence:
#
# PCOD8270957 Si02
#       7
#    16  16   8  16  16  16  16
#     4  11  21  32  50  77 104 130 163 206 252 297
#     4  11  21  33  48  69 100 132 164 205 254 301
#     4  10  20  34  51  69  93 127 170 208 243 288
#     4   9  17  31  52  75 101 134 167 200 246 302
#     4   9  17  30  48  70  96 128 162 204 247 292
#     4   9  19  35  52  71  98 133 170 205 245 294
#     4   8  13  25  47  72  96 123 155 192 242 298
#
# _framework density 17.692532
#
# number of rings (size 3 to 8) (size 9 to 14) (size 15 to 20)
#    0.000    2.462    1.538    2.769    0.000    2.769 
#    0.000    1.154    0.000    2.769    0.000    3.231 
#    0.000    0.615    0.000    0.000    0.000    0.000 
#
# Total GULP energy -644645.332665 kJ/mol
# GULP energy per Si atom -12397.025628 kJ/mol
# Density = 1.765226 g / cm^3
# Si number density = 17.692532 Si / 1000 Ang^3
#
#
#
# Elastic Constant Matrix: (Units=GPa)
#
#
# Indices 1 2 3 4 5 6 
#
# 1 33.9580 29.7061 28.3004 0.0000 0.0000 0.0000
# 2 29.7061 145.3009 62.6674 0.0000 0.0000 0.0000
# 3 28.3004 62.6674 103.8571 0.0000 0.0000 0.0000
# 4 0.0000 0.0000 0.0000 28.2772 0.0000 0.0000
# 5 0.0000 0.0000 0.0000 0.0000 18.3196 0.0000
# 6 0.0000 0.0000 0.0000 0.0000 0.0000 26.8783
#
#
#
# Elastic Compliance Matrix: (Units=1/GPa)
#
#
# Indices 1 2 3 4 5 6 
#
# 1 0.040384 -0.004745 -0.008141 0.000000 0.000000 0.000000
# 2 -0.004745 0.009861 -0.004657 0.000000 0.000000 0.000000
# 3 -0.008141 -0.004657 0.014657 0.000000 0.000000 0.000000
# 4 0.000000 0.000000 0.000000 0.035364 0.000000 0.000000
# 5 0.000000 0.000000 0.000000 0.000000 0.054586 0.000000
# 6 0.000000 0.000000 0.000000 0.000000 0.000000 0.037205
#
#
# Mechanical properties :
#
#
# Convention : Reuss Voigt Hill
#
# Bulk Modulus (GPa) = 33.53981 58.27375 45.90678
# Shear Modulus (GPa) = 21.08971 25.52448 23.30710
#
# Velocity S-wave (km/s) = 3.45630 3.80237 3.63346
# Velocity P-wave (km/s) = 5.90984 7.23089 6.60348
#
# Compressibility (1/GPa) = 0.02981531
#
# Stress axis : x y z
#
# Youngs Moduli (GPa) = 24.76233 101.41007 68.22608
#
# Poissons Ratio (x) = 0.48120 0.55544
# Poissons Ratio (y) = 0.11750 0.31774
# Poissons Ratio (z) = 0.20160 0.47228
#
# Static dielectric constant tensor:
#      x y z
#    x 2.974840 0.000000 0.000000 
#    y 0.000000 3.635330 0.000000 
#    z 0.000000 0.000000 3.409150 
# 
# 
# High freq. dielectric constant tensor:
#      x y z
#    x 1.654400 0.000000 0.000000 
#    y 0.000000 1.698000 0.000000 
#    z 0.000000 0.000000 1.667420 
# 
# From -- ./inp_files/60854.got.cif
#   From: 2010.03.12/outbox.cif.g09.slc.cpg/sg65_31_cif.got.tgz:60854.got - 2010.04.10 20:52:16.
