data_PCOD8270285
_publ_section_title
;
Structure prediction by ZEFSAII (Michael W. Deem and Ramdas Pophale) SiO2 
 PCOD8270285
Probable space group: C M M M
;
_chemical_formula_sum "Si O2"
_cell_formula_units_Z 72
_cell_length_a 17.080194
_cell_length_b 24.488001
_cell_length_c 8.856045
_cell_angle_alpha 90.000000
_cell_angle_beta 90.000000
_cell_angle_gamma 90.000000
_cell_volume 3704.127679
_symmetry_space_group_name_H-M "C M M M"
_symmetry_group_IT_number 65
_symmetry_cell_setting 'orthorhombic'
loop_
_space_group_symop_operation_xyz
x,y,z
-x,-y,z
x,-y,-z
-x,y,-z
-x,-y,-z
x,y,-z
-x,y,z
x,-y,z
1/2+x,1/2+y,z
1/2-x,1/2-y,z
1/2+x,1/2-y,-z
1/2-x,1/2+y,-z
1/2-x,1/2-y,-z
1/2+x,1/2+y,-z
1/2-x,1/2+y,z
1/2+x,1/2-y,z
loop_
_atom_site_type_symbol
_atom_site_label
_atom_site_fract_x
_atom_site_fract_y
_atom_site_fract_z
Si Si1 0.872132 0.139733 0.679903
Si Si2 0.696055 0.853976 0.322789
Si Si3 0.088954 0.563298 0.170535
Si Si4 0.413791 0.240014 0.320930
Si Si5 0.500000 0.563762 0.178475
O O1 0.878459 0.133191 0.500000
O O2 0.783096 0.137008 0.741043
O O3 0.903607 0.198239 0.736205
O O4 0.922100 0.091624 0.754866
O O5 0.702356 0.846066 0.500000
O O6 0.645587 0.906904 0.286099
O O7 0.652795 0.800280 0.252931
O O8 0.108859 0.500000 0.181148
O O9 0.000000 0.574515 0.220082
O O10 0.102952 0.584262 0.000000
O O11 0.406599 0.239509 0.500000
O O12 0.500000 0.219267 0.270128
O O13 0.500000 0.500000 0.224346
O O14 0.500000 0.571143 0.000000
#
# Coordination Sequence:
#
# PCOD8270285 Si02
#       5
#    16  16  16  16   8
#     4  10  20  37  59  83 112 145 181 225 279 338
#     4  10  20  32  54  88 116 139 178 230 279 330
#     4   9  19  36  54  72 103 149 191 224 267 326
#     4   9  16  30  55  84 114 146 178 215 268 329
#     4  11  25  43  61  81 107 145 194 243 286 327
#
# _framework density 19.437774999999998
#
# number of rings (size 3 to 8) (size 9 to 14) (size 15 to 20)
#    0.000    2.333    1.111    2.333    0.000    7.111 
#    0.000    6.667    0.000    2.667    0.000    0.000 
#    0.000    0.000    0.000    0.000    0.000    0.000 
#
# Total GULP energy -446298.612262 kJ/mol
# GULP energy per Si atom -12397.183674 kJ/mol
# Density = 1.939353 g / cm^3
# Si number density = 19.437775 Si / 1000 Ang^3
#
#
#
# Elastic Constant Matrix: (Units=GPa)
#
#
# Indices 1 2 3 4 5 6 
#
# 1 167.5019 90.0178 29.4997 0.0000 0.0000 0.0000
# 2 90.0178 125.4820 29.8379 0.0000 0.0000 0.0000
# 3 29.4997 29.8379 24.0628 0.0000 0.0000 0.0000
# 4 0.0000 0.0000 0.0000 7.7619 0.0000 0.0000
# 5 0.0000 0.0000 0.0000 0.0000 19.2380 0.0000
# 6 0.0000 0.0000 0.0000 0.0000 0.0000 21.9969
#
#
#
# Elastic Compliance Matrix: (Units=1/GPa)
#
#
# Indices 1 2 3 4 5 6 
#
# 1 0.010095 -0.006096 -0.004816 0.000000 0.000000 0.000000
# 2 -0.006096 0.014984 -0.011106 0.000000 0.000000 0.000000
# 3 -0.004816 -0.011106 0.061233 0.000000 0.000000 0.000000
# 4 0.000000 0.000000 0.000000 0.128835 0.000000 0.000000
# 5 0.000000 0.000000 0.000000 0.000000 0.051980 0.000000
# 6 0.000000 0.000000 0.000000 0.000000 0.000000 0.045461
#
#
# Mechanical properties :
#
#
# Convention : Reuss Voigt Hill
#
# Bulk Modulus (GPa) = 23.65453 68.41752 46.03602
# Shear Modulus (GPa) = 13.48746 20.97876 17.23311
#
# Velocity S-wave (km/s) = 2.63702 3.28880 2.98078
# Velocity P-wave (km/s) = 4.63331 7.04956 5.96506
#
# Compressibility (1/GPa) = 0.04227520
#
# Stress axis : x y z
#
# Youngs Moduli (GPa) = 99.06349 66.74006 16.33109
#
# Poissons Ratio (x) = 0.40688 0.07865
# Poissons Ratio (y) = 0.60394 0.18137
# Poissons Ratio (z) = 0.47707 0.74119
#
# Static dielectric constant tensor:
#      x y z
#    x 3.826040 0.000000 0.000000 
#    y 0.000000 3.582760 0.000000 
#    z 0.000000 0.000000 3.183850 
# 
# 
# High freq. dielectric constant tensor:
#      x y z
#    x 1.772680 0.000000 0.000000 
#    y 0.000000 1.761760 0.000000 
#    z 0.000000 0.000000 1.715380 
# 
# From -- ./inp_files/7327.got.cif
#   From: 2010.03.12/outbox.cif.g09.slc.cpg/sg65_4_cif.got.tgz:7327.got - 2010.04.10 20:52:16.
