data_PCOD8270555
_publ_section_title
;
Structure prediction by ZEFSAII (Michael W. Deem and Ramdas Pophale) SiO2 
 PCOD8270555
Probable space group: C M M M
;
_chemical_formula_sum "Si O2"
_cell_formula_units_Z 88
_cell_length_a 8.853027
_cell_length_b 18.778802
_cell_length_c 28.732521
_cell_angle_alpha 90.000000
_cell_angle_beta 90.000000
_cell_angle_gamma 90.000000
_cell_volume 4776.759812
_symmetry_space_group_name_H-M "C M M M"
_symmetry_group_IT_number 65
_symmetry_cell_setting 'orthorhombic'
loop_
_space_group_symop_operation_xyz
x,y,z
-x,-y,z
x,-y,-z
-x,y,-z
-x,-y,-z
x,y,-z
-x,y,z
x,-y,z
1/2+x,1/2+y,z
1/2-x,1/2-y,z
1/2+x,1/2-y,-z
1/2-x,1/2+y,-z
1/2-x,1/2-y,-z
1/2+x,1/2+y,-z
1/2-x,1/2+y,z
1/2+x,1/2-y,z
loop_
_atom_site_type_symbol
_atom_site_label
_atom_site_fract_x
_atom_site_fract_y
_atom_site_fract_z
Si Si1 0.323220 0.326763 0.313332
Si Si2 0.827374 0.084167 0.857133
Si Si3 0.169602 0.584528 0.948986
Si Si4 0.319899 0.420445 0.500000
Si Si5 0.176364 0.173443 0.584528
Si Si6 0.821768 0.672178 0.777685
O O1 0.500000 0.321557 0.302393
O O2 0.250000 0.250000 0.316047
O O3 0.293245 0.361547 0.364210
O O4 0.241888 0.365647 0.269794
O O5 0.780900 0.111986 0.908553
O O6 0.720172 0.121780 0.820213
O O7 0.000000 0.105957 0.848157
O O8 0.803010 0.000000 0.852644
O O9 0.169574 0.500000 0.949380
O O10 0.000000 0.612316 0.938973
O O11 0.224345 0.612172 0.000000
O O12 0.252801 0.500000 0.500000
O O13 0.500000 0.422954 0.500000
O O14 0.258699 0.380396 0.545954
O O15 0.250000 0.250000 0.578082
O O16 0.000000 0.185690 0.577152
O O17 0.750000 0.750000 0.784687
O O18 0.000000 0.679959 0.774323
#
# Coordination Sequence:
#
# PCOD8270555 Si02
#       6
#    16  16  16   8  16  16
#     4   9  16  28  46  70  96 121 157 200 242 285
#     4  10  20  33  50  74 103 132 165 206 248 292
#     4   8  14  26  45  69  97 129 165 204 245 289
#     4   9  17  30  47  69  98 129 160 192 232 285
#     4   9  17  29  49  73  94 121 158 200 239 278
#     4  11  21  34  53  74  99 131 166 203 247 299
#
# _framework density 18.422529999999998
#
# number of rings (size 3 to 8) (size 9 to 14) (size 15 to 20)
#    0.000    2.636    0.000    4.636    0.000    2.182 
#    0.000    2.727    0.000    4.909    0.000    0.000 
#    0.000    0.000    0.000    0.000    0.000    0.000 
#
# Total GULP energy -545241.368205 kJ/mol
# GULP energy per Si atom -12391.849277 kJ/mol
# Density = 1.838060 g / cm^3
# Si number density = 18.422530 Si / 1000 Ang^3
#
#
#
# Elastic Constant Matrix: (Units=GPa)
#
#
# Indices 1 2 3 4 5 6 
#
# 1 100.5979 27.1431 60.1747 0.0000 0.0000 0.0000
# 2 27.1431 50.4905 49.2740 0.0000 0.0000 0.0000
# 3 60.1747 49.2740 177.5218 0.0000 0.0000 0.0000
# 4 0.0000 0.0000 0.0000 18.6236 0.0000 0.0000
# 5 0.0000 0.0000 0.0000 0.0000 22.3012 0.0000
# 6 0.0000 0.0000 0.0000 0.0000 0.0000 18.9504
#
#
#
# Elastic Compliance Matrix: (Units=1/GPa)
#
#
# Indices 1 2 3 4 5 6 
#
# 1 0.012947 -0.003672 -0.003369 0.000000 0.000000 0.000000
# 2 -0.003672 0.028205 -0.006584 0.000000 0.000000 0.000000
# 3 -0.003369 -0.006584 0.008603 0.000000 0.000000 0.000000
# 4 0.000000 0.000000 0.000000 0.053695 0.000000 0.000000
# 5 0.000000 0.000000 0.000000 0.000000 0.044841 0.000000
# 6 0.000000 0.000000 0.000000 0.000000 0.000000 0.052769
#
#
# Mechanical properties :
#
#
# Convention : Reuss Voigt Hill
#
# Bulk Modulus (GPa) = 44.43659 66.86597 55.65128
# Shear Modulus (GPa) = 21.20332 24.77626 22.98979
#
# Velocity S-wave (km/s) = 3.39624 3.67125 3.53642
# Velocity P-wave (km/s) = 6.28907 7.37193 6.85192
#
# Compressibility (1/GPa) = 0.02250398
#
# Stress axis : x y z
#
# Youngs Moduli (GPa) = 77.23937 35.45448 116.24151
#
# Poissons Ratio (x) = 0.13018 0.39166
# Poissons Ratio (y) = 0.28361 0.76535
# Poissons Ratio (z) = 0.26025 0.23344
#
# Static dielectric constant tensor:
#      x y z
#    x 3.393660 0.000000 0.000000 
#    y 0.000000 2.948220 0.000000 
#    z 0.000000 0.000000 4.328980 
# 
# 
# High freq. dielectric constant tensor:
#      x y z
#    x 1.711430 0.000000 0.000000 
#    y 0.000000 1.657650 0.000000 
#    z 0.000000 0.000000 1.743050 
# 
# From -- ./inp_files/76583.got.cif
#   From: 2010.03.12/outbox.cif.g09.slc.cpg/sg65_39_cif.got.tgz:76583.got - 2010.04.10 20:52:16.
