data_PCOD8270590
_publ_section_title
;
Structure prediction by ZEFSAII (Michael W. Deem and Ramdas Pophale) SiO2 
 PCOD8270590
Probable space group: C M M M
;
_chemical_formula_sum "Si O2"
_cell_formula_units_Z 104
_cell_length_a 20.757146
_cell_length_b 28.192817
_cell_length_c 9.360629
_cell_angle_alpha 90.000000
_cell_angle_beta 90.000000
_cell_angle_gamma 90.000000
_cell_volume 5477.862731
_symmetry_space_group_name_H-M "C M M M"
_symmetry_group_IT_number 65
_symmetry_cell_setting 'orthorhombic'
loop_
_space_group_symop_operation_xyz
x,y,z
-x,-y,z
x,-y,-z
-x,y,-z
-x,-y,-z
x,y,-z
-x,y,z
x,-y,z
1/2+x,1/2+y,z
1/2-x,1/2-y,z
1/2+x,1/2-y,-z
1/2-x,1/2+y,-z
1/2-x,1/2-y,-z
1/2+x,1/2+y,-z
1/2-x,1/2+y,z
1/2+x,1/2-y,z
loop_
_atom_site_type_symbol
_atom_site_label
_atom_site_fract_x
_atom_site_fract_y
_atom_site_fract_z
Si Si1 0.428058 0.769104 0.162634
Si Si2 0.163812 0.946550 0.338484
Si Si3 0.642276 0.694586 0.331037
Si Si4 0.500000 0.945546 0.829529
Si Si5 0.107857 0.625660 0.163844
Si Si6 0.262989 0.134753 0.337863
Si Si7 0.424872 0.386492 0.162311
O O1 0.500000 0.749974 0.198144
O O2 0.374259 0.746276 0.266990
O O3 0.430482 0.825478 0.183110
O O4 0.409685 0.755781 0.000000
O O5 0.137669 0.939517 0.500000
O O6 0.225660 0.914115 0.313638
O O7 0.107915 0.933225 0.227833
O O8 0.185930 0.000000 0.309582
O O9 0.630440 0.694360 0.500000
O O10 0.715851 0.678882 0.296504
O O11 0.592753 0.658706 0.257500
O O12 0.563750 0.917411 0.774252
O O13 0.500000 0.000000 0.772376
O O14 0.500000 0.944370 0.000000
O O15 0.175190 0.631779 0.241012
O O16 0.123680 0.615069 0.000000
O O17 0.286087 0.140791 0.500000
O O18 0.500000 0.395440 0.167372
O O19 0.401006 0.378417 0.000000
#
# Coordination Sequence:
#
# PCOD8270590 Si02
#       7
#    16  16  16   8  16  16  16
#     4  10  20  35  55  79 111 146 181 224 275 327
#     4   9  19  36  55  74 101 141 184 224 271 326
#     4  10  21  36  54  78 108 145 187 225 268 323
#     4   9  18  36  61  87 115 145 181 227 278 333
#     4  10  20  36  58  83 110 142 179 221 272 330
#     4   9  20  37  54  76 109 143 177 225 276 324
#     4  10  20  33  50  75 108 142 178 225 276 321
#
# _framework density 18.985506999999998
#
# number of rings (size 3 to 8) (size 9 to 14) (size 15 to 20)
#    0.000    2.385    0.769    2.308    0.000    8.923 
#    0.000    5.000    0.000    0.462    0.000    0.000 
#    0.000    0.000    0.000    0.000    0.000    0.000 
#
# Total GULP energy -644675.775048 kJ/mol
# GULP energy per Si atom -12397.611059 kJ/mol
# Density = 1.894230 g / cm^3
# Si number density = 18.985507 Si / 1000 Ang^3
#
#
#
# Elastic Constant Matrix: (Units=GPa)
#
#
# Indices 1 2 3 4 5 6 
#
# 1 119.1944 48.2777 65.5257 0.0000 0.0000 0.0000
# 2 48.2777 100.0048 44.1948 0.0000 0.0000 0.0000
# 3 65.5257 44.1948 95.9155 0.0000 0.0000 0.0000
# 4 0.0000 0.0000 0.0000 25.0964 0.0000 0.0000
# 5 0.0000 0.0000 0.0000 0.0000 -18.4806 0.0000
# 6 0.0000 0.0000 0.0000 0.0000 0.0000 19.5323
#
#
#
# Elastic Compliance Matrix: (Units=1/GPa)
#
#
# Indices 1 2 3 4 5 6 
#
# 1 0.014220 -0.003229 -0.008227 0.000000 0.000000 0.000000
# 2 -0.003229 0.013290 -0.003917 0.000000 0.000000 0.000000
# 3 -0.008227 -0.003917 0.017851 0.000000 0.000000 0.000000
# 4 0.000000 0.000000 0.000000 0.039846 0.000000 0.000000
# 5 0.000000 0.000000 0.000000 0.000000 -0.054111 0.000000
# 6 0.000000 0.000000 0.000000 0.000000 0.000000 0.051197
#
#
# Mechanical properties :
#
#
# Convention : Reuss Voigt Hill
#
# Bulk Modulus (GPa) = 68.42671 70.12345 69.27508
# Shear Modulus (GPa) = 42.40472 15.70407 29.05440
#
# Velocity S-wave (km/s) = 4.73115 2.87916 3.91621
# Velocity P-wave (km/s) = 8.12188 6.93312 7.55093
#
# Compressibility (1/GPa) = 0.01461418
#
# Stress axis : x y z
#
# Youngs Moduli (GPa) = 70.32281 75.24673 56.01929
#
# Poissons Ratio (x) = 0.24299 0.46085
# Poissons Ratio (y) = 0.22709 0.21945
# Poissons Ratio (z) = 0.57853 0.29477
#
# Static dielectric constant tensor:
#      x y z
#    x 3.405690 0.000000 0.000000 
#    y 0.000000 3.790510 0.000000 
#    z 0.000000 0.000000 3.533740 
# 
# 
# High freq. dielectric constant tensor:
#      x y z
#    x 1.732730 0.000000 0.000000 
#    y 0.000000 1.740200 0.000000 
#    z 0.000000 0.000000 1.729150 
# 
# From -- ./inp_files/12825.got.cif
#   From: 2010.03.12/outbox.cif.g09.slc.cpg/sg65_7_cif.got.tgz:12825.got - 2010.04.10 20:52:16.
