data_PCOD8270875
_publ_section_title
;
Structure prediction by ZEFSAII (Michael W. Deem and Ramdas Pophale) SiO2 
 PCOD8270875
Probable space group: C M M M
;
_chemical_formula_sum "Si O2"
_cell_formula_units_Z 96
_cell_length_a 17.202519
_cell_length_b 26.919741
_cell_length_c 10.512001
_cell_angle_alpha 90.000000
_cell_angle_beta 90.000000
_cell_angle_gamma 90.000000
_cell_volume 4867.974750
_symmetry_space_group_name_H-M "C M M M"
_symmetry_group_IT_number 65
_symmetry_cell_setting 'orthorhombic'
loop_
_space_group_symop_operation_xyz
x,y,z
-x,-y,z
x,-y,-z
-x,y,-z
-x,-y,-z
x,y,-z
-x,y,z
x,-y,z
1/2+x,1/2+y,z
1/2-x,1/2-y,z
1/2+x,1/2-y,-z
1/2-x,1/2+y,-z
1/2-x,1/2-y,-z
1/2+x,1/2+y,-z
1/2-x,1/2+y,z
1/2+x,1/2-y,z
loop_
_atom_site_type_symbol
_atom_site_label
_atom_site_fract_x
_atom_site_fract_y
_atom_site_fract_z
Si Si1 0.585269 0.500000 0.856601
Si Si2 0.329908 0.228036 0.850527
Si Si3 0.337581 0.059016 0.649022
Si Si4 0.167929 0.911070 0.264238
Si Si5 0.910028 0.627558 0.147838
Si Si6 0.085742 0.823803 0.850740
Si Si7 0.088692 0.054522 0.500000
O O1 0.500000 0.500000 0.782794
O O2 0.638882 0.547287 0.832445
O O3 0.561152 0.500000 0.000000
O O4 0.250000 0.250000 0.789380
O O5 0.356573 0.173563 0.803092
O O6 0.397940 0.266704 0.815127
O O7 0.318078 0.223793 0.000000
O O8 0.355115 0.072713 0.500000
O O9 0.254830 0.080460 0.690095
O O10 0.397680 0.082997 0.750269
O O11 0.340780 0.000000 0.666260
O O12 0.156009 0.857106 0.203484
O O13 0.110657 0.912529 0.381829
O O14 0.000000 0.643427 0.153022
O O15 0.889291 0.612367 0.000000
O O16 0.000000 0.838321 0.797838
O O17 0.087261 0.831560 0.000000
O O18 0.000000 0.042834 0.500000
O O19 0.132350 0.000000 0.500000
#
# Coordination Sequence:
#
# PCOD8270875 Si02
#       7
#     8  16  16  16  16  16   8
#     4  11  22  33  49  79 118 156 198 251 309 364
#     4   9  17  33  59  91 123 156 193 235 291 358
#     4  11  24  43  63  87 120 158 204 255 309 369
#     4  12  21  36  54  77 114 155 203 248 294 353
#     4  10  22  41  67  97 126 157 198 249 304 362
#     4  10  20  33  53  84 121 157 194 240 294 353
#     4  11  20  32  52  72  98 151 211 253 291 345
#
# _framework density 19.720725999999999
#
# number of rings (size 3 to 8) (size 9 to 14) (size 15 to 20)
#    0.000    1.500    2.500    3.500    0.000    7.000 
#    0.000    1.667    1.833    1.500    0.000    0.000 
#    0.000    0.000    0.000    0.000    0.000    0.000 
#
# Total GULP energy -594757.696398 kJ/mol
# GULP energy per Si atom -12390.785342 kJ/mol
# Density = 1.967584 g / cm^3
# Si number density = 19.720726 Si / 1000 Ang^3
#
#
#
# Elastic Constant Matrix: (Units=GPa)
#
#
# Indices 1 2 3 4 5 6 
#
# 1 85.8292 29.9168 33.8503 0.0000 0.0000 0.0000
# 2 29.9168 101.7851 45.1001 0.0000 0.0000 0.0000
# 3 33.8503 45.1001 82.6754 0.0000 0.0000 0.0000
# 4 0.0000 0.0000 0.0000 6.8992 0.0000 0.0000
# 5 0.0000 0.0000 0.0000 0.0000 25.6069 0.0000
# 6 0.0000 0.0000 0.0000 0.0000 0.0000 22.7733
#
#
#
# Elastic Compliance Matrix: (Units=1/GPa)
#
#
# Indices 1 2 3 4 5 6 
#
# 1 0.014231 -0.002111 -0.004675 0.000000 0.000000 0.000000
# 2 -0.002111 0.013270 -0.006374 0.000000 0.000000 0.000000
# 3 -0.004675 -0.006374 0.017487 0.000000 0.000000 0.000000
# 4 0.000000 0.000000 0.000000 0.144945 0.000000 0.000000
# 5 0.000000 0.000000 0.000000 0.000000 0.039052 0.000000
# 6 0.000000 0.000000 0.000000 0.000000 0.000000 0.043911
#
#
# Mechanical properties :
#
#
# Convention : Reuss Voigt Hill
#
# Bulk Modulus (GPa) = 53.57257 54.22490 53.89873
# Shear Modulus (GPa) = 16.36995 21.81737 19.09366
#
# Velocity S-wave (km/s) = 2.88425 3.32974 3.11497
# Velocity P-wave (km/s) = 6.19003 6.50684 6.35041
#
# Compressibility (1/GPa) = 0.01866627
#
# Stress axis : x y z
#
# Youngs Moduli (GPa) = 70.27076 75.36058 57.18631
#
# Poissons Ratio (x) = 0.15911 0.26733
# Poissons Ratio (y) = 0.14836 0.36452
# Poissons Ratio (z) = 0.32850 0.48036
#
# Static dielectric constant tensor:
#      x y z
#    x 3.469440 0.000000 0.000000 
#    y 0.000000 3.797810 0.000000 
#    z 0.000000 0.000000 3.542860 
# 
# 
# High freq. dielectric constant tensor:
#      x y z
#    x 1.774670 0.000000 0.000000 
#    y 0.000000 1.768150 0.000000 
#    z 0.000000 0.000000 1.744340 
# 
# From -- ./inp_files/27156.got.cif
#   From: 2010.03.12/outbox.cif.g09.slc.cpg/sg65_14_cif.got.tgz:27156.got - 2010.04.10 20:52:16.
