data_PCOD8270804
_publ_section_title
;
Structure prediction by ZEFSAII (Michael W. Deem and Ramdas Pophale) SiO2 
 PCOD8270804
Probable space group: C M M M
;
_chemical_formula_sum "Si O2"
_cell_formula_units_Z 72
_cell_length_a 24.624237
_cell_length_b 9.802354
_cell_length_c 16.214139
_cell_angle_alpha 90.000000
_cell_angle_beta 90.000000
_cell_angle_gamma 90.000000
_cell_volume 3913.695714
_symmetry_space_group_name_H-M "C M M M"
_symmetry_group_IT_number 65
_symmetry_cell_setting 'orthorhombic'
loop_
_space_group_symop_operation_xyz
x,y,z
-x,-y,z
x,-y,-z
-x,y,-z
-x,-y,-z
x,y,-z
-x,y,z
x,-y,z
1/2+x,1/2+y,z
1/2-x,1/2-y,z
1/2+x,1/2-y,-z
1/2-x,1/2+y,-z
1/2-x,1/2-y,-z
1/2+x,1/2+y,-z
1/2-x,1/2+y,z
1/2+x,1/2-y,z
loop_
_atom_site_type_symbol
_atom_site_label
_atom_site_fract_x
_atom_site_fract_y
_atom_site_fract_z
Si Si1 0.396570 0.653296 0.803594
Si Si2 0.883913 0.660468 0.653450
Si Si3 0.000000 0.837625 0.905155
Si Si4 0.000000 0.661133 0.589699
Si Si5 0.694756 0.160361 0.500000
Si Si6 0.791772 0.850480 0.092878
O O1 0.408215 0.500000 0.768780
O O2 0.371282 0.750806 0.733560
O O3 0.448723 0.714372 0.851412
O O4 0.351103 0.647625 0.871630
O O5 0.881162 0.500000 0.673359
O O6 0.841756 0.695928 0.580130
O O7 0.945257 0.708776 0.633925
O O8 0.000000 0.000000 0.910764
O O9 0.000000 0.779596 0.000000
O O10 0.000000 0.500000 0.580674
O O11 0.000000 0.729477 0.500000
O O12 0.750000 0.250000 0.500000
O O13 0.710383 0.000000 0.500000
O O14 0.750000 0.750000 0.140068
O O15 0.765376 0.000000 0.097681
O O16 0.799417 0.798780 0.000000
#
# Coordination Sequence:
#
# PCOD8270804 Si02
#       6
#    16  16   8   8   8  16
#     4  10  20  33  52  79 109 137 171 214 260 309
#     4  10  20  35  56  80 104 134 174 217 261 311
#     4   9  17  32  55  80 109 146 180 210 253 314
#     4   9  15  30  57  79  96 123 166 211 247 292
#     4  10  22  39  57  77 103 140 181 218 262 320
#     4   9  18  33  52  73  98 132 174 215 254 300
#
# _framework density 18.396933000000001
#
# number of rings (size 3 to 8) (size 9 to 14) (size 15 to 20)
#    0.000    2.444    1.111    1.333    0.000    5.333 
#    0.000    4.444    0.000    3.333    0.000    0.000 
#    0.000    0.000    0.000    0.000    0.000    0.000 
#
# Total GULP energy -446082.646977 kJ/mol
# GULP energy per Si atom -12391.184638 kJ/mol
# Density = 1.835506 g / cm^3
# Si number density = 18.396933 Si / 1000 Ang^3
#
#
#
# Elastic Constant Matrix: (Units=GPa)
#
#
# Indices 1 2 3 4 5 6 
#
# 1 117.2518 47.9420 38.0369 0.0000 0.0000 0.0000
# 2 47.9420 66.7882 49.6117 0.0000 0.0000 0.0000
# 3 38.0369 49.6117 102.1389 0.0000 0.0000 0.0000
# 4 0.0000 0.0000 0.0000 21.7426 0.0000 0.0000
# 5 0.0000 0.0000 0.0000 0.0000 12.9223 0.0000
# 6 0.0000 0.0000 0.0000 0.0000 0.0000 27.6922
#
#
#
# Elastic Compliance Matrix: (Units=1/GPa)
#
#
# Indices 1 2 3 4 5 6 
#
# 1 0.012085 -0.008341 -0.000449 0.000000 0.000000 0.000000
# 2 -0.008341 0.029182 -0.011068 0.000000 0.000000 0.000000
# 3 -0.000449 -0.011068 0.015334 0.000000 0.000000 0.000000
# 4 0.000000 0.000000 0.000000 0.045993 0.000000 0.000000
# 5 0.000000 0.000000 0.000000 0.000000 0.077386 0.000000
# 6 0.000000 0.000000 0.000000 0.000000 0.000000 0.036111
#
#
# Mechanical properties :
#
#
# Convention : Reuss Voigt Hill
#
# Bulk Modulus (GPa) = 59.22762 61.92889 60.57825
# Shear Modulus (GPa) = 19.12523 22.51064 20.81793
#
# Velocity S-wave (km/s) = 3.22776 3.50181 3.36757
# Velocity P-wave (km/s) = 6.79378 7.07714 6.93691
#
# Compressibility (1/GPa) = 0.01688402
#
# Stress axis : x y z
#
# Youngs Moduli (GPa) = 82.74804 34.26781 65.21544
#
# Poissons Ratio (x) = 0.28584 0.02927
# Poissons Ratio (y) = 0.69023 0.72181
# Poissons Ratio (z) = 0.03714 0.37928
#
# Static dielectric constant tensor:
#      x y z
#    x 3.519960 0.000000 0.000000 
#    y 0.000000 3.368610 0.000000 
#    z 0.000000 0.000000 3.358400 
# 
# 
# High freq. dielectric constant tensor:
#      x y z
#    x 1.723760 0.000000 0.000000 
#    y 0.000000 1.687640 0.000000 
#    z 0.000000 0.000000 1.711530 
# 
# From -- ./inp_files/46544.got.cif
#   From: 2010.03.12/outbox.cif.g09.slc.cpg/sg65_24_cif.got.tgz:46544.got - 2010.04.10 20:52:16.
