data_PCOD8270107
_publ_section_title
;
Structure prediction by ZEFSAII (Michael W. Deem and Ramdas Pophale) SiO2 
 PCOD8270107
Probable space group: C M M M
;
_chemical_formula_sum "Si O2"
_cell_formula_units_Z 80
_cell_length_a 27.523465
_cell_length_b 12.934929
_cell_length_c 13.565219
_cell_angle_alpha 90.000000
_cell_angle_beta 90.000000
_cell_angle_gamma 90.000000
_cell_volume 4829.408767
_symmetry_space_group_name_H-M "C M M M"
_symmetry_group_IT_number 65
_symmetry_cell_setting 'orthorhombic'
loop_
_space_group_symop_operation_xyz
x,y,z
-x,-y,z
x,-y,-z
-x,y,-z
-x,-y,-z
x,y,-z
-x,y,z
x,-y,z
1/2+x,1/2+y,z
1/2-x,1/2-y,z
1/2+x,1/2-y,-z
1/2-x,1/2+y,-z
1/2-x,1/2-y,-z
1/2+x,1/2+y,-z
1/2-x,1/2+y,z
1/2+x,1/2-y,z
loop_
_atom_site_type_symbol
_atom_site_label
_atom_site_fract_x
_atom_site_fract_y
_atom_site_fract_z
Si Si1 0.883321 0.724627 0.616035
Si Si2 0.943435 0.879767 0.735156
Si Si3 0.135973 0.500000 0.384321
Si Si4 0.705219 0.683515 0.270752
Si Si5 0.745981 0.000000 0.382604
Si Si6 0.133159 0.119845 0.892151
O O1 0.877529 0.736591 0.500000
O O2 0.926056 0.802851 0.648635
O O3 0.893762 0.604118 0.646193
O O4 0.832427 0.750262 0.666201
O O5 0.915178 0.844607 0.833704
O O6 0.000000 0.863939 0.754088
O O7 0.931629 0.000000 0.707224
O O8 0.143274 0.500000 0.500000
O O9 0.190837 0.500000 0.340235
O O10 0.750000 0.750000 0.232579
O O11 0.724428 0.596950 0.343591
O O12 0.680979 0.641677 0.171226
O O13 0.747351 0.000000 0.500000
O O14 0.129445 0.000000 0.911105
O O15 0.135297 0.175336 0.000000
#
# Coordination Sequence:
#
# PCOD8270107 Si02
#       6
#    16  16   8  16   8  16
#     4  10  20  32  48  72 102 136 169 206 246 289
#     4   9  19  35  53  75  99 124 161 205 255 311
#     4   9  18  32  47  67  98 136 178 208 233 277
#     4  11  20  31  48  72 101 136 173 204 241 289
#     4  11  20  30  45  70 104 138 173 206 237 279
#     4   9  18  33  51  72  99 127 159 205 257 302
#
# _framework density 16.565175
#
# number of rings (size 3 to 8) (size 9 to 14) (size 15 to 20)
#    0.000    2.200    3.000    0.600    1.400    2.400 
#    0.000    3.500    0.000    1.800    0.000    6.300 
#    0.000    6.400    0.000    0.000    0.000    0.000 
#
# Total GULP energy -495713.507801 kJ/mol
# GULP energy per Si atom -12392.837695 kJ/mol
# Density = 1.652747 g / cm^3
# Si number density = 16.565175 Si / 1000 Ang^3
#
#
#
# Elastic Constant Matrix: (Units=GPa)
#
#
# Indices 1 2 3 4 5 6 
#
# 1 77.8636 12.7367 15.2397 0.0000 0.0000 0.0000
# 2 12.7367 64.6691 12.1123 0.0000 0.0000 0.0000
# 3 15.2397 12.1123 76.8634 0.0000 0.0000 0.0000
# 4 0.0000 0.0000 0.0000 18.9936 0.0000 0.0000
# 5 0.0000 0.0000 0.0000 0.0000 15.5225 0.0000
# 6 0.0000 0.0000 0.0000 0.0000 0.0000 59.0503
#
#
#
# Elastic Compliance Matrix: (Units=1/GPa)
#
#
# Indices 1 2 3 4 5 6 
#
# 1 0.013672 -0.002252 -0.002356 0.000000 0.000000 0.000000
# 2 -0.002252 0.016304 -0.002123 0.000000 0.000000 0.000000
# 3 -0.002356 -0.002123 0.013812 0.000000 0.000000 0.000000
# 4 0.000000 0.000000 0.000000 0.052649 0.000000 0.000000
# 5 0.000000 0.000000 0.000000 0.000000 0.064423 0.000000
# 6 0.000000 0.000000 0.000000 0.000000 0.000000 0.016935
#
#
# Mechanical properties :
#
#
# Convention : Reuss Voigt Hill
#
# Bulk Modulus (GPa) = 32.97318 33.28595 33.12957
# Shear Modulus (GPa) = 24.83053 30.66713 27.74883
#
# Velocity S-wave (km/s) = 3.87584 4.30734 4.09728
# Velocity P-wave (km/s) = 6.32280 6.69889 6.51356
#
# Compressibility (1/GPa) = 0.03032768
#
# Stress axis : x y z
#
# Youngs Moduli (GPa) = 73.14012 61.33321 72.40216
#
# Poissons Ratio (x) = 0.13809 0.17058
# Poissons Ratio (y) = 0.16468 0.15370
# Poissons Ratio (z) = 0.17232 0.13020
#
# Static dielectric constant tensor:
#      x y z
#    x 3.069870 0.000000 0.000000 
#    y 0.000000 3.341050 0.000000 
#    z 0.000000 0.000000 3.293800 
# 
# 
# High freq. dielectric constant tensor:
#      x y z
#    x 1.632160 0.000000 0.000000 
#    y 0.000000 1.636390 0.000000 
#    z 0.000000 0.000000 1.624960 
# 
# From -- ./inp_files/38588.got.cif
#   From: 2010.03.12/outbox.cif.g09.slc.cpg/sg65_20_cif.got.tgz:38588.got - 2010.04.10 20:52:16.
