data_PCOD8270699
_publ_section_title
;
Structure prediction by ZEFSAII (Michael W. Deem and Ramdas Pophale) SiO2 
 PCOD8270699
Probable space group: C M M M
;
_chemical_formula_sum "Si O2"
_cell_formula_units_Z 96
_cell_length_a 9.102515
_cell_length_b 30.276017
_cell_length_c 19.355352
_cell_angle_alpha 90.000000
_cell_angle_beta 90.000000
_cell_angle_gamma 90.000000
_cell_volume 5334.100790
_symmetry_space_group_name_H-M "C M M M"
_symmetry_group_IT_number 65
_symmetry_cell_setting 'orthorhombic'
loop_
_space_group_symop_operation_xyz
x,y,z
-x,-y,z
x,-y,-z
-x,y,-z
-x,-y,-z
x,y,-z
-x,y,z
x,-y,z
1/2+x,1/2+y,z
1/2-x,1/2-y,z
1/2+x,1/2-y,-z
1/2-x,1/2+y,-z
1/2-x,1/2-y,-z
1/2+x,1/2+y,-z
1/2-x,1/2+y,z
1/2+x,1/2-y,z
loop_
_atom_site_type_symbol
_atom_site_label
_atom_site_fract_x
_atom_site_fract_y
_atom_site_fract_z
Si Si1 0.669724 0.051270 0.685520
Si Si2 0.330506 0.611270 0.418643
Si Si3 0.330448 0.291155 0.420709
Si Si4 0.830450 0.380686 0.918393
Si Si5 0.171182 0.051598 0.175277
Si Si6 0.166417 0.793087 0.917733
O O1 0.500000 0.061882 0.699670
O O2 0.724342 0.077072 0.618494
O O3 0.762403 0.066825 0.751681
O O4 0.695763 0.000000 0.670185
O O5 0.300220 0.608363 0.500000
O O6 0.500000 0.599670 0.403012
O O7 0.293498 0.660549 0.389618
O O8 0.279955 0.292765 0.500000
O O9 0.500000 0.281039 0.413693
O O10 0.250000 0.250000 0.382568
O O11 0.752820 0.423061 0.885827
O O12 0.751404 0.336378 0.891084
O O13 0.000000 0.378693 0.896017
O O14 0.813572 0.385315 0.000000
O O15 0.000000 0.063431 0.174411
O O16 0.199617 0.000000 0.162664
O O17 0.250000 0.750000 0.888594
O O18 0.000000 0.793628 0.889089
O O19 0.165762 0.791902 0.000000
#
# Coordination Sequence:
#
# PCOD8270699 Si02
#       6
#    16  16  16  16  16  16
#     4  10  21  36  53  73  98 129 166 207 251 301
#     4   9  18  32  50  74 103 133 166 204 246 293
#     4   8  14  25  42  66  96 128 161 197 237 283
#     4  10  20  33  51  77 107 136 167 206 252 298
#     4  10  21  37  56  75  97 130 170 208 250 304
#     4   9  16  27  45  70 101 135 170 207 247 293
#
# _framework density 17.997412000000001
#
# number of rings (size 3 to 8) (size 9 to 14) (size 15 to 20)
#    0.000    2.667    0.000    3.000    0.000    6.667 
#    0.000    5.000    0.000    1.000    0.000    4.667 
#    0.000    0.000    0.000    0.000    0.000    0.000 
#
# Total GULP energy -595119.972764 kJ/mol
# GULP energy per Si atom -12398.332766 kJ/mol
# Density = 1.795645 g / cm^3
# Si number density = 17.997412 Si / 1000 Ang^3
#
#
#
# Elastic Constant Matrix: (Units=GPa)
#
#
# Indices 1 2 3 4 5 6 
#
# 1 125.1323 67.4100 35.4110 0.0000 0.0000 0.0000
# 2 67.4100 99.9354 37.7941 0.0000 0.0000 0.0000
# 3 35.4110 37.7941 36.3491 0.0000 0.0000 0.0000
# 4 0.0000 0.0000 0.0000 3.9787 0.0000 0.0000
# 5 0.0000 0.0000 0.0000 0.0000 27.2179 0.0000
# 6 0.0000 0.0000 0.0000 0.0000 0.0000 39.6968
#
#
#
# Elastic Compliance Matrix: (Units=1/GPa)
#
#
# Indices 1 2 3 4 5 6 
#
# 1 0.013297 -0.006708 -0.005979 0.000000 0.000000 0.000000
# 2 -0.006708 0.019875 -0.014130 0.000000 0.000000 0.000000
# 3 -0.005979 -0.014130 0.048028 0.000000 0.000000 0.000000
# 4 0.000000 0.000000 0.000000 0.251335 0.000000 0.000000
# 5 0.000000 0.000000 0.000000 0.000000 0.036741 0.000000
# 6 0.000000 0.000000 0.000000 0.000000 0.000000 0.025191
#
#
# Mechanical properties :
#
#
# Convention : Reuss Voigt Hill
#
# Bulk Modulus (GPa) = 36.27790 60.29412 48.28601
# Shear Modulus (GPa) = 10.93395 22.23215 16.58305
#
# Velocity S-wave (km/s) = 2.46748 3.51849 3.03877
# Velocity P-wave (km/s) = 5.32156 7.07677 6.26098
#
# Compressibility (1/GPa) = 0.02756499
#
# Stress axis : x y z
#
# Youngs Moduli (GPa) = 75.20246 50.31355 20.82127
#
# Poissons Ratio (x) = 0.33752 0.12449
# Poissons Ratio (y) = 0.50449 0.29421
# Poissons Ratio (z) = 0.44965 0.71094
#
# Static dielectric constant tensor:
#      x y z
#    x 3.454610 0.000000 0.000000 
#    y 0.000000 2.945440 0.000000 
#    z 0.000000 0.000000 2.901650 
# 
# 
# High freq. dielectric constant tensor:
#      x y z
#    x 1.708760 0.000000 0.000000 
#    y 0.000000 1.708850 0.000000 
#    z 0.000000 0.000000 1.650890 
# 
# From -- ./inp_files/60158.got.cif
#   From: 2010.03.12/outbox.cif.g09.slc.cpg/sg65_31_cif.got.tgz:60158.got - 2010.04.10 20:52:16.
