data_PCOD8270109
_publ_section_title
;
Structure prediction by ZEFSAII (Michael W. Deem and Ramdas Pophale) SiO2 
 PCOD8270109
Probable space group: C M M M
;
_chemical_formula_sum "Si O2"
_cell_formula_units_Z 104
_cell_length_a 8.721856
_cell_length_b 30.219418
_cell_length_c 23.082906
_cell_angle_alpha 90.000000
_cell_angle_beta 90.000000
_cell_angle_gamma 90.000000
_cell_volume 6083.947966
_symmetry_space_group_name_H-M "C M M M"
_symmetry_group_IT_number 65
_symmetry_cell_setting 'orthorhombic'
loop_
_space_group_symop_operation_xyz
x,y,z
-x,-y,z
x,-y,-z
-x,y,-z
-x,-y,-z
x,y,-z
-x,y,z
x,-y,z
1/2+x,1/2+y,z
1/2-x,1/2-y,z
1/2+x,1/2-y,-z
1/2-x,1/2+y,-z
1/2-x,1/2-y,-z
1/2+x,1/2+y,-z
1/2-x,1/2+y,z
1/2+x,1/2-y,z
loop_
_atom_site_type_symbol
_atom_site_label
_atom_site_fract_x
_atom_site_fract_y
_atom_site_fract_z
Si Si1 0.324037 0.915243 0.613832
Si Si2 0.178942 0.116228 0.727640
Si Si3 0.321501 0.051292 0.179885
Si Si4 0.331352 0.500000 0.566932
Si Si5 0.328664 0.552306 0.936792
Si Si6 0.682652 0.204507 0.686874
Si Si7 0.323326 0.822905 0.437280
O O1 0.500000 0.918563 0.634941
O O2 0.216430 0.909443 0.669079
O O3 0.303418 0.875485 0.568614
O O4 0.272090 0.958724 0.582224
O O5 0.230590 0.084949 0.779785
O O6 0.263206 0.163957 0.727204
O O7 0.000000 0.125337 0.733049
O O8 0.500000 0.056313 0.192485
O O9 0.286890 0.066710 0.114014
O O10 0.269552 0.000000 0.190413
O O11 0.500000 0.500000 0.597732
O O12 0.362601 0.500000 0.500000
O O13 0.500000 0.570157 0.923096
O O14 0.333236 0.500000 0.940104
O O15 0.273695 0.570626 0.000000
O O16 0.500000 0.204841 0.687153
O O17 0.750000 0.250000 0.712630
O O18 0.748259 0.199598 0.620459
O O19 0.247849 0.808856 0.500000
O O20 0.500000 0.809588 0.439579
#
# Coordination Sequence:
#
# PCOD8270109 Si02
#       7
#    16  16  16   8  16  16  16
#     4  10  20  34  51  68  90 122 160 202 246 294
#     4  11  22  36  53  72  98 129 165 208 255 301
#     4  10  20  32  48  72 103 138 176 213 249 293
#     4  11  23  35  47  67  93 121 158 201 244 295
#     4   8  14  26  44  67  98 136 175 211 247 286
#     4  10  20  35  54  75  99 126 159 199 248 304
#     4   8  15  29  49  71  93 117 147 186 235 292
#
# _framework density 17.094163000000002
#
# number of rings (size 3 to 8) (size 9 to 14) (size 15 to 20)
#    0.000    2.385    0.000    4.846    1.077    2.769 
#    0.000    1.538    0.000    8.769    0.000    0.000 
#    0.000    0.615    0.000    2.308    0.000    3.538 
#
# Total GULP energy -644382.826135 kJ/mol
# GULP energy per Si atom -12391.977426 kJ/mol
# Density = 1.705526 g / cm^3
# Si number density = 17.094163 Si / 1000 Ang^3
#
#
#
# Elastic Constant Matrix: (Units=GPa)
#
#
# Indices 1 2 3 4 5 6 
#
# 1 78.3969 34.9427 28.5661 0.0000 0.0000 0.0000
# 2 34.9427 93.0065 30.7627 0.0000 0.0000 0.0000
# 3 28.5661 30.7627 84.9291 0.0000 0.0000 0.0000
# 4 0.0000 0.0000 0.0000 13.4107 0.0000 0.0000
# 5 0.0000 0.0000 0.0000 0.0000 24.9465 0.0000
# 6 0.0000 0.0000 0.0000 0.0000 0.0000 24.4941
#
#
#
# Elastic Compliance Matrix: (Units=1/GPa)
#
#
# Indices 1 2 3 4 5 6 
#
# 1 0.016287 -0.004893 -0.003706 0.000000 0.000000 0.000000
# 2 -0.004893 0.013686 -0.003311 0.000000 0.000000 0.000000
# 3 -0.003706 -0.003311 0.014220 0.000000 0.000000 0.000000
# 4 0.000000 0.000000 0.000000 0.074567 0.000000 0.000000
# 5 0.000000 0.000000 0.000000 0.000000 0.040086 0.000000
# 6 0.000000 0.000000 0.000000 0.000000 0.000000 0.040826
#
#
# Mechanical properties :
#
#
# Convention : Reuss Voigt Hill
#
# Bulk Modulus (GPa) = 49.08633 49.43061 49.25847
# Shear Modulus (GPa) = 21.71238 23.37432 22.54335
#
# Velocity S-wave (km/s) = 3.56780 3.70183 3.63543
# Velocity P-wave (km/s) = 6.76387 6.87392 6.81912
#
# Compressibility (1/GPa) = 0.02037227
#
# Stress axis : x y z
#
# Youngs Moduli (GPa) = 61.39899 73.06944 70.32177
#
# Poissons Ratio (x) = 0.35755 0.26059
# Poissons Ratio (y) = 0.30045 0.23285
# Poissons Ratio (z) = 0.22753 0.24195
#
# Static dielectric constant tensor:
#      x y z
#    x 3.162170 0.000000 0.000000 
#    y 0.000000 3.059080 0.000000 
#    z 0.000000 0.000000 3.402020 
# 
# 
# High freq. dielectric constant tensor:
#      x y z
#    x 1.658600 0.000000 0.000000 
#    y 0.000000 1.636510 0.000000 
#    z 0.000000 0.000000 1.644870 
# 
# From -- ./inp_files/68512.got.cif
#   From: 2010.03.12/outbox.cif.g09.slc.cpg/sg65_35_cif.got.tgz:68512.got - 2010.04.10 20:52:16.
