data_PCOD8270173
_publ_section_title
;
Structure prediction by ZEFSAII (Michael W. Deem and Ramdas Pophale) SiO2 
 PCOD8270173
Probable space group: C M M M
;
_chemical_formula_sum "Si O2"
_cell_formula_units_Z 64
_cell_length_a 26.007567
_cell_length_b 17.940349
_cell_length_c 7.396374
_cell_angle_alpha 90.000000
_cell_angle_beta 90.000000
_cell_angle_gamma 90.000000
_cell_volume 3451.035895
_symmetry_space_group_name_H-M "C M M M"
_symmetry_group_IT_number 65
_symmetry_cell_setting 'orthorhombic'
loop_
_space_group_symop_operation_xyz
x,y,z
-x,-y,z
x,-y,-z
-x,y,-z
-x,-y,-z
x,y,-z
-x,y,z
x,-y,z
1/2+x,1/2+y,z
1/2-x,1/2-y,z
1/2+x,1/2-y,-z
1/2-x,1/2+y,-z
1/2-x,1/2-y,-z
1/2+x,1/2+y,-z
1/2-x,1/2+y,z
1/2+x,1/2-y,z
loop_
_atom_site_type_symbol
_atom_site_label
_atom_site_fract_x
_atom_site_fract_y
_atom_site_fract_z
Si Si1 0.704109 0.302500 0.293971
Si Si2 0.832987 0.912419 0.000000
Si Si3 0.442067 0.920214 0.714262
Si Si4 0.595070 0.765725 0.294107
Si Si5 0.057593 0.841805 0.000000
O O1 0.714559 0.328647 0.500000
O O2 0.750000 0.250000 0.221419
O O3 0.654765 0.250642 0.278654
O O4 0.694592 0.376167 0.174652
O O5 0.895209 0.900897 0.000000
O O6 0.821728 0.000000 0.000000
O O7 0.440877 0.921074 0.500000
O O8 0.500000 0.911130 0.784770
O O9 0.410231 0.849447 0.785482
O O10 0.419687 0.000000 0.785779
O O11 0.574974 0.759372 0.500000
O O12 0.561428 0.708645 0.178391
O O13 0.000000 0.879063 0.000000
#
# Coordination Sequence:
#
# PCOD8270173 Si02
#       5
#    16   8  16  16   8
#     4   9  18  34  56  78  99 128 168 210 250 298
#     4  10  21  36  54  76 105 137 165 206 262 310
#     4   8  13  22  38  60  87 120 153 185 229 284
#     4   9  17  30  48  69  95 127 163 205 250 295
#     4  10  20  32  49  73  96 126 173 215 249 300
#
# _framework density 18.545157
#
# number of rings (size 3 to 8) (size 9 to 14) (size 15 to 20)
#    0.000    3.000    0.000    1.875    0.000    2.250 
#    0.000    1.875    0.000    6.750    0.000    7.000 
#    0.000    0.000    0.000    0.000    0.000    0.000 
#
# Total GULP energy -396487.134082 kJ/mol
# GULP energy per Si atom -12390.222940 kJ/mol
# Density = 1.850295 g / cm^3
# Si number density = 18.545157 Si / 1000 Ang^3
#
#
#
# Elastic Constant Matrix: (Units=GPa)
#
#
# Indices 1 2 3 4 5 6 
#
# 1 82.8045 40.3453 29.5871 0.0000 0.0000 0.0000
# 2 40.3453 145.8990 42.6784 0.0000 0.0000 0.0000
# 3 29.5871 42.6784 79.9953 0.0000 0.0000 0.0000
# 4 0.0000 0.0000 0.0000 12.5994 0.0000 0.0000
# 5 0.0000 0.0000 0.0000 0.0000 10.4217 0.0000
# 6 0.0000 0.0000 0.0000 0.0000 0.0000 18.3350
#
#
#
# Elastic Compliance Matrix: (Units=1/GPa)
#
#
# Indices 1 2 3 4 5 6 
#
# 1 0.014934 -0.002979 -0.003934 0.000000 0.000000 0.000000
# 2 -0.002979 0.008716 -0.003548 0.000000 0.000000 0.000000
# 3 -0.003934 -0.003548 0.015849 0.000000 0.000000 0.000000
# 4 0.000000 0.000000 0.000000 0.079369 0.000000 0.000000
# 5 0.000000 0.000000 0.000000 0.000000 0.095954 0.000000
# 6 0.000000 0.000000 0.000000 0.000000 0.000000 0.054541
#
#
# Mechanical properties :
#
#
# Convention : Reuss Voigt Hill
#
# Bulk Modulus (GPa) = 53.83300 59.32446 56.57873
# Shear Modulus (GPa) = 16.86478 21.34375 19.10426
#
# Velocity S-wave (km/s) = 3.01888 3.39618 3.21307
# Velocity P-wave (km/s) = 6.42204 6.88748 6.65883
#
# Compressibility (1/GPa) = 0.01857597
#
# Stress axis : x y z
#
# Youngs Moduli (GPa) = 66.96243 114.73563 63.09612
#
# Poissons Ratio (x) = 0.34177 0.24823
# Poissons Ratio (y) = 0.19947 0.22388
# Poissons Ratio (z) = 0.26344 0.40710
#
# Static dielectric constant tensor:
#      x y z
#    x 3.349540 0.000000 0.000000 
#    y 0.000000 3.570920 0.000000 
#    z 0.000000 0.000000 3.582850 
# 
# 
# High freq. dielectric constant tensor:
#      x y z
#    x 1.704800 0.000000 0.000000 
#    y 0.000000 1.703880 0.000000 
#    z 0.000000 0.000000 1.721500 
# 
# From -- ./inp_files/15642.got.cif
#   From: 2010.03.12/outbox.cif.g09.slc.cpg/sg65_8_cif.got.tgz:15642.got - 2010.04.10 20:52:16.
