data_PCOD8270204
_publ_section_title
;
Structure prediction by ZEFSAII (Michael W. Deem and Ramdas Pophale) SiO2 
 PCOD8270204
Probable space group: C M M M
;
_chemical_formula_sum "Si O2"
_cell_formula_units_Z 104
_cell_length_a 28.567636
_cell_length_b 8.720480
_cell_length_c 23.245072
_cell_angle_alpha 90.000000
_cell_angle_beta 90.000000
_cell_angle_gamma 90.000000
_cell_volume 5790.893657
_symmetry_space_group_name_H-M "C M M M"
_symmetry_group_IT_number 65
_symmetry_cell_setting 'orthorhombic'
loop_
_space_group_symop_operation_xyz
x,y,z
-x,-y,z
x,-y,-z
-x,y,-z
-x,-y,-z
x,y,-z
-x,y,z
x,-y,z
1/2+x,1/2+y,z
1/2-x,1/2-y,z
1/2+x,1/2-y,-z
1/2-x,1/2+y,-z
1/2-x,1/2-y,-z
1/2+x,1/2+y,-z
1/2-x,1/2+y,z
1/2+x,1/2-y,z
loop_
_atom_site_type_symbol
_atom_site_label
_atom_site_fract_x
_atom_site_fract_y
_atom_site_fract_z
Si Si1 0.551016 0.181748 0.654831
Si Si2 0.640073 0.680277 0.831260
Si Si3 0.198913 0.182830 0.720746
Si Si4 0.301618 0.681387 0.500000
Si Si5 0.799698 0.181422 0.064331
Si Si6 0.850976 0.682226 0.610056
Si Si7 0.947270 0.322589 0.216282
O O1 0.500000 0.239748 0.631090
O O2 0.594193 0.232745 0.614537
O O3 0.558776 0.246339 0.719320
O O4 0.549547 0.000000 0.659400
O O5 0.639736 0.500000 0.834062
O O6 0.669151 0.735580 0.775859
O O7 0.662774 0.746069 0.889900
O O8 0.587009 0.737975 0.827630
O O9 0.250000 0.250000 0.729900
O O10 0.176605 0.261605 0.665435
O O11 0.200417 0.000000 0.712674
O O12 0.297148 0.500000 0.500000
O O13 0.250000 0.750000 0.500000
O O14 0.329949 0.735526 0.444826
O O15 0.750000 0.250000 0.081545
O O16 0.795366 0.000000 0.068318
O O17 0.814697 0.233275 0.000000
O O18 0.845644 0.500000 0.603825
O O19 0.934001 0.500000 0.216497
O O20 0.000000 0.295388 0.194350
#
# Coordination Sequence:
#
# PCOD8270204 Si02
#       7
#    16  16  16   8  16  16  16
#     4   8  15  30  54  82 108 134 168 209 252 304
#     4  10  20  32  49  76 107 136 171 216 266 316
#     4  11  22  34  49  74 107 137 169 211 263 313
#     4  12  26  44  61  78 105 139 180 221 259 308
#     4   9  18  33  51  72 101 139 181 222 262 310
#     4  11  21  37  60  82 105 137 176 214 258 308
#     4   9  17  31  52  78 106 137 173 212 257 311
#
# _framework density 17.959230000000002
#
# number of rings (size 3 to 8) (size 9 to 14) (size 15 to 20)
#    0.000    2.154    1.538    3.462    0.000    1.538 
#    0.000    0.385    0.000    4.615    0.000    3.231 
#    0.000    0.000    0.000    0.000    0.000    0.000 
#
# Total GULP energy -644663.266003 kJ/mol
# GULP energy per Si atom -12397.370500 kJ/mol
# Density = 1.791835 g / cm^3
# Si number density = 17.959230 Si / 1000 Ang^3
#
#
#
# Elastic Constant Matrix: (Units=GPa)
#
#
# Indices 1 2 3 4 5 6 
#
# 1 142.6693 28.3748 75.4073 0.0000 0.0000 0.0000
# 2 28.3748 39.8536 32.3206 0.0000 0.0000 0.0000
# 3 75.4073 32.3206 127.2682 0.0000 0.0000 0.0000
# 4 0.0000 0.0000 0.0000 -8.3050 0.0000 0.0000
# 5 0.0000 0.0000 0.0000 0.0000 22.8065 0.0000
# 6 0.0000 0.0000 0.0000 0.0000 0.0000 27.0799
#
#
#
# Elastic Compliance Matrix: (Units=1/GPa)
#
#
# Indices 1 2 3 4 5 6 
#
# 1 0.010493 -0.003059 -0.005440 0.000000 0.000000 0.000000
# 2 -0.003059 0.032492 -0.006439 0.000000 0.000000 0.000000
# 3 -0.005440 -0.006439 0.012716 0.000000 0.000000 0.000000
# 4 0.000000 0.000000 0.000000 -0.120409 0.000000 0.000000
# 5 0.000000 0.000000 0.000000 0.000000 0.043847 0.000000
# 6 0.000000 0.000000 0.000000 0.000000 0.000000 0.036928
#
#
# Mechanical properties :
#
#
# Convention : Reuss Voigt Hill
#
# Bulk Modulus (GPa) = 38.72325 64.66626 51.69476
# Shear Modulus (GPa) = 91.65736 19.89551 55.77644
#
# Velocity S-wave (km/s) = 7.15172 3.33200 5.57895
# Velocity P-wave (km/s) = 9.47654 7.13361 8.38729
#
# Compressibility (1/GPa) = 0.02582428
#
# Stress axis : x y z
#
# Youngs Moduli (GPa) = 95.30104 30.77717 78.64001
#
# Poissons Ratio (x) = 0.09414 0.42784
# Poissons Ratio (y) = 0.29150 0.50637
# Poissons Ratio (z) = 0.51848 0.19818
#
# Static dielectric constant tensor:
#      x y z
#    x 3.874080 0.000000 0.000000 
#    y 0.000000 3.193400 0.000000 
#    z 0.000000 0.000000 3.354030 
# 
# 
# High freq. dielectric constant tensor:
#      x y z
#    x 1.707250 0.000000 0.000000 
#    y 0.000000 1.682690 0.000000 
#    z 0.000000 0.000000 1.681940 
# 
# From -- ./inp_files/65928.got.cif
#   From: 2010.03.12/outbox.cif.g09.slc.cpg/sg65_33_cif.got.tgz:65928.got - 2010.04.10 20:52:16.
