data_PCOD8270945
_publ_section_title
;
Structure prediction by ZEFSAII (Michael W. Deem and Ramdas Pophale) SiO2 
 PCOD8270945
Probable space group: C M M M
;
_chemical_formula_sum "Si O2"
_cell_formula_units_Z 96
_cell_length_a 9.382349
_cell_length_b 27.072320
_cell_length_c 23.968787
_cell_angle_alpha 90.000000
_cell_angle_beta 90.000000
_cell_angle_gamma 90.000000
_cell_volume 6088.118745
_symmetry_space_group_name_H-M "C M M M"
_symmetry_group_IT_number 65
_symmetry_cell_setting 'orthorhombic'
loop_
_space_group_symop_operation_xyz
x,y,z
-x,-y,z
x,-y,-z
-x,y,-z
-x,-y,-z
x,y,-z
-x,y,z
x,-y,z
1/2+x,1/2+y,z
1/2-x,1/2-y,z
1/2+x,1/2-y,-z
1/2-x,1/2+y,-z
1/2-x,1/2-y,-z
1/2+x,1/2+y,-z
1/2-x,1/2+y,z
1/2+x,1/2-y,z
loop_
_atom_site_type_symbol
_atom_site_label
_atom_site_fract_x
_atom_site_fract_y
_atom_site_fract_z
Si Si1 0.164407 0.555651 0.386059
Si Si2 0.836492 0.139521 0.562275
Si Si3 0.339449 0.558676 0.061177
Si Si4 0.166867 0.443577 0.834383
Si Si5 0.668967 0.300632 0.330440
Si Si6 0.164907 0.614347 0.724401
O O1 0.222638 0.500000 0.390896
O O2 0.247802 0.589710 0.429432
O O3 0.188308 0.573366 0.322935
O O4 0.000000 0.558375 0.402861
O O5 0.807614 0.160272 0.500000
O O6 0.793169 0.181402 0.606820
O O7 0.000000 0.124823 0.570951
O O8 0.500000 0.576881 0.072372
O O9 0.332466 0.500000 0.061251
O O10 0.240058 0.579403 0.110445
O O11 0.288092 0.577870 0.000000
O O12 0.216131 0.500000 0.823246
O O13 0.212415 0.410261 0.782223
O O14 0.000000 0.441415 0.844588
O O15 0.500000 0.294254 0.321359
O O16 0.750000 0.250000 0.319945
O O17 0.731409 0.339466 0.286035
O O18 0.000000 0.631878 0.725540
#
# Coordination Sequence:
#
# PCOD8270945 Si02
#       6
#    16  16  16  16  16  16
#     4   9  17  29  45  64  87 116 147 177 209 247
#     4   9  19  34  48  64  87 112 139 172 210 255
#     4   8  14  24  36  52  80 119 157 188 217 248
#     4   9  16  25  40  63  89 118 151 184 216 249
#     4  10  20  34  51  68  85 107 136 172 217 265
#     4   9  17  30  46  64  88 115 143 177 216 257
#
# _framework density 15.768419
#
# number of rings (size 3 to 8) (size 9 to 14) (size 15 to 20)
#    0.000    3.000    0.000    1.500    0.000    5.000 
#    0.000    3.333    0.000    3.000    0.000    0.000 
#    0.000    0.667    0.000    2.167    0.000    3.167 
#
# Total GULP energy -595067.406978 kJ/mol
# GULP energy per Si atom -12397.237645 kJ/mol
# Density = 1.573253 g / cm^3
# Si number density = 15.768419 Si / 1000 Ang^3
#
#
#
# Elastic Constant Matrix: (Units=GPa)
#
#
# Indices 1 2 3 4 5 6 
#
# 1 58.9780 41.1365 44.4260 0.0000 0.0000 0.0000
# 2 41.1365 80.2946 36.1307 0.0000 0.0000 0.0000
# 3 44.4260 36.1307 117.2246 0.0000 0.0000 0.0000
# 4 0.0000 0.0000 0.0000 12.8766 0.0000 0.0000
# 5 0.0000 0.0000 0.0000 0.0000 27.7272 0.0000
# 6 0.0000 0.0000 0.0000 0.0000 0.0000 23.3647
#
#
#
# Elastic Compliance Matrix: (Units=1/GPa)
#
#
# Indices 1 2 3 4 5 6 
#
# 1 0.031999 -0.012698 -0.008213 0.000000 0.000000 0.000000
# 2 -0.012698 0.019498 -0.001197 0.000000 0.000000 0.000000
# 3 -0.008213 -0.001197 0.012012 0.000000 0.000000 0.000000
# 4 0.000000 0.000000 0.000000 0.077660 0.000000 0.000000
# 5 0.000000 0.000000 0.000000 0.000000 0.036066 0.000000
# 6 0.000000 0.000000 0.000000 0.000000 0.000000 0.042800
#
#
# Mechanical properties :
#
#
# Convention : Reuss Voigt Hill
#
# Bulk Modulus (GPa) = 51.83397 55.54262 53.68830
# Shear Modulus (GPa) = 18.47176 21.78062 20.12619
#
# Velocity S-wave (km/s) = 3.42634 3.72059 3.57650
# Velocity P-wave (km/s) = 6.97112 7.33195 7.15381
#
# Compressibility (1/GPa) = 0.01929237
#
# Stress axis : x y z
#
# Youngs Moduli (GPa) = 31.25106 51.28634 83.24735
#
# Poissons Ratio (x) = 0.65123 0.68373
# Poissons Ratio (y) = 0.39682 0.09969
# Poissons Ratio (z) = 0.25667 0.06141
#
# Static dielectric constant tensor:
#      x y z
#    x 3.040450 0.000000 0.000000 
#    y 0.000000 2.744740 0.000000 
#    z 0.000000 0.000000 3.196680 
# 
# 
# High freq. dielectric constant tensor:
#      x y z
#    x 1.607390 0.000000 0.000000 
#    y 0.000000 1.569570 0.000000 
#    z 0.000000 0.000000 1.604640 
# 
# From -- ./inp_files/60268.got.cif
#   From: 2010.03.12/outbox.cif.g09.slc.cpg/sg65_31_cif.got.tgz:60268.got - 2010.04.10 20:52:16.
