data_PCOD8270996
_publ_section_title
;
Structure prediction by ZEFSAII (Michael W. Deem and Ramdas Pophale) SiO2 
 PCOD8270996
Probable space group: C M M M
;
_chemical_formula_sum "Si O2"
_cell_formula_units_Z 80
_cell_length_a 28.340273
_cell_length_b 9.090187
_cell_length_c 20.693447
_cell_angle_alpha 90.000000
_cell_angle_beta 90.000000
_cell_angle_gamma 90.000000
_cell_volume 5331.012318
_symmetry_space_group_name_H-M "C M M M"
_symmetry_group_IT_number 65
_symmetry_cell_setting 'orthorhombic'
loop_
_space_group_symop_operation_xyz
x,y,z
-x,-y,z
x,-y,-z
-x,y,-z
-x,-y,-z
x,y,-z
-x,y,z
x,-y,z
1/2+x,1/2+y,z
1/2-x,1/2-y,z
1/2+x,1/2-y,-z
1/2-x,1/2+y,-z
1/2-x,1/2-y,-z
1/2+x,1/2+y,-z
1/2-x,1/2+y,z
1/2+x,1/2-y,z
loop_
_atom_site_type_symbol
_atom_site_label
_atom_site_fract_x
_atom_site_fract_y
_atom_site_fract_z
Si Si1 0.298543 0.672424 0.925015
Si Si2 0.055909 0.837925 0.378133
Si Si3 0.556400 0.836636 0.500000
Si Si4 0.888830 0.674977 0.123245
Si Si5 0.945204 0.172513 0.766298
Si Si6 0.447387 0.174402 0.000000
O O1 0.295037 0.500000 0.909700
O O2 0.250000 0.750000 0.905522
O O3 0.338440 0.746716 0.881274
O O4 0.310280 0.701770 0.000000
O O5 0.076951 0.737367 0.435008
O O6 0.068858 0.779928 0.306666
O O7 0.000000 0.845860 0.384105
O O8 0.077333 0.000000 0.388069
O O9 0.500000 0.831771 0.500000
O O10 0.576207 0.000000 0.500000
O O11 0.882085 0.500000 0.122998
O O12 0.913810 0.725644 0.188465
O O13 0.920507 0.730507 0.063437
O O14 0.000000 0.206353 0.779831
O O15 0.934847 0.000000 0.777620
O O16 0.500000 0.242221 0.000000
O O17 0.449976 0.000000 0.000000
#
# Coordination Sequence:
#
# PCOD8270996 Si02
#       6
#    16  16   8  16  16   8
#     4  10  20  34  52  70  88 107 135 175 222 270
#     4   8  14  25  39  53  74 108 145 178 214 256
#     4   9  15  21  33  55  79 101 134 181 220 251
#     4  11  20  31  47  65  88 115 145 180 222 267
#     4   9  18  31  44  60  85 117 153 188 220 258
#     4   9  18  30  42  59  84 113 146 181 214 251
#
# _framework density 15.006532
#
# number of rings (size 3 to 8) (size 9 to 14) (size 15 to 20)
#    0.000    2.600    1.000    3.300    0.000    4.000 
#    0.000    2.000    0.000    2.400    0.000    0.000 
#    0.000    0.000    0.000    0.900    0.000   11.900 
#
# Total GULP energy -495907.954572 kJ/mol
# GULP energy per Si atom -12397.698864 kJ/mol
# Density = 1.497238 g / cm^3
# Si number density = 15.006532 Si / 1000 Ang^3
#
#
#
# Elastic Constant Matrix: (Units=GPa)
#
#
# Indices 1 2 3 4 5 6 
#
# 1 73.6397 42.1367 42.3412 0.0000 0.0000 0.0000
# 2 42.1367 87.5552 55.0788 0.0000 0.0000 0.0000
# 3 42.3412 55.0788 115.6611 0.0000 0.0000 0.0000
# 4 0.0000 0.0000 0.0000 24.1167 0.0000 0.0000
# 5 0.0000 0.0000 0.0000 0.0000 3.5608 0.0000
# 6 0.0000 0.0000 0.0000 0.0000 0.0000 20.9095
#
#
#
# Elastic Compliance Matrix: (Units=1/GPa)
#
#
# Indices 1 2 3 4 5 6 
#
# 1 0.019894 -0.007128 -0.003888 0.000000 0.000000 0.000000
# 2 -0.007128 0.018860 -0.006372 0.000000 0.000000 0.000000
# 3 -0.003888 -0.006372 0.013104 0.000000 0.000000 0.000000
# 4 0.000000 0.000000 0.000000 0.041465 0.000000 0.000000
# 5 0.000000 0.000000 0.000000 0.000000 0.280839 0.000000
# 6 0.000000 0.000000 0.000000 0.000000 0.000000 0.047825
#
#
# Mechanical properties :
#
#
# Convention : Reuss Voigt Hill
#
# Bulk Modulus (GPa) = 58.54372 61.77439 60.15905
# Shear Modulus (GPa) = 10.81179 18.87068 14.84123
#
# Velocity S-wave (km/s) = 2.68707 3.54997 3.14822
# Velocity P-wave (km/s) = 6.98026 7.61954 7.30689
#
# Compressibility (1/GPa) = 0.01708125
#
# Stress axis : x y z
#
# Youngs Moduli (GPa) = 50.26623 53.02142 76.31388
#
# Poissons Ratio (x) = 0.37794 0.29673
# Poissons Ratio (y) = 0.35830 0.48627
# Poissons Ratio (z) = 0.19545 0.33785
#
# Static dielectric constant tensor:
#      x y z
#    x 2.589250 0.000000 0.000000 
#    y 0.000000 2.928050 0.000000 
#    z 0.000000 0.000000 2.967020 
# 
# 
# High freq. dielectric constant tensor:
#      x y z
#    x 1.529090 0.000000 0.000000 
#    y 0.000000 1.578580 0.000000 
#    z 0.000000 0.000000 1.571480 
# 
# From -- ./inp_files/60056.got.cif
#   From: 2010.03.12/outbox.cif.g09.slc.cpg/sg65_31_cif.got.tgz:60056.got - 2010.04.10 20:52:16.
