data_PCOD8270165
_publ_section_title
;
Structure prediction by ZEFSAII (Michael W. Deem and Ramdas Pophale) SiO2 
 PCOD8270165
Probable space group: C M M M
;
_chemical_formula_sum "Si O2"
_cell_formula_units_Z 104
_cell_length_a 20.759001
_cell_length_b 28.467377
_cell_length_c 9.355156
_cell_angle_alpha 90.000000
_cell_angle_beta 90.000000
_cell_angle_gamma 90.000000
_cell_volume 5528.469737
_symmetry_space_group_name_H-M "C M M M"
_symmetry_group_IT_number 65
_symmetry_cell_setting 'orthorhombic'
loop_
_space_group_symop_operation_xyz
x,y,z
-x,-y,z
x,-y,-z
-x,y,-z
-x,-y,-z
x,y,-z
-x,y,z
x,-y,z
1/2+x,1/2+y,z
1/2-x,1/2-y,z
1/2+x,1/2-y,-z
1/2-x,1/2+y,-z
1/2-x,1/2-y,-z
1/2+x,1/2+y,-z
1/2-x,1/2+y,z
1/2+x,1/2-y,z
loop_
_atom_site_type_symbol
_atom_site_label
_atom_site_fract_x
_atom_site_fract_y
_atom_site_fract_z
Si Si1 0.428730 0.782124 0.338407
Si Si2 0.163183 0.947537 0.338561
Si Si3 0.644206 0.690747 0.333819
Si Si4 0.500000 0.946523 0.830933
Si Si5 0.105222 0.628270 0.169888
Si Si6 0.264364 0.132430 0.337622
Si Si7 0.424600 0.387320 0.161765
O O1 0.415986 0.800130 0.500000
O O2 0.500000 0.758790 0.328253
O O3 0.372855 0.744730 0.297132
O O4 0.428322 0.825331 0.230340
O O5 0.137023 0.943064 0.500000
O O6 0.224501 0.914810 0.316442
O O7 0.106131 0.933330 0.232754
O O8 0.185683 0.000000 0.302371
O O9 0.630912 0.679938 0.500000
O O10 0.718737 0.677424 0.298596
O O11 0.595652 0.659365 0.244000
O O12 0.563895 0.917640 0.781841
O O13 0.500000 0.000000 0.766327
O O14 0.500000 0.950208 0.000000
O O15 0.177057 0.627127 0.229970
O O16 0.107534 0.631846 0.000000
O O17 0.289868 0.137640 0.500000
O O18 0.500000 0.393722 0.169493
O O19 0.399824 0.383079 0.000000
#
# Coordination Sequence:
#
# PCOD8270165 Si02
#       7
#    16  16  16   8  16  16  16
#     4  10  20  35  58  84 111 144 184 229 274 323
#     4   9  19  36  56  76 101 139 185 230 276 329
#     4   9  19  36  57  80 107 147 191 227 268 324
#     4   9  20  40  61  81 109 145 185 227 274 335
#     4  11  22  37  58  83 111 143 179 222 275 334
#     4   9  19  36  56  79 110 142 178 228 277 326
#     4  10  20  32  48  75 111 146 181 228 279 323
#
# _framework density 18.811715
#
# number of rings (size 3 to 8) (size 9 to 14) (size 15 to 20)
#    0.000    2.385    0.769    2.308    0.000    6.769 
#    0.000    4.615    0.000    3.231    0.000    0.000 
#    0.000    0.000    0.000    0.000    0.000    0.000 
#
# Total GULP energy -644605.954988 kJ/mol
# GULP energy per Si atom -12396.268365 kJ/mol
# Density = 1.876890 g / cm^3
# Si number density = 18.811715 Si / 1000 Ang^3
#
#
#
# Elastic Constant Matrix: (Units=GPa)
#
#
# Indices 1 2 3 4 5 6 
#
# 1 112.4098 62.2979 54.5293 0.0000 0.0000 0.0000
# 2 62.2979 134.5307 47.7112 0.0000 0.0000 0.0000
# 3 54.5293 47.7112 84.7464 0.0000 0.0000 0.0000
# 4 0.0000 0.0000 0.0000 7.6029 0.0000 0.0000
# 5 0.0000 0.0000 0.0000 0.0000 33.7276 0.0000
# 6 0.0000 0.0000 0.0000 0.0000 0.0000 21.9844
#
#
#
# Elastic Compliance Matrix: (Units=1/GPa)
#
#
# Indices 1 2 3 4 5 6 
#
# 1 0.014695 -0.004313 -0.007027 0.000000 0.000000 0.000000
# 2 -0.004313 0.010553 -0.003166 0.000000 0.000000 0.000000
# 3 -0.007027 -0.003166 0.018104 0.000000 0.000000 0.000000
# 4 0.000000 0.000000 0.000000 0.131529 0.000000 0.000000
# 5 0.000000 0.000000 0.000000 0.000000 0.029649 0.000000
# 6 0.000000 0.000000 0.000000 0.000000 0.000000 0.045487
#
#
# Mechanical properties :
#
#
# Convention : Reuss Voigt Hill
#
# Bulk Modulus (GPa) = 69.73685 73.41820 71.57752
# Shear Modulus (GPa) = 17.61739 23.80623 20.71181
#
# Velocity S-wave (km/s) = 3.06357 3.56125 3.32174
# Velocity P-wave (km/s) = 7.04737 7.48483 7.26939
#
# Compressibility (1/GPa) = 0.01433962
#
# Stress axis : x y z
#
# Youngs Moduli (GPa) = 68.04994 94.75705 55.23542
#
# Poissons Ratio (x) = 0.40865 0.38816
# Poissons Ratio (y) = 0.29348 0.17490
# Poissons Ratio (z) = 0.47822 0.30004
#
# Static dielectric constant tensor:
#      x y z
#    x 3.457120 0.000000 0.000000 
#    y 0.000000 3.684170 0.000000 
#    z 0.000000 0.000000 3.452550 
# 
# 
# High freq. dielectric constant tensor:
#      x y z
#    x 1.732360 0.000000 0.000000 
#    y 0.000000 1.729770 0.000000 
#    z 0.000000 0.000000 1.722440 
# 
# From -- ./inp_files/12826.got.cif
#   From: 2010.03.12/outbox.cif.g09.slc.cpg/sg65_7_cif.got.tgz:12826.got - 2010.04.10 20:52:16.
