data_PCOD8270557
_publ_section_title
;
Structure prediction by ZEFSAII (Michael W. Deem and Ramdas Pophale) SiO2 
 PCOD8270557
Probable space group: C M M M
;
_chemical_formula_sum "Si O2"
_cell_formula_units_Z 80
_cell_length_a 18.324946
_cell_length_b 8.939224
_cell_length_c 25.715591
_cell_angle_alpha 90.000000
_cell_angle_beta 90.000000
_cell_angle_gamma 90.000000
_cell_volume 4212.491459
_symmetry_space_group_name_H-M "C M M M"
_symmetry_group_IT_number 65
_symmetry_cell_setting 'orthorhombic'
loop_
_space_group_symop_operation_xyz
x,y,z
-x,-y,z
x,-y,-z
-x,y,-z
-x,-y,-z
x,y,-z
-x,y,z
x,-y,z
1/2+x,1/2+y,z
1/2-x,1/2-y,z
1/2+x,1/2-y,-z
1/2-x,1/2+y,-z
1/2-x,1/2-y,-z
1/2+x,1/2+y,-z
1/2-x,1/2+y,z
1/2+x,1/2-y,z
loop_
_atom_site_type_symbol
_atom_site_label
_atom_site_fract_x
_atom_site_fract_y
_atom_site_fract_z
Si Si1 0.672189 0.323060 0.154486
Si Si2 0.673154 0.824810 0.346575
Si Si3 0.418366 0.322314 0.057599
Si Si4 0.585236 0.172106 0.244047
Si Si5 0.918304 0.322279 0.442323
O O1 0.681574 0.500000 0.153405
O O2 0.750000 0.250000 0.163793
O O3 0.637938 0.260775 0.100492
O O4 0.618574 0.279527 0.200792
O O5 0.750000 0.750000 0.335693
O O6 0.619745 0.786615 0.299296
O O7 0.636936 0.757513 0.399145
O O8 0.686157 0.000000 0.352185
O O9 0.500000 0.261244 0.069387
O O10 0.420246 0.500000 0.059845
O O11 0.393329 0.268699 0.000000
O O12 0.500000 0.204788 0.248056
O O13 0.601265 0.000000 0.229251
O O14 0.891587 0.273394 0.500000
O O15 0.920692 0.500000 0.437909
O O16 0.000000 0.260105 0.432231
#
# Coordination Sequence:
#
# PCOD8270557 Si02
#       5
#    16  16  16  16  16
#     4  11  22  35  53  78 107 138 172 210 253 302
#     4  10  20  33  50  74 103 133 165 203 250 302
#     4   8  15  30  52  76 101 131 169 211 253 298
#     4  10  21  37  56  76 100 132 170 213 259 306
#     4   8  14  27  49  74  97 125 166 211 248 288
#
# _framework density 18.991136999999998
#
# number of rings (size 3 to 8) (size 9 to 14) (size 15 to 20)
#    0.000    2.600    0.000    3.600    0.000    6.800 
#    0.000    0.000    0.000    3.600    0.000    8.400 
#    0.000    0.000    0.000    0.000    0.000    0.000 
#
# Total GULP energy -495927.877477 kJ/mol
# GULP energy per Si atom -12398.196937 kJ/mol
# Density = 1.894791 g / cm^3
# Si number density = 18.991137 Si / 1000 Ang^3
#
#
#
# Elastic Constant Matrix: (Units=GPa)
#
#
# Indices 1 2 3 4 5 6 
#
# 1 132.3942 33.2432 74.8201 0.0000 0.0000 0.0000
# 2 33.2432 34.2765 38.1290 0.0000 0.0000 0.0000
# 3 74.8201 38.1290 145.2011 0.0000 0.0000 0.0000
# 4 0.0000 0.0000 0.0000 22.2349 0.0000 0.0000
# 5 0.0000 0.0000 0.0000 0.0000 6.2653 0.0000
# 6 0.0000 0.0000 0.0000 0.0000 0.0000 18.0639
#
#
#
# Elastic Compliance Matrix: (Units=1/GPa)
#
#
# Indices 1 2 3 4 5 6 
#
# 1 0.011598 -0.006499 -0.004270 0.000000 0.000000 0.000000
# 2 -0.006499 0.044855 -0.008430 0.000000 0.000000 0.000000
# 3 -0.004270 -0.008430 0.011301 0.000000 0.000000 0.000000
# 4 0.000000 0.000000 0.000000 0.044974 0.000000 0.000000
# 5 0.000000 0.000000 0.000000 0.000000 0.159610 0.000000
# 6 0.000000 0.000000 0.000000 0.000000 0.000000 0.055359
#
#
# Mechanical properties :
#
#
# Convention : Reuss Voigt Hill
#
# Bulk Modulus (GPa) = 34.06377 67.13961 50.60169
# Shear Modulus (GPa) = 13.30217 20.35812 16.83014
#
# Velocity S-wave (km/s) = 2.64946 3.27766 2.98016
# Velocity P-wave (km/s) = 5.22830 7.05365 6.20842
#
# Compressibility (1/GPa) = 0.02935671
#
# Stress axis : x y z
#
# Youngs Moduli (GPa) = 86.22222 22.29426 88.48956
#
# Poissons Ratio (x) = 0.14488 0.37783
# Poissons Ratio (y) = 0.56033 0.74596
# Poissons Ratio (z) = 0.36815 0.18794
#
# Static dielectric constant tensor:
#      x y z
#    x 3.565640 0.000000 0.000000 
#    y 0.000000 3.044780 0.000000 
#    z 0.000000 0.000000 3.870410 
# 
# 
# High freq. dielectric constant tensor:
#      x y z
#    x 1.743950 0.000000 0.000000 
#    y 0.000000 1.691010 0.000000 
#    z 0.000000 0.000000 1.756930 
# 
# From -- ./inp_files/72714.got.cif
#   From: 2010.03.12/outbox.cif.g09.slc.cpg/sg65_37_cif.got.tgz:72714.got - 2010.04.10 20:52:16.
