data_PCOD8270426
_publ_section_title
;
Structure prediction by ZEFSAII (Michael W. Deem and Ramdas Pophale) SiO2 
 PCOD8270426
Probable space group: C M M M
;
_chemical_formula_sum "Si O2"
_cell_formula_units_Z 104
_cell_length_a 9.055404
_cell_length_b 19.636865
_cell_length_c 33.207994
_cell_angle_alpha 90.000000
_cell_angle_beta 90.000000
_cell_angle_gamma 90.000000
_cell_volume 5905.037054
_symmetry_space_group_name_H-M "C M M M"
_symmetry_group_IT_number 65
_symmetry_cell_setting 'orthorhombic'
loop_
_space_group_symop_operation_xyz
x,y,z
-x,-y,z
x,-y,-z
-x,y,-z
-x,-y,-z
x,y,-z
-x,y,z
x,-y,z
1/2+x,1/2+y,z
1/2-x,1/2-y,z
1/2+x,1/2-y,-z
1/2-x,1/2+y,-z
1/2-x,1/2-y,-z
1/2+x,1/2+y,-z
1/2-x,1/2+y,z
1/2+x,1/2-y,z
loop_
_atom_site_type_symbol
_atom_site_label
_atom_site_fract_x
_atom_site_fract_y
_atom_site_fract_z
Si Si1 0.828020 0.080153 0.659492
Si Si2 0.833189 0.419075 0.578845
Si Si3 0.166904 0.080899 0.956083
Si Si4 0.674248 0.923195 0.877907
Si Si5 0.327619 0.818508 0.811914
Si Si6 0.325661 0.820304 0.280571
Si Si7 0.667335 0.418726 0.500000
O O1 0.758127 0.105645 0.617567
O O2 0.743440 0.117241 0.695342
O O3 0.000000 0.099459 0.659664
O O4 0.803807 0.000000 0.665516
O O5 0.836638 0.500000 0.577090
O O6 0.751886 0.390345 0.539228
O O7 0.000000 0.390100 0.580778
O O8 0.264985 0.109588 0.919447
O O9 0.000000 0.105735 0.949259
O O10 0.175597 0.000000 0.956020
O O11 0.223699 0.107359 0.000000
O O12 0.500000 0.922334 0.880927
O O13 0.730608 0.879785 0.839852
O O14 0.733560 0.000000 0.871577
O O15 0.500000 0.807080 0.817463
O O16 0.250000 0.750000 0.826480
O O17 0.288168 0.835712 0.765882
O O18 0.500000 0.815519 0.288569
O O19 0.250000 0.750000 0.294501
O O20 0.666640 0.500000 0.500000
O O21 0.500000 0.390923 0.500000
#
# Coordination Sequence:
#
# PCOD8270426 Si02
#       7
#    16  16  16  16  16  16   8
#     4  10  20  33  49  72 102 131 161 202 249 292
#     4   9  16  26  41  63  92 126 163 200 240 288
#     4   8  14  25  41  63  92 123 153 186 226 272
#     4   9  17  29  46  70  97 122 152 191 233 276
#     4   9  19  34  51  70  93 123 156 192 234 281
#     4  10  20  35  54  73  95 126 164 202 242 292
#     4   9  15  23  37  59  90 127 162 197 240 287
#
# _framework density 17.612082000000001
#
# number of rings (size 3 to 8) (size 9 to 14) (size 15 to 20)
#    0.000    2.846    0.000    2.077    0.000    5.846 
#    0.000    3.077    0.000    2.308    0.000    0.538 
#    0.000    0.000    0.000    0.000    0.000    0.000 
#
# Total GULP energy -644677.566347 kJ/mol
# GULP energy per Si atom -12397.645507 kJ/mol
# Density = 1.757200 g / cm^3
# Si number density = 17.612082 Si / 1000 Ang^3
#
#
#
# Elastic Constant Matrix: (Units=GPa)
#
#
# Indices 1 2 3 4 5 6 
#
# 1 93.7043 36.1025 60.6286 0.0000 0.0000 0.0000
# 2 36.1025 52.3043 56.5396 0.0000 0.0000 0.0000
# 3 60.6286 56.5396 139.6077 0.0000 0.0000 0.0000
# 4 0.0000 0.0000 0.0000 4.1569 0.0000 0.0000
# 5 0.0000 0.0000 0.0000 0.0000 33.6218 0.0000
# 6 0.0000 0.0000 0.0000 0.0000 0.0000 21.9336
#
#
#
# Elastic Compliance Matrix: (Units=1/GPa)
#
#
# Indices 1 2 3 4 5 6 
#
# 1 0.015914 -0.006250 -0.004380 0.000000 0.000000 0.000000
# 2 -0.006250 0.036461 -0.012052 0.000000 0.000000 0.000000
# 3 -0.004380 -0.012052 0.013946 0.000000 0.000000 0.000000
# 4 0.000000 0.000000 0.000000 0.240563 0.000000 0.000000
# 5 0.000000 0.000000 0.000000 0.000000 0.029743 0.000000
# 6 0.000000 0.000000 0.000000 0.000000 0.000000 0.045592
#
#
# Mechanical properties :
#
#
# Convention : Reuss Voigt Hill
#
# Bulk Modulus (GPa) = 47.71677 65.79529 56.75603
# Shear Modulus (GPa) = 11.50570 20.76549 16.13560
#
# Velocity S-wave (km/s) = 2.55872 3.43745 3.03011
# Velocity P-wave (km/s) = 5.99011 7.29342 6.67365
#
# Compressibility (1/GPa) = 0.02095699
#
# Stress axis : x y z
#
# Youngs Moduli (GPa) = 62.83917 27.42683 71.70519
#
# Poissons Ratio (x) = 0.17141 0.31406
# Poissons Ratio (y) = 0.39272 0.86420
# Poissons Ratio (z) = 0.27523 0.33055
#
# Static dielectric constant tensor:
#      x y z
#    x 3.363210 0.000000 0.000000 
#    y 0.000000 2.934560 0.000000 
#    z 0.000000 0.000000 3.612090 
# 
# 
# High freq. dielectric constant tensor:
#      x y z
#    x 1.688000 0.000000 0.000000 
#    y 0.000000 1.629580 0.000000 
#    z 0.000000 0.000000 1.694950 
# 
# From -- ./inp_files/76864.got.cif
#   From: 2010.03.12/outbox.cif.g09.slc.cpg/sg65_39_cif.got.tgz:76864.got - 2010.04.10 20:52:16.
