data_PCOD8270296
_publ_section_title
;
Structure prediction by ZEFSAII (Michael W. Deem and Ramdas Pophale) SiO2 
 PCOD8270296
Probable space group: C M M M
;
_chemical_formula_sum "Si O2"
_cell_formula_units_Z 88
_cell_length_a 8.866086
_cell_length_b 28.030367
_cell_length_c 23.316967
_cell_angle_alpha 90.000000
_cell_angle_beta 90.000000
_cell_angle_gamma 90.000000
_cell_volume 5794.724348
_symmetry_space_group_name_H-M "C M M M"
_symmetry_group_IT_number 65
_symmetry_cell_setting 'orthorhombic'
loop_
_space_group_symop_operation_xyz
x,y,z
-x,-y,z
x,-y,-z
-x,y,-z
-x,-y,-z
x,y,-z
-x,y,z
x,-y,z
1/2+x,1/2+y,z
1/2-x,1/2-y,z
1/2+x,1/2-y,-z
1/2-x,1/2+y,-z
1/2-x,1/2-y,-z
1/2+x,1/2+y,-z
1/2-x,1/2+y,z
1/2+x,1/2-y,z
loop_
_atom_site_type_symbol
_atom_site_label
_atom_site_fract_x
_atom_site_fract_y
_atom_site_fract_z
Si Si1 0.825874 0.056084 0.210889
Si Si2 0.175579 0.200180 0.066696
Si Si3 0.178273 0.606583 0.106215
Si Si4 0.330337 0.443273 0.437149
Si Si5 0.671312 0.556473 0.000000
Si Si6 0.332172 0.943339 0.325947
O O1 0.721353 0.083801 0.166601
O O2 0.776680 0.072648 0.274320
O O3 0.000000 0.069567 0.201204
O O4 0.798959 0.000000 0.202311
O O5 0.250000 0.250000 0.083993
O O6 0.254981 0.159638 0.104025
O O7 0.000000 0.202377 0.081587
O O8 0.203553 0.188412 0.000000
O O9 0.245674 0.574146 0.056356
O O10 0.000000 0.608744 0.099278
O O11 0.268038 0.427388 0.500000
O O12 0.500000 0.424109 0.429119
O O13 0.330856 0.500000 0.433398
O O14 0.228678 0.421761 0.386058
O O15 0.672313 0.500000 0.000000
O O16 0.500000 0.576339 0.000000
O O17 0.500000 0.923230 0.315261
O O18 0.335324 0.000000 0.329855
#
# Coordination Sequence:
#
# PCOD8270296 Si02
#       6
#    16  16  16  16   8  16
#     4  10  20  33  47  61  82 115 151 184 219 261
#     4  10  20  35  55  74  94 114 137 170 212 261
#     4  12  23  34  50  70  91 113 142 178 219 262
#     4   8  13  21  33  49  70  98 133 172 213 255
#     4  11  23  37  50  65  88 117 147 179 217 259
#     4   9  16  25  37  54  76 102 136 178 219 256
#
# _framework density 15.186227000000001
#
# number of rings (size 3 to 8) (size 9 to 14) (size 15 to 20)
#    0.000    2.091    0.909    4.636    0.000    7.273 
#    0.000    1.818    0.000    0.000    0.000    0.000 
#    0.000    0.000    0.000    0.000    0.000    0.909 
#
# Total GULP energy -545583.854476 kJ/mol
# GULP energy per Si atom -12399.633056 kJ/mol
# Density = 1.515166 g / cm^3
# Si number density = 15.186227 Si / 1000 Ang^3
#
#
#
# Elastic Constant Matrix: (Units=GPa)
#
#
# Indices 1 2 3 4 5 6 
#
# 1 113.8898 35.4636 43.7703 0.0000 0.0000 0.0000
# 2 35.4636 47.8138 29.6657 0.0000 0.0000 0.0000
# 3 43.7703 29.6657 102.9520 0.0000 0.0000 0.0000
# 4 0.0000 0.0000 0.0000 1.1672 0.0000 0.0000
# 5 0.0000 0.0000 0.0000 0.0000 16.7491 0.0000
# 6 0.0000 0.0000 0.0000 0.0000 0.0000 19.8230
#
#
#
# Elastic Compliance Matrix: (Units=1/GPa)
#
#
# Indices 1 2 3 4 5 6 
#
# 1 0.012198 -0.007099 -0.003140 0.000000 0.000000 0.000000
# 2 -0.007099 0.029599 -0.005511 0.000000 0.000000 0.000000
# 3 -0.003140 -0.005511 0.012636 0.000000 0.000000 0.000000
# 4 0.000000 0.000000 0.000000 0.856715 0.000000 0.000000
# 5 0.000000 0.000000 0.000000 0.000000 0.059705 0.000000
# 6 0.000000 0.000000 0.000000 0.000000 0.000000 0.050447
#
#
# Mechanical properties :
#
#
# Convention : Reuss Voigt Hill
#
# Bulk Modulus (GPa) = 43.60540 53.60611 48.60575
# Shear Modulus (GPa) = 4.71501 17.93161 11.32331
#
# Velocity S-wave (km/s) = 1.76395 3.43998 2.73359
# Velocity P-wave (km/s) = 5.73802 7.15218 6.48377
#
# Compressibility (1/GPa) = 0.02293294
#
# Stress axis : x y z
#
# Youngs Moduli (GPa) = 81.98224 33.78528 79.13653
#
# Poissons Ratio (x) = 0.23983 0.24852
# Poissons Ratio (y) = 0.58196 0.43611
# Poissons Ratio (z) = 0.25746 0.18619
#
# Static dielectric constant tensor:
#      x y z
#    x 3.131600 0.000000 0.000000 
#    y 0.000000 2.548740 0.000000 
#    z 0.000000 0.000000 3.104050 
# 
# 
# High freq. dielectric constant tensor:
#      x y z
#    x 1.600490 0.000000 0.000000 
#    y 0.000000 1.523230 0.000000 
#    z 0.000000 0.000000 1.582580 
# 
# From -- ./inp_files/60676.got.cif
#   From: 2010.03.12/outbox.cif.g09.slc.cpg/sg65_31_cif.got.tgz:60676.got - 2010.04.10 20:52:16.
