data_PCOD8270108
_publ_section_title
;
Structure prediction by ZEFSAII (Michael W. Deem and Ramdas Pophale) SiO2 
 PCOD8270108
Probable space group: C M M M
;
_chemical_formula_sum "Si O2"
_cell_formula_units_Z 120
_cell_length_a 26.271848
_cell_length_b 8.779421
_cell_length_c 27.611088
_cell_angle_alpha 90.000000
_cell_angle_beta 90.000000
_cell_angle_gamma 90.000000
_cell_volume 6368.542013
_symmetry_space_group_name_H-M "C M M M"
_symmetry_group_IT_number 65
_symmetry_cell_setting 'orthorhombic'
loop_
_space_group_symop_operation_xyz
x,y,z
-x,-y,z
x,-y,-z
-x,y,-z
-x,-y,-z
x,y,-z
-x,y,z
x,-y,z
1/2+x,1/2+y,z
1/2-x,1/2-y,z
1/2+x,1/2-y,-z
1/2-x,1/2+y,-z
1/2-x,1/2-y,-z
1/2+x,1/2+y,-z
1/2-x,1/2+y,z
1/2+x,1/2-y,z
loop_
_atom_site_type_symbol
_atom_site_label
_atom_site_fract_x
_atom_site_fract_y
_atom_site_fract_z
Si Si1 0.104522 0.179569 0.404277
Si Si2 0.942763 0.319371 0.053017
Si Si3 0.370789 0.176717 0.696251
Si Si4 0.604026 0.819818 0.150448
Si Si5 0.696501 0.178079 0.784138
Si Si6 0.557363 0.667695 0.235007
Si Si7 0.799427 0.668101 0.555907
Si Si8 0.500000 0.180880 0.443491
O O1 0.125816 0.221499 0.351425
O O2 0.148772 0.235215 0.440172
O O3 0.050532 0.256427 0.417146
O O4 0.097049 0.000000 0.408819
O O5 0.943976 0.500000 0.051880
O O6 0.903035 0.265779 0.094626
O O7 0.000000 0.259651 0.064209
O O8 0.924872 0.258201 0.000000
O O9 0.322941 0.224920 0.730286
O O10 0.420067 0.208877 0.728331
O O11 0.368937 0.000000 0.681610
O O12 0.658070 0.768391 0.173244
O O13 0.560723 0.733566 0.180830
O O14 0.596118 0.000000 0.155758
O O15 0.750000 0.250000 0.795915
O O16 0.702685 0.000000 0.786344
O O17 0.500000 0.648479 0.250662
O O18 0.583836 0.500000 0.238729
O O19 0.787397 0.646218 0.500000
O O20 0.806150 0.500000 0.579971
O O21 0.750000 0.750000 0.580253
O O22 0.500000 0.230422 0.500000
O O23 0.500000 0.000000 0.438413
#
# Coordination Sequence:
#
# PCOD8270108 Si02
#       8
#    16  16  16  16  16  16  16   8
#     4  12  25  40  61  89 121 153 188 233 287 343
#     4   8  13  22  41  71 103 133 169 219 273 321
#     4  10  22  39  56  77 105 138 178 218 264 322
#     4   9  17  30  48  72  99 131 176 219 264 323
#     4   9  19  34  53  75  99 133 176 222 271 326
#     4  10  20  32  48  72 103 134 168 210 257 312
#     4  10  21  39  63  89 116 147 186 232 282 336
#     4  11  25  45  67  89 117 159 205 243 280 331
#
# _framework density 18.842618000000002
#
# number of rings (size 3 to 8) (size 9 to 14) (size 15 to 20)
#    0.000    2.200    0.000    4.600    0.933    7.733 
#    0.000    1.333    0.000    0.800    0.000    1.867 
#    0.000    0.000    0.000    0.000    0.000    0.267 
#
# Total GULP energy -743568.164515 kJ/mol
# GULP energy per Si atom -12392.802742 kJ/mol
# Density = 1.879973 g / cm^3
# Si number density = 18.842618 Si / 1000 Ang^3
#
#
#
# Elastic Constant Matrix: (Units=GPa)
#
#
# Indices 1 2 3 4 5 6 
#
# 1 116.3162 33.5784 33.6322 0.0000 0.0000 0.0000
# 2 33.5784 67.3507 21.4708 0.0000 0.0000 0.0000
# 3 33.6322 21.4708 98.0418 0.0000 0.0000 0.0000
# 4 0.0000 0.0000 0.0000 13.2668 0.0000 0.0000
# 5 0.0000 0.0000 0.0000 0.0000 19.2418 0.0000
# 6 0.0000 0.0000 0.0000 0.0000 0.0000 30.9400
#
#
#
# Elastic Compliance Matrix: (Units=1/GPa)
#
#
# Indices 1 2 3 4 5 6 
#
# 1 0.010660 -0.004460 -0.002680 0.000000 0.000000 0.000000
# 2 -0.004460 0.017828 -0.002374 0.000000 0.000000 0.000000
# 3 -0.002680 -0.002374 0.011639 0.000000 0.000000 0.000000
# 4 0.000000 0.000000 0.000000 0.075376 0.000000 0.000000
# 5 0.000000 0.000000 0.000000 0.000000 0.051970 0.000000
# 6 0.000000 0.000000 0.000000 0.000000 0.000000 0.032321
#
#
# Mechanical properties :
#
#
# Convention : Reuss Voigt Hill
#
# Bulk Modulus (GPa) = 47.39758 51.00796 49.20277
# Shear Modulus (GPa) = 22.13806 25.55820 23.84813
#
# Velocity S-wave (km/s) = 3.43139 3.68693 3.56145
# Velocity P-wave (km/s) = 6.39596 6.72711 6.56362
#
# Compressibility (1/GPa) = 0.02109813
#
# Stress axis : x y z
#
# Youngs Moduli (GPa) = 93.81104 56.09077 85.91786
#
# Poissons Ratio (x) = 0.25018 0.23026
# Poissons Ratio (y) = 0.41841 0.20400
# Poissons Ratio (z) = 0.25141 0.13318
#
# Static dielectric constant tensor:
#      x y z
#    x 2.934170 0.000000 0.000000 
#    y 0.000000 3.577670 0.000000 
#    z 0.000000 0.000000 3.729130 
# 
# 
# High freq. dielectric constant tensor:
#      x y z
#    x 1.721550 0.000000 0.000000 
#    y 0.000000 1.727050 0.000000 
#    z 0.000000 0.000000 1.727990 
# 
# From -- ./inp_files/76127.got.cif
#   From: 2010.03.12/outbox.cif.g09.slc.cpg/sg65_39_cif.got.tgz:76127.got - 2010.04.10 20:52:16.
