data_PCOD8270358
_publ_section_title
;
Structure prediction by ZEFSAII (Michael W. Deem and Ramdas Pophale) SiO2 
 PCOD8270358
Probable space group: C M M M
;
_chemical_formula_sum "Si O2"
_cell_formula_units_Z 96
_cell_length_a 8.540921
_cell_length_b 27.164744
_cell_length_c 24.342594
_cell_angle_alpha 90.000000
_cell_angle_beta 90.000000
_cell_angle_gamma 90.000000
_cell_volume 5647.772276
_symmetry_space_group_name_H-M "C M M M"
_symmetry_group_IT_number 65
_symmetry_cell_setting 'orthorhombic'
loop_
_space_group_symop_operation_xyz
x,y,z
-x,-y,z
x,-y,-z
-x,y,-z
-x,-y,-z
x,y,-z
-x,y,z
x,-y,z
1/2+x,1/2+y,z
1/2-x,1/2-y,z
1/2+x,1/2-y,-z
1/2-x,1/2+y,-z
1/2-x,1/2-y,-z
1/2+x,1/2+y,-z
1/2-x,1/2+y,z
1/2+x,1/2-y,z
loop_
_atom_site_type_symbol
_atom_site_label
_atom_site_fract_x
_atom_site_fract_y
_atom_site_fract_z
Si Si1 0.314251 0.944813 0.058050
Si Si2 0.182098 0.102602 0.282645
Si Si3 0.317534 0.944153 0.386039
Si Si4 0.818081 0.558311 0.176840
Si Si5 0.683763 0.196993 0.334165
Si Si6 0.317601 0.351498 0.562219
O O1 0.500000 0.946980 0.060032
O O2 0.261147 0.921389 0.116397
O O3 0.247626 0.000000 0.056051
O O4 0.260766 0.918188 0.000000
O O5 0.275669 0.065769 0.322568
O O6 0.214652 0.087737 0.220245
O O7 0.235756 0.158429 0.293085
O O8 0.000000 0.097859 0.295962
O O9 0.500000 0.933459 0.394609
O O10 0.220148 0.908628 0.425940
O O11 0.274694 0.000000 0.401350
O O12 0.787761 0.500000 0.181392
O O13 0.000000 0.570139 0.187289
O O14 0.500000 0.195865 0.324657
O O15 0.750000 0.250000 0.318975
O O16 0.720506 0.183747 0.397510
O O17 0.269996 0.338618 0.500000
O O18 0.500000 0.342198 0.572650
#
# Coordination Sequence:
#
# PCOD8270358 Si02
#       6
#    16  16  16  16  16  16
#     4   7  10  18  34  57  85 119 160 201 234 264
#     4  11  21  32  47  68  94 122 155 192 230 275
#     4  10  20  33  49  68  92 124 159 193 230 270
#     4   9  16  26  42  65  94 128 164 199 234 271
#     4  11  22  38  58  75  93 116 144 182 230 279
#     4  10  21  36  53  74  98 122 151 185 221 266
#
# _framework density 16.997852000000002
#
# number of rings (size 3 to 8) (size 9 to 14) (size 15 to 20)
#    0.000    2.333    0.000    8.000    0.000    5.667 
#    0.000    1.667    0.000    0.500    0.000    2.333 
#    0.000    0.667    0.000    1.833    0.000    2.667 
#
# Total GULP energy -594855.508435 kJ/mol
# GULP energy per Si atom -12392.823092 kJ/mol
# Density = 1.695916 g / cm^3
# Si number density = 16.997852 Si / 1000 Ang^3
#
#
#
# Elastic Constant Matrix: (Units=GPa)
#
#
# Indices 1 2 3 4 5 6 
#
# 1 36.0800 15.5494 7.8381 0.0000 0.0000 0.0000
# 2 15.5494 59.8071 16.2535 0.0000 0.0000 0.0000
# 3 7.8381 16.2535 100.6530 0.0000 0.0000 0.0000
# 4 0.0000 0.0000 0.0000 13.4527 0.0000 0.0000
# 5 0.0000 0.0000 0.0000 0.0000 16.1146 0.0000
# 6 0.0000 0.0000 0.0000 0.0000 0.0000 23.6858
#
#
#
# Elastic Compliance Matrix: (Units=1/GPa)
#
#
# Indices 1 2 3 4 5 6 
#
# 1 0.031346 -0.007830 -0.001177 0.000000 0.000000 0.000000
# 2 -0.007830 0.019444 -0.002530 0.000000 0.000000 0.000000
# 3 -0.001177 -0.002530 0.010435 0.000000 0.000000 0.000000
# 4 0.000000 0.000000 0.000000 0.074334 0.000000 0.000000
# 5 0.000000 0.000000 0.000000 0.000000 0.062055 0.000000
# 6 0.000000 0.000000 0.000000 0.000000 0.000000 0.042219
#
#
# Mechanical properties :
#
#
# Convention : Reuss Voigt Hill
#
# Bulk Modulus (GPa) = 26.21101 30.64693 28.42897
# Shear Modulus (GPa) = 18.14057 21.11058 19.62558
#
# Velocity S-wave (km/s) = 3.27039 3.52796 3.40161
# Velocity P-wave (km/s) = 5.45108 5.88765 5.67356
#
# Compressibility (1/GPa) = 0.03815191
#
# Stress axis : x y z
#
# Youngs Moduli (GPa) = 31.90170 51.43039 95.82860
#
# Poissons Ratio (x) = 0.40270 0.11275
# Poissons Ratio (y) = 0.24979 0.24245
# Poissons Ratio (z) = 0.03754 0.13012
#
# Static dielectric constant tensor:
#      x y z
#    x 3.074680 0.000000 0.000000 
#    y 0.000000 2.901360 0.000000 
#    z 0.000000 0.000000 3.494760 
# 
# 
# High freq. dielectric constant tensor:
#      x y z
#    x 1.652420 0.000000 0.000000 
#    y 0.000000 1.616490 0.000000 
#    z 0.000000 0.000000 1.660480 
# 
# From -- ./inp_files/68022.got.cif
#   From: 2010.03.12/outbox.cif.g09.slc.cpg/sg65_35_cif.got.tgz:68022.got - 2010.04.10 20:52:16.
