data_PCOD8270507
_publ_section_title
;
Structure prediction by ZEFSAII (Michael W. Deem and Ramdas Pophale) SiO2 
 PCOD8270507
Probable space group: C M M M
;
_chemical_formula_sum "Si O2"
_cell_formula_units_Z 96
_cell_length_a 9.149770
_cell_length_b 20.141937
_cell_length_c 29.257934
_cell_angle_alpha 90.000000
_cell_angle_beta 90.000000
_cell_angle_gamma 90.000000
_cell_volume 5392.064348
_symmetry_space_group_name_H-M "C M M M"
_symmetry_group_IT_number 65
_symmetry_cell_setting 'orthorhombic'
loop_
_space_group_symop_operation_xyz
x,y,z
-x,-y,z
x,-y,-z
-x,y,-z
-x,-y,-z
x,y,-z
-x,y,z
x,-y,z
1/2+x,1/2+y,z
1/2-x,1/2-y,z
1/2+x,1/2-y,-z
1/2-x,1/2+y,-z
1/2-x,1/2-y,-z
1/2+x,1/2+y,-z
1/2-x,1/2+y,z
1/2+x,1/2-y,z
loop_
_atom_site_type_symbol
_atom_site_label
_atom_site_fract_x
_atom_site_fract_y
_atom_site_fract_z
Si Si1 0.171445 0.183435 0.880181
Si Si2 0.826383 0.926287 0.050944
Si Si3 0.828958 0.817178 0.224798
Si Si4 0.670457 0.316268 0.447082
Si Si5 0.667375 0.076514 0.283632
Si Si6 0.167239 0.576508 0.389498
O O1 0.250000 0.250000 0.896447
O O2 0.235960 0.124400 0.911453
O O3 0.209038 0.166974 0.827769
O O4 0.000000 0.193181 0.887564
O O5 0.000000 0.927371 0.053440
O O6 0.765965 0.000000 0.062003
O O7 0.776118 0.904567 0.000000
O O8 0.750000 0.750000 0.241128
O O9 0.775082 0.878968 0.254125
O O10 0.000000 0.807259 0.232647
O O11 0.706938 0.328738 0.500000
O O12 0.500000 0.306782 0.438258
O O13 0.750000 0.250000 0.429219
O O14 0.725333 0.379560 0.419470
O O15 0.500000 0.092198 0.270569
O O16 0.694875 0.092453 0.336570
O O17 0.703948 0.000000 0.273185
O O18 0.203202 0.500000 0.399951
O O19 0.000000 0.592396 0.402600
#
# Coordination Sequence:
#
# PCOD8270507 Si02
#       6
#    16  16  16  16  16  16
#     4   9  18  31  47  69  96 124 157 198 240 285
#     4   8  14  26  45  68  93 122 157 196 237 282
#     4  10  20  33  50  72  99 131 166 205 248 294
#     4  10  21  36  54  77 105 136 170 208 248 291
#     4   9  19  36  55  75 101 131 164 204 248 295
#     4   9  19  36  56  77 102 133 167 203 246 296
#
# _framework density 17.803943
#
# number of rings (size 3 to 8) (size 9 to 14) (size 15 to 20)
#    0.000    2.833    0.000    2.500    0.000    5.000 
#    0.000    5.000    0.000    0.500    0.000    1.167 
#    0.000    0.000    0.000    0.000    0.000    0.000 
#
# Total GULP energy -595220.521930 kJ/mol
# GULP energy per Si atom -12400.427540 kJ/mol
# Density = 1.776342 g / cm^3
# Si number density = 17.803943 Si / 1000 Ang^3
#
#
#
# Elastic Constant Matrix: (Units=GPa)
#
#
# Indices 1 2 3 4 5 6 
#
# 1 67.5682 56.5629 44.7429 0.0000 0.0000 0.0000
# 2 56.5629 128.3627 74.9196 0.0000 0.0000 0.0000
# 3 44.7429 74.9196 80.8710 0.0000 0.0000 0.0000
# 4 0.0000 0.0000 0.0000 34.7923 0.0000 0.0000
# 5 0.0000 0.0000 0.0000 0.0000 19.1923 0.0000
# 6 0.0000 0.0000 0.0000 0.0000 0.0000 35.2051
#
#
#
# Elastic Compliance Matrix: (Units=1/GPa)
#
#
# Indices 1 2 3 4 5 6 
#
# 1 0.025681 -0.006583 -0.008110 0.000000 0.000000 0.000000
# 2 -0.006583 0.018649 -0.013635 0.000000 0.000000 0.000000
# 3 -0.008110 -0.013635 0.029483 0.000000 0.000000 0.000000
# 4 0.000000 0.000000 0.000000 0.028742 0.000000 0.000000
# 5 0.000000 0.000000 0.000000 0.000000 0.052104 0.000000
# 6 0.000000 0.000000 0.000000 0.000000 0.000000 0.028405
#
#
# Mechanical properties :
#
#
# Convention : Reuss Voigt Hill
#
# Bulk Modulus (GPa) = 58.27934 69.91698 64.09816
# Shear Modulus (GPa) = 20.37169 24.54303 22.45736
#
# Velocity S-wave (km/s) = 3.38631 3.71687 3.55543
# Velocity P-wave (km/s) = 6.93502 7.60104 7.27566
#
# Compressibility (1/GPa) = 0.01715874
#
# Stress axis : x y z
#
# Youngs Moduli (GPa) = 38.93966 53.62195 33.91734
#
# Poissons Ratio (x) = 0.35299 0.27506
# Poissons Ratio (y) = 0.25634 0.46245
# Poissons Ratio (z) = 0.31579 0.73111
#
# Static dielectric constant tensor:
#      x y z
#    x 3.100220 0.000000 0.000000 
#    y 0.000000 3.409690 0.000000 
#    z 0.000000 0.000000 3.316350 
# 
# 
# High freq. dielectric constant tensor:
#      x y z
#    x 1.673450 0.000000 0.000000 
#    y 0.000000 1.695530 0.000000 
#    z 0.000000 0.000000 1.687560 
# 
# From -- ./inp_files/73080.got.cif
#   From: 2010.03.12/outbox.cif.g09.slc.cpg/sg65_37_cif.got.tgz:73080.got - 2010.04.10 20:52:16.
