data_PCOD8270297
_publ_section_title
;
Structure prediction by ZEFSAII (Michael W. Deem and Ramdas Pophale) SiO2 
 PCOD8270297
Probable space group: C M M M
;
_chemical_formula_sum "Si O2"
_cell_formula_units_Z 104
_cell_length_a 8.903635
_cell_length_b 27.942006
_cell_length_c 28.594871
_cell_angle_alpha 90.000000
_cell_angle_beta 90.000000
_cell_angle_gamma 90.000000
_cell_volume 7113.987066
_symmetry_space_group_name_H-M "C M M M"
_symmetry_group_IT_number 65
_symmetry_cell_setting 'orthorhombic'
loop_
_space_group_symop_operation_xyz
x,y,z
-x,-y,z
x,-y,-z
-x,y,-z
-x,-y,-z
x,y,-z
-x,y,z
x,-y,z
1/2+x,1/2+y,z
1/2-x,1/2-y,z
1/2+x,1/2-y,-z
1/2-x,1/2+y,-z
1/2-x,1/2-y,-z
1/2+x,1/2+y,-z
1/2-x,1/2+y,z
1/2+x,1/2-y,z
loop_
_atom_site_type_symbol
_atom_site_label
_atom_site_fract_x
_atom_site_fract_y
_atom_site_fract_z
Si Si1 0.678006 0.106392 0.413369
Si Si2 0.329415 0.556636 0.500000
Si Si3 0.174649 0.200047 0.554426
Si Si4 0.673541 0.443621 0.327642
Si Si5 0.330981 0.056890 0.051197
Si Si6 0.831827 0.057141 0.857901
Si Si7 0.831957 0.443184 0.233720
O O1 0.500000 0.108204 0.418559
O O2 0.745444 0.074076 0.454153
O O3 0.744095 0.159675 0.415284
O O4 0.722733 0.083525 0.364321
O O5 0.330423 0.500000 0.500000
O O6 0.500000 0.576861 0.500000
O O7 0.199550 0.187840 0.500000
O O8 0.250000 0.250000 0.567857
O O9 0.000000 0.202314 0.567310
O O10 0.500000 0.429500 0.334631
O O11 0.697448 0.500000 0.334460
O O12 0.726491 0.426793 0.276402
O O13 0.500000 0.075852 0.057909
O O14 0.230718 0.078086 0.093113
O O15 0.330057 0.000000 0.053789
O O16 0.269255 0.073211 0.000000
O O17 0.734722 0.077332 0.814685
O O18 0.000000 0.076177 0.851679
O O19 0.827382 0.000000 0.858363
O O20 0.835751 0.500000 0.231190
O O21 0.000000 0.422809 0.240614
#
# Coordination Sequence:
#
# PCOD8270297 Si02
#       7
#    16   8  16  16  16  16  16
#     4  12  23  34  50  70  91 113 139 167 200 241
#     4  11  23  37  50  65  88 117 145 171 201 237
#     4  10  20  35  55  74  94 114 136 165 199 237
#     4  10  20  33  47  62  83 110 138 169 205 243
#     4   8  13  20  28  38  54  77 105 139 182 230
#     4   9  15  21  30  44  61  82 110 145 186 231
#     4   9  16  26  39  53  69  91 122 158 194 233
#
# _framework density 14.619088
#
# number of rings (size 3 to 8) (size 9 to 14) (size 15 to 20)
#    0.000    2.231    0.769    4.385    0.000    8.000 
#    0.000    1.538    0.000    0.000    0.000    0.000 
#    0.000    0.000    0.000    0.000    0.000    0.000 
#
# Total GULP energy -644740.590409 kJ/mol
# GULP energy per Si atom -12398.857508 kJ/mol
# Density = 1.458581 g / cm^3
# Si number density = 14.619088 Si / 1000 Ang^3
#
#
#
# Elastic Constant Matrix: (Units=GPa)
#
#
# Indices 1 2 3 4 5 6 
#
# 1 117.5658 29.1136 47.3121 0.0000 0.0000 0.0000
# 2 29.1136 36.3844 24.4924 0.0000 0.0000 0.0000
# 3 47.3121 24.4924 107.1610 0.0000 0.0000 0.0000
# 4 0.0000 0.0000 0.0000 0.8367 0.0000 0.0000
# 5 0.0000 0.0000 0.0000 0.0000 29.2365 0.0000
# 6 0.0000 0.0000 0.0000 0.0000 0.0000 16.1711
#
#
#
# Elastic Compliance Matrix: (Units=1/GPa)
#
#
# Indices 1 2 3 4 5 6 
#
# 1 0.011655 -0.006928 -0.003562 0.000000 0.000000 0.000000
# 2 -0.006928 0.036600 -0.005306 0.000000 0.000000 0.000000
# 3 -0.003562 -0.005306 0.012117 0.000000 0.000000 0.000000
# 4 0.000000 0.000000 0.000000 1.195242 0.000000 0.000000
# 5 0.000000 0.000000 0.000000 0.000000 0.034204 0.000000
# 6 0.000000 0.000000 0.000000 0.000000 0.000000 0.061839
#
#
# Mechanical properties :
#
#
# Convention : Reuss Voigt Hill
#
# Bulk Modulus (GPa) = 34.74776 51.43862 43.09319
# Shear Modulus (GPa) = 3.58978 19.92838 11.75908
#
# Velocity S-wave (km/s) = 1.56872 3.69613 2.83921
# Velocity P-wave (km/s) = 5.20591 7.31283 6.34740
#
# Compressibility (1/GPa) = 0.02877883
#
# Stress axis : x y z
#
# Youngs Moduli (GPa) = 85.79931 27.32245 82.52620
#
# Poissons Ratio (x) = 0.18929 0.29399
# Poissons Ratio (y) = 0.59442 0.43792
# Poissons Ratio (z) = 0.30565 0.14498
#
# Static dielectric constant tensor:
#      x y z
#    x 3.057800 0.000000 0.000000 
#    y 0.000000 2.366830 0.000000 
#    z 0.000000 0.000000 3.053680 
# 
# 
# High freq. dielectric constant tensor:
#      x y z
#    x 1.579280 0.000000 0.000000 
#    y 0.000000 1.485200 0.000000 
#    z 0.000000 0.000000 1.564410 
# 
# From -- ./inp_files/73753.got.cif
#   From: 2010.03.12/outbox.cif.g09.slc.cpg/sg65_37_cif.got.tgz:73753.got - 2010.04.10 20:52:16.
