data_PCOD8270776
_publ_section_title
;
Structure prediction by ZEFSAII (Michael W. Deem and Ramdas Pophale) SiO2 
 PCOD8270776
Probable space group: C M M M
;
_chemical_formula_sum "Si O2"
_cell_formula_units_Z 96
_cell_length_a 9.092175
_cell_length_b 18.832105
_cell_length_c 30.103526
_cell_angle_alpha 90.000000
_cell_angle_beta 90.000000
_cell_angle_gamma 90.000000
_cell_volume 5154.470046
_symmetry_space_group_name_H-M "C M M M"
_symmetry_group_IT_number 65
_symmetry_cell_setting 'orthorhombic'
loop_
_space_group_symop_operation_xyz
x,y,z
-x,-y,z
x,-y,-z
-x,y,-z
-x,-y,-z
x,y,-z
-x,y,z
x,-y,z
1/2+x,1/2+y,z
1/2-x,1/2-y,z
1/2+x,1/2-y,-z
1/2-x,1/2+y,-z
1/2-x,1/2-y,-z
1/2+x,1/2+y,-z
1/2-x,1/2+y,z
1/2+x,1/2-y,z
loop_
_atom_site_type_symbol
_atom_site_label
_atom_site_fract_x
_atom_site_fract_y
_atom_site_fract_z
Si Si1 0.668853 0.081122 0.448156
Si Si2 0.333963 0.083625 0.950140
Si Si3 0.171838 0.821847 0.883043
Si Si4 0.174359 0.079255 0.704094
Si Si5 0.827447 0.177867 0.782320
Si Si6 0.174637 0.174029 0.378166
O O1 0.693777 0.094459 0.500000
O O2 0.500000 0.096885 0.435247
O O3 0.776296 0.134477 0.422846
O O4 0.709351 0.000000 0.435876
O O5 0.500000 0.106797 0.938009
O O6 0.220505 0.115705 0.915363
O O7 0.317574 0.000000 0.947273
O O8 0.295370 0.109563 0.000000
O O9 0.250000 0.750000 0.898275
O O10 0.216161 0.842469 0.832674
O O11 0.000000 0.809795 0.887601
O O12 0.226872 0.114695 0.750287
O O13 0.230229 0.126655 0.663159
O O14 0.000000 0.074254 0.702762
O O15 0.242587 0.000000 0.701017
O O16 0.750000 0.250000 0.767046
O O17 0.000000 0.190752 0.777380
O O18 0.250000 0.250000 0.374545
O O19 0.000000 0.184034 0.378539
#
# Coordination Sequence:
#
# PCOD8270776 Si02
#       6
#    16  16  16  16  16  16
#     4   9  19  37  59  81 107 139 173 213 263 314
#     4   9  19  36  55  74 100 135 171 210 260 312
#     4  10  20  33  52  78 105 136 173 212 255 303
#     4   9  18  33  53  77 104 134 170 212 258 308
#     4   9  18  33  53  75 102 135 168 206 252 303
#     4  11  22  35  54  79 107 141 179 218 260 306
#
# _framework density 18.624611000000002
#
# number of rings (size 3 to 8) (size 9 to 14) (size 15 to 20)
#    0.000    2.500    0.000    3.000    0.000    4.000 
#    0.000    4.167    0.000    2.500    0.000    0.000 
#    0.000    0.000    0.000    0.000    0.000    0.000 
#
# Total GULP energy -595247.004543 kJ/mol
# GULP energy per Si atom -12400.979261 kJ/mol
# Density = 1.858222 g / cm^3
# Si number density = 18.624611 Si / 1000 Ang^3
#
#
#
# Elastic Constant Matrix: (Units=GPa)
#
#
# Indices 1 2 3 4 5 6 
#
# 1 60.1487 46.3637 40.7285 0.0000 0.0000 0.0000
# 2 46.3637 133.2797 74.1442 0.0000 0.0000 0.0000
# 3 40.7285 74.1442 106.3467 0.0000 0.0000 0.0000
# 4 0.0000 0.0000 0.0000 36.6704 0.0000 0.0000
# 5 0.0000 0.0000 0.0000 0.0000 22.9970 0.0000
# 6 0.0000 0.0000 0.0000 0.0000 0.0000 25.9182
#
#
#
# Elastic Compliance Matrix: (Units=1/GPa)
#
#
# Indices 1 2 3 4 5 6 
#
# 1 0.024635 -0.005425 -0.005652 0.000000 0.000000 0.000000
# 2 -0.005425 0.013452 -0.007301 0.000000 0.000000 0.000000
# 3 -0.005652 -0.007301 0.016658 0.000000 0.000000 0.000000
# 4 0.000000 0.000000 0.000000 0.027270 0.000000 0.000000
# 5 0.000000 0.000000 0.000000 0.000000 0.043484 0.000000
# 6 0.000000 0.000000 0.000000 0.000000 0.000000 0.038583
#
#
# Mechanical properties :
#
#
# Convention : Reuss Voigt Hill
#
# Bulk Modulus (GPa) = 55.59243 69.13864 62.36554
# Shear Modulus (GPa) = 24.17412 26.35304 25.26358
#
# Velocity S-wave (km/s) = 3.60664 3.76567 3.68701
# Velocity P-wave (km/s) = 6.87441 7.49065 7.18914
#
# Compressibility (1/GPa) = 0.01798806
#
# Stress axis : x y z
#
# Youngs Moduli (GPa) = 40.59341 74.34001 60.03198
#
# Poissons Ratio (x) = 0.40332 0.33930
# Poissons Ratio (y) = 0.22023 0.43827
# Poissons Ratio (z) = 0.22943 0.54273
#
# Static dielectric constant tensor:
#      x y z
#    x 3.309780 0.000000 0.000000 
#    y 0.000000 3.478040 0.000000 
#    z 0.000000 0.000000 3.541590 
# 
# 
# High freq. dielectric constant tensor:
#      x y z
#    x 1.707140 0.000000 0.000000 
#    y 0.000000 1.724140 0.000000 
#    z 0.000000 0.000000 1.732280 
# 
# From -- ./inp_files/73085.got.cif
#   From: 2010.03.12/outbox.cif.g09.slc.cpg/sg65_37_cif.got.tgz:73085.got - 2010.04.10 20:52:16.
