data_PCOD8270043
_publ_section_title
;
Structure prediction by ZEFSAII (Michael W. Deem and Ramdas Pophale) SiO2 
 PCOD8270043
Probable space group: C M M M
;
_chemical_formula_sum "Si O2"
_cell_formula_units_Z 104
_cell_length_a 24.058572
_cell_length_b 27.130446
_cell_length_c 9.062670
_cell_angle_alpha 90.000000
_cell_angle_beta 90.000000
_cell_angle_gamma 90.000000
_cell_volume 5915.384045
_symmetry_space_group_name_H-M "C M M M"
_symmetry_group_IT_number 65
_symmetry_cell_setting 'orthorhombic'
loop_
_space_group_symop_operation_xyz
x,y,z
-x,-y,z
x,-y,-z
-x,y,-z
-x,-y,-z
x,y,-z
-x,y,z
x,-y,z
1/2+x,1/2+y,z
1/2-x,1/2-y,z
1/2+x,1/2-y,-z
1/2-x,1/2+y,-z
1/2-x,1/2-y,-z
1/2+x,1/2+y,-z
1/2-x,1/2+y,z
1/2+x,1/2-y,z
loop_
_atom_site_type_symbol
_atom_site_label
_atom_site_fract_x
_atom_site_fract_y
_atom_site_fract_z
Si Si1 0.811924 0.229712 0.166546
Si Si2 0.560954 0.441522 0.665399
Si Si3 0.564530 0.106849 0.825406
Si Si4 0.331102 0.442346 0.170745
Si Si5 0.850905 0.321582 0.672960
Si Si6 0.934318 0.500000 0.161311
Si Si7 0.770320 0.861053 0.672575
O O1 0.750000 0.250000 0.167360
O O2 0.851781 0.267979 0.250951
O O3 0.812150 0.177742 0.251037
O O4 0.833841 0.222357 0.000000
O O5 0.574502 0.422696 0.500000
O O6 0.500000 0.421665 0.715546
O O7 0.559560 0.500000 0.666572
O O8 0.608504 0.422768 0.776157
O O9 0.500000 0.117089 0.793215
O O10 0.598871 0.147247 0.738233
O O11 0.582221 0.052098 0.761992
O O12 0.576716 0.109860 0.000000
O O13 0.323704 0.500000 0.203002
O O14 0.282965 0.414810 0.261319
O O15 0.324743 0.429687 0.000000
O O16 0.859542 0.314027 0.500000
O O17 0.793565 0.349449 0.708499
O O18 0.000000 0.500000 0.140880
O O19 0.906385 0.500000 0.000000
O O20 0.782274 0.859961 0.500000
#
# Coordination Sequence:
#
# PCOD8270043 Si02
#       7
#    16  16  16  16  16   8  16
#     4   9  17  31  53  76  96 120 155 201 243 286
#     4   8  14  26  45  67  90 120 158 195 232 278
#     4   9  17  31  52  75 100 133 173 215 258 305
#     4  10  20  32  47  70 100 132 167 206 245 287
#     4  10  20  33  50  75 102 129 164 206 252 304
#     4   7  12  26  47  69  93 125 167 209 248 293
#     4  10  20  34  51  71  99 135 169 204 249 302
#
# _framework density 17.581275999999999
#
# number of rings (size 3 to 8) (size 9 to 14) (size 15 to 20)
#    0.000    2.846    0.000    3.231    0.000    5.231 
#    1.385    1.923    0.000    2.308    0.000    0.000 
#    0.000    0.000    0.000    0.000    0.000    0.000 
#
# Total GULP energy -644499.691583 kJ/mol
# GULP energy per Si atom -12394.224838 kJ/mol
# Density = 1.754126 g / cm^3
# Si number density = 17.581276 Si / 1000 Ang^3
#
#
#
# Elastic Constant Matrix: (Units=GPa)
#
#
# Indices 1 2 3 4 5 6 
#
# 1 59.7760 40.5277 44.5981 0.0000 0.0000 0.0000
# 2 40.5277 84.4360 49.8793 0.0000 0.0000 0.0000
# 3 44.5981 49.8793 101.8116 0.0000 0.0000 0.0000
# 4 0.0000 0.0000 0.0000 26.7538 0.0000 0.0000
# 5 0.0000 0.0000 0.0000 0.0000 26.7420 0.0000
# 6 0.0000 0.0000 0.0000 0.0000 0.0000 27.7178
#
#
#
# Elastic Compliance Matrix: (Units=1/GPa)
#
#
# Indices 1 2 3 4 5 6 
#
# 1 0.029048 -0.009043 -0.008294 0.000000 0.000000 0.000000
# 2 -0.009043 0.019482 -0.005583 0.000000 0.000000 0.000000
# 3 -0.008294 -0.005583 0.016191 0.000000 0.000000 0.000000
# 4 0.000000 0.000000 0.000000 0.037378 0.000000 0.000000
# 5 0.000000 0.000000 0.000000 0.000000 0.037394 0.000000
# 6 0.000000 0.000000 0.000000 0.000000 0.000000 0.036078
#
#
# Mechanical properties :
#
#
# Convention : Reuss Voigt Hill
#
# Bulk Modulus (GPa) = 52.96602 57.33707 55.15154
# Shear Modulus (GPa) = 21.95816 23.64394 22.80105
#
# Velocity S-wave (km/s) = 3.53788 3.67118 3.60515
# Velocity P-wave (km/s) = 6.84694 7.11712 6.98334
#
# Compressibility (1/GPa) = 0.01888003
#
# Stress axis : x y z
#
# Youngs Moduli (GPa) = 34.42528 51.32929 61.76402
#
# Poissons Ratio (x) = 0.46417 0.51228
# Poissons Ratio (y) = 0.31131 0.34485
# Poissons Ratio (z) = 0.28553 0.28659
#
# Static dielectric constant tensor:
#      x y z
#    x 3.142400 0.000000 0.000000 
#    y 0.000000 3.289870 0.000000 
#    z 0.000000 0.000000 3.272810 
# 
# 
# High freq. dielectric constant tensor:
#      x y z
#    x 1.654420 0.000000 0.000000 
#    y 0.000000 1.670010 0.000000 
#    z 0.000000 0.000000 1.678990 
# 
# From -- ./inp_files/12836.got.cif
#   From: 2010.03.12/outbox.cif.g09.slc.cpg/sg65_7_cif.got.tgz:12836.got - 2010.04.10 20:52:16.
