data_PCOD8270939
_publ_section_title
;
Structure prediction by ZEFSAII (Michael W. Deem and Ramdas Pophale) SiO2 
 PCOD8270939
Probable space group: C M M M
;
_chemical_formula_sum "Si O2"
_cell_formula_units_Z 104
_cell_length_a 26.788643
_cell_length_b 9.441118
_cell_length_c 26.851608
_cell_angle_alpha 90.000000
_cell_angle_beta 90.000000
_cell_angle_gamma 90.000000
_cell_volume 6791.167446
_symmetry_space_group_name_H-M "C M M M"
_symmetry_group_IT_number 65
_symmetry_cell_setting 'orthorhombic'
loop_
_space_group_symop_operation_xyz
x,y,z
-x,-y,z
x,-y,-z
-x,y,-z
-x,-y,-z
x,y,-z
-x,y,z
x,-y,z
1/2+x,1/2+y,z
1/2-x,1/2-y,z
1/2+x,1/2-y,-z
1/2-x,1/2+y,-z
1/2-x,1/2-y,-z
1/2+x,1/2+y,-z
1/2-x,1/2+y,z
1/2+x,1/2-y,z
loop_
_atom_site_type_symbol
_atom_site_label
_atom_site_fract_x
_atom_site_fract_y
_atom_site_fract_z
Si Si1 0.899248 0.836250 0.696893
Si Si2 0.653731 0.164244 0.442866
Si Si3 0.054804 0.668494 0.000000
Si Si4 0.942428 0.164927 0.199469
Si Si5 0.555296 0.161880 0.388425
Si Si6 0.559690 0.841012 0.893417
Si Si7 0.702114 0.333525 0.356640
O O1 0.909564 0.786521 0.753255
O O2 0.935981 0.753605 0.660577
O O3 0.841697 0.806826 0.683204
O O4 0.913009 0.000000 0.690582
O O5 0.663906 0.202125 0.500000
O O6 0.595589 0.196578 0.431184
O O7 0.688290 0.266073 0.410019
O O8 0.666556 0.000000 0.431501
O O9 0.081539 0.712135 0.947559
O O10 0.049316 0.500000 0.000000
O O11 0.000000 0.738660 0.000000
O O12 0.920312 0.242719 0.150942
O O13 0.000000 0.206576 0.209384
O O14 0.936789 0.000000 0.189085
O O15 0.500000 0.194376 0.409821
O O16 0.560150 0.000000 0.371399
O O17 0.500000 0.835436 0.896507
O O18 0.577985 0.000000 0.882065
O O19 0.713296 0.500000 0.363684
O O20 0.750000 0.250000 0.335525
#
# Coordination Sequence:
#
# PCOD8270939 Si02
#       7
#    16  16   8  16  16  16  16
#     4   9  18  31  45  60  80 108 137 164 199 244
#     4   9  18  32  48  66  88 111 134 161 194 234
#     4   7  10  18  31  45  65  97 136 173 202 227
#     4   9  16  25  37  55  80 107 134 164 196 229
#     4   9  17  28  43  64  87 110 137 167 196 227
#     4   8  13  21  33  49  70 100 138 173 201 228
#     4  10  20  34  51  67  82 102 130 164 203 246
#
# _framework density 15.314009
#
# number of rings (size 3 to 8) (size 9 to 14) (size 15 to 20)
#    0.000    3.154    0.000    1.846    0.000    3.077 
#    0.000    3.462    0.000    2.308    0.000    4.308 
#    0.000    0.000    0.000    0.692    0.000    8.385 
#
# Total GULP energy -644446.916645 kJ/mol
# GULP energy per Si atom -12393.209935 kJ/mol
# Density = 1.527915 g / cm^3
# Si number density = 15.314009 Si / 1000 Ang^3
#
#
#
# Elastic Constant Matrix: (Units=GPa)
#
#
# Indices 1 2 3 4 5 6 
#
# 1 53.8682 25.3973 25.8207 0.0000 0.0000 0.0000
# 2 25.3973 54.3257 42.7912 0.0000 0.0000 0.0000
# 3 25.8207 42.7912 121.2433 0.0000 0.0000 0.0000
# 4 0.0000 0.0000 0.0000 23.1791 0.0000 0.0000
# 5 0.0000 0.0000 0.0000 0.0000 11.2467 0.0000
# 6 0.0000 0.0000 0.0000 0.0000 0.0000 17.5239
#
#
#
# Elastic Compliance Matrix: (Units=1/GPa)
#
#
# Indices 1 2 3 4 5 6 
#
# 1 0.024034 -0.009978 -0.001597 0.000000 0.000000 0.000000
# 2 -0.009978 0.029638 -0.008335 0.000000 0.000000 0.000000
# 3 -0.001597 -0.008335 0.011530 0.000000 0.000000 0.000000
# 4 0.000000 0.000000 0.000000 0.043142 0.000000 0.000000
# 5 0.000000 0.000000 0.000000 0.000000 0.088915 0.000000
# 6 0.000000 0.000000 0.000000 0.000000 0.000000 0.057065
#
#
# Mechanical properties :
#
#
# Convention : Reuss Voigt Hill
#
# Bulk Modulus (GPa) = 39.39949 46.38397 42.89173
# Shear Modulus (GPa) = 16.52325 19.41845 17.97085
#
# Velocity S-wave (km/s) = 3.28832 3.56479 3.42934
# Velocity P-wave (km/s) = 6.34043 6.87735 6.61434
#
# Compressibility (1/GPa) = 0.02538104
#
# Stress axis : x y z
#
# Youngs Moduli (GPa) = 41.60853 33.74074 86.73214
#
# Poissons Ratio (x) = 0.33666 0.13849
# Poissons Ratio (y) = 0.41517 0.72294
# Poissons Ratio (z) = 0.06644 0.28124
#
# Static dielectric constant tensor:
#      x y z
#    x 2.740960 0.000000 0.000000 
#    y 0.000000 2.932980 0.000000 
#    z 0.000000 0.000000 3.124290 
# 
# 
# High freq. dielectric constant tensor:
#      x y z
#    x 1.546920 0.000000 0.000000 
#    y 0.000000 1.584150 0.000000 
#    z 0.000000 0.000000 1.585530 
# 
# From -- ./inp_files/78464.got.cif
#   From: 2010.03.12/outbox.cif.g09.slc.cpg/sg65_40_cif.got.tgz:78464.got - 2010.04.10 20:52:16.
