data_PCOD8270078
_publ_section_title
;
Structure prediction by ZEFSAII (Michael W. Deem and Ramdas Pophale) SiO2 
 PCOD8270078
Probable space group: C M M M
;
_chemical_formula_sum "Si O2"
_cell_formula_units_Z 96
_cell_length_a 17.328711
_cell_length_b 24.141366
_cell_length_c 12.934373
_cell_angle_alpha 90.000000
_cell_angle_beta 90.000000
_cell_angle_gamma 90.000000
_cell_volume 5410.949492
_symmetry_space_group_name_H-M "C M M M"
_symmetry_group_IT_number 65
_symmetry_cell_setting 'orthorhombic'
loop_
_space_group_symop_operation_xyz
x,y,z
-x,-y,z
x,-y,-z
-x,y,-z
-x,-y,-z
x,y,-z
-x,y,z
x,-y,z
1/2+x,1/2+y,z
1/2-x,1/2-y,z
1/2+x,1/2-y,-z
1/2-x,1/2+y,-z
1/2-x,1/2-y,-z
1/2+x,1/2+y,-z
1/2-x,1/2+y,z
1/2+x,1/2-y,z
loop_
_atom_site_type_symbol
_atom_site_label
_atom_site_fract_x
_atom_site_fract_y
_atom_site_fract_z
Si Si1 0.582823 0.059827 0.380128
Si Si2 0.088044 0.726542 0.618835
Si Si3 0.257642 0.436006 0.880403
Si Si4 0.085359 0.062685 0.225961
Si Si5 0.303876 0.141807 0.289725
Si Si6 0.638258 0.348576 0.380728
O O1 0.573921 0.051496 0.500000
O O2 0.500000 0.083208 0.337142
O O3 0.655116 0.098474 0.363574
O O4 0.598834 0.000000 0.328011
O O5 0.114462 0.712684 0.500000
O O6 0.141107 0.696157 0.705823
O O7 0.092402 0.791958 0.637910
O O8 0.000000 0.707373 0.634591
O O9 0.236456 0.500000 0.850409
O O10 0.348415 0.424984 0.858434
O O11 0.206330 0.389819 0.820288
O O12 0.241386 0.425440 0.000000
O O13 0.093945 0.102037 0.324542
O O14 0.000000 0.071867 0.176321
O O15 0.093749 0.000000 0.266899
O O16 0.223140 0.159890 0.335986
O O17 0.642576 0.364723 0.500000
#
# Coordination Sequence:
#
# PCOD8270078 Si02
#       6
#    16  16  16  16  16  16
#     4   9  17  28  43  67  99 130 159 195 239 286
#     4  10  20  33  50  72  99 134 172 203 235 284
#     4   9  19  35  53  74  99 126 160 207 259 301
#     4   9  18  32  51  75 100 130 169 205 240 289
#     4  11  19  30  50  72  94 126 167 208 245 289
#     4  10  20  32  47  72 107 138 162 196 243 293
#
# _framework density 17.741803000000001
#
# number of rings (size 3 to 8) (size 9 to 14) (size 15 to 20)
#    0.000    2.333    0.000    4.000    0.000    5.000 
#    0.000    2.500    0.000   10.000    0.000    5.833 
#    0.000    0.000    0.000    0.000    0.000    0.000 
#
# Total GULP energy -594689.077739 kJ/mol
# GULP energy per Si atom -12389.355786 kJ/mol
# Density = 1.770142 g / cm^3
# Si number density = 17.741803 Si / 1000 Ang^3
#
#
#
# Elastic Constant Matrix: (Units=GPa)
#
#
# Indices 1 2 3 4 5 6 
#
# 1 76.2681 27.9550 22.2919 0.0000 0.0000 0.0000
# 2 27.9550 82.7553 35.6363 0.0000 0.0000 0.0000
# 3 22.2919 35.6363 69.8770 0.0000 0.0000 0.0000
# 4 0.0000 0.0000 0.0000 26.1775 0.0000 0.0000
# 5 0.0000 0.0000 0.0000 0.0000 16.2346 0.0000
# 6 0.0000 0.0000 0.0000 0.0000 0.0000 34.7124
#
#
#
# Elastic Compliance Matrix: (Units=1/GPa)
#
#
# Indices 1 2 3 4 5 6 
#
# 1 0.015409 -0.003958 -0.002897 0.000000 0.000000 0.000000
# 2 -0.003958 0.016501 -0.007153 0.000000 0.000000 0.000000
# 3 -0.002897 -0.007153 0.018883 0.000000 0.000000 0.000000
# 4 0.000000 0.000000 0.000000 0.038201 0.000000 0.000000
# 5 0.000000 0.000000 0.000000 0.000000 0.061597 0.000000
# 6 0.000000 0.000000 0.000000 0.000000 0.000000 0.028808
#
#
# Mechanical properties :
#
#
# Convention : Reuss Voigt Hill
#
# Bulk Modulus (GPa) = 43.90292 44.51854 44.21073
# Shear Modulus (GPa) = 23.25512 24.95938 24.10725
#
# Velocity S-wave (km/s) = 3.62436 3.75482 3.69017
# Velocity P-wave (km/s) = 6.50491 6.62911 6.56730
#
# Compressibility (1/GPa) = 0.02277753
#
# Stress axis : x y z
#
# Youngs Moduli (GPa) = 64.89665 60.60314 52.95782
#
# Poissons Ratio (x) = 0.23984 0.15344
# Poissons Ratio (y) = 0.25683 0.37879
# Poissons Ratio (z) = 0.18804 0.43347
#
# Static dielectric constant tensor:
#      x y z
#    x 3.500370 0.000000 0.000000 
#    y 0.000000 3.431620 0.000000 
#    z 0.000000 0.000000 2.940890 
# 
# 
# High freq. dielectric constant tensor:
#      x y z
#    x 1.699190 0.000000 0.000000 
#    y 0.000000 1.696660 0.000000 
#    z 0.000000 0.000000 1.636920 
# 
# From -- ./inp_files/27080.got.cif
#   From: 2010.03.12/outbox.cif.g09.slc.cpg/sg65_14_cif.got.tgz:27080.got - 2010.04.10 20:52:16.
