data_PCOD8270038
_publ_section_title
;
Structure prediction by ZEFSAII (Michael W. Deem and Ramdas Pophale) SiO2 
 PCOD8270038
Probable space group: C M M M
;
_chemical_formula_sum "Si O2"
_cell_formula_units_Z 72
_cell_length_a 18.566507
_cell_length_b 9.486135
_cell_length_c 23.085628
_cell_angle_alpha 90.000000
_cell_angle_beta 90.000000
_cell_angle_gamma 90.000000
_cell_volume 4065.942193
_symmetry_space_group_name_H-M "C M M M"
_symmetry_group_IT_number 65
_symmetry_cell_setting 'orthorhombic'
loop_
_space_group_symop_operation_xyz
x,y,z
-x,-y,z
x,-y,-z
-x,y,-z
-x,-y,-z
x,y,-z
-x,y,z
x,-y,z
1/2+x,1/2+y,z
1/2-x,1/2-y,z
1/2+x,1/2-y,-z
1/2-x,1/2+y,-z
1/2-x,1/2-y,-z
1/2+x,1/2+y,-z
1/2-x,1/2+y,z
1/2+x,1/2-y,z
loop_
_atom_site_type_symbol
_atom_site_label
_atom_site_fract_x
_atom_site_fract_y
_atom_site_fract_z
Si Si1 0.676424 0.334275 0.000000
Si Si2 0.176924 0.666235 0.331166
Si Si3 0.417255 0.335987 0.110055
Si Si4 0.919664 0.332788 0.435609
Si Si5 0.917223 0.337556 0.779628
O O1 0.750000 0.250000 0.000000
O O2 0.630662 0.289378 0.055892
O O3 0.692915 0.500000 0.000000
O O4 0.192522 0.500000 0.335329
O O5 0.250000 0.750000 0.324676
O O6 0.136198 0.724813 0.388234
O O7 0.128294 0.704081 0.276257
O O8 0.500000 0.297769 0.095801
O O9 0.408484 0.500000 0.123602
O O10 0.389227 0.252482 0.166085
O O11 0.894254 0.286073 0.500000
O O12 0.922828 0.500000 0.431134
O O13 0.000000 0.273210 0.423247
O O14 0.906906 0.500000 0.796134
O O15 0.000000 0.302511 0.765284
#
# Coordination Sequence:
#
# PCOD8270038 Si02
#       5
#     8  16  16  16  16
#     4  10  21  35  51  73 101 130 158 192 236 284
#     4  10  20  32  47  70 100 130 158 193 239 287
#     4   9  18  34  55  75  95 123 160 199 238 281
#     4   8  14  27  49  73  93 119 161 206 240 275
#     4   9  18  33  52  72  94 123 161 202 239 276
#
# _framework density 17.708072999999999
#
# number of rings (size 3 to 8) (size 9 to 14) (size 15 to 20)
#    0.000    2.889    0.000    1.667    0.000    7.111 
#    0.000    4.444    0.000    5.333    0.000    1.556 
#    0.000    0.000    0.000    0.000    0.000    0.000 
#
# Total GULP energy -446377.166639 kJ/mol
# GULP energy per Si atom -12399.365740 kJ/mol
# Density = 1.766777 g / cm^3
# Si number density = 17.708073 Si / 1000 Ang^3
#
#
#
# Elastic Constant Matrix: (Units=GPa)
#
#
# Indices 1 2 3 4 5 6 
#
# 1 112.9339 47.0332 93.8972 0.0000 0.0000 0.0000
# 2 47.0332 39.0430 58.8880 0.0000 0.0000 0.0000
# 3 93.8972 58.8880 178.2406 0.0000 0.0000 0.0000
# 4 0.0000 0.0000 0.0000 21.5665 0.0000 0.0000
# 5 0.0000 0.0000 0.0000 0.0000 9.6191 0.0000
# 6 0.0000 0.0000 0.0000 0.0000 0.0000 29.1856
#
#
#
# Elastic Compliance Matrix: (Units=1/GPa)
#
#
# Indices 1 2 3 4 5 6 
#
# 1 0.019849 -0.016225 -0.005096 0.000000 0.000000 0.000000
# 2 -0.016225 0.064316 -0.012702 0.000000 0.000000 0.000000
# 3 -0.005096 -0.012702 0.012491 0.000000 0.000000 0.000000
# 4 0.000000 0.000000 0.000000 0.046368 0.000000 0.000000
# 5 0.000000 0.000000 0.000000 0.000000 0.103960 0.000000
# 6 0.000000 0.000000 0.000000 0.000000 0.000000 0.034263
#
#
# Mechanical properties :
#
#
# Convention : Reuss Voigt Hill
#
# Bulk Modulus (GPa) = 34.95151 81.09491 58.02321
# Shear Modulus (GPa) = 13.93423 20.76752 17.35087
#
# Velocity S-wave (km/s) = 2.80819 3.42829 3.13362
# Velocity P-wave (km/s) = 5.50409 7.84639 6.77720
#
# Compressibility (1/GPa) = 0.02861107
#
# Stress axis : x y z
#
# Youngs Moduli (GPa) = 50.38116 15.54832 80.05510
#
# Poissons Ratio (x) = 0.25227 0.40795
# Poissons Ratio (y) = 0.81742 1.01684
# Poissons Ratio (z) = 0.25674 0.19749
#
# Static dielectric constant tensor:
#      x y z
#    x 3.280330 0.000000 0.000000 
#    y 0.000000 3.005990 0.000000 
#    z 0.000000 0.000000 3.554290 
# 
# 
# High freq. dielectric constant tensor:
#      x y z
#    x 1.682850 0.000000 0.000000 
#    y 0.000000 1.653420 0.000000 
#    z 0.000000 0.000000 1.700170 
# 
# From -- ./inp_files/63454.got.cif
#   From: 2010.03.12/outbox.cif.g09.slc.cpg/sg65_32_cif.got.tgz:63454.got - 2010.04.10 20:52:16.
