data_PCOD8270895
_publ_section_title
;
Structure prediction by ZEFSAII (Michael W. Deem and Ramdas Pophale) SiO2 
 PCOD8270895
Probable space group: C M M M
;
_chemical_formula_sum "Si O2"
_cell_formula_units_Z 88
_cell_length_a 21.426973
_cell_length_b 18.981878
_cell_length_c 11.284854
_cell_angle_alpha 90.000000
_cell_angle_beta 90.000000
_cell_angle_gamma 90.000000
_cell_volume 4589.823073
_symmetry_space_group_name_H-M "C M M M"
_symmetry_group_IT_number 65
_symmetry_cell_setting 'orthorhombic'
loop_
_space_group_symop_operation_xyz
x,y,z
-x,-y,z
x,-y,-z
-x,y,-z
-x,-y,-z
x,y,-z
-x,y,z
x,-y,z
1/2+x,1/2+y,z
1/2-x,1/2-y,z
1/2+x,1/2-y,-z
1/2-x,1/2+y,-z
1/2-x,1/2-y,-z
1/2+x,1/2+y,-z
1/2-x,1/2+y,z
1/2+x,1/2-y,z
loop_
_atom_site_type_symbol
_atom_site_label
_atom_site_fract_x
_atom_site_fract_y
_atom_site_fract_z
Si Si1 0.705453 0.420744 0.871614
Si Si2 0.111744 0.834562 0.250314
Si Si3 0.340993 0.921468 0.791796
Si Si4 0.925206 0.622933 0.000000
Si Si5 0.572235 0.279508 0.000000
Si Si6 0.815219 0.714480 0.360227
Si Si7 0.500000 0.579637 0.639802
O O1 0.681117 0.500000 0.858583
O O2 0.675988 0.378079 0.762392
O O3 0.779692 0.417171 0.871540
O O4 0.684310 0.390173 0.000000
O O5 0.126959 0.764373 0.323538
O O6 0.061223 0.879770 0.319074
O O7 0.089128 0.821234 0.117700
O O8 0.399981 0.912004 0.878996
O O9 0.332799 0.861933 0.691587
O O10 0.346617 0.000000 0.733333
O O11 0.897215 0.702171 0.000000
O O12 0.000000 0.616237 0.000000
O O13 0.500000 0.265334 0.000000
O O14 0.812383 0.705660 0.500000
O O15 0.750000 0.750000 0.314288
O O16 0.500000 0.500000 0.691488
O O17 0.500000 0.577265 0.500000
#
# Coordination Sequence:
#
# PCOD8270895 Si02
#       7
#    16  16  16   8   8  16   8
#     4  10  20  33  55  90 126 159 194 246 315 377
#     4  12  21  39  64  89 122 162 211 258 312 374
#     4  11  22  39  62  89 126 162 201 254 314 380
#     4  11  23  39  63  95 126 158 198 253 316 395
#     4  11  22  36  58  92 121 151 198 252 311 368
#     4  11  24  41  62  89 121 162 213 261 307 366
#     4  11  26  45  63  87 126 176 222 262 306 368
#
# _framework density 19.172853
#
# number of rings (size 3 to 8) (size 9 to 14) (size 15 to 20)
#    0.000    1.000    6.364    1.364    0.000    1.091 
#    0.000    3.182    0.000    0.000    0.000    1.273 
#    0.000    0.000    0.000    0.000    0.000    0.000 
#
# Total GULP energy -545403.086288 kJ/mol
# GULP energy per Si atom -12395.524688 kJ/mol
# Density = 1.912921 g / cm^3
# Si number density = 19.172853 Si / 1000 Ang^3
#
#
#
# Elastic Constant Matrix: (Units=GPa)
#
#
# Indices 1 2 3 4 5 6 
#
# 1 91.5638 46.2119 32.8388 0.0000 0.0000 0.0000
# 2 46.2119 142.7807 55.2389 0.0000 0.0000 0.0000
# 3 32.8388 55.2389 87.5643 0.0000 0.0000 0.0000
# 4 0.0000 0.0000 0.0000 30.9714 0.0000 0.0000
# 5 0.0000 0.0000 0.0000 0.0000 21.2380 0.0000
# 6 0.0000 0.0000 0.0000 0.0000 0.0000 27.2728
#
#
#
# Elastic Compliance Matrix: (Units=1/GPa)
#
#
# Indices 1 2 3 4 5 6 
#
# 1 0.013656 -0.003226 -0.003086 0.000000 0.000000 0.000000
# 2 -0.003226 0.010027 -0.005116 0.000000 0.000000 0.000000
# 3 -0.003086 -0.005116 0.015805 0.000000 0.000000 0.000000
# 4 0.000000 0.000000 0.000000 0.032288 0.000000 0.000000
# 5 0.000000 0.000000 0.000000 0.000000 0.047086 0.000000
# 6 0.000000 0.000000 0.000000 0.000000 0.000000 0.036667
#
#
# Mechanical properties :
#
#
# Convention : Reuss Voigt Hill
#
# Bulk Modulus (GPa) = 60.12426 65.60978 62.86702
# Shear Modulus (GPa) = 27.18455 28.40438 27.79446
#
# Velocity S-wave (km/s) = 3.76954 3.85319 3.81159
# Velocity P-wave (km/s) = 7.09740 7.35462 7.22716
#
# Compressibility (1/GPa) = 0.01663222
#
# Stress axis : x y z
#
# Youngs Moduli (GPa) = 73.22578 99.73127 63.27193
#
# Poissons Ratio (x) = 0.32172 0.19529
# Poissons Ratio (y) = 0.23622 0.32367
# Poissons Ratio (z) = 0.22601 0.51018
#
# Static dielectric constant tensor:
#      x y z
#    x 3.508580 0.000000 0.000000 
#    y 0.000000 3.818170 0.000000 
#    z 0.000000 0.000000 3.248970 
# 
# 
# High freq. dielectric constant tensor:
#      x y z
#    x 1.745240 0.000000 0.000000 
#    y 0.000000 1.760570 0.000000 
#    z 0.000000 0.000000 1.732840 
# 
# From -- ./inp_files/26854.got.cif
#   From: 2010.03.12/outbox.cif.g09.slc.cpg/sg65_14_cif.got.tgz:26854.got - 2010.04.10 20:52:16.
