data_PCOD8270917
_publ_section_title
;
Structure prediction by ZEFSAII (Michael W. Deem and Ramdas Pophale) SiO2 
 PCOD8270917
Probable space group: C M M M
;
_chemical_formula_sum "Si O2"
_cell_formula_units_Z 80
_cell_length_a 8.084253
_cell_length_b 28.844190
_cell_length_c 22.404265
_cell_angle_alpha 90.000000
_cell_angle_beta 90.000000
_cell_angle_gamma 90.000000
_cell_volume 5224.310070
_symmetry_space_group_name_H-M "C M M M"
_symmetry_group_IT_number 65
_symmetry_cell_setting 'orthorhombic'
loop_
_space_group_symop_operation_xyz
x,y,z
-x,-y,z
x,-y,-z
-x,y,-z
-x,-y,-z
x,y,-z
-x,y,z
x,-y,z
1/2+x,1/2+y,z
1/2-x,1/2-y,z
1/2+x,1/2-y,-z
1/2-x,1/2+y,-z
1/2-x,1/2-y,-z
1/2+x,1/2+y,-z
1/2-x,1/2+y,z
1/2+x,1/2-y,z
loop_
_atom_site_type_symbol
_atom_site_label
_atom_site_fract_x
_atom_site_fract_y
_atom_site_fract_z
Si Si1 0.500000 0.555243 0.432294
Si Si2 0.308677 0.550852 0.000000
Si Si3 0.186054 0.555202 0.358218
Si Si4 0.804712 0.551411 0.225437
Si Si5 0.192526 0.606512 0.886324
Si Si6 0.194669 0.200268 0.932428
O O1 0.500000 0.500000 0.429010
O O2 0.500000 0.573228 0.500000
O O3 0.330688 0.574358 0.401708
O O4 0.266548 0.579951 0.057951
O O5 0.219983 0.500000 0.000000
O O6 0.500000 0.541995 0.000000
O O7 0.179996 0.500000 0.360232
O O8 0.236814 0.571043 0.291325
O O9 0.000000 0.573687 0.375595
O O10 0.727096 0.500000 0.216347
O O11 0.731160 0.585913 0.175127
O O12 0.000000 0.547547 0.219075
O O13 0.230342 0.661043 0.889830
O O14 0.000000 0.597828 0.887116
O O15 0.250000 0.250000 0.906715
O O16 0.000000 0.195781 0.931965
O O17 0.263655 0.194244 0.000000
#
# Coordination Sequence:
#
# PCOD8270917 Si02
#       6
#     8   8  16  16  16  16
#     4   9  16  24  36  58  82 105 143 185 217 254
#     4  11  23  35  42  57  88 115 139 179 225 263
#     4   8  14  26  40  54  78 110 143 181 217 249
#     4   8  15  28  44  61  82 111 147 181 211 254
#     4  11  20  31  49  67  83 107 142 180 222 270
#     4  10  20  34  50  65  84 105 132 173 220 267
#
# _framework density 15.313027999999999
#
# number of rings (size 3 to 8) (size 9 to 14) (size 15 to 20)
#    0.000    2.600    1.000    3.300    0.000    2.800 
#    3.600    2.000    0.000    0.000    0.000    0.000 
#    0.000    0.000    0.000    0.000    0.000    1.000 
#
# Total GULP energy -495739.835235 kJ/mol
# GULP energy per Si atom -12393.495881 kJ/mol
# Density = 1.527817 g / cm^3
# Si number density = 15.313028 Si / 1000 Ang^3
#
#
#
# Elastic Constant Matrix: (Units=GPa)
#
#
# Indices 1 2 3 4 5 6 
#
# 1 64.3656 12.6192 46.1966 0.0000 0.0000 0.0000
# 2 12.6192 70.9762 39.7504 0.0000 0.0000 0.0000
# 3 46.1966 39.7504 121.2251 0.0000 0.0000 0.0000
# 4 0.0000 0.0000 0.0000 2.6062 0.0000 0.0000
# 5 0.0000 0.0000 0.0000 0.0000 12.6495 0.0000
# 6 0.0000 0.0000 0.0000 0.0000 0.0000 15.1240
#
#
#
# Elastic Compliance Matrix: (Units=1/GPa)
#
#
# Indices 1 2 3 4 5 6 
#
# 1 0.021436 0.000936 -0.008476 0.000000 0.000000 0.000000
# 2 0.000936 0.017300 -0.006029 0.000000 0.000000 0.000000
# 3 -0.008476 -0.006029 0.013456 0.000000 0.000000 0.000000
# 4 0.000000 0.000000 0.000000 0.383693 0.000000 0.000000
# 5 0.000000 0.000000 0.000000 0.000000 0.079054 0.000000
# 6 0.000000 0.000000 0.000000 0.000000 0.000000 0.066120
#
#
# Mechanical properties :
#
#
# Convention : Reuss Voigt Hill
#
# Bulk Modulus (GPa) = 39.91516 50.41103 45.16310
# Shear Modulus (GPa) = 8.10966 16.60933 12.35950
#
# Velocity S-wave (km/s) = 2.30378 3.29698 2.84407
# Velocity P-wave (km/s) = 5.76188 6.89096 6.35156
#
# Compressibility (1/GPa) = 0.02505313
#
# Stress axis : x y z
#
# Youngs Moduli (GPa) = 46.65053 57.80504 74.31624
#
# Poissons Ratio (x) = -0.05408 0.62988
# Poissons Ratio (y) = -0.04365 0.44806
# Poissons Ratio (z) = 0.39539 0.34851
#
# Static dielectric constant tensor:
#      x y z
#    x 3.033170 0.000000 0.000000 
#    y 0.000000 2.689570 0.000000 
#    z 0.000000 0.000000 3.087090 
# 
# 
# High freq. dielectric constant tensor:
#      x y z
#    x 1.593360 0.000000 0.000000 
#    y 0.000000 1.540170 0.000000 
#    z 0.000000 0.000000 1.570980 
# 
# From -- ./inp_files/60063.got.cif
#   From: 2010.03.12/outbox.cif.g09.slc.cpg/sg65_31_cif.got.tgz:60063.got - 2010.04.10 20:52:16.
