data_PCOD8270437
_publ_section_title
;
Structure prediction by ZEFSAII (Michael W. Deem and Ramdas Pophale) SiO2 
 PCOD8270437
Probable space group: C M M M
;
_chemical_formula_sum "Si O2"
_cell_formula_units_Z 80
_cell_length_a 9.051728
_cell_length_b 25.597948
_cell_length_c 19.464958
_cell_angle_alpha 90.000000
_cell_angle_beta 90.000000
_cell_angle_gamma 90.000000
_cell_volume 4510.140992
_symmetry_space_group_name_H-M "C M M M"
_symmetry_group_IT_number 65
_symmetry_cell_setting 'orthorhombic'
loop_
_space_group_symop_operation_xyz
x,y,z
-x,-y,z
x,-y,-z
-x,y,-z
-x,-y,-z
x,y,-z
-x,y,z
x,-y,z
1/2+x,1/2+y,z
1/2-x,1/2-y,z
1/2+x,1/2-y,-z
1/2-x,1/2+y,-z
1/2-x,1/2-y,-z
1/2+x,1/2+y,-z
1/2-x,1/2+y,z
1/2+x,1/2-y,z
loop_
_atom_site_type_symbol
_atom_site_label
_atom_site_fract_x
_atom_site_fract_y
_atom_site_fract_z
Si Si1 0.672457 0.195931 0.500000
Si Si2 0.333267 0.412845 0.162011
Si Si3 0.827832 0.345713 0.354041
Si Si4 0.830114 0.500000 0.080630
Si Si5 0.324008 0.303066 0.777941
Si Si6 0.664179 0.442097 0.684964
O O1 0.500000 0.205205 0.500000
O O2 0.750000 0.250000 0.500000
O O3 0.722339 0.166383 0.431327
O O4 0.500000 0.411886 0.133673
O O5 0.236903 0.445588 0.108417
O O6 0.278783 0.352537 0.173812
O O7 0.323490 0.443574 0.233150
O O8 0.734131 0.312041 0.299599
O O9 0.792025 0.406721 0.346461
O O10 0.000000 0.335031 0.340657
O O11 0.000000 0.500000 0.101707
O O12 0.804563 0.500000 0.000000
O O13 0.500000 0.296924 0.775181
O O14 0.250000 0.250000 0.807562
O O15 0.500000 0.421171 0.665012
O O16 0.688620 0.500000 0.655911
#
# Coordination Sequence:
#
# PCOD8270437 Si02
#       6
#     8  16  16   8  16  16
#     4  10  22  36  49  66  93 127 166 211 255 308
#     4   9  18  34  54  76 104 139 173 208 252 303
#     4  10  20  33  49  72  99 131 171 212 259 310
#     4  11  23  35  51  81 115 140 169 210 249 291
#     4  10  20  34  53  79 107 134 170 217 263 308
#     4   9  17  32  52  74 101 129 164 211 256 301
#
# _framework density 17.737805000000002
#
# number of rings (size 3 to 8) (size 9 to 14) (size 15 to 20)
#    0.000    2.300    1.000    3.300    0.000    8.400 
#    0.000    0.500    0.000    3.600    0.000    0.000 
#    0.000    0.000    0.000    0.000    0.000    0.000 
#
# Total GULP energy -495814.492707 kJ/mol
# GULP energy per Si atom -12395.362318 kJ/mol
# Density = 1.769743 g / cm^3
# Si number density = 17.737805 Si / 1000 Ang^3
#
#
#
# Elastic Constant Matrix: (Units=GPa)
#
#
# Indices 1 2 3 4 5 6 
#
# 1 78.0973 54.7872 43.3385 0.0000 0.0000 0.0000
# 2 54.7872 134.8783 46.0425 0.0000 0.0000 0.0000
# 3 43.3385 46.0425 66.8457 0.0000 0.0000 0.0000
# 4 0.0000 0.0000 0.0000 17.9996 0.0000 0.0000
# 5 0.0000 0.0000 0.0000 0.0000 23.7896 0.0000
# 6 0.0000 0.0000 0.0000 0.0000 0.0000 35.9860
#
#
#
# Elastic Compliance Matrix: (Units=1/GPa)
#
#
# Indices 1 2 3 4 5 6 
#
# 1 0.022742 -0.005497 -0.010958 0.000000 0.000000 0.000000
# 2 -0.005497 0.011022 -0.004028 0.000000 0.000000 0.000000
# 3 -0.010958 -0.004028 0.024839 0.000000 0.000000 0.000000
# 4 0.000000 0.000000 0.000000 0.055557 0.000000 0.000000
# 5 0.000000 0.000000 0.000000 0.000000 0.042035 0.000000
# 6 0.000000 0.000000 0.000000 0.000000 0.000000 0.027789
#
#
# Mechanical properties :
#
#
# Convention : Reuss Voigt Hill
#
# Bulk Modulus (GPa) = 56.70044 63.12862 59.91453
# Shear Modulus (GPa) = 21.66120 24.59858 23.12989
#
# Velocity S-wave (km/s) = 3.49834 3.72800 3.61500
# Velocity P-wave (km/s) = 6.95364 7.36191 7.16069
#
# Compressibility (1/GPa) = 0.01763655
#
# Stress axis : x y z
#
# Youngs Moduli (GPa) = 43.97199 90.72841 40.25979
#
# Poissons Ratio (x) = 0.49873 0.44117
# Poissons Ratio (y) = 0.24171 0.16216
# Poissons Ratio (z) = 0.48185 0.36544
#
# Static dielectric constant tensor:
#      x y z
#    x 3.117790 0.000000 0.000000 
#    y 0.000000 3.416830 0.000000 
#    z 0.000000 0.000000 3.010740 
# 
# 
# High freq. dielectric constant tensor:
#      x y z
#    x 1.690180 0.000000 0.000000 
#    y 0.000000 1.698130 0.000000 
#    z 0.000000 0.000000 1.650890 
# 
# From -- ./inp_files/60087.got.cif
#   From: 2010.03.12/outbox.cif.g09.slc.cpg/sg65_31_cif.got.tgz:60087.got - 2010.04.10 20:52:16.
