data_PCOD8270382
_publ_section_title
;
Structure prediction by ZEFSAII (Michael W. Deem and Ramdas Pophale) SiO2 
 PCOD8270382
Probable space group: C M M M
;
_chemical_formula_sum "Si O2"
_cell_formula_units_Z 72
_cell_length_a 32.290086
_cell_length_b 9.202004
_cell_length_c 13.528216
_cell_angle_alpha 90.000000
_cell_angle_beta 90.000000
_cell_angle_gamma 90.000000
_cell_volume 4019.686176
_symmetry_space_group_name_H-M "C M M M"
_symmetry_group_IT_number 65
_symmetry_cell_setting 'orthorhombic'
loop_
_space_group_symop_operation_xyz
x,y,z
-x,-y,z
x,-y,-z
-x,y,-z
-x,-y,-z
x,y,-z
-x,y,z
x,-y,z
1/2+x,1/2+y,z
1/2-x,1/2-y,z
1/2+x,1/2-y,-z
1/2-x,1/2+y,-z
1/2-x,1/2-y,-z
1/2+x,1/2+y,-z
1/2-x,1/2+y,z
1/2+x,1/2-y,z
loop_
_atom_site_type_symbol
_atom_site_label
_atom_site_fract_x
_atom_site_fract_y
_atom_site_fract_z
Si Si1 0.792272 0.329308 0.301421
Si Si2 0.085532 0.829922 0.802033
Si Si3 0.000000 0.172929 0.112463
Si Si4 0.367185 0.666847 0.610748
Si Si5 0.839972 0.333364 0.110100
O O1 0.786900 0.500000 0.319240
O O2 0.750000 0.250000 0.328765
O O3 0.827798 0.269822 0.373468
O O4 0.804292 0.291131 0.188116
O O5 0.040292 0.767535 0.829334
O O6 0.096224 0.792773 0.687674
O O7 0.119008 0.760154 0.874534
O O8 0.086956 0.000000 0.822609
O O9 0.000000 0.000000 0.112602
O O10 0.000000 0.231755 0.000000
O O11 0.384394 0.691275 0.500000
O O12 0.353156 0.500000 0.627004
O O13 0.852897 0.500000 0.125551
O O14 0.822545 0.304412 0.000000
#
# Coordination Sequence:
#
# PCOD8270382 Si02
#       5
#    16  16   8  16  16
#     4  10  20  33  49  70  95 122 154 193 235 280
#     4   9  17  30  48  70  95 124 159 194 229 275
#     4   9  16  26  44  72 102 127 153 189 230 271
#     4   9  18  33  51  69  91 121 157 197 238 277
#     4   9  18  32  48  67  94 126 157 191 232 276
#
# _framework density 17.911846000000001
#
# number of rings (size 3 to 8) (size 9 to 14) (size 15 to 20)
#    0.000    2.778    0.000    1.333    0.000    3.556 
#    0.000    1.111    0.000    5.333    0.000    0.000 
#    0.000    7.111    0.000    0.000    0.000    0.000 
#
# Total GULP energy -446348.548404 kJ/mol
# GULP energy per Si atom -12398.570789 kJ/mol
# Density = 1.787108 g / cm^3
# Si number density = 17.911846 Si / 1000 Ang^3
#
#
#
# Elastic Constant Matrix: (Units=GPa)
#
#
# Indices 1 2 3 4 5 6 
#
# 1 109.9329 32.5148 40.3662 0.0000 0.0000 0.0000
# 2 32.5148 45.9881 22.9116 0.0000 0.0000 0.0000
# 3 40.3662 22.9116 114.5592 0.0000 0.0000 0.0000
# 4 0.0000 0.0000 0.0000 20.8226 0.0000 0.0000
# 5 0.0000 0.0000 0.0000 0.0000 15.3259 0.0000
# 6 0.0000 0.0000 0.0000 0.0000 0.0000 21.1863
#
#
#
# Elastic Compliance Matrix: (Units=1/GPa)
#
#
# Indices 1 2 3 4 5 6 
#
# 1 0.012303 -0.007262 -0.002883 0.000000 0.000000 0.000000
# 2 -0.007262 0.028438 -0.003129 0.000000 0.000000 0.000000
# 3 -0.002883 -0.003129 0.010371 0.000000 0.000000 0.000000
# 4 0.000000 0.000000 0.000000 0.048025 0.000000 0.000000
# 5 0.000000 0.000000 0.000000 0.000000 0.065249 0.000000
# 6 0.000000 0.000000 0.000000 0.000000 0.000000 0.047200
#
#
# Mechanical properties :
#
#
# Convention : Reuss Voigt Hill
#
# Bulk Modulus (GPa) = 40.70923 51.34060 46.02491
# Shear Modulus (GPa) = 20.29873 23.11281 21.70577
#
# Velocity S-wave (km/s) = 3.37004 3.59606 3.48488
# Velocity P-wave (km/s) = 6.15790 6.77992 6.47639
#
# Compressibility (1/GPa) = 0.02456446
#
# Stress axis : x y z
#
# Youngs Moduli (GPa) = 81.28163 35.16411 96.42704
#
# Poissons Ratio (x) = 0.25537 0.27796
# Poissons Ratio (y) = 0.59030 0.30168
# Poissons Ratio (z) = 0.23430 0.11001
#
# Static dielectric constant tensor:
#      x y z
#    x 3.279380 0.000000 0.000000 
#    y 0.000000 3.216210 0.000000 
#    z 0.000000 0.000000 3.444420 
# 
# 
# High freq. dielectric constant tensor:
#      x y z
#    x 1.676880 0.000000 0.000000 
#    y 0.000000 1.681200 0.000000 
#    z 0.000000 0.000000 1.699200 
# 
# From -- ./inp_files/36932.got.cif
#   From: 2010.03.12/outbox.cif.g09.slc.cpg/sg65_19_cif.got.tgz:36932.got - 2010.04.10 20:52:16.
