data_PCOD8270658
_publ_section_title
;
Structure prediction by ZEFSAII (Michael W. Deem and Ramdas Pophale) SiO2 
 PCOD8270658
Probable space group: C M M M
;
_chemical_formula_sum "Si O2"
_cell_formula_units_Z 104
_cell_length_a 23.766850
_cell_length_b 26.211885
_cell_length_c 9.349878
_cell_angle_alpha 90.000000
_cell_angle_beta 90.000000
_cell_angle_gamma 90.000000
_cell_volume 5824.730327
_symmetry_space_group_name_H-M "C M M M"
_symmetry_group_IT_number 65
_symmetry_cell_setting 'orthorhombic'
loop_
_space_group_symop_operation_xyz
x,y,z
-x,-y,z
x,-y,-z
-x,y,-z
-x,-y,-z
x,y,-z
-x,y,z
x,-y,z
1/2+x,1/2+y,z
1/2-x,1/2-y,z
1/2+x,1/2-y,-z
1/2-x,1/2+y,-z
1/2-x,1/2-y,-z
1/2+x,1/2+y,-z
1/2-x,1/2+y,z
1/2+x,1/2-y,z
loop_
_atom_site_type_symbol
_atom_site_label
_atom_site_fract_x
_atom_site_fract_y
_atom_site_fract_z
Si Si1 0.063615 0.405478 0.162843
Si Si2 0.647171 0.558502 0.666677
Si Si3 0.763803 0.142583 0.668048
Si Si4 0.841738 0.327976 0.836306
Si Si5 0.435704 0.372323 0.833493
Si Si6 0.932900 0.500000 0.339471
Si Si7 0.153535 0.788863 0.165817
O O1 0.098247 0.354150 0.185508
O O2 0.090077 0.449885 0.260460
O O3 0.000000 0.392628 0.208585
O O4 0.066356 0.424879 0.000000
O O5 0.632867 0.562934 0.500000
O O6 0.656585 0.500000 0.713554
O O7 0.704128 0.589604 0.703284
O O8 0.594151 0.581529 0.750532
O O9 0.758573 0.151739 0.500000
O O10 0.702307 0.142016 0.737348
O O11 0.796860 0.189597 0.737064
O O12 0.852347 0.269845 0.790106
O O13 0.820822 0.331554 0.000000
O O14 0.500000 0.367177 0.780845
O O15 0.404608 0.318629 0.801604
O O16 0.432874 0.385957 0.000000
O O17 0.909407 0.500000 0.500000
O O18 0.000000 0.500000 0.333222
O O19 0.170487 0.795181 0.000000
#
# Coordination Sequence:
#
# PCOD8270658 Si02
#       7
#    16  16  16  16  16   8  16
#     4   9  18  33  52  73  99 130 163 201 245 295
#     4   9  19  36  54  71  97 134 172 209 251 301
#     4  10  20  34  52  73  98 130 169 211 253 299
#     4  10  20  33  51  76 102 129 166 207 248 298
#     4   9  18  32  51  77 106 134 167 206 248 296
#     4   9  17  31  51  71  93 125 161 195 236 285
#     4   9  18  33  52  72 100 136 167 202 248 297
#
# _framework density 17.854904000000001
#
# number of rings (size 3 to 8) (size 9 to 14) (size 15 to 20)
#    0.000    2.692    0.000    1.154    0.000    6.154 
#    1.385    4.615    0.000    0.000    0.000    4.308 
#    0.000    0.000    0.000    0.000    0.000    0.000 
#
# Total GULP energy -644838.425142 kJ/mol
# GULP energy per Si atom -12400.738945 kJ/mol
# Density = 1.781426 g / cm^3
# Si number density = 17.854904 Si / 1000 Ang^3
#
#
#
# Elastic Constant Matrix: (Units=GPa)
#
#
# Indices 1 2 3 4 5 6 
#
# 1 101.8720 58.8796 45.2148 0.0000 0.0000 0.0000
# 2 58.8796 124.6496 48.8718 0.0000 0.0000 0.0000
# 3 45.2148 48.8718 70.0896 0.0000 0.0000 0.0000
# 4 0.0000 0.0000 0.0000 21.1009 0.0000 0.0000
# 5 0.0000 0.0000 0.0000 0.0000 23.4682 0.0000
# 6 0.0000 0.0000 0.0000 0.0000 0.0000 17.0844
#
#
#
# Elastic Compliance Matrix: (Units=1/GPa)
#
#
# Indices 1 2 3 4 5 6 
#
# 1 0.015517 -0.004686 -0.006743 0.000000 0.000000 0.000000
# 2 -0.004686 0.012456 -0.005662 0.000000 0.000000 0.000000
# 3 -0.006743 -0.005662 0.022565 0.000000 0.000000 0.000000
# 4 0.000000 0.000000 0.000000 0.047391 0.000000 0.000000
# 5 0.000000 0.000000 0.000000 0.000000 0.042611 0.000000
# 6 0.000000 0.000000 0.000000 0.000000 0.000000 0.058533
#
#
# Mechanical properties :
#
#
# Convention : Reuss Voigt Hill
#
# Bulk Modulus (GPa) = 61.13779 66.94928 64.04353
# Shear Modulus (GPa) = 20.94605 21.90704 21.42654
#
# Velocity S-wave (km/s) = 3.42881 3.50658 3.46791
# Velocity P-wave (km/s) = 7.07046 7.34660 7.20985
#
# Compressibility (1/GPa) = 0.01635650
#
# Stress axis : x y z
#
# Youngs Moduli (GPa) = 64.44366 80.28198 44.31579
#
# Poissons Ratio (x) = 0.37622 0.29881
# Poissons Ratio (y) = 0.30200 0.25093
# Poissons Ratio (z) = 0.43452 0.45458
#
# Static dielectric constant tensor:
#      x y z
#    x 3.278510 0.000000 0.000000 
#    y 0.000000 3.337970 0.000000 
#    z 0.000000 0.000000 3.338130 
# 
# 
# High freq. dielectric constant tensor:
#      x y z
#    x 1.681970 0.000000 0.000000 
#    y 0.000000 1.692310 0.000000 
#    z 0.000000 0.000000 1.688890 
# 
# From -- ./inp_files/12431.got.cif
#   From: 2010.03.12/outbox.cif.g09.slc.cpg/sg65_7_cif.got.tgz:12431.got - 2010.04.10 20:52:16.
