data_PCOD8270696
_publ_section_title
;
Structure prediction by ZEFSAII (Michael W. Deem and Ramdas Pophale) SiO2 
 PCOD8270696
Probable space group: C M M M
;
_chemical_formula_sum "Si O2"
_cell_formula_units_Z 120
_cell_length_a 27.427416
_cell_length_b 27.110081
_cell_length_c 9.112404
_cell_angle_alpha 90.000000
_cell_angle_beta 90.000000
_cell_angle_gamma 90.000000
_cell_volume 6775.614283
_symmetry_space_group_name_H-M "C M M M"
_symmetry_group_IT_number 65
_symmetry_cell_setting 'orthorhombic'
loop_
_space_group_symop_operation_xyz
x,y,z
-x,-y,z
x,-y,-z
-x,y,-z
-x,-y,-z
x,y,-z
-x,y,z
x,-y,z
1/2+x,1/2+y,z
1/2-x,1/2-y,z
1/2+x,1/2-y,-z
1/2-x,1/2+y,-z
1/2-x,1/2-y,-z
1/2+x,1/2+y,-z
1/2-x,1/2+y,z
1/2+x,1/2-y,z
loop_
_atom_site_type_symbol
_atom_site_label
_atom_site_fract_x
_atom_site_fract_y
_atom_site_fract_z
Si Si1 0.782934 0.100349 0.669626
Si Si2 0.229395 0.698005 0.329452
Si Si3 0.054952 0.713730 0.170766
Si Si4 0.357245 0.146145 0.827777
Si Si5 0.183824 0.444037 0.326619
Si Si6 0.944265 0.188147 0.671232
Si Si7 0.109382 0.089460 0.675038
Si Si8 0.942496 0.000000 0.830405
O O1 0.787360 0.088139 0.500000
O O2 0.771841 0.157939 0.696323
O O3 0.738540 0.067360 0.733483
O O4 0.835254 0.086380 0.737982
O O5 0.214078 0.700246 0.500000
O O6 0.250000 0.750000 0.273556
O O7 0.182187 0.684080 0.236044
O O8 0.089306 0.667409 0.208640
O O9 0.074816 0.762544 0.250535
O O10 0.000000 0.700582 0.222900
O O11 0.056415 0.725719 0.000000
O O12 0.353981 0.092388 0.752679
O O13 0.348281 0.140259 0.000000
O O14 0.181457 0.433593 0.500000
O O15 0.169641 0.500000 0.288024
O O16 0.938653 0.197465 0.500000
O O17 0.911732 0.142316 0.722637
O O18 0.000000 0.176902 0.715518
O O19 0.106247 0.082426 0.500000
O O20 0.078072 0.048031 0.752305
O O21 0.000000 0.000000 0.810370
O O22 0.927091 0.000000 0.000000
#
# Coordination Sequence:
#
# PCOD8270696 Si02
#       8
#    16  16  16  16  16  16  16   8
#     4   8  16  30  49  77 102 126 163 203 246 295
#     4   9  18  32  52  75 103 139 173 204 245 302
#     4   9  19  35  53  74 104 142 176 205 246 302
#     4  10  20  33  51  77 106 136 171 212 257 303
#     4   9  18  34  56  77 102 135 171 209 251 309
#     4   9  18  31  49  76 103 127 164 214 260 300
#     4  10  20  34  56  78  98 126 166 217 262 304
#     4  11  25  41  53  69  97 133 173 217 266 317
#
# _framework density 17.710571000000002
#
# number of rings (size 3 to 8) (size 9 to 14) (size 15 to 20)
#    0.000    2.733    0.000    1.800    2.800    3.200 
#    0.000    4.000    0.000    0.400    0.000    2.800 
#    0.000    0.000    0.000    0.000    0.000    0.000 
#
# Total GULP energy -743904.852694 kJ/mol
# GULP energy per Si atom -12398.414212 kJ/mol
# Density = 1.767026 g / cm^3
# Si number density = 17.710571 Si / 1000 Ang^3
#
#
#
# Elastic Constant Matrix: (Units=GPa)
#
#
# Indices 1 2 3 4 5 6 
#
# 1 94.6472 65.1709 39.8904 0.0000 0.0000 0.0000
# 2 65.1709 146.1957 52.8294 0.0000 0.0000 0.0000
# 3 39.8904 52.8294 51.0467 0.0000 0.0000 0.0000
# 4 0.0000 0.0000 0.0000 17.1032 0.0000 0.0000
# 5 0.0000 0.0000 0.0000 0.0000 22.6176 0.0000
# 6 0.0000 0.0000 0.0000 0.0000 0.0000 23.9800
#
#
#
# Elastic Compliance Matrix: (Units=1/GPa)
#
#
# Indices 1 2 3 4 5 6 
#
# 1 0.017470 -0.004560 -0.008933 0.000000 0.000000 0.000000
# 2 -0.004560 0.012117 -0.008976 0.000000 0.000000 0.000000
# 3 -0.008933 -0.008976 0.035861 0.000000 0.000000 0.000000
# 4 0.000000 0.000000 0.000000 0.058469 0.000000 0.000000
# 5 0.000000 0.000000 0.000000 0.000000 0.044213 0.000000
# 6 0.000000 0.000000 0.000000 0.000000 0.000000 0.041701
#
#
# Mechanical properties :
#
#
# Convention : Reuss Voigt Hill
#
# Bulk Modulus (GPa) = 48.75970 67.51901 58.13936
# Shear Modulus (GPa) = 19.11276 21.67344 20.39310
#
# Velocity S-wave (km/s) = 3.28864 3.50202 3.39701
# Velocity P-wave (km/s) = 6.48162 7.38637 6.94874
#
# Compressibility (1/GPa) = 0.02050874
#
# Stress axis : x y z
#
# Youngs Moduli (GPa) = 57.24020 82.53190 27.88583
#
# Poissons Ratio (x) = 0.37633 0.24911
# Poissons Ratio (y) = 0.26100 0.25031
# Poissons Ratio (z) = 0.51133 0.74084
#
# Static dielectric constant tensor:
#      x y z
#    x 3.435190 0.000000 0.000000 
#    y 0.000000 3.332490 0.000000 
#    z 0.000000 0.000000 3.124230 
# 
# 
# High freq. dielectric constant tensor:
#      x y z
#    x 1.680790 0.000000 0.000000 
#    y 0.000000 1.686820 0.000000 
#    z 0.000000 0.000000 1.665570 
# 
# From -- ./inp_files/17114.got.cif
#   From: 2010.03.12/outbox.cif.g09.slc.cpg/sg65_9_cif.got.tgz:17114.got - 2010.04.10 20:52:16.
