data_PCOD8270172
_publ_section_title
;
Structure prediction by ZEFSAII (Michael W. Deem and Ramdas Pophale) SiO2 
 PCOD8270172
Probable space group: C M M M
;
_chemical_formula_sum "Si O2"
_cell_formula_units_Z 96
_cell_length_a 14.902085
_cell_length_b 26.513669
_cell_length_c 14.236189
_cell_angle_alpha 90.000000
_cell_angle_beta 90.000000
_cell_angle_gamma 90.000000
_cell_volume 5624.845675
_symmetry_space_group_name_H-M "C M M M"
_symmetry_group_IT_number 65
_symmetry_cell_setting 'orthorhombic'
loop_
_space_group_symop_operation_xyz
x,y,z
-x,-y,z
x,-y,-z
-x,y,-z
-x,-y,-z
x,y,-z
-x,y,z
x,-y,z
1/2+x,1/2+y,z
1/2-x,1/2-y,z
1/2+x,1/2-y,-z
1/2-x,1/2+y,-z
1/2-x,1/2-y,-z
1/2+x,1/2+y,-z
1/2-x,1/2+y,z
1/2+x,1/2-y,z
loop_
_atom_site_type_symbol
_atom_site_label
_atom_site_fract_x
_atom_site_fract_y
_atom_site_fract_z
Si Si1 0.177186 0.390148 0.892040
Si Si2 0.859532 0.057613 0.892395
Si Si3 0.000000 0.556109 0.888097
Si Si4 0.500000 0.266010 0.890366
Si Si5 0.665535 0.212975 0.201019
Si Si6 0.000000 0.125720 0.793826
Si Si7 0.355014 0.759315 0.398577
Si Si8 0.000000 0.175076 0.604432
O O1 0.254562 0.431520 0.880316
O O2 0.086819 0.414432 0.851043
O O3 0.201060 0.340522 0.833892
O O4 0.165119 0.374259 0.000000
O O5 0.912647 0.095358 0.825606
O O6 0.878626 0.000000 0.862926
O O7 0.889760 0.066661 0.000000
O O8 0.000000 0.500000 0.845332
O O9 0.000000 0.553020 0.000000
O O10 0.412191 0.233618 0.866274
O O11 0.500000 0.318212 0.834958
O O12 0.500000 0.278329 0.000000
O O13 0.750000 0.250000 0.200084
O O14 0.626921 0.205877 0.307482
O O15 0.000000 0.130190 0.680745
O O16 0.386327 0.782916 0.500000
O O17 0.250000 0.750000 0.404992
O O18 0.409952 0.707904 0.381276
O O19 0.000000 0.150945 0.500000
#
# Coordination Sequence:
#
# PCOD8270172 Si02
#       8
#    16  16   8   8  16   8  16   8
#     4  10  20  32  49  73 103 139 175 209 253 308
#     4  10  21  36  53  74 101 135 180 228 263 300
#     4   9  17  32  52  70  92 126 170 219 261 292
#     4  12  23  33  46  72 108 142 174 202 247 307
#     4  11  21  33  49  72 106 141 168 206 247 303
#     4  12  21  34  53  76  98 138 175 210 264 305
#     4   9  18  33  53  74 101 136 173 213 251 295
#     4  10  20  36  55  78 104 134 174 213 256 311
#
# _framework density 17.067133999999999
#
# number of rings (size 3 to 8) (size 9 to 14) (size 15 to 20)
#    0.000    1.750    1.667    3.500    2.333    6.000 
#    0.000    0.000    0.000    1.000    0.000    0.000 
#    0.000    2.667    0.000    0.000    0.000    0.167 
#
# Total GULP energy -595061.160738 kJ/mol
# GULP energy per Si atom -12397.107515 kJ/mol
# Density = 1.702829 g / cm^3
# Si number density = 17.067134 Si / 1000 Ang^3
#
#
#
# Elastic Constant Matrix: (Units=GPa)
#
#
# Indices 1 2 3 4 5 6 
#
# 1 97.1246 24.6191 22.2076 0.0000 0.0000 0.0000
# 2 24.6191 84.7852 35.4109 0.0000 0.0000 0.0000
# 3 22.2076 35.4109 106.9464 0.0000 0.0000 0.0000
# 4 0.0000 0.0000 0.0000 7.4275 0.0000 0.0000
# 5 0.0000 0.0000 0.0000 0.0000 11.0949 0.0000
# 6 0.0000 0.0000 0.0000 0.0000 0.0000 25.3397
#
#
#
# Elastic Compliance Matrix: (Units=1/GPa)
#
#
# Indices 1 2 3 4 5 6 
#
# 1 0.011308 -0.002672 -0.001463 0.000000 0.000000 0.000000
# 2 -0.002672 0.014319 -0.004186 0.000000 0.000000 0.000000
# 3 -0.001463 -0.004186 0.011040 0.000000 0.000000 0.000000
# 4 0.000000 0.000000 0.000000 0.134634 0.000000 0.000000
# 5 0.000000 0.000000 0.000000 0.000000 0.090132 0.000000
# 6 0.000000 0.000000 0.000000 0.000000 0.000000 0.039464
#
#
# Mechanical properties :
#
#
# Convention : Reuss Voigt Hill
#
# Bulk Modulus (GPa) = 49.94100 50.37017 50.15558
# Shear Modulus (GPa) = 15.42187 22.54699 18.98443
#
# Velocity S-wave (km/s) = 3.00926 3.63861 3.33879
# Velocity P-wave (km/s) = 6.43422 6.87238 6.65691
#
# Compressibility (1/GPa) = 0.02002363
#
# Stress axis : x y z
#
# Youngs Moduli (GPa) = 88.43281 69.83787 90.57626
#
# Poissons Ratio (x) = 0.18663 0.13254
# Poissons Ratio (y) = 0.23633 0.37917
# Poissons Ratio (z) = 0.12940 0.29235
#
# Static dielectric constant tensor:
#      x y z
#    x 3.329720 0.000000 0.000000 
#    y 0.000000 3.027280 0.000000 
#    z 0.000000 0.000000 3.469680 
# 
# 
# High freq. dielectric constant tensor:
#      x y z
#    x 1.680150 0.000000 0.000000 
#    y 0.000000 1.633320 0.000000 
#    z 0.000000 0.000000 1.644940 
# 
# From -- ./inp_files/40745.got.cif
#   From: 2010.03.12/outbox.cif.g09.slc.cpg/sg65_21_cif.got.tgz:40745.got - 2010.04.10 20:52:16.
