data_PCOD8270554
_publ_section_title
;
Structure prediction by ZEFSAII (Michael W. Deem and Ramdas Pophale) SiO2 
 PCOD8270554
Probable space group: C M M M
;
_chemical_formula_sum "Si O2"
_cell_formula_units_Z 96
_cell_length_a 19.677166
_cell_length_b 30.273540
_cell_length_c 9.017831
_cell_angle_alpha 90.000000
_cell_angle_beta 90.000000
_cell_angle_gamma 90.000000
_cell_volume 5371.899130
_symmetry_space_group_name_H-M "C M M M"
_symmetry_group_IT_number 65
_symmetry_cell_setting 'orthorhombic'
loop_
_space_group_symop_operation_xyz
x,y,z
-x,-y,z
x,-y,-z
-x,y,-z
-x,-y,-z
x,y,-z
-x,y,z
x,-y,z
1/2+x,1/2+y,z
1/2-x,1/2-y,z
1/2+x,1/2-y,-z
1/2-x,1/2+y,-z
1/2-x,1/2-y,-z
1/2+x,1/2+y,-z
1/2-x,1/2+y,z
1/2+x,1/2-y,z
loop_
_atom_site_type_symbol
_atom_site_label
_atom_site_fract_x
_atom_site_fract_y
_atom_site_fract_z
Si Si1 0.285366 0.706028 0.825860
Si Si2 0.577465 0.834505 0.671887
Si Si3 0.718366 0.447816 0.327685
Si Si4 0.924549 0.242452 0.828317
Si Si5 0.699528 0.124025 0.824264
Si Si6 0.428377 0.450387 0.324044
O O1 0.250000 0.750000 0.758589
O O2 0.366333 0.706550 0.788170
O O3 0.250095 0.662181 0.760384
O O4 0.272775 0.705468 0.000000
O O5 0.596996 0.835053 0.500000
O O6 0.500000 0.849484 0.698068
O O7 0.589332 0.785379 0.731426
O O8 0.624468 0.868672 0.759915
O O9 0.730032 0.436910 0.500000
O O10 0.724477 0.500000 0.299106
O O11 0.774738 0.423304 0.231247
O O12 0.643591 0.429642 0.272102
O O13 0.000000 0.222743 0.795599
O O14 0.917897 0.256634 0.000000
O O15 0.695745 0.123805 0.000000
O O16 0.425755 0.451999 0.500000
O O17 0.500000 0.426438 0.272733
O O18 0.431127 0.500000 0.262019
#
# Coordination Sequence:
#
# PCOD8270554 Si02
#       6
#    16  16  16  16  16  16
#     4   9  16  29  47  70 100 130 163 204 243 285
#     4  10  20  33  50  74 102 128 160 206 255 302
#     4   9  18  33  52  74 102 134 169 213 262 307
#     4   9  16  29  50  71  95 134 177 208 241 292
#     4  11  21  33  52  75 101 134 171 210 249 299
#     4   7  10  20  42  69  92 119 160 203 239 282
#
# _framework density 17.870774000000001
#
# number of rings (size 3 to 8) (size 9 to 14) (size 15 to 20)
#    0.000    2.833    1.667    2.500    0.000    1.333 
#    0.000    3.333    0.000    2.000    0.000    5.833 
#    0.000    0.000    0.000    0.000    0.000    0.000 
#
# Total GULP energy -594646.531174 kJ/mol
# GULP energy per Si atom -12388.469399 kJ/mol
# Density = 1.783010 g / cm^3
# Si number density = 17.870774 Si / 1000 Ang^3
#
#
#
# Elastic Constant Matrix: (Units=GPa)
#
#
# Indices 1 2 3 4 5 6 
#
# 1 134.1084 44.7044 47.7508 0.0000 0.0000 0.0000
# 2 44.7044 53.9244 30.0217 0.0000 0.0000 0.0000
# 3 47.7508 30.0217 61.3184 0.0000 0.0000 0.0000
# 4 0.0000 0.0000 0.0000 19.0131 0.0000 0.0000
# 5 0.0000 0.0000 0.0000 0.0000 19.2103 0.0000
# 6 0.0000 0.0000 0.0000 0.0000 0.0000 27.5405
#
#
#
# Elastic Compliance Matrix: (Units=1/GPa)
#
#
# Indices 1 2 3 4 5 6 
#
# 1 0.011719 -0.006371 -0.006007 0.000000 0.000000 0.000000
# 2 -0.006371 0.028957 -0.009216 0.000000 0.000000 0.000000
# 3 -0.006007 -0.009216 0.025498 0.000000 0.000000 0.000000
# 4 0.000000 0.000000 0.000000 0.052595 0.000000 0.000000
# 5 0.000000 0.000000 0.000000 0.000000 0.052055 0.000000
# 6 0.000000 0.000000 0.000000 0.000000 0.000000 0.036310
#
#
# Mechanical properties :
#
#
# Convention : Reuss Voigt Hill
#
# Bulk Modulus (GPa) = 43.50373 54.92277 49.21325
# Shear Modulus (GPa) = 19.38088 21.61108 20.49598
#
# Velocity S-wave (km/s) = 3.29675 3.48127 3.39026
# Velocity P-wave (km/s) = 6.23601 6.85266 6.55159
#
# Compressibility (1/GPa) = 0.02298654
#
# Stress axis : x y z
#
# Youngs Moduli (GPa) = 85.32937 34.53351 39.21836
#
# Poissons Ratio (x) = 0.22002 0.23558
# Poissons Ratio (y) = 0.54366 0.36144
# Poissons Ratio (z) = 0.51256 0.31826
#
# Static dielectric constant tensor:
#      x y z
#    x 3.777010 0.000000 0.000000 
#    y 0.000000 2.957020 0.000000 
#    z 0.000000 0.000000 3.006960 
# 
# 
# High freq. dielectric constant tensor:
#      x y z
#    x 1.712630 0.000000 0.000000 
#    y 0.000000 1.646400 0.000000 
#    z 0.000000 0.000000 1.661850 
# 
# From -- ./inp_files/12316.got.cif
#   From: 2010.03.12/outbox.cif.g09.slc.cpg/sg65_7_cif.got.tgz:12316.got - 2010.04.10 20:52:16.
