data_PCOD8270453
_publ_section_title
;
Structure prediction by ZEFSAII (Michael W. Deem and Ramdas Pophale) SiO2 
 PCOD8270453
Probable space group: C M M M
;
_chemical_formula_sum "Si O2"
_cell_formula_units_Z 104
_cell_length_a 29.556395
_cell_length_b 20.560047
_cell_length_c 9.031535
_cell_angle_alpha 90.000000
_cell_angle_beta 90.000000
_cell_angle_gamma 90.000000
_cell_volume 5488.291049
_symmetry_space_group_name_H-M "C M M M"
_symmetry_group_IT_number 65
_symmetry_cell_setting 'orthorhombic'
loop_
_space_group_symop_operation_xyz
x,y,z
-x,-y,z
x,-y,-z
-x,y,-z
-x,-y,-z
x,y,-z
-x,y,z
x,-y,z
1/2+x,1/2+y,z
1/2-x,1/2-y,z
1/2+x,1/2-y,-z
1/2-x,1/2+y,-z
1/2-x,1/2-y,-z
1/2+x,1/2+y,-z
1/2-x,1/2+y,z
1/2+x,1/2-y,z
loop_
_atom_site_type_symbol
_atom_site_label
_atom_site_fract_x
_atom_site_fract_y
_atom_site_fract_z
Si Si1 0.550219 0.751689 0.326370
Si Si2 0.550346 0.886226 0.166645
Si Si3 0.302428 0.857896 0.835030
Si Si4 0.212059 0.000000 0.661649
Si Si5 0.688027 0.000000 0.263461
Si Si6 0.210847 0.858715 0.322932
Si Si7 0.359773 0.264322 0.172467
Si Si8 0.092639 0.500000 0.660936
O O1 0.560403 0.748832 0.500000
O O2 0.500000 0.721222 0.292313
O O3 0.550266 0.825065 0.272676
O O4 0.591122 0.716683 0.239976
O O5 0.500000 0.915751 0.156999
O O6 0.582513 0.938043 0.240408
O O7 0.567561 0.868256 0.000000
O O8 0.315467 0.934005 0.833865
O O9 0.261955 0.840574 0.722623
O O10 0.345728 0.811318 0.797073
O O11 0.285588 0.840328 0.000000
O O12 0.266361 0.000000 0.642337
O O13 0.198234 0.931863 0.739737
O O14 0.189812 0.000000 0.500000
O O15 0.645877 0.000000 0.374404
O O16 0.207760 0.856574 0.500000
O O17 0.176746 0.809066 0.251087
O O18 0.361262 0.280850 0.000000
O O19 0.067676 0.500000 0.500000
#
# Coordination Sequence:
#
# PCOD8270453 Si02
#       8
#    16  16  16   8   8  16  16   8
#     4  10  21  37  56  77 101 131 171 218 265 316
#     4  10  21  36  51  67  92 128 169 216 272 326
#     4  10  21  35  51  74 105 141 181 223 266 314
#     4   8  17  35  54  73 101 134 167 206 252 304
#     4  10  20  33  50  70  98 137 180 221 265 308
#     4  10  20  35  56  80 107 140 177 217 262 313
#     4  11  22  35  53  79 111 143 176 217 265 318
#     4  12  23  32  47  70  95 127 174 228 272 314
#
# _framework density 18.949432999999999
#
# number of rings (size 3 to 8) (size 9 to 14) (size 15 to 20)
#    0.000    1.846    0.000    4.154    0.000    8.923 
#    0.000    1.154    0.000    0.000    0.000    0.538 
#    0.000    4.308    0.000    0.000    0.000    0.000 
#
# Total GULP energy -644353.970363 kJ/mol
# GULP energy per Si atom -12391.422507 kJ/mol
# Density = 1.890630 g / cm^3
# Si number density = 18.949433 Si / 1000 Ang^3
#
#
#
# Elastic Constant Matrix: (Units=GPa)
#
#
# Indices 1 2 3 4 5 6 
#
# 1 99.4572 30.1242 43.5640 0.0000 0.0000 0.0000
# 2 30.1242 67.9234 25.7536 0.0000 0.0000 0.0000
# 3 43.5640 25.7536 101.9632 0.0000 0.0000 0.0000
# 4 0.0000 0.0000 0.0000 8.4162 0.0000 0.0000
# 5 0.0000 0.0000 0.0000 0.0000 29.4458 0.0000
# 6 0.0000 0.0000 0.0000 0.0000 0.0000 21.2076
#
#
#
# Elastic Compliance Matrix: (Units=1/GPa)
#
#
# Indices 1 2 3 4 5 6 
#
# 1 0.013353 -0.004157 -0.004655 0.000000 0.000000 0.000000
# 2 -0.004157 0.017576 -0.002663 0.000000 0.000000 0.000000
# 3 -0.004655 -0.002663 0.012469 0.000000 0.000000 0.000000
# 4 0.000000 0.000000 0.000000 0.118819 0.000000 0.000000
# 5 0.000000 0.000000 0.000000 0.000000 0.033961 0.000000
# 6 0.000000 0.000000 0.000000 0.000000 0.000000 0.047153
#
#
# Mechanical properties :
#
#
# Convention : Reuss Voigt Hill
#
# Bulk Modulus (GPa) = 48.90651 52.02528 50.46589
# Shear Modulus (GPa) = 18.30859 23.14072 20.72466
#
# Velocity S-wave (km/s) = 3.11172 3.49833 3.31067
# Velocity P-wave (km/s) = 6.22699 6.62059 6.42680
#
# Compressibility (1/GPa) = 0.02044718
#
# Stress axis : x y z
#
# Youngs Moduli (GPa) = 74.89166 56.89627 80.19903
#
# Poissons Ratio (x) = 0.23652 0.37333
# Poissons Ratio (y) = 0.31132 0.21359
# Poissons Ratio (z) = 0.34862 0.15153
#
# Static dielectric constant tensor:
#      x y z
#    x 3.660950 0.000000 0.000000 
#    y 0.000000 2.526270 0.000000 
#    z 0.000000 0.000000 3.452570 
# 
# 
# High freq. dielectric constant tensor:
#      x y z
#    x 1.730730 0.000000 0.000000 
#    y 0.000000 1.711440 0.000000 
#    z 0.000000 0.000000 1.742480 
# 
# From -- ./inp_files/16525.got.cif
#   From: 2010.03.12/outbox.cif.g09.slc.cpg/sg65_9_cif.got.tgz:16525.got - 2010.04.10 20:52:16.
