data_PCOD8270926
_publ_section_title
;
Structure prediction by ZEFSAII (Michael W. Deem and Ramdas Pophale) SiO2 
 PCOD8270926
Probable space group: C M M M
;
_chemical_formula_sum "Si O2"
_cell_formula_units_Z 104
_cell_length_a 9.011821
_cell_length_b 35.483328
_cell_length_c 17.264600
_cell_angle_alpha 90.000000
_cell_angle_beta 90.000000
_cell_angle_gamma 90.000000
_cell_volume 5520.690790
_symmetry_space_group_name_H-M "C M M M"
_symmetry_group_IT_number 65
_symmetry_cell_setting 'orthorhombic'
loop_
_space_group_symop_operation_xyz
x,y,z
-x,-y,z
x,-y,-z
-x,y,-z
-x,-y,-z
x,y,-z
-x,y,z
x,-y,z
1/2+x,1/2+y,z
1/2-x,1/2-y,z
1/2+x,1/2-y,-z
1/2-x,1/2+y,-z
1/2-x,1/2-y,-z
1/2+x,1/2+y,-z
1/2-x,1/2+y,z
1/2+x,1/2-y,z
loop_
_atom_site_type_symbol
_atom_site_label
_atom_site_fract_x
_atom_site_fract_y
_atom_site_fract_z
Si Si1 0.325633 0.569195 0.086341
Si Si2 0.676628 0.645568 0.305774
Si Si3 0.176805 0.791325 0.000000
Si Si4 0.825445 0.212370 0.412048
Si Si5 0.823339 0.849464 0.868922
Si Si6 0.676732 0.420391 0.413953
Si Si7 0.322527 0.500000 0.183627
Si Si8 0.676676 0.500000 0.357936
O O1 0.500000 0.571956 0.101024
O O2 0.258588 0.610839 0.099943
O O3 0.257732 0.537725 0.143364
O O4 0.288610 0.555768 0.000000
O O5 0.500000 0.644042 0.303849
O O6 0.735832 0.679106 0.359051
O O7 0.737163 0.653348 0.219223
O O8 0.737411 0.607158 0.346007
O O9 0.250000 0.750000 0.000000
O O10 0.230251 0.814814 0.076427
O O11 0.000000 0.786272 0.000000
O O12 0.777753 0.203694 0.500000
O O13 0.750000 0.250000 0.380806
O O14 0.000000 0.217064 0.404526
O O15 0.000000 0.849742 0.871129
O O16 0.728217 0.407124 0.500000
O O17 0.500000 0.420293 0.410319
O O18 0.737908 0.462607 0.399943
O O19 0.500000 0.500000 0.177687
O O20 0.264192 0.500000 0.270592
O O21 0.500000 0.500000 0.359202
#
# Coordination Sequence:
#
# PCOD8270926 Si02
#       8
#    16  16   8  16  16  16   8   8
#     4   9  14  21  32  47  70 100 134 169 208 253
#     4   9  16  25  39  57  77 103 138 175 210 253
#     4  10  20  34  50  67  87 113 145 180 218 262
#     4   9  17  29  44  62  84 109 137 171 212 255
#     4   9  16  27  41  57  78 106 137 171 213 258
#     4   9  15  22  32  47  70 103 142 180 214 249
#     4   9  15  19  27  45  69  99 137 175 208 249
#     4   9  15  21  27  41  67 101 140 179 214 245
#
# _framework density 18.838221999999998
#
# number of rings (size 3 to 8) (size 9 to 14) (size 15 to 20)
#    0.000    2.923    0.769    1.846    0.000    8.000 
#    0.000    0.000    0.000    0.000    0.000    0.000 
#    0.000    0.000    0.000    2.077    0.000   20.154 
#
# Total GULP energy -644387.395247 kJ/mol
# GULP energy per Si atom -12392.065293 kJ/mol
# Density = 1.879534 g / cm^3
# Si number density = 18.838222 Si / 1000 Ang^3
#
#
#
# Elastic Constant Matrix: (Units=GPa)
#
#
# Indices 1 2 3 4 5 6 
#
# 1 2.1461 10.0262 6.4193 0.0000 0.0000 0.0000
# 2 10.0262 160.8998 85.8681 0.0000 0.0000 0.0000
# 3 6.4193 85.8681 144.5952 0.0000 0.0000 0.0000
# 4 0.0000 0.0000 0.0000 33.4297 0.0000 0.0000
# 5 0.0000 0.0000 0.0000 0.0000 5.4346 0.0000
# 6 0.0000 0.0000 0.0000 0.0000 0.0000 14.1650
#
#
#
# Elastic Compliance Matrix: (Units=1/GPa)
#
#
# Indices 1 2 3 4 5 6 
#
# 1 0.662365 -0.037450 -0.007166 0.000000 0.000000 0.000000
# 2 -0.037450 0.011216 -0.004998 0.000000 0.000000 0.000000
# 3 -0.007166 -0.004998 0.010202 0.000000 0.000000 0.000000
# 4 0.000000 0.000000 0.000000 0.029914 0.000000 0.000000
# 5 0.000000 0.000000 0.000000 0.000000 0.184007 0.000000
# 6 0.000000 0.000000 0.000000 0.000000 0.000000 0.070597
#
#
# Mechanical properties :
#
#
# Convention : Reuss Voigt Hill
#
# Bulk Modulus (GPa) = 1.71070 56.91870 29.31470
# Shear Modulus (GPa) = 3.96077 24.29435 14.12756
#
# Velocity S-wave (km/s) = 1.45158 3.59504 2.74148
# Velocity P-wave (km/s) = 1.92861 6.89293 5.06122
#
# Compressibility (1/GPa) = 0.58455521
#
# Stress axis : x y z
#
# Youngs Moduli (GPa) = 1.50974 89.15820 98.01915
#
# Poissons Ratio (x) = 3.33897 0.70238
# Poissons Ratio (y) = 0.05654 0.48991
# Poissons Ratio (z) = 0.01082 0.44562
#
# Static dielectric constant tensor:
#      x y z
#    x 2.542640 0.000000 0.000000 
#    y 0.000000 3.825530 0.000000 
#    z 0.000000 0.000000 3.754270 
# 
# 
# High freq. dielectric constant tensor:
#      x y z
#    x 1.626330 0.000000 0.000000 
#    y 0.000000 1.747770 0.000000 
#    z 0.000000 0.000000 1.748430 
# 
# From -- ./inp_files/51964.got.cif
#   From: 2010.03.12/outbox.cif.g09.slc.cpg/sg65_26_cif.got.tgz:51964.got - 2010.04.10 20:52:16.
