data_PCOD8270843
_publ_section_title
;
Structure prediction by ZEFSAII (Michael W. Deem and Ramdas Pophale) SiO2 
 PCOD8270843
Probable space group: C M M M
;
_chemical_formula_sum "Si O2"
_cell_formula_units_Z 88
_cell_length_a 20.384595
_cell_length_b 24.416943
_cell_length_c 9.108097
_cell_angle_alpha 90.000000
_cell_angle_beta 90.000000
_cell_angle_gamma 90.000000
_cell_volume 4533.368513
_symmetry_space_group_name_H-M "C M M M"
_symmetry_group_IT_number 65
_symmetry_cell_setting 'orthorhombic'
loop_
_space_group_symop_operation_xyz
x,y,z
-x,-y,z
x,-y,-z
-x,y,-z
-x,-y,-z
x,y,-z
-x,y,z
x,-y,z
1/2+x,1/2+y,z
1/2-x,1/2-y,z
1/2+x,1/2-y,-z
1/2-x,1/2+y,-z
1/2-x,1/2-y,-z
1/2+x,1/2+y,-z
1/2-x,1/2+y,z
1/2+x,1/2-y,z
loop_
_atom_site_type_symbol
_atom_site_label
_atom_site_fract_x
_atom_site_fract_y
_atom_site_fract_z
Si Si1 0.928991 0.827827 0.674381
Si Si2 0.874582 0.367004 0.172398
Si Si3 0.174871 0.259422 0.674633
Si Si4 0.500000 0.936744 0.825594
Si Si5 0.620600 0.440298 0.326514
Si Si6 0.248958 0.438034 0.163753
O O1 0.926197 0.827785 0.500000
O O2 0.868214 0.791991 0.731947
O O3 0.923908 0.890603 0.732461
O O4 0.000000 0.805089 0.728278
O O5 0.863644 0.310616 0.257747
O O6 0.937086 0.401858 0.229493
O O7 0.811547 0.401999 0.212267
O O8 0.881469 0.354522 0.000000
O O9 0.174398 0.265811 0.500000
O O10 0.250000 0.250000 0.730493
O O11 0.500000 0.000000 0.764199
O O12 0.500000 0.940485 0.000000
O O13 0.618529 0.442664 0.500000
O O14 0.597872 0.500000 0.263009
O O15 0.694369 0.427080 0.279766
O O16 0.223936 0.500000 0.168218
O O17 0.273853 0.422895 0.000000
#
# Coordination Sequence:
#
# PCOD8270843 Si02
#       6
#    16  16  16   8  16  16
#     4   9  18  32  50  72 100 133 167 202 247 305
#     4  10  20  33  53  78 103 134 175 220 262 307
#     4  10  21  36  54  75 102 139 178 215 261 316
#     4   9  18  34  55  79 109 143 178 219 272 332
#     4   9  17  30  51  77 100 124 161 209 253 292
#     4   9  17  30  49  73 101 132 165 202 250 307
#
# _framework density 19.411614
#
# number of rings (size 3 to 8) (size 9 to 14) (size 15 to 20)
#    0.000    2.636    0.000    1.636    1.273    5.091 
#    0.000    2.727    0.000    3.818    0.000    2.545 
#    0.000    0.000    0.000    0.000    0.000    0.000 
#
# Total GULP energy -545204.544816 kJ/mol
# GULP energy per Si atom -12391.012382 kJ/mol
# Density = 1.936743 g / cm^3
# Si number density = 19.411614 Si / 1000 Ang^3
#
#
#
# Elastic Constant Matrix: (Units=GPa)
#
#
# Indices 1 2 3 4 5 6 
#
# 1 123.8893 83.5354 7.2723 0.0000 0.0000 0.0000
# 2 83.5354 140.8817 21.2947 0.0000 0.0000 0.0000
# 3 7.2723 21.2947 7.1006 0.0000 0.0000 0.0000
# 4 0.0000 0.0000 0.0000 27.2916 0.0000 0.0000
# 5 0.0000 0.0000 0.0000 0.0000 15.8275 0.0000
# 6 0.0000 0.0000 0.0000 0.0000 0.0000 36.6304
#
#
#
# Elastic Compliance Matrix: (Units=1/GPa)
#
#
# Indices 1 2 3 4 5 6 
#
# 1 0.014932 -0.011967 0.020596 0.000000 0.000000 0.000000
# 2 -0.011967 0.022575 -0.055445 0.000000 0.000000 0.000000
# 3 0.020596 -0.055445 0.286021 0.000000 0.000000 0.000000
# 4 0.000000 0.000000 0.000000 0.036641 0.000000 0.000000
# 5 0.000000 0.000000 0.000000 0.000000 0.063181 0.000000
# 6 0.000000 0.000000 0.000000 0.000000 0.000000 0.027300
#
#
# Mechanical properties :
#
#
# Convention : Reuss Voigt Hill
#
# Bulk Modulus (GPa) = 4.34982 55.11960 29.73471
# Shear Modulus (GPa) = 8.05266 26.60117 17.32691
#
# Velocity S-wave (km/s) = 2.03896 3.70587 2.99089
# Velocity P-wave (km/s) = 2.79085 6.83872 5.22288
#
# Compressibility (1/GPa) = 0.22989459
#
# Stress axis : x y z
#
# Youngs Moduli (GPa) = 66.97177 44.29761 3.49625
#
# Poissons Ratio (x) = 0.53010 -0.07201
# Poissons Ratio (y) = 0.80144 0.19385
# Poissons Ratio (z) = -1.37934 2.45609
#
# Static dielectric constant tensor:
#      x y z
#    x 3.715940 0.000000 0.000000 
#    y 0.000000 4.030420 0.000000 
#    z 0.000000 0.000000 3.134640 
# 
# 
# High freq. dielectric constant tensor:
#      x y z
#    x 1.761260 0.000000 0.000000 
#    y 0.000000 1.772050 0.000000 
#    z 0.000000 0.000000 1.708390 
# 
# From -- ./inp_files/11748.got.cif
#   From: 2010.03.12/outbox.cif.g09.slc.cpg/sg65_6_cif.got.tgz:11748.got - 2010.04.10 20:52:16.
