data_PCOD8270281
_publ_section_title
;
Structure prediction by ZEFSAII (Michael W. Deem and Ramdas Pophale) SiO2 
 PCOD8270281
Probable space group: C M M M
;
_chemical_formula_sum "Si O2"
_cell_formula_units_Z 112
_cell_length_a 15.656091
_cell_length_b 25.313730
_cell_length_c 14.982998
_cell_angle_alpha 90.000000
_cell_angle_beta 90.000000
_cell_angle_gamma 90.000000
_cell_volume 5937.972775
_symmetry_space_group_name_H-M "C M M M"
_symmetry_group_IT_number 65
_symmetry_cell_setting 'orthorhombic'
loop_
_space_group_symop_operation_xyz
x,y,z
-x,-y,z
x,-y,-z
-x,y,-z
-x,-y,-z
x,y,-z
-x,y,z
x,-y,z
1/2+x,1/2+y,z
1/2-x,1/2-y,z
1/2+x,1/2-y,-z
1/2-x,1/2+y,-z
1/2-x,1/2-y,-z
1/2+x,1/2+y,-z
1/2-x,1/2+y,z
1/2+x,1/2-y,z
loop_
_atom_site_type_symbol
_atom_site_label
_atom_site_fract_x
_atom_site_fract_y
_atom_site_fract_z
Si Si1 0.400721 0.858873 0.899861
Si Si2 0.404226 0.332887 0.761626
Si Si3 0.401384 0.940066 0.248020
Si Si4 0.231568 0.413979 0.399770
Si Si5 0.652240 0.745061 0.903908
Si Si6 0.596504 0.558423 0.308999
Si Si7 0.297656 0.697869 0.399084
O O1 0.500000 0.870027 0.907131
O O2 0.363877 0.901647 0.829438
O O3 0.384103 0.799685 0.862383
O O4 0.360025 0.865292 0.000000
O O5 0.500000 0.315238 0.776974
O O6 0.353009 0.305180 0.839885
O O7 0.390922 0.396478 0.766753
O O8 0.377995 0.312257 0.664126
O O9 0.500000 0.925623 0.273324
O O10 0.340815 0.936052 0.334382
O O11 0.396715 0.000000 0.212101
O O12 0.207845 0.431975 0.500000
O O13 0.327688 0.435577 0.381024
O O14 0.231224 0.350513 0.392181
O O15 0.750000 0.750000 0.923764
O O16 0.606086 0.734578 0.000000
O O17 0.500000 0.565705 0.351121
O O18 0.603312 0.500000 0.265404
O O19 0.331849 0.704842 0.500000
O O20 0.250000 0.750000 0.365121
#
# Coordination Sequence:
#
# PCOD8270281 Si02
#       7
#    16  16  16  16  16  16  16
#     4   9  19  36  57  80 106 137 176 224 273 319
#     4  10  20  32  53  80 105 140 175 215 271 319
#     4  10  22  37  54  80 111 144 183 225 269 321
#     4  10  21  36  55  79 109 147 186 223 268 319
#     4  10  21  35  54  81 110 139 175 219 265 321
#     4   9  19  35  54  79 108 139 182 229 271 318
#     4   9  19  35  53  75 105 140 178 219 264 318
#
# _framework density 18.861656
#
# number of rings (size 3 to 8) (size 9 to 14) (size 15 to 20)
#    0.000    2.429    0.000    1.286    6.000    3.143 
#    0.000    5.714    0.000    3.000    0.000    2.000 
#    0.000    0.000    0.000    0.000    0.000    0.143 
#
# Total GULP energy -693929.715513 kJ/mol
# GULP energy per Si atom -12391.602063 kJ/mol
# Density = 1.881873 g / cm^3
# Si number density = 18.861656 Si / 1000 Ang^3
#
#
#
# Elastic Constant Matrix: (Units=GPa)
#
#
# Indices 1 2 3 4 5 6 
#
# 1 67.5943 28.3601 37.1137 0.0000 0.0000 0.0000
# 2 28.3601 142.1882 58.6978 0.0000 0.0000 0.0000
# 3 37.1137 58.6978 104.5624 0.0000 0.0000 0.0000
# 4 0.0000 0.0000 0.0000 17.0523 0.0000 0.0000
# 5 0.0000 0.0000 0.0000 0.0000 -40.3498 0.0000
# 6 0.0000 0.0000 0.0000 0.0000 0.0000 22.0804
#
#
#
# Elastic Compliance Matrix: (Units=1/GPa)
#
#
# Indices 1 2 3 4 5 6 
#
# 1 0.018552 -0.001278 -0.005867 0.000000 0.000000 0.000000
# 2 -0.001278 0.009242 -0.004735 0.000000 0.000000 0.000000
# 3 -0.005867 -0.004735 0.014304 0.000000 0.000000 0.000000
# 4 0.000000 0.000000 0.000000 0.058643 0.000000 0.000000
# 5 0.000000 0.000000 0.000000 0.000000 -0.024783 0.000000
# 6 0.000000 0.000000 0.000000 0.000000 0.000000 0.045289
#
#
# Mechanical properties :
#
#
# Convention : Reuss Voigt Hill
#
# Bulk Modulus (GPa) = 54.53126 62.52088 58.52607
# Shear Modulus (GPa) = 33.08615 12.43481 22.76048
#
# Velocity S-wave (km/s) = 4.19280 2.57040 3.47754
# Velocity P-wave (km/s) = 7.23971 6.48292 6.87174
#
# Compressibility (1/GPa) = 0.01833810
#
# Stress axis : x y z
#
# Youngs Moduli (GPa) = 53.90259 108.19654 69.90968
#
# Poissons Ratio (x) = 0.13829 0.41019
# Poissons Ratio (y) = 0.06889 0.33100
# Poissons Ratio (z) = 0.31627 0.51228
#
# Static dielectric constant tensor:
#      x y z
#    x 3.387890 0.000000 0.000000 
#    y 0.000000 3.799630 0.000000 
#    z 0.000000 0.000000 3.444130 
# 
# 
# High freq. dielectric constant tensor:
#      x y z
#    x 1.723650 0.000000 0.000000 
#    y 0.000000 1.746330 0.000000 
#    z 0.000000 0.000000 1.712900 
# 
# From -- ./inp_files/40830.got.cif
#   From: 2010.03.12/outbox.cif.g09.slc.cpg/sg65_21_cif.got.tgz:40830.got - 2010.04.10 20:52:16.
