data_PCOD8270716
_publ_section_title
;
Structure prediction by ZEFSAII (Michael W. Deem and Ramdas Pophale) SiO2 
 PCOD8270716
Probable space group: C M M M
;
_chemical_formula_sum "Si O2"
_cell_formula_units_Z 72
_cell_length_a 17.896602
_cell_length_b 8.809224
_cell_length_c 23.024843
_cell_angle_alpha 90.000000
_cell_angle_beta 90.000000
_cell_angle_gamma 90.000000
_cell_volume 3629.985672
_symmetry_space_group_name_H-M "C M M M"
_symmetry_group_IT_number 65
_symmetry_cell_setting 'orthorhombic'
loop_
_space_group_symop_operation_xyz
x,y,z
-x,-y,z
x,-y,-z
-x,y,-z
-x,-y,-z
x,y,-z
-x,y,z
x,-y,z
1/2+x,1/2+y,z
1/2-x,1/2-y,z
1/2+x,1/2-y,-z
1/2-x,1/2+y,-z
1/2-x,1/2-y,-z
1/2+x,1/2+y,-z
1/2-x,1/2+y,z
1/2+x,1/2-y,z
loop_
_atom_site_type_symbol
_atom_site_label
_atom_site_fract_x
_atom_site_fract_y
_atom_site_fract_z
Si Si1 0.416243 0.819599 0.064182
Si Si2 0.588376 0.827662 0.500000
Si Si3 0.671693 0.823365 0.826668
Si Si4 0.669123 0.320845 0.393646
Si Si5 0.913693 0.675974 0.289219
O O1 0.500000 0.756154 0.073980
O O2 0.361431 0.752673 0.113539
O O3 0.418756 0.000000 0.069409
O O4 0.387334 0.770832 0.000000
O O5 0.500000 0.826305 0.500000
O O6 0.615179 0.741676 0.556976
O O7 0.618974 0.000000 0.500000
O O8 0.750000 0.750000 0.810315
O O9 0.612317 0.790632 0.776110
O O10 0.686185 0.000000 0.834369
O O11 0.675787 0.500000 0.399078
O O12 0.750000 0.250000 0.401936
O O13 0.635538 0.278497 0.331414
O O14 0.901712 0.500000 0.305771
O O15 0.000000 0.722346 0.294682
#
# Coordination Sequence:
#
# PCOD8270716 Si02
#       5
#    16   8  16  16  16
#     4   8  14  27  49  75 101 133 178 228 273 322
#     4  11  24  43  66  91 121 155 190 229 276 329
#     4  10  20  33  51  77 108 142 180 224 275 330
#     4  12  25  41  62  88 119 152 189 232 278 329
#     4  10  21  38  59  82 110 145 186 232 282 335
#
# _framework density 19.834789000000001
#
# number of rings (size 3 to 8) (size 9 to 14) (size 15 to 20)
#    0.000    1.889    0.000    5.333    0.000    9.778 
#    0.000    0.000    0.000    2.000    0.000    1.556 
#    0.000    0.000    0.000    0.000    0.000    0.000 
#
# Total GULP energy -446467.798910 kJ/mol
# GULP energy per Si atom -12401.883303 kJ/mol
# Density = 1.978964 g / cm^3
# Si number density = 19.834789 Si / 1000 Ang^3
#
#
#
# Elastic Constant Matrix: (Units=GPa)
#
#
# Indices 1 2 3 4 5 6 
#
# 1 89.3483 37.1881 29.1323 0.0000 0.0000 0.0000
# 2 37.1881 91.9561 44.1864 0.0000 0.0000 0.0000
# 3 29.1323 44.1864 111.0318 0.0000 0.0000 0.0000
# 4 0.0000 0.0000 0.0000 -113.0250 0.0000 0.0000
# 5 0.0000 0.0000 0.0000 0.0000 25.5140 0.0000
# 6 0.0000 0.0000 0.0000 0.0000 0.0000 26.5661
#
#
#
# Elastic Compliance Matrix: (Units=1/GPa)
#
#
# Indices 1 2 3 4 5 6 
#
# 1 0.013718 -0.004721 -0.001721 0.000000 0.000000 0.000000
# 2 -0.004721 0.015071 -0.004759 0.000000 0.000000 0.000000
# 3 -0.001721 -0.004759 0.011352 0.000000 0.000000 0.000000
# 4 0.000000 0.000000 0.000000 -0.008848 0.000000 0.000000
# 5 0.000000 0.000000 0.000000 0.000000 0.039194 0.000000
# 6 0.000000 0.000000 0.000000 0.000000 0.000000 0.037642
#
#
# Mechanical properties :
#
#
# Convention : Reuss Voigt Hill
#
# Bulk Modulus (GPa) = 56.37086 57.03885 56.70485
# Shear Modulus (GPa) = 36.64533 -0.06701 18.28916
#
# Velocity S-wave (km/s) = 4.30295 -0.18400 3.03986
# Velocity P-wave (km/s) = 7.29171 5.36416 6.40091
#
# Compressibility (1/GPa) = 0.01773966
#
# Stress axis : x y z
#
# Youngs Moduli (GPa) = 72.89646 66.35394 88.09248
#
# Poissons Ratio (x) = 0.31326 0.15157
# Poissons Ratio (y) = 0.34414 0.41922
# Poissons Ratio (z) = 0.12542 0.31577
#
# Static dielectric constant tensor:
#      x y z
#    x 3.693820 0.000000 0.000000 
#    y 0.000000 3.386610 0.000000 
#    z 0.000000 0.000000 3.909210 
# 
# 
# High freq. dielectric constant tensor:
#      x y z
#    x 1.782070 0.000000 0.000000 
#    y 0.000000 1.744110 0.000000 
#    z 0.000000 0.000000 1.792740 
# 
# From -- ./inp_files/67038.got.cif
#   From: 2010.03.12/outbox.cif.g09.slc.cpg/sg65_34_cif.got.tgz:67038.got - 2010.04.10 20:52:16.
