data_PCOD8270873
_publ_section_title
;
Structure prediction by ZEFSAII (Michael W. Deem and Ramdas Pophale) SiO2 
 PCOD8270873
Probable space group: C M M M
;
_chemical_formula_sum "Si O2"
_cell_formula_units_Z 104
_cell_length_a 9.204394
_cell_length_b 20.076816
_cell_length_c 29.357701
_cell_angle_alpha 90.000000
_cell_angle_beta 90.000000
_cell_angle_gamma 90.000000
_cell_volume 5425.154147
_symmetry_space_group_name_H-M "C M M M"
_symmetry_group_IT_number 65
_symmetry_cell_setting 'orthorhombic'
loop_
_space_group_symop_operation_xyz
x,y,z
-x,-y,z
x,-y,-z
-x,y,-z
-x,-y,-z
x,y,-z
-x,y,z
x,-y,z
1/2+x,1/2+y,z
1/2-x,1/2-y,z
1/2+x,1/2-y,-z
1/2-x,1/2+y,-z
1/2-x,1/2-y,-z
1/2+x,1/2+y,-z
1/2-x,1/2+y,z
1/2+x,1/2-y,z
loop_
_atom_site_type_symbol
_atom_site_label
_atom_site_fract_x
_atom_site_fract_y
_atom_site_fract_z
Si Si1 0.159817 0.500000 0.946126
Si Si2 0.169238 0.078309 0.612512
Si Si3 0.332089 0.183619 0.446227
Si Si4 0.834952 0.873230 0.949257
Si Si5 0.660174 0.921208 0.699932
Si Si6 0.830241 0.577173 0.801564
Si Si7 0.666581 0.685724 0.143329
O O1 0.241140 0.434164 0.929967
O O2 0.000000 0.500000 0.923739
O O3 0.150969 0.500000 0.000000
O O4 0.257693 0.118301 0.574608
O O5 0.223805 0.102245 0.662305
O O6 0.000000 0.095217 0.608403
O O7 0.199211 0.000000 0.604856
O O8 0.316828 0.176455 0.500000
O O9 0.500000 0.187803 0.431151
O O10 0.250000 0.250000 0.428892
O O11 0.818594 0.815154 0.911914
O O12 0.000000 0.898433 0.951896
O O13 0.784301 0.849118 0.000000
O O14 0.500000 0.892044 0.687946
O O15 0.708868 0.898243 0.750292
O O16 0.648701 0.000000 0.700799
O O17 0.789377 0.500000 0.808777
O O18 0.734184 0.619145 0.836142
O O19 0.000000 0.588941 0.811177
O O20 0.500000 0.690881 0.158509
O O21 0.750000 0.750000 0.162228
#
# Coordination Sequence:
#
# PCOD8270873 Si02
#       7
#     8  16  16  16  16  16  16
#     4   9  17  29  49  79 107 131 165 211 257 299
#     4  10  20  33  53  83 116 147 181 226 277 325
#     4  10  21  37  56  77 106 147 192 236 281 330
#     4   9  19  36  55  75 104 141 177 215 263 318
#     4   8  15  31  55  81 109 141 178 220 270 325
#     4   9  19  37  61  86 111 142 178 220 270 323
#     4  11  24  39  56  79 109 144 181 222 270 321
#
# _framework density 19.169962000000002
#
# number of rings (size 3 to 8) (size 9 to 14) (size 15 to 20)
#    0.000    2.538    0.000    2.538    1.077    5.538 
#    0.000    3.846    0.000    3.692    0.000    0.000 
#    0.000    0.000    0.000    0.000    0.000    0.000 
#
# Total GULP energy -644654.143370 kJ/mol
# GULP energy per Si atom -12397.195065 kJ/mol
# Density = 1.912633 g / cm^3
# Si number density = 19.169962 Si / 1000 Ang^3
#
#
#
# Elastic Constant Matrix: (Units=GPa)
#
#
# Indices 1 2 3 4 5 6 
#
# 1 131.9017 61.1844 52.0149 0.0000 0.0000 0.0000
# 2 61.1844 81.4213 37.7871 0.0000 0.0000 0.0000
# 3 52.0149 37.7871 73.9209 0.0000 0.0000 0.0000
# 4 0.0000 0.0000 0.0000 14.0873 0.0000 0.0000
# 5 0.0000 0.0000 0.0000 0.0000 29.2752 0.0000
# 6 0.0000 0.0000 0.0000 0.0000 0.0000 29.6482
#
#
#
# Elastic Compliance Matrix: (Units=1/GPa)
#
#
# Indices 1 2 3 4 5 6 
#
# 1 0.013153 -0.007327 -0.005510 0.000000 0.000000 0.000000
# 2 -0.007327 0.020183 -0.005162 0.000000 0.000000 0.000000
# 3 -0.005510 -0.005162 0.020044 0.000000 0.000000 0.000000
# 4 0.000000 0.000000 0.000000 0.070986 0.000000 0.000000
# 5 0.000000 0.000000 0.000000 0.000000 0.034159 0.000000
# 6 0.000000 0.000000 0.000000 0.000000 0.000000 0.033729
#
#
# Mechanical properties :
#
#
# Convention : Reuss Voigt Hill
#
# Bulk Modulus (GPa) = 57.52760 65.46852 61.49806
# Shear Modulus (GPa) = 21.36357 23.68596 22.52477
#
# Velocity S-wave (km/s) = 3.34193 3.51889 3.43155
# Velocity P-wave (km/s) = 6.70565 7.12291 6.91743
#
# Compressibility (1/GPa) = 0.01738296
#
# Stress axis : x y z
#
# Youngs Moduli (GPa) = 76.02996 49.54669 49.89137
#
# Poissons Ratio (x) = 0.36301 0.27489
# Poissons Ratio (y) = 0.55704 0.25753
# Poissons Ratio (z) = 0.41890 0.25575
#
# Static dielectric constant tensor:
#      x y z
#    x 3.651670 0.000000 0.000000 
#    y 0.000000 3.204350 0.000000 
#    z 0.000000 0.000000 3.606160 
# 
# 
# High freq. dielectric constant tensor:
#      x y z
#    x 1.751910 0.000000 0.000000 
#    y 0.000000 1.719440 0.000000 
#    z 0.000000 0.000000 1.745290 
# 
# From -- ./inp_files/76865.got.cif
#   From: 2010.03.12/outbox.cif.g09.slc.cpg/sg65_39_cif.got.tgz:76865.got - 2010.04.10 20:52:16.
