data_PCOD8270103
_publ_section_title
;
Structure prediction by ZEFSAII (Michael W. Deem and Ramdas Pophale) SiO2 
 PCOD8270103
Probable space group: C M M M
;
_chemical_formula_sum "Si O2"
_cell_formula_units_Z 88
_cell_length_a 8.037563
_cell_length_b 29.797365
_cell_length_c 19.355267
_cell_angle_alpha 90.000000
_cell_angle_beta 90.000000
_cell_angle_gamma 90.000000
_cell_volume 4635.551576
_symmetry_space_group_name_H-M "C M M M"
_symmetry_group_IT_number 65
_symmetry_cell_setting 'orthorhombic'
loop_
_space_group_symop_operation_xyz
x,y,z
-x,-y,z
x,-y,-z
-x,y,-z
-x,-y,-z
x,y,-z
-x,y,z
x,-y,z
1/2+x,1/2+y,z
1/2-x,1/2-y,z
1/2+x,1/2-y,-z
1/2-x,1/2+y,-z
1/2-x,1/2-y,-z
1/2+x,1/2+y,-z
1/2-x,1/2+y,z
1/2+x,1/2-y,z
loop_
_atom_site_type_symbol
_atom_site_label
_atom_site_fract_x
_atom_site_fract_y
_atom_site_fract_z
Si Si1 0.810506 0.112571 0.418685
Si Si2 0.000000 0.448344 0.582108
Si Si3 0.687008 0.359922 0.921652
Si Si4 0.314700 0.951963 0.081510
Si Si5 0.687315 0.203905 0.190219
Si Si6 0.197295 0.299712 0.342864
O O1 0.789947 0.117468 0.500000
O O2 0.668573 0.077386 0.391406
O O3 0.784050 0.162010 0.387843
O O4 0.000000 0.096067 0.400370
O O5 0.000000 0.500000 0.610253
O O6 0.000000 0.449412 0.500000
O O7 0.500000 0.342037 0.917324
O O8 0.691447 0.411894 0.897873
O O9 0.797763 0.333775 0.867534
O O10 0.756675 0.354045 0.000000
O O11 0.500000 0.941528 0.109917
O O12 0.251220 0.000000 0.111697
O O13 0.321962 0.955918 0.000000
O O14 0.500000 0.210951 0.210557
O O15 0.750000 0.250000 0.156533
O O16 0.770629 0.193296 0.264465
O O17 0.250000 0.250000 0.369046
O O18 0.000000 0.305651 0.349259
#
# Coordination Sequence:
#
# PCOD8270103 Si02
#       6
#    16   8  16  16  16  16
#     4  10  20  34  55  85 118 151 189 231 277 328
#     4   9  18  34  56  82 116 154 191 237 282 324
#     4  10  20  32  48  72 100 130 166 211 263 314
#     4   8  14  26  45  68  93 121 154 194 243 301
#     4  10  21  36  54  74  98 132 174 215 260 316
#     4  10  20  35  55  79 108 143 182 225 276 334
#
# _framework density 18.983718
#
# number of rings (size 3 to 8) (size 9 to 14) (size 15 to 20)
#    0.000    2.455    0.909    2.182    0.000    4.727 
#    0.000    3.636    0.000    1.091    0.000    2.545 
#    0.000    0.000    0.000    0.000    0.000    0.000 
#
# Total GULP energy -545124.948252 kJ/mol
# GULP energy per Si atom -12389.203369 kJ/mol
# Density = 1.894051 g / cm^3
# Si number density = 18.983718 Si / 1000 Ang^3
#
#
#
# Elastic Constant Matrix: (Units=GPa)
#
#
# Indices 1 2 3 4 5 6 
#
# 1 93.3922 45.4816 25.1537 0.0000 0.0000 0.0000
# 2 45.4816 131.7529 36.9509 0.0000 0.0000 0.0000
# 3 25.1537 36.9509 37.9240 0.0000 0.0000 0.0000
# 4 0.0000 0.0000 0.0000 -2.9347 0.0000 0.0000
# 5 0.0000 0.0000 0.0000 0.0000 18.0191 0.0000
# 6 0.0000 0.0000 0.0000 0.0000 0.0000 32.1339
#
#
#
# Elastic Compliance Matrix: (Units=1/GPa)
#
#
# Indices 1 2 3 4 5 6 
#
# 1 0.013867 -0.003037 -0.006238 0.000000 0.000000 0.000000
# 2 -0.003037 0.011109 -0.008809 0.000000 0.000000 0.000000
# 3 -0.006238 -0.008809 0.039089 0.000000 0.000000 0.000000
# 4 0.000000 0.000000 0.000000 -0.340755 0.000000 0.000000
# 5 0.000000 0.000000 0.000000 0.000000 0.055497 0.000000
# 6 0.000000 0.000000 0.000000 0.000000 0.000000 0.031120
#
#
# Mechanical properties :
#
#
# Convention : Reuss Voigt Hill
#
# Bulk Modulus (GPa) = 35.84783 53.13794 44.49288
# Shear Modulus (GPa) = -34.57682 19.80921 -7.38381
#
# Velocity S-wave (km/s) = -4.27241 3.23381 -1.97433
# Velocity P-wave (km/s) = 2.32670 6.48039 4.27679
#
# Compressibility (1/GPa) = 0.02789569
#
# Stress axis : x y z
#
# Youngs Moduli (GPa) = 72.11459 90.01575 25.58246
#
# Poissons Ratio (x) = 0.27342 0.15958
# Poissons Ratio (y) = 0.21904 0.22537
# Poissons Ratio (z) = 0.44984 0.79299
#
# Static dielectric constant tensor:
#      x y z
#    x 3.612300 0.000000 0.000000 
#    y 0.000000 3.816420 0.000000 
#    z 0.000000 0.000000 3.109320 
# 
# 
# High freq. dielectric constant tensor:
#      x y z
#    x 1.742900 0.000000 0.000000 
#    y 0.000000 1.741700 0.000000 
#    z 0.000000 0.000000 1.695530 
# 
# From -- ./inp_files/50413.got.cif
#   From: 2010.03.12/outbox.cif.g09.slc.cpg/sg65_26_cif.got.tgz:50413.got - 2010.04.10 20:52:16.
