data_PCOD8270338
_publ_section_title
;
Structure prediction by ZEFSAII (Michael W. Deem and Ramdas Pophale) SiO2 
 PCOD8270338
Probable space group: C M M M
;
_chemical_formula_sum "Si O2"
_cell_formula_units_Z 88
_cell_length_a 27.559023
_cell_length_b 20.707384
_cell_length_c 8.281627
_cell_angle_alpha 90.000000
_cell_angle_beta 90.000000
_cell_angle_gamma 90.000000
_cell_volume 4726.119740
_symmetry_space_group_name_H-M "C M M M"
_symmetry_group_IT_number 65
_symmetry_cell_setting 'orthorhombic'
loop_
_space_group_symop_operation_xyz
x,y,z
-x,-y,z
x,-y,-z
-x,y,-z
-x,-y,-z
x,y,-z
-x,y,z
x,-y,z
1/2+x,1/2+y,z
1/2-x,1/2-y,z
1/2+x,1/2-y,-z
1/2-x,1/2+y,-z
1/2-x,1/2-y,-z
1/2+x,1/2+y,-z
1/2-x,1/2+y,z
1/2+x,1/2-y,z
loop_
_atom_site_type_symbol
_atom_site_label
_atom_site_fract_x
_atom_site_fract_y
_atom_site_fract_z
Si Si1 0.790272 0.364378 0.310817
Si Si2 0.209171 0.500000 0.815383
Si Si3 0.182003 0.868468 0.684119
Si Si4 0.442571 0.928057 0.500000
Si Si5 0.859607 0.255798 0.818729
Si Si6 0.556399 0.848380 0.184238
Si Si7 0.324348 0.500000 0.179964
O O1 0.793787 0.349895 0.500000
O O2 0.810964 0.435968 0.272873
O O3 0.735544 0.357224 0.238927
O O4 0.822310 0.312534 0.219223
O O5 0.266838 0.500000 0.799754
O O6 0.191653 0.500000 0.000000
O O7 0.192754 0.880297 0.500000
O O8 0.147664 0.806857 0.708205
O O9 0.155339 0.933528 0.744882
O O10 0.500000 0.930781 0.500000
O O11 0.425467 0.894553 0.668655
O O12 0.420532 0.000000 0.500000
O O13 0.914241 0.281759 0.795571
O O14 0.850480 0.232316 0.000000
O O15 0.500000 0.832022 0.206530
O O16 0.565500 0.876800 0.000000
O O17 0.343001 0.500000 0.000000
#
# Coordination Sequence:
#
# PCOD8270338 Si02
#       7
#    16   8  16   8  16  16   8
#     4  10  20  33  48  70 101 136 171 210 253 299
#     4   9  17  31  49  67  94 133 174 211 249 296
#     4  10  20  33  51  74 103 135 168 207 252 301
#     4   9  18  34  58  82 101 131 175 219 268 318
#     4  11  22  34  51  75 100 132 171 212 256 305
#     4   9  20  38  56  77 106 136 172 219 265 312
#     4   9  17  31  51  73  98 131 168 207 247 296
#
# _framework density 18.619924999999999
#
# number of rings (size 3 to 8) (size 9 to 14) (size 15 to 20)
#    0.000    2.273    0.000    2.727    2.545    6.909 
#    1.636    1.818    0.000    0.000    0.000    0.636 
#    0.000    5.091    0.000    0.000    0.000    0.000 
#
# Total GULP energy -545357.676546 kJ/mol
# GULP energy per Si atom -12394.492649 kJ/mol
# Density = 1.857755 g / cm^3
# Si number density = 18.619925 Si / 1000 Ang^3
#
#
#
# Elastic Constant Matrix: (Units=GPa)
#
#
# Indices 1 2 3 4 5 6 
#
# 1 43.1539 36.4844 25.2485 0.0000 0.0000 0.0000
# 2 36.4844 134.6049 30.4654 0.0000 0.0000 0.0000
# 3 25.2485 30.4654 79.1323 0.0000 0.0000 0.0000
# 4 0.0000 0.0000 0.0000 25.1551 0.0000 0.0000
# 5 0.0000 0.0000 0.0000 0.0000 18.7273 0.0000
# 6 0.0000 0.0000 0.0000 0.0000 0.0000 11.4367
#
#
#
# Elastic Compliance Matrix: (Units=1/GPa)
#
#
# Indices 1 2 3 4 5 6 
#
# 1 0.034166 -0.007442 -0.008036 0.000000 0.000000 0.000000
# 2 -0.007442 0.009759 -0.001383 0.000000 0.000000 0.000000
# 3 -0.008036 -0.001383 0.015734 0.000000 0.000000 0.000000
# 4 0.000000 0.000000 0.000000 0.039753 0.000000 0.000000
# 5 0.000000 0.000000 0.000000 0.000000 0.053398 0.000000
# 6 0.000000 0.000000 0.000000 0.000000 0.000000 0.087438
#
#
# Mechanical properties :
#
#
# Convention : Reuss Voigt Hill
#
# Bulk Modulus (GPa) = 38.55453 49.03198 43.79326
# Shear Modulus (GPa) = 17.69183 22.04333 19.86758
#
# Velocity S-wave (km/s) = 3.08580 3.44446 3.27005
# Velocity P-wave (km/s) = 5.78336 6.49687 6.15047
#
# Compressibility (1/GPa) = 0.02593729
#
# Stress axis : x y z
#
# Youngs Moduli (GPa) = 29.26847 102.46719 63.55847
#
# Poissons Ratio (x) = 0.76255 0.51078
# Poissons Ratio (y) = 0.21781 0.08789
# Poissons Ratio (z) = 0.23521 0.14169
#
# Static dielectric constant tensor:
#      x y z
#    x 3.110430 0.000000 0.000000 
#    y 0.000000 3.519020 0.000000 
#    z 0.000000 0.000000 3.620000 
# 
# 
# High freq. dielectric constant tensor:
#      x y z
#    x 1.678430 0.000000 0.000000 
#    y 0.000000 1.719520 0.000000 
#    z 0.000000 0.000000 1.739370 
# 
# From -- ./inp_files/18396.got.cif
#   From: 2010.03.12/outbox.cif.g09.slc.cpg/sg65_10_cif.got.tgz:18396.got - 2010.04.10 20:52:16.
