data_PCOD8270815
_publ_section_title
;
Structure prediction by ZEFSAII (Michael W. Deem and Ramdas Pophale) SiO2 
 PCOD8270815
Probable space group: C M M M
;
_chemical_formula_sum "Si O2"
_cell_formula_units_Z 80
_cell_length_a 16.797705
_cell_length_b 19.585598
_cell_length_c 13.193104
_cell_angle_alpha 90.000000
_cell_angle_beta 90.000000
_cell_angle_gamma 90.000000
_cell_volume 4340.440150
_symmetry_space_group_name_H-M "C M M M"
_symmetry_group_IT_number 65
_symmetry_cell_setting 'orthorhombic'
loop_
_space_group_symop_operation_xyz
x,y,z
-x,-y,z
x,-y,-z
-x,y,-z
-x,-y,-z
x,y,-z
-x,y,z
x,-y,z
1/2+x,1/2+y,z
1/2-x,1/2-y,z
1/2+x,1/2-y,-z
1/2-x,1/2+y,-z
1/2-x,1/2-y,-z
1/2+x,1/2+y,-z
1/2-x,1/2+y,z
1/2+x,1/2-y,z
loop_
_atom_site_type_symbol
_atom_site_label
_atom_site_fract_x
_atom_site_fract_y
_atom_site_fract_z
Si Si1 0.588995 0.183718 0.617879
Si Si2 0.500000 0.080718 0.111123
Si Si3 0.593673 0.338858 0.383432
Si Si4 0.170300 0.921707 0.203614
Si Si5 0.590648 0.418917 0.000000
Si Si6 0.349909 0.078015 0.759980
O O1 0.589186 0.170092 0.500000
O O2 0.500000 0.171818 0.661039
O O3 0.616863 0.260728 0.640824
O O4 0.649431 0.128851 0.664673
O O5 0.581002 0.104421 0.165363
O O6 0.500000 0.000000 0.102515
O O7 0.500000 0.114458 0.000000
O O8 0.616459 0.357121 0.500000
O O9 0.500000 0.350729 0.367096
O O10 0.642905 0.384848 0.306023
O O11 0.264742 0.915545 0.186560
O O12 0.143800 0.000000 0.216334
O O13 0.130980 0.889446 0.102402
O O14 0.599916 0.500000 0.000000
O O15 0.500000 0.394610 0.000000
O O16 0.365537 0.000000 0.724301
#
# Coordination Sequence:
#
# PCOD8270815 Si02
#       6
#    16   8  16  16   8  16
#     4   9  18  34  55  76 103 140 178 216 258 311
#     4   9  18  32  53  75 101 141 179 210 258 314
#     4   9  19  36  57  78 103 140 179 216 264 316
#     4  10  21  34  53  81 111 137 171 220 263 309
#     4   9  18  34  56  78 103 141 178 210 262 316
#     4  10  20  33  52  80 108 137 174 217 260 308
#
# _framework density 18.43131
#
# number of rings (size 3 to 8) (size 9 to 14) (size 15 to 20)
#    0.000    2.600    1.000    1.800    1.400    3.600 
#    0.000    6.000    2.200    1.200    0.000    0.000 
#    0.000    0.000    0.000    0.000    0.000    0.000 
#
# Total GULP energy -495886.307184 kJ/mol
# GULP energy per Si atom -12397.157680 kJ/mol
# Density = 1.838936 g / cm^3
# Si number density = 18.431310 Si / 1000 Ang^3
#
#
#
# Elastic Constant Matrix: (Units=GPa)
#
#
# Indices 1 2 3 4 5 6 
#
# 1 104.3498 39.7094 60.9308 0.0000 0.0000 0.0000
# 2 39.7094 65.5078 58.2480 0.0000 0.0000 0.0000
# 3 60.9308 58.2480 117.9351 0.0000 0.0000 0.0000
# 4 0.0000 0.0000 0.0000 6.4971 0.0000 0.0000
# 5 0.0000 0.0000 0.0000 0.0000 27.6302 0.0000
# 6 0.0000 0.0000 0.0000 0.0000 0.0000 21.9298
#
#
#
# Elastic Compliance Matrix: (Units=1/GPa)
#
#
# Indices 1 2 3 4 5 6 
#
# 1 0.014214 -0.003720 -0.005506 0.000000 0.000000 0.000000
# 2 -0.003720 0.028193 -0.012002 0.000000 0.000000 0.000000
# 3 -0.005506 -0.012002 0.017252 0.000000 0.000000 0.000000
# 4 0.000000 0.000000 0.000000 0.153914 0.000000 0.000000
# 5 0.000000 0.000000 0.000000 0.000000 0.036192 0.000000
# 6 0.000000 0.000000 0.000000 0.000000 0.000000 0.045600
#
#
# Mechanical properties :
#
#
# Convention : Reuss Voigt Hill
#
# Bulk Modulus (GPa) = 58.13573 67.28546 62.71059
# Shear Modulus (GPa) = 14.55369 19.80508 17.17938
#
# Velocity S-wave (km/s) = 2.81306 3.28157 3.05630
# Velocity P-wave (km/s) = 6.49318 7.13747 6.82294
#
# Compressibility (1/GPa) = 0.01720113
#
# Stress axis : x y z
#
# Youngs Moduli (GPa) = 70.35343 35.47031 57.96462
#
# Poissons Ratio (x) = 0.13196 0.31916
# Poissons Ratio (y) = 0.26173 0.69571
# Poissons Ratio (z) = 0.38738 0.42572
#
# Static dielectric constant tensor:
#      x y z
#    x 3.439900 0.000000 0.000000 
#    y 0.000000 3.201860 0.000000 
#    z 0.000000 0.000000 3.441470 
# 
# 
# High freq. dielectric constant tensor:
#      x y z
#    x 1.718210 0.000000 0.000000 
#    y 0.000000 1.689590 0.000000 
#    z 0.000000 0.000000 1.714320 
# 
# From -- ./inp_files/26712.got.cif
#   From: 2010.03.12/outbox.cif.g09.slc.cpg/sg65_14_cif.got.tgz:26712.got - 2010.04.10 20:52:16.
