data_PCOD8270980
_publ_section_title
;
Structure prediction by ZEFSAII (Michael W. Deem and Ramdas Pophale) SiO2 
 PCOD8270980
Probable space group: C M M M
;
_chemical_formula_sum "Si O2"
_cell_formula_units_Z 112
_cell_length_a 14.065677
_cell_length_b 17.745878
_cell_length_c 25.344073
_cell_angle_alpha 90.000000
_cell_angle_beta 90.000000
_cell_angle_gamma 90.000000
_cell_volume 6326.078001
_symmetry_space_group_name_H-M "C M M M"
_symmetry_group_IT_number 65
_symmetry_cell_setting 'orthorhombic'
loop_
_space_group_symop_operation_xyz
x,y,z
-x,-y,z
x,-y,-z
-x,y,-z
-x,-y,-z
x,y,-z
-x,y,z
x,-y,z
1/2+x,1/2+y,z
1/2-x,1/2-y,z
1/2+x,1/2-y,-z
1/2-x,1/2+y,-z
1/2-x,1/2-y,-z
1/2+x,1/2+y,-z
1/2-x,1/2+y,z
1/2+x,1/2-y,z
loop_
_atom_site_type_symbol
_atom_site_label
_atom_site_fract_x
_atom_site_fract_y
_atom_site_fract_z
Si Si1 0.220535 0.664295 0.350476
Si Si2 0.393998 0.413258 0.309417
Si Si3 0.605873 0.910628 0.941471
Si Si4 0.387925 0.156445 0.241665
Si Si5 0.107691 0.822360 0.797038
Si Si6 0.268662 0.912562 0.845466
Si Si7 0.611050 0.085578 0.440160
O O1 0.250000 0.750000 0.353091
O O2 0.316015 0.613858 0.351145
O O3 0.155074 0.648748 0.299809
O O4 0.163887 0.644234 0.402933
O O5 0.500000 0.398147 0.332229
O O6 0.379105 0.500000 0.295538
O O7 0.377524 0.367698 0.256372
O O8 0.500000 0.878510 0.929732
O O9 0.678797 0.880830 0.897641
O O10 0.601587 0.000000 0.938462
O O11 0.639165 0.884789 0.000000
O O12 0.500000 0.141918 0.245444
O O13 0.363444 0.236835 0.215504
O O14 0.339193 0.094203 0.204562
O O15 0.175805 0.859894 0.840407
O O16 0.000000 0.827801 0.818028
O O17 0.238720 0.000000 0.851117
O O18 0.645880 0.098638 0.500000
O O19 0.500000 0.101764 0.435847
O O20 0.633471 0.000000 0.422487
#
# Coordination Sequence:
#
# PCOD8270980 Si02
#       7
#    16  16  16  16  16  16  16
#     4  12  21  33  55  80 107 135 169 213 259 307
#     4  10  20  34  51  72 100 136 177 211 242 293
#     4   8  15  29  48  71 101 135 168 206 258 314
#     4  11  22  35  50  73 108 142 167 203 258 313
#     4  10  20  35  50  67  99 145 179 201 243 305
#     4  11  20  31  51  79 105 129 168 219 261 301
#     4   9  20  39  59  78 103 137 174 211 255 308
#
# _framework density 17.704491999999998
#
# number of rings (size 3 to 8) (size 9 to 14) (size 15 to 20)
#    0.000    1.857    2.857    3.000    0.000    3.143 
#    0.000    0.000    0.000    2.571    0.000    6.000 
#    0.000    0.000    0.000    0.000    0.000    0.000 
#
# Total GULP energy -694395.828768 kJ/mol
# GULP energy per Si atom -12399.925514 kJ/mol
# Density = 1.766420 g / cm^3
# Si number density = 17.704492 Si / 1000 Ang^3
#
#
#
# Elastic Constant Matrix: (Units=GPa)
#
#
# Indices 1 2 3 4 5 6 
#
# 1 95.6548 12.7546 43.9645 0.0000 0.0000 0.0000
# 2 12.7546 29.3446 10.7696 0.0000 0.0000 0.0000
# 3 43.9645 10.7696 97.5245 0.0000 0.0000 0.0000
# 4 0.0000 0.0000 0.0000 17.7651 0.0000 0.0000
# 5 0.0000 0.0000 0.0000 0.0000 34.3644 0.0000
# 6 0.0000 0.0000 0.0000 0.0000 0.0000 24.9592
#
#
#
# Elastic Compliance Matrix: (Units=1/GPa)
#
#
# Indices 1 2 3 4 5 6 
#
# 1 0.013583 -0.003811 -0.005703 0.000000 0.000000 0.000000
# 2 -0.003811 0.036587 -0.002322 0.000000 0.000000 0.000000
# 3 -0.005703 -0.002322 0.013081 0.000000 0.000000 0.000000
# 4 0.000000 0.000000 0.000000 0.056290 0.000000 0.000000
# 5 0.000000 0.000000 0.000000 0.000000 0.029100 0.000000
# 6 0.000000 0.000000 0.000000 0.000000 0.000000 0.040065
#
#
# Mechanical properties :
#
#
# Convention : Reuss Voigt Hill
#
# Bulk Modulus (GPa) = 25.26580 39.72237 32.49408
# Shear Modulus (GPa) = 22.16593 25.75342 23.95967
#
# Velocity S-wave (km/s) = 3.54219 3.81809 3.68273
# Velocity P-wave (km/s) = 5.57058 6.47473 6.03960
#
# Compressibility (1/GPa) = 0.03957919
#
# Stress axis : x y z
#
# Youngs Moduli (GPa) = 73.61903 27.33244 76.44651
#
# Poissons Ratio (x) = 0.10417 0.43595
# Poissons Ratio (y) = 0.28057 0.17752
# Poissons Ratio (z) = 0.41982 0.06347
#
# Static dielectric constant tensor:
#      x y z
#    x 3.510870 0.000000 0.000000 
#    y 0.000000 3.806060 0.000000 
#    z 0.000000 0.000000 3.220090 
# 
# 
# High freq. dielectric constant tensor:
#      x y z
#    x 1.695010 0.000000 0.000000 
#    y 0.000000 1.677020 0.000000 
#    z 0.000000 0.000000 1.663430 
# 
# From -- ./inp_files/69965.got.cif
#   From: 2010.03.12/outbox.cif.g09.slc.cpg/sg65_35_cif.got.tgz:69965.got - 2010.04.10 20:52:16.
