data_PCOD8270520
_publ_section_title
;
Structure prediction by ZEFSAII (Michael W. Deem and Ramdas Pophale) SiO2 
 PCOD8270520
Probable space group: C M M M
;
_chemical_formula_sum "Si O2"
_cell_formula_units_Z 88
_cell_length_a 18.370829
_cell_length_b 9.442175
_cell_length_c 28.090443
_cell_angle_alpha 90.000000
_cell_angle_beta 90.000000
_cell_angle_gamma 90.000000
_cell_volume 4872.584600
_symmetry_space_group_name_H-M "C M M M"
_symmetry_group_IT_number 65
_symmetry_cell_setting 'orthorhombic'
loop_
_space_group_symop_operation_xyz
x,y,z
-x,-y,z
x,-y,-z
-x,y,-z
-x,-y,-z
x,y,-z
-x,y,z
x,-y,z
1/2+x,1/2+y,z
1/2-x,1/2-y,z
1/2+x,1/2-y,-z
1/2-x,1/2+y,-z
1/2-x,1/2-y,-z
1/2+x,1/2+y,-z
1/2-x,1/2+y,z
1/2+x,1/2-y,z
loop_
_atom_site_type_symbol
_atom_site_label
_atom_site_fract_x
_atom_site_fract_y
_atom_site_fract_z
Si Si1 0.081767 0.332272 0.500000
Si Si2 0.413608 0.341975 0.770241
Si Si3 0.583401 0.165371 0.682185
Si Si4 0.821835 0.664094 0.945068
Si Si5 0.913956 0.840059 0.124233
Si Si6 0.325252 0.167526 0.590197
O O1 0.075589 0.500000 0.500000
O O2 0.125084 0.280591 0.546432
O O3 0.000000 0.267406 0.500000
O O4 0.500000 0.335103 0.770924
O O5 0.386834 0.500000 0.758036
O O6 0.383414 0.238806 0.729335
O O7 0.385125 0.298421 0.822834
O O8 0.500000 0.212100 0.672218
O O9 0.632129 0.211435 0.637739
O O10 0.587797 0.000000 0.691455
O O11 0.809493 0.500000 0.932838
O O12 0.750000 0.750000 0.931733
O O13 0.886364 0.726502 0.913594
O O14 0.843212 0.685399 0.000000
O O15 0.000000 0.833174 0.123079
O O16 0.888152 0.000000 0.111433
O O17 0.250000 0.250000 0.588145
O O18 0.310166 0.000000 0.587857
#
# Coordination Sequence:
#
# PCOD8270520 Si02
#       6
#     8  16  16  16  16  16
#     4   9  17  32  55  77  96 125 166 206 242 285
#     4   8  15  29  49  73 100 129 161 199 245 293
#     4   9  17  30  49  72  96 125 165 206 239 280
#     4  10  21  36  53  73  99 132 169 208 251 301
#     4   9  18  33  53  77 104 133 166 205 250 300
#     4  10  20  33  50  73 101 131 162 199 245 293
#
# _framework density 18.060231000000002
#
# number of rings (size 3 to 8) (size 9 to 14) (size 15 to 20)
#    0.000    2.818    0.000    2.455    0.000    5.455 
#    0.000    4.545    0.000    4.364    0.000    0.000 
#    0.000    0.000    0.000    0.000    0.000    0.000 
#
# Total GULP energy -545491.682768 kJ/mol
# GULP energy per Si atom -12397.538245 kJ/mol
# Density = 1.801912 g / cm^3
# Si number density = 18.060231 Si / 1000 Ang^3
#
#
#
# Elastic Constant Matrix: (Units=GPa)
#
#
# Indices 1 2 3 4 5 6 
#
# 1 78.5806 43.5329 56.0512 0.0000 0.0000 0.0000
# 2 43.5329 76.5926 66.1379 0.0000 0.0000 0.0000
# 3 56.0512 66.1379 134.0515 0.0000 0.0000 0.0000
# 4 0.0000 0.0000 0.0000 30.3723 0.0000 0.0000
# 5 0.0000 0.0000 0.0000 0.0000 6.0325 0.0000
# 6 0.0000 0.0000 0.0000 0.0000 0.0000 29.7385
#
#
#
# Elastic Compliance Matrix: (Units=1/GPa)
#
#
# Indices 1 2 3 4 5 6 
#
# 1 0.020239 -0.007310 -0.004856 0.000000 0.000000 0.000000
# 2 -0.007310 0.025388 -0.009469 0.000000 0.000000 0.000000
# 3 -0.004856 -0.009469 0.014162 0.000000 0.000000 0.000000
# 4 0.000000 0.000000 0.000000 0.032925 0.000000 0.000000
# 5 0.000000 0.000000 0.000000 0.000000 0.165770 0.000000
# 6 0.000000 0.000000 0.000000 0.000000 0.000000 0.033626
#
#
# Mechanical properties :
#
#
# Convention : Reuss Voigt Hill
#
# Bulk Modulus (GPa) = 60.53835 68.96318 64.75077
# Shear Modulus (GPa) = 14.66764 21.46216 18.06490
#
# Velocity S-wave (km/s) = 2.85292 3.45101 3.16612
# Velocity P-wave (km/s) = 6.66672 7.35848 7.02113
#
# Compressibility (1/GPa) = 0.01651845
#
# Stress axis : x y z
#
# Youngs Moduli (GPa) = 49.40867 39.38946 70.61137
#
# Poissons Ratio (x) = 0.28795 0.34289
# Poissons Ratio (y) = 0.36119 0.66862
# Poissons Ratio (z) = 0.23993 0.37298
#
# Static dielectric constant tensor:
#      x y z
#    x 3.112980 0.000000 0.000000 
#    y 0.000000 3.318800 0.000000 
#    z 0.000000 0.000000 3.627450 
# 
# 
# High freq. dielectric constant tensor:
#      x y z
#    x 1.677650 0.000000 0.000000 
#    y 0.000000 1.687340 0.000000 
#    z 0.000000 0.000000 1.713860 
# 
# From -- ./inp_files/67573.got.cif
#   From: 2010.03.12/outbox.cif.g09.slc.cpg/sg65_34_cif.got.tgz:67573.got - 2010.04.10 20:52:16.
