data_PCOD8270015
_publ_section_title
;
Structure prediction by ZEFSAII (Michael W. Deem and Ramdas Pophale) SiO2 
 PCOD8270015
Probable space group: C M M M
;
_chemical_formula_sum "Si O2"
_cell_formula_units_Z 88
_cell_length_a 19.097307
_cell_length_b 9.285051
_cell_length_c 28.333657
_cell_angle_alpha 90.000000
_cell_angle_beta 90.000000
_cell_angle_gamma 90.000000
_cell_volume 5024.109027
_symmetry_space_group_name_H-M "C M M M"
_symmetry_group_IT_number 65
_symmetry_cell_setting 'orthorhombic'
loop_
_space_group_symop_operation_xyz
x,y,z
-x,-y,z
x,-y,-z
-x,y,-z
-x,-y,-z
x,y,-z
-x,y,z
x,-y,z
1/2+x,1/2+y,z
1/2-x,1/2-y,z
1/2+x,1/2-y,-z
1/2-x,1/2+y,-z
1/2-x,1/2-y,-z
1/2+x,1/2+y,-z
1/2-x,1/2+y,z
1/2+x,1/2-y,z
loop_
_atom_site_type_symbol
_atom_site_label
_atom_site_fract_x
_atom_site_fract_y
_atom_site_fract_z
Si Si1 0.922523 0.170962 0.367428
Si Si2 0.678643 0.332730 0.447326
Si Si3 0.919350 0.167021 0.909056
Si Si4 0.416850 0.162063 0.000000
Si Si5 0.921364 0.829206 0.737398
Si Si6 0.823342 0.830163 0.179555
O O1 0.873695 0.234201 0.408574
O O2 0.896289 0.217105 0.315172
O O3 0.000000 0.233669 0.375746
O O4 0.924589 0.000000 0.371087
O O5 0.647502 0.309501 0.500000
O O6 0.693108 0.500000 0.437700
O O7 0.750000 0.250000 0.441128
O O8 0.890009 0.256919 0.953341
O O9 0.871324 0.208257 0.865024
O O10 0.000000 0.206051 0.896895
O O11 0.913012 0.000000 0.922264
O O12 0.500000 0.163656 0.000000
O O13 0.386966 0.000000 0.000000
O O14 0.865114 0.769591 0.774794
O O15 0.000000 0.769032 0.747458
O O16 0.924718 0.000000 0.741847
O O17 0.750000 0.750000 0.175237
O O18 0.809248 0.000000 0.183263
#
# Coordination Sequence:
#
# PCOD8270015 Si02
#       6
#    16  16  16   8  16  16
#     4   8  14  25  43  67  90 112 145 191 234 266
#     4   9  17  28  42  62  89 120 152 185 223 269
#     4   9  17  31  51  71  91 119 155 189 219 258
#     4   9  17  29  48  75 100 119 145 185 230 269
#     4   8  14  27  47  68  89 115 150 189 226 267
#     4  10  20  32  47  69  95 121 150 185 225 268
#
# _framework density 17.515544999999999
#
# number of rings (size 3 to 8) (size 9 to 14) (size 15 to 20)
#    0.000    3.182    0.000    1.909    0.000    5.091 
#    0.000    2.273    0.000    2.182    0.000    5.091 
#    0.000    0.000    0.000    0.000    0.000    0.000 
#
# Total GULP energy -545363.817121 kJ/mol
# GULP energy per Si atom -12394.632207 kJ/mol
# Density = 1.747568 g / cm^3
# Si number density = 17.515545 Si / 1000 Ang^3
#
#
#
# Elastic Constant Matrix: (Units=GPa)
#
#
# Indices 1 2 3 4 5 6 
#
# 1 103.4073 34.8780 91.2295 0.0000 0.0000 0.0000
# 2 34.8780 36.5808 47.7110 0.0000 0.0000 0.0000
# 3 91.2295 47.7110 176.1526 0.0000 0.0000 0.0000
# 4 0.0000 0.0000 0.0000 13.6292 0.0000 0.0000
# 5 0.0000 0.0000 0.0000 0.0000 15.7254 0.0000
# 6 0.0000 0.0000 0.0000 0.0000 0.0000 21.4512
#
#
#
# Elastic Compliance Matrix: (Units=1/GPa)
#
#
# Indices 1 2 3 4 5 6 
#
# 1 0.019309 -0.008299 -0.007752 0.000000 0.000000 0.000000
# 2 -0.008299 0.045835 -0.008116 0.000000 0.000000 0.000000
# 3 -0.007752 -0.008116 0.011890 0.000000 0.000000 0.000000
# 4 0.000000 0.000000 0.000000 0.073372 0.000000 0.000000
# 5 0.000000 0.000000 0.000000 0.000000 0.063591 0.000000
# 6 0.000000 0.000000 0.000000 0.000000 0.000000 0.046617
#
#
# Mechanical properties :
#
#
# Convention : Reuss Voigt Hill
#
# Bulk Modulus (GPa) = 34.84456 73.75308 54.29882
# Shear Modulus (GPa) = 15.69771 19.64931 17.67351
#
# Velocity S-wave (km/s) = 2.99693 3.35299 3.17995
# Velocity P-wave (km/s) = 5.64909 7.56232 6.67461
#
# Compressibility (1/GPa) = 0.02869888
#
# Stress axis : x y z
#
# Youngs Moduli (GPa) = 51.78906 21.81716 84.10314
#
# Poissons Ratio (x) = 0.18106 0.65200
# Poissons Ratio (y) = 0.42981 0.68261
# Poissons Ratio (z) = 0.40149 0.17708
#
# Static dielectric constant tensor:
#      x y z
#    x 3.243160 0.000000 0.000000 
#    y 0.000000 2.889900 0.000000 
#    z 0.000000 0.000000 3.618100 
# 
# 
# High freq. dielectric constant tensor:
#      x y z
#    x 1.662970 0.000000 0.000000 
#    y 0.000000 1.632590 0.000000 
#    z 0.000000 0.000000 1.694830 
# 
# From -- ./inp_files/76549.got.cif
#   From: 2010.03.12/outbox.cif.g09.slc.cpg/sg65_39_cif.got.tgz:76549.got - 2010.04.10 20:52:16.
