data_PCOD8270660
_publ_section_title
;
Structure prediction by ZEFSAII (Michael W. Deem and Ramdas Pophale) SiO2 
 PCOD8270660
Probable space group: C M M M
;
_chemical_formula_sum "Si O2"
_cell_formula_units_Z 80
_cell_length_a 25.323739
_cell_length_b 18.498922
_cell_length_c 9.183504
_cell_angle_alpha 90.000000
_cell_angle_beta 90.000000
_cell_angle_gamma 90.000000
_cell_volume 4302.121480
_symmetry_space_group_name_H-M "C M M M"
_symmetry_group_IT_number 65
_symmetry_cell_setting 'orthorhombic'
loop_
_space_group_symop_operation_xyz
x,y,z
-x,-y,z
x,-y,-z
-x,y,-z
-x,-y,-z
x,y,-z
-x,y,z
x,-y,z
1/2+x,1/2+y,z
1/2-x,1/2-y,z
1/2+x,1/2-y,-z
1/2-x,1/2+y,-z
1/2-x,1/2-y,-z
1/2+x,1/2+y,-z
1/2-x,1/2+y,z
1/2+x,1/2-y,z
loop_
_atom_site_type_symbol
_atom_site_label
_atom_site_fract_x
_atom_site_fract_y
_atom_site_fract_z
Si Si1 0.849014 0.580843 0.327130
Si Si2 0.060246 0.313445 0.330529
Si Si3 0.146162 0.083518 0.668364
Si Si4 0.248829 0.831590 0.673313
Si Si5 0.560911 0.332450 0.830125
O O1 0.845002 0.576758 0.500000
O O2 0.849376 0.500000 0.261018
O O3 0.902999 0.620464 0.279899
O O4 0.799053 0.624811 0.263922
O O5 0.068609 0.295465 0.500000
O O6 0.077680 0.242961 0.242303
O O7 0.000000 0.335607 0.296545
O O8 0.134511 0.100797 0.500000
O O9 0.195581 0.129715 0.727099
O O10 0.094640 0.103066 0.761082
O O11 0.160046 0.000000 0.691590
O O12 0.251216 0.831272 0.500000
O O13 0.250000 0.750000 0.734699
O O14 0.500000 0.350111 0.797643
O O15 0.572648 0.327062 0.000000
#
# Coordination Sequence:
#
# PCOD8270660 Si02
#       5
#    16  16  16  16  16
#     4   9  16  26  44  73 106 134 161 200 249 294
#     4   9  17  30  50  75 101 130 166 206 244 285
#     4  10  20  33  51  76 103 129 161 203 247 290
#     4   9  16  27  46  72 101 132 165 200 240 288
#     4  10  21  36  53  72  96 129 167 204 244 294
#
# _framework density 18.595476999999999
#
# number of rings (size 3 to 8) (size 9 to 14) (size 15 to 20)
#    0.000    2.600    0.000    2.400    0.000    8.000 
#    0.000    4.000    0.000    6.000    0.000    2.800 
#    0.000    0.000    0.000    0.000    0.000    0.000 
#
# Total GULP energy -496064.094837 kJ/mol
# GULP energy per Si atom -12401.602371 kJ/mol
# Density = 1.855315 g / cm^3
# Si number density = 18.595477 Si / 1000 Ang^3
#
#
#
# Elastic Constant Matrix: (Units=GPa)
#
#
# Indices 1 2 3 4 5 6 
#
# 1 120.8392 76.7127 34.4208 0.0000 0.0000 0.0000
# 2 76.7127 141.0853 33.4565 0.0000 0.0000 0.0000
# 3 34.4208 33.4565 38.9445 0.0000 0.0000 0.0000
# 4 0.0000 0.0000 0.0000 6.1921 0.0000 0.0000
# 5 0.0000 0.0000 0.0000 0.0000 12.3894 0.0000
# 6 0.0000 0.0000 0.0000 0.0000 0.0000 36.3612
#
#
#
# Elastic Compliance Matrix: (Units=1/GPa)
#
#
# Indices 1 2 3 4 5 6 
#
# 1 0.014157 -0.005941 -0.007409 0.000000 0.000000 0.000000
# 2 -0.005941 0.011394 -0.004538 0.000000 0.000000 0.000000
# 3 -0.007409 -0.004538 0.036125 0.000000 0.000000 0.000000
# 4 0.000000 0.000000 0.000000 0.161495 0.000000 0.000000
# 5 0.000000 0.000000 0.000000 0.000000 0.080714 0.000000
# 6 0.000000 0.000000 0.000000 0.000000 0.000000 0.027502
#
#
# Mechanical properties :
#
#
# Convention : Reuss Voigt Hill
#
# Bulk Modulus (GPa) = 38.60946 65.56099 52.08523
# Shear Modulus (GPa) = 13.30509 21.40715 17.35612
#
# Velocity S-wave (km/s) = 2.67779 3.39662 3.05839
# Velocity P-wave (km/s) = 5.51077 7.12149 6.36727
#
# Compressibility (1/GPa) = 0.02590039
#
# Stress axis : x y z
#
# Youngs Moduli (GPa) = 70.63436 87.76375 27.68202
#
# Poissons Ratio (x) = 0.52139 0.20510
# Poissons Ratio (y) = 0.41963 0.12562
# Poissons Ratio (z) = 0.52335 0.39825
#
# Static dielectric constant tensor:
#      x y z
#    x 3.558950 0.000000 0.000000 
#    y 0.000000 3.538070 0.000000 
#    z 0.000000 0.000000 2.959040 
# 
# 
# High freq. dielectric constant tensor:
#      x y z
#    x 1.735260 0.000000 0.000000 
#    y 0.000000 1.728390 0.000000 
#    z 0.000000 0.000000 1.666670 
# 
# From -- ./inp_files/9597.got.cif
#   From: 2010.03.12/outbox.cif.g09.slc.cpg/sg65_5_cif.got.tgz:9597.got - 2010.04.10 20:52:16.
