data_PCOD8270587
_publ_section_title
;
Structure prediction by ZEFSAII (Michael W. Deem and Ramdas Pophale) SiO2 
 PCOD8270587
Probable space group: C M M M
;
_chemical_formula_sum "Si O2"
_cell_formula_units_Z 56
_cell_length_a 9.278643
_cell_length_b 28.416298
_cell_length_c 10.436285
_cell_angle_alpha 90.000000
_cell_angle_beta 90.000000
_cell_angle_gamma 90.000000
_cell_volume 2751.679792
_symmetry_space_group_name_H-M "C M M M"
_symmetry_group_IT_number 65
_symmetry_cell_setting 'orthorhombic'
loop_
_space_group_symop_operation_xyz
x,y,z
-x,-y,z
x,-y,-z
-x,y,-z
-x,-y,-z
x,y,-z
-x,y,z
x,-y,z
1/2+x,1/2+y,z
1/2-x,1/2-y,z
1/2+x,1/2-y,-z
1/2-x,1/2+y,-z
1/2-x,1/2-y,-z
1/2+x,1/2+y,-z
1/2-x,1/2+y,z
1/2+x,1/2-y,z
loop_
_atom_site_type_symbol
_atom_site_label
_atom_site_fract_x
_atom_site_fract_y
_atom_site_fract_z
Si Si1 0.169768 0.135157 0.257524
Si Si2 0.842945 0.709469 0.144708
Si Si3 0.665866 0.054386 0.147391
Si Si4 0.331008 0.300334 0.500000
O O1 0.251750 0.161522 0.142102
O O2 0.235081 0.082585 0.250131
O O3 0.212255 0.165866 0.381621
O O4 0.000000 0.132642 0.236449
O O5 0.750000 0.750000 0.217529
O O6 0.000000 0.704345 0.212448
O O7 0.869703 0.725540 0.000000
O O8 0.500000 0.069876 0.164003
O O9 0.685224 0.000000 0.183055
O O10 0.714493 0.063067 0.000000
O O11 0.500000 0.289242 0.500000
O O12 0.250000 0.250000 0.500000
#
# Coordination Sequence:
#
# PCOD8270587 Si02
#       4
#    16  16  16   8
#     4  11  22  36  55  79 108 143 185 229 275 328
#     4  10  20  33  50  75 107 139 173 218 273 331
#     4   9  19  37  60  86 116 147 180 223 276 332
#     4  10  24  42  57  78 109 147 190 235 279 322
#
# _framework density 20.351203999999999
#
# number of rings (size 3 to 8) (size 9 to 14) (size 15 to 20)
#    0.000    2.000    0.000    4.286    0.000   10.857 
#    0.000    2.143    0.000    4.286    0.000    0.000 
#    0.000    0.000    0.000    0.000    0.000    0.000 
#
# Total GULP energy -346946.394429 kJ/mol
# GULP energy per Si atom -12390.942658 kJ/mol
# Density = 2.030488 g / cm^3
# Si number density = 20.351204 Si / 1000 Ang^3
#
#
#
# Elastic Constant Matrix: (Units=GPa)
#
#
# Indices 1 2 3 4 5 6 
#
# 1 151.8936 84.2601 45.4189 0.0000 0.0000 0.0000
# 2 84.2601 135.8145 48.5264 0.0000 0.0000 0.0000
# 3 45.4189 48.5264 60.2325 0.0000 0.0000 0.0000
# 4 0.0000 0.0000 0.0000 31.4355 0.0000 0.0000
# 5 0.0000 0.0000 0.0000 0.0000 21.9119 0.0000
# 6 0.0000 0.0000 0.0000 0.0000 0.0000 45.2573
#
#
#
# Elastic Compliance Matrix: (Units=1/GPa)
#
#
# Indices 1 2 3 4 5 6 
#
# 1 0.010621 -0.005235 -0.003792 0.000000 0.000000 0.000000
# 2 -0.005235 0.012919 -0.006461 0.000000 0.000000 0.000000
# 3 -0.003792 -0.006461 0.024667 0.000000 0.000000 0.000000
# 4 0.000000 0.000000 0.000000 0.031811 0.000000 0.000000
# 5 0.000000 0.000000 0.000000 0.000000 0.045637 0.000000
# 6 0.000000 0.000000 0.000000 0.000000 0.000000 0.022096
#
#
# Mechanical properties :
#
#
# Convention : Reuss Voigt Hill
#
# Bulk Modulus (GPa) = 58.03045 78.26126 68.14585
# Shear Modulus (GPa) = 27.10462 31.03663 29.07062
#
# Velocity S-wave (km/s) = 3.65340 3.90943 3.78358
# Velocity P-wave (km/s) = 6.80976 7.67574 7.25568
#
# Compressibility (1/GPa) = 0.01723233
#
# Stress axis : x y z
#
# Youngs Moduli (GPa) = 94.15157 77.40452 40.54026
#
# Poissons Ratio (x) = 0.40519 0.15372
# Poissons Ratio (y) = 0.49285 0.26193
# Poissons Ratio (z) = 0.35699 0.50012
#
# Static dielectric constant tensor:
#      x y z
#    x 3.970320 0.000000 0.000000 
#    y 0.000000 3.760190 0.000000 
#    z 0.000000 0.000000 3.474960 
# 
# 
# High freq. dielectric constant tensor:
#      x y z
#    x 1.805070 0.000000 0.000000 
#    y 0.000000 1.801710 0.000000 
#    z 0.000000 0.000000 1.764300 
# 
# From -- ./inp_files/20438.got.cif
#   From: 2010.03.12/outbox.cif.g09.slc.cpg/sg65_11_cif.got.tgz:20438.got - 2010.04.10 20:52:16.
