data_PCOD8270771
_publ_section_title
;
Structure prediction by ZEFSAII (Michael W. Deem and Ramdas Pophale) SiO2 
 PCOD8270771
Probable space group: C M M M
;
_chemical_formula_sum "Si O2"
_cell_formula_units_Z 80
_cell_length_a 20.303680
_cell_length_b 9.747463
_cell_length_c 22.696470
_cell_angle_alpha 90.000000
_cell_angle_beta 90.000000
_cell_angle_gamma 90.000000
_cell_volume 4491.844069
_symmetry_space_group_name_H-M "C M M M"
_symmetry_group_IT_number 65
_symmetry_cell_setting 'orthorhombic'
loop_
_space_group_symop_operation_xyz
x,y,z
-x,-y,z
x,-y,-z
-x,y,-z
-x,-y,-z
x,y,-z
-x,y,z
x,-y,z
1/2+x,1/2+y,z
1/2-x,1/2-y,z
1/2+x,1/2-y,-z
1/2-x,1/2+y,-z
1/2-x,1/2-y,-z
1/2+x,1/2+y,-z
1/2-x,1/2+y,z
1/2+x,1/2-y,z
loop_
_atom_site_type_symbol
_atom_site_label
_atom_site_fract_x
_atom_site_fract_y
_atom_site_fract_z
Si Si1 0.185980 0.340453 0.734130
Si Si2 0.075947 0.659152 0.829230
Si Si3 0.078106 0.846631 0.065014
Si Si4 0.387359 0.154269 0.616129
Si Si5 0.500000 0.663493 0.569866
Si Si6 0.305079 0.856477 0.500000
O O1 0.205597 0.500000 0.740520
O O2 0.250000 0.250000 0.749926
O O3 0.124132 0.303004 0.775714
O O4 0.161835 0.304853 0.668536
O O5 0.080060 0.500000 0.845480
O O6 0.103338 0.741178 0.885822
O O7 0.000000 0.698827 0.812821
O O8 0.000000 0.844088 0.063720
O O9 0.102958 0.000000 0.080701
O O10 0.104737 0.803935 0.000000
O O11 0.440333 0.272665 0.606749
O O12 0.348875 0.155919 0.556387
O O13 0.417145 0.000000 0.627572
O O14 0.500000 0.500000 0.576492
O O15 0.500000 0.704478 0.500000
O O16 0.250000 0.750000 0.500000
O O17 0.266985 0.000000 0.500000
#
# Coordination Sequence:
#
# PCOD8270771 Si02
#       6
#    16  16  16  16   8   8
#     4  10  22  38  57  79 107 144 182 224 269 317
#     4   9  18  32  51  78 108 140 178 218 264 315
#     4   8  14  26  46  74 107 140 173 213 263 314
#     4  10  21  37  57  78 103 140 179 213 262 325
#     4  11  23  37  55  83 111 135 166 217 274 317
#     4  10  20  33  52  77  99 130 174 216 263 316
#
# _framework density 17.810058000000001
#
# number of rings (size 3 to 8) (size 9 to 14) (size 15 to 20)
#    0.000    2.500    1.000    1.500    1.400    3.200 
#    0.000    2.000    0.000    0.600    0.000    0.000 
#    0.000    0.000    0.000    0.000    0.000    0.000 
#
# Total GULP energy -495666.056853 kJ/mol
# GULP energy per Si atom -12391.651421 kJ/mol
# Density = 1.776952 g / cm^3
# Si number density = 17.810058 Si / 1000 Ang^3
#
#
#
# Elastic Constant Matrix: (Units=GPa)
#
#
# Indices 1 2 3 4 5 6 
#
# 1 86.2834 59.8554 43.6189 0.0000 0.0000 0.0000
# 2 59.8554 96.1052 50.7439 0.0000 0.0000 0.0000
# 3 43.6189 50.7439 125.4483 0.0000 0.0000 0.0000
# 4 0.0000 0.0000 0.0000 32.3777 0.0000 0.0000
# 5 0.0000 0.0000 0.0000 0.0000 -3.0925 0.0000
# 6 0.0000 0.0000 0.0000 0.0000 0.0000 31.4854
#
#
#
# Elastic Compliance Matrix: (Units=1/GPa)
#
#
# Indices 1 2 3 4 5 6 
#
# 1 0.021034 -0.011748 -0.002562 0.000000 0.000000 0.000000
# 2 -0.011748 0.019792 -0.003921 0.000000 0.000000 0.000000
# 3 -0.002562 -0.003921 0.010448 0.000000 0.000000 0.000000
# 4 0.000000 0.000000 0.000000 0.030885 0.000000 0.000000
# 5 0.000000 0.000000 0.000000 0.000000 -0.323363 0.000000
# 6 0.000000 0.000000 0.000000 0.000000 0.000000 0.031761
#
#
# Mechanical properties :
#
#
# Convention : Reuss Voigt Hill
#
# Bulk Modulus (GPa) = 67.50654 68.47480 67.99067
# Shear Modulus (GPa) = -29.75428 22.39536 -3.67946
#
# Velocity S-wave (km/s) = -4.09179 3.54991 -1.43890
# Velocity P-wave (km/s) = 3.95756 7.43863 5.95800
#
# Compressibility (1/GPa) = 0.01481338
#
# Stress axis : x y z
#
# Youngs Moduli (GPa) = 47.54158 50.52463 95.70948
#
# Poissons Ratio (x) = 0.59355 0.24518
# Poissons Ratio (y) = 0.55851 0.37530
# Poissons Ratio (z) = 0.12179 0.19812
#
# Static dielectric constant tensor:
#      x y z
#    x 2.109170 0.000000 0.000000 
#    y 0.000000 3.510230 0.000000 
#    z 0.000000 0.000000 3.542390 
# 
# 
# High freq. dielectric constant tensor:
#      x y z
#    x 1.661580 0.000000 0.000000 
#    y 0.000000 1.692080 0.000000 
#    z 0.000000 0.000000 1.696940 
# 
# From -- ./inp_files/70794.got.cif
#   From: 2010.03.12/outbox.cif.g09.slc.cpg/sg65_36_cif.got.tgz:70794.got - 2010.04.10 20:52:16.
