data_PCOD8270216
_publ_section_title
;
Structure prediction by ZEFSAII (Michael W. Deem and Ramdas Pophale) SiO2 
 PCOD8270216
Probable space group: C M M M
;
_chemical_formula_sum "Si O2"
_cell_formula_units_Z 112
_cell_length_a 21.247398
_cell_length_b 17.907341
_cell_length_c 15.505267
_cell_angle_alpha 90.000000
_cell_angle_beta 90.000000
_cell_angle_gamma 90.000000
_cell_volume 5899.512232
_symmetry_space_group_name_H-M "C M M M"
_symmetry_group_IT_number 65
_symmetry_cell_setting 'orthorhombic'
loop_
_space_group_symop_operation_xyz
x,y,z
-x,-y,z
x,-y,-z
-x,y,-z
-x,-y,-z
x,y,-z
-x,y,z
x,-y,z
1/2+x,1/2+y,z
1/2-x,1/2-y,z
1/2+x,1/2-y,-z
1/2-x,1/2+y,-z
1/2-x,1/2-y,-z
1/2+x,1/2+y,-z
1/2-x,1/2+y,z
1/2+x,1/2-y,z
loop_
_atom_site_type_symbol
_atom_site_label
_atom_site_fract_x
_atom_site_fract_y
_atom_site_fract_z
Si Si1 0.191221 0.697851 0.097158
Si Si2 0.071481 0.293767 0.645768
Si Si3 0.426480 0.632495 0.404670
Si Si4 0.929478 0.767107 0.833286
Si Si5 0.620503 0.416603 0.232243
Si Si6 0.735623 0.913985 0.231340
Si Si7 0.170239 0.413977 0.403531
O O1 0.250000 0.750000 0.121440
O O2 0.124718 0.741829 0.100825
O O3 0.191169 0.630441 0.165199
O O4 0.198897 0.666947 0.000000
O O5 0.095508 0.218703 0.598791
O O6 0.079590 0.282054 0.747821
O O7 0.109091 0.364373 0.611745
O O8 0.000000 0.310245 0.620667
O O9 0.412999 0.600245 0.500000
O O10 0.500000 0.627967 0.380756
O O11 0.388721 0.583392 0.335706
O O12 0.923549 0.855626 0.813224
O O13 0.000000 0.754743 0.871521
O O14 0.604598 0.500000 0.197931
O O15 0.692207 0.395286 0.211489
O O16 0.721734 0.892218 0.331085
O O17 0.720284 0.000000 0.215138
O O18 0.197746 0.399409 0.500000
O O19 0.149600 0.500000 0.393578
#
# Coordination Sequence:
#
# PCOD8270216 Si02
#       7
#    16  16  16  16  16  16  16
#     4  11  22  39  65  91 114 147 191 238 286 344
#     4   9  17  31  51  72 101 145 191 234 282 337
#     4   9  18  31  47  72 106 144 191 241 283 330
#     4  10  20  36  60  87 115 147 185 234 286 340
#     4  10  20  34  54  78 110 154 192 228 284 344
#     4  10  21  38  58  82 116 155 194 238 285 336
#     4  10  20  32  49  76 110 149 192 236 282 331
#
# _framework density 18.984618999999999
#
# number of rings (size 3 to 8) (size 9 to 14) (size 15 to 20)
#    0.000    2.143    2.857    1.714    0.000    3.714 
#    0.000    2.857    0.000    3.857    0.000    2.000 
#    0.000    0.000    0.000    0.000    0.000    0.000 
#
# Total GULP energy -694268.649744 kJ/mol
# GULP energy per Si atom -12397.654460 kJ/mol
# Density = 1.894141 g / cm^3
# Si number density = 18.984619 Si / 1000 Ang^3
#
#
#
# Elastic Constant Matrix: (Units=GPa)
#
#
# Indices 1 2 3 4 5 6 
#
# 1 84.7998 33.1118 25.1180 0.0000 0.0000 0.0000
# 2 33.1118 65.5963 33.2101 0.0000 0.0000 0.0000
# 3 25.1180 33.2101 83.2832 0.0000 0.0000 0.0000
# 4 0.0000 0.0000 0.0000 18.8843 0.0000 0.0000
# 5 0.0000 0.0000 0.0000 0.0000 22.2349 0.0000
# 6 0.0000 0.0000 0.0000 0.0000 0.0000 24.1340
#
#
#
# Elastic Compliance Matrix: (Units=1/GPa)
#
#
# Indices 1 2 3 4 5 6 
#
# 1 0.014917 -0.006581 -0.001875 0.000000 0.000000 0.000000
# 2 -0.006581 0.022004 -0.006790 0.000000 0.000000 0.000000
# 3 -0.001875 -0.006790 0.015280 0.000000 0.000000 0.000000
# 4 0.000000 0.000000 0.000000 0.052954 0.000000 0.000000
# 5 0.000000 0.000000 0.000000 0.000000 0.044974 0.000000
# 6 0.000000 0.000000 0.000000 0.000000 0.000000 0.041435
#
#
# Mechanical properties :
#
#
# Convention : Reuss Voigt Hill
#
# Bulk Modulus (GPa) = 46.05962 46.28435 46.17199
# Shear Modulus (GPa) = 21.80616 22.53327 22.16972
#
# Velocity S-wave (km/s) = 3.39281 3.44891 3.42098
# Velocity P-wave (km/s) = 6.29781 6.34766 6.32279
#
# Compressibility (1/GPa) = 0.02171099
#
# Stress axis : x y z
#
# Youngs Moduli (GPa) = 67.03562 45.44607 65.44451
#
# Poissons Ratio (x) = 0.29907 0.12270
# Poissons Ratio (y) = 0.44115 0.44434
# Poissons Ratio (z) = 0.12568 0.30856
#
# Static dielectric constant tensor:
#      x y z
#    x 3.386360 0.000000 0.000000 
#    y 0.000000 3.359090 0.000000 
#    z 0.000000 0.000000 3.383850 
# 
# 
# High freq. dielectric constant tensor:
#      x y z
#    x 1.729300 0.000000 0.000000 
#    y 0.000000 1.731290 0.000000 
#    z 0.000000 0.000000 1.725570 
# 
# From -- ./inp_files/45801.got.cif
#   From: 2010.03.12/outbox.cif.g09.slc.cpg/sg65_23_cif.got.tgz:45801.got - 2010.04.10 20:52:16.
