data_PCOD8270942
_publ_section_title
;
Structure prediction by ZEFSAII (Michael W. Deem and Ramdas Pophale) SiO2 
 PCOD8270942
Probable space group: C M M M
;
_chemical_formula_sum "Si O2"
_cell_formula_units_Z 104
_cell_length_a 9.367288
_cell_length_b 27.102410
_cell_length_c 26.784807
_cell_angle_alpha 90.000000
_cell_angle_beta 90.000000
_cell_angle_gamma 90.000000
_cell_volume 6800.021804
_symmetry_space_group_name_H-M "C M M M"
_symmetry_group_IT_number 65
_symmetry_cell_setting 'orthorhombic'
loop_
_space_group_symop_operation_xyz
x,y,z
-x,-y,z
x,-y,-z
-x,y,-z
-x,-y,-z
x,y,-z
-x,y,z
x,-y,z
1/2+x,1/2+y,z
1/2-x,1/2-y,z
1/2+x,1/2-y,-z
1/2-x,1/2+y,-z
1/2-x,1/2-y,-z
1/2+x,1/2+y,-z
1/2-x,1/2+y,z
1/2+x,1/2-y,z
loop_
_atom_site_type_symbol
_atom_site_label
_atom_site_fract_x
_atom_site_fract_y
_atom_site_fract_z
Si Si1 0.164725 0.944422 0.897769
Si Si2 0.830783 0.300651 0.848373
Si Si3 0.332635 0.556223 0.299040
Si Si4 0.834730 0.885599 0.200974
Si Si5 0.330177 0.054165 0.500000
Si Si6 0.160196 0.441031 0.393195
Si Si7 0.163873 0.639421 0.944264
O O1 0.188882 0.926571 0.841344
O O2 0.247834 0.910436 0.936729
O O3 0.000000 0.941840 0.912708
O O4 0.223266 0.000000 0.901988
O O5 0.750000 0.250000 0.839060
O O6 0.768488 0.339329 0.808482
O O7 0.792427 0.318746 0.904437
O O8 0.000000 0.294300 0.840394
O O9 0.500000 0.558114 0.307572
O O10 0.282250 0.500000 0.288919
O O11 0.286505 0.589942 0.252735
O O12 0.260215 0.578374 0.348773
O O13 0.000000 0.868261 0.202084
O O14 0.500000 0.048763 0.500000
O O15 0.286286 0.080676 0.447441
O O16 0.259373 0.000000 0.500000
O O17 0.165029 0.500000 0.396680
O O18 0.000000 0.422833 0.381651
O O19 0.000000 0.624924 0.936534
O O20 0.193178 0.660053 0.000000
#
# Coordination Sequence:
#
# PCOD8270942 Si02
#       7
#    16  16  16  16   8  16  16
#     4   9  17  29  45  64  85 111 143 173 199 232
#     4  10  20  34  51  68  84 103 130 164 203 248
#     4   9  16  25  38  58  84 112 141 173 209 245
#     4   9  17  30  46  62  83 111 139 168 204 245
#     4   7  10  18  31  45  65  99 142 181 212 241
#     4   8  13  21  33  49  71 103 143 181 212 242
#     4   9  19  34  48  64  87 111 134 162 198 241
#
# _framework density 15.294067999999999
#
# number of rings (size 3 to 8) (size 9 to 14) (size 15 to 20)
#    0.000    3.154    0.000    1.846    0.000    4.308 
#    0.000    1.923    0.000    5.077    0.000    0.000 
#    0.000    0.000    0.000    0.692    0.000    9.000 
#
# Total GULP energy -644472.310516 kJ/mol
# GULP energy per Si atom -12393.698279 kJ/mol
# Density = 1.525926 g / cm^3
# Si number density = 15.294068 Si / 1000 Ang^3
#
#
#
# Elastic Constant Matrix: (Units=GPa)
#
#
# Indices 1 2 3 4 5 6 
#
# 1 50.5880 35.9441 40.3828 0.0000 0.0000 0.0000
# 2 35.9441 71.9097 34.4751 0.0000 0.0000 0.0000
# 3 40.3828 34.4751 123.1496 0.0000 0.0000 0.0000
# 4 0.0000 0.0000 0.0000 10.2549 0.0000 0.0000
# 5 0.0000 0.0000 0.0000 0.0000 25.7871 0.0000
# 6 0.0000 0.0000 0.0000 0.0000 0.0000 20.9183
#
#
#
# Elastic Compliance Matrix: (Units=1/GPa)
#
#
# Indices 1 2 3 4 5 6 
#
# 1 0.036239 -0.014342 -0.007868 0.000000 0.000000 0.000000
# 2 -0.014342 0.021738 -0.001383 0.000000 0.000000 0.000000
# 3 -0.007868 -0.001383 0.011087 0.000000 0.000000 0.000000
# 4 0.000000 0.000000 0.000000 0.097514 0.000000 0.000000
# 5 0.000000 0.000000 0.000000 0.000000 0.038779 0.000000
# 6 0.000000 0.000000 0.000000 0.000000 0.000000 0.047805
#
#
# Mechanical properties :
#
#
# Convention : Reuss Voigt Hill
#
# Bulk Modulus (GPa) = 45.70634 51.91681 48.81157
# Shear Modulus (GPa) = 16.25271 20.38173 18.31722
#
# Velocity S-wave (km/s) = 3.26342 3.65452 3.46449
# Velocity P-wave (km/s) = 6.64453 7.19908 6.92735
#
# Compressibility (1/GPa) = 0.02187880
#
# Stress axis : x y z
#
# Youngs Moduli (GPa) = 27.59473 46.00271 90.19228
#
# Poissons Ratio (x) = 0.65976 0.70967
# Poissons Ratio (y) = 0.39575 0.12469
# Poissons Ratio (z) = 0.21713 0.06360
#
# Static dielectric constant tensor:
#      x y z
#    x 2.901750 0.000000 0.000000 
#    y 0.000000 2.620300 0.000000 
#    z 0.000000 0.000000 3.191070 
# 
# 
# High freq. dielectric constant tensor:
#      x y z
#    x 1.581640 0.000000 0.000000 
#    y 0.000000 1.540590 0.000000 
#    z 0.000000 0.000000 1.590840 
# 
# From -- ./inp_files/73743.got.cif
#   From: 2010.03.12/outbox.cif.g09.slc.cpg/sg65_37_cif.got.tgz:73743.got - 2010.04.10 20:52:16.
