data_PCOD8270922
_publ_section_title
;
Structure prediction by ZEFSAII (Michael W. Deem and Ramdas Pophale) SiO2 
 PCOD8270922
Probable space group: C M M M
;
_chemical_formula_sum "Si O2"
_cell_formula_units_Z 88
_cell_length_a 27.465660
_cell_length_b 9.154238
_cell_length_c 21.646716
_cell_angle_alpha 90.000000
_cell_angle_beta 90.000000
_cell_angle_gamma 90.000000
_cell_volume 5442.572943
_symmetry_space_group_name_H-M "C M M M"
_symmetry_group_IT_number 65
_symmetry_cell_setting 'orthorhombic'
loop_
_space_group_symop_operation_xyz
x,y,z
-x,-y,z
x,-y,-z
-x,y,-z
-x,-y,-z
x,y,-z
-x,y,z
x,-y,z
1/2+x,1/2+y,z
1/2-x,1/2-y,z
1/2+x,1/2-y,-z
1/2-x,1/2+y,-z
1/2-x,1/2-y,-z
1/2+x,1/2+y,-z
1/2-x,1/2+y,z
1/2+x,1/2-y,z
loop_
_atom_site_type_symbol
_atom_site_label
_atom_site_fract_x
_atom_site_fract_y
_atom_site_fract_z
Si Si1 0.638319 0.169211 0.069021
Si Si2 0.614922 0.670402 0.748844
Si Si3 0.300991 0.172960 0.814015
Si Si4 0.945293 0.169454 0.869425
Si Si5 0.057732 0.159796 0.500000
Si Si6 0.554581 0.325151 0.367486
O O1 0.679258 0.218661 0.118077
O O2 0.587691 0.251451 0.079871
O O3 0.626864 0.000000 0.077869
O O4 0.657488 0.204587 0.000000
O O5 0.629590 0.500000 0.746133
O O6 0.662485 0.766883 0.761945
O O7 0.574477 0.698593 0.800853
O O8 0.592179 0.727639 0.684612
O O9 0.250000 0.250000 0.803645
O O10 0.295216 0.000000 0.806871
O O11 0.000000 0.231764 0.873196
O O12 0.944341 0.000000 0.885711
O O13 0.072253 0.238171 0.565072
O O14 0.000000 0.142152 0.500000
O O15 0.082379 0.000000 0.500000
O O16 0.500000 0.268492 0.351917
O O17 0.553508 0.500000 0.370169
#
# Coordination Sequence:
#
# PCOD8270922 Si02
#       6
#    16  16  16  16   8  16
#     4   9  19  34  48  63  84 109 137 169 208 257
#     4   9  16  27  44  65  88 115 146 177 211 250
#     4  10  20  34  50  66  84 105 133 173 219 263
#     4   9  17  28  42  62  88 116 146 178 207 238
#     4   7  10  16  28  54  92 125 150 177 206 235
#     4   8  12  19  35  61  93 125 152 177 205 239
#
# _framework density 16.168823
#
# number of rings (size 3 to 8) (size 9 to 14) (size 15 to 20)
#    0.000    3.182    0.000    2.182    0.000    4.364 
#    0.000    1.818    0.000    1.636    0.000    1.273 
#    0.000    2.182    0.000    0.000    0.000    0.000 
#
# Total GULP energy -545294.342544 kJ/mol
# GULP energy per Si atom -12393.053240 kJ/mol
# Density = 1.613202 g / cm^3
# Si number density = 16.168823 Si / 1000 Ang^3
#
#
#
# Elastic Constant Matrix: (Units=GPa)
#
#
# Indices 1 2 3 4 5 6 
#
# 1 111.8187 36.0381 54.6624 0.0000 0.0000 0.0000
# 2 36.0381 35.7671 27.6460 0.0000 0.0000 0.0000
# 3 54.6624 27.6460 126.3254 0.0000 0.0000 0.0000
# 4 0.0000 0.0000 0.0000 11.3119 0.0000 0.0000
# 5 0.0000 0.0000 0.0000 0.0000 16.0582 0.0000
# 6 0.0000 0.0000 0.0000 0.0000 0.0000 22.1967
#
#
#
# Elastic Compliance Matrix: (Units=1/GPa)
#
#
# Indices 1 2 3 4 5 6 
#
# 1 0.014564 -0.011799 -0.003720 0.000000 0.000000 0.000000
# 2 -0.011799 0.043210 -0.004351 0.000000 0.000000 0.000000
# 3 -0.003720 -0.004351 0.010478 0.000000 0.000000 0.000000
# 4 0.000000 0.000000 0.000000 0.088403 0.000000 0.000000
# 5 0.000000 0.000000 0.000000 0.000000 0.062273 0.000000
# 6 0.000000 0.000000 0.000000 0.000000 0.000000 0.045052
#
#
# Mechanical properties :
#
#
# Convention : Reuss Voigt Hill
#
# Bulk Modulus (GPa) = 35.07239 56.73381 45.90310
# Shear Modulus (GPa) = 15.96298 20.28432 18.12365
#
# Velocity S-wave (km/s) = 3.14549 3.54578 3.35162
# Velocity P-wave (km/s) = 5.91021 7.20611 6.59009
#
# Compressibility (1/GPa) = 0.02851246
#
# Stress axis : x y z
#
# Youngs Moduli (GPa) = 68.66079 23.14259 95.43937
#
# Poissons Ratio (x) = 0.27307 0.35502
# Poissons Ratio (y) = 0.81016 0.41523
# Poissons Ratio (z) = 0.25541 0.10069
#
# Static dielectric constant tensor:
#      x y z
#    x 2.922910 0.000000 0.000000 
#    y 0.000000 2.805980 0.000000 
#    z 0.000000 0.000000 3.400590 
# 
# 
# High freq. dielectric constant tensor:
#      x y z
#    x 1.599880 0.000000 0.000000 
#    y 0.000000 1.592530 0.000000 
#    z 0.000000 0.000000 1.624660 
# 
# From -- ./inp_files/66188.got.cif
#   From: 2010.03.12/outbox.cif.g09.slc.cpg/sg65_34_cif.got.tgz:66188.got - 2010.04.10 20:52:16.
