data_PCOD8270634
_publ_section_title
;
Structure prediction by ZEFSAII (Michael W. Deem and Ramdas Pophale) SiO2 
 PCOD8270634
Probable space group: C M M M
;
_chemical_formula_sum "Si O2"
_cell_formula_units_Z 80
_cell_length_a 18.397481
_cell_length_b 9.499700
_cell_length_c 26.061433
_cell_angle_alpha 90.000000
_cell_angle_beta 90.000000
_cell_angle_gamma 90.000000
_cell_volume 4554.770986
_symmetry_space_group_name_H-M "C M M M"
_symmetry_group_IT_number 65
_symmetry_cell_setting 'orthorhombic'
loop_
_space_group_symop_operation_xyz
x,y,z
-x,-y,z
x,-y,-z
-x,y,-z
-x,-y,-z
x,y,-z
-x,y,z
x,-y,z
1/2+x,1/2+y,z
1/2-x,1/2-y,z
1/2+x,1/2-y,-z
1/2-x,1/2+y,-z
1/2-x,1/2-y,-z
1/2+x,1/2+y,-z
1/2-x,1/2+y,z
1/2+x,1/2-y,z
loop_
_atom_site_type_symbol
_atom_site_label
_atom_site_fract_x
_atom_site_fract_y
_atom_site_fract_z
Si Si1 0.084057 0.163032 0.706525
Si Si2 0.675378 0.834085 0.903240
Si Si3 0.176316 0.836040 0.610634
Si Si4 0.918287 0.333264 0.000000
Si Si5 0.583637 0.836758 0.196430
Si Si6 0.678886 0.340046 0.500000
O O1 0.122614 0.216827 0.654878
O O2 0.113576 0.249660 0.755117
O O3 0.000000 0.194476 0.697990
O O4 0.099613 0.000000 0.717483
O O5 0.750000 0.750000 0.904872
O O6 0.625149 0.781829 0.950004
O O7 0.632619 0.794987 0.851716
O O8 0.691854 0.000000 0.906996
O O9 0.250000 0.750000 0.615316
O O10 0.137617 0.810118 0.554298
O O11 0.194549 0.000000 0.618140
O O12 0.924548 0.500000 0.000000
O O13 0.000000 0.268816 0.000000
O O14 0.500000 0.797984 0.183776
O O15 0.591249 0.000000 0.210019
O O16 0.705393 0.500000 0.500000
O O17 0.750000 0.250000 0.500000
#
# Coordination Sequence:
#
# PCOD8270634 Si02
#       6
#    16  16  16   8  16   8
#     4   9  18  32  48  67  93 123 153 188 232 278
#     4  10  20  33  51  75 101 126 154 193 237 277
#     4   9  17  29  46  67  90 117 151 189 228 273
#     4   9  17  32  55  77  96 125 164 198 228 269
#     4   9  18  33  51  69  90 121 161 196 225 267
#     4   8  14  26  43  63  87 115 147 184 226 270
#
# _framework density 17.564
#
# number of rings (size 3 to 8) (size 9 to 14) (size 15 to 20)
#    0.000    2.900    0.000    0.900    0.000    4.800 
#    0.000    4.500    0.000    5.400    0.000    0.000 
#    0.000   11.200    0.000    0.000    0.000    0.000 
#
# Total GULP energy -495747.824635 kJ/mol
# GULP energy per Si atom -12393.695616 kJ/mol
# Density = 1.752402 g / cm^3
# Si number density = 17.564000 Si / 1000 Ang^3
#
#
#
# Elastic Constant Matrix: (Units=GPa)
#
#
# Indices 1 2 3 4 5 6 
#
# 1 97.8625 38.0429 87.7854 0.0000 0.0000 0.0000
# 2 38.0429 38.2794 55.7158 0.0000 0.0000 0.0000
# 3 87.7854 55.7158 204.5892 0.0000 0.0000 0.0000
# 4 0.0000 0.0000 0.0000 25.4890 0.0000 0.0000
# 5 0.0000 0.0000 0.0000 0.0000 32.7418 0.0000
# 6 0.0000 0.0000 0.0000 0.0000 0.0000 25.8196
#
#
#
# Elastic Compliance Matrix: (Units=1/GPa)
#
#
# Indices 1 2 3 4 5 6 
#
# 1 0.019400 -0.011869 -0.005092 0.000000 0.000000 0.000000
# 2 -0.011869 0.050539 -0.008671 0.000000 0.000000 0.000000
# 3 -0.005092 -0.008671 0.009434 0.000000 0.000000 0.000000
# 4 0.000000 0.000000 0.000000 0.039233 0.000000 0.000000
# 5 0.000000 0.000000 0.000000 0.000000 0.030542 0.000000
# 6 0.000000 0.000000 0.000000 0.000000 0.000000 0.038730
#
#
# Mechanical properties :
#
#
# Convention : Reuss Voigt Hill
#
# Bulk Modulus (GPa) = 35.57391 78.20215 56.88803
# Shear Modulus (GPa) = 20.11983 27.42253 23.77118
#
# Velocity S-wave (km/s) = 3.38822 3.95561 3.68285
# Velocity P-wave (km/s) = 5.96695 8.09217 7.10942
#
# Compressibility (1/GPa) = 0.02811049
#
# Stress axis : x y z
#
# Youngs Moduli (GPa) = 51.54684 19.78655 105.99968
#
# Poissons Ratio (x) = 0.23484 0.53974
# Poissons Ratio (y) = 0.61179 0.91910
# Poissons Ratio (z) = 0.26247 0.17156
#
# Static dielectric constant tensor:
#      x y z
#    x 3.346050 0.000000 0.000000 
#    y 0.000000 3.027490 0.000000 
#    z 0.000000 0.000000 3.801020 
# 
# 
# High freq. dielectric constant tensor:
#      x y z
#    x 1.657750 0.000000 0.000000 
#    y 0.000000 1.663560 0.000000 
#    z 0.000000 0.000000 1.703140 
# 
# From -- ./inp_files/67330.got.cif
#   From: 2010.03.12/outbox.cif.g09.slc.cpg/sg65_34_cif.got.tgz:67330.got - 2010.04.10 20:52:16.
