data_PCOD8270001
_publ_section_title
;
Structure prediction by ZEFSAII (Michael W. Deem and Ramdas Pophale) SiO2 
 PCOD8270001
Probable space group: C M M M
;
_chemical_formula_sum "Si O2"
_cell_formula_units_Z 104
_cell_length_a 26.393912
_cell_length_b 9.436824
_cell_length_c 26.659669
_cell_angle_alpha 90.000000
_cell_angle_beta 90.000000
_cell_angle_gamma 90.000000
_cell_volume 6640.249117
_symmetry_space_group_name_H-M "C M M M"
_symmetry_group_IT_number 65
_symmetry_cell_setting 'orthorhombic'
loop_
_space_group_symop_operation_xyz
x,y,z
-x,-y,z
x,-y,-z
-x,y,-z
-x,-y,-z
x,y,-z
-x,y,z
x,-y,z
1/2+x,1/2+y,z
1/2-x,1/2-y,z
1/2+x,1/2-y,-z
1/2-x,1/2+y,-z
1/2-x,1/2-y,-z
1/2+x,1/2+y,-z
1/2-x,1/2+y,z
1/2+x,1/2-y,z
loop_
_atom_site_type_symbol
_atom_site_label
_atom_site_fract_x
_atom_site_fract_y
_atom_site_fract_z
Si Si1 0.641297 0.333917 0.101136
Si Si2 0.702169 0.660353 0.197942
Si Si3 0.801974 0.834625 0.000000
Si Si4 0.941579 0.664293 0.153824
Si Si5 0.940672 0.162956 0.647338
Si Si6 0.902265 0.835630 0.245999
Si Si7 0.439758 0.840306 0.555038
O O1 0.626996 0.500000 0.104966
O O2 0.682597 0.293068 0.143115
O O3 0.664499 0.292618 0.047810
O O4 0.590883 0.241828 0.110475
O O5 0.720815 0.500000 0.196380
O O6 0.750000 0.750000 0.215185
O O7 0.657634 0.682956 0.238110
O O8 0.750000 0.750000 0.000000
O O9 0.788237 0.000000 0.000000
O O10 0.925160 0.500000 0.158098
O O11 0.933348 0.740110 0.207171
O O12 0.000000 0.677637 0.138207
O O13 0.914326 0.217491 0.698091
O O14 0.917107 0.244934 0.599646
O O15 0.000000 0.191802 0.653144
O O16 0.928466 0.000000 0.637854
O O17 0.918558 0.000000 0.238294
O O18 0.421261 0.786427 0.500000
O O19 0.500000 0.833247 0.556597
O O20 0.420869 0.000000 0.563702
#
# Coordination Sequence:
#
# PCOD8270001 Si02
#       7
#    16  16   8  16  16  16  16
#     4   9  19  34  50  69  92 118 147 176 211 261
#     4   9  17  29  45  64  86 112 140 171 210 256
#     4  10  20  34  53  76  97 117 146 183 223 266
#     4  10  20  32  47  68  91 116 149 185 218 254
#     4   9  16  25  39  59  82 110 144 179 211 245
#     4   9  18  31  45  63  88 117 147 178 216 263
#     4   8  14  24  36  51  76 111 145 175 210 250
#
# _framework density 15.662064000000001
#
# number of rings (size 3 to 8) (size 9 to 14) (size 15 to 20)
#    0.000    2.923    0.000    2.769    0.000    5.846 
#    0.000    3.462    0.000    2.308    0.000    0.000 
#    0.000    0.615    0.000    1.385    0.000    2.462 
#
# Total GULP energy -644695.587617 kJ/mol
# GULP energy per Si atom -12397.992070 kJ/mol
# Density = 1.562642 g / cm^3
# Si number density = 15.662064 Si / 1000 Ang^3
#
#
#
# Elastic Constant Matrix: (Units=GPa)
#
#
# Indices 1 2 3 4 5 6 
#
# 1 65.2070 44.4516 41.4482 0.0000 0.0000 0.0000
# 2 44.4516 74.6986 53.9299 0.0000 0.0000 0.0000
# 3 41.4482 53.9299 143.5832 0.0000 0.0000 0.0000
# 4 0.0000 0.0000 0.0000 22.2050 0.0000 0.0000
# 5 0.0000 0.0000 0.0000 0.0000 13.3527 0.0000
# 6 0.0000 0.0000 0.0000 0.0000 0.0000 25.9186
#
#
#
# Elastic Compliance Matrix: (Units=1/GPa)
#
#
# Indices 1 2 3 4 5 6 
#
# 1 0.026372 -0.013991 -0.002358 0.000000 0.000000 0.000000
# 2 -0.013991 0.025791 -0.005648 0.000000 0.000000 0.000000
# 3 -0.002358 -0.005648 0.009767 0.000000 0.000000 0.000000
# 4 0.000000 0.000000 0.000000 0.045035 0.000000 0.000000
# 5 0.000000 0.000000 0.000000 0.000000 0.074891 0.000000
# 6 0.000000 0.000000 0.000000 0.000000 0.000000 0.038582
#
#
# Mechanical properties :
#
#
# Convention : Reuss Voigt Hill
#
# Bulk Modulus (GPa) = 55.75597 62.57202 59.16400
# Shear Modulus (GPa) = 18.49033 21.87253 20.18143
#
# Velocity S-wave (km/s) = 3.43969 3.74107 3.59354
# Velocity P-wave (km/s) = 7.17300 7.66152 7.42128
#
# Compressibility (1/GPa) = 0.01793530
#
# Stress axis : x y z
#
# Youngs Moduli (GPa) = 37.91838 38.77334 102.38916
#
# Poissons Ratio (x) = 0.54250 0.24141
# Poissons Ratio (y) = 0.53053 0.57831
# Poissons Ratio (z) = 0.08940 0.21900
#
# Static dielectric constant tensor:
#      x y z
#    x 2.722490 0.000000 0.000000 
#    y 0.000000 3.054230 0.000000 
#    z 0.000000 0.000000 3.203080 
# 
# 
# High freq. dielectric constant tensor:
#      x y z
#    x 1.568840 0.000000 0.000000 
#    y 0.000000 1.603430 0.000000 
#    z 0.000000 0.000000 1.599950 
# 
# From -- ./inp_files/76010.got.cif
#   From: 2010.03.12/outbox.cif.g09.slc.cpg/sg65_39_cif.got.tgz:76010.got - 2010.04.10 20:52:16.
