data_PCOD8270612
_publ_section_title
;
Structure prediction by ZEFSAII (Michael W. Deem and Ramdas Pophale) SiO2 
 PCOD8270612
Probable space group: C M M M
;
_chemical_formula_sum "Si O2"
_cell_formula_units_Z 72
_cell_length_a 9.273591
_cell_length_b 21.051673
_cell_length_c 19.628696
_cell_angle_alpha 90.000000
_cell_angle_beta 90.000000
_cell_angle_gamma 90.000000
_cell_volume 3832.004429
_symmetry_space_group_name_H-M "C M M M"
_symmetry_group_IT_number 65
_symmetry_cell_setting 'orthorhombic'
loop_
_space_group_symop_operation_xyz
x,y,z
-x,-y,z
x,-y,-z
-x,y,-z
-x,-y,-z
x,y,-z
-x,y,z
x,-y,z
1/2+x,1/2+y,z
1/2-x,1/2-y,z
1/2+x,1/2-y,-z
1/2-x,1/2+y,-z
1/2-x,1/2-y,-z
1/2+x,1/2+y,-z
1/2-x,1/2+y,z
1/2+x,1/2-y,z
loop_
_atom_site_type_symbol
_atom_site_label
_atom_site_fract_x
_atom_site_fract_y
_atom_site_fract_z
Si Si1 0.670837 0.685400 0.737136
Si Si2 0.335131 0.873009 0.141154
Si Si3 0.845471 0.691474 0.000000
Si Si4 0.161012 0.424999 0.500000
Si Si5 0.828564 0.500000 0.921594
Si Si6 0.832132 0.926805 0.632836
O O1 0.500000 0.698294 0.740138
O O2 0.750000 0.750000 0.710891
O O3 0.730352 0.668174 0.811513
O O4 0.707926 0.623786 0.691199
O O5 0.500000 0.868796 0.168989
O O6 0.278473 0.944014 0.129271
O O7 0.320848 0.850481 0.064896
O O8 0.750000 0.750000 0.000000
O O9 0.000000 0.722943 0.000000
O O10 0.152425 0.500000 0.500000
O O11 0.245170 0.402661 0.567074
O O12 0.000000 0.395412 0.500000
O O13 0.000000 0.500000 0.930465
O O14 0.763872 0.500000 0.000000
O O15 0.000000 0.923718 0.614533
O O16 0.790713 0.000000 0.653727
#
# Coordination Sequence:
#
# PCOD8270612 Si02
#       6
#    16  16   8   8   8  16
#     4  11  24  40  58  81 114 152 191 235 281 335
#     4  10  20  35  56  80 108 143 183 229 282 337
#     4  10  20  33  51  73  99 136 183 228 273 332
#     4   9  17  31  56  91 122 145 179 229 274 319
#     4   9  16  32  57  83 109 138 177 228 285 343
#     4   9  19  37  60  84 113 151 188 224 274 333
#
# _framework density 18.789124000000001
#
# number of rings (size 3 to 8) (size 9 to 14) (size 15 to 20)
#    0.000    2.222    1.111    1.667    1.556    5.778 
#    0.000    0.556    0.000    0.667    0.000    0.000 
#    0.000    0.000    0.000    0.000    0.000    0.000 
#
# Total GULP energy -446015.049973 kJ/mol
# GULP energy per Si atom -12389.306944 kJ/mol
# Density = 1.874636 g / cm^3
# Si number density = 18.789124 Si / 1000 Ang^3
#
#
#
# Elastic Constant Matrix: (Units=GPa)
#
#
# Indices 1 2 3 4 5 6 
#
# 1 84.5566 51.5572 52.5251 0.0000 0.0000 0.0000
# 2 51.5572 120.2565 36.7640 0.0000 0.0000 0.0000
# 3 52.5251 36.7640 93.3278 0.0000 0.0000 0.0000
# 4 0.0000 0.0000 0.0000 12.3765 0.0000 0.0000
# 5 0.0000 0.0000 0.0000 0.0000 20.5702 0.0000
# 6 0.0000 0.0000 0.0000 0.0000 0.0000 22.3493
#
#
#
# Elastic Compliance Matrix: (Units=1/GPa)
#
#
# Indices 1 2 3 4 5 6 
#
# 1 0.021745 -0.006345 -0.009738 0.000000 0.000000 0.000000
# 2 -0.006345 0.011306 -0.000882 0.000000 0.000000 0.000000
# 3 -0.009738 -0.000882 0.016543 0.000000 0.000000 0.000000
# 4 0.000000 0.000000 0.000000 0.080798 0.000000 0.000000
# 5 0.000000 0.000000 0.000000 0.000000 0.048614 0.000000
# 6 0.000000 0.000000 0.000000 0.000000 0.000000 0.044744
#
#
# Mechanical properties :
#
#
# Convention : Reuss Voigt Hill
#
# Bulk Modulus (GPa) = 63.85111 64.42594 64.13853
# Shear Modulus (GPa) = 19.01840 21.54549 20.28195
#
# Velocity S-wave (km/s) = 3.18496 3.38997 3.28907
# Velocity P-wave (km/s) = 6.89798 7.04882 6.97381
#
# Compressibility (1/GPa) = 0.01566143
#
# Stress axis : x y z
#
# Youngs Moduli (GPa) = 45.98811 88.45043 60.44739
#
# Poissons Ratio (x) = 0.56125 0.58866
# Poissons Ratio (y) = 0.29181 0.05334
# Poissons Ratio (z) = 0.44785 0.07805
#
# Static dielectric constant tensor:
#      x y z
#    x 3.477180 0.000000 0.000000 
#    y 0.000000 3.903060 0.000000 
#    z 0.000000 0.000000 3.395500 
# 
# 
# High freq. dielectric constant tensor:
#      x y z
#    x 1.718090 0.000000 0.000000 
#    y 0.000000 1.734580 0.000000 
#    z 0.000000 0.000000 1.725340 
# 
# From -- ./inp_files/59395.got.cif
#   From: 2010.03.12/outbox.cif.g09.slc.cpg/sg65_30_cif.got.tgz:59395.got - 2010.04.10 20:52:16.
