data_PCOD8270797
_publ_section_title
;
Structure prediction by ZEFSAII (Michael W. Deem and Ramdas Pophale) SiO2 
 PCOD8270797
Probable space group: C M M M
;
_chemical_formula_sum "Si O2"
_cell_formula_units_Z 80
_cell_length_a 19.560005
_cell_length_b 9.129703
_cell_length_c 24.843346
_cell_angle_alpha 90.000000
_cell_angle_beta 90.000000
_cell_angle_gamma 90.000000
_cell_volume 4436.451101
_symmetry_space_group_name_H-M "C M M M"
_symmetry_group_IT_number 65
_symmetry_cell_setting 'orthorhombic'
loop_
_space_group_symop_operation_xyz
x,y,z
-x,-y,z
x,-y,-z
-x,y,-z
-x,-y,-z
x,y,-z
-x,y,z
x,-y,z
1/2+x,1/2+y,z
1/2-x,1/2-y,z
1/2+x,1/2-y,-z
1/2-x,1/2+y,-z
1/2-x,1/2-y,-z
1/2+x,1/2+y,-z
1/2-x,1/2+y,z
1/2+x,1/2-y,z
loop_
_atom_site_type_symbol
_atom_site_label
_atom_site_fract_x
_atom_site_fract_y
_atom_site_fract_z
Si Si1 0.818537 0.329180 0.437799
Si Si2 0.081132 0.162145 0.757646
Si Si3 0.420522 0.670239 0.362016
Si Si4 0.580673 0.168645 0.861089
Si Si5 0.818756 0.829699 0.937107
O O1 0.833082 0.293421 0.500000
O O2 0.809231 0.500000 0.427360
O O3 0.750000 0.250000 0.417785
O O4 0.882206 0.270773 0.404399
O O5 0.106218 0.209755 0.698222
O O6 0.106721 0.276060 0.802671
O O7 0.000000 0.155863 0.756195
O O8 0.109426 0.000000 0.771940
O O9 0.500000 0.707471 0.367837
O O10 0.406651 0.500000 0.374322
O O11 0.500000 0.192698 0.867494
O O12 0.616190 0.261601 0.907571
O O13 0.601341 0.000000 0.866919
O O14 0.750000 0.750000 0.917180
O O15 0.812446 0.000000 0.922934
O O16 0.830548 0.802916 0.000000
#
# Coordination Sequence:
#
# PCOD8270797 Si02
#       5
#    16  16  16  16  16
#     4  10  21  36  53  73 100 135 172 211 256 304
#     4   8  15  30  51  74 102 135 169 206 250 299
#     4   9  18  33  54  79 105 134 168 207 252 301
#     4  10  20  33  52  79 108 137 170 209 252 298
#     4  10  21  37  56  76 101 135 172 211 257 306
#
# _framework density 18.032432
#
# number of rings (size 3 to 8) (size 9 to 14) (size 15 to 20)
#    0.000    2.600    0.000    3.000    0.000    5.600 
#    0.000    7.000    0.000    4.800    0.000    0.000 
#    0.000    0.000    0.000    0.000    0.000    0.000 
#
# Total GULP energy -496012.175872 kJ/mol
# GULP energy per Si atom -12400.304397 kJ/mol
# Density = 1.799139 g / cm^3
# Si number density = 18.032432 Si / 1000 Ang^3
#
#
#
# Elastic Constant Matrix: (Units=GPa)
#
#
# Indices 1 2 3 4 5 6 
#
# 1 63.3804 53.2075 49.1764 0.0000 0.0000 0.0000
# 2 53.2075 120.1118 66.6099 0.0000 0.0000 0.0000
# 3 49.1764 66.6099 90.7014 0.0000 0.0000 0.0000
# 4 0.0000 0.0000 0.0000 34.8751 0.0000 0.0000
# 5 0.0000 0.0000 0.0000 0.0000 6.1843 0.0000
# 6 0.0000 0.0000 0.0000 0.0000 0.0000 33.5002
#
#
#
# Elastic Compliance Matrix: (Units=1/GPa)
#
#
# Indices 1 2 3 4 5 6 
#
# 1 0.030662 -0.007362 -0.011218 0.000000 0.000000 0.000000
# 2 -0.007362 0.015813 -0.007622 0.000000 0.000000 0.000000
# 3 -0.011218 -0.007622 0.022705 0.000000 0.000000 0.000000
# 4 0.000000 0.000000 0.000000 0.028674 0.000000 0.000000
# 5 0.000000 0.000000 0.000000 0.000000 0.161700 0.000000
# 6 0.000000 0.000000 0.000000 0.000000 0.000000 0.029851
#
#
# Mechanical properties :
#
#
# Convention : Reuss Voigt Hill
#
# Bulk Modulus (GPa) = 59.60497 68.02014 63.81255
# Shear Modulus (GPa) = 14.39265 21.92523 18.15894
#
# Velocity S-wave (km/s) = 2.82823 3.49073 3.17679
# Velocity P-wave (km/s) = 6.61749 7.35186 6.99432
#
# Compressibility (1/GPa) = 0.01677713
#
# Stress axis : x y z
#
# Youngs Moduli (GPa) = 32.61411 63.23725 44.04363
#
# Poissons Ratio (x) = 0.46552 0.49408
# Poissons Ratio (y) = 0.24009 0.33570
# Poissons Ratio (z) = 0.36586 0.48199
#
# Static dielectric constant tensor:
#      x y z
#    x 3.088210 0.000000 0.000000 
#    y 0.000000 3.443890 0.000000 
#    z 0.000000 0.000000 3.457260 
# 
# 
# High freq. dielectric constant tensor:
#      x y z
#    x 1.675480 0.000000 0.000000 
#    y 0.000000 1.706670 0.000000 
#    z 0.000000 0.000000 1.703300 
# 
# From -- ./inp_files/72787.got.cif
#   From: 2010.03.12/outbox.cif.g09.slc.cpg/sg65_37_cif.got.tgz:72787.got - 2010.04.10 20:52:16.
