data_PCOD8270095
_publ_section_title
;
Structure prediction by ZEFSAII (Michael W. Deem and Ramdas Pophale) SiO2 
 PCOD8270095
Probable space group: C M M M
;
_chemical_formula_sum "Si O2"
_cell_formula_units_Z 80
_cell_length_a 22.227374
_cell_length_b 9.843346
_cell_length_c 21.974488
_cell_angle_alpha 90.000000
_cell_angle_beta 90.000000
_cell_angle_gamma 90.000000
_cell_volume 4807.836310
_symmetry_space_group_name_H-M "C M M M"
_symmetry_group_IT_number 65
_symmetry_cell_setting 'orthorhombic'
loop_
_space_group_symop_operation_xyz
x,y,z
-x,-y,z
x,-y,-z
-x,y,-z
-x,-y,-z
x,y,-z
-x,y,z
x,-y,z
1/2+x,1/2+y,z
1/2-x,1/2-y,z
1/2+x,1/2-y,-z
1/2-x,1/2+y,-z
1/2-x,1/2-y,-z
1/2+x,1/2+y,-z
1/2-x,1/2+y,z
1/2+x,1/2-y,z
loop_
_atom_site_type_symbol
_atom_site_label
_atom_site_fract_x
_atom_site_fract_y
_atom_site_fract_z
Si Si1 0.318777 0.500000 0.932633
Si Si2 0.174966 0.500000 0.069887
Si Si3 0.821485 0.245839 0.856471
Si Si4 0.691370 0.339830 0.274118
Si Si5 0.305637 0.652874 0.500000
Si Si6 0.000000 0.661655 0.427843
Si Si7 0.391861 0.344969 0.388761
O O1 0.246715 0.500000 0.933520
O O2 0.346317 0.626830 0.898119
O O3 0.344948 0.500000 0.000000
O O4 0.150577 0.376552 0.110762
O O5 0.149875 0.500000 0.000000
O O6 0.750000 0.250000 0.857560
O O7 0.840205 0.220865 0.786556
O O8 0.709466 0.500000 0.265798
O O9 0.750000 0.250000 0.291068
O O10 0.640976 0.322374 0.324986
O O11 0.280901 0.500000 0.500000
O O12 0.250000 0.750000 0.500000
O O13 0.344017 0.683151 0.559213
O O14 0.943228 0.732767 0.396240
O O15 0.000000 0.500000 0.414535
O O16 0.000000 0.690609 0.500000
O O17 0.417222 0.500000 0.393705
#
# Coordination Sequence:
#
# PCOD8270095 Si02
#       7
#     8   8  16  16   8   8  16
#     4   9  14  22  36  54  80 118 161 206 242 278
#     4   9  16  24  36  56  82 120 169 210 244 284
#     4   9  16  25  37  56  86 123 166 205 242 290
#     4  10  20  32  48  71 100 136 174 207 249 303
#     4  10  20  33  52  77 105 134 168 202 243 288
#     4  11  23  39  59  83 103 123 162 213 262 305
#     4  10  21  37  56  76 100 135 170 206 251 306
#
# _framework density 16.639502
#
# number of rings (size 3 to 8) (size 9 to 14) (size 15 to 20)
#    0.000    2.300    2.000    1.500    4.200    4.400 
#    0.000    0.000    0.000    0.000    0.000    0.000 
#    0.000    0.000    0.000    5.400    0.000    2.500 
#
# Total GULP energy -495698.746908 kJ/mol
# GULP energy per Si atom -12392.468673 kJ/mol
# Density = 1.660163 g / cm^3
# Si number density = 16.639502 Si / 1000 Ang^3
#
#
#
# Elastic Constant Matrix: (Units=GPa)
#
#
# Indices 1 2 3 4 5 6 
#
# 1 58.1673 53.8407 39.2218 0.0000 0.0000 0.0000
# 2 53.8407 150.9195 73.7574 0.0000 0.0000 0.0000
# 3 39.2218 73.7574 148.6253 0.0000 0.0000 0.0000
# 4 0.0000 0.0000 0.0000 32.1466 0.0000 0.0000
# 5 0.0000 0.0000 0.0000 0.0000 -3.6702 0.0000
# 6 0.0000 0.0000 0.0000 0.0000 0.0000 23.6342
#
#
#
# Elastic Compliance Matrix: (Units=1/GPa)
#
#
# Indices 1 2 3 4 5 6 
#
# 1 0.026681 -0.008023 -0.003059 0.000000 0.000000 0.000000
# 2 -0.008023 0.011160 -0.003421 0.000000 0.000000 0.000000
# 3 -0.003059 -0.003421 0.009233 0.000000 0.000000 0.000000
# 4 0.000000 0.000000 0.000000 0.031107 0.000000 0.000000
# 5 0.000000 0.000000 0.000000 0.000000 -0.272464 0.000000
# 6 0.000000 0.000000 0.000000 0.000000 0.000000 0.042312
#
#
# Mechanical properties :
#
#
# Convention : Reuss Voigt Hill
#
# Bulk Modulus (GPa) = 55.34860 76.81689 66.08274
# Shear Modulus (GPa) = -42.75737 23.14826 -9.80456
#
# Velocity S-wave (km/s) = -5.07465 3.73388 -2.43005
# Velocity P-wave (km/s) = 1.00026 8.05324 5.65041
#
# Compressibility (1/GPa) = 0.01806730
#
# Stress axis : x y z
#
# Youngs Moduli (GPa) = 37.47937 89.60262 108.30139
#
# Poissons Ratio (x) = 0.71892 0.33134
# Poissons Ratio (y) = 0.30071 0.37051
# Poissons Ratio (z) = 0.11466 0.30654
#
# Static dielectric constant tensor:
#      x y z
#    x 2.601010 0.000000 0.000000 
#    y 0.000000 3.424090 0.000000 
#    z 0.000000 0.000000 3.496020 
# 
# 
# High freq. dielectric constant tensor:
#      x y z
#    x 1.569370 0.000000 0.000000 
#    y 0.000000 1.659620 0.000000 
#    z 0.000000 0.000000 1.661700 
# 
# From -- ./inp_files/60127.got.cif
#   From: 2010.03.12/outbox.cif.g09.slc.cpg/sg65_31_cif.got.tgz:60127.got - 2010.04.10 20:52:16.
