data_PCOD8270324
_publ_section_title
;
Structure prediction by ZEFSAII (Michael W. Deem and Ramdas Pophale) SiO2 
 PCOD8270324
Probable space group: C M M M
;
_chemical_formula_sum "Si O2"
_cell_formula_units_Z 120
_cell_length_a 28.064597
_cell_length_b 28.108641
_cell_length_c 8.856731
_cell_angle_alpha 90.000000
_cell_angle_beta 90.000000
_cell_angle_gamma 90.000000
_cell_volume 6986.700286
_symmetry_space_group_name_H-M "C M M M"
_symmetry_group_IT_number 65
_symmetry_cell_setting 'orthorhombic'
loop_
_space_group_symop_operation_xyz
x,y,z
-x,-y,z
x,-y,-z
-x,y,-z
-x,-y,-z
x,y,-z
-x,y,z
x,-y,z
1/2+x,1/2+y,z
1/2-x,1/2-y,z
1/2+x,1/2-y,-z
1/2-x,1/2+y,-z
1/2-x,1/2-y,-z
1/2+x,1/2+y,-z
1/2-x,1/2+y,z
1/2+x,1/2-y,z
loop_
_atom_site_type_symbol
_atom_site_label
_atom_site_fract_x
_atom_site_fract_y
_atom_site_fract_z
Si Si1 0.387504 0.636773 0.821689
Si Si2 0.053816 0.054339 0.322183
Si Si3 0.306585 0.206452 0.178118
Si Si4 0.055599 0.780001 0.328390
Si Si5 0.795336 0.812659 0.179300
Si Si6 0.443031 0.000000 0.830035
Si Si7 0.944320 0.407121 0.332784
Si Si8 0.089906 0.314933 0.177654
O O1 0.406768 0.587951 0.752163
O O2 0.419708 0.681148 0.775788
O O3 0.333324 0.647829 0.762604
O O4 0.389217 0.631263 0.000000
O O5 0.056746 0.061436 0.500000
O O6 0.000000 0.067161 0.267548
O O7 0.065708 0.000000 0.277462
O O8 0.259223 0.178104 0.236447
O O9 0.309675 0.260350 0.241657
O O10 0.354614 0.179524 0.225583
O O11 0.301866 0.210341 0.000000
O O12 0.074454 0.783800 0.500000
O O13 0.065339 0.727700 0.266044
O O14 0.000000 0.790524 0.322671
O O15 0.798265 0.812884 0.000000
O O16 0.422167 0.954004 0.744013
O O17 0.500000 0.000000 0.832429
O O18 0.422960 0.000000 0.000000
O O19 0.921966 0.399378 0.500000
O O20 0.935593 0.363054 0.223631
O O21 0.000000 0.414908 0.349452
O O22 0.084029 0.305797 0.000000
#
# Coordination Sequence:
#
# PCOD8270324 Si02
#       8
#    16  16  16  16  16   8  16  16
#     4  11  20  31  51  78 100 123 161 208 250 287
#     4   9  19  36  54  71  97 135 171 200 241 301
#     4   8  14  27  47  69  96 127 158 195 239 286
#     4  11  23  35  45  62  97 141 171 192 231 292
#     4   8  14  27  47  71  97 124 155 194 242 290
#     4   9  17  31  51  73  93 117 159 209 241 267
#     4  10  20  33  48  68  98 134 163 191 239 297
#     4  11  20  31  49  73  96 124 165 208 243 277
#
# _framework density 17.17549
#
# number of rings (size 3 to 8) (size 9 to 14) (size 15 to 20)
#    0.000    2.333    1.333    3.800    0.000    6.400 
#    0.000    0.667    0.000    4.000    1.733    0.000 
#    0.000    0.000    0.000    0.000    0.000    0.000 
#
# Total GULP energy -743632.544360 kJ/mol
# GULP energy per Si atom -12393.875739 kJ/mol
# Density = 1.713640 g / cm^3
# Si number density = 17.175490 Si / 1000 Ang^3
#
#
#
# Elastic Constant Matrix: (Units=GPa)
#
#
# Indices 1 2 3 4 5 6 
#
# 1 61.6866 26.1484 21.3556 0.0000 0.0000 0.0000
# 2 26.1484 90.4868 15.0414 0.0000 0.0000 0.0000
# 3 21.3556 15.0414 37.7269 0.0000 0.0000 0.0000
# 4 0.0000 0.0000 0.0000 26.2443 0.0000 0.0000
# 5 0.0000 0.0000 0.0000 0.0000 6.8971 0.0000
# 6 0.0000 0.0000 0.0000 0.0000 0.0000 19.0549
#
#
#
# Elastic Compliance Matrix: (Units=1/GPa)
#
#
# Indices 1 2 3 4 5 6 
#
# 1 0.021778 -0.004545 -0.010516 0.000000 0.000000 0.000000
# 2 -0.004545 0.012784 -0.002524 0.000000 0.000000 0.000000
# 3 -0.010516 -0.002524 0.033465 0.000000 0.000000 0.000000
# 4 0.000000 0.000000 0.000000 0.038104 0.000000 0.000000
# 5 0.000000 0.000000 0.000000 0.000000 0.144988 0.000000
# 6 0.000000 0.000000 0.000000 0.000000 0.000000 0.052480
#
#
# Mechanical properties :
#
#
# Convention : Reuss Voigt Hill
#
# Bulk Modulus (GPa) = 30.43431 34.99901 32.71666
# Shear Modulus (GPa) = 14.29710 18.92959 16.61334
#
# Velocity S-wave (km/s) = 2.88829 3.32343 3.11347
# Velocity P-wave (km/s) = 5.37411 5.92861 5.65816
#
# Compressibility (1/GPa) = 0.03285766
#
# Stress axis : x y z
#
# Youngs Moduli (GPa) = 45.91751 78.22023 29.88191
#
# Poissons Ratio (x) = 0.35554 0.31422
# Poissons Ratio (y) = 0.20871 0.07542
# Poissons Ratio (z) = 0.48285 0.19743
#
# Static dielectric constant tensor:
#      x y z
#    x 3.475280 0.000000 0.000000 
#    y 0.000000 3.153350 0.000000 
#    z 0.000000 0.000000 3.144940 
# 
# 
# High freq. dielectric constant tensor:
#      x y z
#    x 1.651220 0.000000 0.000000 
#    y 0.000000 1.649100 0.000000 
#    z 0.000000 0.000000 1.652020 
# 
# From -- ./inp_files/17063.got.cif
#   From: 2010.03.12/outbox.cif.g09.slc.cpg/sg65_9_cif.got.tgz:17063.got - 2010.04.10 20:52:16.
