data_PCOD8270814
_publ_section_title
;
Structure prediction by ZEFSAII (Michael W. Deem and Ramdas Pophale) SiO2 
 PCOD8270814
Probable space group: C M M M
;
_chemical_formula_sum "Si O2"
_cell_formula_units_Z 80
_cell_length_a 19.335077
_cell_length_b 27.132973
_cell_length_c 8.047531
_cell_angle_alpha 90.000000
_cell_angle_beta 90.000000
_cell_angle_gamma 90.000000
_cell_volume 4221.880602
_symmetry_space_group_name_H-M "C M M M"
_symmetry_group_IT_number 65
_symmetry_cell_setting 'orthorhombic'
loop_
_space_group_symop_operation_xyz
x,y,z
-x,-y,z
x,-y,-z
-x,y,-z
-x,-y,-z
x,y,-z
-x,y,z
x,-y,z
1/2+x,1/2+y,z
1/2-x,1/2-y,z
1/2+x,1/2-y,-z
1/2-x,1/2+y,-z
1/2-x,1/2-y,-z
1/2+x,1/2+y,-z
1/2-x,1/2+y,z
1/2+x,1/2-y,z
loop_
_atom_site_type_symbol
_atom_site_label
_atom_site_fract_x
_atom_site_fract_y
_atom_site_fract_z
Si Si1 0.582501 0.445105 0.500000
Si Si2 0.077708 0.395262 0.305596
Si Si3 0.678029 0.811379 0.303582
Si Si4 0.581717 0.000000 0.188234
Si Si5 0.418880 0.385341 0.815468
Si Si6 0.166821 0.799349 0.696856
O O1 0.612363 0.500000 0.500000
O O2 0.500000 0.445086 0.500000
O O3 0.611424 0.419679 0.331781
O O4 0.073036 0.386617 0.500000
O O5 0.128293 0.353702 0.225570
O O6 0.109651 0.449702 0.272116
O O7 0.000000 0.390280 0.228289
O O8 0.676104 0.815290 0.500000
O O9 0.757249 0.817856 0.245685
O O10 0.652914 0.757091 0.249480
O O11 0.500000 0.000000 0.208450
O O12 0.606824 0.000000 0.000000
O O13 0.500000 0.380534 0.792803
O O14 0.388493 0.330943 0.796878
O O15 0.401014 0.406512 0.000000
O O16 0.157163 0.805822 0.500000
#
# Coordination Sequence:
#
# PCOD8270814 Si02
#       6
#     8  16  16   8  16  16
#     4   9  18  34  56  79 102 134 171 207 260 316
#     4   9  16  28  47  71  96 124 163 207 249 295
#     4   8  16  29  49  75  99 132 173 210 249 297
#     4   9  17  29  45  65  91 125 160 199 252 301
#     4  10  20  33  52  80 108 134 170 215 259 307
#     4   9  16  31  52  72 101 138 173 207 250 308
#
# _framework density 18.948900999999999
#
# number of rings (size 3 to 8) (size 9 to 14) (size 15 to 20)
#    0.000    3.000    1.000    1.500    0.000    2.400 
#    0.000    8.000    2.200    2.400    0.000    0.000 
#    0.000    0.000    0.000    0.000    0.000    0.000 
#
# Total GULP energy -495693.385016 kJ/mol
# GULP energy per Si atom -12392.334625 kJ/mol
# Density = 1.890577 g / cm^3
# Si number density = 18.948901 Si / 1000 Ang^3
#
#
#
# Elastic Constant Matrix: (Units=GPa)
#
#
# Indices 1 2 3 4 5 6 
#
# 1 36.2035 54.2142 25.2634 0.0000 0.0000 0.0000
# 2 54.2142 157.2854 43.8261 0.0000 0.0000 0.0000
# 3 25.2634 43.8261 80.9108 0.0000 0.0000 0.0000
# 4 0.0000 0.0000 0.0000 7.9404 0.0000 0.0000
# 5 0.0000 0.0000 0.0000 0.0000 11.7062 0.0000
# 6 0.0000 0.0000 0.0000 0.0000 0.0000 21.3090
#
#
#
# Elastic Compliance Matrix: (Units=1/GPa)
#
#
# Indices 1 2 3 4 5 6 
#
# 1 0.062442 -0.018950 -0.009232 0.000000 0.000000 0.000000
# 2 -0.018950 0.013239 -0.001254 0.000000 0.000000 0.000000
# 3 -0.009232 -0.001254 0.015921 0.000000 0.000000 0.000000
# 4 0.000000 0.000000 0.000000 0.125939 0.000000 0.000000
# 5 0.000000 0.000000 0.000000 0.000000 0.085425 0.000000
# 6 0.000000 0.000000 0.000000 0.000000 0.000000 0.046929
#
#
# Mechanical properties :
#
#
# Convention : Reuss Voigt Hill
#
# Bulk Modulus (GPa) = 30.55385 57.88967 44.22176
# Shear Modulus (GPa) = 11.91392 18.26419 15.08905
#
# Velocity S-wave (km/s) = 2.51019 3.10799 2.82494
# Velocity P-wave (km/s) = 4.95588 6.59516 5.83339
#
# Compressibility (1/GPa) = 0.03272910
#
# Stress axis : x y z
#
# Youngs Moduli (GPa) = 16.01492 75.53277 62.80940
#
# Poissons Ratio (x) = 1.43138 0.57986
# Poissons Ratio (y) = 0.30349 0.07877
# Poissons Ratio (z) = 0.14785 0.09473
#
# Static dielectric constant tensor:
#      x y z
#    x 3.432250 0.000000 0.000000 
#    y 0.000000 3.753300 0.000000 
#    z 0.000000 0.000000 3.345380 
# 
# 
# High freq. dielectric constant tensor:
#      x y z
#    x 1.703880 0.000000 0.000000 
#    y 0.000000 1.739750 0.000000 
#    z 0.000000 0.000000 1.719520 
# 
# From -- ./inp_files/12109.got.cif
#   From: 2010.03.12/outbox.cif.g09.slc.cpg/sg65_7_cif.got.tgz:12109.got - 2010.04.10 20:52:16.
