data_PCOD8270851
_publ_section_title
;
Structure prediction by ZEFSAII (Michael W. Deem and Ramdas Pophale) SiO2 
 PCOD8270851
Probable space group: C M M M
;
_chemical_formula_sum "Si O2"
_cell_formula_units_Z 88
_cell_length_a 30.608530
_cell_length_b 8.965790
_cell_length_c 17.329004
_cell_angle_alpha 90.000000
_cell_angle_beta 90.000000
_cell_angle_gamma 90.000000
_cell_volume 4755.592540
_symmetry_space_group_name_H-M "C M M M"
_symmetry_group_IT_number 65
_symmetry_cell_setting 'orthorhombic'
loop_
_space_group_symop_operation_xyz
x,y,z
-x,-y,z
x,-y,-z
-x,y,-z
-x,-y,-z
x,y,-z
-x,y,z
x,-y,z
1/2+x,1/2+y,z
1/2-x,1/2-y,z
1/2+x,1/2-y,-z
1/2-x,1/2+y,-z
1/2-x,1/2-y,-z
1/2+x,1/2+y,-z
1/2-x,1/2+y,z
1/2+x,1/2-y,z
loop_
_atom_site_type_symbol
_atom_site_label
_atom_site_fract_x
_atom_site_fract_y
_atom_site_fract_z
Si Si1 0.950803 0.170905 0.590997
Si Si2 0.827167 0.175309 0.915500
Si Si3 0.794653 0.177539 0.750967
Si Si4 0.590701 0.169809 0.860456
Si Si5 0.377908 0.170504 0.310572
Si Si6 0.000000 0.677360 0.913744
O O1 0.945844 0.187288 0.500000
O O2 0.912304 0.268368 0.627667
O O3 0.000000 0.224179 0.615425
O O4 0.944354 0.000000 0.616638
O O5 0.800678 0.234083 0.840417
O O6 0.875779 0.238728 0.912315
O O7 0.830439 0.000000 0.909081
O O8 0.806710 0.220991 0.000000
O O9 0.750000 0.250000 0.720472
O O10 0.833103 0.234631 0.694445
O O11 0.792223 0.000000 0.745604
O O12 0.598985 0.183324 0.770774
O O13 0.542951 0.240355 0.872218
O O14 0.593405 0.000000 0.889636
O O15 0.366200 0.000000 0.331653
O O16 0.000000 0.500000 0.909349
O O17 0.000000 0.737330 0.000000
#
# Coordination Sequence:
#
# PCOD8270851 Si02
#       6
#    16  16  16  16  16   8
#     4   9  19  36  57  82 113 147 179 210 250 304
#     4   9  18  32  48  67  95 129 166 215 271 319
#     4  10  20  35  54  75 103 136 176 221 269 321
#     4   9  18  30  45  66  93 129 172 214 256 306
#     4  10  20  33  53  79 107 138 175 217 262 310
#     4   9  16  26  41  61  88 125 168 212 255 295
#
# _framework density 18.504529000000002
#
# number of rings (size 3 to 8) (size 9 to 14) (size 15 to 20)
#    0.000    2.636    0.000    2.182    1.273    3.636 
#    0.000    1.364    0.000    2.182    0.000    0.000 
#    0.000    0.000    0.000    0.000    0.000    0.000 
#
# Total GULP energy -545310.372159 kJ/mol
# GULP energy per Si atom -12393.417549 kJ/mol
# Density = 1.846241 g / cm^3
# Si number density = 18.504529 Si / 1000 Ang^3
#
#
#
# Elastic Constant Matrix: (Units=GPa)
#
#
# Indices 1 2 3 4 5 6 
#
# 1 139.2735 40.5405 33.1535 0.0000 0.0000 0.0000
# 2 40.5405 51.9219 27.6169 0.0000 0.0000 0.0000
# 3 33.1535 27.6169 45.6020 0.0000 0.0000 0.0000
# 4 0.0000 0.0000 0.0000 22.5408 0.0000 0.0000
# 5 0.0000 0.0000 0.0000 0.0000 18.5781 0.0000
# 6 0.0000 0.0000 0.0000 0.0000 0.0000 30.9468
#
#
#
# Elastic Compliance Matrix: (Units=1/GPa)
#
#
# Indices 1 2 3 4 5 6 
#
# 1 0.009683 -0.005629 -0.003630 0.000000 0.000000 0.000000
# 2 -0.005629 0.031684 -0.015096 0.000000 0.000000 0.000000
# 3 -0.003630 -0.015096 0.033710 0.000000 0.000000 0.000000
# 4 0.000000 0.000000 0.000000 0.044364 0.000000 0.000000
# 5 0.000000 0.000000 0.000000 0.000000 0.053827 0.000000
# 6 0.000000 0.000000 0.000000 0.000000 0.000000 0.032314
#
#
# Mechanical properties :
#
#
# Convention : Reuss Voigt Hill
#
# Bulk Modulus (GPa) = 37.92670 48.82434 43.37552
# Shear Modulus (GPa) = 19.00549 23.44557 21.22553
#
# Velocity S-wave (km/s) = 3.20827 3.56338 3.39048
# Velocity P-wave (km/s) = 5.85358 6.58579 6.23045
#
# Compressibility (1/GPa) = 0.02636665
#
# Stress axis : x y z
#
# Youngs Moduli (GPa) = 103.27399 31.56132 29.66452
#
# Poissons Ratio (x) = 0.17767 0.10770
# Poissons Ratio (y) = 0.58137 0.44780
# Poissons Ratio (z) = 0.37494 0.47644
#
# Static dielectric constant tensor:
#      x y z
#    x 3.558250 0.000000 0.000000 
#    y 0.000000 3.328420 0.000000 
#    z 0.000000 0.000000 3.321700 
# 
# 
# High freq. dielectric constant tensor:
#      x y z
#    x 1.722080 0.000000 0.000000 
#    y 0.000000 1.707240 0.000000 
#    z 0.000000 0.000000 1.698620 
# 
# From -- ./inp_files/57996.got.cif
#   From: 2010.03.12/outbox.cif.g09.slc.cpg/sg65_29_cif.got.tgz:57996.got - 2010.04.10 20:52:16.
