data_PCOD8270278
_publ_section_title
;
Structure prediction by ZEFSAII (Michael W. Deem and Ramdas Pophale) SiO2 
 PCOD8270278
Probable space group: C M M M
;
_chemical_formula_sum "Si O2"
_cell_formula_units_Z 112
_cell_length_a 14.460000
_cell_length_b 27.436495
_cell_length_c 14.111402
_cell_angle_alpha 90.000000
_cell_angle_beta 90.000000
_cell_angle_gamma 90.000000
_cell_volume 5598.440755
_symmetry_space_group_name_H-M "C M M M"
_symmetry_group_IT_number 65
_symmetry_cell_setting 'orthorhombic'
loop_
_space_group_symop_operation_xyz
x,y,z
-x,-y,z
x,-y,-z
-x,y,-z
-x,-y,-z
x,y,-z
-x,y,z
x,-y,z
1/2+x,1/2+y,z
1/2-x,1/2-y,z
1/2+x,1/2-y,-z
1/2-x,1/2+y,-z
1/2-x,1/2-y,-z
1/2+x,1/2+y,-z
1/2-x,1/2+y,z
1/2+x,1/2-y,z
loop_
_atom_site_type_symbol
_atom_site_label
_atom_site_fract_x
_atom_site_fract_y
_atom_site_fract_z
Si Si1 0.653484 0.269698 0.796127
Si Si2 0.891398 0.265680 0.395378
Si Si3 0.599576 0.178326 0.108389
Si Si4 0.106067 0.056528 0.776221
Si Si5 0.793388 0.136236 0.112072
Si Si6 0.263769 0.555949 0.608003
Si Si7 0.397894 0.875057 0.387763
O O1 0.750000 0.250000 0.835127
O O2 0.650030 0.272315 0.680904
O O3 0.583340 0.228884 0.834236
O O4 0.639426 0.323292 0.839591
O O5 0.848431 0.255546 0.500000
O O6 0.867848 0.320336 0.358925
O O7 0.000000 0.258689 0.401993
O O8 0.500000 0.150454 0.119244
O O9 0.685603 0.144694 0.143657
O O10 0.618723 0.192545 0.000000
O O11 0.170145 0.084422 0.851695
O O12 0.145121 0.065676 0.670396
O O13 0.000000 0.074694 0.778794
O O14 0.112373 0.000000 0.803962
O O15 0.805189 0.138274 0.000000
O O16 0.287806 0.570902 0.500000
O O17 0.232193 0.500000 0.613809
O O18 0.178629 0.587354 0.650183
O O19 0.404743 0.878274 0.500000
O O20 0.500000 0.887243 0.345129
#
# Coordination Sequence:
#
# PCOD8270278 Si02
#       7
#    16  16  16  16  16  16  16
#     4  10  20  32  52  82 112 147 187 226 269 317
#     4   9  18  32  48  71 109 155 195 225 261 320
#     4   9  18  34  57  85 117 149 179 217 273 340
#     4  10  23  42  61  82 109 143 187 237 288 341
#     4  10  22  40  61  86 113 141 183 237 288 337
#     4   9  18  33  55  82 112 146 184 230 282 333
#     4   8  15  28  49  78 112 152 193 227 265 321
#
# _framework density 20.005569999999999
#
# number of rings (size 3 to 8) (size 9 to 14) (size 15 to 20)
#    0.000    2.714    0.000    1.714    4.000    4.286 
#    0.000    4.286    0.000    1.286    0.000    2.000 
#    0.000    0.000    0.000    0.000    0.000    0.000 
#
# Total GULP energy -694025.863197 kJ/mol
# GULP energy per Si atom -12393.318986 kJ/mol
# Density = 1.996004 g / cm^3
# Si number density = 20.005570 Si / 1000 Ang^3
#
#
#
# Elastic Constant Matrix: (Units=GPa)
#
#
# Indices 1 2 3 4 5 6 
#
# 1 115.8596 51.3433 41.4569 0.0000 0.0000 0.0000
# 2 51.3433 77.1385 48.9694 0.0000 0.0000 0.0000
# 3 41.4569 48.9694 96.0341 0.0000 0.0000 0.0000
# 4 0.0000 0.0000 0.0000 30.1561 0.0000 0.0000
# 5 0.0000 0.0000 0.0000 0.0000 23.8520 0.0000
# 6 0.0000 0.0000 0.0000 0.0000 0.0000 21.9681
#
#
#
# Elastic Compliance Matrix: (Units=1/GPa)
#
#
# Indices 1 2 3 4 5 6 
#
# 1 0.012426 -0.007194 -0.001696 0.000000 0.000000 0.000000
# 2 -0.007194 0.023334 -0.008793 0.000000 0.000000 0.000000
# 3 -0.001696 -0.008793 0.015629 0.000000 0.000000 0.000000
# 4 0.000000 0.000000 0.000000 0.033161 0.000000 0.000000
# 5 0.000000 0.000000 0.000000 0.000000 0.041925 0.000000
# 6 0.000000 0.000000 0.000000 0.000000 0.000000 0.045521
#
#
# Mechanical properties :
#
#
# Convention : Reuss Voigt Hill
#
# Bulk Modulus (GPa) = 62.40950 63.61904 63.01427
# Shear Modulus (GPa) = 23.50712 25.01277 24.25994
#
# Velocity S-wave (km/s) = 3.43159 3.53978 3.48610
# Velocity P-wave (km/s) = 6.85309 6.96968 6.91163
#
# Compressibility (1/GPa) = 0.01602320
#
# Stress axis : x y z
#
# Youngs Moduli (GPa) = 80.47606 42.85588 63.98556
#
# Poissons Ratio (x) = 0.30832 0.10850
# Poissons Ratio (y) = 0.57897 0.56261
# Poissons Ratio (z) = 0.13646 0.37682
#
# Static dielectric constant tensor:
#      x y z
#    x 3.830930 0.000000 0.000000 
#    y 0.000000 3.511700 0.000000 
#    z 0.000000 0.000000 3.675450 
# 
# 
# High freq. dielectric constant tensor:
#      x y z
#    x 1.783640 0.000000 0.000000 
#    y 0.000000 1.749000 0.000000 
#    z 0.000000 0.000000 1.781930 
# 
# From -- ./inp_files/40844.got.cif
#   From: 2010.03.12/outbox.cif.g09.slc.cpg/sg65_21_cif.got.tgz:40844.got - 2010.04.10 20:52:16.
