data_PCOD8270727
_publ_section_title
;
Structure prediction by ZEFSAII (Michael W. Deem and Ramdas Pophale) SiO2 
 PCOD8270727
Probable space group: C M M M
;
_chemical_formula_sum "Si O2"
_cell_formula_units_Z 104
_cell_length_a 8.774115
_cell_length_b 19.010900
_cell_length_c 33.405437
_cell_angle_alpha 90.000000
_cell_angle_beta 90.000000
_cell_angle_gamma 90.000000
_cell_volume 5572.154596
_symmetry_space_group_name_H-M "C M M M"
_symmetry_group_IT_number 65
_symmetry_cell_setting 'orthorhombic'
loop_
_space_group_symop_operation_xyz
x,y,z
-x,-y,z
x,-y,-z
-x,y,-z
-x,-y,-z
x,y,-z
-x,y,z
x,-y,z
1/2+x,1/2+y,z
1/2-x,1/2-y,z
1/2+x,1/2-y,-z
1/2-x,1/2+y,-z
1/2-x,1/2-y,-z
1/2+x,1/2+y,-z
1/2-x,1/2+y,z
1/2+x,1/2-y,z
loop_
_atom_site_type_symbol
_atom_site_label
_atom_site_fract_x
_atom_site_fract_y
_atom_site_fract_z
Si Si1 0.825542 0.083126 0.661087
Si Si2 0.828774 0.416335 0.580064
Si Si3 0.171374 0.083534 0.956178
Si Si4 0.673379 0.916805 0.876785
Si Si5 0.179726 0.824027 0.811514
Si Si6 0.319920 0.824228 0.272927
Si Si7 0.671885 0.416045 0.500000
O O1 0.769931 0.109868 0.617723
O O2 0.720398 0.117104 0.694752
O O3 0.000000 0.106419 0.666913
O O4 0.806044 0.000000 0.664836
O O5 0.829308 0.500000 0.578394
O O6 0.755626 0.386167 0.539363
O O7 0.000000 0.387015 0.584189
O O8 0.280739 0.111445 0.920955
O O9 0.000000 0.110887 0.948174
O O10 0.172309 0.000000 0.956238
O O11 0.228259 0.110491 0.000000
O O12 0.500000 0.894412 0.868518
O O13 0.783190 0.882734 0.844160
O O14 0.695745 0.000000 0.873861
O O15 0.250000 0.750000 0.825508
O O16 0.250958 0.848147 0.769445
O O17 0.000000 0.816052 0.806481
O O18 0.500000 0.816854 0.268757
O O19 0.250000 0.750000 0.286654
O O20 0.674647 0.500000 0.500000
O O21 0.500000 0.387725 0.500000
#
# Coordination Sequence:
#
# PCOD8270727 Si02
#       7
#    16  16  16  16  16  16   8
#     4  10  20  34  52  76 106 137 170 210 257 305
#     4   9  16  26  41  64  95 130 167 207 252 300
#     4   8  14  26  45  70 101 136 172 209 250 296
#     4  10  20  33  51  78 109 138 172 213 254 298
#     4  11  22  38  58  77 101 133 170 210 255 307
#     4  11  22  38  58  78 102 132 170 211 253 305
#     4   9  15  23  37  59  90 129 168 205 248 299
#
# _framework density 18.664235000000001
#
# number of rings (size 3 to 8) (size 9 to 14) (size 15 to 20)
#    0.000    2.231    0.000    5.769    0.000    5.538 
#    0.000    1.538    0.000    0.462    0.000    0.538 
#    0.000    0.000    0.000    0.000    0.000    0.000 
#
# Total GULP energy -644796.840544 kJ/mol
# GULP energy per Si atom -12399.939241 kJ/mol
# Density = 1.862175 g / cm^3
# Si number density = 18.664235 Si / 1000 Ang^3
#
#
#
# Elastic Constant Matrix: (Units=GPa)
#
#
# Indices 1 2 3 4 5 6 
#
# 1 150.2765 30.0213 62.3024 0.0000 0.0000 0.0000
# 2 30.0213 27.5248 39.3694 0.0000 0.0000 0.0000
# 3 62.3024 39.3694 139.8472 0.0000 0.0000 0.0000
# 4 0.0000 0.0000 0.0000 -0.4390 0.0000 0.0000
# 5 0.0000 0.0000 0.0000 0.0000 39.4222 0.0000
# 6 0.0000 0.0000 0.0000 0.0000 0.0000 21.9690
#
#
#
# Elastic Compliance Matrix: (Units=1/GPa)
#
#
# Indices 1 2 3 4 5 6 
#
# 1 0.008846 -0.006716 -0.002050 0.000000 0.000000 0.000000
# 2 -0.006716 0.065920 -0.015566 0.000000 0.000000 0.000000
# 3 -0.002050 -0.015566 0.012446 0.000000 0.000000 0.000000
# 4 0.000000 0.000000 0.000000 -2.277813 0.000000 0.000000
# 5 0.000000 0.000000 0.000000 0.000000 0.025366 0.000000
# 6 0.000000 0.000000 0.000000 0.000000 0.000000 0.045519
#
#
# Mechanical properties :
#
#
# Convention : Reuss Voigt Hill
#
# Bulk Modulus (GPa) = 25.94146 64.55940 45.25043
# Shear Modulus (GPa) = -2.42930 24.58746 11.07908
#
# Velocity S-wave (km/s) = -1.14211 3.63348 2.43903
# Velocity P-wave (km/s) = 3.49142 7.22965 5.67705
#
# Compressibility (1/GPa) = 0.03854834
#
# Stress axis : x y z
#
# Youngs Moduli (GPa) = 113.04459 15.17000 80.34640
#
# Poissons Ratio (x) = 0.10188 0.16474
# Poissons Ratio (y) = 0.75917 1.25064
# Poissons Ratio (z) = 0.23178 0.23613
#
# Static dielectric constant tensor:
#      x y z
#    x 3.602650 0.000000 0.000000 
#    y 0.000000 2.911940 0.000000 
#    z 0.000000 0.000000 3.691270 
# 
# 
# High freq. dielectric constant tensor:
#      x y z
#    x 1.740670 0.000000 0.000000 
#    y 0.000000 1.668300 0.000000 
#    z 0.000000 0.000000 1.741510 
# 
# From -- ./inp_files/76863.got.cif
#   From: 2010.03.12/outbox.cif.g09.slc.cpg/sg65_39_cif.got.tgz:76863.got - 2010.04.10 20:52:16.
