data_PCOD8270029
_publ_section_title
;
Structure prediction by ZEFSAII (Michael W. Deem and Ramdas Pophale) SiO2 
 PCOD8270029
Probable space group: C M M M
;
_chemical_formula_sum "Si O2"
_cell_formula_units_Z 120
_cell_length_a 26.953138
_cell_length_b 9.099956
_cell_length_c 27.717847
_cell_angle_alpha 90.000000
_cell_angle_beta 90.000000
_cell_angle_gamma 90.000000
_cell_volume 6798.422021
_symmetry_space_group_name_H-M "C M M M"
_symmetry_group_IT_number 65
_symmetry_cell_setting 'orthorhombic'
loop_
_space_group_symop_operation_xyz
x,y,z
-x,-y,z
x,-y,-z
-x,y,-z
-x,-y,-z
x,y,-z
-x,y,z
x,-y,z
1/2+x,1/2+y,z
1/2-x,1/2-y,z
1/2+x,1/2-y,-z
1/2-x,1/2+y,-z
1/2-x,1/2-y,-z
1/2+x,1/2+y,-z
1/2-x,1/2+y,z
1/2+x,1/2-y,z
loop_
_atom_site_type_symbol
_atom_site_label
_atom_site_fract_x
_atom_site_fract_y
_atom_site_fract_z
Si Si1 0.500000 0.330147 0.442981
Si Si2 0.301022 0.329433 0.055160
Si Si3 0.595594 0.175437 0.602284
Si Si4 0.645828 0.828523 0.863195
Si Si5 0.394193 0.174428 0.289494
Si Si6 0.446021 0.825068 0.803887
Si Si7 0.299905 0.828855 0.556105
Si Si8 0.299673 0.829254 0.766280
O O1 0.500000 0.500000 0.426352
O O2 0.500000 0.316510 0.500000
O O3 0.450064 0.251580 0.424618
O O4 0.293593 0.500000 0.066147
O O5 0.250000 0.250000 0.067850
O O6 0.343579 0.263897 0.088929
O O7 0.316863 0.300990 0.000000
O O8 0.593294 0.233026 0.657425
O O9 0.649220 0.225682 0.581463
O O10 0.589353 0.000000 0.597469
O O11 0.593055 0.769715 0.843494
O O12 0.686215 0.796578 0.821787
O O13 0.644346 0.000000 0.876650
O O14 0.434272 0.231735 0.250335
O O15 0.340923 0.230762 0.270777
O O16 0.393635 0.000000 0.290875
O O17 0.500000 0.766785 0.819099
O O18 0.443002 0.000000 0.802617
O O19 0.306322 0.791893 0.500000
O O20 0.250000 0.750000 0.576434
O O21 0.292217 0.000000 0.565910
O O22 0.250000 0.750000 0.751670
O O23 0.291733 0.000000 0.758658
#
# Coordination Sequence:
#
# PCOD8270029 Si02
#       8
#     8  16  16  16  16  16  16  16
#     4  11  25  41  55  75 105 137 165 203 260 315
#     4  10  20  32  47  69  97 128 161 199 244 294
#     4  10  20  35  57  81 102 130 171 213 250 297
#     4   9  17  29  46  70  97 127 164 205 245 286
#     4   8  16  29  46  73 101 124 156 198 242 284
#     4   8  14  26  47  73  98 123 158 202 242 284
#     4   9  18  32  50  73 100 129 164 206 247 290
#     4   9  17  29  44  67 100 133 165 199 236 285
#
# _framework density 17.651156
#
# number of rings (size 3 to 8) (size 9 to 14) (size 15 to 20)
#    0.000    2.867    0.000    3.000    0.933    4.533 
#    0.000    2.000    0.000    1.600    0.000    2.800 
#    0.000    0.000    0.000    0.000    0.000    0.000 
#
# Total GULP energy -743694.602114 kJ/mol
# GULP energy per Si atom -12394.910035 kJ/mol
# Density = 1.761098 g / cm^3
# Si number density = 17.651156 Si / 1000 Ang^3
#
#
#
# Elastic Constant Matrix: (Units=GPa)
#
#
# Indices 1 2 3 4 5 6 
#
# 1 145.7894 43.5994 62.7802 0.0000 0.0000 0.0000
# 2 43.5994 48.4687 40.0008 0.0000 0.0000 0.0000
# 3 62.7802 40.0008 108.2096 0.0000 0.0000 0.0000
# 4 0.0000 0.0000 0.0000 18.7341 0.0000 0.0000
# 5 0.0000 0.0000 0.0000 0.0000 21.0466 0.0000
# 6 0.0000 0.0000 0.0000 0.0000 0.0000 24.9137
#
#
#
# Elastic Compliance Matrix: (Units=1/GPa)
#
#
# Indices 1 2 3 4 5 6 
#
# 1 0.010307 -0.006240 -0.003673 0.000000 0.000000 0.000000
# 2 -0.006240 0.033467 -0.008751 0.000000 0.000000 0.000000
# 3 -0.003673 -0.008751 0.014607 0.000000 0.000000 0.000000
# 4 0.000000 0.000000 0.000000 0.053379 0.000000 0.000000
# 5 0.000000 0.000000 0.000000 0.000000 0.047514 0.000000
# 6 0.000000 0.000000 0.000000 0.000000 0.000000 0.040139
#
#
# Mechanical properties :
#
#
# Convention : Reuss Voigt Hill
#
# Bulk Modulus (GPa) = 47.49956 66.13648 56.81802
# Shear Modulus (GPa) = 20.51203 23.34470 21.92836
#
# Velocity S-wave (km/s) = 3.41263 3.64065 3.52848
# Velocity P-wave (km/s) = 6.51894 7.43118 6.98996
#
# Compressibility (1/GPa) = 0.02105283
#
# Stress axis : x y z
#
# Youngs Moduli (GPa) = 97.02015 29.87980 68.45877
#
# Poissons Ratio (x) = 0.18646 0.25146
# Poissons Ratio (y) = 0.60543 0.59909
# Poissons Ratio (z) = 0.35637 0.26148
#
# Static dielectric constant tensor:
#      x y z
#    x 3.498500 0.000000 0.000000 
#    y 0.000000 2.976960 0.000000 
#    z 0.000000 0.000000 3.367620 
# 
# 
# High freq. dielectric constant tensor:
#      x y z
#    x 1.686230 0.000000 0.000000 
#    y 0.000000 1.650410 0.000000 
#    z 0.000000 0.000000 1.681490 
# 
# From -- ./inp_files/76142.got.cif
#   From: 2010.03.12/outbox.cif.g09.slc.cpg/sg65_39_cif.got.tgz:76142.got - 2010.04.10 20:52:16.
