data_PCOD8270258
_publ_section_title
;
Structure prediction by ZEFSAII (Michael W. Deem and Ramdas Pophale) SiO2 
 PCOD8270258
Probable space group: C M M M
;
_chemical_formula_sum "Si O2"
_cell_formula_units_Z 80
_cell_length_a 19.019029
_cell_length_b 27.010083
_cell_length_c 8.134319
_cell_angle_alpha 90.000000
_cell_angle_beta 90.000000
_cell_angle_gamma 90.000000
_cell_volume 4178.644831
_symmetry_space_group_name_H-M "C M M M"
_symmetry_group_IT_number 65
_symmetry_cell_setting 'orthorhombic'
loop_
_space_group_symop_operation_xyz
x,y,z
-x,-y,z
x,-y,-z
-x,y,-z
-x,-y,-z
x,y,-z
-x,y,z
x,-y,z
1/2+x,1/2+y,z
1/2-x,1/2-y,z
1/2+x,1/2-y,-z
1/2-x,1/2+y,-z
1/2-x,1/2-y,-z
1/2+x,1/2+y,-z
1/2-x,1/2+y,z
1/2+x,1/2-y,z
loop_
_atom_site_type_symbol
_atom_site_label
_atom_site_fract_x
_atom_site_fract_y
_atom_site_fract_z
Si Si1 0.583811 0.444335 0.500000
Si Si2 0.078674 0.395457 0.307517
Si Si3 0.684673 0.813487 0.311177
Si Si4 0.583219 0.000000 0.185867
Si Si5 0.416947 0.385399 0.815611
Si Si6 0.166814 0.790425 0.813715
O O1 0.611979 0.500000 0.500000
O O2 0.500000 0.441863 0.500000
O O3 0.613327 0.419574 0.331636
O O4 0.072821 0.387642 0.500000
O O5 0.129926 0.353137 0.233608
O O6 0.111411 0.449795 0.270948
O O7 0.000000 0.390112 0.229516
O O8 0.698742 0.826444 0.500000
O O9 0.758362 0.816899 0.216579
O O10 0.654207 0.757688 0.298836
O O11 0.500000 0.000000 0.202459
O O12 0.609710 0.000000 0.000000
O O13 0.500000 0.387642 0.813567
O O14 0.394266 0.329465 0.776201
O O15 0.389933 0.401438 0.000000
O O16 0.164247 0.771679 0.000000
#
# Coordination Sequence:
#
# PCOD8270258 Si02
#       6
#     8  16  16   8  16  16
#     4   9  18  32  54  81 104 134 171 209 260 312
#     4   9  18  33  51  73 101 132 167 208 254 300
#     4  10  20  32  51  75  99 133 173 211 251 303
#     4   9  17  29  49  75  99 129 166 205 252 299
#     4   9  19  34  53  79 107 136 171 213 261 308
#     4  10  20  34  52  72 101 138 169 205 256 309
#
# _framework density 19.144964000000002
#
# number of rings (size 3 to 8) (size 9 to 14) (size 15 to 20)
#    0.000    2.600    0.000    2.700    2.800    4.000 
#    0.000    2.000    2.200    0.000    0.000    0.000 
#    0.000    0.000    0.000    0.000    0.000    0.000 
#
# Total GULP energy -495782.085563 kJ/mol
# GULP energy per Si atom -12394.552139 kJ/mol
# Density = 1.910139 g / cm^3
# Si number density = 19.144964 Si / 1000 Ang^3
#
#
#
# Elastic Constant Matrix: (Units=GPa)
#
#
# Indices 1 2 3 4 5 6 
#
# 1 26.9387 39.6647 10.2647 0.0000 0.0000 0.0000
# 2 39.6647 126.0580 34.9865 0.0000 0.0000 0.0000
# 3 10.2647 34.9865 74.4784 0.0000 0.0000 0.0000
# 4 0.0000 0.0000 0.0000 16.8789 0.0000 0.0000
# 5 0.0000 0.0000 0.0000 0.0000 18.1095 0.0000
# 6 0.0000 0.0000 0.0000 0.0000 0.0000 21.5958
#
#
#
# Elastic Compliance Matrix: (Units=1/GPa)
#
#
# Indices 1 2 3 4 5 6 
#
# 1 0.069207 -0.021997 0.000795 0.000000 0.000000 0.000000
# 2 -0.021997 0.016114 -0.004538 0.000000 0.000000 0.000000
# 3 0.000795 -0.004538 0.015449 0.000000 0.000000 0.000000
# 4 0.000000 0.000000 0.000000 0.059246 0.000000 0.000000
# 5 0.000000 0.000000 0.000000 0.000000 0.055220 0.000000
# 6 0.000000 0.000000 0.000000 0.000000 0.000000 0.046305
#
#
# Mechanical properties :
#
#
# Convention : Reuss Voigt Hill
#
# Bulk Modulus (GPa) = 20.28821 44.14520 32.21670
# Shear Modulus (GPa) = 15.17686 20.82078 17.99882
#
# Velocity S-wave (km/s) = 2.81861 3.30135 3.06949
# Velocity P-wave (km/s) = 4.60575 6.13517 5.42463
#
# Compressibility (1/GPa) = 0.04928971
#
# Stress axis : x y z
#
# Youngs Moduli (GPa) = 14.44950 62.05908 64.72986
#
# Poissons Ratio (x) = 1.36510 -0.05146
# Poissons Ratio (y) = 0.31784 0.29373
# Poissons Ratio (z) = -0.01149 0.28161
#
# Static dielectric constant tensor:
#      x y z
#    x 3.324920 0.000000 0.000000 
#    y 0.000000 3.621590 0.000000 
#    z 0.000000 0.000000 3.669290 
# 
# 
# High freq. dielectric constant tensor:
#      x y z
#    x 1.708520 0.000000 0.000000 
#    y 0.000000 1.744400 0.000000 
#    z 0.000000 0.000000 1.750640 
# 
# From -- ./inp_files/12110.got.cif
#   From: 2010.03.12/outbox.cif.g09.slc.cpg/sg65_7_cif.got.tgz:12110.got - 2010.04.10 20:52:16.
