data_PCOD8270955
_publ_section_title
;
Structure prediction by ZEFSAII (Michael W. Deem and Ramdas Pophale) SiO2 
 PCOD8270955
Probable space group: C M M M
;
_chemical_formula_sum "Si O2"
_cell_formula_units_Z 80
_cell_length_a 18.343096
_cell_length_b 8.883559
_cell_length_c 26.248339
_cell_angle_alpha 90.000000
_cell_angle_beta 90.000000
_cell_angle_gamma 90.000000
_cell_volume 4277.218695
_symmetry_space_group_name_H-M "C M M M"
_symmetry_group_IT_number 65
_symmetry_cell_setting 'orthorhombic'
loop_
_space_group_symop_operation_xyz
x,y,z
-x,-y,z
x,-y,-z
-x,y,-z
-x,-y,-z
x,y,-z
-x,y,z
x,-y,z
1/2+x,1/2+y,z
1/2-x,1/2-y,z
1/2+x,1/2-y,-z
1/2-x,1/2+y,-z
1/2-x,1/2-y,-z
1/2+x,1/2+y,-z
1/2-x,1/2+y,z
1/2+x,1/2-y,z
loop_
_atom_site_type_symbol
_atom_site_label
_atom_site_fract_x
_atom_site_fract_y
_atom_site_fract_z
Si Si1 0.670494 0.178021 0.154609
Si Si2 0.586703 0.330580 0.555821
Si Si3 0.586312 0.671389 0.243965
Si Si4 0.171286 0.823738 0.055255
Si Si5 0.086797 0.332034 0.345331
O O1 0.750000 0.250000 0.161532
O O2 0.620536 0.221397 0.201797
O O3 0.631454 0.242518 0.102876
O O4 0.677418 0.000000 0.150979
O O5 0.611456 0.269101 0.500000
O O6 0.500000 0.330042 0.558804
O O7 0.615577 0.500000 0.563316
O O8 0.619314 0.228907 0.601192
O O9 0.500000 0.685479 0.239602
O O10 0.612408 0.500000 0.236257
O O11 0.613753 0.726925 0.299191
O O12 0.250000 0.750000 0.051784
O O13 0.178571 0.000000 0.067210
O O14 0.131711 0.798931 0.000000
O O15 0.116842 0.500000 0.336641
O O16 0.000000 0.331798 0.347591
#
# Coordination Sequence:
#
# PCOD8270955 Si02
#       5
#    16  16  16  16  16
#     4  11  21  33  51  74 101 128 158 197 238 281
#     4   8  13  21  33  50  75 109 147 185 227 275
#     4  10  20  34  51  69  93 127 164 199 238 286
#     4   9  16  27  45  69  96 124 155 191 232 278
#     4   9  16  25  38  58  84 114 150 190 232 279
#
# _framework density 18.703742999999999
#
# number of rings (size 3 to 8) (size 9 to 14) (size 15 to 20)
#    0.000    2.600    0.000    5.400    0.000    5.200 
#    0.000    2.000    0.000    0.600    0.000    4.200 
#    0.000    0.800    0.000    3.000    0.000    7.000 
#
# Total GULP energy -495672.635519 kJ/mol
# GULP energy per Si atom -12391.815888 kJ/mol
# Density = 1.866117 g / cm^3
# Si number density = 18.703743 Si / 1000 Ang^3
#
#
#
# Elastic Constant Matrix: (Units=GPa)
#
#
# Indices 1 2 3 4 5 6 
#
# 1 11.0024 17.7812 21.0497 0.0000 0.0000 0.0000
# 2 17.7812 145.2408 73.3055 0.0000 0.0000 0.0000
# 3 21.0497 73.3055 177.4616 0.0000 0.0000 0.0000
# 4 0.0000 0.0000 0.0000 36.2171 0.0000 0.0000
# 5 0.0000 0.0000 0.0000 0.0000 90.1781 0.0000
# 6 0.0000 0.0000 0.0000 0.0000 0.0000 15.5653
#
#
#
# Elastic Compliance Matrix: (Units=1/GPa)
#
#
# Indices 1 2 3 4 5 6 
#
# 1 0.128413 -0.010149 -0.011039 0.000000 0.000000 0.000000
# 2 -0.010149 0.009501 -0.002721 0.000000 0.000000 0.000000
# 3 -0.011039 -0.002721 0.008068 0.000000 0.000000 0.000000
# 4 0.000000 0.000000 0.000000 0.027611 0.000000 0.000000
# 5 0.000000 0.000000 0.000000 0.000000 0.011089 0.000000
# 6 0.000000 0.000000 0.000000 0.000000 0.000000 0.064246
#
#
# Mechanical properties :
#
#
# Convention : Reuss Voigt Hill
#
# Bulk Modulus (GPa) = 10.18712 61.99752 36.09232
# Shear Modulus (GPa) = 15.17601 43.16332 29.16967
#
# Velocity S-wave (km/s) = 2.85158 4.80910 3.95341
# Velocity P-wave (km/s) = 4.03738 8.00348 6.33862
#
# Compressibility (1/GPa) = 0.09816314
#
# Stress axis : x y z
#
# Youngs Moduli (GPa) = 7.78740 105.25374 123.94134
#
# Poissons Ratio (x) = 1.06825 1.36823
# Poissons Ratio (y) = 0.07904 0.33721
# Poissons Ratio (z) = 0.08597 0.28637
#
# Static dielectric constant tensor:
#      x y z
#    x 2.667160 0.000000 0.000000 
#    y 0.000000 3.640480 0.000000 
#    z 0.000000 0.000000 4.245550 
# 
# 
# High freq. dielectric constant tensor:
#      x y z
#    x 1.636270 0.000000 0.000000 
#    y 0.000000 1.740160 0.000000 
#    z 0.000000 0.000000 1.756920 
# 
# From -- ./inp_files/75033.got.cif
#   From: 2010.03.12/outbox.cif.g09.slc.cpg/sg65_38_cif.got.tgz:75033.got - 2010.04.10 20:52:16.
