data_PCOD8270984
_publ_section_title
;
Structure prediction by ZEFSAII (Michael W. Deem and Ramdas Pophale) SiO2 
 PCOD8270984
Probable space group: C M M M
;
_chemical_formula_sum "Si O2"
_cell_formula_units_Z 72
_cell_length_a 10.085428
_cell_length_b 26.926929
_cell_length_c 13.656360
_cell_angle_alpha 90.000000
_cell_angle_beta 90.000000
_cell_angle_gamma 90.000000
_cell_volume 3708.652273
_symmetry_space_group_name_H-M "C M M M"
_symmetry_group_IT_number 65
_symmetry_cell_setting 'orthorhombic'
loop_
_space_group_symop_operation_xyz
x,y,z
-x,-y,z
x,-y,-z
-x,y,-z
-x,-y,-z
x,y,-z
-x,y,z
x,-y,z
1/2+x,1/2+y,z
1/2-x,1/2-y,z
1/2+x,1/2-y,-z
1/2-x,1/2+y,-z
1/2-x,1/2-y,-z
1/2+x,1/2+y,-z
1/2-x,1/2+y,z
1/2+x,1/2-y,z
loop_
_atom_site_type_symbol
_atom_site_label
_atom_site_fract_x
_atom_site_fract_y
_atom_site_fract_z
Si Si1 0.500000 0.444256 0.385405
Si Si2 0.843686 0.294924 0.699157
Si Si3 0.351899 0.053456 0.798738
Si Si4 0.224888 0.601878 0.612679
Si Si5 0.342711 0.848870 0.107946
O O1 0.500000 0.500000 0.337548
O O2 0.500000 0.451908 0.500000
O O3 0.374306 0.411413 0.354007
O O4 0.750000 0.250000 0.665260
O O5 0.808003 0.340318 0.627901
O O6 0.804165 0.307801 0.811679
O O7 0.000000 0.281477 0.689389
O O8 0.500000 0.047078 0.838558
O O9 0.364748 0.068701 0.684214
O O10 0.280736 0.097528 0.860393
O O11 0.277878 0.000000 0.811111
O O12 0.196451 0.587685 0.500000
O O13 0.500000 0.854393 0.107559
O O14 0.289018 0.833831 0.000000
#
# Coordination Sequence:
#
# PCOD8270984 Si02
#       5
#     8  16  16  16  16
#     4   9  18  32  52  78 105 139 185 225 261 316
#     4  10  22  37  55  79 106 139 183 228 276 329
#     4   9  17  28  45  73 104 135 173 212 257 317
#     4  10  20  34  51  72 104 140 179 223 267 313
#     4   8  15  30  50  73 103 135 169 214 264 316
#
# _framework density 19.414059000000002
#
# number of rings (size 3 to 8) (size 9 to 14) (size 15 to 20)
#    0.000    2.778    0.000    2.667    1.556    4.444 
#    0.000    3.333    0.000    0.000    0.000    0.000 
#    0.000    8.444    0.000    0.000    0.000    0.000 
#
# Total GULP energy -445972.992549 kJ/mol
# GULP energy per Si atom -12388.138682 kJ/mol
# Density = 1.936987 g / cm^3
# Si number density = 19.414059 Si / 1000 Ang^3
#
#
#
# Elastic Constant Matrix: (Units=GPa)
#
#
# Indices 1 2 3 4 5 6 
#
# 1 68.4510 33.0530 -0.3376 0.0000 0.0000 0.0000
# 2 33.0530 88.3887 -16.4538 0.0000 0.0000 0.0000
# 3 -0.3376 -16.4538 54.8831 0.0000 0.0000 0.0000
# 4 0.0000 0.0000 0.0000 8.4531 0.0000 0.0000
# 5 0.0000 0.0000 0.0000 0.0000 8.9320 0.0000
# 6 0.0000 0.0000 0.0000 0.0000 0.0000 24.2135
#
#
#
# Elastic Compliance Matrix: (Units=1/GPa)
#
#
# Indices 1 2 3 4 5 6 
#
# 1 0.018038 -0.007122 -0.002024 0.000000 0.000000 0.000000
# 2 -0.007122 0.014794 0.004392 0.000000 0.000000 0.000000
# 3 -0.002024 0.004392 0.019525 0.000000 0.000000 0.000000
# 4 0.000000 0.000000 0.000000 0.118300 0.000000 0.000000
# 5 0.000000 0.000000 0.000000 0.000000 0.111958 0.000000
# 6 0.000000 0.000000 0.000000 0.000000 0.000000 0.041299
#
#
# Mechanical properties :
#
#
# Convention : Reuss Voigt Hill
#
# Bulk Modulus (GPa) = 23.33861 27.13846 25.23853
# Shear Modulus (GPa) = 14.37994 21.35045 17.86519
#
# Velocity S-wave (km/s) = 2.72453 3.31983 3.03680
# Velocity P-wave (km/s) = 4.68455 5.35763 5.03235
#
# Compressibility (1/GPa) = 0.04284746
#
# Stress axis : x y z
#
# Youngs Moduli (GPa) = 55.43818 67.59272 51.21726
#
# Poissons Ratio (x) = 0.48141 0.10368
# Poissons Ratio (y) = 0.39484 -0.22492
# Poissons Ratio (z) = 0.11222 -0.29684
#
# Static dielectric constant tensor:
#      x y z
#    x 3.376990 0.000000 0.000000 
#    y 0.000000 3.677080 0.000000 
#    z 0.000000 0.000000 3.596690 
# 
# 
# High freq. dielectric constant tensor:
#      x y z
#    x 1.714630 0.000000 0.000000 
#    y 0.000000 1.758850 0.000000 
#    z 0.000000 0.000000 1.744150 
# 
# From -- ./inp_files/36571.got.cif
#   From: 2010.03.12/outbox.cif.g09.slc.cpg/sg65_19_cif.got.tgz:36571.got - 2010.04.10 20:52:16.
