data_PCOD8270597
_publ_section_title
;
Structure prediction by ZEFSAII (Michael W. Deem and Ramdas Pophale) SiO2 
 PCOD8270597
Probable space group: C M M M
;
_chemical_formula_sum "Si O2"
_cell_formula_units_Z 104
_cell_length_a 8.827118
_cell_length_b 28.758314
_cell_length_c 23.180189
_cell_angle_alpha 90.000000
_cell_angle_beta 90.000000
_cell_angle_gamma 90.000000
_cell_volume 5884.361240
_symmetry_space_group_name_H-M "C M M M"
_symmetry_group_IT_number 65
_symmetry_cell_setting 'orthorhombic'
loop_
_space_group_symop_operation_xyz
x,y,z
-x,-y,z
x,-y,-z
-x,y,-z
-x,-y,-z
x,y,-z
-x,y,z
x,-y,z
1/2+x,1/2+y,z
1/2-x,1/2-y,z
1/2+x,1/2-y,-z
1/2-x,1/2+y,-z
1/2-x,1/2-y,-z
1/2+x,1/2+y,-z
1/2-x,1/2+y,z
1/2+x,1/2-y,z
loop_
_atom_site_type_symbol
_atom_site_label
_atom_site_fract_x
_atom_site_fract_y
_atom_site_fract_z
Si Si1 0.829209 0.555145 0.500000
Si Si2 0.324976 0.113702 0.064823
Si Si3 0.679487 0.890798 0.279034
Si Si4 0.321151 0.701897 0.243994
Si Si5 0.677433 0.297351 0.111700
Si Si6 0.820133 0.448175 0.169068
Si Si7 0.175660 0.945156 0.382700
O O1 0.835196 0.500000 0.500000
O O2 0.738541 0.572628 0.555995
O O3 0.000000 0.575544 0.500000
O O4 0.500000 0.124844 0.077596
O O5 0.232779 0.160958 0.071859
O O6 0.264172 0.074970 0.109348
O O7 0.301338 0.094609 0.000000
O O8 0.500000 0.885271 0.277687
O O9 0.754468 0.840051 0.281705
O O10 0.740495 0.917976 0.222613
O O11 0.727618 0.919681 0.334418
O O12 0.500000 0.704116 0.251834
O O13 0.250000 0.750000 0.266870
O O14 0.272262 0.693602 0.177683
O O15 0.500000 0.292265 0.106233
O O16 0.750000 0.250000 0.088113
O O17 0.750503 0.500000 0.172769
O O18 0.000000 0.451056 0.170976
O O19 0.000000 0.931614 0.377747
O O20 0.200317 0.000000 0.375249
#
# Coordination Sequence:
#
# PCOD8270597 Si02
#       7
#     8  16  16  16  16  16  16
#     4   9  17  31  51  75 106 145 188 227 263 307
#     4  10  20  34  52  73  98 129 168 212 259 313
#     4  11  20  32  53  78 107 139 174 217 262 311
#     4  10  20  34  53  77 103 132 167 208 261 318
#     4  10  20  34  54  75  99 127 160 203 256 316
#     4   9  18  32  50  73 100 130 167 213 260 304
#     4  10  20  33  50  76 112 150 185 222 264 309
#
# _framework density 17.673966
#
# number of rings (size 3 to 8) (size 9 to 14) (size 15 to 20)
#    0.000    2.077    1.538    2.538    0.000    4.615 
#    0.000    1.538    0.000    1.385    0.000    1.615 
#    0.000    0.000    0.000    0.000    0.000    0.000 
#
# Total GULP energy -644953.245860 kJ/mol
# GULP energy per Si atom -12402.947036 kJ/mol
# Density = 1.763374 g / cm^3
# Si number density = 17.673966 Si / 1000 Ang^3
#
#
#
# Elastic Constant Matrix: (Units=GPa)
#
#
# Indices 1 2 3 4 5 6 
#
# 1 65.5111 33.3211 27.4045 0.0000 0.0000 0.0000
# 2 33.3211 108.8504 46.0228 0.0000 0.0000 0.0000
# 3 27.4045 46.0228 105.3950 0.0000 0.0000 0.0000
# 4 0.0000 0.0000 0.0000 15.5357 0.0000 0.0000
# 5 0.0000 0.0000 0.0000 0.0000 24.4460 0.0000
# 6 0.0000 0.0000 0.0000 0.0000 0.0000 25.9339
#
#
#
# Elastic Compliance Matrix: (Units=1/GPa)
#
#
# Indices 1 2 3 4 5 6 
#
# 1 0.018780 -0.004519 -0.002910 0.000000 0.000000 0.000000
# 2 -0.004519 0.012354 -0.004220 0.000000 0.000000 0.000000
# 3 -0.002910 -0.004220 0.012087 0.000000 0.000000 0.000000
# 4 0.000000 0.000000 0.000000 0.064368 0.000000 0.000000
# 5 0.000000 0.000000 0.000000 0.000000 0.040906 0.000000
# 6 0.000000 0.000000 0.000000 0.000000 0.000000 0.038560
#
#
# Mechanical properties :
#
#
# Convention : Reuss Voigt Hill
#
# Bulk Modulus (GPa) = 50.18812 54.80593 52.49702
# Shear Modulus (GPa) = 23.04206 24.71700 23.87953
#
# Velocity S-wave (km/s) = 3.61464 3.74371 3.67974
# Velocity P-wave (km/s) = 6.77341 7.05435 6.91531
#
# Compressibility (1/GPa) = 0.01992503
#
# Stress axis : x y z
#
# Youngs Moduli (GPa) = 53.24757 80.94336 82.73039
#
# Poissons Ratio (x) = 0.36575 0.24075
# Poissons Ratio (y) = 0.24060 0.34911
# Poissons Ratio (z) = 0.15495 0.34157
#
# Static dielectric constant tensor:
#      x y z
#    x 3.179270 0.000000 0.000000 
#    y 0.000000 3.274030 0.000000 
#    z 0.000000 0.000000 3.245220 
# 
# 
# High freq. dielectric constant tensor:
#      x y z
#    x 1.680850 0.000000 0.000000 
#    y 0.000000 1.673140 0.000000 
#    z 0.000000 0.000000 1.671380 
# 
# From -- ./inp_files/60430.got.cif
#   From: 2010.03.12/outbox.cif.g09.slc.cpg/sg65_31_cif.got.tgz:60430.got - 2010.04.10 20:52:16.
