data_PCOD8270765
_publ_section_title
;
Structure prediction by ZEFSAII (Michael W. Deem and Ramdas Pophale) SiO2 
 PCOD8270765
Probable space group: C M M M
;
_chemical_formula_sum "Si O2"
_cell_formula_units_Z 80
_cell_length_a 8.963266
_cell_length_b 26.202606
_cell_length_c 18.690232
_cell_angle_alpha 90.000000
_cell_angle_beta 90.000000
_cell_angle_gamma 90.000000
_cell_volume 4389.605222
_symmetry_space_group_name_H-M "C M M M"
_symmetry_group_IT_number 65
_symmetry_cell_setting 'orthorhombic'
loop_
_space_group_symop_operation_xyz
x,y,z
-x,-y,z
x,-y,-z
-x,y,-z
-x,-y,-z
x,y,-z
-x,y,z
x,-y,z
1/2+x,1/2+y,z
1/2-x,1/2-y,z
1/2+x,1/2-y,-z
1/2-x,1/2+y,-z
1/2-x,1/2-y,-z
1/2+x,1/2+y,-z
1/2-x,1/2+y,z
1/2+x,1/2-y,z
loop_
_atom_site_type_symbol
_atom_site_label
_atom_site_fract_x
_atom_site_fract_y
_atom_site_fract_z
Si Si1 0.173719 0.089043 0.331673
Si Si2 0.177115 0.500000 0.920293
Si Si3 0.173745 0.590677 0.820944
Si Si4 0.827564 0.702805 0.176502
Si Si5 0.674269 0.000000 0.583270
Si Si6 0.173488 0.797697 0.329616
O O1 0.234721 0.083635 0.251543
O O2 0.256837 0.050788 0.383722
O O3 0.198682 0.146298 0.364058
O O4 0.000000 0.075263 0.329457
O O5 0.233166 0.550063 0.878430
O O6 0.000000 0.500000 0.925210
O O7 0.246544 0.500000 0.000000
O O8 0.197059 0.646656 0.857444
O O9 0.000000 0.581987 0.802125
O O10 0.750000 0.750000 0.132816
O O11 0.752229 0.700376 0.253444
O O12 0.000000 0.715965 0.184082
O O13 0.500000 0.000000 0.599393
O O14 0.711391 0.000000 0.500000
O O15 0.250000 0.750000 0.373162
O O16 0.000000 0.785842 0.320864
#
# Coordination Sequence:
#
# PCOD8270765 Si02
#       6
#    16   8  16  16   8  16
#     4  10  20  33  52  77 102 129 161 199 242 288
#     4   9  17  30  48  68  90 119 158 203 246 286
#     4   9  17  29  48  73  97 123 158 199 240 285
#     4   9  15  23  38  63  93 122 152 188 232 279
#     4  11  24  39  54  72  96 129 166 203 244 288
#     4   9  16  26  43  70 100 127 155 189 233 281
#
# _framework density 18.224875000000001
#
# number of rings (size 3 to 8) (size 9 to 14) (size 15 to 20)
#    0.000    2.600    0.000    3.900    0.000    4.800 
#    0.000    0.000    0.000    2.400    0.000    0.000 
#    0.000    0.000    0.000    0.000    0.000    5.400 
#
# Total GULP energy -495563.175797 kJ/mol
# GULP energy per Si atom -12389.079395 kJ/mol
# Density = 1.818339 g / cm^3
# Si number density = 18.224875 Si / 1000 Ang^3
#
#
#
# Elastic Constant Matrix: (Units=GPa)
#
#
# Indices 1 2 3 4 5 6 
#
# 1 103.0455 75.9790 44.6899 0.0000 0.0000 0.0000
# 2 75.9790 197.0331 64.5852 0.0000 0.0000 0.0000
# 3 44.6899 64.5852 68.8269 0.0000 0.0000 0.0000
# 4 0.0000 0.0000 0.0000 0.0336 0.0000 0.0000
# 5 0.0000 0.0000 0.0000 0.0000 6.4807 0.0000
# 6 0.0000 0.0000 0.0000 0.0000 0.0000 52.8316
#
#
#
# Elastic Compliance Matrix: (Units=1/GPa)
#
#
# Indices 1 2 3 4 5 6 
#
# 1 0.015259 -0.003808 -0.006335 0.000000 0.000000 0.000000
# 2 -0.003808 0.008280 -0.005297 0.000000 0.000000 0.000000
# 3 -0.006335 -0.005297 0.023613 0.000000 0.000000 0.000000
# 4 0.000000 0.000000 0.000000 29.769418 0.000000 0.000000
# 5 0.000000 0.000000 0.000000 0.000000 0.154305 0.000000
# 6 0.000000 0.000000 0.000000 0.000000 0.000000 0.018928
#
#
# Mechanical properties :
#
#
# Convention : Reuss Voigt Hill
#
# Bulk Modulus (GPa) = 61.45247 82.15708 71.80477
# Shear Modulus (GPa) = 0.16652 24.11261 12.13957
#
# Velocity S-wave (km/s) = 0.30260 3.64134 2.58369
# Velocity P-wave (km/s) = 5.82360 7.92822 6.95597
#
# Compressibility (1/GPa) = 0.01627274
#
# Stress axis : x y z
#
# Youngs Moduli (GPa) = 65.53310 120.77277 42.34870
#
# Poissons Ratio (x) = 0.45987 0.26828
# Poissons Ratio (y) = 0.24953 0.22434
# Poissons Ratio (z) = 0.41516 0.63977
#
# Static dielectric constant tensor:
#      x y z
#    x 3.415890 0.000000 0.000000 
#    y 0.000000 4.809680 0.000000 
#    z 0.000000 0.000000 2.856210 
# 
# 
# High freq. dielectric constant tensor:
#      x y z
#    x 1.709900 0.000000 0.000000 
#    y 0.000000 1.743390 0.000000 
#    z 0.000000 0.000000 1.636230 
# 
# From -- ./inp_files/50161.got.cif
#   From: 2010.03.12/outbox.cif.g09.slc.cpg/sg65_26_cif.got.tgz:50161.got - 2010.04.10 20:52:16.
