data_PCOD8270177
_publ_section_title
;
Structure prediction by ZEFSAII (Michael W. Deem and Ramdas Pophale) SiO2 
 PCOD8270177
Probable space group: C M M M
;
_chemical_formula_sum "Si O2"
_cell_formula_units_Z 88
_cell_length_a 18.382405
_cell_length_b 19.957103
_cell_length_c 13.397080
_cell_angle_alpha 90.000000
_cell_angle_beta 90.000000
_cell_angle_gamma 90.000000
_cell_volume 4914.846740
_symmetry_space_group_name_H-M "C M M M"
_symmetry_group_IT_number 65
_symmetry_cell_setting 'orthorhombic'
loop_
_space_group_symop_operation_xyz
x,y,z
-x,-y,z
x,-y,-z
-x,y,-z
-x,-y,-z
x,y,-z
-x,y,z
x,-y,z
1/2+x,1/2+y,z
1/2-x,1/2-y,z
1/2+x,1/2-y,-z
1/2-x,1/2+y,-z
1/2-x,1/2-y,-z
1/2+x,1/2+y,-z
1/2-x,1/2+y,z
1/2+x,1/2-y,z
loop_
_atom_site_type_symbol
_atom_site_label
_atom_site_fract_x
_atom_site_fract_y
_atom_site_fract_z
Si Si1 0.652245 0.366732 0.115354
Si Si2 0.764797 0.921447 0.616538
Si Si3 0.418040 0.500000 0.880273
Si Si4 0.916905 0.271540 0.115520
Si Si5 0.422941 0.574840 0.381441
Si Si6 0.715441 0.820144 0.236104
O O1 0.620288 0.433940 0.166401
O O2 0.595520 0.307076 0.135601
O O3 0.732555 0.350362 0.152080
O O4 0.660819 0.381403 0.000000
O O5 0.750767 0.911601 0.500000
O O6 0.845465 0.892509 0.650322
O O7 0.707916 0.873842 0.674030
O O8 0.755833 0.000000 0.644774
O O9 0.500000 0.500000 0.842554
O O10 0.414876 0.500000 0.000000
O O11 0.864250 0.313324 0.187922
O O12 0.000000 0.289699 0.141766
O O13 0.899273 0.288475 0.000000
O O14 0.419409 0.569157 0.500000
O O15 0.500000 0.611848 0.350572
O O16 0.425012 0.500000 0.336462
O O17 0.750000 0.750000 0.274450
#
# Coordination Sequence:
#
# PCOD8270177 Si02
#       6
#    16  16   8  16  16  16
#     4   9  17  29  47  73 104 136 165 195 237 295
#     4   9  18  32  50  70  95 131 173 212 255 307
#     4   9  16  26  42  68 104 140 166 189 226 284
#     4   9  17  32  54  75  98 132 170 208 252 302
#     4   7  10  20  40  64  90 120 153 188 226 275
#     4  10  20  32  49  74 102 130 168 214 251 296
#
# _framework density 17.904933
#
# number of rings (size 3 to 8) (size 9 to 14) (size 15 to 20)
#    0.000    3.182    0.000    2.727    1.273    4.727 
#    0.000    4.545    0.000    1.091    0.000    2.545 
#    0.000    0.000    0.000    0.000    0.000    0.000 
#
# Total GULP energy -545145.774469 kJ/mol
# GULP energy per Si atom -12389.676692 kJ/mol
# Density = 1.786418 g / cm^3
# Si number density = 17.904933 Si / 1000 Ang^3
#
#
#
# Elastic Constant Matrix: (Units=GPa)
#
#
# Indices 1 2 3 4 5 6 
#
# 1 113.3595 60.7819 48.6502 0.0000 0.0000 0.0000
# 2 60.7819 100.1083 47.3433 0.0000 0.0000 0.0000
# 3 48.6502 47.3433 50.4703 0.0000 0.0000 0.0000
# 4 0.0000 0.0000 0.0000 28.0426 0.0000 0.0000
# 5 0.0000 0.0000 0.0000 0.0000 19.3454 0.0000
# 6 0.0000 0.0000 0.0000 0.0000 0.0000 22.1568
#
#
#
# Elastic Compliance Matrix: (Units=1/GPa)
#
#
# Indices 1 2 3 4 5 6 
#
# 1 0.016040 -0.004362 -0.011370 0.000000 0.000000 0.000000
# 2 -0.004362 0.019140 -0.013750 0.000000 0.000000 0.000000
# 3 -0.011370 -0.013750 0.043671 0.000000 0.000000 0.000000
# 4 0.000000 0.000000 0.000000 0.035660 0.000000 0.000000
# 5 0.000000 0.000000 0.000000 0.000000 0.051692 0.000000
# 6 0.000000 0.000000 0.000000 0.000000 0.000000 0.045133
#
#
# Mechanical properties :
#
#
# Convention : Reuss Voigt Hill
#
# Bulk Modulus (GPa) = 50.28034 64.16543 57.22289
# Shear Modulus (GPa) = 18.05522 21.05312 19.55417
#
# Velocity S-wave (km/s) = 3.17897 3.43276 3.30830
# Velocity P-wave (km/s) = 6.45114 7.18514 6.82801
#
# Compressibility (1/GPa) = 0.01988849
#
# Stress axis : x y z
#
# Youngs Moduli (GPa) = 62.34507 52.24672 22.89825
#
# Poissons Ratio (x) = 0.22788 0.26035
# Poissons Ratio (y) = 0.27193 0.31485
# Poissons Ratio (z) = 0.70886 0.71838
#
# Static dielectric constant tensor:
#      x y z
#    x 3.336440 0.000000 0.000000 
#    y 0.000000 3.194660 0.000000 
#    z 0.000000 0.000000 3.259450 
# 
# 
# High freq. dielectric constant tensor:
#      x y z
#    x 1.676620 0.000000 0.000000 
#    y 0.000000 1.659110 0.000000 
#    z 0.000000 0.000000 1.703200 
# 
# From -- ./inp_files/42460.got.cif
#   From: 2010.03.12/outbox.cif.g09.slc.cpg/sg65_22_cif.got.tgz:42460.got - 2010.04.10 20:52:16.
