data_PCOD8270689
_publ_section_title
;
Structure prediction by ZEFSAII (Michael W. Deem and Ramdas Pophale) SiO2 
 PCOD8270689
Probable space group: C M M M
;
_chemical_formula_sum "Si O2"
_cell_formula_units_Z 104
_cell_length_a 18.178138
_cell_length_b 27.702772
_cell_length_c 11.587832
_cell_angle_alpha 90.000000
_cell_angle_beta 90.000000
_cell_angle_gamma 90.000000
_cell_volume 5835.456204
_symmetry_space_group_name_H-M "C M M M"
_symmetry_group_IT_number 65
_symmetry_cell_setting 'orthorhombic'
loop_
_space_group_symop_operation_xyz
x,y,z
-x,-y,z
x,-y,-z
-x,y,-z
-x,-y,-z
x,y,-z
-x,y,z
x,-y,z
1/2+x,1/2+y,z
1/2-x,1/2-y,z
1/2+x,1/2-y,-z
1/2-x,1/2+y,-z
1/2-x,1/2-y,-z
1/2+x,1/2+y,-z
1/2-x,1/2+y,z
1/2+x,1/2-y,z
loop_
_atom_site_type_symbol
_atom_site_label
_atom_site_fract_x
_atom_site_fract_y
_atom_site_fract_z
Si Si1 0.911507 0.381029 0.000000
Si Si2 0.171396 0.684858 0.633121
Si Si3 0.836841 0.845411 0.631187
Si Si4 0.086520 0.729072 0.000000
Si Si5 0.913425 0.232970 0.754764
Si Si6 0.500000 0.054363 0.622921
Si Si7 0.274681 0.554303 0.367694
Si Si8 0.864726 0.591109 0.755906
O O1 0.875887 0.408637 0.107423
O O2 0.883601 0.325556 0.000000
O O3 0.000000 0.384312 0.000000
O O4 0.153760 0.675079 0.500000
O O5 0.258547 0.680490 0.654734
O O6 0.137246 0.735933 0.668654
O O7 0.130527 0.645629 0.710651
O O8 0.862050 0.835852 0.500000
O O9 0.896333 0.822412 0.719061
O O10 0.834515 0.903422 0.654408
O O11 0.113131 0.757616 0.886008
O O12 0.000000 0.726892 0.000000
O O13 0.000000 0.244468 0.738972
O O14 0.500000 0.083682 0.500000
O O15 0.429793 0.062729 0.699288
O O16 0.500000 0.000000 0.585917
O O17 0.245460 0.559790 0.500000
O O18 0.307094 0.500000 0.348514
O O19 0.209341 0.563251 0.278035
#
# Coordination Sequence:
#
# PCOD8270689 Si02
#       8
#     8  16  16   8  16   8  16  16
#     4  11  20  36  49  66 103 150 182 218 263 311
#     4  10  20  33  51  76 107 139 171 213 266 319
#     4   9  19  35  53  78 111 138 166 214 269 318
#     4   9  20  36  50  69 103 146 185 214 250 301
#     4  11  21  34  53  77 105 141 180 216 259 312
#     4  11  22  33  47  71 101 128 167 229 276 303
#     4   9  18  36  60  79  99 133 174 215 266 323
#     4  11  20  33  51  72  98 136 181 219 258 308
#
# _framework density 17.822085999999999
#
# number of rings (size 3 to 8) (size 9 to 14) (size 15 to 20)
#    0.000    1.923    2.308    3.692    1.077    3.692 
#    0.000    6.538    0.000    0.462    0.000    2.154 
#    0.000    1.846    0.000    0.000    0.000    0.000 
#
# Total GULP energy -644571.631934 kJ/mol
# GULP energy per Si atom -12395.608306 kJ/mol
# Density = 1.778152 g / cm^3
# Si number density = 17.822086 Si / 1000 Ang^3
#
#
#
# Elastic Constant Matrix: (Units=GPa)
#
#
# Indices 1 2 3 4 5 6 
#
# 1 28.8713 21.3108 22.4622 0.0000 0.0000 0.0000
# 2 21.3108 97.1149 34.3703 0.0000 0.0000 0.0000
# 3 22.4622 34.3703 119.8729 0.0000 0.0000 0.0000
# 4 0.0000 0.0000 0.0000 36.1511 0.0000 0.0000
# 5 0.0000 0.0000 0.0000 0.0000 27.4832 0.0000
# 6 0.0000 0.0000 0.0000 0.0000 0.0000 31.9156
#
#
#
# Elastic Compliance Matrix: (Units=1/GPa)
#
#
# Indices 1 2 3 4 5 6 
#
# 1 0.045191 -0.007701 -0.006260 0.000000 0.000000 0.000000
# 2 -0.007701 0.012772 -0.002219 0.000000 0.000000 0.000000
# 3 -0.006260 -0.002219 0.010151 0.000000 0.000000 0.000000
# 4 0.000000 0.000000 0.000000 0.027662 0.000000 0.000000
# 5 0.000000 0.000000 0.000000 0.000000 0.036386 0.000000
# 6 0.000000 0.000000 0.000000 0.000000 0.000000 0.031333
#
#
# Mechanical properties :
#
#
# Convention : Reuss Voigt Hill
#
# Bulk Modulus (GPa) = 27.96843 44.68285 36.32564
# Shear Modulus (GPa) = 24.06461 30.29105 27.17783
#
# Velocity S-wave (km/s) = 3.67859 4.12714 3.90930
# Velocity P-wave (km/s) = 5.81118 6.91643 6.38776
#
# Compressibility (1/GPa) = 0.03575460
#
# Stress axis : x y z
#
# Youngs Moduli (GPa) = 22.12815 78.29389 98.50820
#
# Poissons Ratio (x) = 0.60296 0.61666
# Poissons Ratio (y) = 0.17041 0.21859
# Poissons Ratio (z) = 0.13852 0.17374
#
# Static dielectric constant tensor:
#      x y z
#    x 3.378700 0.000000 0.000000 
#    y 0.000000 3.407070 0.000000 
#    z 0.000000 0.000000 3.382130 
# 
# 
# High freq. dielectric constant tensor:
#      x y z
#    x 1.652800 0.000000 0.000000 
#    y 0.000000 1.689470 0.000000 
#    z 0.000000 0.000000 1.691350 
# 
# From -- ./inp_files/27564.got.cif
#   From: 2010.03.12/outbox.cif.g09.slc.cpg/sg65_14_cif.got.tgz:27564.got - 2010.04.10 20:52:16.
