data_PCOD8270621
_publ_section_title
;
Structure prediction by ZEFSAII (Michael W. Deem and Ramdas Pophale) SiO2 
 PCOD8270621
Probable space group: C M M M
;
_chemical_formula_sum "Si O2"
_cell_formula_units_Z 104
_cell_length_a 8.749914
_cell_length_b 27.178803
_cell_length_c 21.640687
_cell_angle_alpha 90.000000
_cell_angle_beta 90.000000
_cell_angle_gamma 90.000000
_cell_volume 5146.419144
_symmetry_space_group_name_H-M "C M M M"
_symmetry_group_IT_number 65
_symmetry_cell_setting 'orthorhombic'
loop_
_space_group_symop_operation_xyz
x,y,z
-x,-y,z
x,-y,-z
-x,y,-z
-x,-y,-z
x,y,-z
-x,y,z
x,-y,z
1/2+x,1/2+y,z
1/2-x,1/2-y,z
1/2+x,1/2-y,-z
1/2-x,1/2+y,-z
1/2-x,1/2-y,-z
1/2+x,1/2+y,-z
1/2-x,1/2+y,z
1/2+x,1/2-y,z
loop_
_atom_site_type_symbol
_atom_site_label
_atom_site_fract_x
_atom_site_fract_y
_atom_site_fract_z
Si Si1 0.832343 0.796223 0.429342
Si Si2 0.320845 0.056027 0.176199
Si Si3 0.179759 0.197171 0.244747
Si Si4 0.680257 0.895444 0.697925
Si Si5 0.678612 0.101693 0.566038
Si Si6 0.679337 0.353295 0.882033
Si Si7 0.179747 0.696265 0.000000
O O1 0.861780 0.782113 0.500000
O O2 0.750000 0.750000 0.395576
O O3 0.718177 0.841619 0.424989
O O4 0.000000 0.806608 0.398671
O O5 0.500000 0.065456 0.166282
O O6 0.273182 0.068071 0.246888
O O7 0.226461 0.090064 0.129345
O O8 0.275876 0.000000 0.162087
O O9 0.250000 0.250000 0.258705
O O10 0.237611 0.157513 0.294965
O O11 0.230276 0.179129 0.176672
O O12 0.000000 0.201067 0.249114
O O13 0.500000 0.885342 0.697487
O O14 0.730800 0.921695 0.632182
O O15 0.752528 0.081856 0.500000
O O16 0.500000 0.094695 0.558673
O O17 0.500000 0.350147 0.895051
O O18 0.769963 0.333587 0.940255
O O19 0.250000 0.750000 0.000000
O O20 0.000000 0.702187 0.000000
#
# Coordination Sequence:
#
# PCOD8270621 Si02
#       7
#    16  16  16  16  16  16   8
#     4   9  16  25  37  53  75 107 148 191 235 287
#     4   9  18  35  59  83 107 138 178 226 280 333
#     4  10  20  33  51  74 102 137 176 220 266 312
#     4   9  18  32  50  72  98 130 170 216 266 324
#     4   9  17  29  44  62  87 121 160 203 255 315
#     4  10  21  37  57  84 116 149 188 230 271 317
#     4  12  24  38  59  88 125 166 200 227 259 303
#
# _framework density 20.208224999999999
#
# number of rings (size 3 to 8) (size 9 to 14) (size 15 to 20)
#    0.000    2.462    0.000    2.538    0.000    6.462 
#    0.000    0.385    0.000    2.769    0.000    3.231 
#    0.000    0.000    0.000   11.538    0.000   12.000 
#
# Total GULP energy -644303.434314 kJ/mol
# GULP energy per Si atom -12390.450660 kJ/mol
# Density = 2.016223 g / cm^3
# Si number density = 20.208225 Si / 1000 Ang^3
#
#
#
# Elastic Constant Matrix: (Units=GPa)
#
#
# Indices 1 2 3 4 5 6 
#
# 1 53.7582 22.6163 35.7251 0.0000 0.0000 0.0000
# 2 22.6163 78.9143 35.5516 0.0000 0.0000 0.0000
# 3 35.7251 35.5516 147.0308 0.0000 0.0000 0.0000
# 4 0.0000 0.0000 0.0000 -23.7001 0.0000 0.0000
# 5 0.0000 0.0000 0.0000 0.0000 17.9219 0.0000
# 6 0.0000 0.0000 0.0000 0.0000 0.0000 24.4900
#
#
#
# Elastic Compliance Matrix: (Units=1/GPa)
#
#
# Indices 1 2 3 4 5 6 
#
# 1 0.023641 -0.004699 -0.004608 0.000000 0.000000 0.000000
# 2 -0.004699 0.015155 -0.002523 0.000000 0.000000 0.000000
# 3 -0.004608 -0.002523 0.008531 0.000000 0.000000 0.000000
# 4 0.000000 0.000000 0.000000 -0.042194 0.000000 0.000000
# 5 0.000000 0.000000 0.000000 0.000000 0.055798 0.000000
# 6 0.000000 0.000000 0.000000 0.000000 0.000000 0.040833
#
#
# Mechanical properties :
#
#
# Convention : Reuss Voigt Hill
#
# Bulk Modulus (GPa) = 42.25256 51.94325 47.09790
# Shear Modulus (GPa) = 37.50567 16.12971 26.81769
#
# Velocity S-wave (km/s) = 4.31276 2.82826 3.64685
# Velocity P-wave (km/s) = 6.76416 6.03533 6.41011
#
# Compressibility (1/GPa) = 0.02366721
#
# Stress axis : x y z
#
# Youngs Moduli (GPa) = 42.29926 65.98361 117.22115
#
# Poissons Ratio (x) = 0.31009 0.54015
# Poissons Ratio (y) = 0.19878 0.29571
# Poissons Ratio (z) = 0.19491 0.16645
#
# Static dielectric constant tensor:
#      x y z
#    x 3.692320 0.000000 0.000000 
#    y 0.000000 3.409470 0.000000 
#    z 0.000000 0.000000 4.083420 
# 
# 
# High freq. dielectric constant tensor:
#      x y z
#    x 1.783970 0.000000 0.000000 
#    y 0.000000 1.756070 0.000000 
#    z 0.000000 0.000000 1.801220 
# 
# From -- ./inp_files/60402.got.cif
#   From: 2010.03.12/outbox.cif.g09.slc.cpg/sg65_31_cif.got.tgz:60402.got - 2010.04.10 20:52:16.
