data_PCOD8270535
_publ_section_title
;
Structure prediction by ZEFSAII (Michael W. Deem and Ramdas Pophale) SiO2 
 PCOD8270535
Probable space group: C M M M
;
_chemical_formula_sum "Si O2"
_cell_formula_units_Z 96
_cell_length_a 21.601694
_cell_length_b 24.238952
_cell_length_c 9.429636
_cell_angle_alpha 90.000000
_cell_angle_beta 90.000000
_cell_angle_gamma 90.000000
_cell_volume 4937.380267
_symmetry_space_group_name_H-M "C M M M"
_symmetry_group_IT_number 65
_symmetry_cell_setting 'orthorhombic'
loop_
_space_group_symop_operation_xyz
x,y,z
-x,-y,z
x,-y,-z
-x,y,-z
-x,-y,-z
x,y,-z
-x,y,z
x,-y,z
1/2+x,1/2+y,z
1/2-x,1/2-y,z
1/2+x,1/2-y,-z
1/2-x,1/2+y,-z
1/2-x,1/2-y,-z
1/2+x,1/2+y,-z
1/2-x,1/2+y,z
1/2+x,1/2-y,z
loop_
_atom_site_type_symbol
_atom_site_label
_atom_site_fract_x
_atom_site_fract_y
_atom_site_fract_z
Si Si1 0.071254 0.436897 0.343382
Si Si2 0.761477 0.937971 0.336772
Si Si3 0.319031 0.749072 0.838890
Si Si4 0.383453 0.439359 0.160529
Si Si5 0.432115 0.677207 0.165743
Si Si6 0.337131 0.874931 0.160764
O O1 0.100604 0.425683 0.500000
O O2 0.081860 0.500000 0.301118
O O3 0.100350 0.399802 0.222363
O O4 0.000000 0.421678 0.349192
O O5 0.765013 0.920219 0.500000
O O6 0.829114 0.935180 0.272804
O O7 0.720327 0.894275 0.253891
O O8 0.733920 0.000000 0.320996
O O9 0.250000 0.750000 0.765705
O O10 0.371698 0.708970 0.766839
O O11 0.346408 0.809864 0.831272
O O12 0.308956 0.728225 0.000000
O O13 0.416008 0.500000 0.177128
O O14 0.429355 0.388768 0.192827
O O15 0.357184 0.433477 0.000000
O O16 0.500000 0.696140 0.227180
O O17 0.431426 0.691027 0.000000
O O18 0.327080 0.895012 0.000000
#
# Coordination Sequence:
#
# PCOD8270535 Si02
#       6
#    16  16  16  16  16  16
#     4   9  19  36  54  71  98 138 175 205 250 317
#     4  10  20  33  50  73 103 138 171 203 249 313
#     4   9  18  32  49  71 102 139 175 211 257 313
#     4   9  17  30  51  79 106 130 162 207 253 296
#     4   9  17  30  50  76 106 138 170 209 260 314
#     4  11  21  31  50  78 101 126 169 222 265 301
#
# _framework density 19.443508999999999
#
# number of rings (size 3 to 8) (size 9 to 14) (size 15 to 20)
#    0.000    2.500    0.000    3.000    0.000    7.333 
#    0.000    4.167    0.000    9.500    0.000    2.333 
#    0.000    0.000    0.000    0.000    0.000    0.000 
#
# Total GULP energy -594753.672862 kJ/mol
# GULP energy per Si atom -12390.701518 kJ/mol
# Density = 1.939925 g / cm^3
# Si number density = 19.443509 Si / 1000 Ang^3
#
#
#
# Elastic Constant Matrix: (Units=GPa)
#
#
# Indices 1 2 3 4 5 6 
#
# 1 125.3707 54.8685 27.6082 0.0000 0.0000 0.0000
# 2 54.8685 88.9758 31.0963 0.0000 0.0000 0.0000
# 3 27.6082 31.0963 79.4781 0.0000 0.0000 0.0000
# 4 0.0000 0.0000 0.0000 6.4834 0.0000 0.0000
# 5 0.0000 0.0000 0.0000 0.0000 12.8490 0.0000
# 6 0.0000 0.0000 0.0000 0.0000 0.0000 16.1601
#
#
#
# Elastic Compliance Matrix: (Units=1/GPa)
#
#
# Indices 1 2 3 4 5 6 
#
# 1 0.011050 -0.006339 -0.001358 0.000000 0.000000 0.000000
# 2 -0.006339 0.016656 -0.004315 0.000000 0.000000 0.000000
# 3 -0.001358 -0.004315 0.014742 0.000000 0.000000 0.000000
# 4 0.000000 0.000000 0.000000 0.154241 0.000000 0.000000
# 5 0.000000 0.000000 0.000000 0.000000 0.077827 0.000000
# 6 0.000000 0.000000 0.000000 0.000000 0.000000 0.061881
#
#
# Mechanical properties :
#
#
# Convention : Reuss Voigt Hill
#
# Bulk Modulus (GPa) = 54.27798 57.88564 56.08181
# Shear Modulus (GPa) = 13.64024 19.11526 16.37775
#
# Velocity S-wave (km/s) = 2.65152 3.13887 2.90543
# Velocity P-wave (km/s) = 6.11150 6.55534 6.33731
#
# Compressibility (1/GPa) = 0.01842368
#
# Stress axis : x y z
#
# Youngs Moduli (GPa) = 90.49872 60.03715 67.83345
#
# Poissons Ratio (x) = 0.38061 0.09212
# Poissons Ratio (y) = 0.57372 0.29269
# Poissons Ratio (z) = 0.12290 0.25905
#
# Static dielectric constant tensor:
#      x y z
#    x 3.611310 0.000000 0.000000 
#    y 0.000000 3.644690 0.000000 
#    z 0.000000 0.000000 3.138080 
# 
# 
# High freq. dielectric constant tensor:
#      x y z
#    x 1.757600 0.000000 0.000000 
#    y 0.000000 1.759330 0.000000 
#    z 0.000000 0.000000 1.715860 
# 
# From -- ./inp_files/12241.got.cif
#   From: 2010.03.12/outbox.cif.g09.slc.cpg/sg65_7_cif.got.tgz:12241.got - 2010.04.10 20:52:16.
