data_PCOD8270317
_publ_section_title
;
Structure prediction by ZEFSAII (Michael W. Deem and Ramdas Pophale) SiO2 
 PCOD8270317
Probable space group: C M M M
;
_chemical_formula_sum "Si O2"
_cell_formula_units_Z 104
_cell_length_a 26.994397
_cell_length_b 8.773304
_cell_length_c 26.751171
_cell_angle_alpha 90.000000
_cell_angle_beta 90.000000
_cell_angle_gamma 90.000000
_cell_volume 6335.481197
_symmetry_space_group_name_H-M "C M M M"
_symmetry_group_IT_number 65
_symmetry_cell_setting 'orthorhombic'
loop_
_space_group_symop_operation_xyz
x,y,z
-x,-y,z
x,-y,-z
-x,y,-z
-x,-y,-z
x,y,-z
-x,y,z
x,-y,z
1/2+x,1/2+y,z
1/2-x,1/2-y,z
1/2+x,1/2-y,-z
1/2-x,1/2+y,-z
1/2-x,1/2-y,-z
1/2+x,1/2+y,-z
1/2-x,1/2+y,z
1/2+x,1/2-y,z
loop_
_atom_site_type_symbol
_atom_site_label
_atom_site_fract_x
_atom_site_fract_y
_atom_site_fract_z
Si Si1 0.901115 0.180266 0.395983
Si Si2 0.304475 0.820017 0.152951
Si Si3 0.644837 0.320263 0.246504
Si Si4 0.556770 0.824157 0.300409
Si Si5 0.196182 0.821624 0.054149
Si Si6 0.698598 0.677398 0.346193
Si Si7 0.444269 0.319050 0.500000
O O1 0.936501 0.263650 0.356671
O O2 0.843854 0.223984 0.385811
O O3 0.915276 0.239208 0.451072
O O4 0.909423 0.000000 0.389531
O O5 0.250000 0.750000 0.160392
O O6 0.340212 0.769327 0.197159
O O7 0.330156 0.760951 0.101130
O O8 0.299753 0.000000 0.152094
O O9 0.646808 0.500000 0.236807
O O10 0.589337 0.273067 0.261586
O O11 0.682040 0.269879 0.290871
O O12 0.500000 0.803045 0.284436
O O13 0.573071 0.000000 0.298139
O O14 0.250000 0.750000 0.050514
O O15 0.200543 0.000000 0.065815
O O16 0.169271 0.794699 0.000000
O O17 0.707218 0.500000 0.346320
O O18 0.750000 0.750000 0.362838
O O19 0.445936 0.500000 0.500000
O O20 0.500000 0.252891 0.500000
#
# Coordination Sequence:
#
# PCOD8270317 Si02
#       7
#    16  16  16  16  16  16   8
#     4   9  18  32  49  70  92 116 151 188 222 266
#     4  11  20  29  43  64  93 126 159 195 234 275
#     4  10  20  33  48  67  90 118 155 193 229 270
#     4  10  20  33  49  70  95 120 145 178 226 280
#     4   9  16  26  40  58  83 118 159 198 234 273
#     4   9  18  30  45  64  87 117 149 183 220 261
#     4   9  16  28  50  73  89 111 147 191 232 269
#
# _framework density 16.415486000000001
#
# number of rings (size 3 to 8) (size 9 to 14) (size 15 to 20)
#    0.000    2.385    0.000    5.538    0.000    7.077 
#    0.000    0.769    0.000    1.385    0.000    0.000 
#    0.000    0.615    0.000    6.462    0.000    2.769 
#
# Total GULP energy -644609.306740 kJ/mol
# GULP energy per Si atom -12396.332822 kJ/mol
# Density = 1.637812 g / cm^3
# Si number density = 16.415486 Si / 1000 Ang^3
#
#
#
# Elastic Constant Matrix: (Units=GPa)
#
#
# Indices 1 2 3 4 5 6 
#
# 1 82.2385 29.0791 50.0351 0.0000 0.0000 0.0000
# 2 29.0791 78.3871 44.0963 0.0000 0.0000 0.0000
# 3 50.0351 44.0963 144.5570 0.0000 0.0000 0.0000
# 4 0.0000 0.0000 0.0000 21.9265 0.0000 0.0000
# 5 0.0000 0.0000 0.0000 0.0000 14.1691 0.0000
# 6 0.0000 0.0000 0.0000 0.0000 0.0000 24.2612
#
#
#
# Elastic Compliance Matrix: (Units=1/GPa)
#
#
# Indices 1 2 3 4 5 6 
#
# 1 0.016134 -0.003433 -0.004537 0.000000 0.000000 0.000000
# 2 -0.003433 0.016130 -0.003732 0.000000 0.000000 0.000000
# 3 -0.004537 -0.003732 0.009627 0.000000 0.000000 0.000000
# 4 0.000000 0.000000 0.000000 0.045607 0.000000 0.000000
# 5 0.000000 0.000000 0.000000 0.000000 0.070576 0.000000
# 6 0.000000 0.000000 0.000000 0.000000 0.000000 0.041218
#
#
# Mechanical properties :
#
#
# Convention : Reuss Voigt Hill
#
# Bulk Modulus (GPa) = 54.09408 61.28929 57.69169
# Shear Modulus (GPa) = 21.84754 24.20284 23.02519
#
# Velocity S-wave (km/s) = 3.65212 3.84395 3.74926
# Velocity P-wave (km/s) = 7.12802 7.55768 7.34599
#
# Compressibility (1/GPa) = 0.01848631
#
# Stress axis : x y z
#
# Youngs Moduli (GPa) = 61.98041 61.99544 103.87811
#
# Poissons Ratio (x) = 0.21282 0.47133
# Poissons Ratio (y) = 0.21277 0.38770
# Poissons Ratio (z) = 0.28122 0.23138
#
# Static dielectric constant tensor:
#      x y z
#    x 2.993230 0.000000 0.000000 
#    y 0.000000 3.132030 0.000000 
#    z 0.000000 0.000000 3.537620 
# 
# 
# High freq. dielectric constant tensor:
#      x y z
#    x 1.598730 0.000000 0.000000 
#    y 0.000000 1.637470 0.000000 
#    z 0.000000 0.000000 1.634320 
# 
# From -- ./inp_files/76253.got.cif
#   From: 2010.03.12/outbox.cif.g09.slc.cpg/sg65_39_cif.got.tgz:76253.got - 2010.04.10 20:52:16.
