data_PCOD8270995
_publ_section_title
;
Structure prediction by ZEFSAII (Michael W. Deem and Ramdas Pophale) SiO2 
 PCOD8270995
Probable space group: C M M M
;
_chemical_formula_sum "Si O2"
_cell_formula_units_Z 88
_cell_length_a 28.258162
_cell_length_b 9.168639
_cell_length_c 23.457296
_cell_angle_alpha 90.000000
_cell_angle_beta 90.000000
_cell_angle_gamma 90.000000
_cell_volume 6077.524693
_symmetry_space_group_name_H-M "C M M M"
_symmetry_group_IT_number 65
_symmetry_cell_setting 'orthorhombic'
loop_
_space_group_symop_operation_xyz
x,y,z
-x,-y,z
x,-y,-z
-x,y,-z
-x,-y,-z
x,y,-z
-x,y,z
x,-y,z
1/2+x,1/2+y,z
1/2-x,1/2-y,z
1/2+x,1/2-y,-z
1/2-x,1/2+y,-z
1/2-x,1/2-y,-z
1/2+x,1/2+y,-z
1/2-x,1/2+y,z
1/2+x,1/2-y,z
loop_
_atom_site_type_symbol
_atom_site_label
_atom_site_fract_x
_atom_site_fract_y
_atom_site_fract_z
Si Si1 0.943954 0.160260 0.832887
Si Si2 0.056207 0.662983 0.938030
Si Si3 0.447306 0.172739 0.500000
Si Si4 0.888543 0.326088 0.391079
Si Si5 0.298548 0.670808 0.433766
Si Si6 0.445002 0.328844 0.294283
O O1 0.921022 0.252707 0.884408
O O2 0.932060 0.221863 0.770099
O O3 0.000000 0.152674 0.839743
O O4 0.921987 0.000000 0.838685
O O5 0.076194 0.500000 0.935094
O O6 0.000000 0.661817 0.932244
O O7 0.070188 0.731907 0.000000
O O8 0.500000 0.240688 0.500000
O O9 0.420266 0.227560 0.555962
O O10 0.450210 0.000000 0.500000
O O11 0.881758 0.500000 0.390333
O O12 0.838192 0.247363 0.395444
O O13 0.913653 0.273264 0.333926
O O14 0.310837 0.695571 0.500000
O O15 0.294872 0.500000 0.418967
O O16 0.250000 0.750000 0.417744
O O17 0.500000 0.299069 0.307325
O O18 0.433621 0.500000 0.303185
#
# Coordination Sequence:
#
# PCOD8270995 Si02
#       6
#    16  16   8  16  16  16
#     4   8  14  24  36  49  68  97 132 169 205 240
#     4   8  13  20  30  46  68  92 121 162 207 244
#     4   9  18  30  42  59  84 109 134 169 206 239
#     4  11  20  31  47  65  86 109 137 170 209 252
#     4  10  20  34  52  70  88 106 129 161 204 252
#     4   9  18  31  43  57  81 111 143 178 212 247
#
# _framework density 14.479578999999999
#
# number of rings (size 3 to 8) (size 9 to 14) (size 15 to 20)
#    0.000    2.818    0.909    3.273    0.000    2.909 
#    0.000    3.636    0.000    2.182    0.000    0.000 
#    0.000    0.000    0.000    0.000    0.000    0.909 
#
# Total GULP energy -545324.654604 kJ/mol
# GULP energy per Si atom -12393.742150 kJ/mol
# Density = 1.444662 g / cm^3
# Si number density = 14.479579 Si / 1000 Ang^3
#
#
#
# Elastic Constant Matrix: (Units=GPa)
#
#
# Indices 1 2 3 4 5 6 
#
# 1 62.1864 36.7170 38.9199 0.0000 0.0000 0.0000
# 2 36.7170 75.0469 51.8003 0.0000 0.0000 0.0000
# 3 38.9199 51.8003 119.5253 0.0000 0.0000 0.0000
# 4 0.0000 0.0000 0.0000 27.1195 0.0000 0.0000
# 5 0.0000 0.0000 0.0000 0.0000 2.3981 0.0000
# 6 0.0000 0.0000 0.0000 0.0000 0.0000 18.6771
#
#
#
# Elastic Compliance Matrix: (Units=1/GPa)
#
#
# Indices 1 2 3 4 5 6 
#
# 1 0.023797 -0.008981 -0.003857 0.000000 0.000000 0.000000
# 2 -0.008981 0.022402 -0.006784 0.000000 0.000000 0.000000
# 3 -0.003857 -0.006784 0.012562 0.000000 0.000000 0.000000
# 4 0.000000 0.000000 0.000000 0.036874 0.000000 0.000000
# 5 0.000000 0.000000 0.000000 0.000000 0.416990 0.000000
# 6 0.000000 0.000000 0.000000 0.000000 0.000000 0.053542
#
#
# Mechanical properties :
#
#
# Convention : Reuss Voigt Hill
#
# Bulk Modulus (GPa) = 51.23534 56.84809 54.04171
# Shear Modulus (GPa) = 8.17107 18.26038 13.21573
#
# Velocity S-wave (km/s) = 2.37811 3.55507 3.02439
# Velocity P-wave (km/s) = 6.55759 7.49650 7.04270
#
# Compressibility (1/GPa) = 0.01951778
#
# Stress axis : x y z
#
# Youngs Moduli (GPa) = 42.02222 44.63983 79.60279
#
# Poissons Ratio (x) = 0.40090 0.30700
# Poissons Ratio (y) = 0.37739 0.54004
# Poissons Ratio (z) = 0.16207 0.30284
#
# Static dielectric constant tensor:
#      x y z
#    x 2.457090 0.000000 0.000000 
#    y 0.000000 2.901540 0.000000 
#    z 0.000000 0.000000 2.982730 
# 
# 
# High freq. dielectric constant tensor:
#      x y z
#    x 1.498900 0.000000 0.000000 
#    y 0.000000 1.554970 0.000000 
#    z 0.000000 0.000000 1.554720 
# 
# From -- ./inp_files/66185.got.cif
#   From: 2010.03.12/outbox.cif.g09.slc.cpg/sg65_34_cif.got.tgz:66185.got - 2010.04.10 20:52:16.
