data_PCOD8270781
_publ_section_title
;
Structure prediction by ZEFSAII (Michael W. Deem and Ramdas Pophale) SiO2 
 PCOD8270781
Probable space group: C M M M
;
_chemical_formula_sum "Si O2"
_cell_formula_units_Z 112
_cell_length_a 14.257492
_cell_length_b 14.469537
_cell_length_c 24.643644
_cell_angle_alpha 90.000000
_cell_angle_beta 90.000000
_cell_angle_gamma 90.000000
_cell_volume 5083.966704
_symmetry_space_group_name_H-M "C M M M"
_symmetry_group_IT_number 65
_symmetry_cell_setting 'orthorhombic'
loop_
_space_group_symop_operation_xyz
x,y,z
-x,-y,z
x,-y,-z
-x,y,-z
-x,-y,-z
x,y,-z
-x,y,z
x,-y,z
1/2+x,1/2+y,z
1/2-x,1/2-y,z
1/2+x,1/2-y,-z
1/2-x,1/2+y,-z
1/2-x,1/2-y,-z
1/2+x,1/2+y,-z
1/2-x,1/2+y,z
1/2+x,1/2-y,z
loop_
_atom_site_type_symbol
_atom_site_label
_atom_site_fract_x
_atom_site_fract_y
_atom_site_fract_z
Si Si1 0.790382 0.604146 0.843970
Si Si2 0.715934 0.889858 0.275126
Si Si3 0.395384 0.610148 0.337342
Si Si4 0.283480 0.389894 0.439947
Si Si5 0.607263 0.206369 0.940398
Si Si6 0.395932 0.110006 0.622113
Si Si7 0.603539 0.399357 0.897665
O O1 0.829908 0.500000 0.849161
O O2 0.812400 0.647388 0.784723
O O3 0.832941 0.663902 0.892222
O O4 0.677827 0.606610 0.848916
O O5 0.819203 0.853010 0.293440
O O6 0.637617 0.856764 0.318088
O O7 0.720636 0.000000 0.272523
O O8 0.500000 0.649532 0.325637
O O9 0.396868 0.500000 0.336620
O O10 0.361807 0.644644 0.397127
O O11 0.305918 0.350795 0.500000
O O12 0.282294 0.500000 0.440365
O O13 0.179741 0.354120 0.421969
O O14 0.500000 0.177102 0.931226
O O15 0.619411 0.317423 0.940710
O O16 0.641332 0.171979 0.000000
O O17 0.500000 0.150406 0.610265
O O18 0.398869 0.000000 0.621012
O O19 0.500000 0.389847 0.871272
O O20 0.613872 0.500000 0.927022
#
# Coordination Sequence:
#
# PCOD8270781 Si02
#       7
#    16  16  16  16  16  16  16
#     4  10  20  33  52  78 106 138 175 216 266 321
#     4   8  15  26  38  57  84 113 153 203 250 301
#     4   8  13  21  33  49  73 109 152 201 257 309
#     4   8  13  19  26  41  67  99 144 204 263 317
#     4  10  22  39  57  78 106 139 173 211 257 312
#     4   8  13  21  32  45  66 102 148 199 253 302
#     4   9  19  36  57  81 106 132 168 213 258 307
#
# _framework density 22.030042999999999
#
# number of rings (size 3 to 8) (size 9 to 14) (size 15 to 20)
#    0.000    3.286    0.000    2.143    0.000    3.714 
#    0.000   10.714    0.000    0.000    0.000    0.000 
#    0.000    0.000    0.000    0.000    0.000   45.714 
#
# Total GULP energy -693774.359845 kJ/mol
# GULP energy per Si atom -12388.827854 kJ/mol
# Density = 2.197990 g / cm^3
# Si number density = 22.030043 Si / 1000 Ang^3
#
#
#
# Elastic Constant Matrix: (Units=GPa)
#
#
# Indices 1 2 3 4 5 6 
#
# 1 110.0251 0.2433 38.2732 0.0000 0.0000 0.0000
# 2 0.2433 35.7672 14.6296 0.0000 0.0000 0.0000
# 3 38.2732 14.6296 152.5176 0.0000 0.0000 0.0000
# 4 0.0000 0.0000 0.0000 -0.9258 0.0000 0.0000
# 5 0.0000 0.0000 0.0000 0.0000 21.4158 0.0000
# 6 0.0000 0.0000 0.0000 0.0000 0.0000 14.0872
#
#
#
# Elastic Compliance Matrix: (Units=1/GPa)
#
#
# Indices 1 2 3 4 5 6 
#
# 1 0.009992 0.000997 -0.002603 0.000000 0.000000 0.000000
# 2 0.000997 0.029200 -0.003051 0.000000 0.000000 0.000000
# 3 -0.002603 -0.003051 0.007502 0.000000 0.000000 0.000000
# 4 0.000000 0.000000 0.000000 -1.080135 0.000000 0.000000
# 5 0.000000 0.000000 0.000000 0.000000 0.046695 0.000000
# 6 0.000000 0.000000 0.000000 0.000000 0.000000 0.070986
#
#
# Mechanical properties :
#
#
# Convention : Reuss Voigt Hill
#
# Bulk Modulus (GPa) = 26.75247 44.95578 35.85412
# Shear Modulus (GPa) = -5.59293 23.25970 8.83338
#
# Velocity S-wave (km/s) = -1.59508 3.25286 2.00460
# Velocity P-wave (km/s) = 2.96270 5.87869 4.65492
#
# Compressibility (1/GPa) = 0.03737973
#
# Stress axis : x y z
#
# Youngs Moduli (GPa) = 100.07878 34.24694 133.28910
#
# Poissons Ratio (x) = -0.03414 0.34696
# Poissons Ratio (y) = -0.09975 0.40666
# Poissons Ratio (z) = 0.26051 0.10449
#
# Static dielectric constant tensor:
#      x y z
#    x 4.239130 0.000000 0.000000 
#    y 0.000000 3.651980 0.000000 
#    z 0.000000 0.000000 4.000240 
# 
# 
# High freq. dielectric constant tensor:
#      x y z
#    x 1.864560 0.000000 0.000000 
#    y 0.000000 1.842690 0.000000 
#    z 0.000000 0.000000 1.849990 
# 
# From -- ./inp_files/74893.got.cif
#   From: 2010.03.12/outbox.cif.g09.slc.cpg/sg65_38_cif.got.tgz:74893.got - 2010.04.10 20:52:16.
