data_PCOD8270987
_publ_section_title
;
Structure prediction by ZEFSAII (Michael W. Deem and Ramdas Pophale) SiO2 
 PCOD8270987
Probable space group: C M M M
;
_chemical_formula_sum "Si O2"
_cell_formula_units_Z 128
_cell_length_a 19.642603
_cell_length_b 19.990527
_cell_length_c 19.396012
_cell_angle_alpha 90.000000
_cell_angle_beta 90.000000
_cell_angle_gamma 90.000000
_cell_volume 7616.154169
_symmetry_space_group_name_H-M "C M M M"
_symmetry_group_IT_number 65
_symmetry_cell_setting 'orthorhombic'
loop_
_space_group_symop_operation_xyz
x,y,z
-x,-y,z
x,-y,-z
-x,y,-z
-x,-y,-z
x,y,-z
-x,y,z
x,-y,z
1/2+x,1/2+y,z
1/2-x,1/2-y,z
1/2+x,1/2-y,-z
1/2-x,1/2+y,-z
1/2-x,1/2-y,-z
1/2+x,1/2+y,-z
1/2-x,1/2+y,z
1/2+x,1/2-y,z
loop_
_atom_site_type_symbol
_atom_site_label
_atom_site_fract_x
_atom_site_fract_y
_atom_site_fract_z
Si Si1 0.292212 0.573668 0.788458
Si Si2 0.077052 0.117464 0.282736
Si Si3 0.728571 0.826457 0.572984
Si Si4 0.241955 0.141271 0.076100
Si Si5 0.424617 0.760677 0.782985
Si Si6 0.639680 0.763456 0.923328
Si Si7 0.203014 0.684385 0.718801
Si Si8 0.857489 0.078173 0.577871
O O1 0.264732 0.500000 0.772938
O O2 0.371172 0.576600 0.765421
O O3 0.283205 0.586672 0.869579
O O4 0.247934 0.623783 0.744358
O O5 0.086643 0.194999 0.263125
O O6 0.090009 0.104641 0.364241
O O7 0.000000 0.094298 0.266165
O O8 0.692344 0.846294 0.500000
O O9 0.750000 0.750000 0.566797
O O10 0.680596 0.830933 0.639818
O O11 0.791142 0.876377 0.585574
O O12 0.318153 0.168322 0.092302
O O13 0.191815 0.203215 0.079815
O O14 0.240114 0.108480 0.000000
O O15 0.500000 0.789802 0.769417
O O16 0.417407 0.749764 0.865403
O O17 0.366625 0.812713 0.761052
O O18 0.606246 0.767535 0.000000
O O19 0.250000 0.750000 0.726927
O O20 0.887975 0.086589 0.500000
O O21 0.839755 0.000000 0.591463
#
# Coordination Sequence:
#
# PCOD8270987 Si02
#       8
#    16  16  16  16  16  16  16  16
#     4  12  22  32  53  80 103 137 179 216 258 312
#     4  11  22  35  50  74 107 143 179 216 259 306
#     4   9  17  29  49  74  97 129 172 216 265 309
#     4   9  17  31  52  77 103 132 169 217 261 304
#     4  11  21  33  54  81 105 135 176 218 262 309
#     4   9  16  30  54  78 101 132 171 213 262 313
#     4  11  18  34  56  73 103 139 171 222 263 306
#     4  10  20  34  51  73 103 140 181 219 258 311
#
# _framework density 16.806383
#
# number of rings (size 3 to 8) (size 9 to 14) (size 15 to 20)
#    0.000    1.750    5.000    1.875    0.000    1.750 
#    0.000    0.625    0.000    1.875    0.000    0.875 
#    0.000    2.000    0.000    4.250    0.000    0.000 
#
# Total GULP energy -792922.178577 kJ/mol
# GULP energy per Si atom -12389.409040 kJ/mol
# Density = 1.676813 g / cm^3
# Si number density = 16.806383 Si / 1000 Ang^3
#
#
#
# Elastic Constant Matrix: (Units=GPa)
#
#
# Indices 1 2 3 4 5 6 
#
# 1 71.9280 35.3478 43.4828 0.0000 0.0000 0.0000
# 2 35.3478 84.1600 40.4323 0.0000 0.0000 0.0000
# 3 43.4828 40.4323 141.2649 0.0000 0.0000 0.0000
# 4 0.0000 0.0000 0.0000 16.9585 0.0000 0.0000
# 5 0.0000 0.0000 0.0000 0.0000 15.3663 0.0000
# 6 0.0000 0.0000 0.0000 0.0000 0.0000 12.9878
#
#
#
# Elastic Compliance Matrix: (Units=1/GPa)
#
#
# Indices 1 2 3 4 5 6 
#
# 1 0.019486 -0.006148 -0.004238 0.000000 0.000000 0.000000
# 2 -0.006148 0.015716 -0.002606 0.000000 0.000000 0.000000
# 3 -0.004238 -0.002606 0.009129 0.000000 0.000000 0.000000
# 4 0.000000 0.000000 0.000000 0.058967 0.000000 0.000000
# 5 0.000000 0.000000 0.000000 0.000000 0.065077 0.000000
# 6 0.000000 0.000000 0.000000 0.000000 0.000000 0.076996
#
#
# Mechanical properties :
#
#
# Convention : Reuss Voigt Hill
#
# Bulk Modulus (GPa) = 54.50396 59.54207 57.02302
# Shear Modulus (GPa) = 18.01977 20.93520 19.47748
#
# Velocity S-wave (km/s) = 3.27800 3.53323 3.40800
# Velocity P-wave (km/s) = 6.84309 7.22151 7.03484
#
# Compressibility (1/GPa) = 0.01834729
#
# Stress axis : x y z
#
# Youngs Moduli (GPa) = 51.31760 63.62822 109.53693
#
# Poissons Ratio (x) = 0.39120 0.46426
# Poissons Ratio (y) = 0.31551 0.28543
# Poissons Ratio (z) = 0.21751 0.16580
#
# Static dielectric constant tensor:
#      x y z
#    x 3.003160 0.000000 0.000000 
#    y 0.000000 3.036780 0.000000 
#    z 0.000000 0.000000 3.996100 
# 
# 
# High freq. dielectric constant tensor:
#      x y z
#    x 1.608940 0.000000 0.000000 
#    y 0.000000 1.625560 0.000000 
#    z 0.000000 0.000000 1.677650 
# 
# From -- ./inp_files/64834.got.cif
#   From: 2010.03.12/outbox.cif.g09.slc.cpg/sg65_33_cif.got.tgz:64834.got - 2010.04.10 20:52:16.
