data_PCOD8270822
_publ_section_title
;
Structure prediction by ZEFSAII (Michael W. Deem and Ramdas Pophale) SiO2 
 PCOD8270822
Probable space group: C M M M
;
_chemical_formula_sum "Si O2"
_cell_formula_units_Z 96
_cell_length_a 24.770242
_cell_length_b 23.528342
_cell_length_c 9.023937
_cell_angle_alpha 90.000000
_cell_angle_beta 90.000000
_cell_angle_gamma 90.000000
_cell_volume 5259.175076
_symmetry_space_group_name_H-M "C M M M"
_symmetry_group_IT_number 65
_symmetry_cell_setting 'orthorhombic'
loop_
_space_group_symop_operation_xyz
x,y,z
-x,-y,z
x,-y,-z
-x,y,-z
-x,-y,-z
x,y,-z
-x,y,z
x,-y,z
1/2+x,1/2+y,z
1/2-x,1/2-y,z
1/2+x,1/2-y,-z
1/2-x,1/2+y,-z
1/2-x,1/2-y,-z
1/2+x,1/2+y,-z
1/2-x,1/2+y,z
1/2+x,1/2-y,z
loop_
_atom_site_type_symbol
_atom_site_label
_atom_site_fract_x
_atom_site_fract_y
_atom_site_fract_z
Si Si1 0.187176 0.500000 0.670876
Si Si2 0.437618 0.802463 0.827593
Si Si3 0.854521 0.621496 0.327933
Si Si4 0.801323 0.000000 0.825629
Si Si5 0.151269 0.118808 0.175025
Si Si6 0.244908 0.816515 0.670251
Si Si7 0.937324 0.186261 0.672554
O O1 0.204625 0.500000 0.500000
O O2 0.151400 0.554952 0.709159
O O3 0.241763 0.500000 0.761721
O O4 0.500000 0.815796 0.795136
O O5 0.403944 0.855818 0.768907
O O6 0.418776 0.745858 0.742854
O O7 0.426431 0.792907 0.000000
O O8 0.867400 0.632154 0.500000
O O9 0.800085 0.653580 0.280391
O O10 0.833943 0.944677 0.772065
O O11 0.794395 0.000000 0.000000
O O12 0.197539 0.161975 0.225026
O O13 0.095037 0.134974 0.252218
O O14 0.144069 0.122819 0.000000
O O15 0.231058 0.831483 0.500000
O O16 0.250000 0.750000 0.695065
O O17 0.923440 0.189006 0.500000
O O18 0.000000 0.174493 0.702987
#
# Coordination Sequence:
#
# PCOD8270822 Si02
#       7
#     8  16  16   8  16  16  16
#     4  10  20  36  57  80 107 149 194 230 274 325
#     4  10  21  37  58  84 113 146 183 225 279 338
#     4  10  20  34  54  81 112 146 188 232 276 327
#     4  10  22  38  55  80 113 151 188 226 276 329
#     4  11  22  36  56  82 112 146 186 227 274 331
#     4  10  20  33  52  80 112 143 178 225 279 331
#     4  10  21  38  60  84 111 145 184 228 279 330
#
# _framework density 18.253813000000001
#
# number of rings (size 3 to 8) (size 9 to 14) (size 15 to 20)
#    0.000    1.833    1.667    2.500    0.000    5.667 
#    0.000    0.833    0.000    5.000    0.000    0.000 
#    0.000    0.000    0.000    0.000    0.000    0.000 
#
# Total GULP energy -595463.509524 kJ/mol
# GULP energy per Si atom -12405.489782 kJ/mol
# Density = 1.821227 g / cm^3
# Si number density = 18.253813 Si / 1000 Ang^3
#
#
#
# Elastic Constant Matrix: (Units=GPa)
#
#
# Indices 1 2 3 4 5 6 
#
# 1 86.2114 47.6819 39.9477 0.0000 0.0000 0.0000
# 2 47.6819 106.2115 32.3795 0.0000 0.0000 0.0000
# 3 39.9477 32.3795 64.9012 0.0000 0.0000 0.0000
# 4 0.0000 0.0000 0.0000 20.5905 0.0000 0.0000
# 5 0.0000 0.0000 0.0000 0.0000 35.8904 0.0000
# 6 0.0000 0.0000 0.0000 0.0000 0.0000 21.3506
#
#
#
# Elastic Compliance Matrix: (Units=1/GPa)
#
#
# Indices 1 2 3 4 5 6 
#
# 1 0.018843 -0.005807 -0.008701 0.000000 0.000000 0.000000
# 2 -0.005807 0.012893 -0.002859 0.000000 0.000000 0.000000
# 3 -0.008701 -0.002859 0.022190 0.000000 0.000000 0.000000
# 4 0.000000 0.000000 0.000000 0.048566 0.000000 0.000000
# 5 0.000000 0.000000 0.000000 0.000000 0.027863 0.000000
# 6 0.000000 0.000000 0.000000 0.000000 0.000000 0.046837
#
#
# Mechanical properties :
#
#
# Convention : Reuss Voigt Hill
#
# Bulk Modulus (GPa) = 52.10070 55.26024 53.68047
# Shear Modulus (GPa) = 22.90196 24.72061 23.81128
#
# Velocity S-wave (km/s) = 3.54593 3.68403 3.61564
# Velocity P-wave (km/s) = 6.73566 6.95954 6.84851
#
# Compressibility (1/GPa) = 0.01919360
#
# Stress axis : x y z
#
# Youngs Moduli (GPa) = 53.07104 77.55920 45.06567
#
# Poissons Ratio (x) = 0.45035 0.39212
# Poissons Ratio (y) = 0.30816 0.12882
# Poissons Ratio (z) = 0.46177 0.22171
#
# Static dielectric constant tensor:
#      x y z
#    x 3.308770 0.000000 0.000000 
#    y 0.000000 3.567130 0.000000 
#    z 0.000000 0.000000 3.386480 
# 
# 
# High freq. dielectric constant tensor:
#      x y z
#    x 1.705400 0.000000 0.000000 
#    y 0.000000 1.711510 0.000000 
#    z 0.000000 0.000000 1.711550 
# 
# From -- ./inp_files/14399.got.cif
#   From: 2010.03.12/outbox.cif.g09.slc.cpg/sg65_8_cif.got.tgz:14399.got - 2010.04.10 20:52:16.
