data_PCOD8270639
_publ_section_title
;
Structure prediction by ZEFSAII (Michael W. Deem and Ramdas Pophale) SiO2 
 PCOD8270639
Probable space group: C M M M
;
_chemical_formula_sum "Si O2"
_cell_formula_units_Z 96
_cell_length_a 18.461401
_cell_length_b 15.383436
_cell_length_c 18.506028
_cell_angle_alpha 90.000000
_cell_angle_beta 90.000000
_cell_angle_gamma 90.000000
_cell_volume 5255.707895
_symmetry_space_group_name_H-M "C M M M"
_symmetry_group_IT_number 65
_symmetry_cell_setting 'orthorhombic'
loop_
_space_group_symop_operation_xyz
x,y,z
-x,-y,z
x,-y,-z
-x,y,-z
-x,-y,-z
x,y,-z
-x,y,z
x,-y,z
1/2+x,1/2+y,z
1/2-x,1/2-y,z
1/2+x,1/2-y,-z
1/2-x,1/2+y,-z
1/2-x,1/2-y,-z
1/2+x,1/2+y,-z
1/2-x,1/2+y,z
1/2+x,1/2-y,z
loop_
_atom_site_type_symbol
_atom_site_label
_atom_site_fract_x
_atom_site_fract_y
_atom_site_fract_z
Si Si1 0.314273 0.400748 0.663586
Si Si2 0.205981 0.338909 0.918502
Si Si3 0.833658 0.400618 0.584564
Si Si4 0.082992 0.745468 0.337680
Si Si5 0.416321 0.238920 0.169746
Si Si6 0.671459 0.594621 0.828548
O O1 0.338915 0.500000 0.646259
O O2 0.241738 0.376161 0.621728
O O3 0.375242 0.332820 0.638211
O O4 0.299032 0.387290 0.748224
O O5 0.250000 0.250000 0.916404
O O6 0.130127 0.330713 0.875730
O O7 0.258207 0.407807 0.879969
O O8 0.188920 0.368932 0.000000
O O9 0.824620 0.385345 0.500000
O O10 0.856012 0.500000 0.601850
O O11 0.895063 0.337365 0.614906
O O12 0.096215 0.721286 0.254168
O O13 0.000000 0.766598 0.352750
O O14 0.500000 0.229786 0.147438
O O15 0.389434 0.335851 0.149074
O O16 0.634010 0.500000 0.833310
#
# Coordination Sequence:
#
# PCOD8270639 Si02
#       6
#    16  16  16  16  16  16
#     4   9  18  33  53  76 101 130 165 204 247 298
#     4   9  17  29  46  68  94 126 163 199 235 279
#     4  10  21  36  54  75  98 128 169 213 251 289
#     4  10  20  33  51  75 103 134 165 202 250 301
#     4   9  18  32  49  71  99 129 162 198 239 292
#     4   9  17  30  50  74  98 125 158 199 245 290
#
# _framework density 18.265855999999999
#
# number of rings (size 3 to 8) (size 9 to 14) (size 15 to 20)
#    0.000    2.667    0.000    1.500    0.000    6.000 
#    0.000    4.167    0.000    1.500    0.000    9.333 
#    0.000    0.000    0.000    0.000    0.000    0.000 
#
# Total GULP energy -595154.841233 kJ/mol
# GULP energy per Si atom -12399.059192 kJ/mol
# Density = 1.822428 g / cm^3
# Si number density = 18.265856 Si / 1000 Ang^3
#
#
#
# Elastic Constant Matrix: (Units=GPa)
#
#
# Indices 1 2 3 4 5 6 
#
# 1 70.0561 14.5681 22.9158 0.0000 0.0000 0.0000
# 2 14.5681 56.0619 16.4179 0.0000 0.0000 0.0000
# 3 22.9158 16.4179 58.2936 0.0000 0.0000 0.0000
# 4 0.0000 0.0000 0.0000 20.6072 0.0000 0.0000
# 5 0.0000 0.0000 0.0000 0.0000 9.8007 0.0000
# 6 0.0000 0.0000 0.0000 0.0000 0.0000 22.0411
#
#
#
# Elastic Compliance Matrix: (Units=1/GPa)
#
#
# Indices 1 2 3 4 5 6 
#
# 1 0.016731 -0.002639 -0.005834 0.000000 0.000000 0.000000
# 2 -0.002639 0.019857 -0.004555 0.000000 0.000000 0.000000
# 3 -0.005834 -0.004555 0.020731 0.000000 0.000000 0.000000
# 4 0.000000 0.000000 0.000000 0.048527 0.000000 0.000000
# 5 0.000000 0.000000 0.000000 0.000000 0.102034 0.000000
# 6 0.000000 0.000000 0.000000 0.000000 0.000000 0.045370
#
#
# Mechanical properties :
#
#
# Convention : Reuss Voigt Hill
#
# Bulk Modulus (GPa) = 31.98688 32.46836 32.22762
# Shear Modulus (GPa) = 17.25760 19.19046 18.22403
#
# Velocity S-wave (km/s) = 3.07710 3.24484 3.16208
# Velocity P-wave (km/s) = 5.49314 5.64382 5.56899
#
# Compressibility (1/GPa) = 0.03126282
#
# Stress axis : x y z
#
# Youngs Moduli (GPa) = 59.76767 50.35945 48.23732
#
# Poissons Ratio (x) = 0.13291 0.28142
# Poissons Ratio (y) = 0.15774 0.21972
# Poissons Ratio (z) = 0.34868 0.22939
#
# Static dielectric constant tensor:
#      x y z
#    x 3.250370 0.000000 0.000000 
#    y 0.000000 3.401210 0.000000 
#    z 0.000000 0.000000 3.415830 
# 
# 
# High freq. dielectric constant tensor:
#      x y z
#    x 1.695330 0.000000 0.000000 
#    y 0.000000 1.703500 0.000000 
#    z 0.000000 0.000000 1.704660 
# 
# From -- ./inp_files/54488.got.cif
#   From: 2010.03.12/outbox.cif.g09.slc.cpg/sg65_28_cif.got.tgz:54488.got - 2010.04.10 20:52:16.
