data_PCOD8270703
_publ_section_title
;
Structure prediction by ZEFSAII (Michael W. Deem and Ramdas Pophale) SiO2 
 PCOD8270703
Probable space group: C M M M
;
_chemical_formula_sum "Si O2"
_cell_formula_units_Z 96
_cell_length_a 8.955163
_cell_length_b 18.209756
_cell_length_c 30.588138
_cell_angle_alpha 90.000000
_cell_angle_beta 90.000000
_cell_angle_gamma 90.000000
_cell_volume 4988.048443
_symmetry_space_group_name_H-M "C M M M"
_symmetry_group_IT_number 65
_symmetry_cell_setting 'orthorhombic'
loop_
_space_group_symop_operation_xyz
x,y,z
-x,-y,z
x,-y,-z
-x,y,-z
-x,-y,-z
x,y,-z
-x,y,z
x,-y,z
1/2+x,1/2+y,z
1/2-x,1/2-y,z
1/2+x,1/2-y,-z
1/2-x,1/2+y,-z
1/2-x,1/2-y,-z
1/2+x,1/2+y,-z
1/2-x,1/2+y,z
1/2+x,1/2-y,z
loop_
_atom_site_type_symbol
_atom_site_label
_atom_site_fract_x
_atom_site_fract_y
_atom_site_fract_z
Si Si1 0.173962 0.675578 0.451232
Si Si2 0.177393 0.582217 0.951549
Si Si3 0.671667 0.914179 0.784079
Si Si4 0.674449 0.915611 0.631035
Si Si5 0.674443 0.173152 0.129289
Si Si6 0.676342 0.328847 0.707814
O O1 0.230590 0.654042 0.500000
O O2 0.250000 0.750000 0.434370
O O3 0.212096 0.609408 0.418352
O O4 0.000000 0.691867 0.451773
O O5 0.239779 0.500000 0.943397
O O6 0.242223 0.637374 0.915031
O O7 0.000000 0.579679 0.947704
O O8 0.225728 0.609567 0.000000
O O9 0.500000 0.898293 0.771058
O O10 0.710069 0.881630 0.831271
O O11 0.779568 0.878999 0.748558
O O12 0.704588 0.000000 0.785999
O O13 0.500000 0.904901 0.641864
O O14 0.770459 0.866609 0.663439
O O15 0.722097 0.000000 0.636016
O O16 0.500000 0.187221 0.124150
O O17 0.750000 0.250000 0.139277
O O18 0.500000 0.318961 0.706411
O O19 0.750000 0.250000 0.713395
#
# Coordination Sequence:
#
# PCOD8270703 Si02
#       6
#    16  16  16  16  16  16
#     4   9  18  33  54  80 109 143 183 224 266 314
#     4   8  14  27  49  75 101 132 174 220 261 306
#     4  10  21  38  59  81 107 139 176 220 269 320
#     4  10  21  37  57  82 113 147 182 222 269 319
#     4  10  20  33  51  77 107 139 175 215 261 313
#     4  12  25  40  59  82 109 141 179 222 268 320
#
# _framework density 19.246005
#
# number of rings (size 3 to 8) (size 9 to 14) (size 15 to 20)
#    0.000    2.167    0.000    4.000    0.000    9.333 
#    0.000    1.667    0.000    1.500    0.000    4.667 
#    0.000    0.000    0.000    0.000    0.000    0.000 
#
# Total GULP energy -595245.818030 kJ/mol
# GULP energy per Si atom -12400.954542 kJ/mol
# Density = 1.920220 g / cm^3
# Si number density = 19.246005 Si / 1000 Ang^3
#
#
#
# Elastic Constant Matrix: (Units=GPa)
#
#
# Indices 1 2 3 4 5 6 
#
# 1 61.3384 43.7760 46.1015 0.0000 0.0000 0.0000
# 2 43.7760 128.9584 62.6672 0.0000 0.0000 0.0000
# 3 46.1015 62.6672 124.5998 0.0000 0.0000 0.0000
# 4 0.0000 0.0000 0.0000 50.1464 0.0000 0.0000
# 5 0.0000 0.0000 0.0000 0.0000 -21.7697 0.0000
# 6 0.0000 0.0000 0.0000 0.0000 0.0000 27.1836
#
#
#
# Elastic Compliance Matrix: (Units=1/GPa)
#
#
# Indices 1 2 3 4 5 6 
#
# 1 0.025044 -0.005292 -0.006605 0.000000 0.000000 0.000000
# 2 -0.005292 0.011381 -0.003766 0.000000 0.000000 0.000000
# 3 -0.006605 -0.003766 0.012363 0.000000 0.000000 0.000000
# 4 0.000000 0.000000 0.000000 0.019942 0.000000 0.000000
# 5 0.000000 0.000000 0.000000 0.000000 -0.045935 0.000000
# 6 0.000000 0.000000 0.000000 0.000000 0.000000 0.036787
#
#
# Mechanical properties :
#
#
# Convention : Reuss Voigt Hill
#
# Bulk Modulus (GPa) = 57.26334 68.88734 63.07534
# Shear Modulus (GPa) = 51.69194 21.93552 36.81373
#
# Velocity S-wave (km/s) = 5.18814 3.37967 4.37830
# Velocity P-wave (km/s) = 8.10599 7.14845 7.64223
#
# Compressibility (1/GPa) = 0.01746318
#
# Stress axis : x y z
#
# Youngs Moduli (GPa) = 39.93039 87.86663 80.88330
#
# Poissons Ratio (x) = 0.46497 0.53420
# Poissons Ratio (y) = 0.21130 0.30461
# Poissons Ratio (z) = 0.26372 0.33091
#
# Static dielectric constant tensor:
#      x y z
#    x 3.282990 0.000000 0.000000 
#    y 0.000000 3.620830 0.000000 
#    z 0.000000 0.000000 3.857200 
# 
# 
# High freq. dielectric constant tensor:
#      x y z
#    x 1.719080 0.000000 0.000000 
#    y 0.000000 1.754430 0.000000 
#    z 0.000000 0.000000 1.767170 
# 
# From -- ./inp_files/73136.got.cif
#   From: 2010.03.12/outbox.cif.g09.slc.cpg/sg65_37_cif.got.tgz:73136.got - 2010.04.10 20:52:16.
