data_PCOD8270929
_publ_section_title
;
Structure prediction by ZEFSAII (Michael W. Deem and Ramdas Pophale) SiO2 
 PCOD8270929
Probable space group: C M M M
;
_chemical_formula_sum "Si O2"
_cell_formula_units_Z 64
_cell_length_a 7.735128
_cell_length_b 28.412065
_cell_length_c 18.035938
_cell_angle_alpha 90.000000
_cell_angle_beta 90.000000
_cell_angle_gamma 90.000000
_cell_volume 3963.775400
_symmetry_space_group_name_H-M "C M M M"
_symmetry_group_IT_number 65
_symmetry_cell_setting 'orthorhombic'
loop_
_space_group_symop_operation_xyz
x,y,z
-x,-y,z
x,-y,-z
-x,y,-z
-x,-y,-z
x,y,-z
-x,y,z
x,-y,z
1/2+x,1/2+y,z
1/2-x,1/2-y,z
1/2+x,1/2-y,-z
1/2-x,1/2+y,-z
1/2-x,1/2-y,-z
1/2+x,1/2+y,-z
1/2-x,1/2+y,z
1/2+x,1/2-y,z
loop_
_atom_site_type_symbol
_atom_site_label
_atom_site_fract_x
_atom_site_fract_y
_atom_site_fract_z
Si Si1 0.500000 0.050857 0.913747
Si Si2 0.300195 0.605452 0.841228
Si Si3 0.000000 0.444577 0.581983
Si Si4 0.799057 0.801028 0.082352
Si Si5 0.196811 0.945492 0.310600
O O1 0.677712 0.075568 0.893069
O O2 0.500000 0.000000 0.874471
O O3 0.500000 0.045200 0.000000
O O4 0.500000 0.595993 0.863020
O O5 0.244653 0.659691 0.857022
O O6 0.267221 0.590245 0.756739
O O7 0.173531 0.428984 0.624884
O O8 0.000000 0.500000 0.573465
O O9 0.000000 0.421250 0.500000
O O10 0.750000 0.750000 0.114902
O O11 0.000000 0.803951 0.070589
O O12 0.712770 0.808782 0.000000
O O13 0.000000 0.940109 0.339231
O O14 0.231551 0.000000 0.286780
#
# Coordination Sequence:
#
# PCOD8270929 Si02
#       5
#     8  16   8  16  16
#     4  11  23  33  45  67  91 123 167 205 240 285
#     4  10  20  34  50  67  92 126 160 202 243 289
#     4   9  17  29  45  67  97 127 153 185 223 270
#     4   9  18  31  47  67  90 120 157 200 251 297
#     4   9  17  29  46  67  91 123 157 187 226 276
#
# _framework density 16.146222000000002
#
# number of rings (size 3 to 8) (size 9 to 14) (size 15 to 20)
#    0.000    2.500    0.000    2.250    1.750    4.500 
#    0.000    3.750    0.000    0.000    0.000    0.000 
#    0.000    1.000    0.500    0.000    0.000    0.000 
#
# Total GULP energy -396534.585721 kJ/mol
# GULP energy per Si atom -12391.705804 kJ/mol
# Density = 1.610947 g / cm^3
# Si number density = 16.146222 Si / 1000 Ang^3
#
#
#
# Elastic Constant Matrix: (Units=GPa)
#
#
# Indices 1 2 3 4 5 6 
#
# 1 82.7827 41.7810 53.0745 0.0000 0.0000 0.0000
# 2 41.7810 113.9046 59.8124 0.0000 0.0000 0.0000
# 3 53.0745 59.8124 101.3273 0.0000 0.0000 0.0000
# 4 0.0000 0.0000 0.0000 17.2666 0.0000 0.0000
# 5 0.0000 0.0000 0.0000 0.0000 27.4567 0.0000
# 6 0.0000 0.0000 0.0000 0.0000 0.0000 18.9691
#
#
#
# Elastic Compliance Matrix: (Units=1/GPa)
#
#
# Indices 1 2 3 4 5 6 
#
# 1 0.018659 -0.002481 -0.008309 0.000000 0.000000 0.000000
# 2 -0.002481 0.013053 -0.006405 0.000000 0.000000 0.000000
# 3 -0.008309 -0.006405 0.018002 0.000000 0.000000 0.000000
# 4 0.000000 0.000000 0.000000 0.057915 0.000000 0.000000
# 5 0.000000 0.000000 0.000000 0.000000 0.036421 0.000000
# 6 0.000000 0.000000 0.000000 0.000000 0.000000 0.052717
#
#
# Mechanical properties :
#
#
# Convention : Reuss Voigt Hill
#
# Bulk Modulus (GPa) = 65.26007 67.48339 66.37173
# Shear Modulus (GPa) = 21.16253 22.29492 21.72872
#
# Velocity S-wave (km/s) = 3.62426 3.71996 3.67242
# Velocity P-wave (km/s) = 7.61706 7.76767 7.69273
#
# Compressibility (1/GPa) = 0.01532330
#
# Stress axis : x y z
#
# Youngs Moduli (GPa) = 53.59288 76.61120 55.54892
#
# Poissons Ratio (x) = 0.19009 0.46155
# Poissons Ratio (y) = 0.13298 0.35581
# Poissons Ratio (z) = 0.44530 0.49072
#
# Static dielectric constant tensor:
#      x y z
#    x 3.167020 0.000000 0.000000 
#    y 0.000000 4.185100 0.000000 
#    z 0.000000 0.000000 3.053340 
# 
# 
# High freq. dielectric constant tensor:
#      x y z
#    x 1.637430 0.000000 0.000000 
#    y 0.000000 1.599160 0.000000 
#    z 0.000000 0.000000 1.593750 
# 
# From -- ./inp_files/36327.got.cif
#   From: 2010.03.12/outbox.cif.g09.slc.cpg/sg65_19_cif.got.tgz:36327.got - 2010.04.10 20:52:16.
