data_PCOD8270005
_publ_section_title
;
Structure prediction by ZEFSAII (Michael W. Deem and Ramdas Pophale) SiO2 
 PCOD8270005
Probable space group: C M M M
;
_chemical_formula_sum "Si O2"
_cell_formula_units_Z 72
_cell_length_a 16.492850
_cell_length_b 27.265561
_cell_length_c 9.158329
_cell_angle_alpha 90.000000
_cell_angle_beta 90.000000
_cell_angle_gamma 90.000000
_cell_volume 4118.379732
_symmetry_space_group_name_H-M "C M M M"
_symmetry_group_IT_number 65
_symmetry_cell_setting 'orthorhombic'
loop_
_space_group_symop_operation_xyz
x,y,z
-x,-y,z
x,-y,-z
-x,y,-z
-x,-y,-z
x,y,-z
-x,y,z
x,-y,z
1/2+x,1/2+y,z
1/2-x,1/2-y,z
1/2+x,1/2-y,-z
1/2-x,1/2+y,-z
1/2-x,1/2-y,-z
1/2+x,1/2+y,-z
1/2-x,1/2+y,z
1/2+x,1/2-y,z
loop_
_atom_site_type_symbol
_atom_site_label
_atom_site_fract_x
_atom_site_fract_y
_atom_site_fract_z
Si Si1 0.000000 0.444094 0.673285
Si Si2 0.313622 0.556294 0.166164
Si Si3 0.759071 0.803656 0.328527
Si Si4 0.667620 0.101696 0.673566
Si Si5 0.408800 0.633140 0.669122
O O1 0.078416 0.413881 0.728798
O O2 0.000000 0.500000 0.735360
O O3 0.000000 0.446452 0.500000
O O4 0.338282 0.500000 0.174790
O O5 0.231107 0.564559 0.255192
O O6 0.388566 0.585511 0.235961
O O7 0.300229 0.573530 0.000000
O O8 0.749703 0.797601 0.500000
O O9 0.750000 0.750000 0.253623
O O10 0.690114 0.842574 0.275989
O O11 0.848190 0.823135 0.286159
O O12 0.675389 0.096494 0.500000
O O13 0.396673 0.619161 0.500000
O O14 0.500000 0.650761 0.701884
#
# Coordination Sequence:
#
# PCOD8270005 Si02
#       5
#     8  16  16  16  16
#     4   9  16  26  43  69  97 123 155 195 234 275
#     4  10  20  32  47  68  94 125 159 195 238 282
#     4   8  14  27  46  68  95 122 150 189 235 278
#     4   9  17  30  48  69  95 126 160 195 234 283
#     4   9  18  32  49  70  95 124 158 192 230 280
#
# _framework density 17.482602
#
# number of rings (size 3 to 8) (size 9 to 14) (size 15 to 20)
#    0.000    3.000    0.000    2.667    0.000    3.556 
#    2.000    2.778    0.000   12.667    0.000    0.000 
#    0.000    0.000    0.000    0.000    0.000    0.000 
#
# Total GULP energy -446211.298171 kJ/mol
# GULP energy per Si atom -12394.758283 kJ/mol
# Density = 1.744281 g / cm^3
# Si number density = 17.482602 Si / 1000 Ang^3
#
#
#
# Elastic Constant Matrix: (Units=GPa)
#
#
# Indices 1 2 3 4 5 6 
#
# 1 147.2178 74.9717 23.2911 0.0000 0.0000 0.0000
# 2 74.9717 141.3627 29.4365 0.0000 0.0000 0.0000
# 3 23.2911 29.4365 40.1219 0.0000 0.0000 0.0000
# 4 0.0000 0.0000 0.0000 8.0638 0.0000 0.0000
# 5 0.0000 0.0000 0.0000 0.0000 7.1951 0.0000
# 6 0.0000 0.0000 0.0000 0.0000 0.0000 17.7569
#
#
#
# Elastic Compliance Matrix: (Units=1/GPa)
#
#
# Indices 1 2 3 4 5 6 
#
# 1 0.009459 -0.004571 -0.002137 0.000000 0.000000 0.000000
# 2 -0.004571 0.010559 -0.005093 0.000000 0.000000 0.000000
# 3 -0.002137 -0.005093 0.029901 0.000000 0.000000 0.000000
# 4 0.000000 0.000000 0.000000 0.124012 0.000000 0.000000
# 5 0.000000 0.000000 0.000000 0.000000 0.138983 0.000000
# 6 0.000000 0.000000 0.000000 0.000000 0.000000 0.056316
#
#
# Mechanical properties :
#
#
# Convention : Reuss Voigt Hill
#
# Bulk Modulus (GPa) = 37.99965 64.90012 51.44989
# Shear Modulus (GPa) = 12.45004 20.00336 16.22670
#
# Velocity S-wave (km/s) = 2.67149 3.38625 3.04988
# Velocity P-wave (km/s) = 5.59452 7.24515 6.47267
#
# Compressibility (1/GPa) = 0.02631603
#
# Stress axis : x y z
#
# Youngs Moduli (GPa) = 105.72171 94.70538 33.44337
#
# Poissons Ratio (x) = 0.43295 0.07147
# Poissons Ratio (y) = 0.48331 0.17033
# Poissons Ratio (z) = 0.22592 0.48235
#
# Static dielectric constant tensor:
#      x y z
#    x 3.404440 0.000000 0.000000 
#    y 0.000000 3.482440 0.000000 
#    z 0.000000 0.000000 2.965700 
# 
# 
# High freq. dielectric constant tensor:
#      x y z
#    x 1.676190 0.000000 0.000000 
#    y 0.000000 1.674290 0.000000 
#    z 0.000000 0.000000 1.638630 
# 
# From -- ./inp_files/9468.got.cif
#   From: 2010.03.12/outbox.cif.g09.slc.cpg/sg65_5_cif.got.tgz:9468.got - 2010.04.10 20:52:16.
