data_PCOD8270231
_publ_section_title
;
Structure prediction by ZEFSAII (Michael W. Deem and Ramdas Pophale) SiO2 
 PCOD8270231
Probable space group: C M M M
;
_chemical_formula_sum "Si O2"
_cell_formula_units_Z 72
_cell_length_a 9.487082
_cell_length_b 30.871284
_cell_length_c 14.242174
_cell_angle_alpha 90.000000
_cell_angle_beta 90.000000
_cell_angle_gamma 90.000000
_cell_volume 4171.225173
_symmetry_space_group_name_H-M "C M M M"
_symmetry_group_IT_number 65
_symmetry_cell_setting 'orthorhombic'
loop_
_space_group_symop_operation_xyz
x,y,z
-x,-y,z
x,-y,-z
-x,y,-z
-x,-y,-z
x,y,-z
-x,y,z
x,-y,z
1/2+x,1/2+y,z
1/2-x,1/2-y,z
1/2+x,1/2-y,-z
1/2-x,1/2+y,-z
1/2-x,1/2-y,-z
1/2+x,1/2+y,-z
1/2-x,1/2+y,z
1/2+x,1/2-y,z
loop_
_atom_site_type_symbol
_atom_site_label
_atom_site_fract_x
_atom_site_fract_y
_atom_site_fract_z
Si Si1 0.663745 0.291783 0.608780
Si Si2 0.161923 0.451094 0.609175
Si Si3 0.338023 0.377704 0.292073
Si Si4 0.342270 0.000000 0.111174
Si Si5 0.660892 0.581050 0.894455
O O1 0.692786 0.302392 0.500000
O O2 0.500000 0.282486 0.627826
O O3 0.750000 0.250000 0.641998
O O4 0.721067 0.332176 0.669684
O O5 0.199849 0.448371 0.500000
O O6 0.190338 0.500000 0.646184
O O7 0.258299 0.418042 0.664341
O O8 0.000000 0.438403 0.626001
O O9 0.500000 0.382001 0.323056
O O10 0.321192 0.379151 0.178467
O O11 0.259972 0.957303 0.143894
O O12 0.500000 0.000000 0.154754
O O13 0.349119 0.000000 0.000000
O O14 0.500000 0.564064 0.893864
O O15 0.703048 0.596261 0.000000
#
# Coordination Sequence:
#
# PCOD8270231 Si02
#       5
#    16  16  16   8  16
#     4   9  18  33  52  74  98 121 151 196 246 295
#     4   9  19  34  48  66  97 133 164 195 236 289
#     4  10  20  32  50  74  97 125 164 205 242 284
#     4   9  17  29  45  65  90 123 164 207 245 278
#     4   9  18  32  48  67  95 130 165 202 243 286
#
# _framework density 17.261115
#
# number of rings (size 3 to 8) (size 9 to 14) (size 15 to 20)
#    0.000    2.778    0.000    1.667    1.556    4.889 
#    0.000    3.333    0.000    0.667    0.000    0.000 
#    0.000    0.000    0.000    0.000    0.000    0.000 
#
# Total GULP energy -446318.422738 kJ/mol
# GULP energy per Si atom -12397.733965 kJ/mol
# Density = 1.722183 g / cm^3
# Si number density = 17.261115 Si / 1000 Ang^3
#
#
#
# Elastic Constant Matrix: (Units=GPa)
#
#
# Indices 1 2 3 4 5 6 
#
# 1 62.9783 50.3993 37.3878 0.0000 0.0000 0.0000
# 2 50.3993 126.2249 71.5877 0.0000 0.0000 0.0000
# 3 37.3878 71.5877 74.3985 0.0000 0.0000 0.0000
# 4 0.0000 0.0000 0.0000 25.6010 0.0000 0.0000
# 5 0.0000 0.0000 0.0000 0.0000 17.8579 0.0000
# 6 0.0000 0.0000 0.0000 0.0000 0.0000 29.7216
#
#
#
# Elastic Compliance Matrix: (Units=1/GPa)
#
#
# Indices 1 2 3 4 5 6 
#
# 1 0.024654 -0.006202 -0.006422 0.000000 0.000000 0.000000
# 2 -0.006202 0.018999 -0.015165 0.000000 0.000000 0.000000
# 3 -0.006422 -0.015165 0.031260 0.000000 0.000000 0.000000
# 4 0.000000 0.000000 0.000000 0.039061 0.000000 0.000000
# 5 0.000000 0.000000 0.000000 0.000000 0.055998 0.000000
# 6 0.000000 0.000000 0.000000 0.000000 0.000000 0.033646
#
#
# Mechanical properties :
#
#
# Convention : Reuss Voigt Hill
#
# Bulk Modulus (GPa) = 51.71615 64.70568 58.21092
# Shear Modulus (GPa) = 18.82241 21.58455 20.20348
#
# Velocity S-wave (km/s) = 3.30578 3.54004 3.42491
# Velocity P-wave (km/s) = 6.67810 7.36729 7.03114
#
# Compressibility (1/GPa) = 0.01933632
#
# Stress axis : x y z
#
# Youngs Moduli (GPa) = 40.56138 52.63364 31.98929
#
# Poissons Ratio (x) = 0.32641 0.20544
# Poissons Ratio (y) = 0.25155 0.48512
# Poissons Ratio (z) = 0.26049 0.79819
#
# Static dielectric constant tensor:
#      x y z
#    x 3.267100 0.000000 0.000000 
#    y 0.000000 3.094150 0.000000 
#    z 0.000000 0.000000 3.328360 
# 
# 
# High freq. dielectric constant tensor:
#      x y z
#    x 1.665600 0.000000 0.000000 
#    y 0.000000 1.641760 0.000000 
#    z 0.000000 0.000000 1.669090 
# 
# From -- ./inp_files/36939.got.cif
#   From: 2010.03.12/outbox.cif.g09.slc.cpg/sg65_19_cif.got.tgz:36939.got - 2010.04.10 20:52:16.
