data_PCOD8270415
_publ_section_title
;
Structure prediction by ZEFSAII (Michael W. Deem and Ramdas Pophale) SiO2 
 PCOD8270415
Probable space group: C M M M
;
_chemical_formula_sum "Si O2"
_cell_formula_units_Z 120
_cell_length_a 27.339220
_cell_length_b 8.975975
_cell_length_c 25.823142
_cell_angle_alpha 90.000000
_cell_angle_beta 90.000000
_cell_angle_gamma 90.000000
_cell_volume 6336.899763
_symmetry_space_group_name_H-M "C M M M"
_symmetry_group_IT_number 65
_symmetry_cell_setting 'orthorhombic'
loop_
_space_group_symop_operation_xyz
x,y,z
-x,-y,z
x,-y,-z
-x,y,-z
-x,-y,-z
x,y,-z
-x,y,z
x,-y,z
1/2+x,1/2+y,z
1/2-x,1/2-y,z
1/2+x,1/2-y,-z
1/2-x,1/2+y,-z
1/2-x,1/2-y,-z
1/2+x,1/2+y,-z
1/2-x,1/2+y,z
1/2+x,1/2-y,z
loop_
_atom_site_type_symbol
_atom_site_label
_atom_site_fract_x
_atom_site_fract_y
_atom_site_fract_z
Si Si1 0.299817 0.673999 0.754124
Si Si2 0.301502 0.825972 0.943603
Si Si3 0.500000 0.176060 0.559439
Si Si4 0.643564 0.826826 0.843164
Si Si5 0.945963 0.832477 0.823033
Si Si6 0.445244 0.666926 0.703015
Si Si7 0.900085 0.325203 0.614834
Si Si8 0.801820 0.175665 0.633772
O O1 0.294652 0.500000 0.763343
O O2 0.250000 0.750000 0.772346
O O3 0.341461 0.737492 0.791540
O O4 0.311455 0.710602 0.694374
O O5 0.250000 0.750000 0.940590
O O6 0.332243 0.764022 0.895483
O O7 0.293602 0.000000 0.936857
O O8 0.326104 0.791147 0.000000
O O9 0.500000 0.225096 0.500000
O O10 0.551999 0.235600 0.583119
O O11 0.500000 0.000000 0.567411
O O12 0.586686 0.789914 0.851874
O O13 0.653350 0.000000 0.834518
O O14 0.946504 0.793351 0.762686
O O15 0.000000 0.817865 0.846344
O O16 0.926001 0.000000 0.831673
O O17 0.500000 0.675765 0.680066
O O18 0.423745 0.500000 0.693901
O O19 0.411283 0.787188 0.674597
O O20 0.892280 0.500000 0.606248
O O21 0.848040 0.244304 0.601307
O O22 0.750000 0.250000 0.616621
O O23 0.798355 0.000000 0.622656
#
# Coordination Sequence:
#
# PCOD8270415 Si02
#       8
#    16  16   8  16  16  16  16  16
#     4  10  20  33  49  71 104 141 174 206 247 298
#     4   9  19  35  52  71  95 121 153 196 247 301
#     4   9  20  38  57  81 113 145 177 217 270 321
#     4  11  21  31  48  73  98 128 165 206 253 301
#     4   9  19  34  49  67  96 135 171 203 244 295
#     4   9  17  30  48  71 102 138 173 209 253 303
#     4  11  20  32  54  81 107 139 179 221 264 311
#     4  10  21  36  53  76 108 146 182 216 256 307
#
# _framework density 18.936703999999999
#
# number of rings (size 3 to 8) (size 9 to 14) (size 15 to 20)
#    0.000    2.200    0.667    3.600    0.000    7.733 
#    0.000    1.333    0.000    4.000    0.000    2.800 
#    0.000    0.000    0.000    0.000    0.000    0.000 
#
# Total GULP energy -743561.135351 kJ/mol
# GULP energy per Si atom -12392.685589 kJ/mol
# Density = 1.889360 g / cm^3
# Si number density = 18.936704 Si / 1000 Ang^3
#
#
#
# Elastic Constant Matrix: (Units=GPa)
#
#
# Indices 1 2 3 4 5 6 
#
# 1 130.7678 44.3324 41.0559 0.0000 0.0000 0.0000
# 2 44.3324 60.7992 21.6020 0.0000 0.0000 0.0000
# 3 41.0559 21.6020 47.1830 0.0000 0.0000 0.0000
# 4 0.0000 0.0000 0.0000 13.4397 0.0000 0.0000
# 5 0.0000 0.0000 0.0000 0.0000 20.0706 0.0000
# 6 0.0000 0.0000 0.0000 0.0000 0.0000 36.4632
#
#
#
# Elastic Compliance Matrix: (Units=1/GPa)
#
#
# Indices 1 2 3 4 5 6 
#
# 1 0.012160 -0.006100 -0.007789 0.000000 0.000000 0.000000
# 2 -0.006100 0.022702 -0.005086 0.000000 0.000000 0.000000
# 3 -0.007789 -0.005086 0.030300 0.000000 0.000000 0.000000
# 4 0.000000 0.000000 0.000000 0.074407 0.000000 0.000000
# 5 0.000000 0.000000 0.000000 0.000000 0.049824 0.000000
# 6 0.000000 0.000000 0.000000 0.000000 0.000000 0.027425
#
#
# Mechanical properties :
#
#
# Convention : Reuss Voigt Hill
#
# Bulk Modulus (GPa) = 36.74650 50.30342 43.52496
# Shear Modulus (GPa) = 18.95098 22.77866 20.86482
#
# Velocity S-wave (km/s) = 3.16690 3.47202 3.32297
# Velocity P-wave (km/s) = 5.72882 6.53413 6.14468
#
# Compressibility (1/GPa) = 0.02721348
#
# Stress axis : x y z
#
# Youngs Moduli (GPa) = 82.23485 44.04838 33.00327
#
# Poissons Ratio (x) = 0.26867 0.25705
# Poissons Ratio (y) = 0.50159 0.16787
# Poissons Ratio (z) = 0.64050 0.22405
#
# Static dielectric constant tensor:
#      x y z
#    x 3.856420 0.000000 0.000000 
#    y 0.000000 3.735410 0.000000 
#    z 0.000000 0.000000 3.334200 
# 
# 
# High freq. dielectric constant tensor:
#      x y z
#    x 1.747370 0.000000 0.000000 
#    y 0.000000 1.729830 0.000000 
#    z 0.000000 0.000000 1.698100 
# 
# From -- ./inp_files/76119.got.cif
#   From: 2010.03.12/outbox.cif.g09.slc.cpg/sg65_39_cif.got.tgz:76119.got - 2010.04.10 20:52:16.
