data_PCOD8270428
_publ_section_title
;
Structure prediction by ZEFSAII (Michael W. Deem and Ramdas Pophale) SiO2 
 PCOD8270428
Probable space group: C M M M
;
_chemical_formula_sum "Si O2"
_cell_formula_units_Z 88
_cell_length_a 8.925124
_cell_length_b 18.470861
_cell_length_c 28.598082
_cell_angle_alpha 90.000000
_cell_angle_beta 90.000000
_cell_angle_gamma 90.000000
_cell_volume 4714.528938
_symmetry_space_group_name_H-M "C M M M"
_symmetry_group_IT_number 65
_symmetry_cell_setting 'orthorhombic'
loop_
_space_group_symop_operation_xyz
x,y,z
-x,-y,z
x,-y,-z
-x,y,-z
-x,-y,-z
x,y,-z
-x,y,z
x,-y,z
1/2+x,1/2+y,z
1/2-x,1/2-y,z
1/2+x,1/2-y,-z
1/2-x,1/2+y,-z
1/2-x,1/2-y,-z
1/2+x,1/2+y,-z
1/2-x,1/2+y,z
1/2+x,1/2-y,z
loop_
_atom_site_type_symbol
_atom_site_label
_atom_site_fract_x
_atom_site_fract_y
_atom_site_fract_z
Si Si1 0.322524 0.328236 0.773948
Si Si2 0.678045 0.420629 0.500000
Si Si3 0.321975 0.580678 0.862197
Si Si4 0.676381 0.674723 0.052497
Si Si5 0.172494 0.585192 0.307562
Si Si6 0.332139 0.586331 0.400056
O O1 0.500000 0.319833 0.774561
O O2 0.250000 0.250000 0.772871
O O3 0.262546 0.370297 0.819715
O O4 0.275518 0.373526 0.728946
O O5 0.753225 0.500000 0.500000
O O6 0.500000 0.428620 0.500000
O O7 0.723607 0.381456 0.450779
O O8 0.500000 0.577054 0.860753
O O9 0.254098 0.500000 0.857575
O O10 0.266696 0.613875 0.911472
O O11 0.500000 0.685541 0.056290
O O12 0.750000 0.750000 0.067022
O O13 0.723804 0.651324 0.000000
O O14 0.201358 0.500000 0.301488
O O15 0.219868 0.611597 0.359353
O O16 0.000000 0.605639 0.299525
O O17 0.500000 0.613938 0.388110
O O18 0.333661 0.500000 0.404358
#
# Coordination Sequence:
#
# PCOD8270428 Si02
#       6
#    16   8  16  16  16  16
#     4  11  22  36  54  73  96 128 166 208 254 304
#     4   7  10  18  35  61  92 125 162 201 238 283
#     4   9  18  32  51  76 102 128 163 206 249 295
#     4   9  17  30  50  75 103 135 168 203 243 288
#     4  10  20  33  49  72 102 132 165 207 252 298
#     4   8  13  23  41  65  94 129 166 202 243 290
#
# _framework density 18.665704999999999
#
# number of rings (size 3 to 8) (size 9 to 14) (size 15 to 20)
#    0.000    2.818    0.000    3.273    0.000    2.182 
#    0.000    3.182    0.000    5.455    0.000    3.182 
#    0.000    0.000    0.000    0.000    0.000    0.000 
#
# Total GULP energy -545319.170972 kJ/mol
# GULP energy per Si atom -12393.617522 kJ/mol
# Density = 1.862322 g / cm^3
# Si number density = 18.665705 Si / 1000 Ang^3
#
#
#
# Elastic Constant Matrix: (Units=GPa)
#
#
# Indices 1 2 3 4 5 6 
#
# 1 46.5651 29.0276 32.0048 0.0000 0.0000 0.0000
# 2 29.0276 76.5456 59.9461 0.0000 0.0000 0.0000
# 3 32.0048 59.9461 156.2058 0.0000 0.0000 0.0000
# 4 0.0000 0.0000 0.0000 5.4547 0.0000 0.0000
# 5 0.0000 0.0000 0.0000 0.0000 16.0431 0.0000
# 6 0.0000 0.0000 0.0000 0.0000 0.0000 19.5362
#
#
#
# Elastic Compliance Matrix: (Units=1/GPa)
#
#
# Indices 1 2 3 4 5 6 
#
# 1 0.028760 -0.008995 -0.002441 0.000000 0.000000 0.000000
# 2 -0.008995 0.021491 -0.006404 0.000000 0.000000 0.000000
# 3 -0.002441 -0.006404 0.009360 0.000000 0.000000 0.000000
# 4 0.000000 0.000000 0.000000 0.183329 0.000000 0.000000
# 5 0.000000 0.000000 0.000000 0.000000 0.062332 0.000000
# 6 0.000000 0.000000 0.000000 0.000000 0.000000 0.051187
#
#
# Mechanical properties :
#
#
# Convention : Reuss Voigt Hill
#
# Bulk Modulus (GPa) = 41.78793 57.91929 49.85361
# Shear Modulus (GPa) = 12.49640 18.76267 15.62954
#
# Velocity S-wave (km/s) = 2.59025 3.17392 2.89682
# Velocity P-wave (km/s) = 5.60196 6.67299 6.16080
#
# Compressibility (1/GPa) = 0.02393036
#
# Stress axis : x y z
#
# Youngs Moduli (GPa) = 34.77037 46.53171 106.84166
#
# Poissons Ratio (x) = 0.41855 0.26077
# Poissons Ratio (y) = 0.31276 0.68425
# Poissons Ratio (z) = 0.08486 0.29801
#
# Static dielectric constant tensor:
#      x y z
#    x 3.158060 0.000000 0.000000 
#    y 0.000000 3.255210 0.000000 
#    z 0.000000 0.000000 3.930800 
# 
# 
# High freq. dielectric constant tensor:
#      x y z
#    x 1.696320 0.000000 0.000000 
#    y 0.000000 1.688020 0.000000 
#    z 0.000000 0.000000 1.750190 
# 
# From -- ./inp_files/76539.got.cif
#   From: 2010.03.12/outbox.cif.g09.slc.cpg/sg65_39_cif.got.tgz:76539.got - 2010.04.10 20:52:16.
