data_PCOD8270140
_publ_section_title
;
Structure prediction by ZEFSAII (Michael W. Deem and Ramdas Pophale) SiO2 
 PCOD8270140
Probable space group: C M M M
;
_chemical_formula_sum "Si O2"
_cell_formula_units_Z 56
_cell_length_a 23.134139
_cell_length_b 14.073858
_cell_length_c 9.162889
_cell_angle_alpha 90.000000
_cell_angle_beta 90.000000
_cell_angle_gamma 90.000000
_cell_volume 2983.313759
_symmetry_space_group_name_H-M "C M M M"
_symmetry_group_IT_number 65
_symmetry_cell_setting 'orthorhombic'
loop_
_space_group_symop_operation_xyz
x,y,z
-x,-y,z
x,-y,-z
-x,y,-z
-x,-y,-z
x,y,-z
-x,y,z
x,-y,z
1/2+x,1/2+y,z
1/2-x,1/2-y,z
1/2+x,1/2-y,-z
1/2-x,1/2+y,-z
1/2-x,1/2-y,-z
1/2+x,1/2+y,-z
1/2-x,1/2+y,z
1/2+x,1/2-y,z
loop_
_atom_site_type_symbol
_atom_site_label
_atom_site_fract_x
_atom_site_fract_y
_atom_site_fract_z
Si Si1 0.000000 0.892512 0.326349
Si Si2 0.113709 0.785247 0.672940
Si Si3 0.658450 0.105120 0.832644
Si Si4 0.767182 0.857513 0.658749
O O1 0.944139 0.835523 0.269063
O O2 0.000000 0.896460 0.500000
O O3 0.000000 0.000000 0.263696
O O4 0.112506 0.768012 0.500000
O O5 0.120158 0.681496 0.745929
O O6 0.166402 0.856537 0.715516
O O7 0.724157 0.094844 0.773482
O O8 0.630009 0.000000 0.817779
O O9 0.661767 0.137669 0.000000
O O10 0.762971 0.908905 0.500000
O O11 0.750000 0.750000 0.636221
#
# Coordination Sequence:
#
# PCOD8270140 Si02
#       4
#     8  16  16  16
#     4   9  18  34  56  79 100 124 161 209 254 297
#     4   9  18  33  53  76 101 131 166 204 248 295
#     4  10  20  32  48  73 104 137 169 202 246 296
#     4   8  15  28  47  72  99 127 161 200 242 288
#
# _framework density 18.771072
#
# number of rings (size 3 to 8) (size 9 to 14) (size 15 to 20)
#    0.000    3.000    0.000    2.571    0.000    8.571 
#    0.000    4.286    0.000    6.000    0.000    0.000 
#    0.000    0.000    0.000    0.000    0.000    0.000 
#
# Total GULP energy -346939.377933 kJ/mol
# GULP energy per Si atom -12390.692069 kJ/mol
# Density = 1.872835 g / cm^3
# Si number density = 18.771072 Si / 1000 Ang^3
#
#
#
# Elastic Constant Matrix: (Units=GPa)
#
#
# Indices 1 2 3 4 5 6 
#
# 1 145.5901 60.4347 30.1712 0.0000 0.0000 0.0000
# 2 60.4347 119.3769 41.3068 0.0000 0.0000 0.0000
# 3 30.1712 41.3068 65.9186 0.0000 0.0000 0.0000
# 4 0.0000 0.0000 0.0000 16.4917 0.0000 0.0000
# 5 0.0000 0.0000 0.0000 0.0000 38.7182 0.0000
# 6 0.0000 0.0000 0.0000 0.0000 0.0000 18.2175
#
#
#
# Elastic Compliance Matrix: (Units=1/GPa)
#
#
# Indices 1 2 3 4 5 6 
#
# 1 0.008823 -0.003919 -0.001583 0.000000 0.000000 0.000000
# 2 -0.003919 0.012437 -0.006000 0.000000 0.000000 0.000000
# 3 -0.001583 -0.006000 0.019654 0.000000 0.000000 0.000000
# 4 0.000000 0.000000 0.000000 0.060637 0.000000 0.000000
# 5 0.000000 0.000000 0.000000 0.000000 0.025828 0.000000
# 6 0.000000 0.000000 0.000000 0.000000 0.000000 0.054892
#
#
# Mechanical properties :
#
#
# Convention : Reuss Voigt Hill
#
# Bulk Modulus (GPa) = 55.82943 66.07899 60.95421
# Shear Modulus (GPa) = 23.66929 27.95034 25.80982
#
# Velocity S-wave (km/s) = 3.55483 3.86296 3.71209
# Velocity P-wave (km/s) = 6.83052 7.42803 7.13553
#
# Compressibility (1/GPa) = 0.01791170
#
# Stress axis : x y z
#
# Youngs Moduli (GPa) = 113.33416 80.40568 50.88007
#
# Poissons Ratio (x) = 0.31513 0.08052
# Poissons Ratio (y) = 0.44419 0.30526
# Poissons Ratio (z) = 0.17936 0.48240
#
# Static dielectric constant tensor:
#      x y z
#    x 3.903890 0.000000 0.000000 
#    y 0.000000 3.481150 0.000000 
#    z 0.000000 0.000000 3.237530 
# 
# 
# High freq. dielectric constant tensor:
#      x y z
#    x 1.713990 0.000000 0.000000 
#    y 0.000000 1.729540 0.000000 
#    z 0.000000 0.000000 1.703980 
# 
# From -- ./inp_files/6265.got.cif
#   From: 2010.03.12/outbox.cif.g09.slc.cpg/sg65_4_cif.got.tgz:6265.got - 2010.04.10 20:52:16.
