data_PCOD8270279
_publ_section_title
;
Structure prediction by ZEFSAII (Michael W. Deem and Ramdas Pophale) SiO2 
 PCOD8270279
Probable space group: C M M M
;
_chemical_formula_sum "Si O2"
_cell_formula_units_Z 112
_cell_length_a 14.630780
_cell_length_b 22.251090
_cell_length_c 15.899496
_cell_angle_alpha 90.000000
_cell_angle_beta 90.000000
_cell_angle_gamma 90.000000
_cell_volume 5176.093683
_symmetry_space_group_name_H-M "C M M M"
_symmetry_group_IT_number 65
_symmetry_cell_setting 'orthorhombic'
loop_
_space_group_symop_operation_xyz
x,y,z
-x,-y,z
x,-y,-z
-x,y,-z
-x,-y,-z
x,y,-z
-x,y,z
x,-y,z
1/2+x,1/2+y,z
1/2-x,1/2-y,z
1/2+x,1/2-y,-z
1/2-x,1/2+y,-z
1/2-x,1/2-y,-z
1/2+x,1/2+y,-z
1/2-x,1/2+y,z
1/2+x,1/2-y,z
loop_
_atom_site_type_symbol
_atom_site_label
_atom_site_fract_x
_atom_site_fract_y
_atom_site_fract_z
Si Si1 0.394097 0.431214 0.847146
Si Si2 0.805477 0.182025 0.907952
Si Si3 0.273535 0.930244 0.406663
Si Si4 0.896298 0.651069 0.092816
Si Si5 0.402016 0.872866 0.271090
Si Si6 0.853043 0.238743 0.260824
Si Si7 0.899166 0.883116 0.335339
O O1 0.500000 0.417180 0.868346
O O2 0.369915 0.500000 0.868080
O O3 0.327677 0.389183 0.902591
O O4 0.374214 0.418579 0.749493
O O5 0.694588 0.194467 0.897752
O O6 0.861838 0.214810 0.834906
O O7 0.836871 0.205411 0.000000
O O8 0.313896 0.917632 0.500000
O O9 0.326114 0.895020 0.334226
O O10 0.170203 0.906115 0.406325
O O11 0.278528 0.000000 0.385319
O O12 0.885707 0.606056 0.173400
O O13 0.000000 0.680555 0.098704
O O14 0.887837 0.619877 0.000000
O O15 0.500000 0.897347 0.302793
O O16 0.407858 0.800465 0.268644
O O17 0.750000 0.250000 0.289142
O O18 0.894529 0.188789 0.322574
O O19 0.000000 0.899964 0.367004
#
# Coordination Sequence:
#
# PCOD8270279 Si02
#       7
#    16  16  16  16  16  16  16
#     4   9  18  33  54  80 114 161 214 261 306 366
#     4  10  20  32  52  83 121 164 208 260 317 373
#     4  11  25  44  67  96 126 157 202 258 311 374
#     4   9  18  33  54  83 117 155 203 252 298 354
#     4  11  22  40  65  90 122 166 210 257 314 365
#     4  11  19  36  60  88 122 162 209 256 304 365
#     4  10  20  37  62  93 127 162 200 248 308 373
#
# _framework density 21.637938999999999
#
# number of rings (size 3 to 8) (size 9 to 14) (size 15 to 20)
#    0.000    1.857    2.857    1.714    0.000    3.714 
#    0.000    3.571    0.000    4.286    0.000    6.000 
#    0.000    0.000    0.000    0.000    0.000    0.000 
#
# Total GULP energy -693744.042597 kJ/mol
# GULP energy per Si atom -12388.286475 kJ/mol
# Density = 2.158869 g / cm^3
# Si number density = 21.637939 Si / 1000 Ang^3
#
#
#
# Elastic Constant Matrix: (Units=GPa)
#
#
# Indices 1 2 3 4 5 6 
#
# 1 49.2650 -13.0764 25.8237 0.0000 0.0000 0.0000
# 2 -13.0764 84.3482 30.0071 0.0000 0.0000 0.0000
# 3 25.8237 30.0071 104.5434 0.0000 0.0000 0.0000
# 4 0.0000 0.0000 0.0000 23.6051 0.0000 0.0000
# 5 0.0000 0.0000 0.0000 0.0000 18.4279 0.0000
# 6 0.0000 0.0000 0.0000 0.0000 0.0000 15.5224
#
#
#
# Elastic Compliance Matrix: (Units=1/GPa)
#
#
# Indices 1 2 3 4 5 6 
#
# 1 0.026778 0.007244 -0.008694 0.000000 0.000000 0.000000
# 2 0.007244 0.015164 -0.006142 0.000000 0.000000 0.000000
# 3 -0.008694 -0.006142 0.013476 0.000000 0.000000 0.000000
# 4 0.000000 0.000000 0.000000 0.042364 0.000000 0.000000
# 5 0.000000 0.000000 0.000000 0.000000 0.054266 0.000000
# 6 0.000000 0.000000 0.000000 0.000000 0.000000 0.064423
#
#
# Mechanical properties :
#
#
# Convention : Reuss Voigt Hill
#
# Bulk Modulus (GPa) = 24.85404 35.96282 30.40843
# Shear Modulus (GPa) = 20.40273 24.53788 22.47030
#
# Velocity S-wave (km/s) = 3.07402 3.37118 3.22602
# Velocity P-wave (km/s) = 4.91027 5.63999 5.28773
#
# Compressibility (1/GPa) = 0.04023490
#
# Stress axis : x y z
#
# Youngs Moduli (GPa) = 37.34343 65.94699 74.20675
#
# Poissons Ratio (x) = -0.47774 0.64515
# Poissons Ratio (y) = -0.27053 0.45577
# Poissons Ratio (z) = 0.32466 0.40504
#
# Static dielectric constant tensor:
#      x y z
#    x 4.059600 0.000000 0.000000 
#    y 0.000000 3.757410 0.000000 
#    z 0.000000 0.000000 3.798540 
# 
# 
# High freq. dielectric constant tensor:
#      x y z
#    x 1.859710 0.000000 0.000000 
#    y 0.000000 1.823190 0.000000 
#    z 0.000000 0.000000 1.834650 
# 
# From -- ./inp_files/40773.got.cif
#   From: 2010.03.12/outbox.cif.g09.slc.cpg/sg65_21_cif.got.tgz:40773.got - 2010.04.10 20:52:16.
