data_PCOD8270188
_publ_section_title
;
Structure prediction by ZEFSAII (Michael W. Deem and Ramdas Pophale) SiO2 
 PCOD8270188
Probable space group: C M M M
;
_chemical_formula_sum "Si O2"
_cell_formula_units_Z 120
_cell_length_a 14.044398
_cell_length_b 29.419555
_cell_length_c 14.682153
_cell_angle_alpha 90.000000
_cell_angle_beta 90.000000
_cell_angle_gamma 90.000000
_cell_volume 6066.371087
_symmetry_space_group_name_H-M "C M M M"
_symmetry_group_IT_number 65
_symmetry_cell_setting 'orthorhombic'
loop_
_space_group_symop_operation_xyz
x,y,z
-x,-y,z
x,-y,-z
-x,y,-z
-x,-y,-z
x,y,-z
-x,y,z
x,-y,z
1/2+x,1/2+y,z
1/2-x,1/2-y,z
1/2+x,1/2-y,-z
1/2-x,1/2+y,-z
1/2-x,1/2-y,-z
1/2+x,1/2+y,-z
1/2-x,1/2+y,z
1/2+x,1/2-y,z
loop_
_atom_site_type_symbol
_atom_site_label
_atom_site_fract_x
_atom_site_fract_y
_atom_site_fract_z
Si Si1 0.500000 0.946498 0.398629
Si Si2 0.613043 0.906221 0.104848
Si Si3 0.749143 0.872517 0.603104
Si Si4 0.392631 0.280891 0.846657
Si Si5 0.818401 0.552411 0.283070
Si Si6 0.894766 0.701265 0.605482
Si Si7 0.307473 0.809242 0.898364
Si Si8 0.605446 0.700223 0.357080
O O1 0.500000 0.924273 0.500000
O O2 0.591535 0.930838 0.342497
O O3 0.500000 0.000000 0.407563
O O4 0.500000 0.905744 0.117245
O O5 0.660376 0.941811 0.175326
O O6 0.657990 0.858308 0.133516
O O7 0.639254 0.919285 0.000000
O O8 0.726592 0.889798 0.500000
O O9 0.762986 0.914996 0.673472
O O10 0.670363 0.838507 0.647546
O O11 0.844098 0.842597 0.597380
O O12 0.500000 0.283790 0.890765
O O13 0.359282 0.228153 0.834825
O O14 0.308296 0.306283 0.901659
O O15 0.395986 0.305923 0.750854
O O16 0.790944 0.500000 0.299671
O O17 0.901945 0.690084 0.500000
O O18 0.847226 0.750953 0.619264
O O19 0.000000 0.699691 0.651440
O O20 0.345063 0.799599 0.000000
O O21 0.500000 0.700620 0.398866
#
# Coordination Sequence:
#
# PCOD8270188 Si02
#       8
#     8  16  16  16  16  16  16  16
#     4   9  18  34  53  75 107 141 174 218 269 325
#     4  10  21  37  57  82 112 147 190 236 284 342
#     4  11  23  36  56  81 110 152 193 233 284 340
#     4  10  20  32  49  75 109 149 190 232 282 336
#     4  11  23  38  57  82 110 144 186 234 287 343
#     4   9  19  33  49  75 109 143 181 223 268 323
#     4  10  21  34  51  77 108 146 192 241 287 338
#     4  10  21  35  53  79 109 146 190 235 277 326
#
# _framework density 19.781182999999999
#
# number of rings (size 3 to 8) (size 9 to 14) (size 15 to 20)
#    0.000    1.933    0.667    3.200    6.533    4.533 
#    0.000    0.667    0.000    0.400    0.000    0.933 
#    0.000    0.000    0.000   11.467    0.000    0.133 
#
# Total GULP energy -743580.120628 kJ/mol
# GULP energy per Si atom -12393.002010 kJ/mol
# Density = 1.973616 g / cm^3
# Si number density = 19.781183 Si / 1000 Ang^3
#
#
#
# Elastic Constant Matrix: (Units=GPa)
#
#
# Indices 1 2 3 4 5 6 
#
# 1 70.3141 30.0771 12.7115 0.0000 0.0000 0.0000
# 2 30.0771 118.1136 32.8808 0.0000 0.0000 0.0000
# 3 12.7115 32.8808 83.5454 0.0000 0.0000 0.0000
# 4 0.0000 0.0000 0.0000 28.7833 0.0000 0.0000
# 5 0.0000 0.0000 0.0000 0.0000 20.8300 0.0000
# 6 0.0000 0.0000 0.0000 0.0000 0.0000 18.7470
#
#
#
# Elastic Compliance Matrix: (Units=1/GPa)
#
#
# Indices 1 2 3 4 5 6 
#
# 1 0.016025 -0.003821 -0.000935 0.000000 0.000000 0.000000
# 2 -0.003821 0.010419 -0.003519 0.000000 0.000000 0.000000
# 3 -0.000935 -0.003519 0.013497 0.000000 0.000000 0.000000
# 4 0.000000 0.000000 0.000000 0.034742 0.000000 0.000000
# 5 0.000000 0.000000 0.000000 0.000000 0.048008 0.000000
# 6 0.000000 0.000000 0.000000 0.000000 0.000000 0.053342
#
#
# Mechanical properties :
#
#
# Convention : Reuss Voigt Hill
#
# Bulk Modulus (GPa) = 42.74948 47.03465 44.89206
# Shear Modulus (GPa) = 24.95272 26.75899 25.85585
#
# Velocity S-wave (km/s) = 3.55552 3.68196 3.61930
# Velocity P-wave (km/s) = 6.20595 6.47340 6.34108
#
# Compressibility (1/GPa) = 0.02339210
#
# Stress axis : x y z
#
# Youngs Moduli (GPa) = 62.40213 95.97830 74.09148
#
# Poissons Ratio (x) = 0.36669 0.06924
# Poissons Ratio (y) = 0.23841 0.26075
# Poissons Ratio (z) = 0.05832 0.33778
#
# Static dielectric constant tensor:
#      x y z
#    x 3.661450 0.000000 0.000000 
#    y 0.000000 3.349830 0.000000 
#    z 0.000000 0.000000 3.565040 
# 
# 
# High freq. dielectric constant tensor:
#      x y z
#    x 1.748820 0.000000 0.000000 
#    y 0.000000 1.746710 0.000000 
#    z 0.000000 0.000000 1.777900 
# 
# From -- ./inp_files/41457.got.cif
#   From: 2010.03.12/outbox.cif.g09.slc.cpg/sg65_21_cif.got.tgz:41457.got - 2010.04.10 20:52:16.
