data_PCOD8270242
_publ_section_title
;
Structure prediction by ZEFSAII (Michael W. Deem and Ramdas Pophale) SiO2 
 PCOD8270242
Probable space group: C M M M
;
_chemical_formula_sum "Si O2"
_cell_formula_units_Z 96
_cell_length_a 24.344878
_cell_length_b 24.031012
_cell_length_c 8.874552
_cell_angle_alpha 90.000000
_cell_angle_beta 90.000000
_cell_angle_gamma 90.000000
_cell_volume 5191.897397
_symmetry_space_group_name_H-M "C M M M"
_symmetry_group_IT_number 65
_symmetry_cell_setting 'orthorhombic'
loop_
_space_group_symop_operation_xyz
x,y,z
-x,-y,z
x,-y,-z
-x,y,-z
-x,-y,-z
x,y,-z
-x,y,z
x,-y,z
1/2+x,1/2+y,z
1/2-x,1/2-y,z
1/2+x,1/2-y,-z
1/2-x,1/2+y,-z
1/2-x,1/2-y,-z
1/2+x,1/2+y,-z
1/2-x,1/2+y,z
1/2+x,1/2-y,z
loop_
_atom_site_type_symbol
_atom_site_label
_atom_site_fract_x
_atom_site_fract_y
_atom_site_fract_z
Si Si1 0.844839 0.228625 0.676418
Si Si2 0.728980 0.358680 0.178698
Si Si3 0.562596 0.659919 0.175719
Si Si4 0.365738 0.439229 0.176414
Si Si5 0.157234 0.356648 0.677875
Si Si6 0.438577 0.062720 0.321055
O O1 0.835400 0.221429 0.500000
O O2 0.792370 0.200706 0.758077
O O3 0.902061 0.201577 0.724848
O O4 0.850805 0.292682 0.723432
O O5 0.687052 0.405902 0.237082
O O6 0.787436 0.377332 0.242795
O O7 0.731151 0.354113 0.000000
O O8 0.500000 0.668395 0.222042
O O9 0.579596 0.596283 0.212392
O O10 0.573448 0.672818 0.000000
O O11 0.369935 0.500000 0.254667
O O12 0.358878 0.447339 0.000000
O O13 0.163358 0.364531 0.500000
O O14 0.106239 0.393300 0.741469
O O15 0.438549 0.064866 0.500000
O O16 0.500000 0.078643 0.262626
O O17 0.423546 0.000000 0.267020
#
# Coordination Sequence:
#
# PCOD8270242 Si02
#       6
#    16  16  16  16  16  16
#     4  10  20  33  49  70  99 132 164 201 243 285
#     4  10  20  33  50  72  99 130 162 198 243 292
#     4   9  18  32  50  73 100 130 165 203 242 286
#     4   8  15  29  48  70  96 126 161 199 237 280
#     4  10  20  32  50  76  99 123 161 202 239 287
#     4   8  15  30  51  73  98 127 158 195 239 286
#
# _framework density 18.490349999999999
#
# number of rings (size 3 to 8) (size 9 to 14) (size 15 to 20)
#    0.000    2.833    0.000    3.000    0.000    5.333 
#    0.000    3.333    0.000   12.500    0.000    5.833 
#    0.000    0.000    0.000    0.000    0.000    0.000 
#
# Total GULP energy -595016.331122 kJ/mol
# GULP energy per Si atom -12396.173565 kJ/mol
# Density = 1.844827 g / cm^3
# Si number density = 18.490350 Si / 1000 Ang^3
#
#
#
# Elastic Constant Matrix: (Units=GPa)
#
#
# Indices 1 2 3 4 5 6 
#
# 1 110.5503 22.5477 6.7439 0.0000 0.0000 0.0000
# 2 22.5477 66.0288 3.7697 0.0000 0.0000 0.0000
# 3 6.7439 3.7697 18.7606 0.0000 0.0000 0.0000
# 4 0.0000 0.0000 0.0000 15.6967 0.0000 0.0000
# 5 0.0000 0.0000 0.0000 0.0000 28.6705 0.0000
# 6 0.0000 0.0000 0.0000 0.0000 0.0000 25.9037
#
#
#
# Elastic Compliance Matrix: (Units=1/GPa)
#
#
# Indices 1 2 3 4 5 6 
#
# 1 0.009877 -0.003207 -0.002906 0.000000 0.000000 0.000000
# 2 -0.003207 0.016362 -0.002135 0.000000 0.000000 0.000000
# 3 -0.002906 -0.002135 0.054777 0.000000 0.000000 0.000000
# 4 0.000000 0.000000 0.000000 0.063708 0.000000 0.000000
# 5 0.000000 0.000000 0.000000 0.000000 0.034879 0.000000
# 6 0.000000 0.000000 0.000000 0.000000 0.000000 0.038605
#
#
# Mechanical properties :
#
#
# Convention : Reuss Voigt Hill
#
# Bulk Modulus (GPa) = 15.49909 29.05135 22.27522
# Shear Modulus (GPa) = 19.51525 24.87272 22.19399
#
# Velocity S-wave (km/s) = 3.25226 3.67164 3.46829
# Velocity P-wave (km/s) = 4.74377 5.80692 5.30206
#
# Compressibility (1/GPa) = 0.06451993
#
# Stress axis : x y z
#
# Youngs Moduli (GPa) = 101.24512 61.11760 18.25586
#
# Poissons Ratio (x) = 0.19600 0.05305
# Poissons Ratio (y) = 0.32468 0.03897
# Poissons Ratio (z) = 0.29423 0.13048
#
# Static dielectric constant tensor:
#      x y z
#    x 3.565120 0.000000 0.000000 
#    y 0.000000 3.690880 0.000000 
#    z 0.000000 0.000000 3.043010 
# 
# 
# High freq. dielectric constant tensor:
#      x y z
#    x 1.724170 0.000000 0.000000 
#    y 0.000000 1.719580 0.000000 
#    z 0.000000 0.000000 1.682420 
# 
# From -- ./inp_files/14280.got.cif
#   From: 2010.03.12/outbox.cif.g09.slc.cpg/sg65_8_cif.got.tgz:14280.got - 2010.04.10 20:52:16.
