data_PCOD8270422
_publ_section_title
;
Structure prediction by ZEFSAII (Michael W. Deem and Ramdas Pophale) SiO2 
 PCOD8270422
Probable space group: C M M M
;
_chemical_formula_sum "Si O2"
_cell_formula_units_Z 88
_cell_length_a 20.055582
_cell_length_b 8.929888
_cell_length_c 27.803269
_cell_angle_alpha 90.000000
_cell_angle_beta 90.000000
_cell_angle_gamma 90.000000
_cell_volume 4979.401467
_symmetry_space_group_name_H-M "C M M M"
_symmetry_group_IT_number 65
_symmetry_cell_setting 'orthorhombic'
loop_
_space_group_symop_operation_xyz
x,y,z
-x,-y,z
x,-y,-z
-x,y,-z
-x,-y,-z
x,y,-z
-x,y,z
x,-y,z
1/2+x,1/2+y,z
1/2-x,1/2-y,z
1/2+x,1/2-y,-z
1/2-x,1/2+y,-z
1/2-x,1/2-y,-z
1/2+x,1/2+y,-z
1/2-x,1/2+y,z
1/2+x,1/2-y,z
loop_
_atom_site_type_symbol
_atom_site_label
_atom_site_fract_x
_atom_site_fract_y
_atom_site_fract_z
Si Si1 0.817920 0.175935 0.872772
Si Si2 0.079609 0.669184 0.500000
Si Si3 0.925907 0.822038 0.053512
Si Si4 0.680747 0.676470 0.237672
Si Si5 0.077816 0.675486 0.692334
Si Si6 0.079174 0.831599 0.405098
O O1 0.750000 0.250000 0.890530
O O2 0.876231 0.243379 0.906311
O O3 0.833317 0.217811 0.817714
O O4 0.810658 0.000000 0.879537
O O5 0.106695 0.500000 0.500000
O O6 0.107829 0.752941 0.452906
O O7 0.000000 0.670124 0.500000
O O8 0.000000 0.759870 0.064342
O O9 0.926906 0.000000 0.056405
O O10 0.903119 0.771384 0.000000
O O11 0.685450 0.500000 0.246272
O O12 0.750000 0.750000 0.255153
O O13 0.618681 0.742627 0.266321
O O14 0.092243 0.500000 0.693722
O O15 0.102611 0.737889 0.641085
O O16 0.000000 0.711314 0.700681
O O17 0.000000 0.834787 0.407868
O O18 0.107753 0.000000 0.401688
#
# Coordination Sequence:
#
# PCOD8270422 Si02
#       6
#    16   8  16  16  16  16
#     4   9  18  31  48  70  94 121 155 196 239 283
#     4   9  15  23  37  59  90 127 162 197 242 291
#     4   8  14  26  45  69  96 125 158 195 233 276
#     4  10  20  34  51  70  95 127 163 203 246 294
#     4  10  20  33  49  71  99 128 160 201 248 296
#     4   9  16  26  41  63  92 125 161 200 242 289
#
# _framework density 17.672806999999999
#
# number of rings (size 3 to 8) (size 9 to 14) (size 15 to 20)
#    0.000    2.818    0.000    2.455    0.000    6.182 
#    0.000    1.818    0.000    0.545    0.000    1.909 
#    0.000    0.000    0.000    0.000    0.000    0.000 
#
# Total GULP energy -545541.359387 kJ/mol
# GULP energy per Si atom -12398.667259 kJ/mol
# Density = 1.763258 g / cm^3
# Si number density = 17.672807 Si / 1000 Ang^3
#
#
#
# Elastic Constant Matrix: (Units=GPa)
#
#
# Indices 1 2 3 4 5 6 
#
# 1 83.9016 39.7865 74.3576 0.0000 0.0000 0.0000
# 2 39.7865 83.9037 48.5225 0.0000 0.0000 0.0000
# 3 74.3576 48.5225 128.6040 0.0000 0.0000 0.0000
# 4 0.0000 0.0000 0.0000 19.8332 0.0000 0.0000
# 5 0.0000 0.0000 0.0000 0.0000 7.0827 0.0000
# 6 0.0000 0.0000 0.0000 0.0000 0.0000 23.6097
#
#
#
# Elastic Compliance Matrix: (Units=1/GPa)
#
#
# Indices 1 2 3 4 5 6 
#
# 1 0.025766 -0.004608 -0.013159 0.000000 0.000000 0.000000
# 2 -0.004608 0.016069 -0.003399 0.000000 0.000000 0.000000
# 3 -0.013159 -0.003399 0.016667 0.000000 0.000000 0.000000
# 4 0.000000 0.000000 0.000000 0.050420 0.000000 0.000000
# 5 0.000000 0.000000 0.000000 0.000000 0.141189 0.000000
# 6 0.000000 0.000000 0.000000 0.000000 0.000000 0.042355
#
#
# Mechanical properties :
#
#
# Convention : Reuss Voigt Hill
#
# Bulk Modulus (GPa) = 61.84187 69.08250 65.46219
# Shear Modulus (GPa) = 14.69777 19.02131 16.85954
#
# Velocity S-wave (km/s) = 2.88698 3.28427 3.09201
# Velocity P-wave (km/s) = 6.79570 7.31823 7.06180
#
# Compressibility (1/GPa) = 0.01617027
#
# Stress axis : x y z
#
# Youngs Moduli (GPa) = 38.81077 62.23192 60.00056
#
# Poissons Ratio (x) = 0.28677 0.78955
# Poissons Ratio (y) = 0.17884 0.20391
# Poissons Ratio (z) = 0.51071 0.21150
#
# Static dielectric constant tensor:
#      x y z
#    x 3.119310 0.000000 0.000000 
#    y 0.000000 3.226340 0.000000 
#    z 0.000000 0.000000 3.481860 
# 
# 
# High freq. dielectric constant tensor:
#      x y z
#    x 1.649300 0.000000 0.000000 
#    y 0.000000 1.677280 0.000000 
#    z 0.000000 0.000000 1.693270 
# 
# From -- ./inp_files/75344.got.cif
#   From: 2010.03.12/outbox.cif.g09.slc.cpg/sg65_38_cif.got.tgz:75344.got - 2010.04.10 20:52:16.
