data_PCOD8270932
_publ_section_title
;
Structure prediction by ZEFSAII (Michael W. Deem and Ramdas Pophale) SiO2 
 PCOD8270932
Probable space group: C M M M
;
_chemical_formula_sum "Si O2"
_cell_formula_units_Z 104
_cell_length_a 8.988777
_cell_length_b 25.811430
_cell_length_c 27.682326
_cell_angle_alpha 90.000000
_cell_angle_beta 90.000000
_cell_angle_gamma 90.000000
_cell_volume 6422.664715
_symmetry_space_group_name_H-M "C M M M"
_symmetry_group_IT_number 65
_symmetry_cell_setting 'orthorhombic'
loop_
_space_group_symop_operation_xyz
x,y,z
-x,-y,z
x,-y,-z
-x,y,-z
-x,-y,-z
x,y,-z
-x,y,z
x,-y,z
1/2+x,1/2+y,z
1/2-x,1/2-y,z
1/2+x,1/2-y,-z
1/2-x,1/2+y,-z
1/2-x,1/2-y,-z
1/2+x,1/2+y,-z
1/2-x,1/2+y,z
1/2+x,1/2-y,z
loop_
_atom_site_type_symbol
_atom_site_label
_atom_site_fract_x
_atom_site_fract_y
_atom_site_fract_z
Si Si1 0.676511 0.500000 0.392173
Si Si2 0.326484 0.095412 0.443567
Si Si3 0.324544 0.196935 0.278879
Si Si4 0.833714 0.558175 0.141652
Si Si5 0.326439 0.802126 0.389832
Si Si6 0.323913 0.500000 0.717128
Si Si7 0.000000 0.438472 0.053127
Si Si8 0.175580 0.898103 0.773245
O O1 0.500000 0.500000 0.393202
O O2 0.733555 0.550540 0.418979
O O3 0.738171 0.500000 0.337420
O O4 0.292479 0.095257 0.500000
O O5 0.500000 0.086235 0.432643
O O6 0.271153 0.149899 0.421939
O O7 0.500000 0.200485 0.270930
O O8 0.250000 0.250000 0.261000
O O9 0.282262 0.186452 0.334557
O O10 0.258008 0.151283 0.247433
O O11 0.767725 0.500000 0.143797
O O12 0.722718 0.595707 0.170674
O O13 0.000000 0.559043 0.165148
O O14 0.852810 0.576552 0.085123
O O15 0.500000 0.793351 0.395763
O O16 0.250000 0.750000 0.409173
O O17 0.500000 0.500000 0.716890
O O18 0.266802 0.551286 0.744395
O O19 0.000000 0.500000 0.047646
O O20 0.000000 0.411813 0.000000
O O21 0.000000 0.890163 0.769085
#
# Coordination Sequence:
#
# PCOD8270932 Si02
#       8
#     8  16  16  16  16   8   8  16
#     4  11  22  36  51  70  94 122 163 202 231 280
#     4  10  21  37  54  71  95 123 151 189 243 296
#     4  10  20  34  50  69  94 127 163 200 238 291
#     4   8  15  26  42  66  96 128 167 204 239 279
#     4   9  19  35  54  74  95 120 154 192 239 290
#     4   9  20  32  46  69  98 131 160 191 239 290
#     4   7  12  24  44  66  94 134 174 210 244 283
#     4  11  19  30  47  69 100 134 164 199 246 291
#
# _framework density 16.192655999999999
#
# number of rings (size 3 to 8) (size 9 to 14) (size 15 to 20)
#    0.462    2.077    0.769    2.308    0.000    2.769 
#    0.000    2.308    0.000    0.462    0.000    2.154 
#    0.000    0.615    0.000    0.000    0.000    0.000 
#
# Total GULP energy -644539.585532 kJ/mol
# GULP energy per Si atom -12394.992029 kJ/mol
# Density = 1.615580 g / cm^3
# Si number density = 16.192656 Si / 1000 Ang^3
#
#
#
# Elastic Constant Matrix: (Units=GPa)
#
#
# Indices 1 2 3 4 5 6 
#
# 1 52.5614 38.7849 38.7318 0.0000 0.0000 0.0000
# 2 38.7849 112.4882 62.8017 0.0000 0.0000 0.0000
# 3 38.7318 62.8017 115.8806 0.0000 0.0000 0.0000
# 4 0.0000 0.0000 0.0000 22.3202 0.0000 0.0000
# 5 0.0000 0.0000 0.0000 0.0000 19.2987 0.0000
# 6 0.0000 0.0000 0.0000 0.0000 0.0000 27.3159
#
#
#
# Elastic Compliance Matrix: (Units=1/GPa)
#
#
# Indices 1 2 3 4 5 6 
#
# 1 0.028106 -0.006375 -0.005939 0.000000 0.000000 0.000000
# 2 -0.006375 0.014192 -0.005561 0.000000 0.000000 0.000000
# 3 -0.005939 -0.005561 0.013628 0.000000 0.000000 0.000000
# 4 0.000000 0.000000 0.000000 0.044802 0.000000 0.000000
# 5 0.000000 0.000000 0.000000 0.000000 0.051817 0.000000
# 6 0.000000 0.000000 0.000000 0.000000 0.000000 0.036609
#
#
# Mechanical properties :
#
#
# Convention : Reuss Voigt Hill
#
# Bulk Modulus (GPa) = 49.56174 62.39632 55.97903
# Shear Modulus (GPa) = 21.58612 23.16109 22.37360
#
# Velocity S-wave (km/s) = 3.65510 3.78609 3.72117
# Velocity P-wave (km/s) = 6.96326 7.59803 7.28756
#
# Compressibility (1/GPa) = 0.02017685
#
# Stress axis : x y z
#
# Youngs Moduli (GPa) = 35.57976 70.46021 73.37598
#
# Poissons Ratio (x) = 0.44917 0.43580
# Poissons Ratio (y) = 0.22681 0.40804
# Poissons Ratio (z) = 0.21132 0.39182
#
# Static dielectric constant tensor:
#      x y z
#    x 2.940940 0.000000 0.000000 
#    y 0.000000 3.033330 0.000000 
#    z 0.000000 0.000000 3.184900 
# 
# 
# High freq. dielectric constant tensor:
#      x y z
#    x 1.612300 0.000000 0.000000 
#    y 0.000000 1.614410 0.000000 
#    z 0.000000 0.000000 1.609970 
# 
# From -- ./inp_files/73816.got.cif
#   From: 2010.03.12/outbox.cif.g09.slc.cpg/sg65_37_cif.got.tgz:73816.got - 2010.04.10 20:52:16.
