data_PCOD8270305
_publ_section_title
;
Structure prediction by ZEFSAII (Michael W. Deem and Ramdas Pophale) SiO2 
 PCOD8270305
Probable space group: C M M M
;
_chemical_formula_sum "Si O2"
_cell_formula_units_Z 80
_cell_length_a 19.773392
_cell_length_b 25.280860
_cell_length_c 8.427054
_cell_angle_alpha 90.000000
_cell_angle_beta 90.000000
_cell_angle_gamma 90.000000
_cell_volume 4212.586161
_symmetry_space_group_name_H-M "C M M M"
_symmetry_group_IT_number 65
_symmetry_cell_setting 'orthorhombic'
loop_
_space_group_symop_operation_xyz
x,y,z
-x,-y,z
x,-y,-z
-x,y,-z
-x,-y,-z
x,y,-z
-x,y,z
x,-y,z
1/2+x,1/2+y,z
1/2-x,1/2-y,z
1/2+x,1/2-y,-z
1/2-x,1/2+y,-z
1/2-x,1/2-y,-z
1/2+x,1/2+y,-z
1/2-x,1/2+y,z
1/2+x,1/2-y,z
loop_
_atom_site_type_symbol
_atom_site_label
_atom_site_fract_x
_atom_site_fract_y
_atom_site_fract_z
Si Si1 0.647937 0.742727 0.687487
Si Si2 0.743645 0.167628 0.186705
Si Si3 0.396473 0.558734 0.824090
Si Si4 0.500000 0.372500 0.325178
Si Si5 0.500000 0.732912 0.819303
Si Si6 0.247986 0.057884 0.315758
O O1 0.656805 0.747458 0.500000
O O2 0.686829 0.789770 0.774103
O O3 0.682971 0.687138 0.743705
O O4 0.569101 0.750246 0.731537
O O5 0.715130 0.111932 0.260499
O O6 0.751795 0.161319 0.000000
O O7 0.426408 0.500000 0.815358
O O8 0.433232 0.592746 0.690916
O O9 0.317935 0.558369 0.790832
O O10 0.408994 0.582212 0.000000
O O11 0.500000 0.345872 0.500000
O O12 0.500000 0.330125 0.185574
O O13 0.500000 0.753525 0.000000
O O14 0.230141 0.062267 0.500000
O O15 0.285005 0.000000 0.285162
#
# Coordination Sequence:
#
# PCOD8270305 Si02
#       6
#    16  16  16   8   8  16
#     4  11  22  38  58  81 109 142 181 223 269 320
#     4  11  21  36  57  82 111 144 181 221 269 320
#     4  10  20  33  47  65  92 128 170 214 258 303
#     4  12  23  33  46  65  92 129 171 212 255 304
#     4  12  24  39  55  76 105 136 174 218 267 318
#     4  10  20  34  52  75 103 135 172 215 262 311
#
# _framework density 18.99071
#
# number of rings (size 3 to 8) (size 9 to 14) (size 15 to 20)
#    0.000    1.200    0.000    9.300    0.000    3.600 
#    0.000    0.000    0.000    0.000    0.000    0.700 
#    0.000    5.600    0.000    0.000    0.000    0.000 
#
# Total GULP energy -495572.671974 kJ/mol
# GULP energy per Si atom -12389.316799 kJ/mol
# Density = 1.894749 g / cm^3
# Si number density = 18.990710 Si / 1000 Ang^3
#
#
#
# Elastic Constant Matrix: (Units=GPa)
#
#
# Indices 1 2 3 4 5 6 
#
# 1 73.8902 17.4664 9.3461 0.0000 0.0000 0.0000
# 2 17.4664 107.4877 20.5266 0.0000 0.0000 0.0000
# 3 9.3461 20.5266 83.7047 0.0000 0.0000 0.0000
# 4 0.0000 0.0000 0.0000 29.3701 0.0000 0.0000
# 5 0.0000 0.0000 0.0000 0.0000 26.6086 0.0000
# 6 0.0000 0.0000 0.0000 0.0000 0.0000 19.8987
#
#
#
# Elastic Compliance Matrix: (Units=1/GPa)
#
#
# Indices 1 2 3 4 5 6 
#
# 1 0.014164 -0.002098 -0.001067 0.000000 0.000000 0.000000
# 2 -0.002098 0.010071 -0.002235 0.000000 0.000000 0.000000
# 3 -0.001067 -0.002235 0.012614 0.000000 0.000000 0.000000
# 4 0.000000 0.000000 0.000000 0.034048 0.000000 0.000000
# 5 0.000000 0.000000 0.000000 0.000000 0.037582 0.000000
# 6 0.000000 0.000000 0.000000 0.000000 0.000000 0.050255
#
#
# Mechanical properties :
#
#
# Convention : Reuss Voigt Hill
#
# Bulk Modulus (GPa) = 38.38940 39.97340 39.18140
# Shear Modulus (GPa) = 28.05550 29.69173 28.87361
#
# Velocity S-wave (km/s) = 3.84777 3.95838 3.90347
# Velocity P-wave (km/s) = 6.32449 6.47969 6.40256
#
# Compressibility (1/GPa) = 0.02604886
#
# Stress axis : x y z
#
# Youngs Moduli (GPa) = 70.59914 99.29311 79.27635
#
# Poissons Ratio (x) = 0.20831 0.08459
# Poissons Ratio (y) = 0.14811 0.17722
# Poissons Ratio (z) = 0.07534 0.22197
#
# Static dielectric constant tensor:
#      x y z
#    x 3.225360 0.000000 0.000000 
#    y 0.000000 3.968220 0.000000 
#    z 0.000000 0.000000 3.517490 
# 
# 
# High freq. dielectric constant tensor:
#      x y z
#    x 1.694190 0.000000 0.000000 
#    y 0.000000 1.741530 0.000000 
#    z 0.000000 0.000000 1.759790 
# 
# From -- ./inp_files/12122.got.cif
#   From: 2010.03.12/outbox.cif.g09.slc.cpg/sg65_7_cif.got.tgz:12122.got - 2010.04.10 20:52:16.
