data_PCOD8270402
_publ_section_title
;
Structure prediction by ZEFSAII (Michael W. Deem and Ramdas Pophale) SiO2 
 PCOD8270402
Probable space group: C M M M
;
_chemical_formula_sum "Si O2"
_cell_formula_units_Z 104
_cell_length_a 26.779755
_cell_length_b 8.779161
_cell_length_c 21.312742
_cell_angle_alpha 90.000000
_cell_angle_beta 90.000000
_cell_angle_gamma 90.000000
_cell_volume 5010.706221
_symmetry_space_group_name_H-M "C M M M"
_symmetry_group_IT_number 65
_symmetry_cell_setting 'orthorhombic'
loop_
_space_group_symop_operation_xyz
x,y,z
-x,-y,z
x,-y,-z
-x,y,-z
-x,-y,-z
x,y,-z
-x,y,z
x,-y,z
1/2+x,1/2+y,z
1/2-x,1/2-y,z
1/2+x,1/2-y,-z
1/2-x,1/2+y,-z
1/2-x,1/2-y,-z
1/2+x,1/2+y,-z
1/2-x,1/2+y,z
1/2+x,1/2-y,z
loop_
_atom_site_type_symbol
_atom_site_label
_atom_site_fract_x
_atom_site_fract_y
_atom_site_fract_z
Si Si1 0.352674 0.679903 0.621043
Si Si2 0.296814 0.667732 0.928609
Si Si3 0.557135 0.824336 0.317225
Si Si4 0.599731 0.822062 0.069566
Si Si5 0.304457 0.179624 0.500000
Si Si6 0.698322 0.324009 0.748011
Si Si7 0.905531 0.823228 0.805520
O O1 0.348935 0.500000 0.609914
O O2 0.409911 0.724275 0.635167
O O3 0.334628 0.768434 0.560510
O O4 0.319427 0.736206 0.679956
O O5 0.308396 0.500000 0.897336
O O6 0.250000 0.750000 0.894258
O O7 0.342340 0.783458 0.925673
O O8 0.281925 0.635383 0.000000
O O9 0.500000 0.800938 0.337191
O O10 0.564170 0.770564 0.245780
O O11 0.573209 0.000000 0.322057
O O12 0.573805 0.728550 0.126043
O O13 0.591222 0.000000 0.080573
O O14 0.579185 0.774688 0.000000
O O15 0.250000 0.250000 0.500000
O O16 0.299034 0.000000 0.500000
O O17 0.708841 0.500000 0.741552
O O18 0.750000 0.250000 0.769698
O O19 0.654437 0.290513 0.798980
O O20 0.917047 0.000000 0.794789
#
# Coordination Sequence:
#
# PCOD8270402 Si02
#       7
#    16  16  16  16   8  16  16
#     4  10  21  38  59  87 122 159 203 248 291 342
#     4   9  16  26  40  58  83 119 164 210 255 309
#     4  10  21  39  64  91 117 147 187 239 297 350
#     4  10  20  33  49  70  98 133 173 221 281 345
#     4  12  24  38  59  90 131 176 216 251 289 333
#     4   9  19  33  51  76 106 143 186 233 281 330
#     4  10  21  36  54  79 109 142 185 232 281 344
#
# _framework density 20.755555999999999
#
# number of rings (size 3 to 8) (size 9 to 14) (size 15 to 20)
#    0.000    2.154    0.000    4.385    0.000    9.538 
#    0.000    1.923    0.000    2.769    0.000    3.231 
#    0.000    0.000    0.000    0.000    0.000    0.000 
#
# Total GULP energy -644630.738237 kJ/mol
# GULP energy per Si atom -12396.744966 kJ/mol
# Density = 2.070832 g / cm^3
# Si number density = 20.755556 Si / 1000 Ang^3
#
#
#
# Elastic Constant Matrix: (Units=GPa)
#
#
# Indices 1 2 3 4 5 6 
#
# 1 63.5871 25.3133 23.9523 0.0000 0.0000 0.0000
# 2 25.3133 87.1579 34.7724 0.0000 0.0000 0.0000
# 3 23.9523 34.7724 133.1697 0.0000 0.0000 0.0000
# 4 0.0000 0.0000 0.0000 31.7299 0.0000 0.0000
# 5 0.0000 0.0000 0.0000 0.0000 -0.0204 0.0000
# 6 0.0000 0.0000 0.0000 0.0000 0.0000 28.0094
#
#
#
# Elastic Compliance Matrix: (Units=1/GPa)
#
#
# Indices 1 2 3 4 5 6 
#
# 1 0.018306 -0.004469 -0.002126 0.000000 0.000000 0.000000
# 2 -0.004469 0.013898 -0.002825 0.000000 0.000000 0.000000
# 3 -0.002126 -0.002825 0.008629 0.000000 0.000000 0.000000
# 4 0.000000 0.000000 0.000000 0.031516 0.000000 0.000000
# 5 0.000000 0.000000 0.000000 0.000000-48.964254 0.000000
# 6 0.000000 0.000000 0.000000 0.000000 0.000000 0.035702
#
#
# Mechanical properties :
#
#
# Convention : Reuss Voigt Hill
#
# Bulk Modulus (GPa) = 45.46599 50.22120 47.84359
# Shear Modulus (GPa) = -0.10240 25.26890 12.58325
#
# Velocity S-wave (km/s) = -0.22235 3.49299 2.46490
# Velocity P-wave (km/s) = 4.67836 6.36529 5.58588
#
# Compressibility (1/GPa) = 0.02199446
#
# Stress axis : x y z
#
# Youngs Moduli (GPa) = 54.62667 71.95065 115.88427
#
# Poissons Ratio (x) = 0.32151 0.24635
# Poissons Ratio (y) = 0.24410 0.32741
# Poissons Ratio (z) = 0.11612 0.20328
#
# Static dielectric constant tensor:
#      x y z
#    x 3.575530 0.000000 0.000000 
#    y 0.000000 3.894470 0.000000 
#    z 0.000000 0.000000 3.949260 
# 
# 
# High freq. dielectric constant tensor:
#      x y z
#    x 1.785480 0.000000 0.000000 
#    y 0.000000 1.820700 0.000000 
#    z 0.000000 0.000000 1.815390 
# 
# From -- ./inp_files/65856.got.cif
#   From: 2010.03.12/outbox.cif.g09.slc.cpg/sg65_33_cif.got.tgz:65856.got - 2010.04.10 20:52:16.
