data_PCOD8270499
_publ_section_title
;
Structure prediction by ZEFSAII (Michael W. Deem and Ramdas Pophale) SiO2 
 PCOD8270499
Probable space group: C M M M
;
_chemical_formula_sum "Si O2"
_cell_formula_units_Z 72
_cell_length_a 18.068958
_cell_length_b 8.962791
_cell_length_c 23.658214
_cell_angle_alpha 90.000000
_cell_angle_beta 90.000000
_cell_angle_gamma 90.000000
_cell_volume 3831.407400
_symmetry_space_group_name_H-M "C M M M"
_symmetry_group_IT_number 65
_symmetry_cell_setting 'orthorhombic'
loop_
_space_group_symop_operation_xyz
x,y,z
-x,-y,z
x,-y,-z
-x,y,-z
-x,-y,-z
x,y,-z
-x,y,z
x,-y,z
1/2+x,1/2+y,z
1/2-x,1/2-y,z
1/2+x,1/2-y,-z
1/2-x,1/2+y,-z
1/2-x,1/2-y,-z
1/2+x,1/2+y,-z
1/2-x,1/2+y,z
1/2+x,1/2-y,z
loop_
_atom_site_type_symbol
_atom_site_label
_atom_site_fract_x
_atom_site_fract_y
_atom_site_fract_z
Si Si1 0.829542 0.675797 0.000000
Si Si2 0.416561 0.678898 0.319088
Si Si3 0.413759 0.672071 0.099936
Si Si4 0.172613 0.825811 0.212465
Si Si5 0.412051 0.332643 0.440190
O O1 0.750000 0.750000 0.000000
O O2 0.873862 0.722780 0.055416
O O3 0.818913 0.500000 0.000000
O O4 0.500000 0.736378 0.307369
O O5 0.416988 0.500000 0.320037
O O6 0.363167 0.740081 0.269945
O O7 0.386273 0.740958 0.380415
O O8 0.500000 0.709417 0.099411
O O9 0.398990 0.500000 0.083671
O O10 0.383434 0.709176 0.161870
O O11 0.250000 0.750000 0.199236
O O12 0.186904 0.000000 0.218866
O O13 0.387461 0.251811 0.500000
O O14 0.500000 0.337897 0.437324
O O15 0.380579 0.500000 0.442731
#
# Coordination Sequence:
#
# PCOD8270499 Si02
#       5
#     8  16  16  16  16
#     4  12  25  40  59  83 111 141 171 202 241 290
#     4   8  13  23  41  64  89 119 158 201 242 287
#     4  10  21  38  59  81 105 133 167 208 253 299
#     4  10  20  33  50  72  98 130 165 201 244 293
#     4   7   9  14  28  54  86 115 145 189 243 288
#
# _framework density 18.792048999999999
#
# number of rings (size 3 to 8) (size 9 to 14) (size 15 to 20)
#    0.000    2.889    0.000    4.667    0.000    7.111 
#    0.000    0.000    0.000    2.667    0.000    0.000 
#    0.000    0.000    0.000    5.556    0.000    4.444 
#
# Total GULP energy -445974.568904 kJ/mol
# GULP energy per Si atom -12388.182470 kJ/mol
# Density = 1.874928 g / cm^3
# Si number density = 18.792049 Si / 1000 Ang^3
#
#
#
# Elastic Constant Matrix: (Units=GPa)
#
#
# Indices 1 2 3 4 5 6 
#
# 1 104.5566 38.7064 60.9247 0.0000 0.0000 0.0000
# 2 38.7064 47.6492 50.0310 0.0000 0.0000 0.0000
# 3 60.9247 50.0310 167.1721 0.0000 0.0000 0.0000
# 4 0.0000 0.0000 0.0000 -14.1855 0.0000 0.0000
# 5 0.0000 0.0000 0.0000 0.0000 211.2776 0.0000
# 6 0.0000 0.0000 0.0000 0.0000 0.0000 19.3748
#
#
#
# Elastic Compliance Matrix: (Units=1/GPa)
#
#
# Indices 1 2 3 4 5 6 
#
# 1 0.014383 -0.009012 -0.002545 0.000000 0.000000 0.000000
# 2 -0.009012 0.036250 -0.007565 0.000000 0.000000 0.000000
# 3 -0.002545 -0.007565 0.009173 0.000000 0.000000 0.000000
# 4 0.000000 0.000000 0.000000 -0.070495 0.000000 0.000000
# 5 0.000000 0.000000 0.000000 0.000000 0.004733 0.000000
# 6 0.000000 0.000000 0.000000 0.000000 0.000000 0.051613
#
#
# Mechanical properties :
#
#
# Convention : Reuss Voigt Hill
#
# Bulk Modulus (GPa) = 46.37355 68.74468 57.55911
# Shear Modulus (GPa) = 54.89184 54.60776 54.74980
#
# Velocity S-wave (km/s) = 5.41050 5.39649 5.40350
# Velocity P-wave (km/s) = 7.98512 8.68853 8.34424
#
# Compressibility (1/GPa) = 0.02156402
#
# Stress axis : x y z
#
# Youngs Moduli (GPa) = 69.52571 27.58637 109.01315
#
# Poissons Ratio (x) = 0.24860 0.27742
# Poissons Ratio (y) = 0.62655 0.82463
# Poissons Ratio (z) = 0.17693 0.20868
#
# Static dielectric constant tensor:
#      x y z
#    x 3.273680 0.000000 0.000000 
#    y 0.000000 2.919840 0.000000 
#    z 0.000000 0.000000 4.156450 
# 
# 
# High freq. dielectric constant tensor:
#      x y z
#    x 1.706930 0.000000 0.000000 
#    y 0.000000 1.667480 0.000000 
#    z 0.000000 0.000000 1.765430 
# 
# From -- ./inp_files/67142.got.cif
#   From: 2010.03.12/outbox.cif.g09.slc.cpg/sg65_34_cif.got.tgz:67142.got - 2010.04.10 20:52:16.
