data_PCOD8270326
_publ_section_title
;
Structure prediction by ZEFSAII (Michael W. Deem and Ramdas Pophale) SiO2 
 PCOD8270326
Probable space group: C M M M
;
_chemical_formula_sum "Si O2"
_cell_formula_units_Z 120
_cell_length_a 8.841209
_cell_length_b 28.420783
_cell_length_c 28.179133
_cell_angle_alpha 90.000000
_cell_angle_beta 90.000000
_cell_angle_gamma 90.000000
_cell_volume 7080.685789
_symmetry_space_group_name_H-M "C M M M"
_symmetry_group_IT_number 65
_symmetry_cell_setting 'orthorhombic'
loop_
_space_group_symop_operation_xyz
x,y,z
-x,-y,z
x,-y,-z
-x,y,-z
-x,-y,-z
x,y,-z
-x,y,z
x,-y,z
1/2+x,1/2+y,z
1/2-x,1/2-y,z
1/2+x,1/2-y,-z
1/2-x,1/2+y,-z
1/2-x,1/2-y,-z
1/2+x,1/2+y,-z
1/2-x,1/2+y,z
1/2+x,1/2-y,z
loop_
_atom_site_type_symbol
_atom_site_label
_atom_site_fract_x
_atom_site_fract_y
_atom_site_fract_z
Si Si1 0.829268 0.556144 0.500000
Si Si2 0.670178 0.555963 0.594511
Si Si3 0.675250 0.944871 0.863689
Si Si4 0.324331 0.798619 0.198362
Si Si5 0.326398 0.608581 0.054149
Si Si6 0.178360 0.107662 0.223775
Si Si7 0.676129 0.201292 0.087521
Si Si8 0.326674 0.944316 0.690211
O O1 0.827697 0.500000 0.500000
O O2 0.745186 0.575971 0.546551
O O3 0.000000 0.575229 0.500000
O O4 0.500000 0.575667 0.598717
O O5 0.668776 0.500000 0.592729
O O6 0.767709 0.573460 0.639249
O O7 0.500000 0.930735 0.859906
O O8 0.737004 0.929372 0.914690
O O9 0.763924 0.918229 0.822909
O O10 0.700156 0.000000 0.857238
O O11 0.500000 0.796574 0.210509
O O12 0.250000 0.750000 0.214972
O O13 0.248301 0.840453 0.227819
O O14 0.294508 0.807799 0.142938
O O15 0.500000 0.610764 0.070890
O O16 0.254663 0.660036 0.058466
O O17 0.313119 0.591642 0.000000
O O18 0.224361 0.078543 0.269724
O O19 0.000000 0.111838 0.220962
O O20 0.500000 0.202704 0.075224
O O21 0.750000 0.250000 0.070924
O O22 0.500000 0.928596 0.696491
O O23 0.309804 0.000000 0.694885
#
# Coordination Sequence:
#
# PCOD8270326 Si02
#       8
#     8  16  16  16  16  16  16  16
#     4   9  15  23  37  57  83 121 168 213 258 305
#     4   9  16  26  40  60  88 123 167 216 261 303
#     4  11  24  41  59  78 100 129 166 205 245 291
#     4  10  20  35  56  81 106 131 161 196 238 290
#     4  11  24  40  58  80 105 131 161 199 243 291
#     4  12  23  35  55  79 104 133 165 203 248 296
#     4  10  20  35  58  82 107 134 160 193 236 288
#     4  10  20  33  48  68  98 135 174 216 258 300
#
# _framework density 16.947510999999999
#
# number of rings (size 3 to 8) (size 9 to 14) (size 15 to 20)
#    0.000    1.667    1.333    4.200    0.000    8.533 
#    0.000    1.333    0.000    0.000    0.000    0.000 
#    0.000    0.000    0.000    0.600    0.000    8.467 
#
# Total GULP energy -744267.733101 kJ/mol
# GULP energy per Si atom -12404.462218 kJ/mol
# Density = 1.690894 g / cm^3
# Si number density = 16.947511 Si / 1000 Ang^3
#
#
#
# Elastic Constant Matrix: (Units=GPa)
#
#
# Indices 1 2 3 4 5 6 
#
# 1 130.3224 44.4929 40.8357 0.0000 0.0000 0.0000
# 2 44.4929 55.0796 28.8675 0.0000 0.0000 0.0000
# 3 40.8357 28.8675 87.0984 0.0000 0.0000 0.0000
# 4 0.0000 0.0000 0.0000 0.8209 0.0000 0.0000
# 5 0.0000 0.0000 0.0000 0.0000 31.4664 0.0000
# 6 0.0000 0.0000 0.0000 0.0000 0.0000 28.0199
#
#
#
# Elastic Compliance Matrix: (Units=1/GPa)
#
#
# Indices 1 2 3 4 5 6 
#
# 1 0.011097 -0.007548 -0.002701 0.000000 0.000000 0.000000
# 2 -0.007548 0.027107 -0.005445 0.000000 0.000000 0.000000
# 3 -0.002701 -0.005445 0.014552 0.000000 0.000000 0.000000
# 4 0.000000 0.000000 0.000000 1.218181 0.000000 0.000000
# 5 0.000000 0.000000 0.000000 0.000000 0.031780 0.000000
# 6 0.000000 0.000000 0.000000 0.000000 0.000000 0.035689
#
#
# Mechanical properties :
#
#
# Convention : Reuss Voigt Hill
#
# Bulk Modulus (GPa) = 46.80088 55.65475 51.22781
# Shear Modulus (GPa) = 3.63130 22.61508 13.12319
#
# Velocity S-wave (km/s) = 1.46538 3.65693 2.78572
# Velocity P-wave (km/s) = 5.52614 7.12332 6.37495
#
# Compressibility (1/GPa) = 0.02136712
#
# Stress axis : x y z
#
# Youngs Moduli (GPa) = 90.11792 36.89115 68.71781
#
# Poissons Ratio (x) = 0.27846 0.18560
# Poissons Ratio (y) = 0.68023 0.37418
# Poissons Ratio (z) = 0.24339 0.20088
#
# Static dielectric constant tensor:
#      x y z
#    x 3.405020 0.000000 0.000000 
#    y 0.000000 2.987750 0.000000 
#    z 0.000000 0.000000 3.163150 
# 
# 
# High freq. dielectric constant tensor:
#      x y z
#    x 1.677740 0.000000 0.000000 
#    y 0.000000 1.621280 0.000000 
#    z 0.000000 0.000000 1.644050 
# 
# From -- ./inp_files/73899.got.cif
#   From: 2010.03.12/outbox.cif.g09.slc.cpg/sg65_37_cif.got.tgz:73899.got - 2010.04.10 20:52:16.
