data_PCOD8270207
_publ_section_title
;
Structure prediction by ZEFSAII (Michael W. Deem and Ramdas Pophale) SiO2 
 PCOD8270207
Probable space group: C M M M
;
_chemical_formula_sum "Si O2"
_cell_formula_units_Z 104
_cell_length_a 8.744458
_cell_length_b 28.978088
_cell_length_c 20.774959
_cell_angle_alpha 90.000000
_cell_angle_beta 90.000000
_cell_angle_gamma 90.000000
_cell_volume 5264.326276
_symmetry_space_group_name_H-M "C M M M"
_symmetry_group_IT_number 65
_symmetry_cell_setting 'orthorhombic'
loop_
_space_group_symop_operation_xyz
x,y,z
-x,-y,z
x,-y,-z
-x,y,-z
-x,-y,-z
x,y,-z
-x,y,z
x,-y,z
1/2+x,1/2+y,z
1/2-x,1/2-y,z
1/2+x,1/2-y,-z
1/2-x,1/2+y,-z
1/2-x,1/2-y,-z
1/2+x,1/2+y,-z
1/2-x,1/2+y,z
1/2+x,1/2-y,z
loop_
_atom_site_type_symbol
_atom_site_label
_atom_site_fract_x
_atom_site_fract_y
_atom_site_fract_z
Si Si1 0.673396 0.053639 0.233824
Si Si2 0.678680 0.607847 0.122478
Si Si3 0.179894 0.298326 0.680855
Si Si4 0.183094 0.053170 0.000000
Si Si5 0.675541 0.643153 0.572095
Si Si6 0.318318 0.700970 0.182168
Si Si7 0.673525 0.448941 0.365322
O O1 0.500000 0.069698 0.222268
O O2 0.783533 0.081152 0.187208
O O3 0.716918 0.065216 0.306810
O O4 0.695832 0.000000 0.219190
O O5 0.500000 0.607073 0.112103
O O6 0.730982 0.661480 0.130555
O O7 0.751528 0.581203 0.061342
O O8 0.250000 0.250000 0.658664
O O9 0.214696 0.333848 0.624075
O O10 0.254142 0.314160 0.748177
O O11 0.000000 0.293726 0.691064
O O12 0.000000 0.052561 0.000000
O O13 0.243281 0.000000 0.000000
O O14 0.724798 0.657614 0.500000
O O15 0.500000 0.657684 0.585252
O O16 0.694975 0.587802 0.577634
O O17 0.500000 0.705389 0.187613
O O18 0.250000 0.750000 0.159498
O O19 0.500000 0.448205 0.339128
O O20 0.715436 0.500000 0.391762
#
# Coordination Sequence:
#
# PCOD8270207 Si02
#       7
#    16  16  16   8  16  16  16
#     4  10  20  32  49  76 107 137 171 215 267 318
#     4  10  20  34  55  80 106 140 180 220 259 304
#     4  11  22  37  58  81 106 136 172 216 266 318
#     4   9  18  34  56  81 109 143 183 221 256 299
#     4  10  21  36  53  75 105 139 175 216 262 314
#     4  10  20  35  56  82 109 136 172 217 265 314
#     4   9  18  33  53  76 102 135 176 219 262 310
#
# _framework density 19.755614999999999
#
# number of rings (size 3 to 8) (size 9 to 14) (size 15 to 20)
#    0.000    2.077    0.000    4.615    0.000    8.000 
#    0.000    2.308    0.000    1.385    0.000    3.231 
#    0.000    0.000    0.000    0.000    0.000    0.000 
#
# Total GULP energy -644683.158451 kJ/mol
# GULP energy per Si atom -12397.753047 kJ/mol
# Density = 1.971065 g / cm^3
# Si number density = 19.755615 Si / 1000 Ang^3
#
#
#
# Elastic Constant Matrix: (Units=GPa)
#
#
# Indices 1 2 3 4 5 6 
#
# 1 48.3509 38.3466 26.3273 0.0000 0.0000 0.0000
# 2 38.3466 117.7125 73.9676 0.0000 0.0000 0.0000
# 3 26.3273 73.9676 76.0437 0.0000 0.0000 0.0000
# 4 0.0000 0.0000 0.0000 42.1663 0.0000 0.0000
# 5 0.0000 0.0000 0.0000 0.0000 8.5397 0.0000
# 6 0.0000 0.0000 0.0000 0.0000 0.0000 27.7177
#
#
#
# Elastic Compliance Matrix: (Units=1/GPa)
#
#
# Indices 1 2 3 4 5 6 
#
# 1 0.028019 -0.007799 -0.002115 0.000000 0.000000 0.000000
# 2 -0.007799 0.024022 -0.020666 0.000000 0.000000 0.000000
# 3 -0.002115 -0.020666 0.033984 0.000000 0.000000 0.000000
# 4 0.000000 0.000000 0.000000 0.023716 0.000000 0.000000
# 5 0.000000 0.000000 0.000000 0.000000 0.117101 0.000000
# 6 0.000000 0.000000 0.000000 0.000000 0.000000 0.036078
#
#
# Mechanical properties :
#
#
# Convention : Reuss Voigt Hill
#
# Bulk Modulus (GPa) = 40.21548 57.71003 48.96275
# Shear Modulus (GPa) = 15.04366 22.58245 18.81305
#
# Velocity S-wave (km/s) = 2.76250 3.38463 3.08927
# Velocity P-wave (km/s) = 5.52955 6.67455 6.12885
#
# Compressibility (1/GPa) = 0.02486605
#
# Stress axis : x y z
#
# Youngs Moduli (GPa) = 35.69053 41.62889 29.42547
#
# Poissons Ratio (x) = 0.32465 0.06222
# Poissons Ratio (y) = 0.27834 0.60810
# Poissons Ratio (z) = 0.07547 0.86030
#
# Static dielectric constant tensor:
#      x y z
#    x 3.486020 0.000000 0.000000 
#    y 0.000000 3.215720 0.000000 
#    z 0.000000 0.000000 3.480710 
# 
# 
# High freq. dielectric constant tensor:
#      x y z
#    x 1.756300 0.000000 0.000000 
#    y 0.000000 1.783970 0.000000 
#    z 0.000000 0.000000 1.750970 
# 
# From -- ./inp_files/60843.got.cif
#   From: 2010.03.12/outbox.cif.g09.slc.cpg/sg65_31_cif.got.tgz:60843.got - 2010.04.10 20:52:16.
