data_PCOD8270369
_publ_section_title
;
Structure prediction by ZEFSAII (Michael W. Deem and Ramdas Pophale) SiO2 
 PCOD8270369
Probable space group: C M M M
;
_chemical_formula_sum "Si O2"
_cell_formula_units_Z 88
_cell_length_a 18.643934
_cell_length_b 8.980722
_cell_length_c 28.899045
_cell_angle_alpha 90.000000
_cell_angle_beta 90.000000
_cell_angle_gamma 90.000000
_cell_volume 4838.740159
_symmetry_space_group_name_H-M "C M M M"
_symmetry_group_IT_number 65
_symmetry_cell_setting 'orthorhombic'
loop_
_space_group_symop_operation_xyz
x,y,z
-x,-y,z
x,-y,-z
-x,y,-z
-x,-y,-z
x,y,-z
-x,y,z
x,-y,z
1/2+x,1/2+y,z
1/2-x,1/2-y,z
1/2+x,1/2-y,-z
1/2-x,1/2+y,-z
1/2-x,1/2-y,-z
1/2+x,1/2+y,-z
1/2-x,1/2+y,z
1/2+x,1/2-y,z
loop_
_atom_site_type_symbol
_atom_site_label
_atom_site_fract_x
_atom_site_fract_y
_atom_site_fract_z
Si Si1 0.326756 0.326599 0.761058
Si Si2 0.085439 0.168096 0.591168
Si Si3 0.672603 0.173965 0.050254
Si Si4 0.673535 0.672481 0.863479
Si Si5 0.084948 0.329650 0.683140
Si Si6 0.585572 0.168221 0.500000
O O1 0.316611 0.500000 0.749998
O O2 0.250000 0.250000 0.755338
O O3 0.360720 0.304118 0.812637
O O4 0.383454 0.256164 0.726596
O O5 0.114067 0.255593 0.636001
O O6 0.115500 0.248502 0.545356
O O7 0.000000 0.168987 0.590365
O O8 0.115012 0.000000 0.592525
O O9 0.750000 0.250000 0.048460
O O10 0.629688 0.249083 0.093811
O O11 0.681102 0.000000 0.059960
O O12 0.634501 0.200665 0.000000
O O13 0.681994 0.500000 0.875297
O O14 0.750000 0.750000 0.861164
O O15 0.110449 0.500000 0.683768
O O16 0.000000 0.316185 0.686147
O O17 0.500000 0.169405 0.500000
O O18 0.614745 0.000000 0.500000
#
# Coordination Sequence:
#
# PCOD8270369 Si02
#       6
#    16  16  16  16  16   8
#     4  10  20  33  49  69  93 123 159 196 234 277
#     4   9  16  26  41  62  89 120 152 187 229 275
#     4   9  15  21  31  49  74 105 139 174 215 263
#     4   9  16  25  38  56  79 109 144 181 221 265
#     4  10  20  33  49  70  96 125 157 194 236 279
#     4   9  15  23  37  59  88 119 150 185 226 273
#
# _framework density 18.186551999999999
#
# number of rings (size 3 to 8) (size 9 to 14) (size 15 to 20)
#    0.000    2.636    0.000    4.091    0.000    7.636 
#    0.000    0.000    0.000    0.000    0.000    0.636 
#    0.000    0.727    0.000    8.000    0.000    8.909 
#
# Total GULP energy -545186.874082 kJ/mol
# GULP energy per Si atom -12390.610775 kJ/mol
# Density = 1.814516 g / cm^3
# Si number density = 18.186552 Si / 1000 Ang^3
#
#
#
# Elastic Constant Matrix: (Units=GPa)
#
#
# Indices 1 2 3 4 5 6 
#
# 1 8.4236 16.3728 18.3556 0.0000 0.0000 0.0000
# 2 16.3728 174.0419 102.5530 0.0000 0.0000 0.0000
# 3 18.3556 102.5530 195.8933 0.0000 0.0000 0.0000
# 4 0.0000 0.0000 0.0000 41.1046 0.0000 0.0000
# 5 0.0000 0.0000 0.0000 0.0000 18.4547 0.0000
# 6 0.0000 0.0000 0.0000 0.0000 0.0000 15.4754
#
#
#
# Elastic Compliance Matrix: (Units=1/GPa)
#
#
# Indices 1 2 3 4 5 6 
#
# 1 0.158139 -0.008887 -0.010166 0.000000 0.000000 0.000000
# 2 -0.008887 0.008808 -0.003779 0.000000 0.000000 0.000000
# 3 -0.010166 -0.003779 0.008035 0.000000 0.000000 0.000000
# 4 0.000000 0.000000 0.000000 0.024328 0.000000 0.000000
# 5 0.000000 0.000000 0.000000 0.000000 0.054187 0.000000
# 6 0.000000 0.000000 0.000000 0.000000 0.000000 0.064619
#
#
# Mechanical properties :
#
#
# Convention : Reuss Voigt Hill
#
# Bulk Modulus (GPa) = 7.73268 72.54685 40.13977
# Shear Modulus (GPa) = 12.28847 31.07876 21.68361
#
# Velocity S-wave (km/s) = 2.60222 4.13835 3.45670
# Velocity P-wave (km/s) = 3.64553 7.92538 6.16853
#
# Compressibility (1/GPa) = 0.12932120
#
# Stress axis : x y z
#
# Youngs Moduli (GPa) = 6.32354 113.53011 124.44823
#
# Poissons Ratio (x) = 1.00892 1.26509
# Poissons Ratio (y) = 0.05620 0.47023
# Poissons Ratio (z) = 0.06428 0.42898
#
# Static dielectric constant tensor:
#      x y z
#    x 2.529170 0.000000 0.000000 
#    y 0.000000 3.647740 0.000000 
#    z 0.000000 0.000000 4.422810 
# 
# 
# High freq. dielectric constant tensor:
#      x y z
#    x 1.605990 0.000000 0.000000 
#    y 0.000000 1.728880 0.000000 
#    z 0.000000 0.000000 1.739030 
# 
# From -- ./inp_files/78108.got.cif
#   From: 2010.03.12/outbox.cif.g09.slc.cpg/sg65_40_cif.got.tgz:78108.got - 2010.04.10 20:52:16.
