data_PCOD8270210
_publ_section_title
;
Structure prediction by ZEFSAII (Michael W. Deem and Ramdas Pophale) SiO2 
 PCOD8270210
Probable space group: C M M M
;
_chemical_formula_sum "Si O2"
_cell_formula_units_Z 104
_cell_length_a 17.819594
_cell_length_b 21.965638
_cell_length_c 15.227700
_cell_angle_alpha 90.000000
_cell_angle_beta 90.000000
_cell_angle_gamma 90.000000
_cell_volume 5960.407316
_symmetry_space_group_name_H-M "C M M M"
_symmetry_group_IT_number 65
_symmetry_cell_setting 'orthorhombic'
loop_
_space_group_symop_operation_xyz
x,y,z
-x,-y,z
x,-y,-z
-x,y,-z
-x,-y,-z
x,y,-z
-x,y,z
x,-y,z
1/2+x,1/2+y,z
1/2-x,1/2-y,z
1/2+x,1/2-y,-z
1/2-x,1/2+y,-z
1/2-x,1/2-y,-z
1/2+x,1/2+y,-z
1/2-x,1/2+y,z
1/2+x,1/2-y,z
loop_
_atom_site_type_symbol
_atom_site_label
_atom_site_fract_x
_atom_site_fract_y
_atom_site_fract_z
Si Si1 0.216554 0.568999 0.600460
Si Si2 0.415299 0.122609 0.093177
Si Si3 0.836311 0.252832 0.903464
Si Si4 0.000000 0.932207 0.604006
Si Si5 0.084916 0.612018 0.718203
Si Si6 0.640957 0.646548 0.603879
Si Si7 0.413300 0.744178 0.730229
O O1 0.196342 0.582342 0.500000
O O2 0.245521 0.500000 0.612626
O O3 0.140635 0.578085 0.653993
O O4 0.281635 0.614435 0.632049
O O5 0.500000 0.150079 0.100745
O O6 0.356751 0.176763 0.089211
O O7 0.401446 0.084633 0.182775
O O8 0.407899 0.085200 0.000000
O O9 0.750000 0.250000 0.875782
O O10 0.885194 0.221510 0.826374
O O11 0.849793 0.221847 0.000000
O O12 0.926075 0.897075 0.635859
O O13 0.000000 0.936879 0.500000
O O14 0.000000 0.000000 0.645088
O O15 0.100831 0.684126 0.718952
O O16 0.000000 0.598553 0.686775
O O17 0.637351 0.659383 0.500000
O O18 0.634107 0.710485 0.654424
O O19 0.500000 0.727032 0.719639
#
# Coordination Sequence:
#
# PCOD8270210 Si02
#       7
#    16  16  16   8  16  16  16
#     4  10  22  38  53  70  93 127 174 217 249 288
#     4   8  14  27  46  67  94 127 159 192 236 288
#     4   9  17  27  43  69 100 135 169 200 235 284
#     4   9  16  30  52  72  93 127 170 214 253 286
#     4   9  19  33  51  75 101 132 163 199 248 300
#     4  10  20  33  50  73 101 133 166 207 254 298
#     4  10  20  32  49  76 108 136 162 197 248 309
#
# _framework density 17.448473
#
# number of rings (size 3 to 8) (size 9 to 14) (size 15 to 20)
#    0.000    2.692    0.769    1.846    4.308    4.000 
#    0.000    3.846    0.000    0.462    0.000    2.154 
#    0.000    2.462    0.000    0.000    0.000    0.000 
#
# Total GULP energy -644352.763892 kJ/mol
# GULP energy per Si atom -12391.399306 kJ/mol
# Density = 1.740876 g / cm^3
# Si number density = 17.448473 Si / 1000 Ang^3
#
#
#
# Elastic Constant Matrix: (Units=GPa)
#
#
# Indices 1 2 3 4 5 6 
#
# 1 84.2329 11.4652 40.5323 0.0000 0.0000 0.0000
# 2 11.4652 31.0958 24.7249 0.0000 0.0000 0.0000
# 3 40.5323 24.7249 91.7224 0.0000 0.0000 0.0000
# 4 0.0000 0.0000 0.0000 6.2580 0.0000 0.0000
# 5 0.0000 0.0000 0.0000 0.0000 28.0183 0.0000
# 6 0.0000 0.0000 0.0000 0.0000 0.0000 21.5072
#
#
#
# Elastic Compliance Matrix: (Units=1/GPa)
#
#
# Indices 1 2 3 4 5 6 
#
# 1 0.015081 -0.000333 -0.006574 0.000000 0.000000 0.000000
# 2 -0.000333 0.040939 -0.010889 0.000000 0.000000 0.000000
# 3 -0.006574 -0.010889 0.016743 0.000000 0.000000 0.000000
# 4 0.000000 0.000000 0.000000 0.159796 0.000000 0.000000
# 5 0.000000 0.000000 0.000000 0.000000 0.035691 0.000000
# 6 0.000000 0.000000 0.000000 0.000000 0.000000 0.046496
#
#
# Mechanical properties :
#
#
# Convention : Reuss Voigt Hill
#
# Bulk Modulus (GPa) = 26.90273 40.05511 33.47892
# Shear Modulus (GPa) = 13.78443 19.84527 16.81485
#
# Velocity S-wave (km/s) = 2.81376 3.37614 3.10770
# Velocity P-wave (km/s) = 5.09982 6.18093 5.66622
#
# Compressibility (1/GPa) = 0.03717094
#
# Stress axis : x y z
#
# Youngs Moduli (GPa) = 66.30974 24.42652 59.72694
#
# Poissons Ratio (x) = 0.00813 0.39267
# Poissons Ratio (y) = 0.02207 0.65034
# Poissons Ratio (z) = 0.43595 0.26597
#
# Static dielectric constant tensor:
#      x y z
#    x 3.286240 0.000000 0.000000 
#    y 0.000000 2.903350 0.000000 
#    z 0.000000 0.000000 3.545160 
# 
# 
# High freq. dielectric constant tensor:
#      x y z
#    x 1.681330 0.000000 0.000000 
#    y 0.000000 1.632790 0.000000 
#    z 0.000000 0.000000 1.678830 
# 
# From -- ./inp_files/43074.got.cif
#   From: 2010.03.12/outbox.cif.g09.slc.cpg/sg65_22_cif.got.tgz:43074.got - 2010.04.10 20:52:16.
