data_PCOD8270186
_publ_section_title
;
Structure prediction by ZEFSAII (Michael W. Deem and Ramdas Pophale) SiO2 
 PCOD8270186
Probable space group: C M M M
;
_chemical_formula_sum "Si O2"
_cell_formula_units_Z 128
_cell_length_a 10.265370
_cell_length_b 26.653252
_cell_length_c 25.490395
_cell_angle_alpha 90.000000
_cell_angle_beta 90.000000
_cell_angle_gamma 90.000000
_cell_volume 6974.312103
_symmetry_space_group_name_H-M "C M M M"
_symmetry_group_IT_number 65
_symmetry_cell_setting 'orthorhombic'
loop_
_space_group_symop_operation_xyz
x,y,z
-x,-y,z
x,-y,-z
-x,y,-z
-x,-y,-z
x,y,-z
-x,y,z
x,-y,z
1/2+x,1/2+y,z
1/2-x,1/2-y,z
1/2+x,1/2-y,-z
1/2-x,1/2+y,-z
1/2-x,1/2-y,-z
1/2+x,1/2+y,-z
1/2-x,1/2+y,z
1/2+x,1/2-y,z
loop_
_atom_site_type_symbol
_atom_site_label
_atom_site_fract_x
_atom_site_fract_y
_atom_site_fract_z
Si Si1 0.649068 0.126677 0.646300
Si Si2 0.351218 0.600127 0.197349
Si Si3 0.356665 0.866807 0.942785
Si Si4 0.349372 0.557044 0.909447
Si Si5 0.286635 0.806678 0.841728
Si Si6 0.148635 0.707672 0.560479
Si Si7 0.860158 0.291227 0.730990
Si Si8 0.348445 0.440636 0.693899
O O1 0.500000 0.106386 0.648260
O O2 0.673576 0.157144 0.592872
O O3 0.679630 0.161933 0.695919
O O4 0.754326 0.081513 0.648314
O O5 0.500000 0.590715 0.207977
O O6 0.304164 0.563151 0.150984
O O7 0.331048 0.657736 0.178658
O O8 0.288111 0.583068 0.252248
O O9 0.500000 0.891985 0.937430
O O10 0.244901 0.908794 0.943936
O O11 0.345983 0.827361 0.895490
O O12 0.346121 0.839609 0.000000
O O13 0.500000 0.574481 0.916734
O O14 0.332578 0.500000 0.927582
O O15 0.250000 0.750000 0.854980
O O16 0.382410 0.807383 0.791715
O O17 0.174608 0.694410 0.500000
O O18 0.250000 0.750000 0.580047
O O19 0.000000 0.726910 0.569264
O O20 0.750000 0.250000 0.725424
O O21 0.000000 0.269842 0.711268
O O22 0.500000 0.426033 0.683295
O O23 0.332297 0.500000 0.695621
#
# Coordination Sequence:
#
# PCOD8270186 Si02
#       8
#    16  16  16  16  16  16  16  16
#     4  10  20  34  51  77 111 143 177 217 261 310
#     4   9  17  32  53  77 104 134 167 206 256 312
#     4  10  22  38  53  72 102 137 171 211 258 307
#     4   9  18  34  57  81 102 127 165 213 261 309
#     4  10  20  34  54  76 101 133 170 211 250 307
#     4   9  18  33  54  80 112 149 187 225 265 310
#     4  10  20  32  49  75 105 136 167 206 253 305
#     4  10  20  34  53  77 106 140 178 218 263 316
#
# _framework density 18.353065000000001
#
# number of rings (size 3 to 8) (size 9 to 14) (size 15 to 20)
#    0.000    2.375    1.250    1.125    0.000    6.250 
#    0.000    1.250    0.000    1.875    0.000    2.625 
#    0.000    0.000    0.000    0.000    0.000    0.000 
#
# Total GULP energy -792889.540801 kJ/mol
# GULP energy per Si atom -12388.899075 kJ/mol
# Density = 1.831129 g / cm^3
# Si number density = 18.353065 Si / 1000 Ang^3
#
#
#
# Elastic Constant Matrix: (Units=GPa)
#
#
# Indices 1 2 3 4 5 6 
#
# 1 84.7567 46.3213 42.5197 0.0000 0.0000 0.0000
# 2 46.3213 90.5751 40.5263 0.0000 0.0000 0.0000
# 3 42.5197 40.5263 81.4457 0.0000 0.0000 0.0000
# 4 0.0000 0.0000 0.0000 17.4266 0.0000 0.0000
# 5 0.0000 0.0000 0.0000 0.0000 42.2902 0.0000
# 6 0.0000 0.0000 0.0000 0.0000 0.0000 26.1053
#
#
#
# Elastic Compliance Matrix: (Units=1/GPa)
#
#
# Indices 1 2 3 4 5 6 
#
# 1 0.018669 -0.006672 -0.006426 0.000000 0.000000 0.000000
# 2 -0.006672 0.016587 -0.004770 0.000000 0.000000 0.000000
# 3 -0.006426 -0.004770 0.018007 0.000000 0.000000 0.000000
# 4 0.000000 0.000000 0.000000 0.057384 0.000000 0.000000
# 5 0.000000 0.000000 0.000000 0.000000 0.023646 0.000000
# 6 0.000000 0.000000 0.000000 0.000000 0.000000 0.038306
#
#
# Mechanical properties :
#
#
# Convention : Reuss Voigt Hill
#
# Bulk Modulus (GPa) = 57.06071 57.27914 57.16992
# Shear Modulus (GPa) = 23.34506 25.65841 24.50174
#
# Velocity S-wave (km/s) = 3.57038 3.74310 3.65776
# Velocity P-wave (km/s) = 6.93937 7.06813 7.00404
#
# Compressibility (1/GPa) = 0.01752519
#
# Stress axis : x y z
#
# Youngs Moduli (GPa) = 53.56524 60.28756 55.53490
#
# Poissons Ratio (x) = 0.40225 0.35688
# Poissons Ratio (y) = 0.35739 0.26492
# Poissons Ratio (z) = 0.34423 0.28759
#
# Static dielectric constant tensor:
#      x y z
#    x 3.436540 0.000000 0.000000 
#    y 0.000000 3.171980 0.000000 
#    z 0.000000 0.000000 3.510110 
# 
# 
# High freq. dielectric constant tensor:
#      x y z
#    x 1.712280 0.000000 0.000000 
#    y 0.000000 1.687780 0.000000 
#    z 0.000000 0.000000 1.712150 
# 
# From -- ./inp_files/69283.got.cif
#   From: 2010.03.12/outbox.cif.g09.slc.cpg/sg65_35_cif.got.tgz:69283.got - 2010.04.10 20:52:16.
