data_PCOD8270342
_publ_section_title
;
Structure prediction by ZEFSAII (Michael W. Deem and Ramdas Pophale) SiO2 
 PCOD8270342
Probable space group: C M M M
;
_chemical_formula_sum "Si O2"
_cell_formula_units_Z 72
_cell_length_a 17.527719
_cell_length_b 20.607492
_cell_length_c 11.623803
_cell_angle_alpha 90.000000
_cell_angle_beta 90.000000
_cell_angle_gamma 90.000000
_cell_volume 4198.544716
_symmetry_space_group_name_H-M "C M M M"
_symmetry_group_IT_number 65
_symmetry_cell_setting 'orthorhombic'
loop_
_space_group_symop_operation_xyz
x,y,z
-x,-y,z
x,-y,-z
-x,y,-z
-x,-y,-z
x,y,-z
-x,y,z
x,-y,z
1/2+x,1/2+y,z
1/2-x,1/2-y,z
1/2+x,1/2-y,-z
1/2-x,1/2+y,-z
1/2-x,1/2-y,-z
1/2+x,1/2+y,-z
1/2-x,1/2+y,z
1/2+x,1/2-y,z
loop_
_atom_site_type_symbol
_atom_site_label
_atom_site_fract_x
_atom_site_fract_y
_atom_site_fract_z
Si Si1 0.909544 0.572658 0.500000
Si Si2 0.852342 0.500000 0.863844
Si Si3 0.339952 0.243878 0.869043
Si Si4 0.586121 0.376857 0.863148
Si Si5 0.411187 0.875052 0.742291
Si Si6 0.321066 0.500000 0.862814
O O1 0.874358 0.500000 0.500000
O O2 0.882109 0.611000 0.387052
O O3 0.000000 0.566468 0.500000
O O4 0.896962 0.437339 0.820752
O O5 0.765493 0.500000 0.817223
O O6 0.853130 0.500000 0.000000
O O7 0.250000 0.250000 0.864262
O O8 0.377781 0.309462 0.820178
O O9 0.364005 0.185221 0.788630
O O10 0.367084 0.230375 0.000000
O O11 0.500000 0.383076 0.816086
O O12 0.636038 0.436384 0.814133
O O13 0.587143 0.379077 0.000000
O O14 0.500000 0.857403 0.745581
O O15 0.322588 0.500000 0.000000
#
# Coordination Sequence:
#
# PCOD8270342 Si02
#       6
#     8   8  16  16  16   8
#     4   9  18  36  55  72  96 131 172 217 264 298
#     4  11  21  30  45  73 105 133 160 198 252 313
#     4  10  20  33  48  71 107 142 166 201 259 314
#     4   9  16  27  44  65  91 127 170 206 236 284
#     4  11  21  34  53  74  99 132 174 214 251 304
#     4   9  17  29  44  65  95 130 164 199 244 295
#
# _framework density 17.148800000000001
#
# number of rings (size 3 to 8) (size 9 to 14) (size 15 to 20)
#    0.000    2.111    1.111    3.333    0.000    8.000 
#    0.000    0.556    0.000    0.000    0.000    0.000 
#    0.000    0.000    0.000   14.000    0.000    4.444 
#
# Total GULP energy -446445.453591 kJ/mol
# GULP energy per Si atom -12401.262600 kJ/mol
# Density = 1.710977 g / cm^3
# Si number density = 17.148800 Si / 1000 Ang^3
#
#
#
# Elastic Constant Matrix: (Units=GPa)
#
#
# Indices 1 2 3 4 5 6 
#
# 1 54.7260 20.3986 23.4218 0.0000 0.0000 0.0000
# 2 20.3986 134.0377 48.4404 0.0000 0.0000 0.0000
# 3 23.4218 48.4404 78.5056 0.0000 0.0000 0.0000
# 4 0.0000 0.0000 0.0000 10.7214 0.0000 0.0000
# 5 0.0000 0.0000 0.0000 0.0000 10.1635 0.0000
# 6 0.0000 0.0000 0.0000 0.0000 0.0000 32.8152
#
#
#
# Elastic Compliance Matrix: (Units=1/GPa)
#
#
# Indices 1 2 3 4 5 6 
#
# 1 0.021098 -0.001205 -0.005551 0.000000 0.000000 0.000000
# 2 -0.001205 0.009670 -0.005608 0.000000 0.000000 0.000000
# 3 -0.005551 -0.005608 0.017854 0.000000 0.000000 0.000000
# 4 0.000000 0.000000 0.000000 0.093272 0.000000 0.000000
# 5 0.000000 0.000000 0.000000 0.000000 0.098391 0.000000
# 6 0.000000 0.000000 0.000000 0.000000 0.000000 0.030474
#
#
# Mechanical properties :
#
#
# Convention : Reuss Voigt Hill
#
# Bulk Modulus (GPa) = 41.84865 50.19900 46.02382
# Shear Modulus (GPa) = 16.47714 22.40726 19.44220
#
# Velocity S-wave (km/s) = 3.10309 3.61866 3.37075
# Velocity P-wave (km/s) = 6.10698 6.84075 6.48425
#
# Compressibility (1/GPa) = 0.02389563
#
# Stress axis : x y z
#
# Youngs Moduli (GPa) = 47.39866 103.40766 56.00939
#
# Poissons Ratio (x) = 0.12457 0.31091
# Poissons Ratio (y) = 0.05710 0.31408
# Poissons Ratio (z) = 0.26311 0.57987
#
# Static dielectric constant tensor:
#      x y z
#    x 3.278740 0.000000 0.000000 
#    y 0.000000 3.596400 0.000000 
#    z 0.000000 0.000000 2.948970 
# 
# 
# High freq. dielectric constant tensor:
#      x y z
#    x 1.666100 0.000000 0.000000 
#    y 0.000000 1.676930 0.000000 
#    z 0.000000 0.000000 1.611270 
# 
# From -- ./inp_files/26574.got.cif
#   From: 2010.03.12/outbox.cif.g09.slc.cpg/sg65_14_cif.got.tgz:26574.got - 2010.04.10 20:52:16.
