data_PCOD8270474
_publ_section_title
;
Structure prediction by ZEFSAII (Michael W. Deem and Ramdas Pophale) SiO2 
 PCOD8270474
Probable space group: C M M M
;
_chemical_formula_sum "Si O2"
_cell_formula_units_Z 88
_cell_length_a 9.223276
_cell_length_b 19.354754
_cell_length_c 28.924458
_cell_angle_alpha 90.000000
_cell_angle_beta 90.000000
_cell_angle_gamma 90.000000
_cell_volume 5163.427581
_symmetry_space_group_name_H-M "C M M M"
_symmetry_group_IT_number 65
_symmetry_cell_setting 'orthorhombic'
loop_
_space_group_symop_operation_xyz
x,y,z
-x,-y,z
x,-y,-z
-x,y,-z
-x,-y,-z
x,y,-z
-x,y,z
x,-y,z
1/2+x,1/2+y,z
1/2-x,1/2-y,z
1/2+x,1/2-y,-z
1/2-x,1/2+y,-z
1/2-x,1/2-y,-z
1/2+x,1/2+y,-z
1/2-x,1/2+y,z
1/2+x,1/2-y,z
loop_
_atom_site_type_symbol
_atom_site_label
_atom_site_fract_x
_atom_site_fract_y
_atom_site_fract_z
Si Si1 0.338609 0.576834 0.864019
Si Si2 0.829973 0.680064 0.301379
Si Si3 0.168291 0.817797 0.447756
Si Si4 0.829389 0.000000 0.050537
Si Si5 0.331082 0.419890 0.632469
Si Si6 0.167639 0.682182 0.805622
O O1 0.500000 0.610207 0.859787
O O2 0.343097 0.500000 0.841867
O O3 0.291290 0.568336 0.918499
O O4 0.219525 0.619507 0.836944
O O5 0.750000 0.750000 0.317810
O O6 0.764963 0.614425 0.327701
O O7 0.798938 0.665791 0.247681
O O8 0.000000 0.687951 0.312081
O O9 0.217845 0.835706 0.500000
O O10 0.250000 0.750000 0.428933
O O11 0.206284 0.883575 0.416244
O O12 0.000000 0.799862 0.445677
O O13 0.000000 0.000000 0.043143
O O14 0.751345 0.000000 0.000000
O O15 0.500000 0.410885 0.645082
O O16 0.288220 0.500000 0.628139
O O17 0.250000 0.750000 0.822343
O O18 0.000000 0.694616 0.814341
#
# Coordination Sequence:
#
# PCOD8270474 Si02
#       6
#    16  16  16   8  16  16
#     4   8  16  29  48  74 100 129 163 200 243 289
#     4  10  21  36  53  72  95 129 168 205 247 295
#     4   9  18  33  53  75  98 126 162 202 243 291
#     4   7  12  26  49  75 101 131 167 203 242 291
#     4  10  21  35  51  74 102 132 164 201 246 292
#     4  10  20  33  50  71  98 130 165 206 250 296
#
# _framework density 17.042942
#
# number of rings (size 3 to 8) (size 9 to 14) (size 15 to 20)
#    0.545    2.273    0.000    1.636    0.000    6.182 
#    0.000    5.455    0.000    1.636    0.000    3.818 
#    0.000    0.000    0.000    0.000    0.000    0.000 
#
# Total GULP energy -545332.629306 kJ/mol
# GULP energy per Si atom -12393.923393 kJ/mol
# Density = 1.700415 g / cm^3
# Si number density = 17.042942 Si / 1000 Ang^3
#
#
#
# Elastic Constant Matrix: (Units=GPa)
#
#
# Indices 1 2 3 4 5 6 
#
# 1 72.7774 53.0065 49.9465 0.0000 0.0000 0.0000
# 2 53.0065 119.7282 64.6012 0.0000 0.0000 0.0000
# 3 49.9465 64.6012 93.0436 0.0000 0.0000 0.0000
# 4 0.0000 0.0000 0.0000 9.5247 0.0000 0.0000
# 5 0.0000 0.0000 0.0000 0.0000 19.4037 0.0000
# 6 0.0000 0.0000 0.0000 0.0000 0.0000 32.1893
#
#
#
# Elastic Compliance Matrix: (Units=1/GPa)
#
#
# Indices 1 2 3 4 5 6 
#
# 1 0.024108 -0.005901 -0.008844 0.000000 0.000000 0.000000
# 2 -0.005901 0.014800 -0.007108 0.000000 0.000000 0.000000
# 3 -0.008844 -0.007108 0.020430 0.000000 0.000000 0.000000
# 4 0.000000 0.000000 0.000000 0.104990 0.000000 0.000000
# 5 0.000000 0.000000 0.000000 0.000000 0.051536 0.000000
# 6 0.000000 0.000000 0.000000 0.000000 0.000000 0.031066
#
#
# Mechanical properties :
#
#
# Convention : Reuss Voigt Hill
#
# Bulk Modulus (GPa) = 63.97186 68.96197 66.46691
# Shear Modulus (GPa) = 16.90046 20.08988 18.49517
#
# Velocity S-wave (km/s) = 3.15245 3.43706 3.29783
# Velocity P-wave (km/s) = 7.13216 7.50351 7.32019
#
# Compressibility (1/GPa) = 0.01563187
#
# Stress axis : x y z
#
# Youngs Moduli (GPa) = 41.47932 67.56687 48.94644
#
# Poissons Ratio (x) = 0.39873 0.43289
# Poissons Ratio (y) = 0.24478 0.34791
# Poissons Ratio (z) = 0.36685 0.48027
#
# Static dielectric constant tensor:
#      x y z
#    x 3.092320 0.000000 0.000000 
#    y 0.000000 3.088290 0.000000 
#    z 0.000000 0.000000 3.397460 
# 
# 
# High freq. dielectric constant tensor:
#      x y z
#    x 1.652410 0.000000 0.000000 
#    y 0.000000 1.644200 0.000000 
#    z 0.000000 0.000000 1.653890 
# 
# From -- ./inp_files/76799.got.cif
#   From: 2010.03.12/outbox.cif.g09.slc.cpg/sg65_39_cif.got.tgz:76799.got - 2010.04.10 20:52:16.
