data_PCOD8270857
_publ_section_title
;
Structure prediction by ZEFSAII (Michael W. Deem and Ramdas Pophale) SiO2 
 PCOD8270857
Probable space group: C M M M
;
_chemical_formula_sum "Si O2"
_cell_formula_units_Z 104
_cell_length_a 29.924575
_cell_length_b 20.707953
_cell_length_c 8.855782
_cell_angle_alpha 90.000000
_cell_angle_beta 90.000000
_cell_angle_gamma 90.000000
_cell_volume 5487.721701
_symmetry_space_group_name_H-M "C M M M"
_symmetry_group_IT_number 65
_symmetry_cell_setting 'orthorhombic'
loop_
_space_group_symop_operation_xyz
x,y,z
-x,-y,z
x,-y,-z
-x,y,-z
-x,-y,-z
x,y,-z
-x,y,z
x,-y,z
1/2+x,1/2+y,z
1/2-x,1/2-y,z
1/2+x,1/2-y,-z
1/2-x,1/2+y,-z
1/2-x,1/2-y,-z
1/2+x,1/2+y,-z
1/2-x,1/2+y,z
1/2+x,1/2-y,z
loop_
_atom_site_type_symbol
_atom_site_label
_atom_site_fract_x
_atom_site_fract_y
_atom_site_fract_z
Si Si1 0.551850 0.867601 0.821320
Si Si2 0.721007 0.188086 0.176052
Si Si3 0.286613 0.426594 0.826141
Si Si4 0.947210 0.500000 0.669154
Si Si5 0.130280 0.712029 0.679157
Si Si6 0.867068 0.857274 0.678465
Si Si7 0.951586 0.071967 0.320385
O O1 0.500000 0.853388 0.775597
O O2 0.568672 0.936411 0.757674
O O3 0.584466 0.813821 0.752128
O O4 0.557069 0.868895 0.000000
O O5 0.750000 0.250000 0.234746
O O6 0.746318 0.121579 0.210471
O O7 0.674843 0.176391 0.264916
O O8 0.710454 0.197789 0.000000
O O9 0.272769 0.500000 0.783711
O O10 0.328723 0.405451 0.729323
O O11 0.300408 0.421167 0.000000
O O12 0.926685 0.500000 0.500000
O O13 0.000000 0.500000 0.660539
O O14 0.125381 0.706219 0.500000
O O15 0.138623 0.784814 0.737391
O O16 0.868034 0.857874 0.500000
O O17 0.913750 0.882128 0.747774
O O18 0.948834 0.070371 0.500000
O O19 0.000000 0.098618 0.268715
O O20 0.944385 0.000000 0.256847
#
# Coordination Sequence:
#
# PCOD8270857 Si02
#       7
#    16  16  16   8  16  16  16
#     4  10  21  38  60  85 115 154 197 235 277 340
#     4  10  20  38  61  80 106 149 189 229 285 350
#     4  10  21  37  58  83 108 138 181 232 285 342
#     4   9  17  33  59  87 115 147 185 235 291 339
#     4  11  23  36  55  84 115 148 187 236 287 335
#     4  10  20  33  53  80 108 143 184 227 278 335
#     4   8  14  26  45  70 101 136 174 216 262 316
#
# _framework density 18.951398000000001
#
# number of rings (size 3 to 8) (size 9 to 14) (size 15 to 20)
#    0.000    2.231    1.538    2.077    0.000    4.923 
#    1.385    1.538    0.000    0.462    0.000    2.154 
#    0.000    0.000    0.000    0.000    0.000    0.000 
#
# Total GULP energy -644654.838998 kJ/mol
# GULP energy per Si atom -12397.208442 kJ/mol
# Density = 1.890826 g / cm^3
# Si number density = 18.951398 Si / 1000 Ang^3
#
#
#
# Elastic Constant Matrix: (Units=GPa)
#
#
# Indices 1 2 3 4 5 6 
#
# 1 124.5276 58.8511 37.5211 0.0000 0.0000 0.0000
# 2 58.8511 125.8078 30.7670 0.0000 0.0000 0.0000
# 3 37.5211 30.7670 54.1959 0.0000 0.0000 0.0000
# 4 0.0000 0.0000 0.0000 24.4879 0.0000 0.0000
# 5 0.0000 0.0000 0.0000 0.0000 29.8186 0.0000
# 6 0.0000 0.0000 0.0000 0.0000 0.0000 31.4312
#
#
#
# Elastic Compliance Matrix: (Units=1/GPa)
#
#
# Indices 1 2 3 4 5 6 
#
# 1 0.011691 -0.004052 -0.005794 0.000000 0.000000 0.000000
# 2 -0.004052 0.010634 -0.003232 0.000000 0.000000 0.000000
# 3 -0.005794 -0.003232 0.024297 0.000000 0.000000 0.000000
# 4 0.000000 0.000000 0.000000 0.040836 0.000000 0.000000
# 5 0.000000 0.000000 0.000000 0.000000 0.033536 0.000000
# 6 0.000000 0.000000 0.000000 0.000000 0.000000 0.031816
#
#
# Mechanical properties :
#
#
# Convention : Reuss Voigt Hill
#
# Bulk Modulus (GPa) = 48.85723 62.08997 55.47360
# Shear Modulus (GPa) = 26.91232 28.97368 27.94300
#
# Velocity S-wave (km/s) = 3.77247 3.91428 3.84403
# Velocity P-wave (km/s) = 6.69415 7.29813 7.00265
#
# Compressibility (1/GPa) = 0.02046780
#
# Stress axis : x y z
#
# Youngs Moduli (GPa) = 85.53617 94.03375 41.15677
#
# Poissons Ratio (x) = 0.38103 0.23845
# Poissons Ratio (y) = 0.34659 0.13301
# Poissons Ratio (z) = 0.49556 0.30391
#
# Static dielectric constant tensor:
#      x y z
#    x 3.576670 0.000000 0.000000 
#    y 0.000000 3.700960 0.000000 
#    z 0.000000 0.000000 3.270160 
# 
# 
# High freq. dielectric constant tensor:
#      x y z
#    x 1.737510 0.000000 0.000000 
#    y 0.000000 1.739880 0.000000 
#    z 0.000000 0.000000 1.718850 
# 
# From -- ./inp_files/18686.got.cif
#   From: 2010.03.12/outbox.cif.g09.slc.cpg/sg65_10_cif.got.tgz:18686.got - 2010.04.10 20:52:16.
