data_PCOD8270794
_publ_section_title
;
Structure prediction by ZEFSAII (Michael W. Deem and Ramdas Pophale) SiO2 
 PCOD8270794
Probable space group: C M M M
;
_chemical_formula_sum "Si O2"
_cell_formula_units_Z 120
_cell_length_a 7.936480
_cell_length_b 28.571974
_cell_length_c 25.601732
_cell_angle_alpha 90.000000
_cell_angle_beta 90.000000
_cell_angle_gamma 90.000000
_cell_volume 5805.471795
_symmetry_space_group_name_H-M "C M M M"
_symmetry_group_IT_number 65
_symmetry_cell_setting 'orthorhombic'
loop_
_space_group_symop_operation_xyz
x,y,z
-x,-y,z
x,-y,-z
-x,y,-z
-x,-y,-z
x,y,-z
-x,y,z
x,-y,z
1/2+x,1/2+y,z
1/2-x,1/2-y,z
1/2+x,1/2-y,-z
1/2-x,1/2+y,-z
1/2-x,1/2-y,-z
1/2+x,1/2+y,-z
1/2-x,1/2+y,z
1/2+x,1/2-y,z
loop_
_atom_site_type_symbol
_atom_site_label
_atom_site_fract_x
_atom_site_fract_y
_atom_site_fract_z
Si Si1 0.306077 0.382276 0.061057
Si Si2 0.304355 0.302832 0.859733
Si Si3 0.698547 0.302703 0.656872
Si Si4 0.798557 0.143529 0.442367
Si Si5 0.500000 0.052424 0.938188
Si Si6 0.199436 0.145680 0.241178
Si Si7 0.304309 0.947996 0.279557
Si Si8 0.693918 0.449350 0.606314
O O1 0.500000 0.398008 0.073864
O O2 0.257817 0.334167 0.090136
O O3 0.172234 0.421568 0.079943
O O4 0.285220 0.372013 0.000000
O O5 0.500000 0.302730 0.849885
O O6 0.250000 0.250000 0.869985
O O7 0.221146 0.325792 0.807736
O O8 0.500000 0.308236 0.656214
O O9 0.750000 0.250000 0.665704
O O10 0.772695 0.320873 0.601422
O O11 0.773347 0.332357 0.705256
O O12 0.733474 0.158428 0.500000
O O13 0.726532 0.091699 0.429038
O O14 0.000000 0.143049 0.440843
O O15 0.500000 0.000000 0.913939
O O16 0.500000 0.049111 0.000000
O O17 0.254371 0.091187 0.236970
O O18 0.000000 0.148912 0.239913
O O19 0.500000 0.946117 0.292188
O O20 0.206893 0.935878 0.332856
O O21 0.253335 0.000000 0.258966
O O22 0.500000 0.453572 0.591500
O O23 0.782382 0.500000 0.595673
#
# Coordination Sequence:
#
# PCOD8270794 Si02
#       8
#    16  16  16  16   8  16  16  16
#     4   9  19  37  59  87 124 161 202 250 298 355
#     4  10  22  37  57  85 115 152 193 236 289 340
#     4  10  20  34  52  73  97 130 169 212 263 315
#     4   9  17  30  48  72 100 126 160 208 254 302
#     4   9  18  34  60  92 122 162 210 252 302 354
#     4  10  20  37  57  78 106 139 180 223 267 326
#     4  10  20  33  52  79 107 136 172 213 263 320
#     4   9  16  29  51  75  99 130 164 200 251 311
#
# _framework density 20.670154
#
# number of rings (size 3 to 8) (size 9 to 14) (size 15 to 20)
#    0.000    2.467    1.333    0.800    0.933    2.933 
#    0.000    3.333    0.000    3.600    0.000    1.867 
#    0.000    0.000    0.000    0.000    0.000    0.000 
#
# Total GULP energy -743620.398874 kJ/mol
# GULP energy per Si atom -12393.673315 kJ/mol
# Density = 2.062311 g / cm^3
# Si number density = 20.670154 Si / 1000 Ang^3
#
#
#
# Elastic Constant Matrix: (Units=GPa)
#
#
# Indices 1 2 3 4 5 6 
#
# 1 41.9700 34.9095 28.5274 0.0000 0.0000 0.0000
# 2 34.9095 172.3554 67.9406 0.0000 0.0000 0.0000
# 3 28.5274 67.9406 97.8375 0.0000 0.0000 0.0000
# 4 0.0000 0.0000 0.0000 35.9260 0.0000 0.0000
# 5 0.0000 0.0000 0.0000 0.0000 6.6565 0.0000
# 6 0.0000 0.0000 0.0000 0.0000 0.0000 27.8229
#
#
#
# Elastic Compliance Matrix: (Units=1/GPa)
#
#
# Indices 1 2 3 4 5 6 
#
# 1 0.031416 -0.003790 -0.006529 0.000000 0.000000 0.000000
# 2 -0.003790 0.008446 -0.004760 0.000000 0.000000 0.000000
# 3 -0.006529 -0.004760 0.015430 0.000000 0.000000 0.000000
# 4 0.000000 0.000000 0.000000 0.027835 0.000000 0.000000
# 5 0.000000 0.000000 0.000000 0.000000 0.150230 0.000000
# 6 0.000000 0.000000 0.000000 0.000000 0.000000 0.035942
#
#
# Mechanical properties :
#
#
# Convention : Reuss Voigt Hill
#
# Bulk Modulus (GPa) = 39.78431 63.87975 51.83203
# Shear Modulus (GPa) = 16.24250 26.13344 21.18797
#
# Velocity S-wave (km/s) = 2.80624 3.55957 3.20512
# Velocity P-wave (km/s) = 5.45793 6.91849 6.23115
#
# Compressibility (1/GPa) = 0.02513554
#
# Stress axis : x y z
#
# Youngs Moduli (GPa) = 31.83064 118.40089 64.80816
#
# Poissons Ratio (x) = 0.44869 0.42312
# Poissons Ratio (y) = 0.12063 0.30849
# Poissons Ratio (z) = 0.20781 0.56359
#
# Static dielectric constant tensor:
#      x y z
#    x 3.506520 0.000000 0.000000 
#    y 0.000000 3.778390 0.000000 
#    z 0.000000 0.000000 3.773640 
# 
# 
# High freq. dielectric constant tensor:
#      x y z
#    x 1.783940 0.000000 0.000000 
#    y 0.000000 1.817020 0.000000 
#    z 0.000000 0.000000 1.792560 
# 
# From -- ./inp_files/73929.got.cif
#   From: 2010.03.12/outbox.cif.g09.slc.cpg/sg65_37_cif.got.tgz:73929.got - 2010.04.10 20:52:16.
