data_PCOD8270715
_publ_section_title
;
Structure prediction by ZEFSAII (Michael W. Deem and Ramdas Pophale) SiO2 
 PCOD8270715
Probable space group: C M M M
;
_chemical_formula_sum "Si O2"
_cell_formula_units_Z 104
_cell_length_a 33.009239
_cell_length_b 18.825728
_cell_length_c 8.997390
_cell_angle_alpha 90.000000
_cell_angle_beta 90.000000
_cell_angle_gamma 90.000000
_cell_volume 5591.184680
_symmetry_space_group_name_H-M "C M M M"
_symmetry_group_IT_number 65
_symmetry_cell_setting 'orthorhombic'
loop_
_space_group_symop_operation_xyz
x,y,z
-x,-y,z
x,-y,-z
-x,y,-z
-x,-y,-z
x,y,-z
-x,y,z
x,-y,z
1/2+x,1/2+y,z
1/2-x,1/2-y,z
1/2+x,1/2-y,-z
1/2-x,1/2+y,-z
1/2-x,1/2-y,-z
1/2+x,1/2+y,-z
1/2-x,1/2+y,z
1/2+x,1/2-y,z
loop_
_atom_site_type_symbol
_atom_site_label
_atom_site_fract_x
_atom_site_fract_y
_atom_site_fract_z
Si Si1 0.184695 0.418179 0.826816
Si Si2 0.227131 0.915646 0.165913
Si Si3 0.500000 0.416259 0.332231
Si Si4 0.953031 0.702547 0.326612
Si Si5 0.106093 0.579901 0.673683
Si Si6 0.647389 0.416608 0.672140
Si Si7 0.073871 0.842542 0.823746
O O1 0.184529 0.500000 0.779826
O O2 0.228749 0.385165 0.782484
O O3 0.146572 0.383315 0.742121
O O4 0.177506 0.407458 0.000000
O O5 0.192581 0.892214 0.281326
O O6 0.230983 0.000000 0.159244
O O7 0.216486 0.887585 0.000000
O O8 0.500000 0.500000 0.337977
O O9 0.500000 0.384746 0.500000
O O10 0.460463 0.391189 0.247409
O O11 0.947434 0.720729 0.500000
O O12 0.932769 0.627403 0.285200
O O13 0.931047 0.762113 0.229574
O O14 0.000000 0.698368 0.282545
O O15 0.113128 0.577505 0.500000
O O16 0.098232 0.500000 0.735902
O O17 0.640546 0.398486 0.500000
O O18 0.640950 0.500000 0.703404
O O19 0.616926 0.372133 0.772365
O O20 0.070578 0.846529 0.000000
#
# Coordination Sequence:
#
# PCOD8270715 Si02
#       7
#    16  16   8  16  16  16  16
#     4   8  14  26  46  73 106 142 174 209 260 315
#     4   8  14  26  45  71 104 140 177 215 257 309
#     4  11  23  39  59  81 106 137 174 219 269 316
#     4  10  21  38  58  76 103 143 179 217 269 324
#     4   9  18  32  53  83 111 136 174 220 263 314
#     4  10  20  33  51  77 108 142 179 219 266 315
#     4  12  24  37  55  78 105 139 180 223 264 313
#
# _framework density 18.600708000000001
#
# number of rings (size 3 to 8) (size 9 to 14) (size 15 to 20)
#    0.000    2.385    0.769    3.462    0.000    4.923 
#    0.000    4.615    0.000    0.923    0.000    9.692 
#    0.000    0.000    0.000    0.000    0.000    0.000 
#
# Total GULP energy -644618.021561 kJ/mol
# GULP energy per Si atom -12396.500415 kJ/mol
# Density = 1.855837 g / cm^3
# Si number density = 18.600708 Si / 1000 Ang^3
#
#
#
# Elastic Constant Matrix: (Units=GPa)
#
#
# Indices 1 2 3 4 5 6 
#
# 1 122.7896 49.9732 51.0437 0.0000 0.0000 0.0000
# 2 49.9732 66.9874 39.4843 0.0000 0.0000 0.0000
# 3 51.0437 39.4843 88.8457 0.0000 0.0000 0.0000
# 4 0.0000 0.0000 0.0000 16.8065 0.0000 0.0000
# 5 0.0000 0.0000 0.0000 0.0000 36.4949 0.0000
# 6 0.0000 0.0000 0.0000 0.0000 0.0000 -95.1158
#
#
#
# Elastic Compliance Matrix: (Units=1/GPa)
#
#
# Indices 1 2 3 4 5 6 
#
# 1 0.012755 -0.007040 -0.004199 0.000000 0.000000 0.000000
# 2 -0.007040 0.024112 -0.006671 0.000000 0.000000 0.000000
# 3 -0.004199 -0.006671 0.016633 0.000000 0.000000 0.000000
# 4 0.000000 0.000000 0.000000 0.059501 0.000000 0.000000
# 5 0.000000 0.000000 0.000000 0.000000 0.027401 0.000000
# 6 0.000000 0.000000 0.000000 0.000000 0.000000 -0.010513
#
#
# Mechanical properties :
#
#
# Convention : Reuss Voigt Hill
#
# Bulk Modulus (GPa) = 56.56436 62.18057 59.37246
# Shear Modulus (GPa) = 29.13718 0.84522 14.99120
#
# Velocity S-wave (km/s) = 3.96214 0.67483 2.84200
# Velocity P-wave (km/s) = 7.16988 5.84028 6.53896
#
# Compressibility (1/GPa) = 0.01767898
#
# Stress axis : x y z
#
# Youngs Moduli (GPa) = 78.40188 41.47254 60.12225
#
# Poissons Ratio (x) = 0.29197 0.25246
# Poissons Ratio (y) = 0.55195 0.40109
# Poissons Ratio (z) = 0.32922 0.27667
#
# Static dielectric constant tensor:
#      x y z
#    x 3.260560 0.000000 0.000000 
#    y 0.000000 3.197050 0.000000 
#    z 0.000000 0.000000 3.392720 
# 
# 
# High freq. dielectric constant tensor:
#      x y z
#    x 1.739190 0.000000 0.000000 
#    y 0.000000 1.682490 0.000000 
#    z 0.000000 0.000000 1.718760 
# 
# From -- ./inp_files/18657.got.cif
#   From: 2010.03.12/outbox.cif.g09.slc.cpg/sg65_10_cif.got.tgz:18657.got - 2010.04.10 20:52:16.
