data_PCOD8270651
_publ_section_title
;
Structure prediction by ZEFSAII (Michael W. Deem and Ramdas Pophale) SiO2 
 PCOD8270651
Probable space group: C M M M
;
_chemical_formula_sum "Si O2"
_cell_formula_units_Z 120
_cell_length_a 26.681473
_cell_length_b 8.936694
_cell_length_c 27.335695
_cell_angle_alpha 90.000000
_cell_angle_beta 90.000000
_cell_angle_gamma 90.000000
_cell_volume 6518.036823
_symmetry_space_group_name_H-M "C M M M"
_symmetry_group_IT_number 65
_symmetry_cell_setting 'orthorhombic'
loop_
_space_group_symop_operation_xyz
x,y,z
-x,-y,z
x,-y,-z
-x,y,-z
-x,-y,-z
x,y,-z
-x,y,z
x,-y,z
1/2+x,1/2+y,z
1/2-x,1/2-y,z
1/2+x,1/2-y,-z
1/2-x,1/2+y,-z
1/2-x,1/2-y,-z
1/2+x,1/2+y,-z
1/2-x,1/2+y,z
1/2+x,1/2-y,z
loop_
_atom_site_type_symbol
_atom_site_label
_atom_site_fract_x
_atom_site_fract_y
_atom_site_fract_z
Si Si1 0.500000 0.329718 0.557825
Si Si2 0.301892 0.174874 0.055948
Si Si3 0.598442 0.175318 0.600127
Si Si4 0.641912 0.324735 0.860394
Si Si5 0.386599 0.170290 0.289050
Si Si6 0.557142 0.828532 0.807345
Si Si7 0.197861 0.825517 0.557547
Si Si8 0.301782 0.674892 0.763727
O O1 0.500000 0.500000 0.577657
O O2 0.500000 0.328284 0.500000
O O3 0.550305 0.247473 0.574870
O O4 0.250000 0.250000 0.071656
O O5 0.345550 0.239576 0.089675
O O6 0.296178 0.000000 0.064726
O O7 0.315597 0.213036 0.000000
O O8 0.591223 0.203763 0.657774
O O9 0.650419 0.249181 0.583260
O O10 0.600198 0.000000 0.587114
O O11 0.644707 0.500000 0.870080
O O12 0.586360 0.279135 0.844342
O O13 0.679307 0.272498 0.817156
O O14 0.429676 0.202956 0.249279
O O15 0.339921 0.277834 0.278682
O O16 0.367386 0.000000 0.285263
O O17 0.500000 0.787626 0.815165
O O18 0.569179 0.000000 0.820882
O O19 0.191089 0.801850 0.500000
O O20 0.250000 0.750000 0.575355
O O21 0.199518 0.000000 0.571598
O O22 0.294808 0.500000 0.762260
O O23 0.250000 0.750000 0.751208
#
# Coordination Sequence:
#
# PCOD8270651 Si02
#       8
#     8  16  16  16  16  16  16  16
#     4  11  25  43  61  83 113 149 185 223 272 329
#     4  10  20  33  51  77 109 144 181 220 265 318
#     4  11  23  38  60  87 114 144 182 227 276 330
#     4  10  20  33  51  77 107 140 180 223 268 318
#     4   9  20  36  54  78 107 138 174 214 262 316
#     4   9  18  34  57  78 101 136 176 219 266 317
#     4  10  21  38  60  84 111 144 183 226 272 326
#     4  10  20  33  51  75 106 143 182 220 262 313
#
# _framework density 18.410450999999998
#
# number of rings (size 3 to 8) (size 9 to 14) (size 15 to 20)
#    0.000    2.067    0.000    3.000    0.933    8.267 
#    0.000    0.000    0.000    0.400    0.000    2.800 
#    0.000    0.000    0.000    0.000    0.000    0.000 
#
# Total GULP energy -744150.334777 kJ/mol
# GULP energy per Si atom -12402.505580 kJ/mol
# Density = 1.836855 g / cm^3
# Si number density = 18.410451 Si / 1000 Ang^3
#
#
#
# Elastic Constant Matrix: (Units=GPa)
#
#
# Indices 1 2 3 4 5 6 
#
# 1 112.0937 49.5614 43.5871 0.0000 0.0000 0.0000
# 2 49.5614 90.7488 44.4322 0.0000 0.0000 0.0000
# 3 43.5871 44.4322 87.1496 0.0000 0.0000 0.0000
# 4 0.0000 0.0000 0.0000 28.3161 0.0000 0.0000
# 5 0.0000 0.0000 0.0000 0.0000 65.6286 0.0000
# 6 0.0000 0.0000 0.0000 0.0000 0.0000 35.0504
#
#
#
# Elastic Compliance Matrix: (Units=1/GPa)
#
#
# Indices 1 2 3 4 5 6 
#
# 1 0.012607 -0.005062 -0.003725 0.000000 0.000000 0.000000
# 2 -0.005062 0.016717 -0.005992 0.000000 0.000000 0.000000
# 3 -0.003725 -0.005992 0.016392 0.000000 0.000000 0.000000
# 4 0.000000 0.000000 0.000000 0.035316 0.000000 0.000000
# 5 0.000000 0.000000 0.000000 0.000000 0.015237 0.000000
# 6 0.000000 0.000000 0.000000 0.000000 0.000000 0.028530
#
#
# Mechanical properties :
#
#
# Convention : Reuss Voigt Hill
#
# Bulk Modulus (GPa) = 61.87820 62.79484 62.33652
# Shear Modulus (GPa) = 31.30015 35.95977 33.62996
#
# Velocity S-wave (km/s) = 4.12774 4.42433 4.27860
# Velocity P-wave (km/s) = 7.51006 7.76414 7.63815
#
# Compressibility (1/GPa) = 0.01616078
#
# Stress axis : x y z
#
# Youngs Moduli (GPa) = 79.31788 59.81797 61.00445
#
# Poissons Ratio (x) = 0.30278 0.22724
# Poissons Ratio (y) = 0.40148 0.36551
# Poissons Ratio (z) = 0.29545 0.35841
#
# Static dielectric constant tensor:
#      x y z
#    x 3.350610 0.000000 0.000000 
#    y 0.000000 3.529920 0.000000 
#    z 0.000000 0.000000 3.387290 
# 
# 
# High freq. dielectric constant tensor:
#      x y z
#    x 1.711610 0.000000 0.000000 
#    y 0.000000 1.726080 0.000000 
#    z 0.000000 0.000000 1.709140 
# 
# From -- ./inp_files/76138.got.cif
#   From: 2010.03.12/outbox.cif.g09.slc.cpg/sg65_39_cif.got.tgz:76138.got - 2010.04.10 20:52:16.
