data_PCOD8270594
_publ_section_title
;
Structure prediction by ZEFSAII (Michael W. Deem and Ramdas Pophale) SiO2 
 PCOD8270594
Probable space group: C M M M
;
_chemical_formula_sum "Si O2"
_cell_formula_units_Z 72
_cell_length_a 21.387970
_cell_length_b 20.352178
_cell_length_c 8.897688
_cell_angle_alpha 90.000000
_cell_angle_beta 90.000000
_cell_angle_gamma 90.000000
_cell_volume 3873.090381
_symmetry_space_group_name_H-M "C M M M"
_symmetry_group_IT_number 65
_symmetry_cell_setting 'orthorhombic'
loop_
_space_group_symop_operation_xyz
x,y,z
-x,-y,z
x,-y,-z
-x,y,-z
-x,-y,-z
x,y,-z
-x,y,z
x,-y,z
1/2+x,1/2+y,z
1/2-x,1/2-y,z
1/2+x,1/2-y,-z
1/2-x,1/2+y,-z
1/2-x,1/2-y,-z
1/2+x,1/2+y,-z
1/2-x,1/2+y,z
1/2+x,1/2-y,z
loop_
_atom_site_type_symbol
_atom_site_label
_atom_site_fract_x
_atom_site_fract_y
_atom_site_fract_z
Si Si1 0.649362 0.500000 0.179103
Si Si2 0.572455 0.239501 0.675590
Si Si3 0.709600 0.000000 0.821347
Si Si4 0.928335 0.123372 0.174049
Si Si5 0.621974 0.882978 0.822099
Si Si6 0.500000 0.073620 0.664014
O O1 0.719979 0.500000 0.241175
O O2 0.614364 0.435143 0.239201
O O3 0.647264 0.500000 0.000000
O O4 0.583373 0.241092 0.500000
O O5 0.500000 0.219143 0.715873
O O6 0.588370 0.311042 0.737223
O O7 0.623138 0.189453 0.747503
O O8 0.676520 0.067506 0.764849
O O9 0.707715 0.000000 0.000000
O O10 0.000000 0.102555 0.198981
O O11 0.914242 0.136835 0.000000
O O12 0.558248 0.914374 0.769100
O O13 0.624149 0.874754 0.000000
O O14 0.500000 0.112992 0.500000
O O15 0.500000 0.000000 0.612553
#
# Coordination Sequence:
#
# PCOD8270594 Si02
#       6
#     8  16   8  16  16   8
#     4   9  17  34  57  79 106 134 169 220 268 312
#     4  10  20  33  50  76 109 140 169 211 267 321
#     4   9  20  34  50  76 105 138 179 220 262 303
#     4   9  17  31  56  86 107 129 166 214 267 319
#     4  11  20  32  51  75 104 138 179 222 256 301
#     4  11  21  31  47  73 105 138 173 214 265 313
#
# _framework density 18.589807
#
# number of rings (size 3 to 8) (size 9 to 14) (size 15 to 20)
#    0.000    2.111    2.222    2.000    0.000    2.667 
#    0.000    1.667    0.000   14.667    0.000    0.000 
#    0.000    0.000    0.000    0.000    0.000    0.000 
#
# Total GULP energy -446174.013106 kJ/mol
# GULP energy per Si atom -12393.722586 kJ/mol
# Density = 1.854750 g / cm^3
# Si number density = 18.589807 Si / 1000 Ang^3
#
#
#
# Elastic Constant Matrix: (Units=GPa)
#
#
# Indices 1 2 3 4 5 6 
#
# 1 111.9289 81.7700 32.7930 0.0000 0.0000 0.0000
# 2 81.7700 168.2521 58.5000 0.0000 0.0000 0.0000
# 3 32.7930 58.5000 64.9042 0.0000 0.0000 0.0000
# 4 0.0000 0.0000 0.0000 10.4731 0.0000 0.0000
# 5 0.0000 0.0000 0.0000 0.0000 10.1752 0.0000
# 6 0.0000 0.0000 0.0000 0.0000 0.0000 12.6883
#
#
#
# Elastic Compliance Matrix: (Units=1/GPa)
#
#
# Indices 1 2 3 4 5 6 
#
# 1 0.013935 -0.006298 -0.001364 0.000000 0.000000 0.000000
# 2 -0.006298 0.011503 -0.007186 0.000000 0.000000 0.000000
# 3 -0.001364 -0.007186 0.022573 0.000000 0.000000 0.000000
# 4 0.000000 0.000000 0.000000 0.095483 0.000000 0.000000
# 5 0.000000 0.000000 0.000000 0.000000 0.098278 0.000000
# 6 0.000000 0.000000 0.000000 0.000000 0.000000 0.078813
#
#
# Mechanical properties :
#
#
# Convention : Reuss Voigt Hill
#
# Bulk Modulus (GPa) = 54.59906 76.80124 65.70015
# Shear Modulus (GPa) = 14.02978 18.13547 16.08263
#
# Velocity S-wave (km/s) = 2.75017 3.12678 2.94450
# Velocity P-wave (km/s) = 6.28639 7.37828 6.85411
#
# Compressibility (1/GPa) = 0.01831533
#
# Stress axis : x y z
#
# Youngs Moduli (GPa) = 71.76192 86.93621 44.30064
#
# Poissons Ratio (x) = 0.54753 0.06043
# Poissons Ratio (y) = 0.45196 0.31833
# Poissons Ratio (z) = 0.09788 0.62469
#
# Static dielectric constant tensor:
#      x y z
#    x 3.332920 0.000000 0.000000 
#    y 0.000000 3.731840 0.000000 
#    z 0.000000 0.000000 3.196300 
# 
# 
# High freq. dielectric constant tensor:
#      x y z
#    x 1.690580 0.000000 0.000000 
#    y 0.000000 1.741250 0.000000 
#    z 0.000000 0.000000 1.706250 
# 
# From -- ./inp_files/11305.got.cif
#   From: 2010.03.12/outbox.cif.g09.slc.cpg/sg65_6_cif.got.tgz:11305.got - 2010.04.10 20:52:16.
