data_PCOD8270933
_publ_section_title
;
Structure prediction by ZEFSAII (Michael W. Deem and Ramdas Pophale) SiO2 
 PCOD8270933
Probable space group: C M M M
;
_chemical_formula_sum "Si O2"
_cell_formula_units_Z 80
_cell_length_a 7.919739
_cell_length_b 20.070751
_cell_length_c 27.268605
_cell_angle_alpha 90.000000
_cell_angle_beta 90.000000
_cell_angle_gamma 90.000000
_cell_volume 4334.484092
_symmetry_space_group_name_H-M "C M M M"
_symmetry_group_IT_number 65
_symmetry_cell_setting 'orthorhombic'
loop_
_space_group_symop_operation_xyz
x,y,z
-x,-y,z
x,-y,-z
-x,y,-z
-x,-y,-z
x,y,-z
-x,y,z
x,-y,z
1/2+x,1/2+y,z
1/2-x,1/2-y,z
1/2+x,1/2-y,-z
1/2-x,1/2+y,-z
1/2-x,1/2-y,-z
1/2+x,1/2+y,-z
1/2-x,1/2+y,z
1/2+x,1/2-y,z
loop_
_atom_site_type_symbol
_atom_site_label
_atom_site_fract_x
_atom_site_fract_y
_atom_site_fract_z
Si Si1 0.195901 0.077865 0.123630
Si Si2 0.301959 0.073377 0.395760
Si Si3 0.197963 0.177903 0.683894
Si Si4 0.000000 0.421425 0.945623
Si Si5 0.315060 0.079256 0.500000
Si Si6 0.802468 0.178177 0.207160
O O1 0.325965 0.100538 0.081143
O O2 0.255101 0.118995 0.171316
O O3 0.000000 0.093505 0.108566
O O4 0.216588 0.000000 0.136078
O O5 0.500000 0.067356 0.404584
O O6 0.268707 0.122179 0.351400
O O7 0.222707 0.099319 0.448278
O O8 0.228667 0.000000 0.382377
O O9 0.250000 0.250000 0.663262
O O10 0.277517 0.168001 0.738549
O O11 0.000000 0.170769 0.685557
O O12 0.000000 0.500000 0.949945
O O13 0.000000 0.389182 0.000000
O O14 0.500000 0.112944 0.500000
O O15 0.330745 0.000000 0.500000
O O16 0.750000 0.250000 0.185182
O O17 0.000000 0.176280 0.212775
#
# Coordination Sequence:
#
# PCOD8270933 Si02
#       6
#    16  16  16   8   8  16
#     4   9  18  33  52  77 106 135 171 213 255 300
#     4   9  17  31  51  74  97 125 162 203 250 301
#     4  10  20  34  50  70 100 131 165 206 250 301
#     4   9  18  32  52  80 108 136 171 210 256 302
#     4   7  12  26  48  69  92 123 159 199 244 299
#     4   9  19  33  51  73  96 132 169 202 249 302
#
# _framework density 18.456636
#
# number of rings (size 3 to 8) (size 9 to 14) (size 15 to 20)
#    0.000    3.000    0.000    1.800    1.400    2.400 
#    0.000    5.000    0.000    2.400    0.000    0.000 
#    0.000    0.000    0.000    0.000    0.000    0.000 
#
# Total GULP energy -495523.040918 kJ/mol
# GULP energy per Si atom -12388.076023 kJ/mol
# Density = 1.841463 g / cm^3
# Si number density = 18.456636 Si / 1000 Ang^3
#
#
#
# Elastic Constant Matrix: (Units=GPa)
#
#
# Indices 1 2 3 4 5 6 
#
# 1 49.8406 23.2205 41.2265 0.0000 0.0000 0.0000
# 2 23.2205 93.1588 77.7071 0.0000 0.0000 0.0000
# 3 41.2265 77.7071 148.0895 0.0000 0.0000 0.0000
# 4 0.0000 0.0000 0.0000 4.9330 0.0000 0.0000
# 5 0.0000 0.0000 0.0000 0.0000 8.4338 0.0000
# 6 0.0000 0.0000 0.0000 0.0000 0.0000 18.7400
#
#
#
# Elastic Compliance Matrix: (Units=1/GPa)
#
#
# Indices 1 2 3 4 5 6 
#
# 1 0.026099 -0.000791 -0.006851 0.000000 0.000000 0.000000
# 2 -0.000791 0.019114 -0.009809 0.000000 0.000000 0.000000
# 3 -0.006851 -0.009809 0.013807 0.000000 0.000000 0.000000
# 4 0.000000 0.000000 0.000000 0.202716 0.000000 0.000000
# 5 0.000000 0.000000 0.000000 0.000000 0.118571 0.000000
# 6 0.000000 0.000000 0.000000 0.000000 0.000000 0.053362
#
#
# Mechanical properties :
#
#
# Convention : Reuss Voigt Hill
#
# Bulk Modulus (GPa) = 41.46293 63.93300 52.69796
# Shear Modulus (GPa) = 10.49075 16.35035 13.42055
#
# Velocity S-wave (km/s) = 2.38670 2.97960 2.69948
# Velocity P-wave (km/s) = 5.48716 6.82291 6.19117
#
# Compressibility (1/GPa) = 0.02411793
#
# Stress axis : x y z
#
# Youngs Moduli (GPa) = 38.31554 52.31783 72.42640
#
# Poissons Ratio (x) = 0.04139 0.49616
# Poissons Ratio (y) = 0.03031 0.71046
# Poissons Ratio (z) = 0.26248 0.51321
#
# Static dielectric constant tensor:
#      x y z
#    x 3.318940 0.000000 0.000000 
#    y 0.000000 3.124970 0.000000 
#    z 0.000000 0.000000 4.172320 
# 
# 
# High freq. dielectric constant tensor:
#      x y z
#    x 1.706910 0.000000 0.000000 
#    y 0.000000 1.689790 0.000000 
#    z 0.000000 0.000000 1.719110 
# 
# From -- ./inp_files/67282.got.cif
#   From: 2010.03.12/outbox.cif.g09.slc.cpg/sg65_34_cif.got.tgz:67282.got - 2010.04.10 20:52:16.
