data_PCOD8270409
_publ_section_title
;
Structure prediction by ZEFSAII (Michael W. Deem and Ramdas Pophale) SiO2 
 PCOD8270409
Probable space group: C M M M
;
_chemical_formula_sum "Si O2"
_cell_formula_units_Z 104
_cell_length_a 24.077349
_cell_length_b 27.182371
_cell_length_c 8.936727
_cell_angle_alpha 90.000000
_cell_angle_beta 90.000000
_cell_angle_gamma 90.000000
_cell_volume 5848.904022
_symmetry_space_group_name_H-M "C M M M"
_symmetry_group_IT_number 65
_symmetry_cell_setting 'orthorhombic'
loop_
_space_group_symop_operation_xyz
x,y,z
-x,-y,z
x,-y,-z
-x,y,-z
-x,-y,-z
x,y,-z
-x,y,z
x,-y,z
1/2+x,1/2+y,z
1/2-x,1/2-y,z
1/2+x,1/2-y,-z
1/2-x,1/2+y,-z
1/2-x,1/2-y,-z
1/2+x,1/2+y,-z
1/2-x,1/2+y,z
1/2+x,1/2-y,z
loop_
_atom_site_type_symbol
_atom_site_label
_atom_site_fract_x
_atom_site_fract_y
_atom_site_fract_z
Si Si1 0.565260 0.899929 0.174937
Si Si2 0.266535 0.641430 0.325798
Si Si3 0.855785 0.677953 0.324467
Si Si4 0.934070 0.500000 0.330367
Si Si5 0.177740 0.056294 0.177550
Si Si6 0.812365 0.769294 0.169694
Si Si7 0.058382 0.941632 0.832712
O O1 0.500000 0.893033 0.205304
O O2 0.595997 0.853661 0.248064
O O3 0.587436 0.950879 0.247312
O O4 0.578802 0.901918 0.000000
O O5 0.278296 0.644362 0.500000
O O6 0.203080 0.653347 0.287945
O O7 0.275543 0.587014 0.262240
O O8 0.311107 0.677513 0.247394
O O9 0.867771 0.681458 0.500000
O O10 0.854601 0.732979 0.256083
O O11 0.911215 0.500000 0.500000
O O12 0.000000 0.500000 0.327707
O O13 0.116919 0.074628 0.240641
O O14 0.189044 0.000000 0.219587
O O15 0.181201 0.064306 0.000000
O O16 0.750000 0.750000 0.178259
O O17 0.833356 0.774492 0.000000
O O18 0.000000 0.925296 0.750206
O O19 0.060743 0.000000 0.842309
O O20 0.056235 0.920098 0.000000
#
# Coordination Sequence:
#
# PCOD8270409 Si02
#       7
#    16  16  16   8  16  16  16
#     4  10  20  34  53  77 104 134 171 215 260 307
#     4  10  20  33  49  71 100 134 167 203 248 301
#     4  10  20  34  52  75 100 129 166 207 252 305
#     4   9  17  31  51  73  99 133 171 209 252 303
#     4   9  17  29  46  69  97 129 164 201 243 293
#     4   9  17  31  53  76  96 120 154 201 247 291
#     4   7  10  19  38  63  87 112 148 193 233 268
#
# _framework density 17.781109000000001
#
# number of rings (size 3 to 8) (size 9 to 14) (size 15 to 20)
#    0.000    2.846    0.000    3.462    0.000    5.846 
#    1.385    0.000    0.000    1.385    0.000    4.308 
#    0.000    0.000    0.000    0.000    0.000    0.000 
#
# Total GULP energy -644343.747326 kJ/mol
# GULP energy per Si atom -12391.225910 kJ/mol
# Density = 1.774064 g / cm^3
# Si number density = 17.781109 Si / 1000 Ang^3
#
#
#
# Elastic Constant Matrix: (Units=GPa)
#
#
# Indices 1 2 3 4 5 6 
#
# 1 47.9344 39.5290 41.7278 0.0000 0.0000 0.0000
# 2 39.5290 88.3740 44.9808 0.0000 0.0000 0.0000
# 3 41.7278 44.9808 92.3332 0.0000 0.0000 0.0000
# 4 0.0000 0.0000 0.0000 30.3060 0.0000 0.0000
# 5 0.0000 0.0000 0.0000 0.0000 21.6102 0.0000
# 6 0.0000 0.0000 0.0000 0.0000 0.0000 28.6042
#
#
#
# Elastic Compliance Matrix: (Units=1/GPa)
#
#
# Indices 1 2 3 4 5 6 
#
# 1 0.042500 -0.012279 -0.013225 0.000000 0.000000 0.000000
# 2 -0.012279 0.018594 -0.003509 0.000000 0.000000 0.000000
# 3 -0.013225 -0.003509 0.018517 0.000000 0.000000 0.000000
# 4 0.000000 0.000000 0.000000 0.032997 0.000000 0.000000
# 5 0.000000 0.000000 0.000000 0.000000 0.046274 0.000000
# 6 0.000000 0.000000 0.000000 0.000000 0.000000 0.034960
#
#
# Mechanical properties :
#
#
# Convention : Reuss Voigt Hill
#
# Bulk Modulus (GPa) = 46.32922 53.45744 49.89333
# Shear Modulus (GPa) = 19.30035 22.93101 21.11568
#
# Velocity S-wave (km/s) = 3.29818 3.59503 3.44980
# Velocity P-wave (km/s) = 6.37306 6.88199 6.63241
#
# Compressibility (1/GPa) = 0.02158465
#
# Stress axis : x y z
#
# Youngs Moduli (GPa) = 23.52929 53.78168 54.00523
#
# Poissons Ratio (x) = 0.66036 0.71424
# Poissons Ratio (y) = 0.28890 0.18951
# Poissons Ratio (z) = 0.31118 0.18872
#
# Static dielectric constant tensor:
#      x y z
#    x 3.322240 0.000000 0.000000 
#    y 0.000000 3.257170 0.000000 
#    z 0.000000 0.000000 3.213600 
# 
# 
# High freq. dielectric constant tensor:
#      x y z
#    x 1.668320 0.000000 0.000000 
#    y 0.000000 1.675320 0.000000 
#    z 0.000000 0.000000 1.679660 
# 
# From -- ./inp_files/14797.got.cif
#   From: 2010.03.12/outbox.cif.g09.slc.cpg/sg65_8_cif.got.tgz:14797.got - 2010.04.10 20:52:16.
