data_PCOD8270082
_publ_section_title
;
Structure prediction by ZEFSAII (Michael W. Deem and Ramdas Pophale) SiO2 
 PCOD8270082
Probable space group: C M M M
;
_chemical_formula_sum "Si O2"
_cell_formula_units_Z 120
_cell_length_a 32.502714
_cell_length_b 14.190275
_cell_length_c 13.908221
_cell_angle_alpha 90.000000
_cell_angle_beta 90.000000
_cell_angle_gamma 90.000000
_cell_volume 6414.783763
_symmetry_space_group_name_H-M "C M M M"
_symmetry_group_IT_number 65
_symmetry_cell_setting 'orthorhombic'
loop_
_space_group_symop_operation_xyz
x,y,z
-x,-y,z
x,-y,-z
-x,y,-z
-x,-y,-z
x,y,-z
-x,y,z
x,-y,z
1/2+x,1/2+y,z
1/2-x,1/2-y,z
1/2+x,1/2-y,-z
1/2-x,1/2+y,-z
1/2-x,1/2-y,-z
1/2+x,1/2+y,-z
1/2-x,1/2+y,z
1/2+x,1/2-y,z
loop_
_atom_site_type_symbol
_atom_site_label
_atom_site_fract_x
_atom_site_fract_y
_atom_site_fract_z
Si Si1 0.046899 0.500000 0.886058
Si Si2 0.682886 0.387647 0.611153
Si Si3 0.452164 0.606159 0.392232
Si Si4 0.111100 0.775815 0.289131
Si Si5 0.607443 0.835558 0.889711
Si Si6 0.300288 0.891717 0.896136
Si Si7 0.732250 0.112049 0.301264
Si Si8 0.352385 0.106145 0.611725
O O1 0.071519 0.406238 0.853255
O O2 0.000000 0.500000 0.844411
O O3 0.045797 0.500000 0.000000
O O4 0.677649 0.355920 0.500000
O O5 0.680694 0.500000 0.619171
O O6 0.647704 0.344336 0.677979
O O7 0.726046 0.347271 0.652472
O O8 0.434308 0.619171 0.500000
O O9 0.500000 0.627768 0.391981
O O10 0.443071 0.500000 0.357261
O O11 0.431665 0.679176 0.320505
O O12 0.108325 0.760043 0.174256
O O13 0.115063 0.672397 0.335507
O O14 0.651162 0.886413 0.875858
O O15 0.600253 0.805040 0.000000
O O16 0.274918 0.846587 0.806975
O O17 0.287899 0.000000 0.902595
O O18 0.289454 0.843437 0.000000
O O19 0.693878 0.142660 0.367505
O O20 0.735068 0.000000 0.298664
O O21 0.361163 0.111695 0.500000
O O22 0.358286 0.000000 0.650844
#
# Coordination Sequence:
#
# PCOD8270082 Si02
#       8
#     8  16  16  16  16  16  16  16
#     4   9  18  34  58  84 109 141 183 231 276 314
#     4  10  21  37  56  79 106 139 185 242 293 328
#     4   9  19  38  63  87 109 137 179 229 276 325
#     4  12  22  33  57  81 112 140 184 226 278 331
#     4  10  20  34  53  78 111 146 184 228 271 320
#     4   9  15  28  51  74  99 142 195 234 263 309
#     4   9  17  31  50  72 104 143 184 228 278 327
#     4  10  20  32  47  72 108 148 182 215 263 331
#
# _framework density 18.706789000000001
#
# number of rings (size 3 to 8) (size 9 to 14) (size 15 to 20)
#    0.000    2.200    2.000    2.400    0.933    3.733 
#    0.000    2.000    0.000    4.000    0.000    2.800 
#    0.000    0.000    0.000    0.000    0.000    0.000 
#
# Total GULP energy -743755.836080 kJ/mol
# GULP energy per Si atom -12395.930601 kJ/mol
# Density = 1.866421 g / cm^3
# Si number density = 18.706789 Si / 1000 Ang^3
#
#
#
# Elastic Constant Matrix: (Units=GPa)
#
#
# Indices 1 2 3 4 5 6 
#
# 1 79.8754 37.3498 47.3570 0.0000 0.0000 0.0000
# 2 37.3498 57.9880 40.3899 0.0000 0.0000 0.0000
# 3 47.3570 40.3899 112.5764 0.0000 0.0000 0.0000
# 4 0.0000 0.0000 0.0000 27.4689 0.0000 0.0000
# 5 0.0000 0.0000 0.0000 0.0000 22.2166 0.0000
# 6 0.0000 0.0000 0.0000 0.0000 0.0000 26.5521
#
#
#
# Elastic Compliance Matrix: (Units=1/GPa)
#
#
# Indices 1 2 3 4 5 6 
#
# 1 0.019832 -0.009282 -0.005012 0.000000 0.000000 0.000000
# 2 -0.009282 0.027335 -0.005902 0.000000 0.000000 0.000000
# 3 -0.005012 -0.005902 0.013109 0.000000 0.000000 0.000000
# 4 0.000000 0.000000 0.000000 0.036405 0.000000 0.000000
# 5 0.000000 0.000000 0.000000 0.000000 0.045011 0.000000
# 6 0.000000 0.000000 0.000000 0.000000 0.000000 0.037662
#
#
# Mechanical properties :
#
#
# Convention : Reuss Voigt Hill
#
# Bulk Modulus (GPa) = 50.29782 55.62592 52.96187
# Shear Modulus (GPa) = 22.08731 23.60372 22.84551
#
# Velocity S-wave (km/s) = 3.43987 3.55600 3.49842
# Velocity P-wave (km/s) = 6.53627 6.83084 6.68518
#
# Compressibility (1/GPa) = 0.01988158
#
# Stress axis : x y z
#
# Youngs Moduli (GPa) = 50.42458 36.58334 76.28382
#
# Poissons Ratio (x) = 0.33958 0.38235
# Poissons Ratio (y) = 0.46806 0.45025
# Poissons Ratio (z) = 0.25274 0.21593
#
# Static dielectric constant tensor:
#      x y z
#    x 3.415590 0.000000 0.000000 
#    y 0.000000 3.285960 0.000000 
#    z 0.000000 0.000000 3.726290 
# 
# 
# High freq. dielectric constant tensor:
#      x y z
#    x 1.712760 0.000000 0.000000 
#    y 0.000000 1.709290 0.000000 
#    z 0.000000 0.000000 1.725340 
# 
# From -- ./inp_files/48058.got.cif
#   From: 2010.03.12/outbox.cif.g09.slc.cpg/sg65_25_cif.got.tgz:48058.got - 2010.04.10 20:52:16.
