data_PCOD8270582
_publ_section_title
;
Structure prediction by ZEFSAII (Michael W. Deem and Ramdas Pophale) SiO2 
 PCOD8270582
Probable space group: C M M M
;
_chemical_formula_sum "Si O2"
_cell_formula_units_Z 96
_cell_length_a 17.213459
_cell_length_b 23.056409
_cell_length_c 14.172695
_cell_angle_alpha 90.000000
_cell_angle_beta 90.000000
_cell_angle_gamma 90.000000
_cell_volume 5624.867001
_symmetry_space_group_name_H-M "C M M M"
_symmetry_group_IT_number 65
_symmetry_cell_setting 'orthorhombic'
loop_
_space_group_symop_operation_xyz
x,y,z
-x,-y,z
x,-y,-z
-x,y,-z
-x,-y,-z
x,y,-z
-x,y,z
x,-y,z
1/2+x,1/2+y,z
1/2-x,1/2-y,z
1/2+x,1/2-y,-z
1/2-x,1/2+y,-z
1/2-x,1/2-y,-z
1/2+x,1/2+y,-z
1/2-x,1/2+y,z
1/2+x,1/2-y,z
loop_
_atom_site_type_symbol
_atom_site_label
_atom_site_fract_x
_atom_site_fract_y
_atom_site_fract_z
Si Si1 0.090294 0.755359 0.750011
Si Si2 0.813586 0.358277 0.739960
Si Si3 0.408379 0.064548 0.395404
Si Si4 0.268909 0.433242 0.109728
Si Si5 0.586903 0.642868 0.891980
Si Si6 0.304415 0.695010 0.395356
O O1 0.146822 0.701556 0.772449
O O2 0.108470 0.800527 0.832660
O O3 0.113802 0.784992 0.650370
O O4 0.000000 0.736924 0.745978
O O5 0.877768 0.391717 0.681268
O O6 0.792498 0.395088 0.832300
O O7 0.737412 0.350568 0.674387
O O8 0.382887 0.085401 0.500000
O O9 0.500000 0.063791 0.387741
O O10 0.375467 0.000000 0.376638
O O11 0.265178 0.500000 0.142474
O O12 0.355701 0.410223 0.130140
O O13 0.246979 0.427090 0.000000
O O14 0.500000 0.621081 0.867443
O O15 0.593828 0.662477 0.000000
O O16 0.319925 0.668250 0.500000
O O17 0.250000 0.750000 0.406635
#
# Coordination Sequence:
#
# PCOD8270582 Si02
#       6
#    16  16  16  16  16  16
#     4  10  20  33  50  75 102 135 173 204 250 310
#     4  11  19  32  51  75 105 139 166 212 257 311
#     4   9  18  32  50  73 100 133 178 225 260 294
#     4  10  21  35  53  78 104 134 173 214 262 314
#     4   9  18  34  54  76 102 129 166 217 259 299
#     4   9  18  31  47  71 102 132 165 206 253 304
#
# _framework density 17.067070000000001
#
# number of rings (size 3 to 8) (size 9 to 14) (size 15 to 20)
#    0.000    2.333    1.667    2.000    0.000    2.000 
#    0.000    3.333    0.000    1.500    0.000    5.833 
#    0.000    2.667    0.000    0.000    0.000    0.000 
#
# Total GULP energy -595092.014058 kJ/mol
# GULP energy per Si atom -12397.750293 kJ/mol
# Density = 1.702822 g / cm^3
# Si number density = 17.067070 Si / 1000 Ang^3
#
#
#
# Elastic Constant Matrix: (Units=GPa)
#
#
# Indices 1 2 3 4 5 6 
#
# 1 67.2858 41.5739 41.2423 0.0000 0.0000 0.0000
# 2 41.5739 86.2352 49.0882 0.0000 0.0000 0.0000
# 3 41.2423 49.0882 88.8669 0.0000 0.0000 0.0000
# 4 0.0000 0.0000 0.0000 26.6598 0.0000 0.0000
# 5 0.0000 0.0000 0.0000 0.0000 23.4822 0.0000
# 6 0.0000 0.0000 0.0000 0.0000 0.0000 25.8986
#
#
#
# Elastic Compliance Matrix: (Units=1/GPa)
#
#
# Indices 1 2 3 4 5 6 
#
# 1 0.023712 -0.007537 -0.006841 0.000000 0.000000 0.000000
# 2 -0.007537 0.019311 -0.007169 0.000000 0.000000 0.000000
# 3 -0.006841 -0.007169 0.018388 0.000000 0.000000 0.000000
# 4 0.000000 0.000000 0.000000 0.037510 0.000000 0.000000
# 5 0.000000 0.000000 0.000000 0.000000 0.042585 0.000000
# 6 0.000000 0.000000 0.000000 0.000000 0.000000 0.038612
#
#
# Mechanical properties :
#
#
# Convention : Reuss Voigt Hill
#
# Bulk Modulus (GPa) = 54.59742 56.24410 55.42076
# Shear Modulus (GPa) = 21.80377 22.57367 22.18872
#
# Velocity S-wave (km/s) = 3.57814 3.64076 3.60959
# Velocity P-wave (km/s) = 7.00929 7.12038 7.06505
#
# Compressibility (1/GPa) = 0.01831588
#
# Stress axis : x y z
#
# Youngs Moduli (GPa) = 42.17206 51.78471 54.38452
#
# Poissons Ratio (x) = 0.39033 0.37205
# Poissons Ratio (y) = 0.31787 0.38987
# Poissons Ratio (z) = 0.28851 0.37123
#
# Static dielectric constant tensor:
#      x y z
#    x 3.138280 0.000000 0.000000 
#    y 0.000000 3.189980 0.000000 
#    z 0.000000 0.000000 3.341920 
# 
# 
# High freq. dielectric constant tensor:
#      x y z
#    x 1.652490 0.000000 0.000000 
#    y 0.000000 1.649970 0.000000 
#    z 0.000000 0.000000 1.661670 
# 
# From -- ./inp_files/27082.got.cif
#   From: 2010.03.12/outbox.cif.g09.slc.cpg/sg65_14_cif.got.tgz:27082.got - 2010.04.10 20:52:16.
