data_PCOD8270641
_publ_section_title
;
Structure prediction by ZEFSAII (Michael W. Deem and Ramdas Pophale) SiO2 
 PCOD8270641
Probable space group: C M M M
;
_chemical_formula_sum "Si O2"
_cell_formula_units_Z 88
_cell_length_a 27.930668
_cell_length_b 17.883216
_cell_length_c 9.537097
_cell_angle_alpha 90.000000
_cell_angle_beta 90.000000
_cell_angle_gamma 90.000000
_cell_volume 4763.686191
_symmetry_space_group_name_H-M "C M M M"
_symmetry_group_IT_number 65
_symmetry_cell_setting 'orthorhombic'
loop_
_space_group_symop_operation_xyz
x,y,z
-x,-y,z
x,-y,-z
-x,y,-z
-x,-y,-z
x,y,-z
-x,y,z
x,-y,z
1/2+x,1/2+y,z
1/2-x,1/2-y,z
1/2+x,1/2-y,-z
1/2-x,1/2+y,-z
1/2-x,1/2-y,-z
1/2+x,1/2+y,-z
1/2-x,1/2+y,z
1/2+x,1/2-y,z
loop_
_atom_site_type_symbol
_atom_site_label
_atom_site_fract_x
_atom_site_fract_y
_atom_site_fract_z
Si Si1 0.552249 0.713961 0.334411
Si Si2 0.721621 0.826923 0.336255
Si Si3 0.208758 0.912010 0.843920
Si Si4 0.943673 0.500000 0.333007
Si Si5 0.111614 0.351525 0.334038
Si Si6 0.120956 0.914073 0.661454
O O1 0.549154 0.724698 0.500000
O O2 0.500000 0.715022 0.265382
O O3 0.581870 0.782582 0.269929
O O4 0.574818 0.633867 0.298144
O O5 0.727566 0.845608 0.500000
O O6 0.750000 0.750000 0.300472
O O7 0.744259 0.891413 0.242139
O O8 0.666166 0.832490 0.290197
O O9 0.163318 0.882382 0.757407
O O10 0.206326 0.000000 0.855118
O O11 0.209044 0.876446 0.000000
O O12 0.944745 0.500000 0.500000
O O13 0.913160 0.571912 0.276877
O O14 0.000000 0.500000 0.280575
O O15 0.108723 0.353906 0.500000
O O16 0.136493 0.901534 0.500000
O O17 0.108345 0.000000 0.691532
#
# Coordination Sequence:
#
# PCOD8270641 Si02
#       6
#    16  16  16   8  16  16
#     4   9  16  27  45  69  98 129 161 202 250 296
#     4  10  20  33  51  75 103 134 169 210 255 309
#     4  10  21  35  51  72 100 134 171 209 253 304
#     4   9  16  26  40  62  95 131 165 201 244 299
#     4   9  17  27  42  66  97 131 164 198 247 303
#     4   9  17  30  49  73 100 132 168 204 246 298
#
# _framework density 18.473089000000002
#
# number of rings (size 3 to 8) (size 9 to 14) (size 15 to 20)
#    0.000    2.636    0.000    2.182    1.273    6.909 
#    0.000    1.818    0.000    0.545    0.000    2.545 
#    0.000    2.909    0.000    0.000    0.000    0.000 
#
# Total GULP energy -545243.664478 kJ/mol
# GULP energy per Si atom -12391.901465 kJ/mol
# Density = 1.843104 g / cm^3
# Si number density = 18.473089 Si / 1000 Ang^3
#
#
#
# Elastic Constant Matrix: (Units=GPa)
#
#
# Indices 1 2 3 4 5 6 
#
# 1 187.1502 76.9908 39.8720 0.0000 0.0000 0.0000
# 2 76.9908 92.4202 23.1167 0.0000 0.0000 0.0000
# 3 39.8720 23.1167 44.0897 0.0000 0.0000 0.0000
# 4 0.0000 0.0000 0.0000 12.0092 0.0000 0.0000
# 5 0.0000 0.0000 0.0000 0.0000 -1.3066 0.0000
# 6 0.0000 0.0000 0.0000 0.0000 0.0000 38.5546
#
#
#
# Elastic Compliance Matrix: (Units=1/GPa)
#
#
# Indices 1 2 3 4 5 6 
#
# 1 0.008935 -0.006241 -0.004808 0.000000 0.000000 0.000000
# 2 -0.006241 0.016812 -0.003171 0.000000 0.000000 0.000000
# 3 -0.004808 -0.003171 0.028692 0.000000 0.000000 0.000000
# 4 0.000000 0.000000 0.000000 0.083269 0.000000 0.000000
# 5 0.000000 0.000000 0.000000 0.000000 -0.765317 0.000000
# 6 0.000000 0.000000 0.000000 0.000000 0.000000 0.025937
#
#
# Mechanical properties :
#
#
# Convention : Reuss Voigt Hill
#
# Bulk Modulus (GPa) = 38.46291 67.06878 52.76585
# Shear Modulus (GPa) = -8.85638 22.09681 6.62022
#
# Velocity S-wave (km/s) = -2.19194 3.46231 1.89512
# Velocity P-wave (km/s) = 3.80264 7.23661 5.78051
#
# Compressibility (1/GPa) = 0.02599907
#
# Stress axis : x y z
#
# Youngs Moduli (GPa) = 111.91953 59.48091 34.85302
#
# Poissons Ratio (x) = 0.37120 0.16758
# Poissons Ratio (y) = 0.69845 0.11052
# Poissons Ratio (z) = 0.53813 0.18862
#
# Static dielectric constant tensor:
#      x y z
#    x 3.724440 0.000000 0.000000 
#    y 0.000000 3.485250 0.000000 
#    z 0.000000 0.000000 3.083490 
# 
# 
# High freq. dielectric constant tensor:
#      x y z
#    x 1.728320 0.000000 0.000000 
#    y 0.000000 1.723770 0.000000 
#    z 0.000000 0.000000 1.655620 
# 
# From -- ./inp_files/10080.got.cif
#   From: 2010.03.12/outbox.cif.g09.slc.cpg/sg65_6_cif.got.tgz:10080.got - 2010.04.10 20:52:16.
