data_PCOD8270645
_publ_section_title
;
Structure prediction by ZEFSAII (Michael W. Deem and Ramdas Pophale) SiO2 
 PCOD8270645
Probable space group: C M M M
;
_chemical_formula_sum "Si O2"
_cell_formula_units_Z 96
_cell_length_a 28.597574
_cell_length_b 18.805068
_cell_length_c 8.922428
_cell_angle_alpha 90.000000
_cell_angle_beta 90.000000
_cell_angle_gamma 90.000000
_cell_volume 4798.297296
_symmetry_space_group_name_H-M "C M M M"
_symmetry_group_IT_number 65
_symmetry_cell_setting 'orthorhombic'
loop_
_space_group_symop_operation_xyz
x,y,z
-x,-y,z
x,-y,-z
-x,y,-z
-x,-y,-z
x,y,-z
-x,y,z
x,-y,z
1/2+x,1/2+y,z
1/2-x,1/2-y,z
1/2+x,1/2-y,-z
1/2-x,1/2+y,-z
1/2-x,1/2-y,-z
1/2+x,1/2+y,-z
1/2-x,1/2+y,z
1/2+x,1/2-y,z
loop_
_atom_site_type_symbol
_atom_site_label
_atom_site_fract_x
_atom_site_fract_y
_atom_site_fract_z
Si Si1 0.947802 0.880412 0.831537
Si Si2 0.448177 0.766994 0.672089
Si Si3 0.280291 0.918452 0.822546
Si Si4 0.695608 0.317985 0.174211
Si Si5 0.153071 0.319001 0.324540
Si Si6 0.365835 0.577659 0.667209
O O1 0.945190 0.798553 0.783252
O O2 0.919940 0.928980 0.713027
O O3 0.000000 0.909564 0.826264
O O4 0.927719 0.887026 0.000000
O O5 0.443479 0.741062 0.500000
O O6 0.500000 0.804350 0.693685
O O7 0.402751 0.815339 0.711470
O O8 0.240459 0.862727 0.766963
O O9 0.328789 0.892528 0.748207
O O10 0.269499 0.000000 0.771667
O O11 0.284926 0.915411 0.000000
O O12 0.685418 0.244767 0.259304
O O13 0.652812 0.370084 0.205769
O O14 0.700326 0.299694 0.000000
O O15 0.162168 0.320405 0.500000
O O16 0.359750 0.609677 0.500000
O O17 0.342185 0.500000 0.674448
#
# Coordination Sequence:
#
# PCOD8270645 Si02
#       6
#    16  16  16  16  16  16
#     4  10  20  33  51  75 103 140 188 238 286 337
#     4   9  18  34  56  82 115 151 185 228 284 342
#     4  10  23  42  61  83 115 155 195 236 289 347
#     4  11  22  38  60  84 112 150 195 239 283 337
#     4  11  22  36  60  92 120 149 190 236 285 342
#     4  11  23  36  51  74 107 148 191 237 291 344
#
# _framework density 20.007097999999999
#
# number of rings (size 3 to 8) (size 9 to 14) (size 15 to 20)
#    0.000    1.667    1.667    3.000    0.000    7.667 
#    0.000    1.667    0.000    0.500    0.000    3.500 
#    0.000    0.000    0.000    0.000    0.000    0.000 
#
# Total GULP energy -594736.900826 kJ/mol
# GULP energy per Si atom -12390.352101 kJ/mol
# Density = 1.996156 g / cm^3
# Si number density = 20.007098 Si / 1000 Ang^3
#
#
#
# Elastic Constant Matrix: (Units=GPa)
#
#
# Indices 1 2 3 4 5 6 
#
# 1 107.1976 54.2869 30.8746 0.0000 0.0000 0.0000
# 2 54.2869 74.0703 28.8534 0.0000 0.0000 0.0000
# 3 30.8746 28.8534 51.4989 0.0000 0.0000 0.0000
# 4 0.0000 0.0000 0.0000 27.4324 0.0000 0.0000
# 5 0.0000 0.0000 0.0000 0.0000 30.1248 0.0000
# 6 0.0000 0.0000 0.0000 0.0000 0.0000 2.8509
#
#
#
# Elastic Compliance Matrix: (Units=1/GPa)
#
#
# Indices 1 2 3 4 5 6 
#
# 1 0.015371 -0.009818 -0.003714 0.000000 0.000000 0.000000
# 2 -0.009818 0.023542 -0.007303 0.000000 0.000000 0.000000
# 3 -0.003714 -0.007303 0.025736 0.000000 0.000000 0.000000
# 4 0.000000 0.000000 0.000000 0.036453 0.000000 0.000000
# 5 0.000000 0.000000 0.000000 0.000000 0.033195 0.000000
# 6 0.000000 0.000000 0.000000 0.000000 0.000000 0.350767
#
#
# Mechanical properties :
#
#
# Convention : Reuss Voigt Hill
#
# Bulk Modulus (GPa) = 43.52179 51.19964 47.36071
# Shear Modulus (GPa) = 9.35638 19.99841 14.67740
#
# Velocity S-wave (km/s) = 2.16487 3.16502 2.71146
# Velocity P-wave (km/s) = 5.29616 6.24522 5.79017
#
# Compressibility (1/GPa) = 0.02297700
#
# Stress axis : x y z
#
# Youngs Moduli (GPa) = 65.05966 42.47778 38.85563
#
# Poissons Ratio (x) = 0.41707 0.14431
# Poissons Ratio (y) = 0.63879 0.28378
# Poissons Ratio (z) = 0.24163 0.31023
#
# Static dielectric constant tensor:
#      x y z
#    x 4.067920 0.000000 0.000000 
#    y 0.000000 3.420910 0.000000 
#    z 0.000000 0.000000 3.594910 
# 
# 
# High freq. dielectric constant tensor:
#      x y z
#    x 1.790830 0.000000 0.000000 
#    y 0.000000 1.747240 0.000000 
#    z 0.000000 0.000000 1.783930 
# 
# From -- ./inp_files/12251.got.cif
#   From: 2010.03.12/outbox.cif.g09.slc.cpg/sg65_7_cif.got.tgz:12251.got - 2010.04.10 20:52:16.
