data_PCOD8270999
_publ_section_title
;
Structure prediction by ZEFSAII (Michael W. Deem and Ramdas Pophale) SiO2 
 PCOD8270999
Probable space group: C M M M
;
_chemical_formula_sum "Si O2"
_cell_formula_units_Z 88
_cell_length_a 28.172070
_cell_length_b 8.965325
_cell_length_c 23.939299
_cell_angle_alpha 90.000000
_cell_angle_beta 90.000000
_cell_angle_gamma 90.000000
_cell_volume 6046.390965
_symmetry_space_group_name_H-M "C M M M"
_symmetry_group_IT_number 65
_symmetry_cell_setting 'orthorhombic'
loop_
_space_group_symop_operation_xyz
x,y,z
-x,-y,z
x,-y,-z
-x,y,-z
-x,-y,-z
x,y,-z
-x,y,z
x,-y,z
1/2+x,1/2+y,z
1/2-x,1/2-y,z
1/2+x,1/2-y,-z
1/2-x,1/2+y,-z
1/2-x,1/2-y,-z
1/2+x,1/2+y,-z
1/2-x,1/2+y,z
1/2+x,1/2-y,z
loop_
_atom_site_type_symbol
_atom_site_label
_atom_site_fract_x
_atom_site_fract_y
_atom_site_fract_z
Si Si1 0.553443 0.175453 0.287884
Si Si2 0.700798 0.326814 0.434815
Si Si3 0.053335 0.822519 0.059170
Si Si4 0.443776 0.328943 0.500000
Si Si5 0.443259 0.332174 0.178230
Si Si6 0.892258 0.322581 0.398096
O O1 0.500000 0.238126 0.296907
O O2 0.575821 0.235627 0.230056
O O3 0.585834 0.227691 0.339126
O O4 0.552204 0.000000 0.283815
O O5 0.689256 0.304957 0.500000
O O6 0.703130 0.500000 0.418580
O O7 0.750000 0.250000 0.418491
O O8 0.660338 0.244243 0.399879
O O9 0.076852 0.768197 0.118130
O O10 0.000000 0.759903 0.056232
O O11 0.051853 0.000000 0.062779
O O12 0.079011 0.773679 0.000000
O O13 0.425482 0.500000 0.500000
O O14 0.500000 0.321004 0.500000
O O15 0.425092 0.246021 0.554360
O O16 0.500000 0.325971 0.175148
O O17 0.425357 0.500000 0.188258
O O18 0.890513 0.500000 0.405534
#
# Coordination Sequence:
#
# PCOD8270999 Si02
#       6
#    16  16  16   8  16  16
#     4   9  18  30  41  55  78 109 141 170 201 239
#     4  10  20  34  52  71  90 106 126 158 201 248
#     4   7   9  14  26  45  67  89 118 160 204 239
#     4  11  23  35  46  63  86 109 135 171 211 245
#     4   8  13  21  34  51  69  94 130 168 203 236
#     4  11  21  33  49  65  83 108 138 168 204 248
#
# _framework density 14.554136
#
# number of rings (size 3 to 8) (size 9 to 14) (size 15 to 20)
#    0.000    2.818    0.909    3.545    0.000    3.636 
#    0.000    1.818    0.000    0.545    0.000    3.818 
#    0.000    0.000    0.000    0.000    0.000    0.909 
#
# Total GULP energy -545106.804844 kJ/mol
# GULP energy per Si atom -12388.791019 kJ/mol
# Density = 1.452101 g / cm^3
# Si number density = 14.554136 Si / 1000 Ang^3
#
#
#
# Elastic Constant Matrix: (Units=GPa)
#
#
# Indices 1 2 3 4 5 6 
#
# 1 57.6989 28.0320 45.7050 0.0000 0.0000 0.0000
# 2 28.0320 52.5235 43.7294 0.0000 0.0000 0.0000
# 3 45.7050 43.7294 157.1909 0.0000 0.0000 0.0000
# 4 0.0000 0.0000 0.0000 9.8588 0.0000 0.0000
# 5 0.0000 0.0000 0.0000 0.0000 2.7746 0.0000
# 6 0.0000 0.0000 0.0000 0.0000 0.0000 18.4928
#
#
#
# Elastic Compliance Matrix: (Units=1/GPa)
#
#
# Indices 1 2 3 4 5 6 
#
# 1 0.025909 -0.009833 -0.004798 0.000000 0.000000 0.000000
# 2 -0.009833 0.028510 -0.005072 0.000000 0.000000 0.000000
# 3 -0.004798 -0.005072 0.009168 0.000000 0.000000 0.000000
# 4 0.000000 0.000000 0.000000 0.101432 0.000000 0.000000
# 5 0.000000 0.000000 0.000000 0.000000 0.360415 0.000000
# 6 0.000000 0.000000 0.000000 0.000000 0.000000 0.054075
#
#
# Mechanical properties :
#
#
# Convention : Reuss Voigt Hill
#
# Bulk Modulus (GPa) = 41.35574 55.81624 48.58599
# Shear Modulus (GPa) = 7.97479 16.22170 12.09825
#
# Velocity S-wave (km/s) = 2.34335 3.34215 2.88628
# Velocity P-wave (km/s) = 5.98319 7.30256 6.67555
#
# Compressibility (1/GPa) = 0.02418044
#
# Stress axis : x y z
#
# Youngs Moduli (GPa) = 38.59629 35.07531 109.07791
#
# Poissons Ratio (x) = 0.34491 0.52334
# Poissons Ratio (y) = 0.37953 0.55326
# Poissons Ratio (z) = 0.18518 0.17791
#
# Static dielectric constant tensor:
#      x y z
#    x 2.494060 0.000000 0.000000 
#    y 0.000000 2.784750 0.000000 
#    z 0.000000 0.000000 3.273250 
# 
# 
# High freq. dielectric constant tensor:
#      x y z
#    x 1.498930 0.000000 0.000000 
#    y 0.000000 1.550380 0.000000 
#    z 0.000000 0.000000 1.566660 
# 
# From -- ./inp_files/68444.got.cif
#   From: 2010.03.12/outbox.cif.g09.slc.cpg/sg65_35_cif.got.tgz:68444.got - 2010.04.10 20:52:16.
