data_PCOD8270145
_publ_section_title
;
Structure prediction by ZEFSAII (Michael W. Deem and Ramdas Pophale) SiO2 
 PCOD8270145
Probable space group: C M M M
;
_chemical_formula_sum "Si O2"
_cell_formula_units_Z 88
_cell_length_a 26.932145
_cell_length_b 8.860549
_cell_length_c 21.058118
_cell_angle_alpha 90.000000
_cell_angle_beta 90.000000
_cell_angle_gamma 90.000000
_cell_volume 5025.174306
_symmetry_space_group_name_H-M "C M M M"
_symmetry_group_IT_number 65
_symmetry_cell_setting 'orthorhombic'
loop_
_space_group_symop_operation_xyz
x,y,z
-x,-y,z
x,-y,-z
-x,y,-z
-x,-y,-z
x,y,-z
-x,y,z
x,-y,z
1/2+x,1/2+y,z
1/2-x,1/2-y,z
1/2+x,1/2-y,-z
1/2-x,1/2+y,-z
1/2-x,1/2-y,-z
1/2+x,1/2+y,-z
1/2-x,1/2+y,z
1/2+x,1/2-y,z
loop_
_atom_site_type_symbol
_atom_site_label
_atom_site_fract_x
_atom_site_fract_y
_atom_site_fract_z
Si Si1 0.354234 0.177151 0.879723
Si Si2 0.800729 0.673880 0.248501
Si Si3 0.804428 0.821240 0.000000
Si Si4 0.099005 0.677400 0.309032
Si Si5 0.943177 0.174926 0.189490
Si Si6 0.442190 0.326668 0.428335
O O1 0.315289 0.211730 0.823788
O O2 0.335759 0.270276 0.939537
O O3 0.408902 0.232272 0.859271
O O4 0.356798 0.000000 0.895696
O O5 0.791409 0.500000 0.257687
O O6 0.750000 0.750000 0.269072
O O7 0.844715 0.729093 0.294667
O O8 0.750000 0.750000 0.000000
O O9 0.798350 0.000000 0.000000
O O10 0.092291 0.500000 0.296944
O O11 0.062267 0.764134 0.261315
O O12 0.087702 0.718243 0.381493
O O13 0.000000 0.196912 0.167946
O O14 0.927688 0.000000 0.187930
O O15 0.424407 0.292336 0.500000
O O16 0.500000 0.290478 0.421684
O O17 0.431525 0.500000 0.410730
#
# Coordination Sequence:
#
# PCOD8270145 Si02
#       6
#    16  16   8  16  16  16
#     4  10  21  37  55  78 106 134 169 212 258 305
#     4   9  19  33  50  73  99 127 161 204 250 295
#     4  12  24  38  57  80 107 138 172 211 257 307
#     4  10  20  32  48  74 104 132 167 209 251 298
#     4  10  20  34  53  77 105 137 172 209 251 301
#     4   9  18  32  49  71 100 132 166 204 247 298
#
# _framework density 17.511831000000001
#
# number of rings (size 3 to 8) (size 9 to 14) (size 15 to 20)
#    0.000    2.182    0.000    5.182    0.000   10.182 
#    0.000    1.364    0.000    3.273    0.000    0.000 
#    0.000    0.000    0.000    0.000    0.000    0.000 
#
# Total GULP energy -545667.933732 kJ/mol
# GULP energy per Si atom -12401.543948 kJ/mol
# Density = 1.747197 g / cm^3
# Si number density = 17.511831 Si / 1000 Ang^3
#
#
#
# Elastic Constant Matrix: (Units=GPa)
#
#
# Indices 1 2 3 4 5 6 
#
# 1 92.5155 45.9515 37.1416 0.0000 0.0000 0.0000
# 2 45.9515 89.1938 42.0190 0.0000 0.0000 0.0000
# 3 37.1416 42.0190 89.9584 0.0000 0.0000 0.0000
# 4 0.0000 0.0000 0.0000 33.0148 0.0000 0.0000
# 5 0.0000 0.0000 0.0000 0.0000 19.5919 0.0000
# 6 0.0000 0.0000 0.0000 0.0000 0.0000 31.7801
#
#
#
# Elastic Compliance Matrix: (Units=1/GPa)
#
#
# Indices 1 2 3 4 5 6 
#
# 1 0.015286 -0.006285 -0.003375 0.000000 0.000000 0.000000
# 2 -0.006285 0.016959 -0.005326 0.000000 0.000000 0.000000
# 3 -0.003375 -0.005326 0.014998 0.000000 0.000000 0.000000
# 4 0.000000 0.000000 0.000000 0.030289 0.000000 0.000000
# 5 0.000000 0.000000 0.000000 0.000000 0.051042 0.000000
# 6 0.000000 0.000000 0.000000 0.000000 0.000000 0.031466
#
#
# Mechanical properties :
#
#
# Convention : Reuss Voigt Hill
#
# Bulk Modulus (GPa) = 57.90812 57.98800 57.94806
# Shear Modulus (GPa) = 25.54025 26.64771 26.09398
#
# Velocity S-wave (km/s) = 3.82312 3.90513 3.86434
# Velocity P-wave (km/s) = 7.25452 7.31566 7.28515
#
# Compressibility (1/GPa) = 0.01726874
#
# Stress axis : x y z
#
# Youngs Moduli (GPa) = 65.42039 58.96682 66.67615
#
# Poissons Ratio (x) = 0.37060 0.22507
# Poissons Ratio (y) = 0.41116 0.35515
# Poissons Ratio (z) = 0.22083 0.31408
#
# Static dielectric constant tensor:
#      x y z
#    x 3.318880 0.000000 0.000000 
#    y 0.000000 3.296600 0.000000 
#    z 0.000000 0.000000 3.198180 
# 
# 
# High freq. dielectric constant tensor:
#      x y z
#    x 1.672990 0.000000 0.000000 
#    y 0.000000 1.687340 0.000000 
#    z 0.000000 0.000000 1.666840 
# 
# From -- ./inp_files/65159.got.cif
#   From: 2010.03.12/outbox.cif.g09.slc.cpg/sg65_33_cif.got.tgz:65159.got - 2010.04.10 20:52:16.
