data_PCOD8270256
_publ_section_title
;
Structure prediction by ZEFSAII (Michael W. Deem and Ramdas Pophale) SiO2 
 PCOD8270256
Probable space group: C M M M
;
_chemical_formula_sum "Si O2"
_cell_formula_units_Z 112
_cell_length_a 19.045660
_cell_length_b 16.777542
_cell_length_c 19.168815
_cell_angle_alpha 90.000000
_cell_angle_beta 90.000000
_cell_angle_gamma 90.000000
_cell_volume 6125.190888
_symmetry_space_group_name_H-M "C M M M"
_symmetry_group_IT_number 65
_symmetry_cell_setting 'orthorhombic'
loop_
_space_group_symop_operation_xyz
x,y,z
-x,-y,z
x,-y,-z
-x,y,-z
-x,-y,-z
x,y,-z
-x,y,z
x,-y,z
1/2+x,1/2+y,z
1/2-x,1/2-y,z
1/2+x,1/2-y,-z
1/2-x,1/2+y,-z
1/2-x,1/2-y,-z
1/2+x,1/2+y,-z
1/2-x,1/2+y,z
1/2+x,1/2-y,z
loop_
_atom_site_type_symbol
_atom_site_label
_atom_site_fract_x
_atom_site_fract_y
_atom_site_fract_z
Si Si1 0.422070 0.837762 0.421481
Si Si2 0.280631 0.090531 0.575865
Si Si3 0.307606 0.406651 0.704048
Si Si4 0.081839 0.733053 0.152337
Si Si5 0.578916 0.282211 0.305666
Si Si6 0.663530 0.907715 0.919039
Si Si7 0.287324 0.668554 0.848034
O O1 0.424408 0.804056 0.500000
O O2 0.500000 0.868773 0.399284
O O3 0.365015 0.907548 0.413968
O O4 0.395025 0.767700 0.371677
O O5 0.260890 0.130437 0.500000
O O6 0.242183 0.129588 0.642657
O O7 0.256775 0.000000 0.572924
O O8 0.317434 0.500000 0.696363
O O9 0.382323 0.365756 0.696929
O O10 0.278926 0.387414 0.780713
O O11 0.089106 0.729203 0.235996
O O12 0.108458 0.648310 0.122386
O O13 0.132664 0.807509 0.127599
O O14 0.000000 0.748136 0.130051
O O15 0.500000 0.308597 0.316024
O O16 0.743948 0.877230 0.908328
O O17 0.655425 0.000000 0.894788
O O18 0.645458 0.899649 0.000000
O O19 0.250000 0.750000 0.826771
#
# Coordination Sequence:
#
# PCOD8270256 Si02
#       7
#    16  16  16  16  16  16  16
#     4   9  18  32  50  71  97 133 174 213 253 300
#     4   9  19  32  46  70 102 132 166 212 260 304
#     4  10  20  32  51  74  99 132 168 209 257 302
#     4   9  19  35  54  78 106 138 173 215 261 303
#     4   9  19  35  52  71 100 131 168 214 255 301
#     4  10  21  36  55  80 110 141 171 207 252 308
#     4   9  19  34  55  77 103 138 175 213 250 302
#
# _framework density 18.285145
#
# number of rings (size 3 to 8) (size 9 to 14) (size 15 to 20)
#    0.000    2.714    0.000    0.429    6.000    4.286 
#    0.000    3.571    0.000    3.857    0.000    5.000 
#    0.000    0.000    0.000    0.000    0.000    0.000 
#
# Total GULP energy -693758.680776 kJ/mol
# GULP energy per Si atom -12388.547871 kJ/mol
# Density = 1.824353 g / cm^3
# Si number density = 18.285145 Si / 1000 Ang^3
#
#
#
# Elastic Constant Matrix: (Units=GPa)
#
#
# Indices 1 2 3 4 5 6 
#
# 1 99.6682 41.6250 37.6830 0.0000 0.0000 0.0000
# 2 41.6250 79.1364 43.2184 0.0000 0.0000 0.0000
# 3 37.6830 43.2184 76.3368 0.0000 0.0000 0.0000
# 4 0.0000 0.0000 0.0000 22.5317 0.0000 0.0000
# 5 0.0000 0.0000 0.0000 0.0000 23.3143 0.0000
# 6 0.0000 0.0000 0.0000 0.0000 0.0000 21.4009
#
#
#
# Elastic Compliance Matrix: (Units=1/GPa)
#
#
# Indices 1 2 3 4 5 6 
#
# 1 0.013599 -0.005047 -0.003855 0.000000 0.000000 0.000000
# 2 -0.005047 0.020166 -0.008925 0.000000 0.000000 0.000000
# 3 -0.003855 -0.008925 0.020056 0.000000 0.000000 0.000000
# 4 0.000000 0.000000 0.000000 0.044382 0.000000 0.000000
# 5 0.000000 0.000000 0.000000 0.000000 0.042892 0.000000
# 6 0.000000 0.000000 0.000000 0.000000 0.000000 0.046727
#
#
# Mechanical properties :
#
#
# Convention : Reuss Voigt Hill
#
# Bulk Modulus (GPa) = 55.05222 55.57713 55.31467
# Shear Modulus (GPa) = 21.78341 22.29038 22.03690
#
# Velocity S-wave (km/s) = 3.45529 3.49527 3.47534
# Velocity P-wave (km/s) = 6.78909 6.83739 6.81328
#
# Compressibility (1/GPa) = 0.01816457
#
# Stress axis : x y z
#
# Youngs Moduli (GPa) = 73.53525 49.58947 49.86022
#
# Poissons Ratio (x) = 0.25030 0.19223
# Poissons Ratio (y) = 0.37116 0.44501
# Poissons Ratio (z) = 0.28351 0.44260
#
# Static dielectric constant tensor:
#      x y z
#    x 3.630100 0.000000 0.000000 
#    y 0.000000 3.197680 0.000000 
#    z 0.000000 0.000000 3.533060 
# 
# 
# High freq. dielectric constant tensor:
#      x y z
#    x 1.711400 0.000000 0.000000 
#    y 0.000000 1.685510 0.000000 
#    z 0.000000 0.000000 1.711740 
# 
# From -- ./inp_files/56059.got.cif
#   From: 2010.03.12/outbox.cif.g09.slc.cpg/sg65_29_cif.got.tgz:56059.got - 2010.04.10 20:52:16.
