data_PCOD8270458
_publ_section_title
;
Structure prediction by ZEFSAII (Michael W. Deem and Ramdas Pophale) SiO2 
 PCOD8270458
Probable space group: C M M M
;
_chemical_formula_sum "Si O2"
_cell_formula_units_Z 96
_cell_length_a 18.659733
_cell_length_b 9.545965
_cell_length_c 30.622918
_cell_angle_alpha 90.000000
_cell_angle_beta 90.000000
_cell_angle_gamma 90.000000
_cell_volume 5454.712111
_symmetry_space_group_name_H-M "C M M M"
_symmetry_group_IT_number 65
_symmetry_cell_setting 'orthorhombic'
loop_
_space_group_symop_operation_xyz
x,y,z
-x,-y,z
x,-y,-z
-x,y,-z
-x,-y,-z
x,y,-z
-x,y,z
x,-y,z
1/2+x,1/2+y,z
1/2-x,1/2-y,z
1/2+x,1/2-y,-z
1/2-x,1/2+y,-z
1/2-x,1/2-y,-z
1/2+x,1/2+y,-z
1/2-x,1/2+y,z
1/2+x,1/2-y,z
loop_
_atom_site_type_symbol
_atom_site_label
_atom_site_fract_x
_atom_site_fract_y
_atom_site_fract_z
Si Si1 0.420110 0.665442 0.873301
Si Si2 0.917590 0.837852 0.709699
Si Si3 0.680543 0.662623 0.950279
Si Si4 0.176651 0.834802 0.793409
Si Si5 0.819388 0.337870 0.549064
Si Si6 0.917395 0.661459 0.628003
O O1 0.500000 0.731887 0.870392
O O2 0.426902 0.500000 0.869119
O O3 0.385261 0.708421 0.919590
O O4 0.369842 0.720413 0.834328
O O5 0.868994 0.798428 0.750690
O O6 0.887817 0.751046 0.668532
O O7 0.000000 0.798316 0.720663
O O8 0.910868 0.000000 0.697635
O O9 0.699749 0.500000 0.943634
O O10 0.750000 0.750000 0.936506
O O11 0.657633 0.694848 0.000000
O O12 0.250000 0.750000 0.792045
O O13 0.193326 0.000000 0.796962
O O14 0.846893 0.304725 0.500000
O O15 0.799119 0.500000 0.553872
O O16 0.750000 0.250000 0.560891
O O17 0.880134 0.292854 0.583085
O O18 0.902964 0.500000 0.639198
O O19 0.000000 0.694448 0.620463
#
# Coordination Sequence:
#
# PCOD8270458 Si02
#       6
#    16  16  16  16  16  16
#     4   9  17  30  49  71  94 122 158 198 235 273
#     4   9  18  33  51  69  91 121 156 191 228 273
#     4   9  17  29  47  71  97 125 156 192 235 280
#     4  10  20  33  50  71  94 122 156 193 233 277
#     4   9  18  32  49  69  94 124 156 190 228 271
#     4   9  18  32  50  72  96 122 153 190 232 275
#
# _framework density 17.599463
#
# number of rings (size 3 to 8) (size 9 to 14) (size 15 to 20)
#    0.000    2.833    0.000    1.000    0.000    4.667 
#    0.000    6.667    0.000    3.000    0.000    7.000 
#    0.000    0.000    0.000    0.000    0.000    0.000 
#
# Total GULP energy -595180.464747 kJ/mol
# GULP energy per Si atom -12399.593016 kJ/mol
# Density = 1.755941 g / cm^3
# Si number density = 17.599463 Si / 1000 Ang^3
#
#
#
# Elastic Constant Matrix: (Units=GPa)
#
#
# Indices 1 2 3 4 5 6 
#
# 1 123.8565 46.7989 87.8371 0.0000 0.0000 0.0000
# 2 46.7989 40.9275 50.2876 0.0000 0.0000 0.0000
# 3 87.8371 50.2876 146.4436 0.0000 0.0000 0.0000
# 4 0.0000 0.0000 0.0000 23.7696 0.0000 0.0000
# 5 0.0000 0.0000 0.0000 0.0000 31.2711 0.0000
# 6 0.0000 0.0000 0.0000 0.0000 0.0000 27.4038
#
#
#
# Elastic Compliance Matrix: (Units=1/GPa)
#
#
# Indices 1 2 3 4 5 6 
#
# 1 0.016814 -0.011823 -0.006025 0.000000 0.000000 0.000000
# 2 -0.011823 0.050581 -0.010277 0.000000 0.000000 0.000000
# 3 -0.006025 -0.010277 0.013972 0.000000 0.000000 0.000000
# 4 0.000000 0.000000 0.000000 0.042071 0.000000 0.000000
# 5 0.000000 0.000000 0.000000 0.000000 0.031978 0.000000
# 6 0.000000 0.000000 0.000000 0.000000 0.000000 0.036491
#
#
# Mechanical properties :
#
#
# Convention : Reuss Voigt Hill
#
# Bulk Modulus (GPa) = 39.81705 75.67496 57.74600
# Shear Modulus (GPa) = 19.49091 24.90917 22.20004
#
# Velocity S-wave (km/s) = 3.33148 3.76618 3.55548
# Velocity P-wave (km/s) = 6.12139 7.87426 7.05250
#
# Compressibility (1/GPa) = 0.02511487
#
# Stress axis : x y z
#
# Youngs Moduli (GPa) = 59.47353 19.77045 71.57344
#
# Poissons Ratio (x) = 0.23375 0.43124
# Poissons Ratio (y) = 0.70317 0.73559
# Poissons Ratio (z) = 0.35834 0.20319
#
# Static dielectric constant tensor:
#      x y z
#    x 3.304780 0.000000 0.000000 
#    y 0.000000 3.109880 0.000000 
#    z 0.000000 0.000000 3.492630 
# 
# 
# High freq. dielectric constant tensor:
#      x y z
#    x 1.676710 0.000000 0.000000 
#    y 0.000000 1.657210 0.000000 
#    z 0.000000 0.000000 1.694950 
# 
# From -- ./inp_files/69102.got.cif
#   From: 2010.03.12/outbox.cif.g09.slc.cpg/sg65_35_cif.got.tgz:69102.got - 2010.04.10 20:52:16.
