data_PCOD8270280
_publ_section_title
;
Structure prediction by ZEFSAII (Michael W. Deem and Ramdas Pophale) SiO2 
 PCOD8270280
Probable space group: C M M M
;
_chemical_formula_sum "Si O2"
_cell_formula_units_Z 90
_cell_length_a 28.447792
_cell_length_b 7.974847
_cell_length_c 20.983883
_cell_angle_alpha 90.000000
_cell_angle_beta 90.000000
_cell_angle_gamma 90.000000
_cell_volume 4760.546150
_symmetry_space_group_name_H-M "C M M M"
_symmetry_group_IT_number 65
_symmetry_cell_setting 'orthorhombic'
loop_
_space_group_symop_operation_xyz
x,y,z
-x,-y,z
x,-y,-z
-x,y,-z
-x,-y,-z
x,y,-z
-x,y,z
x,-y,z
1/2+x,1/2+y,z
1/2-x,1/2-y,z
1/2+x,1/2-y,-z
1/2-x,1/2+y,-z
1/2-x,1/2-y,-z
1/2+x,1/2+y,-z
1/2-x,1/2+y,z
1/2+x,1/2-y,z
loop_
_atom_site_type_symbol
_atom_site_label
_atom_site_fract_x
_atom_site_fract_y
_atom_site_fract_z
Si Si1 0.200825 0.806414 0.239337
Si Si2 0.897802 0.810474 0.811900
Si Si3 0.500000 0.000000 0.000000
Si Si4 0.946602 0.690633 0.690973
Si Si5 0.604749 0.309220 0.571285
Si Si6 0.801070 0.309858 0.620498
Si Si7 0.948968 0.500000 0.873139
O O1 0.250000 0.750000 0.206360
O O2 0.158072 0.773093 0.190563
O O3 0.193246 0.700634 0.303306
O O4 0.203002 0.000000 0.259315
O O5 0.918071 0.805439 0.740220
O O6 0.921605 0.671451 0.856448
O O7 0.906942 0.000000 0.838515
O O8 0.542616 0.000000 0.051294
O O9 0.943436 0.500000 0.715848
O O10 0.924359 0.698095 0.620889
O O11 0.000000 0.754131 0.687744
O O12 0.594399 0.242851 0.500000
O O13 0.588051 0.500000 0.578244
O O14 0.660256 0.301443 0.585182
O O15 0.809025 0.500000 0.599388
O O16 0.750000 0.250000 0.598030
O O17 0.000000 0.500000 0.836734
#
# Coordination Sequence:
#
# PCOD8270280 Si02
#       7
#    16  16   2  16  16  16   8
#     4  10  20  32  52  85 123 157 197 250 314 369
#     4  11  22  36  61  95 128 165 207 256 308 363
#     4   8  24  48  66 104 140 174 222 248 282 356
#     4  11  23  38  57  82 111 147 194 255 309 367
#     4  11  24  40  55  73 102 143 195 253 314 380
#     4  11  21  34  54  75 103 143 186 240 308 369
#     4  10  22  42  66  94 135 170 210 247 293 354
#
# _framework density 18.905394000000001
#
# number of rings (size 3 to 8) (size 9 to 14) (size 15 to 20)
#    0.267    1.067    2.667    4.800    2.489    4.622 
#    0.000    2.667    0.000    0.000    0.000    0.622 
#    0.000    0.000    0.000    0.000    0.000    0.000 
#
# Total GULP energy -557530.597353 kJ/mol
# GULP energy per Si atom -12389.568830 kJ/mol
# Density = 1.886236 g / cm^3
# Si number density = 18.905394 Si / 1000 Ang^3
#
#
#
# Elastic Constant Matrix: (Units=GPa)
#
#
# Indices 1 2 3 4 5 6 
#
# 1 124.2758 39.4752 40.5661 0.0000 0.0000 0.0000
# 2 39.4752 91.1647 29.1029 0.0000 0.0000 0.0000
# 3 40.5661 29.1029 83.5639 0.0000 0.0000 0.0000
# 4 0.0000 0.0000 0.0000 7.7917 0.0000 0.0000
# 5 0.0000 0.0000 0.0000 0.0000 23.1323 0.0000
# 6 0.0000 0.0000 0.0000 0.0000 0.0000 26.3758
#
#
#
# Elastic Compliance Matrix: (Units=1/GPa)
#
#
# Indices 1 2 3 4 5 6 
#
# 1 0.010346 -0.003236 -0.003895 0.000000 0.000000 0.000000
# 2 -0.003236 0.013354 -0.003080 0.000000 0.000000 0.000000
# 3 -0.003895 -0.003080 0.014930 0.000000 0.000000 0.000000
# 4 0.000000 0.000000 0.000000 0.128342 0.000000 0.000000
# 5 0.000000 0.000000 0.000000 0.000000 0.043230 0.000000
# 6 0.000000 0.000000 0.000000 0.000000 0.000000 0.037914
#
#
# Mechanical properties :
#
#
# Convention : Reuss Voigt Hill
#
# Bulk Modulus (GPa) = 54.92251 57.47698 56.19974
# Shear Modulus (GPa) = 18.20782 24.11729 21.16255
#
# Velocity S-wave (km/s) = 3.10675 3.57555 3.34936
# Velocity P-wave (km/s) = 6.47947 6.89307 6.68947
#
# Compressibility (1/GPa) = 0.01820747
#
# Stress axis : x y z
#
# Youngs Moduli (GPa) = 96.65394 74.88576 66.97735
#
# Poissons Ratio (x) = 0.24236 0.26090
# Poissons Ratio (y) = 0.31282 0.20626
# Poissons Ratio (z) = 0.37650 0.23061
#
# Static dielectric constant tensor:
#      x y z
#    x 3.724320 0.000000 0.000000 
#    y 0.000000 3.424780 0.000000 
#    z 0.000000 0.000000 2.962730 
# 
# 
# High freq. dielectric constant tensor:
#      x y z
#    x 1.751900 0.000000 0.000000 
#    y 0.000000 1.740670 0.000000 
#    z 0.000000 0.000000 1.679610 
# 
# From -- ./inp_files/66293.got.cif
#   From: 2010.03.12/outbox.cif.g09.slc.cpg/sg65_34_cif.got.tgz:66293.got - 2010.04.10 20:52:16.
