data_PCOD8270530
_publ_section_title
;
Structure prediction by ZEFSAII (Michael W. Deem and Ramdas Pophale) SiO2 
 PCOD8270530
Probable space group: C M M M
;
_chemical_formula_sum "Si O2"
_cell_formula_units_Z 104
_cell_length_a 8.727234
_cell_length_b 32.752465
_cell_length_c 20.711581
_cell_angle_alpha 90.000000
_cell_angle_beta 90.000000
_cell_angle_gamma 90.000000
_cell_volume 5920.165716
_symmetry_space_group_name_H-M "C M M M"
_symmetry_group_IT_number 65
_symmetry_cell_setting 'orthorhombic'
loop_
_space_group_symop_operation_xyz
x,y,z
-x,-y,z
x,-y,-z
-x,y,-z
-x,-y,-z
x,y,-z
-x,y,z
x,-y,z
1/2+x,1/2+y,z
1/2-x,1/2-y,z
1/2+x,1/2-y,-z
1/2-x,1/2+y,-z
1/2-x,1/2-y,-z
1/2+x,1/2+y,-z
1/2-x,1/2+y,z
1/2+x,1/2-y,z
loop_
_atom_site_type_symbol
_atom_site_label
_atom_site_fract_x
_atom_site_fract_y
_atom_site_fract_z
Si Si1 0.321215 0.500000 0.788545
Si Si2 0.820679 0.454177 0.000000
Si Si3 0.823141 0.658042 0.427904
Si Si4 0.178543 0.500000 0.650649
Si Si5 0.321543 0.583661 0.364575
Si Si6 0.819025 0.130719 0.764384
Si Si7 0.819199 0.574089 0.138095
Si Si8 0.319324 0.793907 0.303475
O O1 0.500000 0.500000 0.769567
O O2 0.220153 0.500000 0.725205
O O3 0.281585 0.539473 0.829179
O O4 0.774068 0.427547 0.062518
O O5 0.745409 0.500000 0.000000
O O6 0.000000 0.461295 0.000000
O O7 0.789499 0.674702 0.500000
O O8 0.727225 0.617010 0.417099
O O9 0.775345 0.692729 0.376566
O O10 0.000000 0.646428 0.418477
O O11 0.243009 0.459096 0.617679
O O12 0.000000 0.500000 0.640521
O O13 0.500000 0.576584 0.369060
O O14 0.275139 0.599100 0.292855
O O15 0.734179 0.116703 0.830132
O O16 0.756368 0.175332 0.747397
O O17 0.000000 0.132908 0.775332
O O18 0.000000 0.566814 0.148857
O O19 0.500000 0.793097 0.292627
O O20 0.250000 0.750000 0.289828
#
# Coordination Sequence:
#
# PCOD8270530 Si02
#       8
#     8   8  16   8  16  16  16  16
#     4  12  22  31  45  71 104 136 175 222 265 307
#     4   9  18  32  48  72 105 144 187 226 258 300
#     4   9  19  36  55  75 103 138 173 206 247 308
#     4  12  22  32  50  72  96 132 176 219 265 312
#     4  10  20  33  50  73 102 130 167 218 265 306
#     4  10  20  34  52  75 105 135 169 215 264 311
#     4  11  20  33  52  73 102 143 185 220 260 307
#     4  10  20  35  56  82 109 135 167 206 258 312
#
# _framework density 17.567074999999999
#
# number of rings (size 3 to 8) (size 9 to 14) (size 15 to 20)
#    0.000    1.769    2.308    3.231    0.000    2.462 
#    0.000    2.308    0.000    2.308    0.000    0.538 
#    0.000    0.000    0.000    0.000    0.000    0.000 
#
# Total GULP energy -644833.680057 kJ/mol
# GULP energy per Si atom -12400.647693 kJ/mol
# Density = 1.752709 g / cm^3
# Si number density = 17.567075 Si / 1000 Ang^3
#
#
#
# Elastic Constant Matrix: (Units=GPa)
#
#
# Indices 1 2 3 4 5 6 
#
# 1 64.3589 39.2127 18.5597 0.0000 0.0000 0.0000
# 2 39.2127 123.7813 39.5589 0.0000 0.0000 0.0000
# 3 18.5597 39.5589 89.1933 0.0000 0.0000 0.0000
# 4 0.0000 0.0000 0.0000 28.1151 0.0000 0.0000
# 5 0.0000 0.0000 0.0000 0.0000 17.3138 0.0000
# 6 0.0000 0.0000 0.0000 0.0000 0.0000 31.3159
#
#
#
# Elastic Compliance Matrix: (Units=1/GPa)
#
#
# Indices 1 2 3 4 5 6 
#
# 1 0.019432 -0.005667 -0.001530 0.000000 0.000000 0.000000
# 2 -0.005667 0.011066 -0.003729 0.000000 0.000000 0.000000
# 3 -0.001530 -0.003729 0.013184 0.000000 0.000000 0.000000
# 4 0.000000 0.000000 0.000000 0.035568 0.000000 0.000000
# 5 0.000000 0.000000 0.000000 0.000000 0.057758 0.000000
# 6 0.000000 0.000000 0.000000 0.000000 0.000000 0.031933
#
#
# Mechanical properties :
#
#
# Convention : Reuss Voigt Hill
#
# Bulk Modulus (GPa) = 45.80849 52.44402 49.12625
# Shear Modulus (GPa) = 25.24396 27.34908 26.29652
#
# Velocity S-wave (km/s) = 3.79490 3.94996 3.87320
# Velocity P-wave (km/s) = 6.73310 7.12189 6.93022
#
# Compressibility (1/GPa) = 0.02183002
#
# Stress axis : x y z
#
# Youngs Moduli (GPa) = 51.46200 90.37039 75.85113
#
# Poissons Ratio (x) = 0.51211 0.11606
# Poissons Ratio (y) = 0.29162 0.28282
# Poissons Ratio (z) = 0.07874 0.33696
#
# Static dielectric constant tensor:
#      x y z
#    x 3.267410 0.000000 0.000000 
#    y 0.000000 3.248170 0.000000 
#    z 0.000000 0.000000 3.313390 
# 
# 
# High freq. dielectric constant tensor:
#      x y z
#    x 1.686930 0.000000 0.000000 
#    y 0.000000 1.666270 0.000000 
#    z 0.000000 0.000000 1.659790 
# 
# From -- ./inp_files/60979.got.cif
#   From: 2010.03.12/outbox.cif.g09.slc.cpg/sg65_31_cif.got.tgz:60979.got - 2010.04.10 20:52:16.
