data_PCOD8270254
_publ_section_title
;
Structure prediction by ZEFSAII (Michael W. Deem and Ramdas Pophale) SiO2 
 PCOD8270254
Probable space group: C M M M
;
_chemical_formula_sum "Si O2"
_cell_formula_units_Z 88
_cell_length_a 23.312511
_cell_length_b 9.004938
_cell_length_c 22.365625
_cell_angle_alpha 90.000000
_cell_angle_beta 90.000000
_cell_angle_gamma 90.000000
_cell_volume 4695.164577
_symmetry_space_group_name_H-M "C M M M"
_symmetry_group_IT_number 65
_symmetry_cell_setting 'orthorhombic'
loop_
_space_group_symop_operation_xyz
x,y,z
-x,-y,z
x,-y,-z
-x,y,-z
-x,-y,-z
x,y,-z
-x,y,z
x,-y,z
1/2+x,1/2+y,z
1/2-x,1/2-y,z
1/2+x,1/2-y,-z
1/2-x,1/2+y,-z
1/2-x,1/2-y,-z
1/2+x,1/2+y,-z
1/2-x,1/2+y,z
1/2+x,1/2-y,z
loop_
_atom_site_type_symbol
_atom_site_label
_atom_site_fract_x
_atom_site_fract_y
_atom_site_fract_z
Si Si1 0.500000 0.673664 0.134538
Si Si2 0.116443 0.327426 0.324851
Si Si3 0.809881 0.173781 0.227053
Si Si4 0.875700 0.172924 0.894325
Si Si5 0.565490 0.327702 0.568507
Si Si6 0.689027 0.175218 0.000000
Si Si7 0.500000 0.831931 0.742797
O O1 0.500000 0.500000 0.140242
O O2 0.557761 0.723788 0.100638
O O3 0.500000 0.726819 0.201468
O O4 0.132713 0.500000 0.326900
O O5 0.165416 0.242969 0.287882
O O6 0.111072 0.264077 0.391918
O O7 0.055295 0.295738 0.295831
O O8 0.750000 0.250000 0.210549
O O9 0.853330 0.204628 0.172460
O O10 0.799924 0.000000 0.236891
O O11 0.843260 0.276060 0.940509
O O12 0.867321 0.000000 0.911353
O O13 0.583165 0.301169 0.500000
O O14 0.500000 0.272886 0.578809
O O15 0.570192 0.500000 0.585621
O O16 0.750000 0.250000 0.000000
O O17 0.696411 0.000000 0.000000
O O18 0.500000 0.000000 0.765989
#
# Coordination Sequence:
#
# PCOD8270254 Si02
#       7
#     8  16  16  16  16   8   8
#     4  10  20  37  61  89 118 152 187 225 279 342
#     4  11  21  34  54  83 117 153 189 232 285 338
#     4  11  23  39  60  85 113 148 191 239 285 335
#     4  10  22  40  63  89 118 150 188 231 281 337
#     4   9  18  32  51  78 113 152 192 233 279 335
#     4  12  26  43  64  85 113 152 196 240 285 334
#     4  10  20  32  50  82 120 153 184 226 281 338
#
# _framework density 18.742685999999999
#
# number of rings (size 3 to 8) (size 9 to 14) (size 15 to 20)
#    0.000    1.636    2.727    3.000    0.000    5.091 
#    0.000    2.727    0.000    0.545    0.000    0.000 
#    0.000    0.000    0.000    0.000    0.000    0.000 
#
# Total GULP energy -545684.978139 kJ/mol
# GULP energy per Si atom -12401.931321 kJ/mol
# Density = 1.870003 g / cm^3
# Si number density = 18.742686 Si / 1000 Ang^3
#
#
#
# Elastic Constant Matrix: (Units=GPa)
#
#
# Indices 1 2 3 4 5 6 
#
# 1 105.8511 68.0344 39.2528 0.0000 0.0000 0.0000
# 2 68.0344 91.1930 59.5393 0.0000 0.0000 0.0000
# 3 39.2528 59.5393 103.5811 0.0000 0.0000 0.0000
# 4 0.0000 0.0000 0.0000 35.1631 0.0000 0.0000
# 5 0.0000 0.0000 0.0000 0.0000 23.4714 0.0000
# 6 0.0000 0.0000 0.0000 0.0000 0.0000 30.7887
#
#
#
# Elastic Compliance Matrix: (Units=1/GPa)
#
#
# Indices 1 2 3 4 5 6 
#
# 1 0.018288 -0.014597 0.001460 0.000000 0.000000 0.000000
# 2 -0.014597 0.029204 -0.011255 0.000000 0.000000 0.000000
# 3 0.001460 -0.011255 0.015571 0.000000 0.000000 0.000000
# 4 0.000000 0.000000 0.000000 0.028439 0.000000 0.000000
# 5 0.000000 0.000000 0.000000 0.000000 0.042605 0.000000
# 6 0.000000 0.000000 0.000000 0.000000 0.000000 0.032479
#
#
# Mechanical properties :
#
#
# Convention : Reuss Voigt Hill
#
# Bulk Modulus (GPa) = 70.03511 70.47536 70.25524
# Shear Modulus (GPa) = 22.71394 26.80455 24.75924
#
# Velocity S-wave (km/s) = 3.48499 3.78581 3.63851
# Velocity P-wave (km/s) = 7.32402 7.53611 7.43082
#
# Compressibility (1/GPa) = 0.01427855
#
# Stress axis : x y z
#
# Youngs Moduli (GPa) = 54.68161 34.24171 64.22379
#
# Poissons Ratio (x) = 0.49982 -0.09377
# Poissons Ratio (y) = 0.79818 0.72285
# Poissons Ratio (z) = -0.07984 0.38540
#
# Static dielectric constant tensor:
#      x y z
#    x 3.746580 0.000000 0.000000 
#    y 0.000000 3.443270 0.000000 
#    z 0.000000 0.000000 3.402150 
# 
# 
# High freq. dielectric constant tensor:
#      x y z
#    x 1.721320 0.000000 0.000000 
#    y 0.000000 1.730210 0.000000 
#    z 0.000000 0.000000 1.727670 
# 
# From -- ./inp_files/65236.got.cif
#   From: 2010.03.12/outbox.cif.g09.slc.cpg/sg65_33_cif.got.tgz:65236.got - 2010.04.10 20:52:16.
