data_PCOD8270124
_publ_section_title
;
Structure prediction by ZEFSAII (Michael W. Deem and Ramdas Pophale) SiO2 
 PCOD8270124
Probable space group: C M M M
;
_chemical_formula_sum "Si O2"
_cell_formula_units_Z 96
_cell_length_a 31.063902
_cell_length_b 19.146813
_cell_length_c 9.297120
_cell_angle_alpha 90.000000
_cell_angle_beta 90.000000
_cell_angle_gamma 90.000000
_cell_volume 5529.691969
_symmetry_space_group_name_H-M "C M M M"
_symmetry_group_IT_number 65
_symmetry_cell_setting 'orthorhombic'
loop_
_space_group_symop_operation_xyz
x,y,z
-x,-y,z
x,-y,-z
-x,y,-z
-x,-y,-z
x,y,-z
-x,y,z
x,-y,z
1/2+x,1/2+y,z
1/2-x,1/2-y,z
1/2+x,1/2-y,-z
1/2-x,1/2+y,-z
1/2-x,1/2-y,-z
1/2+x,1/2+y,-z
1/2-x,1/2+y,z
1/2+x,1/2-y,z
loop_
_atom_site_type_symbol
_atom_site_label
_atom_site_fract_x
_atom_site_fract_y
_atom_site_fract_z
Si Si1 0.129014 0.665677 0.166625
Si Si2 0.796703 0.922345 0.330846
Si Si3 0.452665 0.823171 0.332658
Si Si4 0.801226 0.418592 0.335399
Si Si5 0.045883 0.183399 0.163013
Si Si6 0.637899 0.330171 0.162028
O O1 0.085347 0.638272 0.244878
O O2 0.169590 0.625729 0.229818
O O3 0.135950 0.747775 0.193888
O O4 0.125012 0.647210 0.000000
O O5 0.802839 0.921622 0.500000
O O6 0.747916 0.902265 0.291266
O O7 0.828608 0.865782 0.266489
O O8 0.807347 0.000000 0.271407
O O9 0.440325 0.823767 0.500000
O O10 0.500000 0.858562 0.308450
O O11 0.455508 0.744112 0.279154
O O12 0.809679 0.396114 0.500000
O O13 0.811368 0.500000 0.315513
O O14 0.089373 0.138151 0.189131
O O15 0.000000 0.141214 0.175657
O O16 0.049926 0.215076 0.000000
O O17 0.653237 0.344981 0.000000
#
# Coordination Sequence:
#
# PCOD8270124 Si02
#       6
#    16  16  16  16  16  16
#     4  10  20  32  48  73 102 128 156 193 237 282
#     4   9  19  35  52  69  91 123 161 198 239 287
#     4   9  16  26  43  68  96 126 160 194 229 273
#     4   9  19  36  54  70  91 122 160 198 237 285
#     4   8  14  26  43  64  94 128 158 191 233 279
#     4   9  18  30  46  72 100 125 156 195 236 277
#
# _framework density 17.360821999999999
#
# number of rings (size 3 to 8) (size 9 to 14) (size 15 to 20)
#    0.000    3.000    0.000    3.000    0.000    6.333 
#    0.000    5.000    0.000    1.000    0.000    7.000 
#    0.000    0.000    0.000    0.000    0.000    0.000 
#
# Total GULP energy -594676.957694 kJ/mol
# GULP energy per Si atom -12389.103285 kJ/mol
# Density = 1.732131 g / cm^3
# Si number density = 17.360822 Si / 1000 Ang^3
#
#
#
# Elastic Constant Matrix: (Units=GPa)
#
#
# Indices 1 2 3 4 5 6 
#
# 1 157.0560 48.6273 74.8824 0.0000 0.0000 0.0000
# 2 48.6273 34.9690 31.1996 0.0000 0.0000 0.0000
# 3 74.8824 31.1996 88.2149 0.0000 0.0000 0.0000
# 4 0.0000 0.0000 0.0000 19.3654 0.0000 0.0000
# 5 0.0000 0.0000 0.0000 0.0000 32.1470 0.0000
# 6 0.0000 0.0000 0.0000 0.0000 0.0000 -7.4285
#
#
#
# Elastic Compliance Matrix: (Units=1/GPa)
#
#
# Indices 1 2 3 4 5 6 
#
# 1 0.013698 -0.012672 -0.007145 0.000000 0.000000 0.000000
# 2 -0.012672 0.053505 -0.008166 0.000000 0.000000 0.000000
# 3 -0.007145 -0.008166 0.020290 0.000000 0.000000 0.000000
# 4 0.000000 0.000000 0.000000 0.051638 0.000000 0.000000
# 5 0.000000 0.000000 0.000000 0.000000 0.031107 0.000000
# 6 0.000000 0.000000 0.000000 0.000000 0.000000 -0.134616
#
#
# Mechanical properties :
#
#
# Convention : Reuss Voigt Hill
#
# Bulk Modulus (GPa) = 31.72203 65.51760 48.61982
# Shear Modulus (GPa) = 48.97244 17.18548 33.07896
#
# Velocity S-wave (km/s) = 5.31694 3.14968 4.36980
# Velocity P-wave (km/s) = 7.48365 7.14479 7.31618
#
# Compressibility (1/GPa) = 0.03152383
#
# Stress axis : x y z
#
# Youngs Moduli (GPa) = 73.00520 18.68990 49.28614
#
# Poissons Ratio (x) = 0.23685 0.35217
# Poissons Ratio (y) = 0.92516 0.40248
# Poissons Ratio (z) = 0.52166 0.15263
#
# Static dielectric constant tensor:
#      x y z
#    x 3.714610 0.000000 0.000000 
#    y 0.000000 2.777380 0.000000 
#    z 0.000000 0.000000 3.222360 
# 
# 
# High freq. dielectric constant tensor:
#      x y z
#    x 1.696510 0.000000 0.000000 
#    y 0.000000 1.611950 0.000000 
#    z 0.000000 0.000000 1.676030 
# 
# From -- ./inp_files/12262.got.cif
#   From: 2010.03.12/outbox.cif.g09.slc.cpg/sg65_7_cif.got.tgz:12262.got - 2010.04.10 20:52:16.
