data_PCOD8270526
_publ_section_title
;
Structure prediction by ZEFSAII (Michael W. Deem and Ramdas Pophale) SiO2 
 PCOD8270526
Probable space group: C M M M
;
_chemical_formula_sum "Si O2"
_cell_formula_units_Z 72
_cell_length_a 28.305194
_cell_length_b 16.069199
_cell_length_c 9.080187
_cell_angle_alpha 90.000000
_cell_angle_beta 90.000000
_cell_angle_gamma 90.000000
_cell_volume 4130.048555
_symmetry_space_group_name_H-M "C M M M"
_symmetry_group_IT_number 65
_symmetry_cell_setting 'orthorhombic'
loop_
_space_group_symop_operation_xyz
x,y,z
-x,-y,z
x,-y,-z
-x,y,-z
-x,-y,-z
x,y,-z
-x,y,z
x,-y,z
1/2+x,1/2+y,z
1/2-x,1/2-y,z
1/2+x,1/2-y,-z
1/2-x,1/2+y,-z
1/2-x,1/2-y,-z
1/2+x,1/2+y,-z
1/2-x,1/2+y,z
1/2+x,1/2-y,z
loop_
_atom_site_type_symbol
_atom_site_label
_atom_site_fract_x
_atom_site_fract_y
_atom_site_fract_z
Si Si1 0.862856 0.235500 0.825625
Si Si2 0.054096 0.319958 0.675311
Si Si3 0.694180 0.595367 0.331617
Si Si4 0.776247 0.337026 0.838461
Si Si5 0.055655 0.500000 0.660083
O O1 0.913813 0.251276 0.754168
O O2 0.842239 0.149648 0.762408
O O3 0.829241 0.314456 0.784442
O O4 0.867386 0.225011 0.000000
O O5 0.061430 0.317243 0.500000
O O6 0.068703 0.412360 0.739121
O O7 0.000000 0.299087 0.715710
O O8 0.692805 0.625504 0.500000
O O9 0.678475 0.500000 0.316455
O O10 0.748357 0.604255 0.274864
O O11 0.750000 0.250000 0.852245
O O12 0.777371 0.380045 0.000000
O O13 0.080335 0.500000 0.500000
O O14 0.000000 0.500000 0.635502
#
# Coordination Sequence:
#
# PCOD8270526 Si02
#       5
#    16  16  16  16   8
#     4  10  20  33  50  73 101 134 168 201 244 296
#     4   9  17  31  52  75 100 132 168 206 247 289
#     4  10  20  33  51  75  99 126 165 209 250 293
#     4   8  16  31  48  67  94 127 160 194 238 291
#     4   7  12  26  47  69  93 123 159 197 239 285
#
# _framework density 17.433209000000002
#
# number of rings (size 3 to 8) (size 9 to 14) (size 15 to 20)
#    0.000    3.000    0.000    4.000    0.000    7.111 
#    2.000    0.556    0.000    2.667    0.000    4.667 
#    0.000    0.000    0.000    0.000    0.000    0.000 
#
# Total GULP energy -446038.054433 kJ/mol
# GULP energy per Si atom -12389.945956 kJ/mol
# Density = 1.739353 g / cm^3
# Si number density = 17.433209 Si / 1000 Ang^3
#
#
#
# Elastic Constant Matrix: (Units=GPa)
#
#
# Indices 1 2 3 4 5 6 
#
# 1 101.1918 43.0293 51.3167 0.0000 0.0000 0.0000
# 2 43.0293 71.1309 44.2529 0.0000 0.0000 0.0000
# 3 51.3167 44.2529 86.5520 0.0000 0.0000 0.0000
# 4 0.0000 0.0000 0.0000 15.5900 0.0000 0.0000
# 5 0.0000 0.0000 0.0000 0.0000 25.9607 0.0000
# 6 0.0000 0.0000 0.0000 0.0000 0.0000 22.4080
#
#
#
# Elastic Compliance Matrix: (Units=1/GPa)
#
#
# Indices 1 2 3 4 5 6 
#
# 1 0.015396 -0.005330 -0.006403 0.000000 0.000000 0.000000
# 2 -0.005330 0.022462 -0.008324 0.000000 0.000000 0.000000
# 3 -0.006403 -0.008324 0.019606 0.000000 0.000000 0.000000
# 4 0.000000 0.000000 0.000000 0.064144 0.000000 0.000000
# 5 0.000000 0.000000 0.000000 0.000000 0.038520 0.000000
# 6 0.000000 0.000000 0.000000 0.000000 0.000000 0.044627
#
#
# Mechanical properties :
#
#
# Convention : Reuss Voigt Hill
#
# Bulk Modulus (GPa) = 57.63942 59.56360 58.60151
# Shear Modulus (GPa) = 19.94805 20.81013 20.37909
#
# Velocity S-wave (km/s) = 3.38635 3.45875 3.42275
# Velocity P-wave (km/s) = 6.95878 7.08460 7.02197
#
# Compressibility (1/GPa) = 0.01734924
#
# Stress axis : x y z
#
# Youngs Moduli (GPa) = 64.95307 44.52056 51.00427
#
# Poissons Ratio (x) = 0.23729 0.32658
# Poissons Ratio (y) = 0.34619 0.42457
# Poissons Ratio (z) = 0.41590 0.37060
#
# Static dielectric constant tensor:
#      x y z
#    x 3.313930 0.000000 0.000000 
#    y 0.000000 3.101240 0.000000 
#    z 0.000000 0.000000 3.168560 
# 
# 
# High freq. dielectric constant tensor:
#      x y z
#    x 1.658150 0.000000 0.000000 
#    y 0.000000 1.654090 0.000000 
#    z 0.000000 0.000000 1.666480 
# 
# From -- ./inp_files/18026.got.cif
#   From: 2010.03.12/outbox.cif.g09.slc.cpg/sg65_10_cif.got.tgz:18026.got - 2010.04.10 20:52:16.
