data_PCOD8270504
_publ_section_title
;
Structure prediction by ZEFSAII (Michael W. Deem and Ramdas Pophale) SiO2 
 PCOD8270504
Probable space group: C M M M
;
_chemical_formula_sum "Si O2"
_cell_formula_units_Z 104
_cell_length_a 27.466102
_cell_length_b 8.191912
_cell_length_c 23.356201
_cell_angle_alpha 90.000000
_cell_angle_beta 90.000000
_cell_angle_gamma 90.000000
_cell_volume 5255.142669
_symmetry_space_group_name_H-M "C M M M"
_symmetry_group_IT_number 65
_symmetry_cell_setting 'orthorhombic'
loop_
_space_group_symop_operation_xyz
x,y,z
-x,-y,z
x,-y,-z
-x,y,-z
-x,-y,-z
x,y,-z
-x,y,z
x,-y,z
1/2+x,1/2+y,z
1/2-x,1/2-y,z
1/2+x,1/2-y,-z
1/2-x,1/2+y,-z
1/2-x,1/2-y,-z
1/2+x,1/2+y,-z
1/2-x,1/2+y,z
1/2+x,1/2-y,z
loop_
_atom_site_type_symbol
_atom_site_label
_atom_site_fract_x
_atom_site_fract_y
_atom_site_fract_z
Si Si1 0.115969 0.685159 0.066773
Si Si2 0.303929 0.185507 0.842080
Si Si3 0.395555 0.191708 0.562465
Si Si4 0.803631 0.807869 0.619650
Si Si5 0.855748 0.811598 0.732097
Si Si6 0.946447 0.691591 0.674780
Si Si7 0.445391 0.500000 0.067866
O O1 0.094693 0.500000 0.078448
O O2 0.167321 0.705723 0.098581
O O3 0.080380 0.830952 0.088605
O O4 0.126843 0.707847 0.000000
O O5 0.250000 0.250000 0.852032
O O6 0.332603 0.283065 0.793662
O O7 0.301062 0.000000 0.821482
O O8 0.411193 0.262762 0.500000
O O9 0.338913 0.231109 0.572327
O O10 0.427312 0.268849 0.614428
O O11 0.403191 0.000000 0.561949
O O12 0.750000 0.750000 0.605491
O O13 0.819489 0.744251 0.682915
O O14 0.806717 0.000000 0.616004
O O15 0.908958 0.729080 0.726268
O O16 0.864966 0.000000 0.722799
O O17 0.950404 0.500000 0.667699
O O18 0.000000 0.764817 0.688691
O O19 0.500000 0.500000 0.093347
O O20 0.447236 0.500000 0.000000
#
# Coordination Sequence:
#
# PCOD8270504 Si02
#       7
#    16  16  16  16  16  16   8
#     4   9  20  38  58  86 124 159 197 246 294 349
#     4  11  23  37  58  85 114 152 191 231 283 340
#     4   9  18  32  50  74 103 134 170 213 261 317
#     4  10  20  33  50  72  98 133 173 215 266 320
#     4  10  21  36  55  78 106 138 179 230 274 326
#     4   9  18  34  56  79 105 138 174 218 273 329
#     4   9  18  34  60  88 114 154 200 242 292 342
#
# _framework density 19.790139
#
# number of rings (size 3 to 8) (size 9 to 14) (size 15 to 20)
#    0.000    2.385    0.000    1.846    2.154    4.923 
#    0.000    3.846    0.000    0.923    0.000    4.308 
#    0.000    0.000    0.000    0.000    0.000    0.000 
#
# Total GULP energy -644565.907182 kJ/mol
# GULP energy per Si atom -12395.498215 kJ/mol
# Density = 1.974510 g / cm^3
# Si number density = 19.790139 Si / 1000 Ang^3
#
#
#
# Elastic Constant Matrix: (Units=GPa)
#
#
# Indices 1 2 3 4 5 6 
#
# 1 148.5281 38.3326 33.6980 0.0000 0.0000 0.0000
# 2 38.3326 69.7826 24.1066 0.0000 0.0000 0.0000
# 3 33.6980 24.1066 64.5783 0.0000 0.0000 0.0000
# 4 0.0000 0.0000 0.0000 20.6255 0.0000 0.0000
# 5 0.0000 0.0000 0.0000 0.0000 36.1646 0.0000
# 6 0.0000 0.0000 0.0000 0.0000 0.0000 26.4944
#
#
#
# Elastic Compliance Matrix: (Units=1/GPa)
#
#
# Indices 1 2 3 4 5 6 
#
# 1 0.008331 -0.003530 -0.003030 0.000000 0.000000 0.000000
# 2 -0.003530 0.017947 -0.004858 0.000000 0.000000 0.000000
# 3 -0.003030 -0.004858 0.018879 0.000000 0.000000 0.000000
# 4 0.000000 0.000000 0.000000 0.048484 0.000000 0.000000
# 5 0.000000 0.000000 0.000000 0.000000 0.027651 0.000000
# 6 0.000000 0.000000 0.000000 0.000000 0.000000 0.037744
#
#
# Mechanical properties :
#
#
# Convention : Reuss Voigt Hill
#
# Bulk Modulus (GPa) = 44.79593 52.79594 48.79594
# Shear Modulus (GPa) = 26.41145 29.10704 27.75925
#
# Velocity S-wave (km/s) = 3.65715 3.83924 3.74930
# Velocity P-wave (km/s) = 6.36534 6.81094 6.59191
#
# Compressibility (1/GPa) = 0.02232345
#
# Stress axis : x y z
#
# Youngs Moduli (GPa) = 120.03257 55.71870 52.96792
#
# Poissons Ratio (x) = 0.19668 0.16047
# Poissons Ratio (y) = 0.42369 0.25730
# Poissons Ratio (z) = 0.36366 0.27067
#
# Static dielectric constant tensor:
#      x y z
#    x 3.720280 0.000000 0.000000 
#    y 0.000000 3.688070 0.000000 
#    z 0.000000 0.000000 3.556890 
# 
# 
# High freq. dielectric constant tensor:
#      x y z
#    x 1.767550 0.000000 0.000000 
#    y 0.000000 1.772610 0.000000 
#    z 0.000000 0.000000 1.759110 
# 
# From -- ./inp_files/71823.got.cif
#   From: 2010.03.12/outbox.cif.g09.slc.cpg/sg65_36_cif.got.tgz:71823.got - 2010.04.10 20:52:16.
