data_PCOD8270477
_publ_section_title
;
Structure prediction by ZEFSAII (Michael W. Deem and Ramdas Pophale) SiO2 
 PCOD8270477
Probable space group: C M M M
;
_chemical_formula_sum "Si O2"
_cell_formula_units_Z 72
_cell_length_a 16.378144
_cell_length_b 27.353196
_cell_length_c 8.776121
_cell_angle_alpha 90.000000
_cell_angle_beta 90.000000
_cell_angle_gamma 90.000000
_cell_volume 3931.654667
_symmetry_space_group_name_H-M "C M M M"
_symmetry_group_IT_number 65
_symmetry_cell_setting 'orthorhombic'
loop_
_space_group_symop_operation_xyz
x,y,z
-x,-y,z
x,-y,-z
-x,y,-z
-x,-y,-z
x,y,-z
-x,y,z
x,-y,z
1/2+x,1/2+y,z
1/2-x,1/2-y,z
1/2+x,1/2-y,-z
1/2-x,1/2+y,-z
1/2-x,1/2-y,-z
1/2+x,1/2+y,-z
1/2-x,1/2+y,z
1/2+x,1/2-y,z
loop_
_atom_site_type_symbol
_atom_site_label
_atom_site_fract_x
_atom_site_fract_y
_atom_site_fract_z
Si Si1 0.091558 0.134091 0.322740
Si Si2 0.500000 0.943748 0.819659
Si Si3 0.658848 0.896397 0.679409
Si Si4 0.757295 0.803808 0.320178
Si Si5 0.809226 0.944139 0.173572
O O1 0.103140 0.121466 0.500000
O O2 0.153632 0.176623 0.272179
O O3 0.111480 0.085752 0.226779
O O4 0.000000 0.151755 0.286239
O O5 0.578166 0.913730 0.764429
O O6 0.500000 0.000000 0.757444
O O7 0.500000 0.944946 0.000000
O O8 0.642405 0.897988 0.500000
O O9 0.686297 0.841629 0.733735
O O10 0.731996 0.933047 0.719583
O O11 0.750343 0.799215 0.500000
O O12 0.750000 0.750000 0.244407
O O13 0.833891 0.000000 0.191251
O O14 0.786083 0.930961 0.000000
#
# Coordination Sequence:
#
# PCOD8270477 Si02
#       5
#    16   8  16  16  16
#     4   9  18  32  50  74 101 131 169 212 255 298
#     4  11  23  37  53  75 109 149 181 215 264 319
#     4  10  20  34  54  80 105 133 175 220 261 306
#     4   8  15  31  53  77 103 130 165 212 262 308
#     4  10  20  33  50  72 100 137 173 205 253 311
#
# _framework density 18.312899000000002
#
# number of rings (size 3 to 8) (size 9 to 14) (size 15 to 20)
#    0.000    2.556    0.000    3.667    0.000    6.222 
#    2.000    2.222    0.000   16.667    0.000    0.000 
#    0.000    0.000    0.000    0.000    0.000    0.000 
#
# Total GULP energy -446270.431006 kJ/mol
# GULP energy per Si atom -12396.400861 kJ/mol
# Density = 1.827122 g / cm^3
# Si number density = 18.312899 Si / 1000 Ang^3
#
#
#
# Elastic Constant Matrix: (Units=GPa)
#
#
# Indices 1 2 3 4 5 6 
#
# 1 135.9973 77.4330 25.2784 0.0000 0.0000 0.0000
# 2 77.4330 157.6040 39.4810 0.0000 0.0000 0.0000
# 3 25.2784 39.4810 44.7733 0.0000 0.0000 0.0000
# 4 0.0000 0.0000 0.0000 5.9321 0.0000 0.0000
# 5 0.0000 0.0000 0.0000 0.0000 19.9909 0.0000
# 6 0.0000 0.0000 0.0000 0.0000 0.0000 17.1103
#
#
#
# Elastic Compliance Matrix: (Units=1/GPa)
#
#
# Indices 1 2 3 4 5 6 
#
# 1 0.010313 -0.004632 -0.001739 0.000000 0.000000 0.000000
# 2 -0.004632 0.010224 -0.006401 0.000000 0.000000 0.000000
# 3 -0.001739 -0.006401 0.028960 0.000000 0.000000 0.000000
# 4 0.000000 0.000000 0.000000 0.168574 0.000000 0.000000
# 5 0.000000 0.000000 0.000000 0.000000 0.050023 0.000000
# 6 0.000000 0.000000 0.000000 0.000000 0.000000 0.058444
#
#
# Mechanical properties :
#
#
# Convention : Reuss Voigt Hill
#
# Bulk Modulus (GPa) = 41.74302 69.19549 55.46925
# Shear Modulus (GPa) = 13.88634 21.68546 17.78590
#
# Velocity S-wave (km/s) = 2.75668 3.44490 3.11983
# Velocity P-wave (km/s) = 5.74249 7.32736 6.58280
#
# Compressibility (1/GPa) = 0.02395610
#
# Stress axis : x y z
#
# Youngs Moduli (GPa) = 96.96202 97.80978 34.52991
#
# Poissons Ratio (x) = 0.45301 0.06004
# Poissons Ratio (y) = 0.44908 0.22101
# Poissons Ratio (z) = 0.16859 0.62604
#
# Static dielectric constant tensor:
#      x y z
#    x 3.440400 0.000000 0.000000 
#    y 0.000000 3.706740 0.000000 
#    z 0.000000 0.000000 3.288580 
# 
# 
# High freq. dielectric constant tensor:
#      x y z
#    x 1.708400 0.000000 0.000000 
#    y 0.000000 1.709080 0.000000 
#    z 0.000000 0.000000 1.694770 
# 
# From -- ./inp_files/7239.got.cif
#   From: 2010.03.12/outbox.cif.g09.slc.cpg/sg65_4_cif.got.tgz:7239.got - 2010.04.10 20:52:16.
