data_PCOD8270491
_publ_section_title
;
Structure prediction by ZEFSAII (Michael W. Deem and Ramdas Pophale) SiO2 
 PCOD8270491
Probable space group: C M M M
;
_chemical_formula_sum "Si O2"
_cell_formula_units_Z 120
_cell_length_a 29.262697
_cell_length_b 16.967808
_cell_length_c 13.870554
_cell_angle_alpha 90.000000
_cell_angle_beta 90.000000
_cell_angle_gamma 90.000000
_cell_volume 6887.060517
_symmetry_space_group_name_H-M "C M M M"
_symmetry_group_IT_number 65
_symmetry_cell_setting 'orthorhombic'
loop_
_space_group_symop_operation_xyz
x,y,z
-x,-y,z
x,-y,-z
-x,y,-z
-x,-y,-z
x,y,-z
-x,y,z
x,-y,z
1/2+x,1/2+y,z
1/2-x,1/2-y,z
1/2+x,1/2-y,-z
1/2-x,1/2+y,-z
1/2-x,1/2-y,-z
1/2+x,1/2+y,-z
1/2-x,1/2+y,z
1/2+x,1/2-y,z
loop_
_atom_site_type_symbol
_atom_site_label
_atom_site_fract_x
_atom_site_fract_y
_atom_site_fract_z
Si Si1 0.500000 0.406285 0.392972
Si Si2 0.337254 0.310112 0.607710
Si Si3 0.411271 0.407163 0.284838
Si Si4 0.552116 0.327160 0.109624
Si Si5 0.205509 0.305520 0.249837
Si Si6 0.950146 0.646781 0.114015
Si Si7 0.251099 0.912213 0.604304
Si Si8 0.353073 0.089619 0.885955
O O1 0.500000 0.500000 0.397146
O O2 0.500000 0.370308 0.500000
O O3 0.456390 0.374607 0.336566
O O4 0.353766 0.282577 0.500000
O O5 0.370045 0.373687 0.654405
O O6 0.331263 0.239234 0.683306
O O7 0.289460 0.351550 0.594809
O O8 0.406727 0.500000 0.286376
O O9 0.413235 0.378374 0.174346
O O10 0.500000 0.358086 0.119434
O O11 0.555551 0.237421 0.144379
O O12 0.569089 0.336650 0.000000
O O13 0.250000 0.250000 0.223070
O O14 0.217367 0.383585 0.309576
O O15 0.180237 0.342168 0.156607
O O16 0.905643 0.599757 0.152363
O O17 0.000000 0.615703 0.154035
O O18 0.952180 0.639877 0.000000
O O19 0.276807 0.911421 0.500000
O O20 0.233579 0.000000 0.628520
O O21 0.337718 0.000000 0.859630
O O22 0.351277 0.102988 0.000000
#
# Coordination Sequence:
#
# PCOD8270491 Si02
#       8
#     8  16  16  16  16  16  16  16
#     4   9  18  30  41  57  85 119 155 198 244 288
#     4  10  20  33  50  72  97 126 161 205 257 308
#     4  11  20  30  45  67  94 128 168 207 249 295
#     4   9  17  30  47  67  95 131 169 208 247 291
#     4  10  20  34  52  73  99 132 168 207 248 296
#     4   8  15  29  49  72  99 130 161 198 247 298
#     4   9  17  31  52  76  99 123 155 200 255 306
#     4  10  20  33  51  77 107 136 168 206 248 299
#
# _framework density 17.42398
#
# number of rings (size 3 to 8) (size 9 to 14) (size 15 to 20)
#    0.000    2.467    0.667    3.200    0.000    3.733 
#    0.000    2.000    0.000    0.800    0.000    0.000 
#    0.000    0.000    0.000    7.600    0.000    0.800 
#
# Total GULP energy -743366.012315 kJ/mol
# GULP energy per Si atom -12389.433539 kJ/mol
# Density = 1.738432 g / cm^3
# Si number density = 17.423980 Si / 1000 Ang^3
#
#
#
# Elastic Constant Matrix: (Units=GPa)
#
#
# Indices 1 2 3 4 5 6 
#
# 1 57.8380 29.4021 29.9165 0.0000 0.0000 0.0000
# 2 29.4021 75.4405 40.9813 0.0000 0.0000 0.0000
# 3 29.9165 40.9813 82.1392 0.0000 0.0000 0.0000
# 4 0.0000 0.0000 0.0000 23.4881 0.0000 0.0000
# 5 0.0000 0.0000 0.0000 0.0000 5.6941 0.0000
# 6 0.0000 0.0000 0.0000 0.0000 0.0000 0.1558
#
#
#
# Elastic Compliance Matrix: (Units=1/GPa)
#
#
# Indices 1 2 3 4 5 6 
#
# 1 0.023185 -0.006103 -0.005399 0.000000 0.000000 0.000000
# 2 -0.006103 0.019790 -0.007651 0.000000 0.000000 0.000000
# 3 -0.005399 -0.007651 0.017958 0.000000 0.000000 0.000000
# 4 0.000000 0.000000 0.000000 0.042575 0.000000 0.000000
# 5 0.000000 0.000000 0.000000 0.000000 0.175620 0.000000
# 6 0.000000 0.000000 0.000000 0.000000 0.000000 6.417050
#
#
# Mechanical properties :
#
#
# Convention : Reuss Voigt Hill
#
# Bulk Modulus (GPa) = 44.19569 46.22418 45.20993
# Shear Modulus (GPa) = 0.74162 13.54213 7.14187
#
# Velocity S-wave (km/s) = 0.65311 2.79088 2.02676
# Velocity P-wave (km/s) = 5.09791 6.08046 5.61073
#
# Compressibility (1/GPa) = 0.02262664
#
# Stress axis : x y z
#
# Youngs Moduli (GPa) = 43.13138 50.52979 55.68442
#
# Poissons Ratio (x) = 0.30838 0.30066
# Poissons Ratio (y) = 0.26323 0.42605
# Poissons Ratio (z) = 0.23289 0.38661
#
# Static dielectric constant tensor:
#      x y z
#    x 3.490100 0.000000 0.000000 
#    y 0.000000 3.198970 0.000000 
#    z 0.000000 0.000000 3.335370 
# 
# 
# High freq. dielectric constant tensor:
#      x y z
#    x 1.660310 0.000000 0.000000 
#    y 0.000000 1.666500 0.000000 
#    z 0.000000 0.000000 1.662050 
# 
# From -- ./inp_files/48113.got.cif
#   From: 2010.03.12/outbox.cif.g09.slc.cpg/sg65_25_cif.got.tgz:48113.got - 2010.04.10 20:52:16.
