data_PCOD8270077
_publ_section_title
;
Structure prediction by ZEFSAII (Michael W. Deem and Ramdas Pophale) SiO2 
 PCOD8270077
Probable space group: C M M M
;
_chemical_formula_sum "Si O2"
_cell_formula_units_Z 88
_cell_length_a 22.285972
_cell_length_b 24.318334
_cell_length_c 9.100866
_cell_angle_alpha 90.000000
_cell_angle_beta 90.000000
_cell_angle_gamma 90.000000
_cell_volume 4932.284502
_symmetry_space_group_name_H-M "C M M M"
_symmetry_group_IT_number 65
_symmetry_cell_setting 'orthorhombic'
loop_
_space_group_symop_operation_xyz
x,y,z
-x,-y,z
x,-y,-z
-x,y,-z
-x,-y,-z
x,y,-z
-x,y,z
x,-y,z
1/2+x,1/2+y,z
1/2-x,1/2-y,z
1/2+x,1/2-y,-z
1/2-x,1/2+y,-z
1/2-x,1/2-y,-z
1/2+x,1/2+y,-z
1/2-x,1/2+y,z
1/2+x,1/2-y,z
loop_
_atom_site_type_symbol
_atom_site_label
_atom_site_fract_x
_atom_site_fract_y
_atom_site_fract_z
Si Si1 0.845628 0.150558 0.673139
Si Si2 0.679068 0.757691 0.833254
Si Si3 0.292087 0.861824 0.329611
Si Si4 0.500000 0.940182 0.826208
Si Si5 0.872367 0.434961 0.836150
Si Si6 0.569609 0.436728 0.829040
O O1 0.856043 0.156628 0.500000
O O2 0.857366 0.209510 0.749706
O O3 0.777654 0.134061 0.712760
O O4 0.889830 0.103947 0.733592
O O5 0.750000 0.750000 0.824236
O O6 0.668502 0.815725 0.754179
O O7 0.655646 0.759398 0.000000
O O8 0.299585 0.850143 0.500000
O O9 0.321292 0.919001 0.280047
O O10 0.437392 0.909650 0.784659
O O11 0.500000 0.000000 0.749038
O O12 0.500000 0.948354 0.000000
O O13 0.878085 0.500000 0.837822
O O14 0.855086 0.413825 0.000000
O O15 0.500000 0.424551 0.794386
O O16 0.584786 0.500000 0.787730
O O17 0.583215 0.426438 0.000000
#
# Coordination Sequence:
#
# PCOD8270077 Si02
#       6
#    16  16  16   8  16  16
#     4  10  20  33  51  75 103 134 165 202 252 305
#     4   9  17  31  52  74  95 125 166 205 243 293
#     4  10  20  32  47  72 106 136 163 203 254 304
#     4   7  12  26  47  67  87 117 159 201 236 275
#     4   9  17  30  49  71  95 127 167 207 247 293
#     4   9  19  36  56  77 102 134 173 215 256 301
#
# _framework density 17.841632000000001
#
# number of rings (size 3 to 8) (size 9 to 14) (size 15 to 20)
#    0.000    2.818    0.000    3.273    0.000    6.182 
#    0.000    5.000    2.000    1.636    0.000    0.000 
#    0.000    0.000    0.000    0.000    0.000    0.000 
#
# Total GULP energy -545241.516279 kJ/mol
# GULP energy per Si atom -12391.852643 kJ/mol
# Density = 1.780102 g / cm^3
# Si number density = 17.841632 Si / 1000 Ang^3
#
#
#
# Elastic Constant Matrix: (Units=GPa)
#
#
# Indices 1 2 3 4 5 6 
#
# 1 79.2261 47.1374 50.2993 0.0000 0.0000 0.0000
# 2 47.1374 76.3196 48.7933 0.0000 0.0000 0.0000
# 3 50.2993 48.7933 90.7824 0.0000 0.0000 0.0000
# 4 0.0000 0.0000 0.0000 27.3585 0.0000 0.0000
# 5 0.0000 0.0000 0.0000 0.0000 24.3193 0.0000
# 6 0.0000 0.0000 0.0000 0.0000 0.0000 23.3889
#
#
#
# Elastic Compliance Matrix: (Units=1/GPa)
#
#
# Indices 1 2 3 4 5 6 
#
# 1 0.023100 -0.009270 -0.007817 0.000000 0.000000 0.000000
# 2 -0.009270 0.023682 -0.007593 0.000000 0.000000 0.000000
# 3 -0.007817 -0.007593 0.019427 0.000000 0.000000 0.000000
# 4 0.000000 0.000000 0.000000 0.036552 0.000000 0.000000
# 5 0.000000 0.000000 0.000000 0.000000 0.041120 0.000000
# 6 0.000000 0.000000 0.000000 0.000000 0.000000 0.042755
#
#
# Mechanical properties :
#
#
# Convention : Reuss Voigt Hill
#
# Bulk Modulus (GPa) = 59.34242 59.86534 59.60388
# Shear Modulus (GPa) = 20.69439 21.68654 21.19046
#
# Velocity S-wave (km/s) = 3.40942 3.49019 3.45004
# Velocity P-wave (km/s) = 6.98797 7.06176 7.02496
#
# Compressibility (1/GPa) = 0.01685135
#
# Stress axis : x y z
#
# Youngs Moduli (GPa) = 43.28995 42.22552 51.47473
#
# Poissons Ratio (x) = 0.39143 0.40235
# Poissons Ratio (y) = 0.40130 0.39082
# Poissons Ratio (z) = 0.33838 0.32060
#
# Static dielectric constant tensor:
#      x y z
#    x 3.321580 0.000000 0.000000 
#    y 0.000000 3.238160 0.000000 
#    z 0.000000 0.000000 3.223510 
# 
# 
# High freq. dielectric constant tensor:
#      x y z
#    x 1.675190 0.000000 0.000000 
#    y 0.000000 1.680500 0.000000 
#    z 0.000000 0.000000 1.685980 
# 
# From -- ./inp_files/11817.got.cif
#   From: 2010.03.12/outbox.cif.g09.slc.cpg/sg65_6_cif.got.tgz:11817.got - 2010.04.10 20:52:16.
