data_PCOD8270650
_publ_section_title
;
Structure prediction by ZEFSAII (Michael W. Deem and Ramdas Pophale) SiO2 
 PCOD8270650
Probable space group: C M M M
;
_chemical_formula_sum "Si O2"
_cell_formula_units_Z 88
_cell_length_a 7.591439
_cell_length_b 18.625490
_cell_length_c 29.960198
_cell_angle_alpha 90.000000
_cell_angle_beta 90.000000
_cell_angle_gamma 90.000000
_cell_volume 4236.200361
_symmetry_space_group_name_H-M "C M M M"
_symmetry_group_IT_number 65
_symmetry_cell_setting 'orthorhombic'
loop_
_space_group_symop_operation_xyz
x,y,z
-x,-y,z
x,-y,-z
-x,y,-z
-x,-y,-z
x,y,-z
-x,y,z
x,-y,z
1/2+x,1/2+y,z
1/2-x,1/2-y,z
1/2+x,1/2-y,-z
1/2-x,1/2+y,-z
1/2-x,1/2-y,-z
1/2+x,1/2+y,-z
1/2-x,1/2+y,z
1/2+x,1/2-y,z
loop_
_atom_site_type_symbol
_atom_site_label
_atom_site_fract_x
_atom_site_fract_y
_atom_site_fract_z
Si Si1 0.793583 0.670382 0.129243
Si Si2 0.799508 0.078888 0.689312
Si Si3 0.000000 0.417165 0.447223
Si Si4 0.208488 0.165828 0.395105
Si Si5 0.709516 0.919310 0.048490
Si Si6 0.293953 0.830534 0.771842
O O1 0.750000 0.750000 0.114306
O O2 0.705718 0.622246 0.090486
O O3 0.713644 0.654940 0.178590
O O4 0.000000 0.656830 0.131740
O O5 0.723147 0.133477 0.652299
O O6 0.788258 0.112507 0.738338
O O7 0.000000 0.066746 0.676937
O O8 0.705732 0.000000 0.688175
O O9 0.177467 0.376025 0.431967
O O10 0.000000 0.500000 0.429976
O O11 0.000000 0.415453 0.500000
O O12 0.250000 0.250000 0.395854
O O13 0.000000 0.153495 0.403900
O O14 0.500000 0.916120 0.051348
O O15 0.778203 0.000000 0.052237
O O16 0.769506 0.887659 0.000000
O O17 0.500000 0.842212 0.771806
O O18 0.250000 0.750000 0.756099
#
# Coordination Sequence:
#
# PCOD8270650 Si02
#       6
#    16  16   8  16  16  16
#     4   9  18  31  47  70  99 128 168 216 267 325
#     4  10  22  38  58  85 118 153 193 241 294 352
#     4  11  26  46  70 102 137 175 219 269 325 379
#     4  11  23  43  68  99 131 172 218 267 318 375
#     4   8  14  26  45  67  91 123 163 210 262 317
#     4  10  20  33  51  75 104 144 183 227 280 337
#
# _framework density 20.773333999999998
#
# number of rings (size 3 to 8) (size 9 to 14) (size 15 to 20)
#    0.000    2.273    0.909    2.182    1.273    5.455 
#    0.000    2.727    0.000    0.545    0.000    1.273 
#    0.000    0.000    0.000    0.000    0.000    0.000 
#
# Total GULP energy -545265.806186 kJ/mol
# GULP energy per Si atom -12392.404686 kJ/mol
# Density = 2.072605 g / cm^3
# Si number density = 20.773334 Si / 1000 Ang^3
#
#
#
# Elastic Constant Matrix: (Units=GPa)
#
#
# Indices 1 2 3 4 5 6 
#
# 1 61.9246 24.8687 22.8340 0.0000 0.0000 0.0000
# 2 24.8687 158.3093 87.1314 0.0000 0.0000 0.0000
# 3 22.8340 87.1314 138.0428 0.0000 0.0000 0.0000
# 4 0.0000 0.0000 0.0000 44.3795 0.0000 0.0000
# 5 0.0000 0.0000 0.0000 0.0000 2.7190 0.0000
# 6 0.0000 0.0000 0.0000 0.0000 0.0000 12.7279
#
#
#
# Elastic Compliance Matrix: (Units=1/GPa)
#
#
# Indices 1 2 3 4 5 6 
#
# 1 0.017516 -0.001773 -0.001778 0.000000 0.000000 0.000000
# 2 -0.001773 0.009859 -0.005930 0.000000 0.000000 0.000000
# 3 -0.001778 -0.005930 0.011281 0.000000 0.000000 0.000000
# 4 0.000000 0.000000 0.000000 0.022533 0.000000 0.000000
# 5 0.000000 0.000000 0.000000 0.000000 0.367779 0.000000
# 6 0.000000 0.000000 0.000000 0.000000 0.000000 0.078568
#
#
# Mechanical properties :
#
#
# Convention : Reuss Voigt Hill
#
# Bulk Modulus (GPa) = 50.77539 69.77168 60.27353
# Shear Modulus (GPa) = 9.37977 26.86145 18.12061
#
# Velocity S-wave (km/s) = 2.12723 3.59983 2.95668
# Velocity P-wave (km/s) = 5.52531 7.13712 6.38230
#
# Compressibility (1/GPa) = 0.01969458
#
# Stress axis : x y z
#
# Youngs Moduli (GPa) = 57.08934 101.43253 88.64482
#
# Poissons Ratio (x) = 0.17982 0.15765
# Poissons Ratio (y) = 0.10121 0.52562
# Poissons Ratio (z) = 0.10153 0.60145
#
# Static dielectric constant tensor:
#      x y z
#    x 3.572600 0.000000 0.000000 
#    y 0.000000 3.901570 0.000000 
#    z 0.000000 0.000000 4.130490 
# 
# 
# High freq. dielectric constant tensor:
#      x y z
#    x 1.798010 0.000000 0.000000 
#    y 0.000000 1.811690 0.000000 
#    z 0.000000 0.000000 1.820740 
# 
# From -- ./inp_files/76500.got.cif
#   From: 2010.03.12/outbox.cif.g09.slc.cpg/sg65_39_cif.got.tgz:76500.got - 2010.04.10 20:52:16.
