data_PCOD8270837
_publ_section_title
;
Structure prediction by ZEFSAII (Michael W. Deem and Ramdas Pophale) SiO2 
 PCOD8270837
Probable space group: C M M M
;
_chemical_formula_sum "Si O2"
_cell_formula_units_Z 88
_cell_length_a 27.071472
_cell_length_b 19.030198
_cell_length_c 8.966461
_cell_angle_alpha 90.000000
_cell_angle_beta 90.000000
_cell_angle_gamma 90.000000
_cell_volume 4619.300781
_symmetry_space_group_name_H-M "C M M M"
_symmetry_group_IT_number 65
_symmetry_cell_setting 'orthorhombic'
loop_
_space_group_symop_operation_xyz
x,y,z
-x,-y,z
x,-y,-z
-x,y,-z
-x,-y,-z
x,y,-z
-x,y,z
x,-y,z
1/2+x,1/2+y,z
1/2-x,1/2-y,z
1/2+x,1/2-y,-z
1/2-x,1/2+y,-z
1/2-x,1/2-y,-z
1/2+x,1/2+y,-z
1/2-x,1/2+y,z
1/2+x,1/2-y,z
loop_
_atom_site_type_symbol
_atom_site_label
_atom_site_fract_x
_atom_site_fract_y
_atom_site_fract_z
Si Si1 0.111491 0.919272 0.324651
Si Si2 0.000000 0.578523 0.677303
Si Si3 0.556886 0.702150 0.824949
Si Si4 0.905323 0.663143 0.323121
Si Si5 0.817863 0.417610 0.827631
Si Si6 0.778882 0.916823 0.664523
O O1 0.102137 0.909872 0.500000
O O2 0.072158 0.874499 0.232380
O O3 0.166781 0.892010 0.282968
O O4 0.104042 0.000000 0.276984
O O5 0.951556 0.617920 0.737003
O O6 0.000000 0.500000 0.743860
O O7 0.000000 0.576360 0.500000
O O8 0.500000 0.715473 0.782057
O O9 0.591241 0.759341 0.744574
O O10 0.565558 0.706948 0.000000
O O11 0.905217 0.668893 0.500000
O O12 0.855725 0.625774 0.271174
O O13 0.825344 0.500000 0.794278
O O14 0.762836 0.392735 0.781362
O O15 0.825956 0.399968 0.000000
O O16 0.766515 0.885990 0.500000
O O17 0.780780 0.000000 0.652391
#
# Coordination Sequence:
#
# PCOD8270837 Si02
#       6
#    16   8  16  16  16  16
#     4   9  19  37  62  89 113 140 182 232 277 328
#     4   9  18  32  53  81 106 133 180 235 277 316
#     4  11  24  40  57  79 113 151 184 225 282 342
#     4  11  21  36  57  79 108 147 191 236 277 324
#     4  10  20  33  52  82 118 152 185 224 274 331
#     4   8  15  31  55  82 111 143 180 225 275 324
#
# _framework density 19.050502000000002
#
# number of rings (size 3 to 8) (size 9 to 14) (size 15 to 20)
#    0.000    2.273    0.909    3.273    0.000    4.364 
#    0.000    4.545    0.000    7.636    0.000    0.000 
#    0.000    0.000    0.000    0.000    0.000    0.000 
#
# Total GULP energy -545639.201338 kJ/mol
# GULP energy per Si atom -12400.890939 kJ/mol
# Density = 1.900714 g / cm^3
# Si number density = 19.050502 Si / 1000 Ang^3
#
#
#
# Elastic Constant Matrix: (Units=GPa)
#
#
# Indices 1 2 3 4 5 6 
#
# 1 71.3451 34.8911 43.2709 0.0000 0.0000 0.0000
# 2 34.8911 85.3440 41.6045 0.0000 0.0000 0.0000
# 3 43.2709 41.6045 81.3527 0.0000 0.0000 0.0000
# 4 0.0000 0.0000 0.0000 28.1434 0.0000 0.0000
# 5 0.0000 0.0000 0.0000 0.0000 30.7829 0.0000
# 6 0.0000 0.0000 0.0000 0.0000 0.0000 15.6368
#
#
#
# Elastic Compliance Matrix: (Units=1/GPa)
#
#
# Indices 1 2 3 4 5 6 
#
# 1 0.021840 -0.004350 -0.009392 0.000000 0.000000 0.000000
# 2 -0.004350 0.016475 -0.006112 0.000000 0.000000 0.000000
# 3 -0.009392 -0.006112 0.020413 0.000000 0.000000 0.000000
# 4 0.000000 0.000000 0.000000 0.035532 0.000000 0.000000
# 5 0.000000 0.000000 0.000000 0.000000 0.032486 0.000000
# 6 0.000000 0.000000 0.000000 0.000000 0.000000 0.063952
#
#
# Mechanical properties :
#
#
# Convention : Reuss Voigt Hill
#
# Bulk Modulus (GPa) = 52.57397 53.06385 52.81891
# Shear Modulus (GPa) = 21.11972 22.79766 21.95869
#
# Velocity S-wave (km/s) = 3.33320 3.46308 3.39876
# Velocity P-wave (km/s) = 6.51696 6.62611 6.57176
#
# Compressibility (1/GPa) = 0.01902082
#
# Stress axis : x y z
#
# Youngs Moduli (GPa) = 45.78751 60.69716 48.98831
#
# Poissons Ratio (x) = 0.26406 0.46008
# Poissons Ratio (y) = 0.19920 0.29940
# Poissons Ratio (z) = 0.43002 0.37096
#
# Static dielectric constant tensor:
#      x y z
#    x 3.678440 0.000000 0.000000 
#    y 0.000000 3.310110 0.000000 
#    z 0.000000 0.000000 3.354450 
# 
# 
# High freq. dielectric constant tensor:
#      x y z
#    x 1.747810 0.000000 0.000000 
#    y 0.000000 1.723220 0.000000 
#    z 0.000000 0.000000 1.733380 
# 
# From -- ./inp_files/13969.got.cif
#   From: 2010.03.12/outbox.cif.g09.slc.cpg/sg65_7_cif.got.tgz:13969.got - 2010.04.10 20:52:16.
