data_PCOD8270892
_publ_section_title
;
Structure prediction by ZEFSAII (Michael W. Deem and Ramdas Pophale) SiO2 
 PCOD8270892
Probable space group: C M M M
;
_chemical_formula_sum "Si O2"
_cell_formula_units_Z 96
_cell_length_a 23.523055
_cell_length_b 9.049514
_cell_length_c 22.795793
_cell_angle_alpha 90.000000
_cell_angle_beta 90.000000
_cell_angle_gamma 90.000000
_cell_volume 4852.590961
_symmetry_space_group_name_H-M "C M M M"
_symmetry_group_IT_number 65
_symmetry_cell_setting 'orthorhombic'
loop_
_space_group_symop_operation_xyz
x,y,z
-x,-y,z
x,-y,-z
-x,y,-z
-x,-y,-z
x,y,-z
-x,y,z
x,-y,z
1/2+x,1/2+y,z
1/2-x,1/2-y,z
1/2+x,1/2-y,-z
1/2-x,1/2+y,-z
1/2-x,1/2-y,-z
1/2+x,1/2+y,-z
1/2-x,1/2+y,z
1/2+x,1/2-y,z
loop_
_atom_site_type_symbol
_atom_site_label
_atom_site_fract_x
_atom_site_fract_y
_atom_site_fract_z
Si Si1 0.500000 0.225488 0.751421
Si Si2 0.395223 0.668398 0.432956
Si Si3 0.000000 0.839448 0.128690
Si Si4 0.500000 0.175916 0.621663
Si Si5 0.189686 0.171713 0.332018
Si Si6 0.309942 0.325840 0.000000
Si Si7 0.373789 0.162683 0.769331
Si Si8 0.877645 0.823477 0.114339
O O1 0.500000 0.357237 0.799609
O O2 0.500000 0.269015 0.682743
O O3 0.441799 0.137667 0.764821
O O4 0.378575 0.699427 0.500000
O O5 0.416985 0.500000 0.424159
O O6 0.444620 0.781188 0.414995
O O7 0.338504 0.696911 0.395487
O O8 0.057674 0.761917 0.106151
O O9 0.000000 0.000000 0.100142
O O10 0.500000 0.000000 0.634689
O O11 0.250000 0.250000 0.330599
O O12 0.147168 0.240839 0.284875
O O13 0.198030 0.000000 0.317569
O O14 0.250000 0.250000 0.000000
O O15 0.343071 0.272695 0.057657
O O16 0.302002 0.500000 0.000000
O O17 0.352349 0.244821 0.828210
O O18 0.345634 0.000000 0.768241
O O19 0.876707 0.000000 0.123812
#
# Coordination Sequence:
#
# PCOD8270892 Si02
#       8
#     8  16   8   8  16   8  16  16
#     4  10  20  33  55  87 123 154 185 228 284 341
#     4  10  23  42  61  84 116 153 192 236 289 349
#     4   8  16  31  55  85 115 145 185 230 283 341
#     4  12  22  35  58  90 123 154 189 234 285 343
#     4  11  24  41  61  84 111 148 194 243 292 346
#     4  10  22  39  59  81 113 152 195 238 280 332
#     4  11  21  37  60  88 121 155 189 235 288 342
#     4   9  19  36  57  85 116 150 190 236 284 338
#
# _framework density 19.783246999999999
#
# number of rings (size 3 to 8) (size 9 to 14) (size 15 to 20)
#    0.000    1.833    1.667    2.250    0.000    5.333 
#    0.000    3.333    0.000    0.000    0.000    4.083 
#    0.000    0.000    0.000    0.000    0.000    0.000 
#
# Total GULP energy -594920.331755 kJ/mol
# GULP energy per Si atom -12394.173578 kJ/mol
# Density = 1.973822 g / cm^3
# Si number density = 19.783247 Si / 1000 Ang^3
#
#
#
# Elastic Constant Matrix: (Units=GPa)
#
#
# Indices 1 2 3 4 5 6 
#
# 1 119.1781 47.8906 66.5281 0.0000 0.0000 0.0000
# 2 47.8906 87.1298 46.5548 0.0000 0.0000 0.0000
# 3 66.5281 46.5548 164.6448 0.0000 0.0000 0.0000
# 4 0.0000 0.0000 0.0000 19.8417 0.0000 0.0000
# 5 0.0000 0.0000 0.0000 0.0000 18.8043 0.0000
# 6 0.0000 0.0000 0.0000 0.0000 0.0000 23.4171
#
#
#
# Elastic Compliance Matrix: (Units=1/GPa)
#
#
# Indices 1 2 3 4 5 6 
#
# 1 0.012366 -0.004862 -0.003622 0.000000 0.000000 0.000000
# 2 -0.004862 0.015431 -0.002399 0.000000 0.000000 0.000000
# 3 -0.003622 -0.002399 0.008216 0.000000 0.000000 0.000000
# 4 0.000000 0.000000 0.000000 0.050399 0.000000 0.000000
# 5 0.000000 0.000000 0.000000 0.000000 0.053179 0.000000
# 6 0.000000 0.000000 0.000000 0.000000 0.000000 0.042704
#
#
# Mechanical properties :
#
#
# Convention : Reuss Voigt Hill
#
# Bulk Modulus (GPa) = 70.18726 76.98887 73.58806
# Shear Modulus (GPa) = 23.94521 26.41123 25.17822
#
# Velocity S-wave (km/s) = 3.48282 3.65777 3.57137
# Velocity P-wave (km/s) = 7.19226 7.53921 7.36778
#
# Compressibility (1/GPa) = 0.01424760
#
# Stress axis : x y z
#
# Youngs Moduli (GPa) = 80.86379 64.80418 121.71986
#
# Poissons Ratio (x) = 0.31506 0.44090
# Poissons Ratio (y) = 0.39314 0.29198
# Poissons Ratio (z) = 0.29291 0.15545
#
# Static dielectric constant tensor:
#      x y z
#    x 3.480980 0.000000 0.000000 
#    y 0.000000 3.455690 0.000000 
#    z 0.000000 0.000000 3.718390 
# 
# 
# High freq. dielectric constant tensor:
#      x y z
#    x 1.768930 0.000000 0.000000 
#    y 0.000000 1.757790 0.000000 
#    z 0.000000 0.000000 1.776620 
# 
# From -- ./inp_files/71491.got.cif
#   From: 2010.03.12/outbox.cif.g09.slc.cpg/sg65_36_cif.got.tgz:71491.got - 2010.04.10 20:52:16.
