data_PCOD8270563
_publ_section_title
;
Structure prediction by ZEFSAII (Michael W. Deem and Ramdas Pophale) SiO2 
 PCOD8270563
Probable space group: C M M M
;
_chemical_formula_sum "Si O2"
_cell_formula_units_Z 72
_cell_length_a 9.032634
_cell_length_b 31.658455
_cell_length_c 13.508504
_cell_angle_alpha 90.000000
_cell_angle_beta 90.000000
_cell_angle_gamma 90.000000
_cell_volume 3862.881497
_symmetry_space_group_name_H-M "C M M M"
_symmetry_group_IT_number 65
_symmetry_cell_setting 'orthorhombic'
loop_
_space_group_symop_operation_xyz
x,y,z
-x,-y,z
x,-y,-z
-x,y,-z
-x,-y,-z
x,y,-z
-x,y,z
x,-y,z
1/2+x,1/2+y,z
1/2-x,1/2-y,z
1/2+x,1/2-y,-z
1/2-x,1/2+y,-z
1/2-x,1/2-y,-z
1/2+x,1/2+y,-z
1/2-x,1/2+y,z
1/2+x,1/2-y,z
loop_
_atom_site_type_symbol
_atom_site_label
_atom_site_fract_x
_atom_site_fract_y
_atom_site_fract_z
Si Si1 0.827305 0.208152 0.211037
Si Si2 0.829056 0.332435 0.386908
Si Si3 0.671986 0.621058 0.113708
Si Si4 0.324700 0.500000 0.386135
Si Si5 0.327950 0.079334 0.711469
O O1 0.750000 0.250000 0.167961
O O2 0.769596 0.198748 0.321525
O O3 0.786802 0.169465 0.138785
O O4 0.000000 0.216700 0.216182
O O5 0.782546 0.325504 0.500000
O O6 0.797821 0.380904 0.359153
O O7 0.000000 0.321268 0.368227
O O8 0.500000 0.612875 0.137287
O O9 0.769765 0.589127 0.178231
O O10 0.710194 0.612276 0.000000
O O11 0.500000 0.500000 0.376446
O O12 0.273155 0.500000 0.500000
O O13 0.262102 0.540897 0.332774
O O14 0.500000 0.067458 0.717239
#
# Coordination Sequence:
#
# PCOD8270563 Si02
#       5
#    16  16  16   8  16
#     4  10  20  33  50  74 103 135 173 217 263 311
#     4   9  18  33  52  73 100 136 174 212 259 313
#     4   9  19  37  58  78 104 139 176 216 265 318
#     4  11  23  37  56  83 114 147 179 210 250 305
#     4  10  20  35  56  82 110 138 173 219 265 310
#
# _framework density 18.638936000000001
#
# number of rings (size 3 to 8) (size 9 to 14) (size 15 to 20)
#    0.000    2.333    0.000    2.333    0.000    5.333 
#    0.000    0.556    0.000    3.333    0.000    0.000 
#    0.000    0.000    0.000    0.000    0.000    0.000 
#
# Total GULP energy -446534.514974 kJ/mol
# GULP energy per Si atom -12403.736527 kJ/mol
# Density = 1.859651 g / cm^3
# Si number density = 18.638936 Si / 1000 Ang^3
#
#
#
# Elastic Constant Matrix: (Units=GPa)
#
#
# Indices 1 2 3 4 5 6 
#
# 1 81.8442 48.6081 42.9371 0.0000 0.0000 0.0000
# 2 48.6081 93.4789 35.6872 0.0000 0.0000 0.0000
# 3 42.9371 35.6872 101.3753 0.0000 0.0000 0.0000
# 4 0.0000 0.0000 0.0000 14.2217 0.0000 0.0000
# 5 0.0000 0.0000 0.0000 0.0000 28.2589 0.0000
# 6 0.0000 0.0000 0.0000 0.0000 0.0000 34.2237
#
#
#
# Elastic Compliance Matrix: (Units=1/GPa)
#
#
# Indices 1 2 3 4 5 6 
#
# 1 0.020082 -0.008313 -0.005580 0.000000 0.000000 0.000000
# 2 -0.008313 0.015799 -0.002041 0.000000 0.000000 0.000000
# 3 -0.005580 -0.002041 0.012946 0.000000 0.000000 0.000000
# 4 0.000000 0.000000 0.000000 0.070315 0.000000 0.000000
# 5 0.000000 0.000000 0.000000 0.000000 0.035387 0.000000
# 6 0.000000 0.000000 0.000000 0.000000 0.000000 0.029219
#
#
# Mechanical properties :
#
#
# Convention : Reuss Voigt Hill
#
# Bulk Modulus (GPa) = 58.95755 59.01814 58.98785
# Shear Modulus (GPa) = 22.59687 25.30526 23.95106
#
# Velocity S-wave (km/s) = 3.48566 3.68864 3.58858
# Velocity P-wave (km/s) = 6.92097 7.06215 6.99192
#
# Compressibility (1/GPa) = 0.01696136
#
# Stress axis : x y z
#
# Youngs Moduli (GPa) = 49.79486 63.29407 77.24366
#
# Poissons Ratio (x) = 0.52614 0.43098
# Poissons Ratio (y) = 0.41392 0.15766
# Poissons Ratio (z) = 0.27783 0.12919
#
# Static dielectric constant tensor:
#      x y z
#    x 3.466540 0.000000 0.000000 
#    y 0.000000 3.375240 0.000000 
#    z 0.000000 0.000000 3.414180 
# 
# 
# High freq. dielectric constant tensor:
#      x y z
#    x 1.729730 0.000000 0.000000 
#    y 0.000000 1.719830 0.000000 
#    z 0.000000 0.000000 1.721120 
# 
# From -- ./inp_files/36960.got.cif
#   From: 2010.03.12/outbox.cif.g09.slc.cpg/sg65_19_cif.got.tgz:36960.got - 2010.04.10 20:52:16.
