data_PCOD8270661
_publ_section_title
;
Structure prediction by ZEFSAII (Michael W. Deem and Ramdas Pophale) SiO2 
 PCOD8270661
Probable space group: C M M M
;
_chemical_formula_sum "Si O2"
_cell_formula_units_Z 96
_cell_length_a 30.361130
_cell_length_b 9.088604
_cell_length_c 19.518783
_cell_angle_alpha 90.000000
_cell_angle_beta 90.000000
_cell_angle_gamma 90.000000
_cell_volume 5386.018594
_symmetry_space_group_name_H-M "C M M M"
_symmetry_group_IT_number 65
_symmetry_cell_setting 'orthorhombic'
loop_
_space_group_symop_operation_xyz
x,y,z
-x,-y,z
x,-y,-z
-x,y,-z
-x,-y,-z
x,y,-z
-x,y,z
x,-y,z
1/2+x,1/2+y,z
1/2-x,1/2-y,z
1/2+x,1/2-y,-z
1/2-x,1/2+y,-z
1/2-x,1/2-y,-z
1/2+x,1/2+y,-z
1/2-x,1/2+y,z
1/2+x,1/2-y,z
loop_
_atom_site_type_symbol
_atom_site_label
_atom_site_fract_x
_atom_site_fract_y
_atom_site_fract_z
Si Si1 0.551359 0.328760 0.326868
Si Si2 0.207645 0.834520 0.918396
Si Si3 0.050344 0.329831 0.188984
Si Si4 0.879055 0.671623 0.077904
Si Si5 0.619618 0.169944 0.580806
Si Si6 0.207021 0.166574 0.418413
O O1 0.500000 0.298607 0.339785
O O2 0.562979 0.500000 0.330072
O O3 0.565768 0.267333 0.253053
O O4 0.577177 0.244296 0.385967
O O5 0.250000 0.750000 0.888174
O O6 0.163320 0.756111 0.892608
O O7 0.208321 0.000000 0.889966
O O8 0.209193 0.831528 0.000000
O O9 0.057029 0.500000 0.208768
O O10 0.079050 0.284770 0.123379
O O11 0.000000 0.296263 0.169180
O O12 0.868140 0.500000 0.082071
O O13 0.889814 0.718890 0.000000
O O14 0.614646 0.189183 0.500000
O O15 0.663691 0.249367 0.608113
O O16 0.622351 0.000000 0.602130
O O17 0.208167 0.166931 0.500000
O O18 0.250000 0.250000 0.389389
O O19 0.206629 0.000000 0.390186
#
# Coordination Sequence:
#
# PCOD8270661 Si02
#       6
#    16  16  16  16  16  16
#     4  10  21  36  53  72  96 129 167 205 247 297
#     4   9  16  26  42  65  94 127 161 197 238 285
#     4   9  18  33  52  72  96 129 166 201 240 290
#     4   9  17  29  47  73 102 129 160 200 243 285
#     4  10  20  33  51  76 103 130 163 204 248 292
#     4   9  16  27  45  70 101 134 166 200 239 285
#
# _framework density 17.823926
#
# number of rings (size 3 to 8) (size 9 to 14) (size 15 to 20)
#    0.000    2.667    0.000    2.000    0.000    7.333 
#    0.000    3.333    0.000    1.000    0.000    7.000 
#    0.000    0.000    0.000    0.000    0.000    0.000 
#
# Total GULP energy -595268.479140 kJ/mol
# GULP energy per Si atom -12401.426649 kJ/mol
# Density = 1.778336 g / cm^3
# Si number density = 17.823926 Si / 1000 Ang^3
#
#
#
# Elastic Constant Matrix: (Units=GPa)
#
#
# Indices 1 2 3 4 5 6 
#
# 1 120.4673 72.6836 47.9806 0.0000 0.0000 0.0000
# 2 72.6836 129.6597 42.5938 0.0000 0.0000 0.0000
# 3 47.9806 42.5938 44.6033 0.0000 0.0000 0.0000
# 4 0.0000 0.0000 0.0000 20.1654 0.0000 0.0000
# 5 0.0000 0.0000 0.0000 0.0000 5.2201 0.0000
# 6 0.0000 0.0000 0.0000 0.0000 0.0000 36.2444
#
#
#
# Elastic Compliance Matrix: (Units=1/GPa)
#
#
# Indices 1 2 3 4 5 6 
#
# 1 0.016463 -0.004970 -0.012963 0.000000 0.000000 0.000000
# 2 -0.004970 0.012738 -0.006818 0.000000 0.000000 0.000000
# 3 -0.012963 -0.006818 0.042875 0.000000 0.000000 0.000000
# 4 0.000000 0.000000 0.000000 0.049590 0.000000 0.000000
# 5 0.000000 0.000000 0.000000 0.000000 0.191567 0.000000
# 6 0.000000 0.000000 0.000000 0.000000 0.000000 0.027590
#
#
# Mechanical properties :
#
#
# Convention : Reuss Voigt Hill
#
# Bulk Modulus (GPa) = 44.29871 69.02735 56.66303
# Shear Modulus (GPa) = 12.56753 21.09080 16.82916
#
# Velocity S-wave (km/s) = 2.65824 3.44362 3.07610
# Velocity P-wave (km/s) = 5.85911 7.39073 6.66903
#
# Compressibility (1/GPa) = 0.02257402
#
# Stress axis : x y z
#
# Youngs Moduli (GPa) = 60.74316 78.50309 23.32345
#
# Poissons Ratio (x) = 0.39017 0.30234
# Poissons Ratio (y) = 0.30190 0.15902
# Poissons Ratio (z) = 0.78742 0.53523
#
# Static dielectric constant tensor:
#      x y z
#    x 3.418290 0.000000 0.000000 
#    y 0.000000 3.467820 0.000000 
#    z 0.000000 0.000000 2.924810 
# 
# 
# High freq. dielectric constant tensor:
#      x y z
#    x 1.699480 0.000000 0.000000 
#    y 0.000000 1.701300 0.000000 
#    z 0.000000 0.000000 1.644780 
# 
# From -- ./inp_files/60164.got.cif
#   From: 2010.03.12/outbox.cif.g09.slc.cpg/sg65_31_cif.got.tgz:60164.got - 2010.04.10 20:52:16.
