data_PCOD8270272
_publ_section_title
;
Structure prediction by ZEFSAII (Michael W. Deem and Ramdas Pophale) SiO2 
 PCOD8270272
Probable space group: C M M M
;
_chemical_formula_sum "Si O2"
_cell_formula_units_Z 104
_cell_length_a 30.539440
_cell_length_b 14.631913
_cell_length_c 13.246012
_cell_angle_alpha 90.000000
_cell_angle_beta 90.000000
_cell_angle_gamma 90.000000
_cell_volume 5918.986147
_symmetry_space_group_name_H-M "C M M M"
_symmetry_group_IT_number 65
_symmetry_cell_setting 'orthorhombic'
loop_
_space_group_symop_operation_xyz
x,y,z
-x,-y,z
x,-y,-z
-x,y,-z
-x,-y,-z
x,y,-z
-x,y,z
x,-y,z
1/2+x,1/2+y,z
1/2-x,1/2-y,z
1/2+x,1/2-y,-z
1/2-x,1/2+y,-z
1/2-x,1/2-y,-z
1/2+x,1/2+y,-z
1/2-x,1/2+y,z
1/2+x,1/2-y,z
loop_
_atom_site_type_symbol
_atom_site_label
_atom_site_fract_x
_atom_site_fract_y
_atom_site_fract_z
Si Si1 0.949284 0.900784 0.687804
Si Si2 0.663229 0.759588 0.883061
Si Si3 0.212259 0.394623 0.384428
Si Si4 0.750000 0.750000 0.757343
Si Si5 0.949023 0.709756 0.614841
Si Si6 0.404350 0.602999 0.110803
Si Si7 0.624285 0.106055 0.729444
O O1 0.931056 0.814571 0.624621
O O2 0.941833 0.881031 0.806370
O O3 0.000000 0.908656 0.666332
O O4 0.927896 0.000000 0.656766
O O5 0.708770 0.739554 0.829378
O O6 0.636531 0.667210 0.867339
O O7 0.637151 0.843752 0.833125
O O8 0.670842 0.784054 0.000000
O O9 0.217711 0.363525 0.500000
O O10 0.224796 0.500000 0.369789
O O11 0.245472 0.338301 0.314380
O O12 0.161918 0.376912 0.353543
O O13 0.943122 0.677583 0.500000
O O14 0.921452 0.643639 0.686526
O O15 0.000000 0.704076 0.647961
O O16 0.386128 0.500000 0.115805
O O17 0.424669 0.623958 0.000000
O O18 0.618241 0.000000 0.754954
#
# Coordination Sequence:
#
# PCOD8270272 Si02
#       7
#    16  16  16   8  16  16  16
#     4   9  17  30  49  74 104 134 164 201 246 301
#     4  10  20  35  53  76 103 132 166 209 257 310
#     4   9  18  33  53  76 102 134 172 211 254 304
#     4  10  20  32  52  78 102 134 166 208 256 306
#     4  10  20  33  51  77 106 136 172 213 258 306
#     4   9  17  30  50  74  99 129 162 199 247 299
#     4  10  20  35  54  75 100 136 178 220 259 299
#
# _framework density 17.570575999999999
#
# number of rings (size 3 to 8) (size 9 to 14) (size 15 to 20)
#    0.000    2.462    1.538    0.923    0.000    2.769 
#    0.000    3.846    0.000    3.231    0.000    1.077 
#    0.000    0.000    0.000    0.000    0.000    0.000 
#
# Total GULP energy -644596.106060 kJ/mol
# GULP energy per Si atom -12396.078963 kJ/mol
# Density = 1.753058 g / cm^3
# Si number density = 17.570576 Si / 1000 Ang^3
#
#
#
# Elastic Constant Matrix: (Units=GPa)
#
#
# Indices 1 2 3 4 5 6 
#
# 1 54.6573 39.2720 34.2119 0.0000 0.0000 0.0000
# 2 39.2720 102.8759 45.7082 0.0000 0.0000 0.0000
# 3 34.2119 45.7082 99.0463 0.0000 0.0000 0.0000
# 4 0.0000 0.0000 0.0000 40.1092 0.0000 0.0000
# 5 0.0000 0.0000 0.0000 0.0000 23.8483 0.0000
# 6 0.0000 0.0000 0.0000 0.0000 0.0000 25.5350
#
#
#
# Elastic Compliance Matrix: (Units=1/GPa)
#
#
# Indices 1 2 3 4 5 6 
#
# 1 0.027703 -0.007955 -0.005898 0.000000 0.000000 0.000000
# 2 -0.007955 0.014512 -0.003949 0.000000 0.000000 0.000000
# 3 -0.005898 -0.003949 0.013956 0.000000 0.000000 0.000000
# 4 0.000000 0.000000 0.000000 0.024932 0.000000 0.000000
# 5 0.000000 0.000000 0.000000 0.000000 0.041932 0.000000
# 6 0.000000 0.000000 0.000000 0.000000 0.000000 0.039162
#
#
# Mechanical properties :
#
#
# Convention : Reuss Voigt Hill
#
# Bulk Modulus (GPa) = 48.62203 54.99594 51.80899
# Shear Modulus (GPa) = 24.43112 27.05766 25.74439
#
# Velocity S-wave (km/s) = 3.73293 3.92847 3.83194
# Velocity P-wave (km/s) = 6.80530 7.20729 7.00918
#
# Compressibility (1/GPa) = 0.02056681
#
# Stress axis : x y z
#
# Youngs Moduli (GPa) = 36.09667 68.90913 71.65363
#
# Poissons Ratio (x) = 0.54817 0.42261
# Poissons Ratio (y) = 0.28715 0.28298
# Poissons Ratio (z) = 0.21290 0.27214
#
# Static dielectric constant tensor:
#      x y z
#    x 3.055480 0.000000 0.000000 
#    y 0.000000 4.740270 0.000000 
#    z 0.000000 0.000000 3.356040 
# 
# 
# High freq. dielectric constant tensor:
#      x y z
#    x 1.658180 0.000000 0.000000 
#    y 0.000000 1.687370 0.000000 
#    z 0.000000 0.000000 1.683310 
# 
# From -- ./inp_files/33986.got.cif
#   From: 2010.03.12/outbox.cif.g09.slc.cpg/sg65_17_cif.got.tgz:33986.got - 2010.04.10 20:52:16.
