data_PCOD8270361
_publ_section_title
;
Structure prediction by ZEFSAII (Michael W. Deem and Ramdas Pophale) SiO2 
 PCOD8270361
Probable space group: C M M M
;
_chemical_formula_sum "Si O2"
_cell_formula_units_Z 104
_cell_length_a 9.720185
_cell_length_b 16.405585
_cell_length_c 35.021952
_cell_angle_alpha 90.000000
_cell_angle_beta 90.000000
_cell_angle_gamma 90.000000
_cell_volume 5584.786826
_symmetry_space_group_name_H-M "C M M M"
_symmetry_group_IT_number 65
_symmetry_cell_setting 'orthorhombic'
loop_
_space_group_symop_operation_xyz
x,y,z
-x,-y,z
x,-y,-z
-x,y,-z
-x,-y,-z
x,y,-z
-x,y,z
x,-y,z
1/2+x,1/2+y,z
1/2-x,1/2-y,z
1/2+x,1/2-y,-z
1/2-x,1/2+y,-z
1/2-x,1/2-y,-z
1/2+x,1/2+y,-z
1/2-x,1/2+y,z
1/2+x,1/2-y,z
loop_
_atom_site_type_symbol
_atom_site_label
_atom_site_fract_x
_atom_site_fract_y
_atom_site_fract_z
Si Si1 0.838782 0.000000 0.044192
Si Si2 0.342270 0.171485 0.458337
Si Si3 0.162030 0.831315 0.916930
Si Si4 0.650261 0.094974 0.770404
Si Si5 0.839810 0.325183 0.693243
Si Si6 0.663316 0.088698 0.617980
Si Si7 0.842842 0.093837 0.163587
O O1 0.783040 0.086020 0.061708
O O2 0.000000 0.000000 0.052339
O O3 0.799250 0.000000 0.000000
O O4 0.329555 0.127307 0.500000
O O5 0.500000 0.197102 0.450780
O O6 0.250000 0.250000 0.458636
O O7 0.287114 0.115969 0.423956
O O8 0.250000 0.750000 0.928703
O O9 0.185470 0.848250 0.872320
O O10 0.000000 0.815585 0.926196
O O11 0.500000 0.133703 0.778742
O O12 0.689256 0.108938 0.726201
O O13 0.757106 0.131242 0.800963
O O14 0.646368 0.000000 0.777120
O O15 0.750000 0.250000 0.706285
O O16 0.782343 0.354892 0.652216
O O17 0.000000 0.301980 0.690223
O O18 0.500000 0.084778 0.619832
O O19 0.727212 0.000000 0.624789
O O20 0.000000 0.097931 0.176461
O O21 0.803504 0.000000 0.153296
#
# Coordination Sequence:
#
# PCOD8270361 Si02
#       7
#     8  16  16  16  16  16  16
#     4   9  18  36  61  83 109 149 189 223 267 327
#     4   9  17  29  47  71  96 121 150 186 229 279
#     4  10  20  35  56  83 112 144 184 226 269 321
#     4   9  18  32  50  72  97 127 166 209 251 295
#     4  10  20  33  49  68  93 125 160 199 243 292
#     4   9  17  30  49  70  91 119 156 196 237 280
#     4   9  17  32  53  74 101 138 176 212 255 309
#
# _framework density 18.622017
#
# number of rings (size 3 to 8) (size 9 to 14) (size 15 to 20)
#    0.000    2.692    0.769    0.923    0.000    4.308 
#    0.000    5.000    0.000    3.231    0.000    2.154 
#    0.000    0.000    0.000    0.000    0.000    0.000 
#
# Total GULP energy -644310.502073 kJ/mol
# GULP energy per Si atom -12390.586578 kJ/mol
# Density = 1.857963 g / cm^3
# Si number density = 18.622017 Si / 1000 Ang^3
#
#
#
# Elastic Constant Matrix: (Units=GPa)
#
#
# Indices 1 2 3 4 5 6 
#
# 1 47.3903 37.0944 39.8427 0.0000 0.0000 0.0000
# 2 37.0944 86.3297 42.1620 0.0000 0.0000 0.0000
# 3 39.8427 42.1620 116.8677 0.0000 0.0000 0.0000
# 4 0.0000 0.0000 0.0000 23.2220 0.0000 0.0000
# 5 0.0000 0.0000 0.0000 0.0000 21.1076 0.0000
# 6 0.0000 0.0000 0.0000 0.0000 0.0000 22.0535
#
#
#
# Elastic Compliance Matrix: (Units=1/GPa)
#
#
# Indices 1 2 3 4 5 6 
#
# 1 0.037667 -0.012033 -0.008500 0.000000 0.000000 0.000000
# 2 -0.012033 0.017905 -0.002357 0.000000 0.000000 0.000000
# 3 -0.008500 -0.002357 0.012305 0.000000 0.000000 0.000000
# 4 0.000000 0.000000 0.000000 0.043063 0.000000 0.000000
# 5 0.000000 0.000000 0.000000 0.000000 0.047376 0.000000
# 6 0.000000 0.000000 0.000000 0.000000 0.000000 0.045344
#
#
# Mechanical properties :
#
#
# Convention : Reuss Voigt Hill
#
# Bulk Modulus (GPa) = 45.25807 54.30955 49.78381
# Shear Modulus (GPa) = 19.46986 22.04252 20.75619
#
# Velocity S-wave (km/s) = 3.23697 3.44420 3.34219
# Velocity P-wave (km/s) = 6.19088 6.71149 6.45643
#
# Compressibility (1/GPa) = 0.02209551
#
# Stress axis : x y z
#
# Youngs Moduli (GPa) = 26.54851 55.84951 81.26799
#
# Poissons Ratio (x) = 0.67206 0.69079
# Poissons Ratio (y) = 0.31947 0.19156
# Poissons Ratio (z) = 0.22567 0.13165
#
# Static dielectric constant tensor:
#      x y z
#    x 3.291780 0.000000 0.000000 
#    y 0.000000 3.374870 0.000000 
#    z 0.000000 0.000000 3.710320 
# 
# 
# High freq. dielectric constant tensor:
#      x y z
#    x 1.690370 0.000000 0.000000 
#    y 0.000000 1.709950 0.000000 
#    z 0.000000 0.000000 1.737050 
# 
# From -- ./inp_files/77432.got.cif
#   From: 2010.03.12/outbox.cif.g09.slc.cpg/sg65_39_cif.got.tgz:77432.got - 2010.04.10 20:52:16.
