data_PCOD8270288
_publ_section_title
;
Structure prediction by ZEFSAII (Michael W. Deem and Ramdas Pophale) SiO2 
 PCOD8270288
Probable space group: C M M M
;
_chemical_formula_sum "Si O2"
_cell_formula_units_Z 72
_cell_length_a 9.191471
_cell_length_b 23.248836
_cell_length_c 17.898846
_cell_angle_alpha 90.000000
_cell_angle_beta 90.000000
_cell_angle_gamma 90.000000
_cell_volume 3824.822334
_symmetry_space_group_name_H-M "C M M M"
_symmetry_group_IT_number 65
_symmetry_cell_setting 'orthorhombic'
loop_
_space_group_symop_operation_xyz
x,y,z
-x,-y,z
x,-y,-z
-x,y,-z
-x,-y,-z
x,y,-z
-x,y,z
x,-y,z
1/2+x,1/2+y,z
1/2-x,1/2-y,z
1/2+x,1/2-y,-z
1/2-x,1/2+y,-z
1/2-x,1/2-y,-z
1/2+x,1/2+y,-z
1/2-x,1/2+y,z
1/2+x,1/2-y,z
loop_
_atom_site_type_symbol
_atom_site_label
_atom_site_fract_x
_atom_site_fract_y
_atom_site_fract_z
Si Si1 0.165860 0.066288 0.260058
Si Si2 0.673614 0.689313 0.500000
Si Si3 0.836174 0.651875 0.642450
Si Si4 0.329188 0.810117 0.000000
Si Si5 0.658532 0.655721 0.137708
Si Si6 0.250000 0.250000 0.749592
O O1 0.280385 0.095616 0.315091
O O2 0.182052 0.095492 0.179247
O O3 0.000000 0.074069 0.289485
O O4 0.208417 0.000000 0.251908
O O5 0.500000 0.695795 0.500000
O O6 0.750000 0.750000 0.500000
O O7 0.725375 0.656834 0.573859
O O8 0.842738 0.708359 0.695498
O O9 0.000000 0.641176 0.613620
O O10 0.250000 0.750000 0.000000
O O11 0.283312 0.842761 0.075303
O O12 0.500000 0.801365 0.000000
O O13 0.500000 0.657212 0.098761
O O14 0.656616 0.708705 0.196655
#
# Coordination Sequence:
#
# PCOD8270288 Si02
#       6
#    16   8  16   8  16   8
#     4   9  20  40  63  86 114 150 194 241 287 338
#     4  12  24  38  57  84 121 158 192 232 284 346
#     4  11  22  36  58  87 119 152 191 237 287 342
#     4  12  24  36  53  80 117 153 186 230 286 343
#     4  10  20  35  57  83 113 149 190 231 280 340
#     4  10  20  32  56  82 118 146 188 228 290 338
#
# _framework density 18.824403
#
# number of rings (size 3 to 8) (size 9 to 14) (size 15 to 20)
#    0.000    1.556    2.222    3.333    0.000    5.778 
#    0.000    1.111    0.000    6.667    0.000    0.000 
#    0.000    0.000    0.000    0.000    0.000    0.000 
#
# Total GULP energy -446289.654218 kJ/mol
# GULP energy per Si atom -12396.934839 kJ/mol
# Density = 1.878156 g / cm^3
# Si number density = 18.824403 Si / 1000 Ang^3
#
#
#
# Elastic Constant Matrix: (Units=GPa)
#
#
# Indices 1 2 3 4 5 6 
#
# 1 160.4815 47.6470 58.2888 0.0000 0.0000 0.0000
# 2 47.6470 131.8726 43.3576 0.0000 0.0000 0.0000
# 3 58.2888 43.3576 105.4144 0.0000 0.0000 0.0000
# 4 0.0000 0.0000 0.0000 16.3854 0.0000 0.0000
# 5 0.0000 0.0000 0.0000 0.0000 32.1591 0.0000
# 6 0.0000 0.0000 0.0000 0.0000 0.0000 21.2175
#
#
#
# Elastic Compliance Matrix: (Units=1/GPa)
#
#
# Indices 1 2 3 4 5 6 
#
# 1 0.008108 -0.001683 -0.003791 0.000000 0.000000 0.000000
# 2 -0.001683 0.009118 -0.002820 0.000000 0.000000 0.000000
# 3 -0.003791 -0.002820 0.012742 0.000000 0.000000 0.000000
# 4 0.000000 0.000000 0.000000 0.061030 0.000000 0.000000
# 5 0.000000 0.000000 0.000000 0.000000 0.031095 0.000000
# 6 0.000000 0.000000 0.000000 0.000000 0.000000 0.047131
#
#
# Mechanical properties :
#
#
# Convention : Reuss Voigt Hill
#
# Bulk Modulus (GPa) = 74.73326 77.37281 76.05304
# Shear Modulus (GPa) = 26.27809 30.51742 28.39775
#
# Velocity S-wave (km/s) = 3.74031 4.03073 3.88823
# Velocity P-wave (km/s) = 7.64458 7.92805 7.78761
#
# Compressibility (1/GPa) = 0.01338092
#
# Stress axis : x y z
#
# Youngs Moduli (GPa) = 123.33682 109.66990 78.47821
#
# Poissons Ratio (x) = 0.18458 0.29751
# Poissons Ratio (y) = 0.20758 0.22129
# Poissons Ratio (z) = 0.46757 0.30924
#
# Static dielectric constant tensor:
#      x y z
#    x 3.494560 0.000000 0.000000 
#    y 0.000000 3.345060 0.000000 
#    z 0.000000 0.000000 3.379900 
# 
# 
# High freq. dielectric constant tensor:
#      x y z
#    x 1.735590 0.000000 0.000000 
#    y 0.000000 1.714610 0.000000 
#    z 0.000000 0.000000 1.731830 
# 
# From -- ./inp_files/49567.got.cif
#   From: 2010.03.12/outbox.cif.g09.slc.cpg/sg65_25_cif.got.tgz:49567.got - 2010.04.10 20:52:16.
