data_PCOD8270619
_publ_section_title
;
Structure prediction by ZEFSAII (Michael W. Deem and Ramdas Pophale) SiO2 
 PCOD8270619
Probable space group: C M M M
;
_chemical_formula_sum "Si O2"
_cell_formula_units_Z 88
_cell_length_a 8.975551
_cell_length_b 27.896622
_cell_length_c 19.101320
_cell_angle_alpha 90.000000
_cell_angle_beta 90.000000
_cell_angle_gamma 90.000000
_cell_volume 4782.732783
_symmetry_space_group_name_H-M "C M M M"
_symmetry_group_IT_number 65
_symmetry_cell_setting 'orthorhombic'
loop_
_space_group_symop_operation_xyz
x,y,z
-x,-y,z
x,-y,-z
-x,y,-z
-x,-y,-z
x,y,-z
-x,y,z
x,-y,z
1/2+x,1/2+y,z
1/2-x,1/2-y,z
1/2+x,1/2-y,-z
1/2-x,1/2+y,-z
1/2-x,1/2-y,-z
1/2+x,1/2+y,-z
1/2-x,1/2+y,z
1/2+x,1/2-y,z
loop_
_atom_site_type_symbol
_atom_site_label
_atom_site_fract_x
_atom_site_fract_y
_atom_site_fract_z
Si Si1 0.339159 0.500000 0.082062
Si Si2 0.322217 0.603615 0.920296
Si Si3 0.325202 0.387305 0.421035
Si Si4 0.675826 0.140311 0.209874
Si Si5 0.674109 0.053875 0.691882
Si Si6 0.675854 0.700539 0.676136
O O1 0.500000 0.500000 0.120184
O O2 0.256924 0.449771 0.099743
O O3 0.369182 0.500000 0.000000
O O4 0.500000 0.604822 0.910158
O O5 0.241047 0.640669 0.868765
O O6 0.280342 0.617378 0.000000
O O7 0.263059 0.385879 0.500000
O O8 0.500000 0.395627 0.420024
O O9 0.252466 0.431759 0.380540
O O10 0.282766 0.337357 0.384113
O O11 0.500000 0.148685 0.208201
O O12 0.721436 0.090072 0.246442
O O13 0.752733 0.183981 0.250529
O O14 0.500000 0.057022 0.677909
O O15 0.722812 0.000000 0.713429
O O16 0.500000 0.706695 0.685709
O O17 0.750000 0.750000 0.652439
#
# Coordination Sequence:
#
# PCOD8270619 Si02
#       6
#     8  16  16  16  16  16
#     4   7  12  24  41  63  93 129 166 201 240 289
#     4   9  17  30  48  71 101 136 173 213 256 301
#     4   9  19  35  53  76 105 133 165 207 251 299
#     4  10  20  33  51  74 102 135 173 214 256 302
#     4   9  19  34  49  69 101 140 178 213 250 293
#     4  10  20  36  57  78 102 130 164 205 255 309
#
# _framework density 18.399522999999999
#
# number of rings (size 3 to 8) (size 9 to 14) (size 15 to 20)
#    0.000    2.818    0.000    2.182    1.273    3.273 
#    0.000    1.818    0.000    2.182    0.000    0.000 
#    0.000    0.000    0.000    0.000    0.000    0.000 
#
# Total GULP energy -545421.937616 kJ/mol
# GULP energy per Si atom -12395.953128 kJ/mol
# Density = 1.835764 g / cm^3
# Si number density = 18.399523 Si / 1000 Ang^3
#
#
#
# Elastic Constant Matrix: (Units=GPa)
#
#
# Indices 1 2 3 4 5 6 
#
# 1 47.9020 17.9270 25.9798 0.0000 0.0000 0.0000
# 2 17.9270 58.8241 9.5606 0.0000 0.0000 0.0000
# 3 25.9798 9.5606 93.3792 0.0000 0.0000 0.0000
# 4 0.0000 0.0000 0.0000 18.2615 0.0000 0.0000
# 5 0.0000 0.0000 0.0000 0.0000 26.4515 0.0000
# 6 0.0000 0.0000 0.0000 0.0000 0.0000 23.8216
#
#
#
# Elastic Compliance Matrix: (Units=1/GPa)
#
#
# Indices 1 2 3 4 5 6 
#
# 1 0.027289 -0.007202 -0.006855 0.000000 0.000000 0.000000
# 2 -0.007202 0.019188 0.000039 0.000000 0.000000 0.000000
# 3 -0.006855 0.000039 0.012612 0.000000 0.000000 0.000000
# 4 0.000000 0.000000 0.000000 0.054760 0.000000 0.000000
# 5 0.000000 0.000000 0.000000 0.000000 0.037805 0.000000
# 6 0.000000 0.000000 0.000000 0.000000 0.000000 0.041979
#
#
# Mechanical properties :
#
#
# Convention : Reuss Voigt Hill
#
# Bulk Modulus (GPa) = 32.20242 34.11558 33.15900
# Shear Modulus (GPa) = 21.54977 23.48279 22.51628
#
# Velocity S-wave (km/s) = 3.42601 3.57637 3.50200
# Velocity P-wave (km/s) = 5.76106 5.96956 5.86624
#
# Compressibility (1/GPa) = 0.03105357
#
# Stress axis : x y z
#
# Youngs Moduli (GPa) = 36.64454 52.11474 79.28848
#
# Poissons Ratio (x) = 0.37535 0.54352
# Poissons Ratio (y) = 0.26393 -0.00311
# Poissons Ratio (z) = 0.25120 -0.00205
#
# Static dielectric constant tensor:
#      x y z
#    x 3.198580 0.000000 0.000000 
#    y 0.000000 3.390360 0.000000 
#    z 0.000000 0.000000 3.384200 
# 
# 
# High freq. dielectric constant tensor:
#      x y z
#    x 1.702740 0.000000 0.000000 
#    y 0.000000 1.697740 0.000000 
#    z 0.000000 0.000000 1.709550 
# 
# From -- ./inp_files/50437.got.cif
#   From: 2010.03.12/outbox.cif.g09.slc.cpg/sg65_26_cif.got.tgz:50437.got - 2010.04.10 20:52:16.
