data_PCOD8270772
_publ_section_title
;
Structure prediction by ZEFSAII (Michael W. Deem and Ramdas Pophale) SiO2 
 PCOD8270772
Probable space group: C M M M
;
_chemical_formula_sum "Si O2"
_cell_formula_units_Z 80
_cell_length_a 14.187239
_cell_length_b 30.836266
_cell_length_c 10.115205
_cell_angle_alpha 90.000000
_cell_angle_beta 90.000000
_cell_angle_gamma 90.000000
_cell_volume 4425.214809
_symmetry_space_group_name_H-M "C M M M"
_symmetry_group_IT_number 65
_symmetry_cell_setting 'orthorhombic'
loop_
_space_group_symop_operation_xyz
x,y,z
-x,-y,z
x,-y,-z
-x,y,-z
-x,-y,-z
x,y,-z
-x,y,z
x,-y,z
1/2+x,1/2+y,z
1/2-x,1/2-y,z
1/2+x,1/2-y,-z
1/2-x,1/2+y,-z
1/2-x,1/2-y,-z
1/2+x,1/2+y,-z
1/2-x,1/2+y,z
1/2+x,1/2-y,z
loop_
_atom_site_type_symbol
_atom_site_label
_atom_site_fract_x
_atom_site_fract_y
_atom_site_fract_z
Si Si1 0.394572 0.371462 0.344007
Si Si2 0.106076 0.435976 0.149440
Si Si3 0.230939 0.047861 0.651797
Si Si4 0.254258 0.198726 0.648702
Si Si5 0.394224 0.834135 0.856585
O O1 0.404713 0.373615 0.500000
O O2 0.500000 0.370162 0.281003
O O3 0.339865 0.414806 0.294474
O O4 0.338758 0.327479 0.301302
O O5 0.176631 0.455335 0.257143
O O6 0.108576 0.384913 0.163478
O O7 0.000000 0.452871 0.178420
O O8 0.135606 0.449839 0.000000
O O9 0.260462 0.058357 0.500000
O O10 0.182307 0.000000 0.658426
O O11 0.275880 0.183074 0.500000
O O12 0.250000 0.250000 0.655245
O O13 0.341528 0.188101 0.738440
O O14 0.500000 0.816546 0.851063
O O15 0.349941 0.821991 0.000000
#
# Coordination Sequence:
#
# PCOD8270772 Si02
#       5
#    16  16  16  16  16
#     4   9  18  34  53  73 103 138 171 214 262 304
#     4   9  18  33  53  76 103 138 175 208 253 315
#     4  10  20  33  52  78 103 132 176 222 262 309
#     4  10  20  33  53  81 107 135 172 210 256 313
#     4   9  18  33  53  76 103 136 172 209 252 306
#
# _framework density 18.078218
#
# number of rings (size 3 to 8) (size 9 to 14) (size 15 to 20)
#    0.000    2.600    2.000    1.200    0.000    3.200 
#    0.000    8.000    0.000    2.400    0.000    1.400 
#    0.000    0.000    0.000    0.000    0.000    0.000 
#
# Total GULP energy -495628.635248 kJ/mol
# GULP energy per Si atom -12390.715881 kJ/mol
# Density = 1.803707 g / cm^3
# Si number density = 18.078218 Si / 1000 Ang^3
#
#
#
# Elastic Constant Matrix: (Units=GPa)
#
#
# Indices 1 2 3 4 5 6 
#
# 1 76.8980 45.4284 50.9741 0.0000 0.0000 0.0000
# 2 45.4284 99.2722 40.9976 0.0000 0.0000 0.0000
# 3 50.9741 40.9976 74.2762 0.0000 0.0000 0.0000
# 4 0.0000 0.0000 0.0000 14.0003 0.0000 0.0000
# 5 0.0000 0.0000 0.0000 0.0000 87.3623 0.0000
# 6 0.0000 0.0000 0.0000 0.0000 0.0000 13.0035
#
#
#
# Elastic Compliance Matrix: (Units=1/GPa)
#
#
# Indices 1 2 3 4 5 6 
#
# 1 0.026306 -0.005935 -0.014777 0.000000 0.000000 0.000000
# 2 -0.005935 0.014387 -0.003868 0.000000 0.000000 0.000000
# 3 -0.014777 -0.003868 0.025739 0.000000 0.000000 0.000000
# 4 0.000000 0.000000 0.000000 0.071427 0.000000 0.000000
# 5 0.000000 0.000000 0.000000 0.000000 0.011447 0.000000
# 6 0.000000 0.000000 0.000000 0.000000 0.000000 0.076903
#
#
# Mechanical properties :
#
#
# Convention : Reuss Voigt Hill
#
# Bulk Modulus (GPa) = 57.89794 58.36073 58.12933
# Shear Modulus (GPa) = 17.78561 30.40961 24.09761
#
# Velocity S-wave (km/s) = 3.13998 4.10581 3.65494
# Velocity P-wave (km/s) = 6.72621 7.40468 7.07358
#
# Compressibility (1/GPa) = 0.01727177
#
# Stress axis : x y z
#
# Youngs Moduli (GPa) = 38.01397 69.50883 38.85109
#
# Poissons Ratio (x) = 0.41256 0.57411
# Poissons Ratio (y) = 0.22563 0.15026
# Poissons Ratio (z) = 0.56174 0.26883
#
# Static dielectric constant tensor:
#      x y z
#    x 3.902740 0.000000 0.000000 
#    y 0.000000 3.885750 0.000000 
#    z 0.000000 0.000000 3.423810 
# 
# 
# High freq. dielectric constant tensor:
#      x y z
#    x 1.684860 0.000000 0.000000 
#    y 0.000000 1.708880 0.000000 
#    z 0.000000 0.000000 1.682530 
# 
# From -- ./inp_files/22847.got.cif
#   From: 2010.03.12/outbox.cif.g09.slc.cpg/sg65_12_cif.got.tgz:22847.got - 2010.04.10 20:52:16.
