data_PCOD8270738
_publ_section_title
;
Structure prediction by ZEFSAII (Michael W. Deem and Ramdas Pophale) SiO2 
 PCOD8270738
Probable space group: C M M M
;
_chemical_formula_sum "Si O2"
_cell_formula_units_Z 72
_cell_length_a 18.862914
_cell_length_b 8.666659
_cell_length_c 22.995673
_cell_angle_alpha 90.000000
_cell_angle_beta 90.000000
_cell_angle_gamma 90.000000
_cell_volume 3759.296827
_symmetry_space_group_name_H-M "C M M M"
_symmetry_group_IT_number 65
_symmetry_cell_setting 'orthorhombic'
loop_
_space_group_symop_operation_xyz
x,y,z
-x,-y,z
x,-y,-z
-x,y,-z
-x,-y,-z
x,y,-z
-x,y,z
x,-y,z
1/2+x,1/2+y,z
1/2-x,1/2-y,z
1/2+x,1/2-y,-z
1/2-x,1/2+y,-z
1/2-x,1/2-y,-z
1/2+x,1/2+y,-z
1/2-x,1/2+y,z
1/2+x,1/2-y,z
loop_
_atom_site_type_symbol
_atom_site_label
_atom_site_fract_x
_atom_site_fract_y
_atom_site_fract_z
Si Si1 0.584211 0.173740 0.563535
Si Si2 0.083466 0.320878 0.000000
Si Si3 0.916193 0.825199 0.679712
Si Si4 0.824300 0.680886 0.775586
Si Si5 0.173933 0.817067 0.899349
O O1 0.611156 0.233128 0.500000
O O2 0.500000 0.175594 0.563700
O O3 0.612851 0.281563 0.615420
O O4 0.611651 0.000000 0.574238
O O5 0.114183 0.241108 0.057147
O O6 0.103985 0.500000 0.000000
O O7 0.000000 0.294570 0.000000
O O8 0.883092 0.712031 0.727134
O O9 0.000000 0.803002 0.682871
O O10 0.893426 0.000000 0.693016
O O11 0.816199 0.500000 0.786691
O O12 0.750000 0.750000 0.753605
O O13 0.847978 0.761229 0.835324
O O14 0.250000 0.750000 0.918112
O O15 0.178140 0.000000 0.900909
#
# Coordination Sequence:
#
# PCOD8270738 Si02
#       5
#    16   8  16  16  16
#     4   8  14  26  45  70 101 137 177 220 266 317
#     4  11  24  41  60  85 117 149 182 221 268 317
#     4  10  20  33  51  78 110 142 179 223 270 320
#     4  11  22  38  59  81 108 142 182 224 269 321
#     4  11  22  39  62  85 111 143 183 224 265 317
#
# _framework density 19.152519000000002
#
# number of rings (size 3 to 8) (size 9 to 14) (size 15 to 20)
#    0.000    1.889    0.000    7.333    0.000    3.556 
#    0.000    2.222    0.000    0.667    0.000    0.000 
#    0.000    0.000    0.000    0.000    0.000    0.000 
#
# Total GULP energy -446423.311007 kJ/mol
# GULP energy per Si atom -12400.647528 kJ/mol
# Density = 1.910893 g / cm^3
# Si number density = 19.152519 Si / 1000 Ang^3
#
#
#
# Elastic Constant Matrix: (Units=GPa)
#
#
# Indices 1 2 3 4 5 6 
#
# 1 51.9982 45.8498 53.9636 0.0000 0.0000 0.0000
# 2 45.8498 149.9900 58.2642 0.0000 0.0000 0.0000
# 3 53.9636 58.2642 132.1056 0.0000 0.0000 0.0000
# 4 0.0000 0.0000 0.0000 32.1346 0.0000 0.0000
# 5 0.0000 0.0000 0.0000 0.0000 19.8941 0.0000
# 6 0.0000 0.0000 0.0000 0.0000 0.0000 25.9312
#
#
#
# Elastic Compliance Matrix: (Units=1/GPa)
#
#
# Indices 1 2 3 4 5 6 
#
# 1 0.038398 -0.006812 -0.012681 0.000000 0.000000 0.000000
# 2 -0.006812 0.009254 -0.001299 0.000000 0.000000 0.000000
# 3 -0.012681 -0.001299 0.013322 0.000000 0.000000 0.000000
# 4 0.000000 0.000000 0.000000 0.031119 0.000000 0.000000
# 5 0.000000 0.000000 0.000000 0.000000 0.050266 0.000000
# 6 0.000000 0.000000 0.000000 0.000000 0.000000 0.038564
#
#
# Mechanical properties :
#
#
# Convention : Reuss Voigt Hill
#
# Bulk Modulus (GPa) = 51.56909 72.24985 61.90947
# Shear Modulus (GPa) = 21.83695 27.32640 24.58168
#
# Velocity S-wave (km/s) = 3.38029 3.78137 3.58644
# Velocity P-wave (km/s) = 6.49762 7.54124 7.03880
#
# Compressibility (1/GPa) = 0.01939146
#
# Stress axis : x y z
#
# Youngs Moduli (GPa) = 26.04314 108.06240 75.06100
#
# Poissons Ratio (x) = 0.73610 0.95183
# Poissons Ratio (y) = 0.17740 0.09749
# Poissons Ratio (z) = 0.33025 0.14036
#
# Static dielectric constant tensor:
#      x y z
#    x 3.601560 0.000000 0.000000 
#    y 0.000000 3.651150 0.000000 
#    z 0.000000 0.000000 3.787010 
# 
# 
# High freq. dielectric constant tensor:
#      x y z
#    x 1.709700 0.000000 0.000000 
#    y 0.000000 1.758100 0.000000 
#    z 0.000000 0.000000 1.761880 
# 
# From -- ./inp_files/64305.got.cif
#   From: 2010.03.12/outbox.cif.g09.slc.cpg/sg65_33_cif.got.tgz:64305.got - 2010.04.10 20:52:16.
