data_PCOD8270379
_publ_section_title
;
Structure prediction by ZEFSAII (Michael W. Deem and Ramdas Pophale) SiO2 
 PCOD8270379
Probable space group: C M M M
;
_chemical_formula_sum "Si O2"
_cell_formula_units_Z 120
_cell_length_a 9.198585
_cell_length_b 26.609319
_cell_length_c 27.906331
_cell_angle_alpha 90.000000
_cell_angle_beta 90.000000
_cell_angle_gamma 90.000000
_cell_volume 6830.579132
_symmetry_space_group_name_H-M "C M M M"
_symmetry_group_IT_number 65
_symmetry_cell_setting 'orthorhombic'
loop_
_space_group_symop_operation_xyz
x,y,z
-x,-y,z
x,-y,-z
-x,y,-z
-x,-y,-z
x,y,-z
-x,y,z
x,-y,z
1/2+x,1/2+y,z
1/2-x,1/2-y,z
1/2+x,1/2-y,-z
1/2-x,1/2+y,-z
1/2-x,1/2-y,-z
1/2+x,1/2+y,-z
1/2-x,1/2+y,z
1/2+x,1/2-y,z
loop_
_atom_site_type_symbol
_atom_site_label
_atom_site_fract_x
_atom_site_fract_y
_atom_site_fract_z
Si Si1 0.668379 0.349492 0.148983
Si Si2 0.327388 0.500000 0.553760
Si Si3 0.169846 0.799932 0.555476
Si Si4 0.672684 0.599237 0.609339
Si Si5 0.831817 0.602722 0.290778
Si Si6 0.834297 0.055895 0.793003
Si Si7 0.669191 0.699075 0.052992
Si Si8 0.168016 0.701713 0.767902
O O1 0.500000 0.336536 0.158447
O O2 0.704914 0.406756 0.163439
O O3 0.708920 0.342613 0.092982
O O4 0.763890 0.312145 0.180862
O O5 0.500000 0.500000 0.552091
O O6 0.263566 0.500000 0.500000
O O7 0.272380 0.449461 0.579989
O O8 0.208267 0.808596 0.500000
O O9 0.250000 0.750000 0.575232
O O10 0.224049 0.849594 0.583218
O O11 0.000000 0.791271 0.563394
O O12 0.500000 0.598435 0.615061
O O13 0.744657 0.596385 0.660772
O O14 0.769822 0.563612 0.252272
O O15 0.807974 0.658646 0.271145
O O16 0.000000 0.590479 0.299608
O O17 0.000000 0.064579 0.775767
O O18 0.810840 0.000000 0.813139
O O19 0.500000 0.711691 0.053954
O O20 0.750000 0.750000 0.066431
O O21 0.715759 0.679369 0.000000
O O22 0.250000 0.750000 0.746746
O O23 0.000000 0.713903 0.776059
#
# Coordination Sequence:
#
# PCOD8270379 Si02
#       8
#    16   8  16  16  16  16  16  16
#     4   9  17  30  48  70  95 126 164 204 245 288
#     4   9  18  34  57  81 101 125 161 203 242 285
#     4   9  18  33  53  76 101 130 164 202 242 286
#     4  10  20  34  54  78 102 129 163 202 244 292
#     4  10  22  36  49  71 101 130 159 195 243 292
#     4   9  18  33  53  72  92 122 163 206 243 287
#     4   9  17  28  43  66  97 130 161 195 239 290
#     4  10  20  33  49  69  96 130 165 201 242 289
#
# _framework density 17.568057
#
# number of rings (size 3 to 8) (size 9 to 14) (size 15 to 20)
#    0.000    2.600    0.000    1.600    0.933    6.133 
#    0.000    2.667    0.000    2.000    0.000    2.800 
#    0.000    0.000    0.000   10.000    0.000   10.400 
#
# Total GULP energy -743957.676478 kJ/mol
# GULP energy per Si atom -12399.294608 kJ/mol
# Density = 1.752807 g / cm^3
# Si number density = 17.568057 Si / 1000 Ang^3
#
#
#
# Elastic Constant Matrix: (Units=GPa)
#
#
# Indices 1 2 3 4 5 6 
#
# 1 47.4688 38.5916 36.8840 0.0000 0.0000 0.0000
# 2 38.5916 129.9814 66.6161 0.0000 0.0000 0.0000
# 3 36.8840 66.6161 131.9986 0.0000 0.0000 0.0000
# 4 0.0000 0.0000 0.0000 17.2252 0.0000 0.0000
# 5 0.0000 0.0000 0.0000 0.0000 19.9369 0.0000
# 6 0.0000 0.0000 0.0000 0.0000 0.0000 24.3039
#
#
#
# Elastic Compliance Matrix: (Units=1/GPa)
#
#
# Indices 1 2 3 4 5 6 
#
# 1 0.030284 -0.006278 -0.005294 0.000000 0.000000 0.000000
# 2 -0.006278 0.011679 -0.004140 0.000000 0.000000 0.000000
# 3 -0.005294 -0.004140 0.011144 0.000000 0.000000 0.000000
# 4 0.000000 0.000000 0.000000 0.058054 0.000000 0.000000
# 5 0.000000 0.000000 0.000000 0.000000 0.050158 0.000000
# 6 0.000000 0.000000 0.000000 0.000000 0.000000 0.041146
#
#
# Mechanical properties :
#
#
# Convention : Reuss Voigt Hill
#
# Bulk Modulus (GPa) = 46.11745 65.95913 56.03829
# Shear Modulus (GPa) = 20.73682 23.45035 22.09359
#
# Velocity S-wave (km/s) = 3.43938 3.65749 3.55011
# Velocity P-wave (km/s) = 6.48692 7.44733 6.98366
#
# Compressibility (1/GPa) = 0.02168376
#
# Stress axis : x y z
#
# Youngs Moduli (GPa) = 33.02088 85.62299 89.73225
#
# Poissons Ratio (x) = 0.53757 0.47501
# Poissons Ratio (y) = 0.20731 0.37147
# Poissons Ratio (z) = 0.17480 0.35446
#
# Static dielectric constant tensor:
#      x y z
#    x 3.237620 0.000000 0.000000 
#    y 0.000000 3.403550 0.000000 
#    z 0.000000 0.000000 3.298400 
# 
# 
# High freq. dielectric constant tensor:
#      x y z
#    x 1.671110 0.000000 0.000000 
#    y 0.000000 1.678990 0.000000 
#    z 0.000000 0.000000 1.673340 
# 
# From -- ./inp_files/73980.got.cif
#   From: 2010.03.12/outbox.cif.g09.slc.cpg/sg65_37_cif.got.tgz:73980.got - 2010.04.10 20:52:16.
