data_PCOD8270638
_publ_section_title
;
Structure prediction by ZEFSAII (Michael W. Deem and Ramdas Pophale) SiO2 
 PCOD8270638
Probable space group: C M M M
;
_chemical_formula_sum "Si O2"
_cell_formula_units_Z 104
_cell_length_a 9.699686
_cell_length_b 18.098470
_cell_length_c 33.406859
_cell_angle_alpha 90.000000
_cell_angle_beta 90.000000
_cell_angle_gamma 90.000000
_cell_volume 5864.556595
_symmetry_space_group_name_H-M "C M M M"
_symmetry_group_IT_number 65
_symmetry_cell_setting 'orthorhombic'
loop_
_space_group_symop_operation_xyz
x,y,z
-x,-y,z
x,-y,-z
-x,y,-z
-x,-y,-z
x,y,-z
-x,y,z
x,-y,z
1/2+x,1/2+y,z
1/2-x,1/2-y,z
1/2+x,1/2-y,-z
1/2-x,1/2+y,-z
1/2-x,1/2-y,-z
1/2+x,1/2+y,-z
1/2-x,1/2+y,z
1/2+x,1/2-y,z
loop_
_atom_site_type_symbol
_atom_site_label
_atom_site_fract_x
_atom_site_fract_y
_atom_site_fract_z
Si Si1 0.836867 0.917509 0.000000
Si Si2 0.345007 0.412189 0.455819
Si Si3 0.838049 0.823670 0.924071
Si Si4 0.658872 0.085311 0.771456
Si Si5 0.839030 0.322945 0.693463
Si Si6 0.659148 0.085573 0.615478
Si Si7 0.841529 0.085111 0.154740
O O1 0.787095 0.874130 0.039252
O O2 0.000000 0.924234 0.000000
O O3 0.772248 0.000000 0.000000
O O4 0.300379 0.383254 0.500000
O O5 0.500000 0.385663 0.446142
O O6 0.337371 0.500000 0.455781
O O7 0.244019 0.380412 0.421814
O O8 0.750000 0.750000 0.924787
O O9 0.803484 0.867125 0.883704
O O10 0.000000 0.804723 0.927489
O O11 0.500000 0.097555 0.782857
O O12 0.701414 0.131219 0.732664
O O13 0.749396 0.113834 0.808550
O O14 0.690061 0.000000 0.761931
O O15 0.750000 0.250000 0.692657
O O16 0.798258 0.371623 0.655300
O O17 0.000000 0.302516 0.693200
O O18 0.500000 0.096484 0.604870
O O19 0.694849 0.000000 0.622827
O O20 0.000000 0.095521 0.167124
O O21 0.808853 0.000000 0.144524
#
# Coordination Sequence:
#
# PCOD8270638 Si02
#       7
#     8  16  16  16  16  16  16
#     4   9  17  32  55  77  96 127 172 212 246 289
#     4   8  14  25  42  67  98 126 152 188 235 283
#     4  10  20  33  51  75 103 133 164 202 246 292
#     4   9  18  34  55  75  96 126 163 201 242 288
#     4  10  21  35  50  70  97 127 159 197 240 286
#     4   9  17  30  49  71  94 122 157 196 236 279
#     4   9  18  33  52  74  99 127 162 202 240 281
#
# _framework density 17.733651999999999
#
# number of rings (size 3 to 8) (size 9 to 14) (size 15 to 20)
#    0.000    2.846    0.000    1.615    0.000    6.462 
#    0.000    4.615    0.000    6.923    0.000    0.000 
#    0.000    0.000    0.000    0.000    0.000    0.000 
#
# Total GULP energy -644788.864262 kJ/mol
# GULP energy per Si atom -12399.785851 kJ/mol
# Density = 1.769329 g / cm^3
# Si number density = 17.733652 Si / 1000 Ang^3
#
#
#
# Elastic Constant Matrix: (Units=GPa)
#
#
# Indices 1 2 3 4 5 6 
#
# 1 70.9579 55.6886 85.1700 0.0000 0.0000 0.0000
# 2 55.6886 94.2926 81.0360 0.0000 0.0000 0.0000
# 3 85.1700 81.0360 189.8806 0.0000 0.0000 0.0000
# 4 0.0000 0.0000 0.0000 0.2925 0.0000 0.0000
# 5 0.0000 0.0000 0.0000 0.0000 31.0099 0.0000
# 6 0.0000 0.0000 0.0000 0.0000 0.0000 29.0377
#
#
#
# Elastic Compliance Matrix: (Units=1/GPa)
#
#
# Indices 1 2 3 4 5 6 
#
# 1 0.037749 -0.012227 -0.011714 0.000000 0.000000 0.000000
# 2 -0.012227 0.020709 -0.003353 0.000000 0.000000 0.000000
# 3 -0.011714 -0.003353 0.011952 0.000000 0.000000 0.000000
# 4 0.000000 0.000000 0.000000 3.418750 0.000000 0.000000
# 5 0.000000 0.000000 0.000000 0.000000 0.032248 0.000000
# 6 0.000000 0.000000 0.000000 0.000000 0.000000 0.034438
#
#
# Mechanical properties :
#
#
# Convention : Reuss Voigt Hill
#
# Bulk Modulus (GPa) = 63.20990 88.76891 75.98941
# Shear Modulus (GPa) = 1.38286 20.95046 11.16666
#
# Velocity S-wave (km/s) = 0.88402 3.44087 2.51208
# Velocity P-wave (km/s) = 6.06328 8.12106 7.16641
#
# Compressibility (1/GPa) = 0.01582031
#
# Stress axis : x y z
#
# Youngs Moduli (GPa) = 26.49071 48.28906 83.66965
#
# Poissons Ratio (x) = 0.59045 0.98009
# Poissons Ratio (y) = 0.32391 0.28057
# Poissons Ratio (z) = 0.31031 0.16193
#
# Static dielectric constant tensor:
#      x y z
#    x 3.239530 0.000000 0.000000 
#    y 0.000000 3.121810 0.000000 
#    z 0.000000 0.000000 3.561550 
# 
# 
# High freq. dielectric constant tensor:
#      x y z
#    x 1.674240 0.000000 0.000000 
#    y 0.000000 1.667590 0.000000 
#    z 0.000000 0.000000 1.701480 
# 
# From -- ./inp_files/77429.got.cif
#   From: 2010.03.12/outbox.cif.g09.slc.cpg/sg65_39_cif.got.tgz:77429.got - 2010.04.10 20:52:16.
