data_PCOD8270245
_publ_section_title
;
Structure prediction by ZEFSAII (Michael W. Deem and Ramdas Pophale) SiO2 
 PCOD8270245
Probable space group: C M M M
;
_chemical_formula_sum "Si O2"
_cell_formula_units_Z 96
_cell_length_a 9.109153
_cell_length_b 23.484077
_cell_length_c 24.948217
_cell_angle_alpha 90.000000
_cell_angle_beta 90.000000
_cell_angle_gamma 90.000000
_cell_volume 5336.923839
_symmetry_space_group_name_H-M "C M M M"
_symmetry_group_IT_number 65
_symmetry_cell_setting 'orthorhombic'
loop_
_space_group_symop_operation_xyz
x,y,z
-x,-y,z
x,-y,-z
-x,y,-z
-x,-y,-z
x,y,-z
-x,y,z
x,-y,z
1/2+x,1/2+y,z
1/2-x,1/2-y,z
1/2+x,1/2-y,-z
1/2-x,1/2+y,-z
1/2-x,1/2-y,-z
1/2+x,1/2+y,-z
1/2-x,1/2+y,z
1/2+x,1/2-y,z
loop_
_atom_site_type_symbol
_atom_site_label
_atom_site_fract_x
_atom_site_fract_y
_atom_site_fract_z
Si Si1 0.828949 0.193058 0.060681
Si Si2 0.670899 0.500000 0.305477
Si Si3 0.828159 0.110093 0.846064
Si Si4 0.671260 0.380186 0.354642
Si Si5 0.670713 0.807705 0.437683
Si Si6 0.328752 0.309418 0.251490
Si Si7 0.825529 0.500000 0.808530
O O1 0.750000 0.250000 0.081330
O O2 0.786606 0.139821 0.097829
O O3 0.000000 0.206031 0.064922
O O4 0.781010 0.177981 0.000000
O O5 0.500000 0.500000 0.288263
O O6 0.709702 0.445376 0.341289
O O7 0.764193 0.500000 0.251578
O O8 0.782871 0.152017 0.798369
O O9 0.000000 0.094043 0.842739
O O10 0.730843 0.054078 0.841561
O O11 0.500000 0.372905 0.367365
O O12 0.763537 0.361581 0.406390
O O13 0.721337 0.341260 0.305171
O O14 0.700012 0.819111 0.500000
O O15 0.500000 0.801030 0.424547
O O16 0.750000 0.750000 0.418438
O O17 0.500000 0.297428 0.251642
O O18 0.250000 0.250000 0.246633
O O19 0.000000 0.500000 0.806182
#
# Coordination Sequence:
#
# PCOD8270245 Si02
#       7
#    16   8  16  16  16  16   8
#     4   9  18  33  56  84 111 144 184 224 272 326
#     4  10  20  40  61  78 109 149 184 218 268 327
#     4  10  20  37  56  74 107 149 183 220 269 327
#     4  10  20  35  57  81 106 141 183 222 266 323
#     4  10  21  37  57  81 111 146 182 223 272 322
#     4  10  20  32  50  77 107 139 172 214 269 322
#     4  12  24  36  55  82 107 139 186 232 274 321
#
# _framework density 17.98789
#
# number of rings (size 3 to 8) (size 9 to 14) (size 15 to 20)
#    0.000    2.000    1.667    2.250    0.000    5.000 
#    0.000    0.833    0.000    5.000    0.000    0.000 
#    0.000    0.000    0.000    0.000    0.000    0.000 
#
# Total GULP energy -595390.938849 kJ/mol
# GULP energy per Si atom -12403.977893 kJ/mol
# Density = 1.794695 g / cm^3
# Si number density = 17.987890 Si / 1000 Ang^3
#
#
#
# Elastic Constant Matrix: (Units=GPa)
#
#
# Indices 1 2 3 4 5 6 
#
# 1 79.4193 71.2818 53.4068 0.0000 0.0000 0.0000
# 2 71.2818 158.4924 70.8930 0.0000 0.0000 0.0000
# 3 53.4068 70.8930 100.6298 0.0000 0.0000 0.0000
# 4 0.0000 0.0000 0.0000 22.5808 0.0000 0.0000
# 5 0.0000 0.0000 0.0000 0.0000 24.2099 0.0000
# 6 0.0000 0.0000 0.0000 0.0000 0.0000 33.8037
#
#
#
# Elastic Compliance Matrix: (Units=1/GPa)
#
#
# Indices 1 2 3 4 5 6 
#
# 1 0.024607 -0.007630 -0.007684 0.000000 0.000000 0.000000
# 2 -0.007630 0.011578 -0.004107 0.000000 0.000000 0.000000
# 3 -0.007684 -0.004107 0.016909 0.000000 0.000000 0.000000
# 4 0.000000 0.000000 0.000000 0.044286 0.000000 0.000000
# 5 0.000000 0.000000 0.000000 0.000000 0.041306 0.000000
# 6 0.000000 0.000000 0.000000 0.000000 0.000000 0.029583
#
#
# Mechanical properties :
#
#
# Convention : Reuss Voigt Hill
#
# Bulk Modulus (GPa) = 70.16915 81.07829 75.62372
# Shear Modulus (GPa) = 23.60032 25.64952 24.62492
#
# Velocity S-wave (km/s) = 3.62610 3.78025 3.70398
# Velocity P-wave (km/s) = 7.52498 8.01407 7.77337
#
# Compressibility (1/GPa) = 0.01425128
#
# Stress axis : x y z
#
# Youngs Moduli (GPa) = 40.63907 86.36951 59.13879
#
# Poissons Ratio (x) = 0.65898 0.45445
# Poissons Ratio (y) = 0.31006 0.24291
# Poissons Ratio (z) = 0.31229 0.35476
#
# Static dielectric constant tensor:
#      x y z
#    x 3.245100 0.000000 0.000000 
#    y 0.000000 3.349490 0.000000 
#    z 0.000000 0.000000 3.407690 
# 
# 
# High freq. dielectric constant tensor:
#      x y z
#    x 1.690880 0.000000 0.000000 
#    y 0.000000 1.698840 0.000000 
#    z 0.000000 0.000000 1.698420 
# 
# From -- ./inp_files/67882.got.cif
#   From: 2010.03.12/outbox.cif.g09.slc.cpg/sg65_34_cif.got.tgz:67882.got - 2010.04.10 20:52:16.
