data_PCOD8270735
_publ_section_title
;
Structure prediction by ZEFSAII (Michael W. Deem and Ramdas Pophale) SiO2 
 PCOD8270735
Probable space group: C M M M
;
_chemical_formula_sum "Si O2"
_cell_formula_units_Z 104
_cell_length_a 8.896890
_cell_length_b 29.034043
_cell_length_c 20.343195
_cell_angle_alpha 90.000000
_cell_angle_beta 90.000000
_cell_angle_gamma 90.000000
_cell_volume 5254.905359
_symmetry_space_group_name_H-M "C M M M"
_symmetry_group_IT_number 65
_symmetry_cell_setting 'orthorhombic'
loop_
_space_group_symop_operation_xyz
x,y,z
-x,-y,z
x,-y,-z
-x,y,-z
-x,-y,-z
x,y,-z
-x,y,z
x,-y,z
1/2+x,1/2+y,z
1/2-x,1/2-y,z
1/2+x,1/2-y,-z
1/2-x,1/2+y,-z
1/2-x,1/2-y,-z
1/2+x,1/2+y,-z
1/2-x,1/2+y,z
1/2+x,1/2-y,z
loop_
_atom_site_type_symbol
_atom_site_label
_atom_site_fract_x
_atom_site_fract_y
_atom_site_fract_z
Si Si1 0.671787 0.052987 0.231828
Si Si2 0.677116 0.611450 0.124022
Si Si3 0.175446 0.297165 0.680276
Si Si4 0.178501 0.052435 0.000000
Si Si5 0.672345 0.643125 0.572906
Si Si6 0.177557 0.701510 0.169454
Si Si7 0.669226 0.449340 0.365272
O O1 0.500000 0.069115 0.221398
O O2 0.781844 0.084321 0.189661
O O3 0.713353 0.060543 0.307395
O O4 0.693790 0.000000 0.210946
O O5 0.500000 0.619622 0.120329
O O6 0.736149 0.580644 0.063285
O O7 0.756882 0.661297 0.123266
O O8 0.250000 0.250000 0.657460
O O9 0.226741 0.336016 0.630023
O O10 0.221590 0.310068 0.754865
O O11 0.000000 0.290437 0.674685
O O12 0.000000 0.049584 0.000000
O O13 0.244162 0.000000 0.000000
O O14 0.726389 0.658276 0.500000
O O15 0.500000 0.658188 0.583798
O O16 0.690428 0.587917 0.577335
O O17 0.250000 0.750000 0.148051
O O18 0.000000 0.704865 0.159713
O O19 0.500000 0.446434 0.336018
O O20 0.698904 0.500000 0.395620
#
# Coordination Sequence:
#
# PCOD8270735 Si02
#       7
#    16  16  16   8  16  16  16
#     4  10  20  33  51  78 110 141 177 225 278 328
#     4  11  21  35  58  84 112 148 187 226 271 321
#     4  10  21  37  58  81 106 137 173 218 270 323
#     4   9  20  38  58  83 116 153 192 229 264 311
#     4  10  21  35  51  74 105 140 178 220 266 320
#     4  10  21  38  60  87 115 142 179 226 275 325
#     4   9  18  33  53  76 102 136 179 224 271 323
#
# _framework density 19.791032999999999
#
# number of rings (size 3 to 8) (size 9 to 14) (size 15 to 20)
#    0.000    2.077    0.000    3.231    0.000    7.385 
#    0.000    3.462    0.000    2.769    0.000    3.231 
#    0.000    0.000    0.000    0.000    0.000    0.000 
#
# Total GULP energy -644826.322047 kJ/mol
# GULP energy per Si atom -12400.506193 kJ/mol
# Density = 1.974599 g / cm^3
# Si number density = 19.791033 Si / 1000 Ang^3
#
#
#
# Elastic Constant Matrix: (Units=GPa)
#
#
# Indices 1 2 3 4 5 6 
#
# 1 67.8781 43.4375 23.8349 0.0000 0.0000 0.0000
# 2 43.4375 131.3163 54.4393 0.0000 0.0000 0.0000
# 3 23.8349 54.4393 61.4779 0.0000 0.0000 0.0000
# 4 0.0000 0.0000 0.0000 27.2453 0.0000 0.0000
# 5 0.0000 0.0000 0.0000 0.0000 16.7823 0.0000
# 6 0.0000 0.0000 0.0000 0.0000 0.0000 34.1992
#
#
#
# Elastic Compliance Matrix: (Units=1/GPa)
#
#
# Indices 1 2 3 4 5 6 
#
# 1 0.018998 -0.005105 -0.002845 0.000000 0.000000 0.000000
# 2 -0.005105 0.013404 -0.009890 0.000000 0.000000 0.000000
# 3 -0.002845 -0.009890 0.026127 0.000000 0.000000 0.000000
# 4 0.000000 0.000000 0.000000 0.036704 0.000000 0.000000
# 5 0.000000 0.000000 0.000000 0.000000 0.059587 0.000000
# 6 0.000000 0.000000 0.000000 0.000000 0.000000 0.029240
#
#
# Mechanical properties :
#
#
# Convention : Reuss Voigt Hill
#
# Bulk Modulus (GPa) = 43.76631 56.01064 49.88848
# Shear Modulus (GPa) = 21.99193 24.90941 23.45067
#
# Velocity S-wave (km/s) = 3.33709 3.55155 3.44599
# Velocity P-wave (km/s) = 6.08362 6.72164 6.41058
#
# Compressibility (1/GPa) = 0.02284862
#
# Stress axis : x y z
#
# Youngs Moduli (GPa) = 52.63693 74.60499 38.27464
#
# Poissons Ratio (x) = 0.38084 0.10890
# Poissons Ratio (y) = 0.26870 0.37854
# Poissons Ratio (z) = 0.14976 0.73786
#
# Static dielectric constant tensor:
#      x y z
#    x 3.529670 0.000000 0.000000 
#    y 0.000000 3.779430 0.000000 
#    z 0.000000 0.000000 3.425440 
# 
# 
# High freq. dielectric constant tensor:
#      x y z
#    x 1.766010 0.000000 0.000000 
#    y 0.000000 1.784680 0.000000 
#    z 0.000000 0.000000 1.749970 
# 
# From -- ./inp_files/60842.got.cif
#   From: 2010.03.12/outbox.cif.g09.slc.cpg/sg65_31_cif.got.tgz:60842.got - 2010.04.10 20:52:16.
