data_PCOD8270733
_publ_section_title
;
Structure prediction by ZEFSAII (Michael W. Deem and Ramdas Pophale) SiO2 
 PCOD8270733
Probable space group: C M M M
;
_chemical_formula_sum "Si O2"
_cell_formula_units_Z 96
_cell_length_a 8.756072
_cell_length_b 19.039334
_cell_length_c 30.462801
_cell_angle_alpha 90.000000
_cell_angle_beta 90.000000
_cell_angle_gamma 90.000000
_cell_volume 5078.446833
_symmetry_space_group_name_H-M "C M M M"
_symmetry_group_IT_number 65
_symmetry_cell_setting 'orthorhombic'
loop_
_space_group_symop_operation_xyz
x,y,z
-x,-y,z
x,-y,-z
-x,y,-z
-x,-y,-z
x,y,-z
-x,y,z
x,-y,z
1/2+x,1/2+y,z
1/2-x,1/2-y,z
1/2+x,1/2-y,-z
1/2-x,1/2+y,-z
1/2-x,1/2-y,-z
1/2+x,1/2+y,-z
1/2-x,1/2+y,z
1/2+x,1/2-y,z
loop_
_atom_site_type_symbol
_atom_site_label
_atom_site_fract_x
_atom_site_fract_y
_atom_site_fract_z
Si Si1 0.820061 0.823447 0.206304
Si Si2 0.173686 0.583046 0.135224
Si Si3 0.321576 0.581395 0.371919
Si Si4 0.319477 0.175974 0.299561
Si Si5 0.828235 0.083411 0.951962
Si Si6 0.820581 0.822583 0.549068
O O1 0.750000 0.750000 0.189842
O O2 0.783820 0.883069 0.171054
O O3 0.746960 0.845826 0.252472
O O4 0.000000 0.815447 0.212285
O O5 0.196432 0.500000 0.138347
O O6 0.219111 0.611334 0.086759
O O7 0.000000 0.605292 0.144440
O O8 0.500000 0.593881 0.362326
O O9 0.280024 0.500000 0.374500
O O10 0.223542 0.615250 0.333317
O O11 0.272125 0.615173 0.418319
O O12 0.500000 0.183665 0.296099
O O13 0.250000 0.250000 0.315596
O O14 0.000000 0.110695 0.943278
O O15 0.827132 0.000000 0.952026
O O16 0.770982 0.110322 0.000000
O O17 0.760218 0.840687 0.500000
O O18 0.750000 0.750000 0.566419
O O19 0.000000 0.812508 0.548606
#
# Coordination Sequence:
#
# PCOD8270733 Si02
#       6
#    16  16  16  16  16  16
#     4  11  22  38  59  80 105 137 175 217 264 318
#     4  10  20  33  51  78 110 141 176 218 263 312
#     4  10  21  36  54  79 111 144 178 218 266 316
#     4  11  22  38  59  80 104 135 175 218 261 313
#     4   8  14  26  45  70 101 137 177 219 262 309
#     4   9  18  33  54  79 106 140 182 224 264 309
#
# _framework density 18.903416
#
# number of rings (size 3 to 8) (size 9 to 14) (size 15 to 20)
#    0.000    2.167    0.000    5.500    0.000    4.667 
#    0.000    3.333    0.000    0.500    0.000    3.500 
#    0.000    0.000    0.000    0.000    0.000    0.000 
#
# Total GULP energy -595219.006073 kJ/mol
# GULP energy per Si atom -12400.395960 kJ/mol
# Density = 1.886039 g / cm^3
# Si number density = 18.903416 Si / 1000 Ang^3
#
#
#
# Elastic Constant Matrix: (Units=GPa)
#
#
# Indices 1 2 3 4 5 6 
#
# 1 110.5690 45.4066 56.1630 0.0000 0.0000 0.0000
# 2 45.4066 86.3190 67.8647 0.0000 0.0000 0.0000
# 3 56.1630 67.8647 128.2760 0.0000 0.0000 0.0000
# 4 0.0000 0.0000 0.0000 -182.0302 0.0000 0.0000
# 5 0.0000 0.0000 0.0000 0.0000 26.0292 0.0000
# 6 0.0000 0.0000 0.0000 0.0000 0.0000 26.2736
#
#
#
# Elastic Compliance Matrix: (Units=1/GPa)
#
#
# Indices 1 2 3 4 5 6 
#
# 1 0.012331 -0.003839 -0.003368 0.000000 0.000000 0.000000
# 2 -0.003839 0.021030 -0.009445 0.000000 0.000000 0.000000
# 3 -0.003368 -0.009445 0.014268 0.000000 0.000000 0.000000
# 4 0.000000 0.000000 0.000000 -0.005494 0.000000 0.000000
# 5 0.000000 0.000000 0.000000 0.000000 0.038418 0.000000
# 6 0.000000 0.000000 0.000000 0.000000 0.000000 0.038061
#
#
# Mechanical properties :
#
#
# Convention : Reuss Voigt Hill
#
# Bulk Modulus (GPa) = 69.80982 73.78140 71.79561
# Shear Modulus (GPa) = 31.90927 -15.56349 8.17289
#
# Velocity S-wave (km/s) = 4.11300 -2.87246 2.08156
# Velocity P-wave (km/s) = 7.71788 5.30227 6.62117
#
# Compressibility (1/GPa) = 0.01432463
#
# Stress axis : x y z
#
# Youngs Moduli (GPa) = 81.09409 47.55065 70.08917
#
# Poissons Ratio (x) = 0.18253 0.23608
# Poissons Ratio (y) = 0.31128 0.66202
# Poissons Ratio (z) = 0.27314 0.44914
#
# Static dielectric constant tensor:
#      x y z
#    x 3.486250 0.000000 0.000000 
#    y 0.000000 3.315840 0.000000 
#    z 0.000000 0.000000 3.783860 
# 
# 
# High freq. dielectric constant tensor:
#      x y z
#    x 1.736410 0.000000 0.000000 
#    y 0.000000 1.707480 0.000000 
#    z 0.000000 0.000000 1.749240 
# 
# From -- ./inp_files/73206.got.cif
#   From: 2010.03.12/outbox.cif.g09.slc.cpg/sg65_37_cif.got.tgz:73206.got - 2010.04.10 20:52:16.
