data_PCOD8270572
_publ_section_title
;
Structure prediction by ZEFSAII (Michael W. Deem and Ramdas Pophale) SiO2 
 PCOD8270572
Probable space group: C M M M
;
_chemical_formula_sum "Si O2"
_cell_formula_units_Z 104
_cell_length_a 26.186874
_cell_length_b 23.346272
_cell_length_c 8.860446
_cell_angle_alpha 90.000000
_cell_angle_beta 90.000000
_cell_angle_gamma 90.000000
_cell_volume 5416.974395
_symmetry_space_group_name_H-M "C M M M"
_symmetry_group_IT_number 65
_symmetry_cell_setting 'orthorhombic'
loop_
_space_group_symop_operation_xyz
x,y,z
-x,-y,z
x,-y,-z
-x,y,-z
-x,-y,-z
x,y,-z
-x,y,z
x,-y,z
1/2+x,1/2+y,z
1/2-x,1/2-y,z
1/2+x,1/2-y,-z
1/2-x,1/2+y,-z
1/2-x,1/2-y,-z
1/2+x,1/2+y,-z
1/2-x,1/2+y,z
1/2+x,1/2-y,z
loop_
_atom_site_type_symbol
_atom_site_label
_atom_site_fract_x
_atom_site_fract_y
_atom_site_fract_z
Si Si1 0.198990 0.936136 0.829468
Si Si2 0.748273 0.164460 0.324409
Si Si3 0.500000 0.563003 0.678652
Si Si4 0.650524 0.726343 0.673474
Si Si5 0.441882 0.934868 0.179250
Si Si6 0.606274 0.603939 0.674889
Si Si7 0.862475 0.662100 0.177819
O O1 0.226936 0.896797 0.708328
O O2 0.139933 0.937166 0.780475
O O3 0.221741 0.000000 0.820737
O O4 0.205108 0.912183 0.000000
O O5 0.735997 0.169264 0.500000
O O6 0.789440 0.214866 0.279791
O O7 0.695532 0.162358 0.235709
O O8 0.500000 0.500000 0.750890
O O9 0.500000 0.558213 0.500000
O O10 0.549071 0.597416 0.733813
O O11 0.649398 0.745669 0.500000
O O12 0.619287 0.669559 0.702124
O O13 0.620324 0.774615 0.770012
O O14 0.500000 0.919841 0.234245
O O15 0.400155 0.888363 0.242807
O O16 0.427626 0.000000 0.232660
O O17 0.440851 0.932751 0.000000
O O18 0.613597 0.586139 0.500000
O O19 0.862228 0.656221 0.000000
#
# Coordination Sequence:
#
# PCOD8270572 Si02
#       7
#    16  16   8  16  16  16  16
#     4  10  20  33  50  74 105 138 173 217 268 317
#     4  10  21  36  54  75 104 143 181 216 258 315
#     4   9  16  28  51  79 101 129 178 229 262 300
#     4   9  19  35  51  71 104 144 179 213 258 314
#     4   8  16  34  57  78 104 138 173 211 258 316
#     4   9  18  33  52  73 100 138 182 223 262 308
#     4  11  21  32  54  85 107 131 171 218 265 316
#
# _framework density 19.198909
#
# number of rings (size 3 to 8) (size 9 to 14) (size 15 to 20)
#    0.000    2.538    0.000    3.692    0.000    7.385 
#    1.385    1.923    0.000    4.154    0.000    4.308 
#    0.000    0.000    0.000    0.000    0.000    0.000 
#
# Total GULP energy -644189.817281 kJ/mol
# GULP energy per Si atom -12388.265717 kJ/mol
# Density = 1.915521 g / cm^3
# Si number density = 19.198909 Si / 1000 Ang^3
#
#
#
# Elastic Constant Matrix: (Units=GPa)
#
#
# Indices 1 2 3 4 5 6 
#
# 1 104.8708 51.9547 15.6576 0.0000 0.0000 0.0000
# 2 51.9547 107.6756 30.0156 0.0000 0.0000 0.0000
# 3 15.6576 30.0156 33.9666 0.0000 0.0000 0.0000
# 4 0.0000 0.0000 0.0000 26.4821 0.0000 0.0000
# 5 0.0000 0.0000 0.0000 0.0000 19.2446 0.0000
# 6 0.0000 0.0000 0.0000 0.0000 0.0000 -9.7045
#
#
#
# Elastic Compliance Matrix: (Units=1/GPa)
#
#
# Indices 1 2 3 4 5 6 
#
# 1 0.012539 -0.005890 -0.000575 0.000000 0.000000 0.000000
# 2 -0.005890 0.015089 -0.010619 0.000000 0.000000 0.000000
# 3 -0.000575 -0.010619 0.039090 0.000000 0.000000 0.000000
# 4 0.000000 0.000000 0.000000 0.037761 0.000000 0.000000
# 5 0.000000 0.000000 0.000000 0.000000 0.051963 0.000000
# 6 0.000000 0.000000 0.000000 0.000000 0.000000 -0.103045
#
#
# Mechanical properties :
#
#
# Convention : Reuss Voigt Hill
#
# Bulk Modulus (GPa) = 30.72236 49.08543 39.90389
# Shear Modulus (GPa) = 50.80478 17.13012 33.96745
#
# Velocity S-wave (km/s) = 5.14974 2.99029 4.21079
# Velocity P-wave (km/s) = 7.16914 6.12737 6.66863
#
# Compressibility (1/GPa) = 0.03254959
#
# Stress axis : x y z
#
# Youngs Moduli (GPa) = 79.74815 66.27215 25.58219
#
# Poissons Ratio (x) = 0.39034 0.01472
# Poissons Ratio (y) = 0.46972 0.27166
# Poissons Ratio (z) = 0.04589 0.70374
#
# Static dielectric constant tensor:
#      x y z
#    x 3.771380 0.000000 0.000000 
#    y 0.000000 3.915010 0.000000 
#    z 0.000000 0.000000 3.315080 
# 
# 
# High freq. dielectric constant tensor:
#      x y z
#    x 1.742480 0.000000 0.000000 
#    y 0.000000 1.757780 0.000000 
#    z 0.000000 0.000000 1.717390 
# 
# From -- ./inp_files/16775.got.cif
#   From: 2010.03.12/outbox.cif.g09.slc.cpg/sg65_9_cif.got.tgz:16775.got - 2010.04.10 20:52:16.
