data_PCOD8270935
_publ_section_title
;
Structure prediction by ZEFSAII (Michael W. Deem and Ramdas Pophale) SiO2 
 PCOD8270935
Probable space group: C M M M
;
_chemical_formula_sum "Si O2"
_cell_formula_units_Z 56
_cell_length_a 31.219297
_cell_length_b 13.026080
_cell_length_c 7.638639
_cell_angle_alpha 90.000000
_cell_angle_beta 90.000000
_cell_angle_gamma 90.000000
_cell_volume 3106.367589
_symmetry_space_group_name_H-M "C M M M"
_symmetry_group_IT_number 65
_symmetry_cell_setting 'orthorhombic'
loop_
_space_group_symop_operation_xyz
x,y,z
-x,-y,z
x,-y,-z
-x,y,-z
-x,-y,-z
x,y,-z
-x,y,z
x,-y,z
1/2+x,1/2+y,z
1/2-x,1/2-y,z
1/2+x,1/2-y,-z
1/2-x,1/2+y,-z
1/2-x,1/2-y,-z
1/2+x,1/2+y,-z
1/2-x,1/2+y,z
1/2+x,1/2-y,z
loop_
_atom_site_type_symbol
_atom_site_label
_atom_site_fract_x
_atom_site_fract_y
_atom_site_fract_z
Si Si1 0.850651 0.882949 0.299659
Si Si2 0.702395 0.292575 0.000000
Si Si3 0.409886 0.803740 0.303316
Si Si4 0.359967 0.890461 0.000000
Si Si5 0.000000 0.619735 0.207519
O O1 0.835152 0.868188 0.500000
O O2 0.891929 0.810912 0.257934
O O3 0.865138 0.000000 0.265010
O O4 0.810266 0.856356 0.174226
O O5 0.750000 0.250000 0.000000
O O6 0.677146 0.188674 0.000000
O O7 0.396299 0.832782 0.500000
O O8 0.460654 0.814124 0.282501
O O9 0.389294 0.884599 0.171754
O O10 0.337156 0.000000 0.000000
O O11 0.000000 0.500000 0.272409
O O12 0.000000 0.622366 0.000000
#
# Coordination Sequence:
#
# PCOD8270935 Si02
#       5
#    16   8  16   8   8
#     4   9  19  37  59  80 105 140 179 218 262 312
#     4  10  21  35  55  81 108 135 170 214 262 318
#     4  10  20  34  53  76 103 138 178 217 259 309
#     4  10  20  34  50  72 104 136 169 213 258 308
#     4  11  21  33  50  74 108 144 177 218 265 310
#
# _framework density 18.027487000000001
#
# number of rings (size 3 to 8) (size 9 to 14) (size 15 to 20)
#    0.000    2.143    1.429    1.714    0.000    4.571 
#    0.000    0.714    0.000    4.286    0.000    0.000 
#    0.000    0.000    0.000    0.000    0.000    0.000 
#
# Total GULP energy -347017.850950 kJ/mol
# GULP energy per Si atom -12393.494677 kJ/mol
# Density = 1.798646 g / cm^3
# Si number density = 18.027487 Si / 1000 Ang^3
#
#
#
# Elastic Constant Matrix: (Units=GPa)
#
#
# Indices 1 2 3 4 5 6 
#
# 1 107.7574 40.7936 40.3026 0.0000 0.0000 0.0000
# 2 40.7936 115.1828 49.8281 0.0000 0.0000 0.0000
# 3 40.3026 49.8281 120.3173 0.0000 0.0000 0.0000
# 4 0.0000 0.0000 0.0000 22.2684 0.0000 0.0000
# 5 0.0000 0.0000 0.0000 0.0000 21.5012 0.0000
# 6 0.0000 0.0000 0.0000 0.0000 0.0000 15.4357
#
#
#
# Elastic Compliance Matrix: (Units=1/GPa)
#
#
# Indices 1 2 3 4 5 6 
#
# 1 0.011349 -0.002893 -0.002603 0.000000 0.000000 0.000000
# 2 -0.002893 0.011314 -0.003717 0.000000 0.000000 0.000000
# 3 -0.002603 -0.003717 0.010723 0.000000 0.000000 0.000000
# 4 0.000000 0.000000 0.000000 0.044907 0.000000 0.000000
# 5 0.000000 0.000000 0.000000 0.000000 0.046509 0.000000
# 6 0.000000 0.000000 0.000000 0.000000 0.000000 0.064785
#
#
# Mechanical properties :
#
#
# Convention : Reuss Voigt Hill
#
# Bulk Modulus (GPa) = 66.84653 67.23401 67.04027
# Shear Modulus (GPa) = 23.47425 25.99661 24.73543
#
# Velocity S-wave (km/s) = 3.61243 3.80156 3.70820
# Velocity P-wave (km/s) = 7.38650 7.52631 7.45673
#
# Compressibility (1/GPa) = 0.01495964
#
# Stress axis : x y z
#
# Youngs Moduli (GPa) = 88.11279 88.38373 93.26100
#
# Poissons Ratio (x) = 0.25571 0.24280
# Poissons Ratio (y) = 0.25493 0.34661
# Poissons Ratio (z) = 0.22939 0.32848
#
# Static dielectric constant tensor:
#      x y z
#    x 3.391370 0.000000 0.000000 
#    y 0.000000 3.437070 0.000000 
#    z 0.000000 0.000000 4.247910 
# 
# 
# High freq. dielectric constant tensor:
#      x y z
#    x 1.674050 0.000000 0.000000 
#    y 0.000000 1.700070 0.000000 
#    z 0.000000 0.000000 1.719640 
# 
# From -- ./inp_files/4774.got.cif
#   From: 2010.03.12/outbox.cif.g09.slc.cpg/sg65_3_cif.got.tgz:4774.got - 2010.04.10 20:52:16.
