data_PCOD8270359
_publ_section_title
;
Structure prediction by ZEFSAII (Michael W. Deem and Ramdas Pophale) SiO2 
 PCOD8270359
Probable space group: C M M M
;
_chemical_formula_sum "Si O2"
_cell_formula_units_Z 104
_cell_length_a 20.076393
_cell_length_b 9.230641
_cell_length_c 32.837700
_cell_angle_alpha 90.000000
_cell_angle_beta 90.000000
_cell_angle_gamma 90.000000
_cell_volume 6085.416112
_symmetry_space_group_name_H-M "C M M M"
_symmetry_group_IT_number 65
_symmetry_cell_setting 'orthorhombic'
loop_
_space_group_symop_operation_xyz
x,y,z
-x,-y,z
x,-y,-z
-x,y,-z
-x,-y,-z
x,y,-z
-x,y,z
x,-y,z
1/2+x,1/2+y,z
1/2-x,1/2-y,z
1/2+x,1/2-y,-z
1/2-x,1/2+y,-z
1/2-x,1/2-y,-z
1/2+x,1/2+y,-z
1/2-x,1/2+y,z
1/2+x,1/2-y,z
loop_
_atom_site_type_symbol
_atom_site_label
_atom_site_fract_x
_atom_site_fract_y
_atom_site_fract_z
Si Si1 0.926104 0.827950 0.045357
Si Si2 0.579388 0.836503 0.500000
Si Si3 0.920503 0.837396 0.421996
Si Si4 0.316098 0.331003 0.106649
Si Si5 0.682543 0.330217 0.200684
Si Si6 0.077416 0.669358 0.254679
Si Si7 0.079012 0.660237 0.346057
O O1 0.875623 0.766525 0.079117
O O2 0.000000 0.767129 0.054874
O O3 0.927679 0.000000 0.047720
O O4 0.903741 0.778766 0.000000
O O5 0.500000 0.836642 0.500000
O O6 0.606633 0.754993 0.460032
O O7 0.607025 0.000000 0.500000
O O8 0.892407 0.769566 0.379980
O O9 0.000000 0.837294 0.421920
O O10 0.892791 0.000000 0.425755
O O11 0.305032 0.500000 0.098771
O O12 0.250000 0.250000 0.092608
O O13 0.332867 0.299008 0.153521
O O14 0.690812 0.500000 0.209680
O O15 0.750000 0.250000 0.214510
O O16 0.620063 0.268119 0.224895
O O17 0.091100 0.500000 0.246527
O O18 0.098954 0.711121 0.300749
O O19 0.000000 0.705548 0.247285
O O20 0.108016 0.500000 0.354805
O O21 0.000000 0.652866 0.349026
#
# Coordination Sequence:
#
# PCOD8270359 Si02
#       7
#    16   8  16  16  16  16  16
#     4   8  14  26  45  68  93 121 153 188 225 266
#     4   9  15  21  29  41  61  95 138 177 214 263
#     4   9  15  21  30  46  69  97 132 176 220 260
#     4   9  18  31  47  68  92 118 150 188 228 271
#     4  10  20  33  49  68  93 124 156 193 236 281
#     4   9  18  32  49  69  93 120 152 191 233 280
#     4   8  14  25  39  54  75 105 138 172 215 267
#
# _framework density 17.090039999999998
#
# number of rings (size 3 to 8) (size 9 to 14) (size 15 to 20)
#    0.000    3.154    0.000    2.538    0.000    5.231 
#    0.000    3.077    0.000    0.462    0.000    1.077 
#    0.000    0.000    0.000    0.692    0.000   10.000 
#
# Total GULP energy -644593.907964 kJ/mol
# GULP energy per Si atom -12396.036692 kJ/mol
# Density = 1.705114 g / cm^3
# Si number density = 17.090040 Si / 1000 Ang^3
#
#
#
# Elastic Constant Matrix: (Units=GPa)
#
#
# Indices 1 2 3 4 5 6 
#
# 1 69.5613 43.2403 63.4254 0.0000 0.0000 0.0000
# 2 43.2403 93.4575 61.9349 0.0000 0.0000 0.0000
# 3 63.4254 61.9349 121.2412 0.0000 0.0000 0.0000
# 4 0.0000 0.0000 0.0000 20.6688 0.0000 0.0000
# 5 0.0000 0.0000 0.0000 0.0000 2.3012 0.0000
# 6 0.0000 0.0000 0.0000 0.0000 0.0000 20.1851
#
#
#
# Elastic Compliance Matrix: (Units=1/GPa)
#
#
# Indices 1 2 3 4 5 6 
#
# 1 0.029002 -0.005086 -0.012574 0.000000 0.000000 0.000000
# 2 -0.005086 0.017068 -0.006059 0.000000 0.000000 0.000000
# 3 -0.012574 -0.006059 0.017921 0.000000 0.000000 0.000000
# 4 0.000000 0.000000 0.000000 0.048382 0.000000 0.000000
# 5 0.000000 0.000000 0.000000 0.000000 0.434547 0.000000
# 6 0.000000 0.000000 0.000000 0.000000 0.000000 0.049542
#
#
# Mechanical properties :
#
#
# Convention : Reuss Voigt Hill
#
# Bulk Modulus (GPa) = 60.40637 69.05125 64.72881
# Shear Modulus (GPa) = 7.69922 16.34165 12.02043
#
# Velocity S-wave (km/s) = 2.12482 3.09562 2.65497
# Velocity P-wave (km/s) = 6.43759 7.29858 6.88156
#
# Compressibility (1/GPa) = 0.01655455
#
# Stress axis : x y z
#
# Youngs Moduli (GPa) = 34.48049 58.58873 55.80074
#
# Poissons Ratio (x) = 0.29796 0.70164
# Poissons Ratio (y) = 0.17535 0.33808
# Poissons Ratio (z) = 0.43356 0.35497
#
# Static dielectric constant tensor:
#      x y z
#    x 2.873990 0.000000 0.000000 
#    y 0.000000 3.175260 0.000000 
#    z 0.000000 0.000000 3.410970 
# 
# 
# High freq. dielectric constant tensor:
#      x y z
#    x 1.609910 0.000000 0.000000 
#    y 0.000000 1.650140 0.000000 
#    z 0.000000 0.000000 1.670380 
# 
# From -- ./inp_files/78354.got.cif
#   From: 2010.03.12/outbox.cif.g09.slc.cpg/sg65_40_cif.got.tgz:78354.got - 2010.04.10 20:52:16.
