data_PCOD8270238
_publ_section_title
;
Structure prediction by ZEFSAII (Michael W. Deem and Ramdas Pophale) SiO2 
 PCOD8270238
Probable space group: C M M M
;
_chemical_formula_sum "Si O2"
_cell_formula_units_Z 88
_cell_length_a 8.129843
_cell_length_b 19.046733
_cell_length_c 29.833757
_cell_angle_alpha 90.000000
_cell_angle_beta 90.000000
_cell_angle_gamma 90.000000
_cell_volume 4619.666247
_symmetry_space_group_name_H-M "C M M M"
_symmetry_group_IT_number 65
_symmetry_cell_setting 'orthorhombic'
loop_
_space_group_symop_operation_xyz
x,y,z
-x,-y,z
x,-y,-z
-x,y,-z
-x,-y,-z
x,y,-z
-x,y,z
x,-y,z
1/2+x,1/2+y,z
1/2-x,1/2-y,z
1/2+x,1/2-y,-z
1/2-x,1/2+y,-z
1/2-x,1/2-y,-z
1/2+x,1/2+y,-z
1/2-x,1/2+y,z
1/2+x,1/2-y,z
loop_
_atom_site_type_symbol
_atom_site_label
_atom_site_fract_x
_atom_site_fract_y
_atom_site_fract_z
Si Si1 0.188464 0.823390 0.951051
Si Si2 0.191558 0.329016 0.696675
Si Si3 0.184303 0.582611 0.875522
Si Si4 0.196769 0.421361 0.223234
Si Si5 0.000000 0.082911 0.549888
Si Si6 0.310252 0.917588 0.609257
O O1 0.250000 0.750000 0.930495
O O2 0.212553 0.884685 0.915438
O O3 0.000000 0.815802 0.960346
O O4 0.273213 0.838956 0.000000
O O5 0.250000 0.250000 0.690630
O O6 0.270865 0.367049 0.740218
O O7 0.236628 0.374393 0.653309
O O8 0.000000 0.327655 0.704277
O O9 0.188206 0.500000 0.881862
O O10 0.257704 0.601895 0.826356
O O11 0.000000 0.611993 0.879387
O O12 0.260474 0.500000 0.234573
O O13 0.000000 0.422446 0.223561
O O14 0.828514 0.106692 0.573449
O O15 0.000000 0.115841 0.500000
O O16 0.000000 0.000000 0.547092
O O17 0.500000 0.901359 0.593245
O O18 0.294031 0.000000 0.620105
#
# Coordination Sequence:
#
# PCOD8270238 Si02
#       6
#    16  16  16  16   8  16
#     4  10  21  36  53  72  97 131 170 213 261 310
#     4  10  20  32  50  76 103 138 173 213 258 304
#     4   9  18  33  54  78 103 134 168 207 257 311
#     4   8  15  31  53  74 100 134 172 209 251 309
#     4   9  18  32  54  84 112 138 173 225 276 314
#     4   9  18  33  54  79 106 142 182 219 266 319
#
# _framework density 19.048995000000001
#
# number of rings (size 3 to 8) (size 9 to 14) (size 15 to 20)
#    0.000    2.818    0.000    2.182    1.273    5.091 
#    0.000    6.364    0.000    1.636    0.000    0.000 
#    0.000    0.000    0.000    0.000    0.000    0.000 
#
# Total GULP energy -545214.136934 kJ/mol
# GULP energy per Si atom -12391.230385 kJ/mol
# Density = 1.900564 g / cm^3
# Si number density = 19.048995 Si / 1000 Ang^3
#
#
#
# Elastic Constant Matrix: (Units=GPa)
#
#
# Indices 1 2 3 4 5 6 
#
# 1 62.3601 26.0905 55.4535 0.0000 0.0000 0.0000
# 2 26.0905 74.5106 67.4351 0.0000 0.0000 0.0000
# 3 55.4535 67.4351 155.2245 0.0000 0.0000 0.0000
# 4 0.0000 0.0000 0.0000 16.0341 0.0000 0.0000
# 5 0.0000 0.0000 0.0000 0.0000 10.5986 0.0000
# 6 0.0000 0.0000 0.0000 0.0000 0.0000 24.7868
#
#
#
# Elastic Compliance Matrix: (Units=1/GPa)
#
#
# Indices 1 2 3 4 5 6 
#
# 1 0.023551 -0.001041 -0.007961 0.000000 0.000000 0.000000
# 2 -0.001041 0.022163 -0.009256 0.000000 0.000000 0.000000
# 3 -0.007961 -0.009256 0.013308 0.000000 0.000000 0.000000
# 4 0.000000 0.000000 0.000000 0.062367 0.000000 0.000000
# 5 0.000000 0.000000 0.000000 0.000000 0.094352 0.000000
# 6 0.000000 0.000000 0.000000 0.000000 0.000000 0.040344
#
#
# Mechanical properties :
#
#
# Convention : Reuss Voigt Hill
#
# Bulk Modulus (GPa) = 44.43690 65.56147 54.99918
# Shear Modulus (GPa) = 16.66089 19.82497 18.24293
#
# Velocity S-wave (km/s) = 2.96063 3.22954 3.09801
# Velocity P-wave (km/s) = 5.92161 6.95691 6.46003
#
# Compressibility (1/GPa) = 0.02250382
#
# Stress axis : x y z
#
# Youngs Moduli (GPa) = 42.46115 45.12035 75.14492
#
# Poissons Ratio (x) = 0.04699 0.59823
# Poissons Ratio (y) = 0.04422 0.69557
# Poissons Ratio (z) = 0.33804 0.41765
#
# Static dielectric constant tensor:
#      x y z
#    x 3.409410 0.000000 0.000000 
#    y 0.000000 2.400510 0.000000 
#    z 0.000000 0.000000 3.721140 
# 
# 
# High freq. dielectric constant tensor:
#      x y z
#    x 1.725460 0.000000 0.000000 
#    y 0.000000 1.722160 0.000000 
#    z 0.000000 0.000000 1.745560 
# 
# From -- ./inp_files/70933.got.cif
#   From: 2010.03.12/outbox.cif.g09.slc.cpg/sg65_36_cif.got.tgz:70933.got - 2010.04.10 20:52:16.
