data_PCOD8270050
_publ_section_title
;
Structure prediction by ZEFSAII (Michael W. Deem and Ramdas Pophale) SiO2 
 PCOD8270050
Probable space group: C M M M
;
_chemical_formula_sum "Si O2"
_cell_formula_units_Z 104
_cell_length_a 8.172449
_cell_length_b 20.225979
_cell_length_c 34.648112
_cell_angle_alpha 90.000000
_cell_angle_beta 90.000000
_cell_angle_gamma 90.000000
_cell_volume 5727.186763
_symmetry_space_group_name_H-M "C M M M"
_symmetry_group_IT_number 65
_symmetry_cell_setting 'orthorhombic'
loop_
_space_group_symop_operation_xyz
x,y,z
-x,-y,z
x,-y,-z
-x,y,-z
-x,-y,-z
x,y,-z
-x,y,z
x,-y,z
1/2+x,1/2+y,z
1/2-x,1/2-y,z
1/2+x,1/2-y,-z
1/2-x,1/2+y,-z
1/2-x,1/2-y,-z
1/2+x,1/2+y,-z
1/2-x,1/2+y,z
1/2+x,1/2-y,z
loop_
_atom_site_type_symbol
_atom_site_label
_atom_site_fract_x
_atom_site_fract_y
_atom_site_fract_z
Si Si1 0.190799 0.074206 0.250548
Si Si2 0.681824 0.421252 0.589534
Si Si3 0.806949 0.678607 0.189874
Si Si4 0.806486 0.320672 0.897248
Si Si5 0.805239 0.573760 0.957021
Si Si6 0.000000 0.578745 0.456107
Si Si7 0.684420 0.921952 0.330993
O O1 0.231239 0.120039 0.214597
O O2 0.264071 0.107345 0.289501
O O3 0.000000 0.069769 0.256748
O O4 0.261639 0.000000 0.243054
O O5 0.500000 0.397667 0.575244
O O6 0.689851 0.500000 0.588432
O O7 0.705181 0.395717 0.633571
O O8 0.832273 0.393548 0.563540
O O9 0.750000 0.750000 0.205682
O O10 0.740624 0.668645 0.146241
O O11 0.000000 0.673881 0.192133
O O12 0.750000 0.250000 0.913327
O O13 0.730359 0.376178 0.925472
O O14 0.000000 0.324542 0.897399
O O15 0.743363 0.500000 0.946934
O O16 0.000000 0.575766 0.955775
O O17 0.745118 0.593827 0.000000
O O18 0.000000 0.500000 0.453341
O O19 0.000000 0.603602 0.500000
O O20 0.500000 0.901098 0.340579
O O21 0.704865 0.000000 0.327788
#
# Coordination Sequence:
#
# PCOD8270050 Si02
#       7
#    16  16  16  16  16   8  16
#     4  10  20  32  47  70  96 120 153 199 242 284
#     4   9  15  23  35  50  71 103 142 187 239 288
#     4  10  20  34  50  67  92 126 160 196 238 290
#     4   9  18  31  48  69  91 118 153 190 229 275
#     4   8  14  26  45  69  95 121 151 189 231 275
#     4   9  16  24  32  46  70 102 146 194 236 286
#     4   9  15  25  41  60  83 110 143 187 236 283
#
# _framework density 18.159002999999998
#
# number of rings (size 3 to 8) (size 9 to 14) (size 15 to 20)
#    0.000    2.846    0.769    1.846    0.000    4.615 
#    0.000    3.077    0.000    0.462    0.000    1.077 
#    0.000    0.000    0.000    0.000    0.000    0.769 
#
# Total GULP energy -644455.311864 kJ/mol
# GULP energy per Si atom -12393.371382 kJ/mol
# Density = 1.811767 g / cm^3
# Si number density = 18.159003 Si / 1000 Ang^3
#
#
#
# Elastic Constant Matrix: (Units=GPa)
#
#
# Indices 1 2 3 4 5 6 
#
# 1 67.1085 14.9863 35.6558 0.0000 0.0000 0.0000
# 2 14.9863 66.4856 56.1649 0.0000 0.0000 0.0000
# 3 35.6558 56.1649 123.8156 0.0000 0.0000 0.0000
# 4 0.0000 0.0000 0.0000 3.0267 0.0000 0.0000
# 5 0.0000 0.0000 0.0000 0.0000 16.6632 0.0000
# 6 0.0000 0.0000 0.0000 0.0000 0.0000 16.4769
#
#
#
# Elastic Compliance Matrix: (Units=1/GPa)
#
#
# Indices 1 2 3 4 5 6 
#
# 1 0.017604 0.000510 -0.005301 0.000000 0.000000 0.000000
# 2 0.000510 0.024400 -0.011215 0.000000 0.000000 0.000000
# 3 -0.005301 -0.011215 0.014690 0.000000 0.000000 0.000000
# 4 0.000000 0.000000 0.000000 0.330395 0.000000 0.000000
# 5 0.000000 0.000000 0.000000 0.000000 0.060012 0.000000
# 6 0.000000 0.000000 0.000000 0.000000 0.000000 0.060691
#
#
# Mechanical properties :
#
#
# Convention : Reuss Voigt Hill
#
# Bulk Modulus (GPa) = 40.51495 52.33598 46.42546
# Shear Modulus (GPa) = 9.12356 17.27354 13.19855
#
# Velocity S-wave (km/s) = 2.24392 3.08756 2.69891
# Velocity P-wave (km/s) = 5.39196 6.44936 5.94422
#
# Compressibility (1/GPa) = 0.02468225
#
# Stress axis : x y z
#
# Youngs Moduli (GPa) = 56.80610 40.98344 68.07180
#
# Poissons Ratio (x) = -0.02090 0.36083
# Poissons Ratio (y) = -0.02896 0.76343
# Poissons Ratio (z) = 0.30111 0.45963
#
# Static dielectric constant tensor:
#      x y z
#    x 3.340710 0.000000 0.000000 
#    y 0.000000 2.993110 0.000000 
#    z 0.000000 0.000000 3.616580 
# 
# 
# High freq. dielectric constant tensor:
#      x y z
#    x 1.702110 0.000000 0.000000 
#    y 0.000000 1.646200 0.000000 
#    z 0.000000 0.000000 1.708650 
# 
# From -- ./inp_files/76884.got.cif
#   From: 2010.03.12/outbox.cif.g09.slc.cpg/sg65_39_cif.got.tgz:76884.got - 2010.04.10 20:52:16.
