data_PCOD8270460
_publ_section_title
;
Structure prediction by ZEFSAII (Michael W. Deem and Ramdas Pophale) SiO2 
 PCOD8270460
Probable space group: C M M M
;
_chemical_formula_sum "Si O2"
_cell_formula_units_Z 88
_cell_length_a 8.977942
_cell_length_b 24.721494
_cell_length_c 22.046803
_cell_angle_alpha 90.000000
_cell_angle_beta 90.000000
_cell_angle_gamma 90.000000
_cell_volume 4893.246903
_symmetry_space_group_name_H-M "C M M M"
_symmetry_group_IT_number 65
_symmetry_cell_setting 'orthorhombic'
loop_
_space_group_symop_operation_xyz
x,y,z
-x,-y,z
x,-y,-z
-x,y,-z
-x,-y,-z
x,y,-z
-x,y,z
x,-y,z
1/2+x,1/2+y,z
1/2-x,1/2-y,z
1/2+x,1/2-y,-z
1/2-x,1/2+y,-z
1/2-x,1/2-y,-z
1/2+x,1/2+y,-z
1/2-x,1/2+y,z
1/2+x,1/2-y,z
loop_
_atom_site_type_symbol
_atom_site_label
_atom_site_fract_x
_atom_site_fract_y
_atom_site_fract_z
Si Si1 0.823430 0.500000 0.067476
Si Si2 0.824677 0.500000 0.610349
Si Si3 0.324574 0.694178 0.202195
Si Si4 0.326535 0.884876 0.431673
Si Si5 0.823728 0.588535 0.838190
Si Si6 0.825776 0.195169 0.341604
Si Si7 0.323254 0.000000 0.255236
O O1 0.773511 0.445580 0.102587
O O2 0.000000 0.500000 0.064680
O O3 0.753283 0.500000 0.000000
O O4 0.775630 0.552712 0.573104
O O5 0.752134 0.500000 0.677704
O O6 0.000000 0.500000 0.619086
O O7 0.500000 0.698875 0.192598
O O8 0.250000 0.750000 0.180324
O O9 0.260764 0.645634 0.161444
O O10 0.281837 0.682696 0.272213
O O11 0.294352 0.864790 0.500000
O O12 0.500000 0.877945 0.415246
O O13 0.229564 0.852739 0.383789
O O14 0.771290 0.554128 0.779564
O O15 0.000000 0.599181 0.837612
O O16 0.750000 0.250000 0.364406
O O17 0.000000 0.202393 0.349539
O O18 0.500000 0.000000 0.255932
#
# Coordination Sequence:
#
# PCOD8270460 Si02
#       7
#     8   8  16  16  16  16   8
#     4   8  15  29  51  80 111 142 175 207 238 276
#     4   9  16  28  47  69  94 122 154 193 236 286
#     4  10  20  33  50  73 100 128 160 201 249 298
#     4  10  20  33  50  71  94 123 160 201 243 290
#     4   9  16  28  49  76 104 134 167 200 238 284
#     4  10  21  36  53  72  94 123 158 199 249 300
#     4   8  14  24  43  71  97 123 155 193 238 287
#
# _framework density 17.983968999999998
#
# number of rings (size 3 to 8) (size 9 to 14) (size 15 to 20)
#    0.000    2.636    0.000    3.545    0.000    5.455 
#    0.000    2.273    0.000    8.182    0.000    0.000 
#    0.000    0.000    0.000    0.000    0.000    0.000 
#
# Total GULP energy -545545.310587 kJ/mol
# GULP energy per Si atom -12398.757059 kJ/mol
# Density = 1.794304 g / cm^3
# Si number density = 17.983969 Si / 1000 Ang^3
#
#
#
# Elastic Constant Matrix: (Units=GPa)
#
#
# Indices 1 2 3 4 5 6 
#
# 1 54.5614 45.7400 26.7259 0.0000 0.0000 0.0000
# 2 45.7400 142.2881 45.9992 0.0000 0.0000 0.0000
# 3 26.7259 45.9992 86.7165 0.0000 0.0000 0.0000
# 4 0.0000 0.0000 0.0000 9.2347 0.0000 0.0000
# 5 0.0000 0.0000 0.0000 0.0000 15.3521 0.0000
# 6 0.0000 0.0000 0.0000 0.0000 0.0000 29.1393
#
#
#
# Elastic Compliance Matrix: (Units=1/GPa)
#
#
# Indices 1 2 3 4 5 6 
#
# 1 0.026403 -0.007069 -0.004388 0.000000 0.000000 0.000000
# 2 -0.007069 0.010375 -0.003325 0.000000 0.000000 0.000000
# 3 -0.004388 -0.003325 0.014648 0.000000 0.000000 0.000000
# 4 0.000000 0.000000 0.000000 0.108287 0.000000 0.000000
# 5 0.000000 0.000000 0.000000 0.000000 0.065138 0.000000
# 6 0.000000 0.000000 0.000000 0.000000 0.000000 0.034318
#
#
# Mechanical properties :
#
#
# Convention : Reuss Voigt Hill
#
# Bulk Modulus (GPa) = 45.73917 57.83290 51.78604
# Shear Modulus (GPa) = 16.89073 21.75195 19.32134
#
# Velocity S-wave (km/s) = 3.06798 3.48159 3.28131
# Velocity P-wave (km/s) = 6.16754 6.95628 6.57375
#
# Compressibility (1/GPa) = 0.02186310
#
# Stress axis : x y z
#
# Youngs Moduli (GPa) = 37.87383 96.38220 68.26953
#
# Poissons Ratio (x) = 0.68135 0.29954
# Poissons Ratio (y) = 0.26774 0.22699
# Poissons Ratio (z) = 0.16618 0.32046
#
# Static dielectric constant tensor:
#      x y z
#    x 3.005550 0.000000 0.000000 
#    y 0.000000 3.391880 0.000000 
#    z 0.000000 0.000000 3.421130 
# 
# 
# High freq. dielectric constant tensor:
#      x y z
#    x 1.667530 0.000000 0.000000 
#    y 0.000000 1.704160 0.000000 
#    z 0.000000 0.000000 1.678480 
# 
# From -- ./inp_files/59922.got.cif
#   From: 2010.03.12/outbox.cif.g09.slc.cpg/sg65_30_cif.got.tgz:59922.got - 2010.04.10 20:52:16.
