data_PCOD8270476
_publ_section_title
;
Structure prediction by ZEFSAII (Michael W. Deem and Ramdas Pophale) SiO2 
 PCOD8270476
Probable space group: C M M M
;
_chemical_formula_sum "Si O2"
_cell_formula_units_Z 112
_cell_length_a 15.032013
_cell_length_b 27.038185
_cell_length_c 15.247497
_cell_angle_alpha 90.000000
_cell_angle_beta 90.000000
_cell_angle_gamma 90.000000
_cell_volume 6197.167498
_symmetry_space_group_name_H-M "C M M M"
_symmetry_group_IT_number 65
_symmetry_cell_setting 'orthorhombic'
loop_
_space_group_symop_operation_xyz
x,y,z
-x,-y,z
x,-y,-z
-x,y,-z
-x,-y,-z
x,y,-z
-x,y,z
x,-y,z
1/2+x,1/2+y,z
1/2-x,1/2-y,z
1/2+x,1/2-y,-z
1/2-x,1/2+y,-z
1/2-x,1/2-y,-z
1/2+x,1/2+y,-z
1/2-x,1/2+y,z
1/2+x,1/2-y,z
loop_
_atom_site_type_symbol
_atom_site_label
_atom_site_fract_x
_atom_site_fract_y
_atom_site_fract_z
Si Si1 0.399325 0.874020 0.901667
Si Si2 0.399616 0.343602 0.759199
Si Si3 0.399780 0.943088 0.255151
Si Si4 0.227367 0.405332 0.404625
Si Si5 0.737161 0.694417 0.899219
Si Si6 0.599677 0.556216 0.330939
Si Si7 0.299822 0.699181 0.399857
O O1 0.500000 0.854941 0.886110
O O2 0.373056 0.917075 0.835058
O O3 0.334021 0.828685 0.884997
O O4 0.388223 0.895302 0.000000
O O5 0.500000 0.329429 0.784796
O O6 0.336280 0.331494 0.839916
O O7 0.390267 0.402934 0.745876
O O8 0.376755 0.312180 0.671021
O O9 0.500000 0.929707 0.283951
O O10 0.335337 0.927910 0.332333
O O11 0.388062 0.000000 0.234894
O O12 0.187393 0.417930 0.500000
O O13 0.325731 0.429956 0.402324
O O14 0.230308 0.346117 0.392075
O O15 0.750000 0.750000 0.867649
O O16 0.705353 0.690697 0.000000
O O17 0.500000 0.560568 0.372206
O O18 0.614683 0.500000 0.295258
O O19 0.338188 0.701820 0.500000
O O20 0.250000 0.750000 0.375434
#
# Coordination Sequence:
#
# PCOD8270476 Si02
#       7
#    16  16  16  16  16  16  16
#     4   9  18  34  56  78  98 124 162 208 256 302
#     4  10  20  33  52  77 104 137 172 205 246 297
#     4  10  21  35  51  73 101 132 165 204 250 298
#     4  10  20  33  50  72 100 135 171 205 243 292
#     4  10  21  36  53  75 105 136 166 205 250 297
#     4   9  18  32  50  73 100 130 166 208 252 294
#     4   9  18  34  54  74 100 134 170 212 259 299
#
# _framework density 18.072772000000001
#
# number of rings (size 3 to 8) (size 9 to 14) (size 15 to 20)
#    0.000    2.429    0.000    2.571    0.000    3.143 
#    0.000    9.286    0.000    3.857    0.000    2.000 
#    0.000    0.000    0.000    0.000    0.000    0.143 
#
# Total GULP energy -694115.462422 kJ/mol
# GULP energy per Si atom -12394.918972 kJ/mol
# Density = 1.803164 g / cm^3
# Si number density = 18.072772 Si / 1000 Ang^3
#
#
#
# Elastic Constant Matrix: (Units=GPa)
#
#
# Indices 1 2 3 4 5 6 
#
# 1 90.3214 43.6690 56.7628 0.0000 0.0000 0.0000
# 2 43.6690 114.2211 41.3139 0.0000 0.0000 0.0000
# 3 56.7628 41.3139 100.5383 0.0000 0.0000 0.0000
# 4 0.0000 0.0000 0.0000 5.2078 0.0000 0.0000
# 5 0.0000 0.0000 0.0000 0.0000 48.3278 0.0000
# 6 0.0000 0.0000 0.0000 0.0000 0.0000 24.4401
#
#
#
# Elastic Compliance Matrix: (Units=1/GPa)
#
#
# Indices 1 2 3 4 5 6 
#
# 1 0.018512 -0.003873 -0.008860 0.000000 0.000000 0.000000
# 2 -0.003873 0.011094 -0.002372 0.000000 0.000000 0.000000
# 3 -0.008860 -0.002372 0.015924 0.000000 0.000000 0.000000
# 4 0.000000 0.000000 0.000000 0.192018 0.000000 0.000000
# 5 0.000000 0.000000 0.000000 0.000000 0.020692 0.000000
# 6 0.000000 0.000000 0.000000 0.000000 0.000000 0.040916
#
#
# Mechanical properties :
#
#
# Convention : Reuss Voigt Hill
#
# Bulk Modulus (GPa) = 65.27853 65.39693 65.33773
# Shear Modulus (GPa) = 14.94887 26.48415 20.71651
#
# Velocity S-wave (km/s) = 2.87914 3.83223 3.38935
# Velocity P-wave (km/s) = 6.87392 7.47296 7.17969
#
# Compressibility (1/GPa) = 0.01531897
#
# Stress axis : x y z
#
# Youngs Moduli (GPa) = 54.01789 90.14202 62.79939
#
# Poissons Ratio (x) = 0.34910 0.55643
# Poissons Ratio (y) = 0.20920 0.14897
# Poissons Ratio (z) = 0.47862 0.21383
#
# Static dielectric constant tensor:
#      x y z
#    x 3.389450 0.000000 0.000000 
#    y 0.000000 3.496840 0.000000 
#    z 0.000000 0.000000 3.339030 
# 
# 
# High freq. dielectric constant tensor:
#      x y z
#    x 1.695790 0.000000 0.000000 
#    y 0.000000 1.706810 0.000000 
#    z 0.000000 0.000000 1.693930 
# 
# From -- ./inp_files/41102.got.cif
#   From: 2010.03.12/outbox.cif.g09.slc.cpg/sg65_21_cif.got.tgz:41102.got - 2010.04.10 20:52:16.
