data_PCOD8270629
_publ_section_title
;
Structure prediction by ZEFSAII (Michael W. Deem and Ramdas Pophale) SiO2 
 PCOD8270629
Probable space group: C M M M
;
_chemical_formula_sum "Si O2"
_cell_formula_units_Z 88
_cell_length_a 9.290058
_cell_length_b 19.174402
_cell_length_c 27.931317
_cell_angle_alpha 90.000000
_cell_angle_beta 90.000000
_cell_angle_gamma 90.000000
_cell_volume 4975.441995
_symmetry_space_group_name_H-M "C M M M"
_symmetry_group_IT_number 65
_symmetry_cell_setting 'orthorhombic'
loop_
_space_group_symop_operation_xyz
x,y,z
-x,-y,z
x,-y,-z
-x,y,-z
-x,-y,-z
x,y,-z
-x,y,z
x,-y,z
1/2+x,1/2+y,z
1/2-x,1/2-y,z
1/2+x,1/2-y,-z
1/2-x,1/2+y,-z
1/2-x,1/2-y,-z
1/2+x,1/2+y,-z
1/2-x,1/2+y,z
1/2+x,1/2-y,z
loop_
_atom_site_type_symbol
_atom_site_label
_atom_site_fract_x
_atom_site_fract_y
_atom_site_fract_z
Si Si1 0.168868 0.323270 0.896267
Si Si2 0.670685 0.077897 0.812442
Si Si3 0.831688 0.319641 0.378717
Si Si4 0.162890 0.081820 0.445619
Si Si5 0.336244 0.819579 0.000000
Si Si6 0.332449 0.180873 0.730945
O O1 0.250000 0.250000 0.890109
O O2 0.229174 0.378610 0.857925
O O3 0.196955 0.358163 0.949343
O O4 0.000000 0.309028 0.887721
O O5 0.500000 0.072575 0.815088
O O6 0.718932 0.116454 0.763677
O O7 0.737783 0.000000 0.812878
O O8 0.750000 0.250000 0.394672
O O9 0.777101 0.382629 0.410967
O O10 0.796496 0.338456 0.323749
O O11 0.000000 0.308298 0.387219
O O12 0.192225 0.105934 0.500000
O O13 0.000000 0.101995 0.430786
O O14 0.186423 0.000000 0.440838
O O15 0.250000 0.750000 0.000000
O O16 0.500000 0.795949 0.000000
O O17 0.500000 0.196455 0.738261
O O18 0.250000 0.250000 0.747566
#
# Coordination Sequence:
#
# PCOD8270629 Si02
#       6
#    16  16  16  16   8  16
#     4   9  16  27  45  66  88 117 151 188 228 270
#     4   9  17  29  45  66  92 121 152 186 228 276
#     4  10  20  33  51  75 100 126 158 198 241 283
#     4   9  19  36  55  74  99 131 163 195 234 280
#     4   8  14  24  39  63  89 111 145 188 226 266
#     4   9  18  32  50  70  92 120 154 192 231 274
#
# _framework density 17.686871
#
# number of rings (size 3 to 8) (size 9 to 14) (size 15 to 20)
#    0.000    2.909    0.000    1.636    0.000    2.545 
#    0.000    3.182    0.000    4.909    0.000    0.000 
#    0.000    7.273    0.000    0.000    0.000    0.000 
#
# Total GULP energy -545345.418927 kJ/mol
# GULP energy per Si atom -12394.214067 kJ/mol
# Density = 1.764662 g / cm^3
# Si number density = 17.686871 Si / 1000 Ang^3
#
#
#
# Elastic Constant Matrix: (Units=GPa)
#
#
# Indices 1 2 3 4 5 6 
#
# 1 50.2051 37.1742 40.1615 0.0000 0.0000 0.0000
# 2 37.1742 110.7475 72.5792 0.0000 0.0000 0.0000
# 3 40.1615 72.5792 118.8252 0.0000 0.0000 0.0000
# 4 0.0000 0.0000 0.0000 17.8035 0.0000 0.0000
# 5 0.0000 0.0000 0.0000 0.0000 19.1563 0.0000
# 6 0.0000 0.0000 0.0000 0.0000 0.0000 25.6424
#
#
#
# Elastic Compliance Matrix: (Units=1/GPa)
#
#
# Indices 1 2 3 4 5 6 
#
# 1 0.029219 -0.005562 -0.006478 0.000000 0.000000 0.000000
# 2 -0.005562 0.016116 -0.007963 0.000000 0.000000 0.000000
# 3 -0.006478 -0.007963 0.015469 0.000000 0.000000 0.000000
# 4 0.000000 0.000000 0.000000 0.056169 0.000000 0.000000
# 5 0.000000 0.000000 0.000000 0.000000 0.052202 0.000000
# 6 0.000000 0.000000 0.000000 0.000000 0.000000 0.038998
#
#
# Mechanical properties :
#
#
# Convention : Reuss Voigt Hill
#
# Bulk Modulus (GPa) = 48.08600 64.40086 56.24343
# Shear Modulus (GPa) = 19.59916 21.17798 20.38857
#
# Velocity S-wave (km/s) = 3.33245 3.46408 3.39890
# Velocity P-wave (km/s) = 6.48486 7.24503 6.87546
#
# Compressibility (1/GPa) = 0.02079608
#
# Stress axis : x y z
#
# Youngs Moduli (GPa) = 34.22412 62.05171 64.64364
#
# Poissons Ratio (x) = 0.34515 0.41877
# Poissons Ratio (y) = 0.19037 0.51479
# Poissons Ratio (z) = 0.22171 0.49415
#
# Static dielectric constant tensor:
#      x y z
#    x 3.125730 0.000000 0.000000 
#    y 0.000000 3.168420 0.000000 
#    z 0.000000 0.000000 3.713930 
# 
# 
# High freq. dielectric constant tensor:
#      x y z
#    x 1.664860 0.000000 0.000000 
#    y 0.000000 1.664150 0.000000 
#    z 0.000000 0.000000 1.701760 
# 
# From -- ./inp_files/76491.got.cif
#   From: 2010.03.12/outbox.cif.g09.slc.cpg/sg65_39_cif.got.tgz:76491.got - 2010.04.10 20:52:16.
