data_PCOD8270739
_publ_section_title
;
Structure prediction by ZEFSAII (Michael W. Deem and Ramdas Pophale) SiO2 
 PCOD8270739
Probable space group: C M M M
;
_chemical_formula_sum "Si O2"
_cell_formula_units_Z 56
_cell_length_a 8.958684
_cell_length_b 17.918829
_cell_length_c 18.160335
_cell_angle_alpha 90.000000
_cell_angle_beta 90.000000
_cell_angle_gamma 90.000000
_cell_volume 2915.262717
_symmetry_space_group_name_H-M "C M M M"
_symmetry_group_IT_number 65
_symmetry_cell_setting 'orthorhombic'
loop_
_space_group_symop_operation_xyz
x,y,z
-x,-y,z
x,-y,-z
-x,y,-z
-x,-y,-z
x,y,-z
-x,y,z
x,-y,z
1/2+x,1/2+y,z
1/2-x,1/2-y,z
1/2+x,1/2-y,-z
1/2-x,1/2+y,-z
1/2-x,1/2-y,-z
1/2+x,1/2+y,-z
1/2-x,1/2+y,z
1/2+x,1/2-y,z
loop_
_atom_site_type_symbol
_atom_site_label
_atom_site_fract_x
_atom_site_fract_y
_atom_site_fract_z
Si Si1 0.822677 0.083793 0.500000
Si Si2 0.330579 0.911426 0.224279
Si Si3 0.176727 0.169777 0.355833
Si Si4 0.832332 0.088663 0.919092
O O1 0.764081 0.126786 0.571957
O O2 0.000000 0.080335 0.500000
O O3 0.756247 0.000000 0.500000
O O4 0.500000 0.884825 0.236884
O O5 0.223321 0.877068 0.285043
O O6 0.277850 0.881340 0.144284
O O7 0.316274 0.000000 0.229028
O O8 0.250000 0.250000 0.353675
O O9 0.000000 0.178618 0.356841
O O10 0.000000 0.117691 0.903419
O O11 0.831922 0.000000 0.918446
O O12 0.778427 0.116870 0.000000
#
# Coordination Sequence:
#
# PCOD8270739 Si02
#       4
#     8  16  16  16
#     4   9  19  36  59  85 108 135 174 217 262 314
#     4  10  20  33  51  78 110 142 180 224 268 316
#     4  11  22  37  57  79 108 143 179 219 264 317
#     4   8  14  26  46  73 104 138 177 220 266 315
#
# _framework density 19.209246
#
# number of rings (size 3 to 8) (size 9 to 14) (size 15 to 20)
#    0.000    2.429    0.000    3.857    0.000    3.429 
#    0.000    5.000    0.000    6.000    0.000    0.000 
#    0.000    0.000    0.000    0.000    0.000    0.000 
#
# Total GULP energy -347155.600528 kJ/mol
# GULP energy per Si atom -12398.414305 kJ/mol
# Density = 1.916553 g / cm^3
# Si number density = 19.209246 Si / 1000 Ang^3
#
#
#
# Elastic Constant Matrix: (Units=GPa)
#
#
# Indices 1 2 3 4 5 6 
#
# 1 80.1863 29.6052 49.1970 0.0000 0.0000 0.0000
# 2 29.6052 42.2797 39.6874 0.0000 0.0000 0.0000
# 3 49.1970 39.6874 164.8437 0.0000 0.0000 0.0000
# 4 0.0000 0.0000 0.0000 -1.3182 0.0000 0.0000
# 5 0.0000 0.0000 0.0000 0.0000 19.1317 0.0000
# 6 0.0000 0.0000 0.0000 0.0000 0.0000 17.1422
#
#
#
# Elastic Compliance Matrix: (Units=1/GPa)
#
#
# Indices 1 2 3 4 5 6 
#
# 1 0.017900 -0.009715 -0.003003 0.000000 0.000000 0.000000
# 2 -0.009715 0.035831 -0.005727 0.000000 0.000000 0.000000
# 3 -0.003003 -0.005727 0.008342 0.000000 0.000000 0.000000
# 4 0.000000 0.000000 0.000000 -0.758635 0.000000 0.000000
# 5 0.000000 0.000000 0.000000 0.000000 0.052269 0.000000
# 6 0.000000 0.000000 0.000000 0.000000 0.000000 0.058336
#
#
# Mechanical properties :
#
#
# Convention : Reuss Voigt Hill
#
# Bulk Modulus (GPa) = 39.71150 58.25432 48.98291
# Shear Modulus (GPa) = -9.24774 18.24581 4.49904
#
# Velocity S-wave (km/s) = -2.19651 3.08530 1.53206
# Velocity P-wave (km/s) = 3.77957 6.56385 5.35580
#
# Compressibility (1/GPa) = 0.02518162
#
# Stress axis : x y z
#
# Youngs Moduli (GPa) = 55.86439 27.90902 119.88212
#
# Poissons Ratio (x) = 0.27114 0.36005
# Poissons Ratio (y) = 0.54273 0.68657
# Poissons Ratio (z) = 0.16778 0.15984
#
# Static dielectric constant tensor:
#      x y z
#    x 3.483600 0.000000 0.000000 
#    y 0.000000 3.224430 0.000000 
#    z 0.000000 0.000000 3.957410 
# 
# 
# High freq. dielectric constant tensor:
#      x y z
#    x 1.737950 0.000000 0.000000 
#    y 0.000000 1.714850 0.000000 
#    z 0.000000 0.000000 1.768570 
# 
# From -- ./inp_files/43548.got.cif
#   From: 2010.03.12/outbox.cif.g09.slc.cpg/sg65_22_cif.got.tgz:43548.got - 2010.04.10 20:52:16.
