data_PCOD8270473
_publ_section_title
;
Structure prediction by ZEFSAII (Michael W. Deem and Ramdas Pophale) SiO2 
 PCOD8270473
Probable space group: C M M M
;
_chemical_formula_sum "Si O2"
_cell_formula_units_Z 64
_cell_length_a 9.552446
_cell_length_b 20.818239
_cell_length_c 17.520213
_cell_angle_alpha 90.000000
_cell_angle_beta 90.000000
_cell_angle_gamma 90.000000
_cell_volume 3484.158978
_symmetry_space_group_name_H-M "C M M M"
_symmetry_group_IT_number 65
_symmetry_cell_setting 'orthorhombic'
loop_
_space_group_symop_operation_xyz
x,y,z
-x,-y,z
x,-y,-z
-x,y,-z
-x,-y,-z
x,y,-z
-x,y,z
x,-y,z
1/2+x,1/2+y,z
1/2-x,1/2-y,z
1/2+x,1/2-y,-z
1/2-x,1/2+y,-z
1/2-x,1/2-y,-z
1/2+x,1/2+y,-z
1/2-x,1/2+y,z
1/2+x,1/2-y,z
loop_
_atom_site_type_symbol
_atom_site_label
_atom_site_fract_x
_atom_site_fract_y
_atom_site_fract_z
Si Si1 0.333504 0.500000 0.910189
Si Si2 0.333878 0.071463 0.586001
Si Si3 0.841683 0.387214 0.150033
Si Si4 0.834910 0.315288 0.303747
Si Si5 0.850654 0.307009 0.000000
O O1 0.500000 0.500000 0.905803
O O2 0.273189 0.441705 0.860752
O O3 0.285289 0.500000 0.000000
O O4 0.280532 0.084585 0.500000
O O5 0.500000 0.071735 0.588533
O O6 0.278130 0.128643 0.639823
O O7 0.282012 0.000000 0.612903
O O8 0.801648 0.340170 0.219018
O O9 0.000000 0.414938 0.161893
O O10 0.829742 0.348922 0.073276
O O11 0.750000 0.250000 0.319965
O O12 0.000000 0.301610 0.315342
O O13 0.750000 0.250000 0.000000
O O14 0.000000 0.273444 0.000000
#
# Coordination Sequence:
#
# PCOD8270473 Si02
#       5
#     8  16  16  16   8
#     4  11  23  37  55  81 106 135 176 226 277 321
#     4   8  15  30  53  81 110 141 182 227 268 317
#     4  10  21  36  54  76 105 141 180 220 265 321
#     4  10  21  35  55  82 111 145 183 226 273 322
#     4  10  20  33  50  71  97 136 176 216 265 312
#
# _framework density 18.368852
#
# number of rings (size 3 to 8) (size 9 to 14) (size 15 to 20)
#    0.000    2.375    1.250    1.875    1.750    3.000 
#    0.000    0.000    0.000    0.000    0.000    1.750 
#    0.000    0.000    0.000    0.000    0.000    0.000 
#
# Total GULP energy -396522.191936 kJ/mol
# GULP energy per Si atom -12391.318498 kJ/mol
# Density = 1.832704 g / cm^3
# Si number density = 18.368852 Si / 1000 Ang^3
#
#
#
# Elastic Constant Matrix: (Units=GPa)
#
#
# Indices 1 2 3 4 5 6 
#
# 1 66.0969 64.7107 25.7809 0.0000 0.0000 0.0000
# 2 64.7107 153.2316 72.1921 0.0000 0.0000 0.0000
# 3 25.7809 72.1921 119.2682 0.0000 0.0000 0.0000
# 4 0.0000 0.0000 0.0000 -482.7455 0.0000 0.0000
# 5 0.0000 0.0000 0.0000 0.0000 39.0402 0.0000
# 6 0.0000 0.0000 0.0000 0.0000 0.0000 38.4537
#
#
#
# Elastic Compliance Matrix: (Units=1/GPa)
#
#
# Indices 1 2 3 4 5 6 
#
# 1 0.025968 -0.011642 0.001433 0.000000 0.000000 0.000000
# 2 -0.011642 0.014349 -0.006169 0.000000 0.000000 0.000000
# 3 0.001433 -0.006169 0.011808 0.000000 0.000000 0.000000
# 4 0.000000 0.000000 0.000000 -0.002071 0.000000 0.000000
# 5 0.000000 0.000000 0.000000 0.000000 0.025615 0.000000
# 6 0.000000 0.000000 0.000000 0.000000 0.000000 0.026005
#
#
# Mechanical properties :
#
#
# Convention : Reuss Voigt Hill
#
# Bulk Modulus (GPa) = 51.62344 73.77378 62.69861
# Shear Modulus (GPa) = 35.49015 -69.32280 -16.91633
#
# Velocity S-wave (km/s) = 4.40032 -6.14990 -3.03797
# Velocity P-wave (km/s) = 7.34723 3.19041 4.67991
#
# Compressibility (1/GPa) = 0.01937105
#
# Stress axis : x y z
#
# Youngs Moduli (GPa) = 38.50938 69.69275 84.68493
#
# Poissons Ratio (x) = 0.81134 -0.12139
# Poissons Ratio (y) = 0.44831 0.52240
# Poissons Ratio (z) = -0.05520 0.42991
#
# Static dielectric constant tensor:
#      x y z
#    x 3.203320 0.000000 0.000000 
#    y 0.000000 4.460420 0.000000 
#    z 0.000000 0.000000 3.615490 
# 
# 
# High freq. dielectric constant tensor:
#      x y z
#    x 1.679410 0.000000 0.000000 
#    y 0.000000 1.719190 0.000000 
#    z 0.000000 0.000000 1.721600 
# 
# From -- ./inp_files/45104.got.cif
#   From: 2010.03.12/outbox.cif.g09.slc.cpg/sg65_23_cif.got.tgz:45104.got - 2010.04.10 20:52:16.
