data_PCOD8270920
_publ_section_title
;
Structure prediction by ZEFSAII (Michael W. Deem and Ramdas Pophale) SiO2 
 PCOD8270920
Probable space group: C M M M
;
_chemical_formula_sum "Si O2"
_cell_formula_units_Z 112
_cell_length_a 9.469828
_cell_length_b 27.178734
_cell_length_c 29.385574
_cell_angle_alpha 90.000000
_cell_angle_beta 90.000000
_cell_angle_gamma 90.000000
_cell_volume 7563.198391
_symmetry_space_group_name_H-M "C M M M"
_symmetry_group_IT_number 65
_symmetry_cell_setting 'orthorhombic'
loop_
_space_group_symop_operation_xyz
x,y,z
-x,-y,z
x,-y,-z
-x,y,-z
-x,-y,-z
x,y,-z
-x,y,z
x,-y,z
1/2+x,1/2+y,z
1/2-x,1/2-y,z
1/2+x,1/2-y,-z
1/2-x,1/2+y,-z
1/2-x,1/2-y,-z
1/2+x,1/2+y,-z
1/2-x,1/2+y,z
1/2+x,1/2-y,z
loop_
_atom_site_type_symbol
_atom_site_label
_atom_site_fract_x
_atom_site_fract_y
_atom_site_fract_z
Si Si1 0.343442 0.441427 0.368702
Si Si2 0.841904 0.441528 0.549985
Si Si3 0.163910 0.883010 0.183975
Si Si4 0.837795 0.944364 0.904938
Si Si5 0.661560 0.136687 0.050980
Si Si6 0.331932 0.554680 0.268948
Si Si7 0.667582 0.800406 0.136965
O O1 0.500000 0.419437 0.374503
O O2 0.348705 0.500000 0.372202
O O3 0.250634 0.418301 0.409400
O O4 0.280461 0.427174 0.318976
O O5 0.782447 0.426196 0.500000
O O6 0.842225 0.500000 0.553946
O O7 0.000000 0.421161 0.555627
O O8 0.182910 0.924717 0.145993
O O9 0.218186 0.906439 0.231217
O O10 0.266899 0.837466 0.173988
O O11 0.000000 0.865685 0.186358
O O12 0.752225 0.912067 0.940914
O O13 0.000000 0.941756 0.919757
O O14 0.780903 0.000000 0.906603
O O15 0.500000 0.121090 0.057797
O O16 0.701310 0.179722 0.086279
O O17 0.690565 0.156514 0.000000
O O18 0.500000 0.551243 0.269153
O O19 0.271082 0.500000 0.258247
O O20 0.500000 0.793809 0.145261
O O21 0.750000 0.750000 0.142880
#
# Coordination Sequence:
#
# PCOD8270920 Si02
#       7
#    16  16  16  16  16  16  16
#     4   8  13  20  30  46  67  91 123 162 198 229
#     4   8  13  20  28  38  56  86 124 164 203 238
#     4   9  16  28  46  64  82 106 134 161 193 233
#     4   9  17  28  43  64  87 110 137 166 191 219
#     4   9  19  34  48  63  84 108 132 158 191 232
#     4   8  13  22  38  59  81 105 133 164 196 232
#     4  10  20  34  50  66  83 101 125 159 196 235
#
# _framework density 14.80855
#
# number of rings (size 3 to 8) (size 9 to 14) (size 15 to 20)
#    0.000    3.286    0.000    2.143    0.000    3.714 
#    0.000    3.571    0.000    2.143    0.000    0.000 
#    0.000    0.000    0.000    0.000    0.000    0.714 
#
# Total GULP energy -694039.966531 kJ/mol
# GULP energy per Si atom -12393.570831 kJ/mol
# Density = 1.477485 g / cm^3
# Si number density = 14.808550 Si / 1000 Ang^3
#
#
#
# Elastic Constant Matrix: (Units=GPa)
#
#
# Indices 1 2 3 4 5 6 
#
# 1 58.9338 36.6094 45.4773 0.0000 0.0000 0.0000
# 2 36.6094 72.9726 40.3230 0.0000 0.0000 0.0000
# 3 45.4773 40.3230 125.4266 0.0000 0.0000 0.0000
# 4 0.0000 0.0000 0.0000 9.0203 0.0000 0.0000
# 5 0.0000 0.0000 0.0000 0.0000 19.0135 0.0000
# 6 0.0000 0.0000 0.0000 0.0000 0.0000 18.0459
#
#
#
# Elastic Compliance Matrix: (Units=1/GPa)
#
#
# Indices 1 2 3 4 5 6 
#
# 1 0.029081 -0.010656 -0.007118 0.000000 0.000000 0.000000
# 2 -0.010656 0.020569 -0.002749 0.000000 0.000000 0.000000
# 3 -0.007118 -0.002749 0.011438 0.000000 0.000000 0.000000
# 4 0.000000 0.000000 0.000000 0.110861 0.000000 0.000000
# 5 0.000000 0.000000 0.000000 0.000000 0.052594 0.000000
# 6 0.000000 0.000000 0.000000 0.000000 0.000000 0.055414
#
#
# Mechanical properties :
#
#
# Convention : Reuss Voigt Hill
#
# Bulk Modulus (GPa) = 49.89912 55.79472 52.84692
# Shear Modulus (GPa) = 15.25868 18.21083 16.73475
#
# Velocity S-wave (km/s) = 3.21346 3.51058 3.36530
# Velocity P-wave (km/s) = 6.89476 7.36148 7.13194
#
# Compressibility (1/GPa) = 0.02004043
#
# Stress axis : x y z
#
# Youngs Moduli (GPa) = 34.38725 48.61751 87.43166
#
# Poissons Ratio (x) = 0.51806 0.62237
# Poissons Ratio (y) = 0.36643 0.24035
# Poissons Ratio (z) = 0.24478 0.13365
#
# Static dielectric constant tensor:
#      x y z
#    x 2.889200 0.000000 0.000000 
#    y 0.000000 2.521220 0.000000 
#    z 0.000000 0.000000 3.150100 
# 
# 
# High freq. dielectric constant tensor:
#      x y z
#    x 1.557720 0.000000 0.000000 
#    y 0.000000 1.515810 0.000000 
#    z 0.000000 0.000000 1.570980 
# 
# From -- ./inp_files/74498.got.cif
#   From: 2010.03.12/outbox.cif.g09.slc.cpg/sg65_38_cif.got.tgz:74498.got - 2010.04.10 20:52:16.
