data_PCOD8270206
_publ_section_title
;
Structure prediction by ZEFSAII (Michael W. Deem and Ramdas Pophale) SiO2 
 PCOD8270206
Probable space group: C M M M
;
_chemical_formula_sum "Si O2"
_cell_formula_units_Z 104
_cell_length_a 9.096743
_cell_length_b 18.929928
_cell_length_c 32.783063
_cell_angle_alpha 90.000000
_cell_angle_beta 90.000000
_cell_angle_gamma 90.000000
_cell_volume 5645.266070
_symmetry_space_group_name_H-M "C M M M"
_symmetry_group_IT_number 65
_symmetry_cell_setting 'orthorhombic'
loop_
_space_group_symop_operation_xyz
x,y,z
-x,-y,z
x,-y,-z
-x,y,-z
-x,-y,-z
x,y,-z
-x,y,z
x,-y,z
1/2+x,1/2+y,z
1/2-x,1/2-y,z
1/2+x,1/2-y,-z
1/2-x,1/2+y,-z
1/2-x,1/2-y,-z
1/2+x,1/2+y,-z
1/2-x,1/2+y,z
1/2+x,1/2-y,z
loop_
_atom_site_type_symbol
_atom_site_label
_atom_site_fract_x
_atom_site_fract_y
_atom_site_fract_z
Si Si1 0.332454 0.916697 0.658328
Si Si2 0.671576 0.678379 0.279560
Si Si3 0.673072 0.325265 0.500000
Si Si4 0.665236 0.416044 0.955124
Si Si5 0.832949 0.416208 0.876806
Si Si6 0.671268 0.678434 0.815021
Si Si7 0.671387 0.581448 0.576645
O O1 0.500000 0.889836 0.660147
O O2 0.240187 0.885736 0.695545
O O3 0.262802 0.892322 0.615590
O O4 0.322327 0.000000 0.662858
O O5 0.500000 0.685106 0.289101
O O6 0.750000 0.750000 0.293724
O O7 0.702239 0.662829 0.232259
O O8 0.500000 0.313071 0.500000
O O9 0.750000 0.250000 0.500000
O O10 0.722528 0.369955 0.460710
O O11 0.500000 0.388888 0.946446
O O12 0.667129 0.500000 0.954544
O O13 0.772483 0.386580 0.920046
O O14 0.717877 0.389531 0.000000
O O15 0.819899 0.500000 0.874876
O O16 0.736810 0.386671 0.839906
O O17 0.000000 0.390582 0.872210
O O18 0.500000 0.686011 0.824354
O O19 0.750000 0.750000 0.829235
O O20 0.500000 0.591116 0.586478
O O21 0.706261 0.500000 0.565669
#
# Coordination Sequence:
#
# PCOD8270206 Si02
#       7
#    16  16   8  16  16  16  16
#     4  10  21  36  55  81 111 141 174 214 260 309
#     4  10  21  37  57  79 103 135 174 215 260 310
#     4  10  21  35  53  79 107 136 172 216 264 308
#     4   8  14  26  45  69  98 132 169 210 256 304
#     4  10  20  32  49  76 107 137 171 212 256 303
#     4  10  21  37  56  76 101 135 174 214 258 311
#     4   9  18  35  57  77 101 137 179 217 254 303
#
# _framework density 18.422514
#
# number of rings (size 3 to 8) (size 9 to 14) (size 15 to 20)
#    0.000    2.462    0.000    2.538    0.000    6.769 
#    0.000    6.154    0.000    2.769    0.000    0.000 
#    0.000    0.000    0.000    0.000    0.000    0.000 
#
# Total GULP energy -644874.656610 kJ/mol
# GULP energy per Si atom -12401.435704 kJ/mol
# Density = 1.838058 g / cm^3
# Si number density = 18.422514 Si / 1000 Ang^3
#
#
#
# Elastic Constant Matrix: (Units=GPa)
#
#
# Indices 1 2 3 4 5 6 
#
# 1 114.4718 40.1310 70.7938 0.0000 0.0000 0.0000
# 2 40.1310 51.4484 48.7775 0.0000 0.0000 0.0000
# 3 70.7938 48.7775 116.4902 0.0000 0.0000 0.0000
# 4 0.0000 0.0000 0.0000 10.7258 0.0000 0.0000
# 5 0.0000 0.0000 0.0000 0.0000 32.0249 0.0000
# 6 0.0000 0.0000 0.0000 0.0000 0.0000 31.9330
#
#
#
# Elastic Compliance Matrix: (Units=1/GPa)
#
#
# Indices 1 2 3 4 5 6 
#
# 1 0.014727 -0.004978 -0.006865 0.000000 0.000000 0.000000
# 2 -0.004978 0.033916 -0.011176 0.000000 0.000000 0.000000
# 3 -0.006865 -0.011176 0.017436 0.000000 0.000000 0.000000
# 4 0.000000 0.000000 0.000000 0.093233 0.000000 0.000000
# 5 0.000000 0.000000 0.000000 0.000000 0.031226 0.000000
# 6 0.000000 0.000000 0.000000 0.000000 0.000000 0.031316
#
#
# Mechanical properties :
#
#
# Convention : Reuss Voigt Hill
#
# Bulk Modulus (GPa) = 49.90077 66.86833 58.38455
# Shear Modulus (GPa) = 18.21012 23.11729 20.66370
#
# Velocity S-wave (km/s) = 3.14741 3.54621 3.35274
# Velocity P-wave (km/s) = 6.35247 7.28995 6.83730
#
# Compressibility (1/GPa) = 0.02003977
#
# Stress axis : x y z
#
# Youngs Moduli (GPa) = 67.90336 29.48447 57.35166
#
# Poissons Ratio (x) = 0.14679 0.39373
# Poissons Ratio (y) = 0.33805 0.64097
# Poissons Ratio (z) = 0.46617 0.32952
#
# Static dielectric constant tensor:
#      x y z
#    x 3.538540 0.000000 0.000000 
#    y 0.000000 3.131850 0.000000 
#    z 0.000000 0.000000 3.547370 
# 
# 
# High freq. dielectric constant tensor:
#      x y z
#    x 1.722770 0.000000 0.000000 
#    y 0.000000 1.690660 0.000000 
#    z 0.000000 0.000000 1.724190 
# 
# From -- ./inp_files/76874.got.cif
#   From: 2010.03.12/outbox.cif.g09.slc.cpg/sg65_39_cif.got.tgz:76874.got - 2010.04.10 20:52:16.
