data_PCOD8270870
_publ_section_title
;
Structure prediction by ZEFSAII (Michael W. Deem and Ramdas Pophale) SiO2 
 PCOD8270870
Probable space group: C M M M
;
_chemical_formula_sum "Si O2"
_cell_formula_units_Z 120
_cell_length_a 27.743175
_cell_length_b 26.347092
_cell_length_c 9.121969
_cell_angle_alpha 90.000000
_cell_angle_beta 90.000000
_cell_angle_gamma 90.000000
_cell_volume 6667.721339
_symmetry_space_group_name_H-M "C M M M"
_symmetry_group_IT_number 65
_symmetry_cell_setting 'orthorhombic'
loop_
_space_group_symop_operation_xyz
x,y,z
-x,-y,z
x,-y,-z
-x,y,-z
-x,-y,-z
x,y,-z
-x,y,z
x,-y,z
1/2+x,1/2+y,z
1/2-x,1/2-y,z
1/2+x,1/2-y,-z
1/2-x,1/2+y,-z
1/2-x,1/2-y,-z
1/2+x,1/2+y,-z
1/2-x,1/2+y,z
1/2+x,1/2-y,z
loop_
_atom_site_type_symbol
_atom_site_label
_atom_site_fract_x
_atom_site_fract_y
_atom_site_fract_z
Si Si1 0.297527 0.440846 0.832855
Si Si2 0.805362 0.745635 0.670942
Si Si3 0.636298 0.853587 0.670964
Si Si4 0.054279 0.000000 0.325846
Si Si5 0.944954 0.297870 0.829537
Si Si6 0.312378 0.058251 0.170372
Si Si7 0.112873 0.801817 0.171371
Si Si8 0.113437 0.097396 0.673599
O O1 0.308053 0.500000 0.813108
O O2 0.242710 0.428590 0.789616
O O3 0.331324 0.409774 0.723118
O O4 0.307970 0.424247 0.000000
O O5 0.812286 0.758379 0.500000
O O6 0.750000 0.750000 0.719275
O O7 0.823917 0.689158 0.708238
O O8 0.835162 0.786590 0.763617
O O9 0.628543 0.859947 0.500000
O O10 0.585040 0.839292 0.740290
O O11 0.652663 0.907125 0.734950
O O12 0.081551 0.949806 0.269141
O O13 0.053910 0.000000 0.500000
O O14 0.000000 0.000000 0.262951
O O15 0.926034 0.241545 0.794743
O O16 0.000000 0.301175 0.777954
O O17 0.939040 0.310413 0.000000
O O18 0.323724 0.000000 0.209359
O O19 0.321756 0.068677 0.000000
O O20 0.092861 0.852001 0.251102
O O21 0.118924 0.812307 0.000000
O O22 0.111191 0.103222 0.500000
#
# Coordination Sequence:
#
# PCOD8270870 Si02
#       8
#    16  16  16   8  16  16  16  16
#     4   9  18  33  52  74 103 139 179 222 264 309
#     4   9  19  35  51  73 108 145 178 215 262 318
#     4  10  20  33  53  83 114 143 176 220 268 314
#     4   9  20  38  55  73  99 135 181 229 278 333
#     4   9  19  38  61  80 103 139 180 221 267 324
#     4   9  19  35  54  78 110 149 185 216 256 311
#     4  10  21  35  52  78 106 135 176 224 270 319
#     4  11  21  34  53  75 102 138 179 225 275 328
#
# _framework density 17.997152
#
# number of rings (size 3 to 8) (size 9 to 14) (size 15 to 20)
#    0.000    2.467    0.667    2.000    1.867    2.933 
#    0.000    1.333    0.000    3.200    0.000    2.800 
#    0.000    0.000    0.000    0.000    0.000    0.000 
#
# Total GULP energy -744165.843875 kJ/mol
# GULP energy per Si atom -12402.764065 kJ/mol
# Density = 1.795619 g / cm^3
# Si number density = 17.997152 Si / 1000 Ang^3
#
#
#
# Elastic Constant Matrix: (Units=GPa)
#
#
# Indices 1 2 3 4 5 6 
#
# 1 132.2425 61.6725 52.6912 0.0000 0.0000 0.0000
# 2 61.6725 104.4722 50.6302 0.0000 0.0000 0.0000
# 3 52.6912 50.6302 73.0559 0.0000 0.0000 0.0000
# 4 0.0000 0.0000 0.0000 33.1977 0.0000 0.0000
# 5 0.0000 0.0000 0.0000 0.0000 25.4892 0.0000
# 6 0.0000 0.0000 0.0000 0.0000 0.0000 20.2137
#
#
#
# Elastic Compliance Matrix: (Units=1/GPa)
#
#
# Indices 1 2 3 4 5 6 
#
# 1 0.011748 -0.004259 -0.005521 0.000000 0.000000 0.000000
# 2 -0.004259 0.015957 -0.007987 0.000000 0.000000 0.000000
# 3 -0.005521 -0.007987 0.023205 0.000000 0.000000 0.000000
# 4 0.000000 0.000000 0.000000 0.030123 0.000000 0.000000
# 5 0.000000 0.000000 0.000000 0.000000 0.039232 0.000000
# 6 0.000000 0.000000 0.000000 0.000000 0.000000 0.049471
#
#
# Mechanical properties :
#
#
# Convention : Reuss Voigt Hill
#
# Bulk Modulus (GPa) = 65.03773 71.08425 68.06099
# Shear Modulus (GPa) = 23.76460 25.43191 24.59825
#
# Velocity S-wave (km/s) = 3.63776 3.76321 3.70102
# Velocity P-wave (km/s) = 7.33898 7.64628 7.49421
#
# Compressibility (1/GPa) = 0.01537569
#
# Stress axis : x y z
#
# Youngs Moduli (GPa) = 85.11878 62.66885 43.09338
#
# Poissons Ratio (x) = 0.26694 0.23794
# Poissons Ratio (y) = 0.36256 0.34417
# Poissons Ratio (z) = 0.46998 0.50051
#
# Static dielectric constant tensor:
#      x y z
#    x 3.282700 0.000000 0.000000 
#    y 0.000000 3.300240 0.000000 
#    z 0.000000 0.000000 3.230790 
# 
# 
# High freq. dielectric constant tensor:
#      x y z
#    x 1.686070 0.000000 0.000000 
#    y 0.000000 1.695580 0.000000 
#    z 0.000000 0.000000 1.693690 
# 
# From -- ./inp_files/17047.got.cif
#   From: 2010.03.12/outbox.cif.g09.slc.cpg/sg65_9_cif.got.tgz:17047.got - 2010.04.10 20:52:16.
