data_PCOD8270355
_publ_section_title
;
Structure prediction by ZEFSAII (Michael W. Deem and Ramdas Pophale) SiO2 
 PCOD8270355
Probable space group: C M M M
;
_chemical_formula_sum "Si O2"
_cell_formula_units_Z 80
_cell_length_a 9.700102
_cell_length_b 18.309469
_cell_length_c 25.704266
_cell_angle_alpha 90.000000
_cell_angle_beta 90.000000
_cell_angle_gamma 90.000000
_cell_volume 4565.173181
_symmetry_space_group_name_H-M "C M M M"
_symmetry_group_IT_number 65
_symmetry_cell_setting 'orthorhombic'
loop_
_space_group_symop_operation_xyz
x,y,z
-x,-y,z
x,-y,-z
-x,y,-z
-x,-y,-z
x,y,-z
-x,y,z
x,-y,z
1/2+x,1/2+y,z
1/2-x,1/2-y,z
1/2+x,1/2-y,-z
1/2-x,1/2+y,-z
1/2-x,1/2-y,-z
1/2+x,1/2+y,-z
1/2-x,1/2+y,z
1/2+x,1/2-y,z
loop_
_atom_site_type_symbol
_atom_site_label
_atom_site_fract_x
_atom_site_fract_y
_atom_site_fract_z
Si Si1 0.662105 0.822790 0.251347
Si Si2 0.658565 0.084220 0.149927
Si Si3 0.654948 0.413213 0.057388
Si Si4 0.162667 0.419076 0.347427
Si Si5 0.340632 0.180350 0.440937
O O1 0.500000 0.804001 0.255769
O O2 0.750000 0.750000 0.247637
O O3 0.694997 0.871017 0.201130
O O4 0.716836 0.867822 0.301111
O O5 0.500000 0.092221 0.134379
O O6 0.744581 0.117902 0.101803
O O7 0.697012 0.000000 0.160954
O O8 0.500000 0.386869 0.069846
O O9 0.662469 0.500000 0.057383
O O10 0.699870 0.384560 0.000000
O O11 0.229078 0.500000 0.343460
O O12 0.204057 0.385225 0.403122
O O13 0.000000 0.426050 0.342057
O O14 0.313314 0.154438 0.500000
O O15 0.500000 0.201890 0.432428
O O16 0.250000 0.250000 0.426407
#
# Coordination Sequence:
#
# PCOD8270355 Si02
#       5
#    16  16  16  16  16
#     4  10  20  33  49  68  91 121 155 190 231 279
#     4   9  17  29  46  68  92 118 151 190 228 268
#     4   8  14  25  42  66  95 123 149 180 223 273
#     4   9  17  30  49  71  94 121 155 196 237 274
#     4   9  17  29  47  71  97 126 159 193 230 274
#
# _framework density 17.523979000000001
#
# number of rings (size 3 to 8) (size 9 to 14) (size 15 to 20)
#    0.000    3.000    0.000    1.800    0.000    4.000 
#    0.000    4.000    0.000    4.200    0.000    2.800 
#    0.000    0.000    0.000    0.000    0.000    0.000 
#
# Total GULP energy -495883.000051 kJ/mol
# GULP energy per Si atom -12397.075001 kJ/mol
# Density = 1.748409 g / cm^3
# Si number density = 17.523979 Si / 1000 Ang^3
#
#
#
# Elastic Constant Matrix: (Units=GPa)
#
#
# Indices 1 2 3 4 5 6 
#
# 1 54.5262 47.2785 59.4632 0.0000 0.0000 0.0000
# 2 47.2785 100.1236 68.9841 0.0000 0.0000 0.0000
# 3 59.4632 68.9841 148.0190 0.0000 0.0000 0.0000
# 4 0.0000 0.0000 0.0000 8.5031 0.0000 0.0000
# 5 0.0000 0.0000 0.0000 0.0000 22.0282 0.0000
# 6 0.0000 0.0000 0.0000 0.0000 0.0000 22.7883
#
#
#
# Elastic Compliance Matrix: (Units=1/GPa)
#
#
# Indices 1 2 3 4 5 6 
#
# 1 0.039990 -0.011511 -0.010700 0.000000 0.000000 0.000000
# 2 -0.011511 0.018025 -0.003776 0.000000 0.000000 0.000000
# 3 -0.010700 -0.003776 0.012814 0.000000 0.000000 0.000000
# 4 0.000000 0.000000 0.000000 0.117605 0.000000 0.000000
# 5 0.000000 0.000000 0.000000 0.000000 0.045396 0.000000
# 6 0.000000 0.000000 0.000000 0.000000 0.000000 0.043882
#
#
# Mechanical properties :
#
#
# Convention : Reuss Voigt Hill
#
# Bulk Modulus (GPa) = 53.03854 72.68006 62.85930
# Shear Modulus (GPa) = 14.88219 19.12678 17.00449
#
# Velocity S-wave (km/s) = 2.91735 3.30731 3.11843
# Velocity P-wave (km/s) = 6.45599 7.49327 6.99389
#
# Compressibility (1/GPa) = 0.01885421
#
# Stress axis : x y z
#
# Youngs Moduli (GPa) = 25.00638 55.47889 78.03681
#
# Poissons Ratio (x) = 0.63861 0.83503
# Poissons Ratio (y) = 0.28784 0.29469
# Poissons Ratio (z) = 0.26758 0.20950
#
# Static dielectric constant tensor:
#      x y z
#    x 3.125530 0.000000 0.000000 
#    y 0.000000 3.113440 0.000000 
#    z 0.000000 0.000000 3.578230 
# 
# 
# High freq. dielectric constant tensor:
#      x y z
#    x 1.652210 0.000000 0.000000 
#    y 0.000000 1.653250 0.000000 
#    z 0.000000 0.000000 1.695880 
# 
# From -- ./inp_files/68823.got.cif
#   From: 2010.03.12/outbox.cif.g09.slc.cpg/sg65_35_cif.got.tgz:68823.got - 2010.04.10 20:52:16.
