data_PCOD8270919
_publ_section_title
;
Structure prediction by ZEFSAII (Michael W. Deem and Ramdas Pophale) SiO2 
 PCOD8270919
Probable space group: C M M M
;
_chemical_formula_sum "Si O2"
_cell_formula_units_Z 96
_cell_length_a 9.336803
_cell_length_b 31.481578
_cell_length_c 18.801935
_cell_angle_alpha 90.000000
_cell_angle_beta 90.000000
_cell_angle_gamma 90.000000
_cell_volume 5526.589857
_symmetry_space_group_name_H-M "C M M M"
_symmetry_group_IT_number 65
_symmetry_cell_setting 'orthorhombic'
loop_
_space_group_symop_operation_xyz
x,y,z
-x,-y,z
x,-y,-z
-x,y,-z
-x,-y,-z
x,y,-z
-x,y,z
x,-y,z
1/2+x,1/2+y,z
1/2-x,1/2-y,z
1/2+x,1/2-y,-z
1/2-x,1/2+y,-z
1/2-x,1/2-y,-z
1/2+x,1/2+y,-z
1/2-x,1/2+y,z
1/2+x,1/2-y,z
loop_
_atom_site_type_symbol
_atom_site_label
_atom_site_fract_x
_atom_site_fract_y
_atom_site_fract_z
Si Si1 0.334789 0.044631 0.916241
Si Si2 0.666683 0.136681 0.915704
Si Si3 0.161534 0.453351 0.415494
Si Si4 0.334017 0.291627 0.668461
Si Si5 0.332713 0.373016 0.582409
Si Si6 0.832838 0.208018 0.833750
O O1 0.500000 0.043654 0.895706
O O2 0.275728 0.090046 0.888830
O O3 0.264387 0.000000 0.886034
O O4 0.315585 0.044477 0.000000
O O5 0.500000 0.143647 0.894615
O O6 0.769633 0.169381 0.877616
O O7 0.684021 0.141506 0.000000
O O8 0.168049 0.452850 0.500000
O O9 0.214924 0.500000 0.388645
O O10 0.259210 0.415351 0.385384
O O11 0.000000 0.445600 0.388948
O O12 0.500000 0.283473 0.652219
O O13 0.250000 0.250000 0.642536
O O14 0.275750 0.331996 0.624708
O O15 0.305820 0.300935 0.750967
O O16 0.293552 0.366305 0.500000
O O17 0.500000 0.379247 0.594341
O O18 0.750000 0.250000 0.858578
O O19 0.000000 0.213574 0.851176
#
# Coordination Sequence:
#
# PCOD8270919 Si02
#       6
#    16  16  16  16  16  16
#     4   7  10  19  38  64  91 116 141 171 209 252
#     4   9  17  29  47  72  97 118 146 186 226 262
#     4   8  14  25  41  63  92 122 150 182 221 264
#     4   9  19  34  49  66  88 116 150 185 223 269
#     4   9  17  29  46  69  94 117 146 186 227 267
#     4  10  20  34  50  65  86 118 153 186 222 269
#
# _framework density 17.370567999999999
#
# number of rings (size 3 to 8) (size 9 to 14) (size 15 to 20)
#    0.000    3.333    0.000    2.500    0.000    2.667 
#    0.000    1.667    0.000    1.500    0.000    7.000 
#    0.000    0.000    0.000    0.000    0.000    0.000 
#
# Total GULP energy -594632.070060 kJ/mol
# GULP energy per Si atom -12388.168126 kJ/mol
# Density = 1.733103 g / cm^3
# Si number density = 17.370568 Si / 1000 Ang^3
#
#
#
# Elastic Constant Matrix: (Units=GPa)
#
#
# Indices 1 2 3 4 5 6 
#
# 1 67.2292 75.8327 27.7622 0.0000 0.0000 0.0000
# 2 75.8327 210.6354 52.1983 0.0000 0.0000 0.0000
# 3 27.7622 52.1983 31.7289 0.0000 0.0000 0.0000
# 4 0.0000 0.0000 0.0000 -5.6876 0.0000 0.0000
# 5 0.0000 0.0000 0.0000 0.0000 16.5053 0.0000
# 6 0.0000 0.0000 0.0000 0.0000 0.0000 31.5690
#
#
#
# Elastic Compliance Matrix: (Units=1/GPa)
#
#
# Indices 1 2 3 4 5 6 
#
# 1 0.028053 -0.006782 -0.013389 0.000000 0.000000 0.000000
# 2 -0.006782 0.009655 -0.009949 0.000000 0.000000 0.000000
# 3 -0.013389 -0.009949 0.059600 0.000000 0.000000 0.000000
# 4 0.000000 0.000000 0.000000 -0.175820 0.000000 0.000000
# 5 0.000000 0.000000 0.000000 0.000000 0.060587 0.000000
# 6 0.000000 0.000000 0.000000 0.000000 0.000000 0.031677
#
#
# Mechanical properties :
#
#
# Convention : Reuss Voigt Hill
#
# Bulk Modulus (GPa) = 26.97770 69.01997 47.99884
# Shear Modulus (GPa) = 57.90559 18.73069 38.31814
#
# Velocity S-wave (km/s) = 5.77995 3.28731 4.70182
# Velocity P-wave (km/s) = 7.75295 7.36401 7.56098
#
# Compressibility (1/GPa) = 0.03706765
#
# Stress axis : x y z
#
# Youngs Moduli (GPa) = 35.64690 103.57732 16.77840
#
# Poissons Ratio (x) = 0.70242 0.22465
# Poissons Ratio (y) = 0.24174 0.16694
# Poissons Ratio (z) = 0.47728 1.03053
#
# Static dielectric constant tensor:
#      x y z
#    x 3.070030 0.000000 0.000000 
#    y 0.000000 3.836510 0.000000 
#    z 0.000000 0.000000 2.849610 
# 
# 
# High freq. dielectric constant tensor:
#      x y z
#    x 1.647910 0.000000 0.000000 
#    y 0.000000 1.698050 0.000000 
#    z 0.000000 0.000000 1.625280 
# 
# From -- ./inp_files/51859.got.cif
#   From: 2010.03.12/outbox.cif.g09.slc.cpg/sg65_26_cif.got.tgz:51859.got - 2010.04.10 20:52:16.
