data_PCOD8270079
_publ_section_title
;
Structure prediction by ZEFSAII (Michael W. Deem and Ramdas Pophale) SiO2 
 PCOD8270079
Probable space group: C M M M
;
_chemical_formula_sum "Si O2"
_cell_formula_units_Z 80
_cell_length_a 17.526301
_cell_length_b 27.829337
_cell_length_c 9.084780
_cell_angle_alpha 90.000000
_cell_angle_beta 90.000000
_cell_angle_gamma 90.000000
_cell_volume 4431.059082
_symmetry_space_group_name_H-M "C M M M"
_symmetry_group_IT_number 65
_symmetry_cell_setting 'orthorhombic'
loop_
_space_group_symop_operation_xyz
x,y,z
-x,-y,z
x,-y,-z
-x,y,-z
-x,-y,-z
x,y,-z
-x,y,z
x,-y,z
1/2+x,1/2+y,z
1/2-x,1/2-y,z
1/2+x,1/2-y,-z
1/2-x,1/2+y,-z
1/2-x,1/2-y,-z
1/2+x,1/2+y,-z
1/2-x,1/2+y,z
1/2+x,1/2-y,z
loop_
_atom_site_type_symbol
_atom_site_label
_atom_site_fract_x
_atom_site_fract_y
_atom_site_fract_z
Si Si1 0.088720 0.786946 0.327641
Si Si2 0.693695 0.354225 0.167962
Si Si3 0.645424 0.806433 0.829987
Si Si4 0.717249 0.054061 0.170234
Si Si5 0.913729 0.396556 0.331012
O O1 0.102131 0.780735 0.500000
O O2 0.125616 0.836991 0.273389
O O3 0.131447 0.744585 0.243568
O O4 0.000000 0.787255 0.287034
O O5 0.766156 0.319571 0.188718
O O6 0.716457 0.408544 0.215652
O O7 0.664857 0.353002 0.000000
O O8 0.593094 0.846054 0.752357
O O9 0.621835 0.803690 0.000000
O O10 0.640844 0.062972 0.262956
O O11 0.746672 0.000000 0.198866
O O12 0.695778 0.062899 0.000000
O O13 0.890973 0.388045 0.500000
O O14 0.000000 0.415446 0.316063
#
# Coordination Sequence:
#
# PCOD8270079 Si02
#       5
#    16  16  16  16  16
#     4  11  23  35  49  74 106 136 167 204 247 297
#     4   9  19  35  54  76 100 128 166 208 248 296
#     4  10  20  34  53  76 102 135 174 209 243 290
#     4   9  19  36  56  76  98 127 166 212 258 302
#     4  10  20  32  47  72 107 141 172 207 245 289
#
# _framework density 18.054373999999999
#
# number of rings (size 3 to 8) (size 9 to 14) (size 15 to 20)
#    0.000    2.200    0.000    4.200    0.000   12.800 
#    0.000    2.000    0.000    0.600    0.000    4.200 
#    0.000    0.000    0.000    0.000    0.000    0.000 
#
# Total GULP energy -496102.760840 kJ/mol
# GULP energy per Si atom -12402.569021 kJ/mol
# Density = 1.801328 g / cm^3
# Si number density = 18.054374 Si / 1000 Ang^3
#
#
#
# Elastic Constant Matrix: (Units=GPa)
#
#
# Indices 1 2 3 4 5 6 
#
# 1 52.2533 45.7006 38.3147 0.0000 0.0000 0.0000
# 2 45.7006 128.4885 48.7376 0.0000 0.0000 0.0000
# 3 38.3147 48.7376 94.1696 0.0000 0.0000 0.0000
# 4 0.0000 0.0000 0.0000 16.4503 0.0000 0.0000
# 5 0.0000 0.0000 0.0000 0.0000 28.9366 0.0000
# 6 0.0000 0.0000 0.0000 0.0000 0.0000 13.3305
#
#
#
# Elastic Compliance Matrix: (Units=1/GPa)
#
#
# Indices 1 2 3 4 5 6 
#
# 1 0.033131 -0.008300 -0.009184 0.000000 0.000000 0.000000
# 2 -0.008300 0.011763 -0.002711 0.000000 0.000000 0.000000
# 3 -0.009184 -0.002711 0.015759 0.000000 0.000000 0.000000
# 4 0.000000 0.000000 0.000000 0.060789 0.000000 0.000000
# 5 0.000000 0.000000 0.000000 0.000000 0.034558 0.000000
# 6 0.000000 0.000000 0.000000 0.000000 0.000000 0.075016
#
#
# Mechanical properties :
#
#
# Convention : Reuss Voigt Hill
#
# Bulk Modulus (GPa) = 49.35224 60.04636 54.69930
# Shear Modulus (GPa) = 17.97509 21.22071 19.59790
#
# Velocity S-wave (km/s) = 3.15875 3.43210 3.29826
# Velocity P-wave (km/s) = 6.37952 7.00261 6.69831
#
# Compressibility (1/GPa) = 0.02026250
#
# Stress axis : x y z
#
# Youngs Moduli (GPa) = 30.18288 85.00946 63.45585
#
# Poissons Ratio (x) = 0.70561 0.58279
# Poissons Ratio (y) = 0.25053 0.17203
# Poissons Ratio (z) = 0.27721 0.23046
#
# Static dielectric constant tensor:
#      x y z
#    x 3.160610 0.000000 0.000000 
#    y 0.000000 3.355120 0.000000 
#    z 0.000000 0.000000 3.425940 
# 
# 
# High freq. dielectric constant tensor:
#      x y z
#    x 1.679330 0.000000 0.000000 
#    y 0.000000 1.693750 0.000000 
#    z 0.000000 0.000000 1.708710 
# 
# From -- ./inp_files/9574.got.cif
#   From: 2010.03.12/outbox.cif.g09.slc.cpg/sg65_5_cif.got.tgz:9574.got - 2010.04.10 20:52:16.
