data_PCOD8270161
_publ_section_title
;
Structure prediction by ZEFSAII (Michael W. Deem and Ramdas Pophale) SiO2 
 PCOD8270161
Probable space group: C M M M
;
_chemical_formula_sum "Si O2"
_cell_formula_units_Z 120
_cell_length_a 8.924877
_cell_length_b 27.814846
_cell_length_c 25.735297
_cell_angle_alpha 90.000000
_cell_angle_beta 90.000000
_cell_angle_gamma 90.000000
_cell_volume 6388.635110
_symmetry_space_group_name_H-M "C M M M"
_symmetry_group_IT_number 65
_symmetry_cell_setting 'orthorhombic'
loop_
_space_group_symop_operation_xyz
x,y,z
-x,-y,z
x,-y,-z
-x,y,-z
-x,-y,-z
x,y,-z
-x,y,z
x,-y,z
1/2+x,1/2+y,z
1/2-x,1/2-y,z
1/2+x,1/2-y,-z
1/2-x,1/2+y,-z
1/2-x,1/2-y,-z
1/2+x,1/2+y,-z
1/2-x,1/2+y,z
1/2+x,1/2-y,z
loop_
_atom_site_type_symbol
_atom_site_label
_atom_site_fract_x
_atom_site_fract_y
_atom_site_fract_z
Si Si1 0.334930 0.203004 0.278532
Si Si2 0.673205 0.700521 0.439323
Si Si3 0.176454 0.869707 0.208195
Si Si4 0.336122 0.128950 0.631324
Si Si5 0.821862 0.444067 0.716702
Si Si6 0.322698 0.801534 0.000000
Si Si7 0.835652 0.052648 0.061061
Si Si8 0.327069 0.862326 0.900377
O O1 0.500000 0.213701 0.254172
O O2 0.250000 0.250000 0.297332
O O3 0.226221 0.177565 0.238113
O O4 0.358417 0.171149 0.328354
O O5 0.704344 0.694027 0.500000
O O6 0.500000 0.705947 0.425738
O O7 0.750000 0.750000 0.419357
O O8 0.730365 0.650644 0.413387
O O9 0.251085 0.917736 0.232958
O O10 0.225647 0.856961 0.150067
O O11 0.000000 0.876952 0.211137
O O12 0.500000 0.115797 0.607566
O O13 0.269754 0.082355 0.662705
O O14 0.772006 0.500000 0.715178
O O15 0.000000 0.438702 0.721943
O O16 0.250000 0.750000 0.000000
O O17 0.269573 0.828399 0.947445
O O18 0.500000 0.797451 0.000000
O O19 0.696505 0.083285 0.081150
O O20 0.000000 0.073710 0.077430
O O21 0.817623 0.000000 0.085973
O O22 0.826624 0.048962 0.000000
O O23 0.500000 0.852990 0.886826
#
# Coordination Sequence:
#
# PCOD8270161 Si02
#       8
#    16  16  16  16  16   8  16  16
#     4  10  20  35  54  78 107 139 175 219 268 322
#     4  10  20  32  48  74 110 151 192 233 278 327
#     4  11  23  37  55  81 109 141 177 217 268 322
#     4   9  18  32  53  80 107 139 180 225 273 325
#     4   9  19  38  61  83 109 142 181 227 278 330
#     4  10  24  42  61  82 103 135 178 219 259 310
#     4   9  18  33  54  80 106 131 161 199 246 302
#     4  11  22  39  58  80 108 138 175 218 262 315
#
# _framework density 18.783353999999999
#
# number of rings (size 3 to 8) (size 9 to 14) (size 15 to 20)
#    0.000    2.133    0.667    4.000    0.000    7.200 
#    0.000    2.000    0.000    0.400    0.000    2.800 
#    0.000    0.000    0.000    0.000    0.000    0.000 
#
# Total GULP energy -743537.346296 kJ/mol
# GULP energy per Si atom -12392.289105 kJ/mol
# Density = 1.874060 g / cm^3
# Si number density = 18.783354 Si / 1000 Ang^3
#
#
#
# Elastic Constant Matrix: (Units=GPa)
#
#
# Indices 1 2 3 4 5 6 
#
# 1 83.3829 31.6437 38.4392 0.0000 0.0000 0.0000
# 2 31.6437 83.6327 31.9160 0.0000 0.0000 0.0000
# 3 38.4392 31.9160 77.8260 0.0000 0.0000 0.0000
# 4 0.0000 0.0000 0.0000 2.4590 0.0000 0.0000
# 5 0.0000 0.0000 0.0000 0.0000 29.1323 0.0000
# 6 0.0000 0.0000 0.0000 0.0000 0.0000 39.0995
#
#
#
# Elastic Compliance Matrix: (Units=1/GPa)
#
#
# Indices 1 2 3 4 5 6 
#
# 1 0.016441 -0.003701 -0.006603 0.000000 0.000000 0.000000
# 2 -0.003701 0.015009 -0.004327 0.000000 0.000000 0.000000
# 3 -0.006603 -0.004327 0.017885 0.000000 0.000000 0.000000
# 4 0.000000 0.000000 0.000000 0.406662 0.000000 0.000000
# 5 0.000000 0.000000 0.000000 0.000000 0.034326 0.000000
# 6 0.000000 0.000000 0.000000 0.000000 0.000000 0.025576
#
#
# Mechanical properties :
#
#
# Convention : Reuss Voigt Hill
#
# Bulk Modulus (GPa) = 49.81769 49.87103 49.84436
# Shear Modulus (GPa) = 9.06040 23.66101 16.36071
#
# Velocity S-wave (km/s) = 2.19866 3.55305 2.95451
# Velocity P-wave (km/s) = 5.74677 6.59094 6.18328
#
# Compressibility (1/GPa) = 0.02007319
#
# Stress axis : x y z
#
# Youngs Moduli (GPa) = 60.82261 66.62823 55.91336
#
# Poissons Ratio (x) = 0.24659 0.36918
# Poissons Ratio (y) = 0.22511 0.24194
# Poissons Ratio (z) = 0.40160 0.28830
#
# Static dielectric constant tensor:
#      x y z
#    x 3.554810 0.000000 0.000000 
#    y 0.000000 1.839930 0.000000 
#    z 0.000000 0.000000 3.686560 
# 
# 
# High freq. dielectric constant tensor:
#      x y z
#    x 1.731820 0.000000 0.000000 
#    y 0.000000 1.722020 0.000000 
#    z 0.000000 0.000000 1.718850 
# 
# From -- ./inp_files/73891.got.cif
#   From: 2010.03.12/outbox.cif.g09.slc.cpg/sg65_37_cif.got.tgz:73891.got - 2010.04.10 20:52:16.
