data_PCOD8270012
_publ_section_title
;
Structure prediction by ZEFSAII (Michael W. Deem and Ramdas Pophale) SiO2 
 PCOD8270012
Probable space group: C M M M
;
_chemical_formula_sum "Si O2"
_cell_formula_units_Z 88
_cell_length_a 9.363733
_cell_length_b 26.781245
_cell_length_c 21.319817
_cell_angle_alpha 90.000000
_cell_angle_beta 90.000000
_cell_angle_gamma 90.000000
_cell_volume 5346.422265
_symmetry_space_group_name_H-M "C M M M"
_symmetry_group_IT_number 65
_symmetry_cell_setting 'orthorhombic'
loop_
_space_group_symop_operation_xyz
x,y,z
-x,-y,z
x,-y,-z
-x,y,-z
-x,-y,-z
x,y,-z
-x,y,z
x,-y,z
1/2+x,1/2+y,z
1/2-x,1/2-y,z
1/2+x,1/2-y,-z
1/2-x,1/2+y,-z
1/2-x,1/2-y,-z
1/2+x,1/2+y,-z
1/2-x,1/2+y,z
1/2+x,1/2-y,z
loop_
_atom_site_type_symbol
_atom_site_label
_atom_site_fract_x
_atom_site_fract_y
_atom_site_fract_z
Si Si1 0.830807 0.556186 0.000000
Si Si2 0.834641 0.700933 0.429337
Si Si3 0.333635 0.136994 0.313024
Si Si4 0.832812 0.400200 0.869430
Si Si5 0.335845 0.442469 0.755713
Si Si6 0.336632 0.200927 0.194363
O O1 0.777744 0.586000 0.061228
O O2 0.767454 0.500000 0.000000
O O3 0.000000 0.553642 0.000000
O O4 0.795016 0.683936 0.500000
O O5 0.750000 0.750000 0.409310
O O6 0.794988 0.656097 0.382496
O O7 0.000000 0.714772 0.423236
O O8 0.500000 0.122477 0.306273
O O9 0.238631 0.088383 0.300194
O O10 0.294405 0.179982 0.262842
O O11 0.744717 0.433663 0.821031
O O12 0.804328 0.341607 0.857456
O O13 0.000000 0.412729 0.860030
O O14 0.500000 0.425514 0.762750
O O15 0.324531 0.500000 0.736807
O O16 0.500000 0.217113 0.193197
O O17 0.250000 0.250000 0.176938
#
# Coordination Sequence:
#
# PCOD8270012 Si02
#       6
#     8  16  16  16  16  16
#     4   9  16  28  50  73  89 113 151 191 228 269
#     4   9  17  29  46  70  99 127 155 188 227 273
#     4   9  18  31  47  68  92 121 156 190 225 267
#     4   9  18  32  49  70  93 118 152 189 225 270
#     4  10  20  32  47  69  94 118 148 189 235 278
#     4   9  17  28  43  64  90 119 150 184 220 260
#
# _framework density 16.459605
#
# number of rings (size 3 to 8) (size 9 to 14) (size 15 to 20)
#    0.000    2.818    0.000    2.727    0.000    5.818 
#    0.000    0.909    0.000    2.182    0.000    3.818 
#    0.000    0.000    0.000    0.000    0.000    0.000 
#
# Total GULP energy -545581.249434 kJ/mol
# GULP energy per Si atom -12399.573851 kJ/mol
# Density = 1.642214 g / cm^3
# Si number density = 16.459605 Si / 1000 Ang^3
#
#
#
# Elastic Constant Matrix: (Units=GPa)
#
#
# Indices 1 2 3 4 5 6 
#
# 1 68.4266 54.5602 43.4950 0.0000 0.0000 0.0000
# 2 54.5602 108.8927 61.3567 0.0000 0.0000 0.0000
# 3 43.4950 61.3567 119.7373 0.0000 0.0000 0.0000
# 4 0.0000 0.0000 0.0000 21.8391 0.0000 0.0000
# 5 0.0000 0.0000 0.0000 0.0000 13.7676 0.0000
# 6 0.0000 0.0000 0.0000 0.0000 0.0000 30.9898
#
#
#
# Elastic Compliance Matrix: (Units=1/GPa)
#
#
# Indices 1 2 3 4 5 6 
#
# 1 0.025523 -0.010635 -0.003822 0.000000 0.000000 0.000000
# 2 -0.010635 0.017343 -0.005024 0.000000 0.000000 0.000000
# 3 -0.003822 -0.005024 0.012314 0.000000 0.000000 0.000000
# 4 0.000000 0.000000 0.000000 0.045789 0.000000 0.000000
# 5 0.000000 0.000000 0.000000 0.000000 0.072634 0.000000
# 6 0.000000 0.000000 0.000000 0.000000 0.000000 0.032269
#
#
# Mechanical properties :
#
#
# Convention : Reuss Voigt Hill
#
# Bulk Modulus (GPa) = 61.65494 68.43114 65.04304
# Shear Modulus (GPa) = 19.98086 22.49562 21.23824
#
# Velocity S-wave (km/s) = 3.48793 3.70092 3.59601
# Velocity P-wave (km/s) = 7.33216 7.74131 7.53951
#
# Compressibility (1/GPa) = 0.01621930
#
# Stress axis : x y z
#
# Youngs Moduli (GPa) = 39.17996 57.66173 81.20734
#
# Poissons Ratio (x) = 0.61322 0.31036
# Poissons Ratio (y) = 0.41667 0.40796
# Poissons Ratio (z) = 0.14974 0.28967
#
# Static dielectric constant tensor:
#      x y z
#    x 3.049400 0.000000 0.000000 
#    y 0.000000 2.997630 0.000000 
#    z 0.000000 0.000000 3.228280 
# 
# 
# High freq. dielectric constant tensor:
#      x y z
#    x 1.626550 0.000000 0.000000 
#    y 0.000000 1.625020 0.000000 
#    z 0.000000 0.000000 1.627010 
# 
# From -- ./inp_files/60222.got.cif
#   From: 2010.03.12/outbox.cif.g09.slc.cpg/sg65_31_cif.got.tgz:60222.got - 2010.04.10 20:52:16.
