data_PCOD8270134
_publ_section_title
;
Structure prediction by ZEFSAII (Michael W. Deem and Ramdas Pophale) SiO2 
 PCOD8270134
Probable space group: C M M M
;
_chemical_formula_sum "Si O2"
_cell_formula_units_Z 104
_cell_length_a 29.167960
_cell_length_b 8.941887
_cell_length_c 20.355949
_cell_angle_alpha 90.000000
_cell_angle_beta 90.000000
_cell_angle_gamma 90.000000
_cell_volume 5309.169456
_symmetry_space_group_name_H-M "C M M M"
_symmetry_group_IT_number 65
_symmetry_cell_setting 'orthorhombic'
loop_
_space_group_symop_operation_xyz
x,y,z
-x,-y,z
x,-y,-z
-x,y,-z
-x,-y,-z
x,y,-z
-x,y,z
x,-y,z
1/2+x,1/2+y,z
1/2-x,1/2-y,z
1/2+x,1/2-y,-z
1/2-x,1/2+y,-z
1/2-x,1/2-y,-z
1/2+x,1/2+y,-z
1/2-x,1/2+y,z
1/2+x,1/2-y,z
loop_
_atom_site_type_symbol
_atom_site_label
_atom_site_fract_x
_atom_site_fract_y
_atom_site_fract_z
Si Si1 0.356385 0.825467 0.427213
Si Si2 0.203091 0.175380 0.829423
Si Si3 0.947028 0.322663 0.000000
Si Si4 0.548991 0.175877 0.622235
Si Si5 0.552916 0.828925 0.769370
Si Si6 0.605863 0.675263 0.119180
Si Si7 0.203474 0.175780 0.680273
O O1 0.337222 0.786567 0.500000
O O2 0.410370 0.783157 0.427449
O O3 0.334865 0.727269 0.370335
O O4 0.348765 0.000000 0.411274
O O5 0.250000 0.250000 0.855966
O O6 0.160009 0.218430 0.875835
O O7 0.192238 0.228577 0.754642
O O8 0.211544 0.000000 0.830273
O O9 0.919453 0.266721 0.937087
O O10 0.946865 0.500000 0.000000
O O11 0.000000 0.264538 0.000000
O O12 0.500000 0.243037 0.597368
O O13 0.559868 0.232619 0.695737
O O14 0.543368 0.000000 0.628358
O O15 0.500000 0.819555 0.791059
O O16 0.582585 0.716077 0.812382
O O17 0.570386 0.000000 0.777914
O O18 0.600280 0.500000 0.105098
O O19 0.250000 0.250000 0.655340
O O20 0.208745 0.000000 0.675991
#
# Coordination Sequence:
#
# PCOD8270134 Si02
#       7
#    16  16   8  16  16  16  16
#     4  10  20  32  48  73 103 136 177 221 265 317
#     4   9  20  37  58  85 111 136 172 218 265 316
#     4  11  25  43  60  81 112 151 192 221 246 295
#     4   8  15  29  49  73 101 134 174 220 266 312
#     4   9  17  30  50  76 104 136 176 218 262 317
#     4  11  22  36  56  83 113 142 175 217 265 311
#     4  10  20  36  57  79 105 136 171 215 267 319
#
# _framework density 19.588751999999999
#
# number of rings (size 3 to 8) (size 9 to 14) (size 15 to 20)
#    0.000    2.385    0.000    3.462    0.000    5.538 
#    0.000    1.923    0.000    1.385    0.000    1.077 
#    0.000    0.000    0.000    0.000    0.000    0.000 
#
# Total GULP energy -644564.346263 kJ/mol
# GULP energy per Si atom -12395.468197 kJ/mol
# Density = 1.954417 g / cm^3
# Si number density = 19.588752 Si / 1000 Ang^3
#
#
#
# Elastic Constant Matrix: (Units=GPa)
#
#
# Indices 1 2 3 4 5 6 
#
# 1 119.5163 40.1065 49.4931 0.0000 0.0000 0.0000
# 2 40.1065 52.3718 26.1680 0.0000 0.0000 0.0000
# 3 49.4931 26.1680 64.9095 0.0000 0.0000 0.0000
# 4 0.0000 0.0000 0.0000 16.5057 0.0000 0.0000
# 5 0.0000 0.0000 0.0000 0.0000 26.7700 0.0000
# 6 0.0000 0.0000 0.0000 0.0000 0.0000 24.7857
#
#
#
# Elastic Compliance Matrix: (Units=1/GPa)
#
#
# Indices 1 2 3 4 5 6 
#
# 1 0.013876 -0.006687 -0.007885 0.000000 0.000000 0.000000
# 2 -0.006687 0.027133 -0.005840 0.000000 0.000000 0.000000
# 3 -0.007885 -0.005840 0.023772 0.000000 0.000000 0.000000
# 4 0.000000 0.000000 0.000000 0.060585 0.000000 0.000000
# 5 0.000000 0.000000 0.000000 0.000000 0.037355 0.000000
# 6 0.000000 0.000000 0.000000 0.000000 0.000000 0.040346
#
#
# Mechanical properties :
#
#
# Convention : Reuss Voigt Hill
#
# Bulk Modulus (GPa) = 41.73842 52.03696 46.88769
# Shear Modulus (GPa) = 19.85098 21.68095 20.76597
#
# Velocity S-wave (km/s) = 3.18683 3.33048 3.25944
# Velocity P-wave (km/s) = 5.90718 6.43520 6.17684
#
# Compressibility (1/GPa) = 0.02395874
#
# Stress axis : x y z
#
# Youngs Moduli (GPa) = 72.06644 36.85557 42.06544
#
# Poissons Ratio (x) = 0.24644 0.33167
# Poissons Ratio (y) = 0.48189 0.24566
# Poissons Ratio (z) = 0.56822 0.21524
#
# Static dielectric constant tensor:
#      x y z
#    x 3.951120 0.000000 0.000000 
#    y 0.000000 3.318530 0.000000 
#    z 0.000000 0.000000 3.544720 
# 
# 
# High freq. dielectric constant tensor:
#      x y z
#    x 1.773430 0.000000 0.000000 
#    y 0.000000 1.739920 0.000000 
#    z 0.000000 0.000000 1.752620 
# 
# From -- ./inp_files/66343.got.cif
#   From: 2010.03.12/outbox.cif.g09.slc.cpg/sg65_34_cif.got.tgz:66343.got - 2010.04.10 20:52:16.
