data_PCOD8270445
_publ_section_title
;
Structure prediction by ZEFSAII (Michael W. Deem and Ramdas Pophale) SiO2 
 PCOD8270445
Probable space group: C M M M
;
_chemical_formula_sum "Si O2"
_cell_formula_units_Z 72
_cell_length_a 13.910050
_cell_length_b 28.871439
_cell_length_c 8.896581
_cell_angle_alpha 90.000000
_cell_angle_beta 90.000000
_cell_angle_gamma 90.000000
_cell_volume 3572.895043
_symmetry_space_group_name_H-M "C M M M"
_symmetry_group_IT_number 65
_symmetry_cell_setting 'orthorhombic'
loop_
_space_group_symop_operation_xyz
x,y,z
-x,-y,z
x,-y,-z
-x,y,-z
-x,-y,-z
x,y,-z
-x,y,z
x,-y,z
1/2+x,1/2+y,z
1/2-x,1/2-y,z
1/2+x,1/2-y,-z
1/2-x,1/2+y,-z
1/2-x,1/2-y,-z
1/2+x,1/2+y,-z
1/2-x,1/2+y,z
1/2+x,1/2-y,z
loop_
_atom_site_type_symbol
_atom_site_label
_atom_site_fract_x
_atom_site_fract_y
_atom_site_fract_z
Si Si1 0.105551 0.633105 0.178118
Si Si2 0.109494 0.000000 0.322068
Si Si3 0.298298 0.588945 0.176783
Si Si4 0.614132 0.675842 0.668290
Si Si5 0.113694 0.734474 0.832863
O O1 0.185917 0.595490 0.222434
O O2 0.137209 0.683952 0.239701
O O3 0.000000 0.618212 0.241387
O O4 0.098568 0.638403 0.000000
O O5 0.163606 0.955061 0.264232
O O6 0.111620 0.000000 0.500000
O O7 0.000000 0.000000 0.262519
O O8 0.357182 0.634072 0.223238
O O9 0.310786 0.580828 0.000000
O O10 0.654244 0.667657 0.500000
O O11 0.500000 0.678570 0.665030
O O12 0.657896 0.724088 0.732252
O O13 0.000000 0.739912 0.841236
O O14 0.157690 0.739148 0.000000
#
# Coordination Sequence:
#
# PCOD8270445 Si02
#       5
#    16   8  16  16  16
#     4   8  16  33  56  82 112 144 179 221 267 312
#     4  11  25  45  64  81 108 142 171 211 272 331
#     4  11  22  36  59  86 107 135 180 228 270 318
#     4  10  20  33  49  74 112 152 185 222 271 323
#     4   8  14  28  51  76 105 144 186 224 261 307
#
# _framework density 20.151724999999999
#
# number of rings (size 3 to 8) (size 9 to 14) (size 15 to 20)
#    0.000    2.556    0.000    3.667    0.000    5.778 
#    0.000    7.222    0.000    8.667    0.000    0.000 
#    0.000    0.000    0.000    0.000    0.000    0.000 
#
# Total GULP energy -446252.864666 kJ/mol
# GULP energy per Si atom -12395.912907 kJ/mol
# Density = 2.010586 g / cm^3
# Si number density = 20.151725 Si / 1000 Ang^3
#
#
#
# Elastic Constant Matrix: (Units=GPa)
#
#
# Indices 1 2 3 4 5 6 
#
# 1 90.6903 72.5705 32.0631 0.0000 0.0000 0.0000
# 2 72.5705 137.5958 32.2617 0.0000 0.0000 0.0000
# 3 32.0631 32.2617 61.5670 0.0000 0.0000 0.0000
# 4 0.0000 0.0000 0.0000 98.3629 0.0000 0.0000
# 5 0.0000 0.0000 0.0000 0.0000 14.2991 0.0000
# 6 0.0000 0.0000 0.0000 0.0000 0.0000 49.0540
#
#
#
# Elastic Compliance Matrix: (Units=1/GPa)
#
#
# Indices 1 2 3 4 5 6 
#
# 1 0.020737 -0.009582 -0.005778 0.000000 0.000000 0.000000
# 2 -0.009582 0.012714 -0.001672 0.000000 0.000000 0.000000
# 3 -0.005778 -0.001672 0.020128 0.000000 0.000000 0.000000
# 4 0.000000 0.000000 0.000000 0.010166 0.000000 0.000000
# 5 0.000000 0.000000 0.000000 0.000000 0.069934 0.000000
# 6 0.000000 0.000000 0.000000 0.000000 0.000000 0.020386
#
#
# Mechanical properties :
#
#
# Convention : Reuss Voigt Hill
#
# Bulk Modulus (GPa) = 51.24607 62.62705 56.93656
# Shear Modulus (GPa) = 25.68918 42.54040 34.11479
#
# Velocity S-wave (km/s) = 3.57429 4.59955 4.11895
# Velocity P-wave (km/s) = 6.52069 7.70409 7.13696
#
# Compressibility (1/GPa) = 0.01951369
#
# Stress axis : x y z
#
# Youngs Moduli (GPa) = 48.22230 78.65634 49.68275
#
# Poissons Ratio (x) = 0.75371 0.28709
# Poissons Ratio (y) = 0.46208 0.08305
# Poissons Ratio (z) = 0.27865 0.13149
#
# Static dielectric constant tensor:
#      x y z
#    x 3.880540 0.000000 0.000000 
#    y 0.000000 3.740110 0.000000 
#    z 0.000000 0.000000 3.666790 
# 
# 
# High freq. dielectric constant tensor:
#      x y z
#    x 1.794460 0.000000 0.000000 
#    y 0.000000 1.776680 0.000000 
#    z 0.000000 0.000000 1.764170 
# 
# From -- ./inp_files/7215.got.cif
#   From: 2010.03.12/outbox.cif.g09.slc.cpg/sg65_4_cif.got.tgz:7215.got - 2010.04.10 20:52:16.
