data_PCOD8270440
_publ_section_title
;
Structure prediction by ZEFSAII (Michael W. Deem and Ramdas Pophale) SiO2 
 PCOD8270440
Probable space group: C M M M
;
_chemical_formula_sum "Si O2"
_cell_formula_units_Z 88
_cell_length_a 8.746903
_cell_length_b 19.461557
_cell_length_c 28.107756
_cell_angle_alpha 90.000000
_cell_angle_beta 90.000000
_cell_angle_gamma 90.000000
_cell_volume 4784.736963
_symmetry_space_group_name_H-M "C M M M"
_symmetry_group_IT_number 65
_symmetry_cell_setting 'orthorhombic'
loop_
_space_group_symop_operation_xyz
x,y,z
-x,-y,z
x,-y,-z
-x,y,-z
-x,-y,-z
x,y,-z
-x,y,z
x,-y,z
1/2+x,1/2+y,z
1/2-x,1/2-y,z
1/2+x,1/2-y,-z
1/2-x,1/2+y,-z
1/2-x,1/2-y,-z
1/2+x,1/2+y,-z
1/2-x,1/2+y,z
1/2+x,1/2-y,z
loop_
_atom_site_type_symbol
_atom_site_label
_atom_site_fract_x
_atom_site_fract_y
_atom_site_fract_z
Si Si1 0.674775 0.420180 0.054542
Si Si2 0.820842 0.678076 0.872595
Si Si3 0.180037 0.822647 0.772416
Si Si4 0.328750 0.581923 0.601600
Si Si5 0.181913 0.075437 0.500000
Si Si6 0.675530 0.080634 0.303036
O O1 0.500000 0.401302 0.067026
O O2 0.704974 0.500000 0.063829
O O3 0.789573 0.378296 0.087440
O O4 0.710074 0.401440 0.000000
O O5 0.750000 0.750000 0.889625
O O6 0.747292 0.653923 0.823030
O O7 0.000000 0.687156 0.865125
O O8 0.250000 0.750000 0.756086
O O9 0.218710 0.880742 0.734369
O O10 0.000000 0.814491 0.777101
O O11 0.500000 0.608200 0.613315
O O12 0.329605 0.500000 0.597066
O O13 0.270867 0.612504 0.550087
O O14 0.217194 0.606119 0.643753
O O15 0.000000 0.068380 0.500000
O O16 0.257827 0.000000 0.500000
O O17 0.500000 0.098593 0.293055
O O18 0.708949 0.000000 0.297606
#
# Coordination Sequence:
#
# PCOD8270440 Si02
#       6
#    16  16  16  16   8  16
#     4   9  19  37  59  82 110 143 177 213 254 301
#     4  11  22  37  57  80 107 137 172 214 257 303
#     4  11  22  38  58  77 101 133 171 213 258 309
#     4   8  13  23  40  63  92 127 166 206 250 298
#     4   7  10  18  35  59  88 123 162 203 246 295
#     4  10  20  33  49  73 105 136 169 211 255 300
#
# _framework density 18.391815000000001
#
# number of rings (size 3 to 8) (size 9 to 14) (size 15 to 20)
#    0.000    2.455    0.000    6.545    0.000    2.909 
#    0.000    1.364    0.000    2.727    0.000    0.636 
#    0.000    0.000    0.000    0.000    0.000    0.000 
#
# Total GULP energy -545416.588030 kJ/mol
# GULP energy per Si atom -12395.831546 kJ/mol
# Density = 1.834995 g / cm^3
# Si number density = 18.391815 Si / 1000 Ang^3
#
#
#
# Elastic Constant Matrix: (Units=GPa)
#
#
# Indices 1 2 3 4 5 6 
#
# 1 120.9578 36.1247 54.2405 0.0000 0.0000 0.0000
# 2 36.1247 49.5755 55.2112 0.0000 0.0000 0.0000
# 3 54.2405 55.2112 127.8283 0.0000 0.0000 0.0000
# 4 0.0000 0.0000 0.0000 -5.8982 0.0000 0.0000
# 5 0.0000 0.0000 0.0000 0.0000 30.5261 0.0000
# 6 0.0000 0.0000 0.0000 0.0000 0.0000 24.1598
#
#
#
# Elastic Compliance Matrix: (Units=1/GPa)
#
#
# Indices 1 2 3 4 5 6 
#
# 1 0.010908 -0.005383 -0.002303 0.000000 0.000000 0.000000
# 2 -0.005383 0.041523 -0.015650 0.000000 0.000000 0.000000
# 3 -0.002303 -0.015650 0.015560 0.000000 0.000000 0.000000
# 4 0.000000 0.000000 0.000000 -0.169543 0.000000 0.000000
# 5 0.000000 0.000000 0.000000 0.000000 0.032759 0.000000
# 6 0.000000 0.000000 0.000000 0.000000 0.000000 0.041391
#
#
# Mechanical properties :
#
#
# Convention : Reuss Voigt Hill
#
# Bulk Modulus (GPa) = 46.91001 65.50160 56.20580
# Shear Modulus (GPa) = 189.54879 19.94322 104.74601
#
# Velocity S-wave (km/s) = 10.16293 3.29652 7.55488
# Velocity P-wave (km/s) = 12.77791 7.08387 10.33093
#
# Compressibility (1/GPa) = 0.02131741
#
# Stress axis : x y z
#
# Youngs Moduli (GPa) = 91.67612 24.08277 64.26691
#
# Poissons Ratio (x) = 0.12964 0.14803
# Poissons Ratio (y) = 0.49350 1.00581
# Poissons Ratio (z) = 0.21117 0.37691
#
# Static dielectric constant tensor:
#      x y z
#    x 3.316750 0.000000 0.000000 
#    y 0.000000 3.002580 0.000000 
#    z 0.000000 0.000000 3.670840 
# 
# 
# High freq. dielectric constant tensor:
#      x y z
#    x 1.710340 0.000000 0.000000 
#    y 0.000000 1.671540 0.000000 
#    z 0.000000 0.000000 1.730850 
# 
# From -- ./inp_files/67546.got.cif
#   From: 2010.03.12/outbox.cif.g09.slc.cpg/sg65_34_cif.got.tgz:67546.got - 2010.04.10 20:52:16.
