data_PCOD8270675
_publ_section_title
;
Structure prediction by ZEFSAII (Michael W. Deem and Ramdas Pophale) SiO2 
 PCOD8270675
Probable space group: C M M M
;
_chemical_formula_sum "Si O2"
_cell_formula_units_Z 88
_cell_length_a 9.171474
_cell_length_b 18.392724
_cell_length_c 28.082831
_cell_angle_alpha 90.000000
_cell_angle_beta 90.000000
_cell_angle_gamma 90.000000
_cell_volume 4737.247547
_symmetry_space_group_name_H-M "C M M M"
_symmetry_group_IT_number 65
_symmetry_cell_setting 'orthorhombic'
loop_
_space_group_symop_operation_xyz
x,y,z
-x,-y,z
x,-y,-z
-x,y,-z
-x,-y,-z
x,y,-z
-x,y,z
x,-y,z
1/2+x,1/2+y,z
1/2-x,1/2-y,z
1/2+x,1/2-y,-z
1/2-x,1/2+y,-z
1/2-x,1/2-y,-z
1/2+x,1/2+y,-z
1/2-x,1/2+y,z
1/2+x,1/2-y,z
loop_
_atom_site_type_symbol
_atom_site_label
_atom_site_fract_x
_atom_site_fract_y
_atom_site_fract_z
Si Si1 0.170970 0.916839 0.317777
Si Si2 0.829797 0.583221 0.223710
Si Si3 0.827249 0.173103 0.409535
Si Si4 0.166356 0.084121 0.945050
Si Si5 0.173037 0.081674 0.500000
Si Si6 0.827670 0.326403 0.867950
O O1 0.248403 0.886927 0.270392
O O2 0.222220 0.867528 0.361608
O O3 0.000000 0.910795 0.309558
O O4 0.217246 0.000000 0.328378
O O5 0.785888 0.500000 0.213781
O O6 0.778306 0.628829 0.178359
O O7 0.000000 0.591881 0.233081
O O8 0.750000 0.250000 0.412407
O O9 0.772063 0.124214 0.453439
O O10 0.000000 0.184664 0.411377
O O11 0.277809 0.131650 0.914942
O O12 0.000000 0.101310 0.930109
O O13 0.202035 0.000000 0.936084
O O14 0.190551 0.104294 0.000000
O O15 0.000000 0.076808 0.500000
O O16 0.238607 0.000000 0.500000
O O17 0.750000 0.250000 0.865246
O O18 0.000000 0.315658 0.870302
#
# Coordination Sequence:
#
# PCOD8270675 Si02
#       6
#    16  16  16  16   8  16
#     4   9  18  33  53  76 100 130 172 215 252 299
#     4   9  19  36  56  77 102 134 173 217 264 312
#     4  10  20  33  51  76 105 135 168 208 255 307
#     4   9  19  37  60  84 109 138 174 216 262 314
#     4   9  17  32  55  77  98 131 174 216 254 295
#     4  11  23  37  54  78 109 143 179 219 263 313
#
# _framework density 18.576186
#
# number of rings (size 3 to 8) (size 9 to 14) (size 15 to 20)
#    0.000    2.455    0.000    2.455    0.000    6.909 
#    0.000    6.364    0.000    2.182    0.000    0.000 
#    0.000    0.000    0.000    0.000    0.000    0.000 
#
# Total GULP energy -545714.922976 kJ/mol
# GULP energy per Si atom -12402.611886 kJ/mol
# Density = 1.853391 g / cm^3
# Si number density = 18.576186 Si / 1000 Ang^3
#
#
#
# Elastic Constant Matrix: (Units=GPa)
#
#
# Indices 1 2 3 4 5 6 
#
# 1 50.4678 48.4765 55.0900 0.0000 0.0000 0.0000
# 2 48.4765 131.4905 90.6469 0.0000 0.0000 0.0000
# 3 55.0900 90.6469 156.4008 0.0000 0.0000 0.0000
# 4 0.0000 0.0000 0.0000 12.7512 0.0000 0.0000
# 5 0.0000 0.0000 0.0000 0.0000 29.9505 0.0000
# 6 0.0000 0.0000 0.0000 0.0000 0.0000 -78.1132
#
#
#
# Elastic Compliance Matrix: (Units=1/GPa)
#
#
# Indices 1 2 3 4 5 6 
#
# 1 0.036238 -0.007595 -0.008363 0.000000 0.000000 0.000000
# 2 -0.007595 0.014258 -0.005588 0.000000 0.000000 0.000000
# 3 -0.008363 -0.005588 0.012578 0.000000 0.000000 0.000000
# 4 0.000000 0.000000 0.000000 0.078424 0.000000 0.000000
# 5 0.000000 0.000000 0.000000 0.000000 0.033388 0.000000
# 6 0.000000 0.000000 0.000000 0.000000 0.000000 -0.012802
#
#
# Mechanical properties :
#
#
# Convention : Reuss Voigt Hill
#
# Bulk Modulus (GPa) = 50.04331 80.75398 65.39864
# Shear Modulus (GPa) = 23.60305 2.52740 13.06522
#
# Velocity S-wave (km/s) = 3.56843 1.16770 2.65492
# Velocity P-wave (km/s) = 6.63145 6.73678 6.68432
#
# Compressibility (1/GPa) = 0.01998269
#
# Stress axis : x y z
#
# Youngs Moduli (GPa) = 27.59509 70.13846 79.50260
#
# Poissons Ratio (x) = 0.53270 0.66484
# Poissons Ratio (y) = 0.20958 0.44427
# Poissons Ratio (z) = 0.23076 0.39194
#
# Static dielectric constant tensor:
#      x y z
#    x 3.234170 0.000000 0.000000 
#    y 0.000000 3.441770 0.000000 
#    z 0.000000 0.000000 3.583760 
# 
# 
# High freq. dielectric constant tensor:
#      x y z
#    x 1.705330 0.000000 0.000000 
#    y 0.000000 1.723020 0.000000 
#    z 0.000000 0.000000 1.734810 
# 
# From -- ./inp_files/76424.got.cif
#   From: 2010.03.12/outbox.cif.g09.slc.cpg/sg65_39_cif.got.tgz:76424.got - 2010.04.10 20:52:16.
