data_PCOD8270907
_publ_section_title
;
Structure prediction by ZEFSAII (Michael W. Deem and Ramdas Pophale) SiO2 
 PCOD8270907
Probable space group: C M M M
;
_chemical_formula_sum "Si O2"
_cell_formula_units_Z 64
_cell_length_a 7.857841
_cell_length_b 28.712811
_cell_length_c 18.595543
_cell_angle_alpha 90.000000
_cell_angle_beta 90.000000
_cell_angle_gamma 90.000000
_cell_volume 4195.539494
_symmetry_space_group_name_H-M "C M M M"
_symmetry_group_IT_number 65
_symmetry_cell_setting 'orthorhombic'
loop_
_space_group_symop_operation_xyz
x,y,z
-x,-y,z
x,-y,-z
-x,y,-z
-x,-y,-z
x,y,-z
-x,y,z
x,-y,z
1/2+x,1/2+y,z
1/2-x,1/2-y,z
1/2+x,1/2-y,-z
1/2-x,1/2+y,-z
1/2-x,1/2-y,-z
1/2+x,1/2+y,-z
1/2-x,1/2+y,z
1/2+x,1/2-y,z
loop_
_atom_site_type_symbol
_atom_site_label
_atom_site_fract_x
_atom_site_fract_y
_atom_site_fract_z
Si Si1 0.000000 0.055150 0.662634
Si Si2 0.311189 0.944631 0.080876
Si Si3 0.188961 0.798800 0.585034
Si Si4 0.500000 0.444483 0.825917
Si Si5 0.809679 0.603040 0.415788
O O1 0.828216 0.072662 0.625512
O O2 0.000000 0.073340 0.744361
O O3 0.000000 0.000000 0.658236
O O4 0.500000 0.927729 0.105180
O O5 0.168475 0.924370 0.134645
O O6 0.305161 0.000000 0.081871
O O7 0.272424 0.926969 0.000000
O O8 0.193678 0.793050 0.500000
O O9 0.250000 0.750000 0.620222
O O10 0.303392 0.842715 0.608422
O O11 0.000000 0.809697 0.612640
O O12 0.500000 0.500000 0.829070
O O13 0.767493 0.598858 0.500000
O O14 0.000000 0.584440 0.398779
#
# Coordination Sequence:
#
# PCOD8270907 Si02
#       5
#     8  16  16   8  16
#     4  11  23  35  45  59  83 119 159 195 224 253
#     4   8  13  22  38  59  80 101 129 169 213 254
#     4   9  15  25  44  69  91 105 122 162 223 283
#     4   9  17  27  39  55  77 107 143 179 213 250
#     4  10  20  34  49  63  81 107 145 193 236 272
#
# _framework density 15.254295000000001
#
# number of rings (size 3 to 8) (size 9 to 14) (size 15 to 20)
#    0.000    2.750    1.250    2.250    0.000    7.000 
#    0.000    3.750    0.000    0.000    0.000    0.000 
#    0.000    0.000    0.000    0.000    0.000    5.000 
#
# Total GULP energy -396562.813437 kJ/mol
# GULP energy per Si atom -12392.587920 kJ/mol
# Density = 1.521958 g / cm^3
# Si number density = 15.254295 Si / 1000 Ang^3
#
#
#
# Elastic Constant Matrix: (Units=GPa)
#
#
# Indices 1 2 3 4 5 6 
#
# 1 136.7271 33.1896 64.3085 0.0000 0.0000 0.0000
# 2 33.1896 47.9032 28.0674 0.0000 0.0000 0.0000
# 3 64.3085 28.0674 78.1778 0.0000 0.0000 0.0000
# 4 0.0000 0.0000 0.0000 -0.4725 0.0000 0.0000
# 5 0.0000 0.0000 0.0000 0.0000 12.1720 0.0000
# 6 0.0000 0.0000 0.0000 0.0000 0.0000 19.6749
#
#
#
# Elastic Compliance Matrix: (Units=1/GPa)
#
#
# Indices 1 2 3 4 5 6 
#
# 1 0.012326 -0.003292 -0.008957 0.000000 0.000000 0.000000
# 2 -0.003292 0.027316 -0.007099 0.000000 0.000000 0.000000
# 3 -0.008957 -0.007099 0.022708 0.000000 0.000000 0.000000
# 4 0.000000 0.000000 0.000000 -2.116217 0.000000 0.000000
# 5 0.000000 0.000000 0.000000 0.000000 0.082156 0.000000
# 6 0.000000 0.000000 0.000000 0.000000 0.000000 0.050826
#
#
# Mechanical properties :
#
#
# Convention : Reuss Voigt Hill
#
# Bulk Modulus (GPa) = 42.27717 57.10435 49.69076
# Shear Modulus (GPa) = -2.66766 15.42438 6.37836
#
# Velocity S-wave (km/s) = -1.32385 3.18331 2.04705
# Velocity P-wave (km/s) = 5.04364 7.14335 6.18328
#
# Compressibility (1/GPa) = 0.02365343
#
# Stress axis : x y z
#
# Youngs Moduli (GPa) = 81.12971 36.60916 44.03645
#
# Poissons Ratio (x) = 0.12050 0.39446
# Poissons Ratio (y) = 0.26705 0.31262
# Poissons Ratio (z) = 0.72672 0.25989
#
# Static dielectric constant tensor:
#      x y z
#    x 3.264650 0.000000 0.000000 
#    y 0.000000 2.651860 0.000000 
#    z 0.000000 0.000000 2.758320 
# 
# 
# High freq. dielectric constant tensor:
#      x y z
#    x 1.608390 0.000000 0.000000 
#    y 0.000000 1.538790 0.000000 
#    z 0.000000 0.000000 1.544080 
# 
# From -- ./inp_files/36335.got.cif
#   From: 2010.03.12/outbox.cif.g09.slc.cpg/sg65_19_cif.got.tgz:36335.got - 2010.04.10 20:52:16.
