data_PCOD8270855
_publ_section_title
;
Structure prediction by ZEFSAII (Michael W. Deem and Ramdas Pophale) SiO2 
 PCOD8270855
Probable space group: C M M M
;
_chemical_formula_sum "Si O2"
_cell_formula_units_Z 72
_cell_length_a 18.777921
_cell_length_b 8.780428
_cell_length_c 23.399505
_cell_angle_alpha 90.000000
_cell_angle_beta 90.000000
_cell_angle_gamma 90.000000
_cell_volume 3858.067875
_symmetry_space_group_name_H-M "C M M M"
_symmetry_group_IT_number 65
_symmetry_cell_setting 'orthorhombic'
loop_
_space_group_symop_operation_xyz
x,y,z
-x,-y,z
x,-y,-z
-x,y,-z
-x,-y,-z
x,y,-z
-x,y,z
x,-y,z
1/2+x,1/2+y,z
1/2-x,1/2-y,z
1/2+x,1/2-y,-z
1/2-x,1/2+y,-z
1/2-x,1/2-y,-z
1/2+x,1/2+y,-z
1/2-x,1/2+y,z
1/2+x,1/2-y,z
loop_
_atom_site_type_symbol
_atom_site_label
_atom_site_fract_x
_atom_site_fract_y
_atom_site_fract_z
Si Si1 0.670879 0.318800 0.897485
Si Si2 0.416013 0.178829 0.000000
Si Si3 0.083414 0.826262 0.563991
Si Si4 0.325878 0.824191 0.658961
Si Si5 0.672793 0.820843 0.783723
O O1 0.675653 0.500000 0.900821
O O2 0.750000 0.250000 0.905524
O O3 0.618234 0.256420 0.945032
O O4 0.635549 0.265111 0.836948
O O5 0.500000 0.210857 0.000000
O O6 0.398955 0.000000 0.000000
O O7 0.109392 0.784049 0.500000
O O8 0.120040 0.719136 0.609645
O O9 0.000000 0.799462 0.568655
O O10 0.103252 0.000000 0.577840
O O11 0.250000 0.750000 0.648616
O O12 0.361640 0.786739 0.721307
O O13 0.309787 0.000000 0.655495
O O14 0.750000 0.750000 0.779365
O O15 0.675797 0.000000 0.797403
#
# Coordination Sequence:
#
# PCOD8270855 Si02
#       5
#    16   8  16  16  16
#     4  11  21  35  58  84 109 138 177 218 256 307
#     4  11  24  41  58  77 107 143 176 217 268 311
#     4   9  19  36  55  74 100 136 176 218 264 313
#     4  10  20  33  53  80 108 138 172 214 261 310
#     4   9  17  31  51  77 107 137 172 213 259 307
#
# _framework density 18.662191
#
# number of rings (size 3 to 8) (size 9 to 14) (size 15 to 20)
#    0.000    2.111    0.000    6.000    0.000    4.889 
#    0.000    2.222    0.000    1.333    0.000    0.000 
#    0.000    0.000    0.000    0.000    0.000    0.000 
#
# Total GULP energy -446147.934168 kJ/mol
# GULP energy per Si atom -12392.998171 kJ/mol
# Density = 1.861972 g / cm^3
# Si number density = 18.662191 Si / 1000 Ang^3
#
#
#
# Elastic Constant Matrix: (Units=GPa)
#
#
# Indices 1 2 3 4 5 6 
#
# 1 50.5491 38.6314 56.3177 0.0000 0.0000 0.0000
# 2 38.6314 116.1862 69.2869 0.0000 0.0000 0.0000
# 3 56.3177 69.2869 170.6446 0.0000 0.0000 0.0000
# 4 0.0000 0.0000 0.0000 32.7834 0.0000 0.0000
# 5 0.0000 0.0000 0.0000 0.0000 -167.7376 0.0000
# 6 0.0000 0.0000 0.0000 0.0000 0.0000 27.2193
#
#
#
# Elastic Compliance Matrix: (Units=1/GPa)
#
#
# Indices 1 2 3 4 5 6 
#
# 1 0.034317 -0.006144 -0.008831 0.000000 0.000000 0.000000
# 2 -0.006144 0.012457 -0.003030 0.000000 0.000000 0.000000
# 3 -0.008831 -0.003030 0.010005 0.000000 0.000000 0.000000
# 4 0.000000 0.000000 0.000000 0.030503 0.000000 0.000000
# 5 0.000000 0.000000 0.000000 0.000000 -0.005962 0.000000
# 6 0.000000 0.000000 0.000000 0.000000 0.000000 0.036739
#
#
# Mechanical properties :
#
#
# Convention : Reuss Voigt Hill
#
# Bulk Modulus (GPa) = 48.14986 73.98353 61.06669
# Shear Modulus (GPa) = 31.05757 -10.00404 10.52677
#
# Velocity S-wave (km/s) = 4.08388 -2.31781 2.37759
# Velocity P-wave (km/s) = 6.93500 5.70672 6.35062
#
# Compressibility (1/GPa) = 0.02076849
#
# Stress axis : x y z
#
# Youngs Moduli (GPa) = 29.14023 80.27814 99.95077
#
# Poissons Ratio (x) = 0.49322 0.88266
# Poissons Ratio (y) = 0.17903 0.30286
# Poissons Ratio (z) = 0.25734 0.24325
#
# Static dielectric constant tensor:
#      x y z
#    x 3.056040 0.000000 0.000000 
#    y 0.000000 3.664570 0.000000 
#    z 0.000000 0.000000 4.463350 
# 
# 
# High freq. dielectric constant tensor:
#      x y z
#    x 1.683060 0.000000 0.000000 
#    y 0.000000 1.738420 0.000000 
#    z 0.000000 0.000000 1.752310 
# 
# From -- ./inp_files/70316.got.cif
#   From: 2010.03.12/outbox.cif.g09.slc.cpg/sg65_36_cif.got.tgz:70316.got - 2010.04.10 20:52:16.
