data_PCOD8270726
_publ_section_title
;
Structure prediction by ZEFSAII (Michael W. Deem and Ramdas Pophale) SiO2 
 PCOD8270726
Probable space group: C M M M
;
_chemical_formula_sum "Si O2"
_cell_formula_units_Z 104
_cell_length_a 19.017684
_cell_length_b 8.868761
_cell_length_c 33.504509
_cell_angle_alpha 90.000000
_cell_angle_beta 90.000000
_cell_angle_gamma 90.000000
_cell_volume 5650.980857
_symmetry_space_group_name_H-M "C M M M"
_symmetry_group_IT_number 65
_symmetry_cell_setting 'orthorhombic'
loop_
_space_group_symop_operation_xyz
x,y,z
-x,-y,z
x,-y,-z
-x,y,-z
-x,-y,-z
x,y,-z
-x,y,z
x,-y,z
1/2+x,1/2+y,z
1/2-x,1/2-y,z
1/2+x,1/2-y,-z
1/2-x,1/2+y,-z
1/2-x,1/2-y,-z
1/2+x,1/2+y,-z
1/2-x,1/2+y,z
1/2+x,1/2-y,z
loop_
_atom_site_type_symbol
_atom_site_label
_atom_site_fract_x
_atom_site_fract_y
_atom_site_fract_z
Si Si1 0.175959 0.321108 0.812946
Si Si2 0.416765 0.827336 0.334452
Si Si3 0.176480 0.821837 0.729293
Si Si4 0.583276 0.327985 0.500000
Si Si5 0.919792 0.325297 0.422591
Si Si6 0.083273 0.171810 0.122322
Si Si7 0.416505 0.830645 0.043776
O O1 0.183362 0.500000 0.809021
O O2 0.250000 0.250000 0.826404
O O3 0.151855 0.251691 0.770814
O O4 0.117210 0.280708 0.845144
O O5 0.500000 0.803812 0.332748
O O6 0.381637 0.712646 0.303824
O O7 0.387112 0.789322 0.378972
O O8 0.397894 0.000000 0.323441
O O9 0.250000 0.750000 0.715390
O O10 0.184881 0.000000 0.734845
O O11 0.603183 0.500000 0.500000
O O12 0.500000 0.295125 0.500000
O O13 0.617757 0.259453 0.459569
O O14 0.914398 0.500000 0.432189
O O15 0.000000 0.271350 0.420556
O O16 0.111128 0.220024 0.078425
O O17 0.000000 0.191850 0.125566
O O18 0.106296 0.000000 0.129917
O O19 0.500000 0.830468 0.043681
O O20 0.389065 0.000000 0.052257
O O21 0.389480 0.775861 0.000000
#
# Coordination Sequence:
#
# PCOD8270726 Si02
#       7
#    16  16  16   8  16  16  16
#     4  11  22  38  58  76  99 131 168 208 252 303
#     4   9  18  33  52  75 103 133 166 206 252 298
#     4  11  22  37  56  76 100 130 167 207 248 299
#     4   9  15  21  33  57  90 125 160 199 240 283
#     4   8  14  25  41  61  89 126 163 197 237 288
#     4  10  20  33  51  78 109 137 170 211 251 294
#     4   8  14  26  45  70 101 136 172 208 247 292
#
# _framework density 18.403884999999999
#
# number of rings (size 3 to 8) (size 9 to 14) (size 15 to 20)
#    0.000    2.538    0.000    5.769    0.000    3.692 
#    0.000    3.077    0.000    0.462    0.000    0.538 
#    0.000    0.000    0.000    0.000    0.000    0.000 
#
# Total GULP energy -644559.799756 kJ/mol
# GULP energy per Si atom -12395.380765 kJ/mol
# Density = 1.836200 g / cm^3
# Si number density = 18.403885 Si / 1000 Ang^3
#
#
#
# Elastic Constant Matrix: (Units=GPa)
#
#
# Indices 1 2 3 4 5 6 
#
# 1 28.5666 25.7122 38.8627 0.0000 0.0000 0.0000
# 2 25.7122 117.4472 62.9938 0.0000 0.0000 0.0000
# 3 38.8627 62.9938 137.0178 0.0000 0.0000 0.0000
# 4 0.0000 0.0000 0.0000 32.7857 0.0000 0.0000
# 5 0.0000 0.0000 0.0000 0.0000 -1.2412 0.0000
# 6 0.0000 0.0000 0.0000 0.0000 0.0000 21.4494
#
#
#
# Elastic Compliance Matrix: (Units=1/GPa)
#
#
# Indices 1 2 3 4 5 6 
#
# 1 0.059353 -0.005262 -0.014415 0.000000 0.000000 0.000000
# 2 -0.005262 0.011768 -0.003918 0.000000 0.000000 0.000000
# 3 -0.014415 -0.003918 0.013188 0.000000 0.000000 0.000000
# 4 0.000000 0.000000 0.000000 0.030501 0.000000 0.000000
# 5 0.000000 0.000000 0.000000 0.000000 -0.805642 0.000000
# 6 0.000000 0.000000 0.000000 0.000000 0.000000 0.046621
#
#
# Mechanical properties :
#
#
# Convention : Reuss Voigt Hill
#
# Bulk Modulus (GPa) = 26.94057 59.79656 43.36856
# Shear Modulus (GPa) = -8.55215 20.96298 6.20541
#
# Velocity S-wave (km/s) = -2.15801 3.37865 1.83824
# Velocity P-wave (km/s) = 2.90877 6.91246 5.30297
#
# Compressibility (1/GPa) = 0.03711874
#
# Stress axis : x y z
#
# Youngs Moduli (GPa) = 16.84836 84.97779 75.82614
#
# Poissons Ratio (x) = 0.44717 1.09304
# Poissons Ratio (y) = 0.08866 0.29706
# Poissons Ratio (z) = 0.24287 0.33292
#
# Static dielectric constant tensor:
#      x y z
#    x 2.877250 0.000000 0.000000 
#    y 0.000000 3.408910 0.000000 
#    z 0.000000 0.000000 3.806460 
# 
# 
# High freq. dielectric constant tensor:
#      x y z
#    x 1.656260 0.000000 0.000000 
#    y 0.000000 1.718210 0.000000 
#    z 0.000000 0.000000 1.733990 
# 
# From -- ./inp_files/78224.got.cif
#   From: 2010.03.12/outbox.cif.g09.slc.cpg/sg65_40_cif.got.tgz:78224.got - 2010.04.10 20:52:16.
