data_PCOD8270736
_publ_section_title
;
Structure prediction by ZEFSAII (Michael W. Deem and Ramdas Pophale) SiO2 
 PCOD8270736
Probable space group: C M M M
;
_chemical_formula_sum "Si O2"
_cell_formula_units_Z 96
_cell_length_a 8.949337
_cell_length_b 18.170693
_cell_length_c 30.780107
_cell_angle_alpha 90.000000
_cell_angle_beta 90.000000
_cell_angle_gamma 90.000000
_cell_volume 5005.327266
_symmetry_space_group_name_H-M "C M M M"
_symmetry_group_IT_number 65
_symmetry_cell_setting 'orthorhombic'
loop_
_space_group_symop_operation_xyz
x,y,z
-x,-y,z
x,-y,-z
-x,y,-z
-x,-y,-z
x,y,-z
-x,y,z
x,-y,z
1/2+x,1/2+y,z
1/2-x,1/2-y,z
1/2+x,1/2-y,-z
1/2-x,1/2+y,-z
1/2-x,1/2-y,-z
1/2+x,1/2+y,-z
1/2-x,1/2+y,z
1/2+x,1/2-y,z
loop_
_atom_site_type_symbol
_atom_site_label
_atom_site_fract_x
_atom_site_fract_y
_atom_site_fract_z
Si Si1 0.667763 0.412601 0.547716
Si Si2 0.322555 0.417591 0.207132
Si Si3 0.672134 0.915493 0.050047
Si Si4 0.676976 0.670761 0.709250
Si Si5 0.170355 0.412778 0.632575
Si Si6 0.676307 0.671677 0.123826
O O1 0.721175 0.384371 0.500000
O O2 0.500000 0.383978 0.557230
O O3 0.667903 0.500000 0.547728
O O4 0.778845 0.383673 0.585075
O O5 0.500000 0.421009 0.208119
O O6 0.255503 0.500000 0.209627
O O7 0.263064 0.370752 0.247858
O O8 0.266397 0.380378 0.162722
O O9 0.500000 0.900988 0.062072
O O10 0.776923 0.863320 0.078187
O O11 0.714569 0.000000 0.059200
O O12 0.701724 0.895868 0.000000
O O13 0.500000 0.679451 0.709912
O O14 0.750000 0.750000 0.707257
O O15 0.723276 0.623550 0.667834
O O16 0.189101 0.500000 0.636278
O O17 0.000000 0.388164 0.640062
O O18 0.500000 0.681628 0.124600
O O19 0.750000 0.750000 0.130515
#
# Coordination Sequence:
#
# PCOD8270736 Si02
#       6
#    16  16  16  16  16  16
#     4   8  14  26  46  73 104 138 177 219 263 313
#     4   9  19  36  58  83 108 137 176 221 268 319
#     4   9  19  37  59  82 110 144 183 228 276 325
#     4  11  22  37  57  78 106 142 178 218 266 320
#     4  10  20  33  51  78 110 141 178 223 267 315
#     4  11  22  36  56  82 114 148 183 224 269 321
#
# _framework density 19.179563999999999
#
# number of rings (size 3 to 8) (size 9 to 14) (size 15 to 20)
#    0.000    2.333    0.000    4.000    0.000    3.667 
#    0.000    5.000    0.000    6.500    0.000    0.000 
#    0.000    0.000    0.000    0.000    0.000    0.000 
#
# Total GULP energy -595221.569248 kJ/mol
# GULP energy per Si atom -12400.449359 kJ/mol
# Density = 1.913591 g / cm^3
# Si number density = 19.179564 Si / 1000 Ang^3
#
#
#
# Elastic Constant Matrix: (Units=GPa)
#
#
# Indices 1 2 3 4 5 6 
#
# 1 73.6728 37.2232 43.4972 0.0000 0.0000 0.0000
# 2 37.2232 74.4930 46.9970 0.0000 0.0000 0.0000
# 3 43.4972 46.9970 130.3352 0.0000 0.0000 0.0000
# 4 0.0000 0.0000 0.0000 5.3195 0.0000 0.0000
# 5 0.0000 0.0000 0.0000 0.0000 23.9560 0.0000
# 6 0.0000 0.0000 0.0000 0.0000 0.0000 -4.2856
#
#
#
# Elastic Compliance Matrix: (Units=1/GPa)
#
#
# Indices 1 2 3 4 5 6 
#
# 1 0.019571 -0.007325 -0.003890 0.000000 0.000000 0.000000
# 2 -0.007325 0.020119 -0.004810 0.000000 0.000000 0.000000
# 3 -0.003890 -0.004810 0.010705 0.000000 0.000000 0.000000
# 4 0.000000 0.000000 0.000000 0.187988 0.000000 0.000000
# 5 0.000000 0.000000 0.000000 0.000000 0.041743 0.000000
# 6 0.000000 0.000000 0.000000 0.000000 0.000000 -0.233342
#
#
# Mechanical properties :
#
#
# Convention : Reuss Voigt Hill
#
# Bulk Modulus (GPa) = 54.51153 59.32620 56.91887
# Shear Modulus (GPa) = 58.85783 15.05023 36.95403
#
# Velocity S-wave (km/s) = 5.54567 2.80429 4.39423
# Velocity P-wave (km/s) = 8.33602 6.44085 7.44895
#
# Compressibility (1/GPa) = 0.01834474
#
# Stress axis : x y z
#
# Youngs Moduli (GPa) = 51.09474 49.70435 93.41234
#
# Poissons Ratio (x) = 0.36410 0.36340
# Poissons Ratio (y) = 0.37428 0.44931
# Poissons Ratio (z) = 0.19877 0.23907
#
# Static dielectric constant tensor:
#      x y z
#    x 3.380410 0.000000 0.000000 
#    y 0.000000 3.379430 0.000000 
#    z 0.000000 0.000000 3.780720 
# 
# 
# High freq. dielectric constant tensor:
#      x y z
#    x 1.733170 0.000000 0.000000 
#    y 0.000000 1.730630 0.000000 
#    z 0.000000 0.000000 1.763290 
# 
# From -- ./inp_files/73167.got.cif
#   From: 2010.03.12/outbox.cif.g09.slc.cpg/sg65_37_cif.got.tgz:73167.got - 2010.04.10 20:52:16.
