data_PCOD8270608
_publ_section_title
;
Structure prediction by ZEFSAII (Michael W. Deem and Ramdas Pophale) SiO2 
 PCOD8270608
Probable space group: C M M M
;
_chemical_formula_sum "Si O2"
_cell_formula_units_Z 112
_cell_length_a 27.487959
_cell_length_b 9.727389
_cell_length_c 23.748694
_cell_angle_alpha 90.000000
_cell_angle_beta 90.000000
_cell_angle_gamma 90.000000
_cell_volume 6350.069957
_symmetry_space_group_name_H-M "C M M M"
_symmetry_group_IT_number 65
_symmetry_cell_setting 'orthorhombic'
loop_
_space_group_symop_operation_xyz
x,y,z
-x,-y,z
x,-y,-z
-x,y,-z
-x,-y,-z
x,y,-z
-x,y,z
x,-y,z
1/2+x,1/2+y,z
1/2-x,1/2-y,z
1/2+x,1/2-y,-z
1/2-x,1/2+y,-z
1/2-x,1/2-y,-z
1/2+x,1/2+y,-z
1/2-x,1/2+y,z
1/2+x,1/2-y,z
loop_
_atom_site_type_symbol
_atom_site_label
_atom_site_fract_x
_atom_site_fract_y
_atom_site_fract_z
Si Si1 0.553728 0.835969 0.877623
Si Si2 0.147706 0.336727 0.061836
Si Si3 0.944113 0.657666 0.342999
Si Si4 0.209165 0.848686 0.433310
Si Si5 0.894218 0.338386 0.768044
Si Si6 0.599987 0.660637 0.565003
Si Si7 0.703395 0.838151 0.171680
O O1 0.500000 0.777951 0.892181
O O2 0.592996 0.784879 0.923757
O O3 0.570746 0.778605 0.816802
O O4 0.552955 0.000000 0.876345
O O5 0.147409 0.500000 0.061619
O O6 0.185623 0.288469 0.109631
O O7 0.162523 0.278971 0.000000
O O8 0.930305 0.500000 0.356999
O O9 0.910608 0.719674 0.292646
O O10 0.936404 0.748906 0.398296
O O11 0.000000 0.668566 0.324064
O O12 0.215322 0.856468 0.500000
O O13 0.250000 0.750000 0.406230
O O14 0.155129 0.795626 0.419024
O O15 0.217310 0.000000 0.407454
O O16 0.902164 0.500000 0.766630
O O17 0.838163 0.303617 0.782301
O O18 0.589008 0.693025 0.500000
O O19 0.591817 0.500000 0.577360
O O20 0.750000 0.750000 0.189045
O O21 0.715887 0.000000 0.171823
#
# Coordination Sequence:
#
# PCOD8270608 Si02
#       7
#    16  16  16  16  16  16  16
#     4   8  12  19  35  58  84 117 152 184 225 277
#     4   8  14  23  35  57  90 123 154 189 228 269
#     4  10  20  33  51  73  93 116 152 197 236 273
#     4   8  14  26  45  67  89 115 147 179 211 251
#     4   8  15  29  46  64  88 116 147 186 234 281
#     4   9  19  35  51  69  98 132 159 184 223 279
#     4   9  17  30  48  67  90 123 157 189 229 275
#
# _framework density 17.637602000000001
#
# number of rings (size 3 to 8) (size 9 to 14) (size 15 to 20)
#    0.000    3.429    0.000    3.000    0.000    3.714 
#    0.000    5.714    0.000    3.429    0.000    0.000 
#    0.000    5.143    0.000    5.143    0.000    5.714 
#
# Total GULP energy -693942.204108 kJ/mol
# GULP energy per Si atom -12391.825073 kJ/mol
# Density = 1.759746 g / cm^3
# Si number density = 17.637602 Si / 1000 Ang^3
#
#
#
# Elastic Constant Matrix: (Units=GPa)
#
#
# Indices 1 2 3 4 5 6 
#
# 1 97.4252 33.1548 38.1115 0.0000 0.0000 0.0000
# 2 33.1548 36.1379 30.5579 0.0000 0.0000 0.0000
# 3 38.1115 30.5579 93.6740 0.0000 0.0000 0.0000
# 4 0.0000 0.0000 0.0000 9.7921 0.0000 0.0000
# 5 0.0000 0.0000 0.0000 0.0000 21.1642 0.0000
# 6 0.0000 0.0000 0.0000 0.0000 0.0000 25.0692
#
#
#
# Elastic Compliance Matrix: (Units=1/GPa)
#
#
# Indices 1 2 3 4 5 6 
#
# 1 0.015265 -0.012087 -0.002267 0.000000 0.000000 0.000000
# 2 -0.012087 0.047784 -0.010670 0.000000 0.000000 0.000000
# 3 -0.002267 -0.010670 0.015079 0.000000 0.000000 0.000000
# 4 0.000000 0.000000 0.000000 0.102123 0.000000 0.000000
# 5 0.000000 0.000000 0.000000 0.000000 0.047250 0.000000
# 6 0.000000 0.000000 0.000000 0.000000 0.000000 0.039890
#
#
# Mechanical properties :
#
#
# Convention : Reuss Voigt Hill
#
# Bulk Modulus (GPa) = 35.61571 47.87615 41.74593
# Shear Modulus (GPa) = 15.29996 19.56595 17.43296
#
# Velocity S-wave (km/s) = 2.94847 3.33428 3.14729
# Velocity P-wave (km/s) = 5.64165 6.48278 6.07679
#
# Compressibility (1/GPa) = 0.02807749
#
# Stress axis : x y z
#
# Youngs Moduli (GPa) = 65.51058 20.92758 66.31924
#
# Poissons Ratio (x) = 0.25296 0.15037
# Poissons Ratio (y) = 0.79185 0.70763
# Poissons Ratio (z) = 0.14854 0.22330
#
# Static dielectric constant tensor:
#      x y z
#    x 3.343810 0.000000 0.000000 
#    y 0.000000 2.858220 0.000000 
#    z 0.000000 0.000000 3.361280 
# 
# 
# High freq. dielectric constant tensor:
#      x y z
#    x 1.687420 0.000000 0.000000 
#    y 0.000000 1.626670 0.000000 
#    z 0.000000 0.000000 1.669430 
# 
# From -- ./inp_files/61795.got.cif
#   From: 2010.03.12/outbox.cif.g09.slc.cpg/sg65_31_cif.got.tgz:61795.got - 2010.04.10 20:52:16.
