data_PCOD8270377
_publ_section_title
;
Structure prediction by ZEFSAII (Michael W. Deem and Ramdas Pophale) SiO2 
 PCOD8270377
Probable space group: C M M M
;
_chemical_formula_sum "Si O2"
_cell_formula_units_Z 72
_cell_length_a 8.844221
_cell_length_b 32.634535
_cell_length_c 13.652613
_cell_angle_alpha 90.000000
_cell_angle_beta 90.000000
_cell_angle_gamma 90.000000
_cell_volume 3940.513275
_symmetry_space_group_name_H-M "C M M M"
_symmetry_group_IT_number 65
_symmetry_cell_setting 'orthorhombic'
loop_
_space_group_symop_operation_xyz
x,y,z
-x,-y,z
x,-y,-z
-x,y,-z
-x,-y,-z
x,y,-z
-x,y,z
x,-y,z
1/2+x,1/2+y,z
1/2-x,1/2-y,z
1/2+x,1/2-y,-z
1/2-x,1/2+y,-z
1/2-x,1/2-y,-z
1/2+x,1/2+y,-z
1/2-x,1/2+y,z
1/2+x,1/2-y,z
loop_
_atom_site_type_symbol
_atom_site_label
_atom_site_fract_x
_atom_site_fract_y
_atom_site_fract_z
Si Si1 0.821330 0.792228 0.282163
Si Si2 0.678678 0.372809 0.392605
Si Si3 0.320330 0.500000 0.110738
Si Si4 0.674262 0.837957 0.887587
Si Si5 0.320231 0.584558 0.799693
O O1 0.750000 0.750000 0.319971
O O2 0.770696 0.827685 0.357596
O O3 0.759504 0.803349 0.174756
O O4 0.000000 0.787776 0.276040
O O5 0.750136 0.382117 0.500000
O O6 0.500000 0.374035 0.400673
O O7 0.731553 0.406538 0.312655
O O8 0.500000 0.500000 0.107635
O O9 0.261377 0.460179 0.168938
O O10 0.255811 0.500000 0.000000
O O11 0.500000 0.839570 0.855620
O O12 0.746861 0.882543 0.871863
O O13 0.693083 0.825390 0.000000
O O14 0.500000 0.588595 0.810156
#
# Coordination Sequence:
#
# PCOD8270377 Si02
#       5
#    16  16   8  16  16
#     4  10  20  33  50  71  96 125 157 196 239 284
#     4   8  15  29  48  69  94 124 158 197 240 283
#     4   9  16  26  44  72 102 129 161 199 236 279
#     4  10  20  33  49  69  95 127 161 198 240 285
#     4   9  17  30  49  71  96 128 163 198 237 283
#
# _framework density 18.271730000000002
#
# number of rings (size 3 to 8) (size 9 to 14) (size 15 to 20)
#    0.000    2.778    0.000    3.333    0.000    3.556 
#    0.000    1.111    0.000   21.333    0.000    0.000 
#    0.000    7.111    0.000    0.000    0.000    0.000 
#
# Total GULP energy -446294.927494 kJ/mol
# GULP energy per Si atom -12397.081319 kJ/mol
# Density = 1.823014 g / cm^3
# Si number density = 18.271730 Si / 1000 Ang^3
#
#
#
# Elastic Constant Matrix: (Units=GPa)
#
#
# Indices 1 2 3 4 5 6 
#
# 1 47.7114 17.4488 22.1883 0.0000 0.0000 0.0000
# 2 17.4488 124.2790 58.9797 0.0000 0.0000 0.0000
# 3 22.1883 58.9797 136.5719 0.0000 0.0000 0.0000
# 4 0.0000 0.0000 0.0000 16.6074 0.0000 0.0000
# 5 0.0000 0.0000 0.0000 0.0000 13.2416 0.0000
# 6 0.0000 0.0000 0.0000 0.0000 0.0000 21.9580
#
#
#
# Elastic Compliance Matrix: (Units=1/GPa)
#
#
# Indices 1 2 3 4 5 6 
#
# 1 0.022999 -0.001831 -0.002946 0.000000 0.000000 0.000000
# 2 -0.001831 0.010266 -0.004136 0.000000 0.000000 0.000000
# 3 -0.002946 -0.004136 0.009587 0.000000 0.000000 0.000000
# 4 0.000000 0.000000 0.000000 0.060214 0.000000 0.000000
# 5 0.000000 0.000000 0.000000 0.000000 0.075520 0.000000
# 6 0.000000 0.000000 0.000000 0.000000 0.000000 0.045541
#
#
# Mechanical properties :
#
#
# Convention : Reuss Voigt Hill
#
# Bulk Modulus (GPa) = 39.95794 56.19955 48.07874
# Shear Modulus (GPa) = 19.97639 24.35778 22.16709
#
# Velocity S-wave (km/s) = 3.31009 3.65511 3.48687
# Velocity P-wave (km/s) = 6.04360 6.97406 6.52543
#
# Compressibility (1/GPa) = 0.02502632
#
# Stress axis : x y z
#
# Youngs Moduli (GPa) = 43.48028 97.40512 104.30835
#
# Poissons Ratio (x) = 0.17836 0.30727
# Poissons Ratio (y) = 0.07962 0.43143
# Poissons Ratio (z) = 0.12808 0.40288
#
# Static dielectric constant tensor:
#      x y z
#    x 3.115380 0.000000 0.000000 
#    y 0.000000 3.448150 0.000000 
#    z 0.000000 0.000000 3.678870 
# 
# 
# High freq. dielectric constant tensor:
#      x y z
#    x 1.680100 0.000000 0.000000 
#    y 0.000000 1.702580 0.000000 
#    z 0.000000 0.000000 1.710900 
# 
# From -- ./inp_files/36962.got.cif
#   From: 2010.03.12/outbox.cif.g09.slc.cpg/sg65_19_cif.got.tgz:36962.got - 2010.04.10 20:52:16.
