data_PCOD8270544
_publ_section_title
;
Structure prediction by ZEFSAII (Michael W. Deem and Ramdas Pophale) SiO2 
 PCOD8270544
Probable space group: C M M M
;
_chemical_formula_sum "Si O2"
_cell_formula_units_Z 104
_cell_length_a 26.576281
_cell_length_b 9.164992
_cell_length_c 24.369754
_cell_angle_alpha 90.000000
_cell_angle_beta 90.000000
_cell_angle_gamma 90.000000
_cell_volume 5935.775167
_symmetry_space_group_name_H-M "C M M M"
_symmetry_group_IT_number 65
_symmetry_cell_setting 'orthorhombic'
loop_
_space_group_symop_operation_xyz
x,y,z
-x,-y,z
x,-y,-z
-x,y,-z
-x,-y,-z
x,y,-z
-x,y,z
x,-y,z
1/2+x,1/2+y,z
1/2-x,1/2-y,z
1/2+x,1/2-y,-z
1/2-x,1/2+y,-z
1/2-x,1/2-y,-z
1/2+x,1/2+y,-z
1/2-x,1/2+y,z
1/2+x,1/2-y,z
loop_
_atom_site_type_symbol
_atom_site_label
_atom_site_fract_x
_atom_site_fract_y
_atom_site_fract_z
Si Si1 0.297127 0.663283 0.564986
Si Si2 0.441283 0.830860 0.238329
Si Si3 0.602721 0.171733 0.437028
Si Si4 0.300916 0.170856 0.063726
Si Si5 0.901401 0.672512 0.122328
Si Si6 0.442111 0.660579 0.342852
Si Si7 0.000000 0.326181 0.062238
O O1 0.291907 0.653626 0.500000
O O2 0.299703 0.500000 0.589806
O O3 0.250000 0.750000 0.590300
O O4 0.345520 0.755186 0.581901
O O5 0.500000 0.798014 0.225827
O O6 0.407646 0.784909 0.186129
O O7 0.418816 0.741472 0.289943
O O8 0.434325 0.000000 0.252559
O O9 0.589140 0.208960 0.500000
O O10 0.561276 0.242200 0.397812
O O11 0.606356 0.000000 0.428000
O O12 0.250000 0.250000 0.083697
O O13 0.348590 0.233054 0.098303
O O14 0.293356 0.000000 0.074086
O O15 0.311706 0.204530 0.000000
O O16 0.901804 0.500000 0.114321
O O17 0.949485 0.738251 0.090094
O O18 0.500000 0.640797 0.329985
O O19 0.417179 0.500000 0.350884
O O20 0.000000 0.500000 0.067828
O O21 0.000000 0.273465 0.000000
#
# Coordination Sequence:
#
# PCOD8270544 Si02
#       7
#    16  16  16  16  16  16   8
#     4   9  16  27  45  69  97 127 157 189 228 278
#     4   9  16  29  49  70  92 118 153 197 245 297
#     4  10  20  33  50  73  99 126 159 199 245 297
#     4   9  17  29  45  67  97 133 171 206 240 285
#     4   9  15  25  43  69  97 125 158 200 248 293
#     4  10  21  35  50  69  95 127 163 201 243 294
#     4   9  14  20  36  68 105 129 148 187 246 299
#
# _framework density 17.520879000000001
#
# number of rings (size 3 to 8) (size 9 to 14) (size 15 to 20)
#    0.000    2.692    0.769    1.846    0.000    5.846 
#    0.000    2.308    0.000    0.923    0.000    4.308 
#    0.000    3.692    0.000    0.000    0.000    0.000 
#
# Total GULP energy -644583.061942 kJ/mol
# GULP energy per Si atom -12395.828114 kJ/mol
# Density = 1.748100 g / cm^3
# Si number density = 17.520879 Si / 1000 Ang^3
#
#
#
# Elastic Constant Matrix: (Units=GPa)
#
#
# Indices 1 2 3 4 5 6 
#
# 1 91.5891 33.2800 52.5648 0.0000 0.0000 0.0000
# 2 33.2800 82.0859 48.5621 0.0000 0.0000 0.0000
# 3 52.5648 48.5621 104.9299 0.0000 0.0000 0.0000
# 4 0.0000 0.0000 0.0000 16.1675 0.0000 0.0000
# 5 0.0000 0.0000 0.0000 0.0000 20.8660 0.0000
# 6 0.0000 0.0000 0.0000 0.0000 0.0000 24.9154
#
#
#
# Elastic Compliance Matrix: (Units=1/GPa)
#
#
# Indices 1 2 3 4 5 6 
#
# 1 0.015646 -0.002350 -0.006751 0.000000 0.000000 0.000000
# 2 -0.002350 0.017128 -0.006750 0.000000 0.000000 0.000000
# 3 -0.006751 -0.006750 0.016036 0.000000 0.000000 0.000000
# 4 0.000000 0.000000 0.000000 0.061852 0.000000 0.000000
# 5 0.000000 0.000000 0.000000 0.000000 0.047925 0.000000
# 6 0.000000 0.000000 0.000000 0.000000 0.000000 0.040136
#
#
# Mechanical properties :
#
#
# Convention : Reuss Voigt Hill
#
# Bulk Modulus (GPa) = 58.44590 60.82430 59.63510
# Shear Modulus (GPa) = 21.17497 22.00297 21.58897
#
# Velocity S-wave (km/s) = 3.48020 3.54759 3.51406
# Velocity P-wave (km/s) = 7.04126 7.18131 7.11163
#
# Compressibility (1/GPa) = 0.01710984
#
# Stress axis : x y z
#
# Youngs Moduli (GPa) = 63.91208 58.38285 62.36045
#
# Poissons Ratio (x) = 0.13719 0.42097
# Poissons Ratio (y) = 0.15018 0.42093
# Poissons Ratio (z) = 0.43145 0.39408
#
# Static dielectric constant tensor:
#      x y z
#    x 3.260530 0.000000 0.000000 
#    y 0.000000 3.243010 0.000000 
#    z 0.000000 0.000000 3.132420 
# 
# 
# High freq. dielectric constant tensor:
#      x y z
#    x 1.665180 0.000000 0.000000 
#    y 0.000000 1.659930 0.000000 
#    z 0.000000 0.000000 1.660280 
# 
# From -- ./inp_files/76005.got.cif
#   From: 2010.03.12/outbox.cif.g09.slc.cpg/sg65_39_cif.got.tgz:76005.got - 2010.04.10 20:52:16.
