data_PCOD8270055
_publ_section_title
;
Structure prediction by ZEFSAII (Michael W. Deem and Ramdas Pophale) SiO2 
 PCOD8270055
Probable space group: C M M M
;
_chemical_formula_sum "Si O2"
_cell_formula_units_Z 112
_cell_length_a 18.558557
_cell_length_b 9.427159
_cell_length_c 35.920400
_cell_angle_alpha 90.000000
_cell_angle_beta 90.000000
_cell_angle_gamma 90.000000
_cell_volume 6284.434460
_symmetry_space_group_name_H-M "C M M M"
_symmetry_group_IT_number 65
_symmetry_cell_setting 'orthorhombic'
loop_
_space_group_symop_operation_xyz
x,y,z
-x,-y,z
x,-y,-z
-x,y,-z
-x,-y,-z
x,y,-z
-x,y,z
x,-y,z
1/2+x,1/2+y,z
1/2-x,1/2-y,z
1/2+x,1/2-y,-z
1/2-x,1/2+y,-z
1/2-x,1/2-y,-z
1/2+x,1/2+y,-z
1/2-x,1/2+y,z
1/2+x,1/2-y,z
loop_
_atom_site_type_symbol
_atom_site_label
_atom_site_fract_x
_atom_site_fract_y
_atom_site_fract_z
Si Si1 0.580394 0.331727 0.458645
Si Si2 0.917395 0.664745 0.248813
Si Si3 0.580150 0.167858 0.108673
Si Si4 0.324444 0.832352 0.177428
Si Si5 0.176384 0.832456 0.391299
Si Si6 0.821050 0.334969 0.042218
Si Si7 0.582741 0.336077 0.679844
O O1 0.606053 0.284717 0.500000
O O2 0.500000 0.271845 0.450826
O O3 0.577301 0.500000 0.455792
O O4 0.635902 0.273515 0.428049
O O5 0.909817 0.500000 0.257954
O O6 0.868752 0.708934 0.214092
O O7 0.889003 0.748675 0.284762
O O8 0.000000 0.704784 0.239428
O O9 0.500000 0.234689 0.111305
O O10 0.629472 0.223403 0.142346
O O11 0.614745 0.213851 0.069313
O O12 0.574086 0.000000 0.111528
O O13 0.250000 0.750000 0.177946
O O14 0.309663 0.000000 0.174998
O O15 0.250000 0.750000 0.387366
O O16 0.128233 0.792224 0.355958
O O17 0.190914 0.000000 0.393716
O O18 0.803080 0.500000 0.047554
O O19 0.750000 0.250000 0.053411
O O20 0.845212 0.301111 0.000000
O O21 0.500000 0.299244 0.670897
O O22 0.592775 0.500000 0.689691
#
# Coordination Sequence:
#
# PCOD8270055 Si02
#       7
#    16  16  16  16  16  16  16
#     4   8  14  27  49  73  93 118 157 199 232 267
#     4   9  18  33  52  72  93 119 154 194 234 277
#     4   9  17  30  49  71  94 122 158 198 235 272
#     4  10  20  33  50  71  95 124 156 191 233 280
#     4  10  20  32  47  70  99 127 155 190 232 277
#     4   9  17  29  47  71  97 125 156 191 232 278
#     4   9  18  33  52  71  92 122 159 196 232 271
#
# _framework density 17.821811
#
# number of rings (size 3 to 8) (size 9 to 14) (size 15 to 20)
#    0.000    2.857    0.000    1.714    0.000    5.714 
#    0.000    4.286    0.000    3.857    0.000    3.000 
#    0.000    0.000    0.000    0.000    0.000    0.000 
#
# Total GULP energy -694350.051996 kJ/mol
# GULP energy per Si atom -12399.108071 kJ/mol
# Density = 1.778125 g / cm^3
# Si number density = 17.821811 Si / 1000 Ang^3
#
#
#
# Elastic Constant Matrix: (Units=GPa)
#
#
# Indices 1 2 3 4 5 6 
#
# 1 137.2516 43.0992 97.6471 0.0000 0.0000 0.0000
# 2 43.0992 30.3484 45.0437 0.0000 0.0000 0.0000
# 3 97.6471 45.0437 163.8554 0.0000 0.0000 0.0000
# 4 0.0000 0.0000 0.0000 19.8124 0.0000 0.0000
# 5 0.0000 0.0000 0.0000 0.0000 22.9891 0.0000
# 6 0.0000 0.0000 0.0000 0.0000 0.0000 27.1367
#
#
#
# Elastic Compliance Matrix: (Units=1/GPa)
#
#
# Indices 1 2 3 4 5 6 
#
# 1 0.015540 -0.014061 -0.005395 0.000000 0.000000 0.000000
# 2 -0.014061 0.068383 -0.010419 0.000000 0.000000 0.000000
# 3 -0.005395 -0.010419 0.012182 0.000000 0.000000 0.000000
# 4 0.000000 0.000000 0.000000 0.050473 0.000000 0.000000
# 5 0.000000 0.000000 0.000000 0.000000 0.043499 0.000000
# 6 0.000000 0.000000 0.000000 0.000000 0.000000 0.036850
#
#
# Mechanical properties :
#
#
# Convention : Reuss Voigt Hill
#
# Bulk Modulus (GPa) = 27.50663 78.11505 52.81084
# Shear Modulus (GPa) = 16.73375 23.69867 20.21621
#
# Velocity S-wave (km/s) = 3.06755 3.65054 3.37167
# Velocity P-wave (km/s) = 5.29285 7.85461 6.69735
#
# Compressibility (1/GPa) = 0.03635487
#
# Stress axis : x y z
#
# Youngs Moduli (GPa) = 64.35131 14.62341 82.08526
#
# Poissons Ratio (x) = 0.20562 0.44288
# Poissons Ratio (y) = 0.90483 0.85527
# Poissons Ratio (z) = 0.34720 0.15237
#
# Static dielectric constant tensor:
#      x y z
#    x 3.363970 0.000000 0.000000 
#    y 0.000000 2.971590 0.000000 
#    z 0.000000 0.000000 3.572690 
# 
# 
# High freq. dielectric constant tensor:
#      x y z
#    x 1.689850 0.000000 0.000000 
#    y 0.000000 1.650900 0.000000 
#    z 0.000000 0.000000 1.706710 
# 
# From -- ./inp_files/77662.got.cif
#   From: 2010.03.12/outbox.cif.g09.slc.cpg/sg65_39_cif.got.tgz:77662.got - 2010.04.10 20:52:16.
