data_PCOD8270761
_publ_section_title
;
Structure prediction by ZEFSAII (Michael W. Deem and Ramdas Pophale) SiO2 
 PCOD8270761
Probable space group: C M M M
;
_chemical_formula_sum "Si O2"
_cell_formula_units_Z 120
_cell_length_a 27.102730
_cell_length_b 26.994492
_cell_length_c 9.120916
_cell_angle_alpha 90.000000
_cell_angle_beta 90.000000
_cell_angle_gamma 90.000000
_cell_volume 6673.084953
_symmetry_space_group_name_H-M "C M M M"
_symmetry_group_IT_number 65
_symmetry_cell_setting 'orthorhombic'
loop_
_space_group_symop_operation_xyz
x,y,z
-x,-y,z
x,-y,-z
-x,y,-z
-x,-y,-z
x,y,-z
-x,y,z
x,-y,z
1/2+x,1/2+y,z
1/2-x,1/2-y,z
1/2+x,1/2-y,-z
1/2-x,1/2+y,-z
1/2-x,1/2-y,-z
1/2+x,1/2+y,-z
1/2-x,1/2+y,z
1/2+x,1/2-y,z
loop_
_atom_site_type_symbol
_atom_site_label
_atom_site_fract_x
_atom_site_fract_y
_atom_site_fract_z
Si Si1 0.884098 0.093428 0.826585
Si Si2 0.557426 0.209589 0.329380
Si Si3 0.364911 0.145228 0.170654
Si Si4 0.317433 0.943188 0.330069
Si Si5 0.443135 0.309810 0.169961
Si Si6 0.554738 0.500000 0.825686
Si Si7 0.215555 0.893422 0.670379
Si Si8 0.262242 0.194188 0.168949
O O1 0.909301 0.144802 0.777915
O O2 0.917993 0.048944 0.768815
O O3 0.831594 0.085299 0.752446
O O4 0.877214 0.091503 0.000000
O O5 0.570327 0.210265 0.500000
O O6 0.500000 0.199218 0.300102
O O7 0.587216 0.165771 0.252225
O O8 0.573172 0.262270 0.262519
O O9 0.353045 0.090805 0.232815
O O10 0.319540 0.182628 0.199896
O O11 0.376891 0.140151 0.000000
O O12 0.329299 0.933059 0.500000
O O13 0.260497 0.930638 0.296626
O O14 0.327242 0.000000 0.287092
O O15 0.500000 0.324186 0.198751
O O16 0.434314 0.297205 0.000000
O O17 0.500000 0.500000 0.758600
O O18 0.552392 0.500000 0.000000
O O19 0.203772 0.889173 0.500000
O O20 0.227569 0.839040 0.730360
O O21 0.250000 0.250000 0.212807
O O22 0.248955 0.183401 0.000000
#
# Coordination Sequence:
#
# PCOD8270761 Si02
#       8
#    16  16  16  16  16   8  16  16
#     4  10  20  33  52  76 102 134 175 226 278 324
#     4  10  21  36  55  80 111 145 178 214 257 311
#     4  10  20  34  55  83 110 140 176 219 268 314
#     4   9  19  37  58  77 104 143 180 216 260 317
#     4   9  18  33  52  73  99 135 178 222 268 317
#     4   9  18  34  55  77  99 131 181 235 282 327
#     4  10  21  34  50  76 106 139 177 215 259 312
#     4   9  19  35  53  74 105 141 175 215 262 312
#
# _framework density 17.982688
#
# number of rings (size 3 to 8) (size 9 to 14) (size 15 to 20)
#    0.000    2.467    0.000    1.600    2.800    4.533 
#    0.000    0.000    0.000    2.000    0.000    2.800 
#    0.000    0.000    0.000    0.000    0.000    0.000 
#
# Total GULP energy -744212.876363 kJ/mol
# GULP energy per Si atom -12403.547939 kJ/mol
# Density = 1.794176 g / cm^3
# Si number density = 17.982688 Si / 1000 Ang^3
#
#
#
# Elastic Constant Matrix: (Units=GPa)
#
#
# Indices 1 2 3 4 5 6 
#
# 1 94.9238 66.5803 52.0738 0.0000 0.0000 0.0000
# 2 66.5803 139.9592 62.2378 0.0000 0.0000 0.0000
# 3 52.0738 62.2378 76.5884 0.0000 0.0000 0.0000
# 4 0.0000 0.0000 0.0000 20.7391 0.0000 0.0000
# 5 0.0000 0.0000 0.0000 0.0000 29.7376 0.0000
# 6 0.0000 0.0000 0.0000 0.0000 0.0000 25.0377
#
#
#
# Elastic Compliance Matrix: (Units=1/GPa)
#
#
# Indices 1 2 3 4 5 6 
#
# 1 0.018892 -0.005128 -0.008678 0.000000 0.000000 0.000000
# 2 -0.005128 0.012580 -0.006736 0.000000 0.000000 0.000000
# 3 -0.008678 -0.006736 0.024431 0.000000 0.000000 0.000000
# 4 0.000000 0.000000 0.000000 0.048218 0.000000 0.000000
# 5 0.000000 0.000000 0.000000 0.000000 0.033627 0.000000
# 6 0.000000 0.000000 0.000000 0.000000 0.000000 0.039940
#
#
# Mechanical properties :
#
#
# Convention : Reuss Voigt Hill
#
# Bulk Modulus (GPa) = 67.48144 74.80614 71.14379
# Shear Modulus (GPa) = 22.35013 23.80817 23.07915
#
# Velocity S-wave (km/s) = 3.52926 3.64256 3.58636
# Velocity P-wave (km/s) = 7.36307 7.70586 7.53641
#
# Compressibility (1/GPa) = 0.01481889
#
# Stress axis : x y z
#
# Youngs Moduli (GPa) = 52.93134 79.49143 40.93203
#
# Poissons Ratio (x) = 0.40767 0.35520
# Poissons Ratio (y) = 0.27146 0.27571
# Poissons Ratio (z) = 0.45932 0.53545
#
# Static dielectric constant tensor:
#      x y z
#    x 3.280230 0.000000 0.000000 
#    y 0.000000 3.312140 0.000000 
#    z 0.000000 0.000000 3.266350 
# 
# 
# High freq. dielectric constant tensor:
#      x y z
#    x 1.691610 0.000000 0.000000 
#    y 0.000000 1.695770 0.000000 
#    z 0.000000 0.000000 1.691090 
# 
# From -- ./inp_files/17052.got.cif
#   From: 2010.03.12/outbox.cif.g09.slc.cpg/sg65_9_cif.got.tgz:17052.got - 2010.04.10 20:52:16.
