data_PCOD8270020
_publ_section_title
;
Structure prediction by ZEFSAII (Michael W. Deem and Ramdas Pophale) SiO2 
 PCOD8270020
Probable space group: C M M M
;
_chemical_formula_sum "Si O2"
_cell_formula_units_Z 104
_cell_length_a 9.395590
_cell_length_b 18.963654
_cell_length_c 33.387179
_cell_angle_alpha 90.000000
_cell_angle_beta 90.000000
_cell_angle_gamma 90.000000
_cell_volume 5948.751199
_symmetry_space_group_name_H-M "C M M M"
_symmetry_group_IT_number 65
_symmetry_cell_setting 'orthorhombic'
loop_
_space_group_symop_operation_xyz
x,y,z
-x,-y,z
x,-y,-z
-x,y,-z
-x,-y,-z
x,y,-z
-x,y,z
x,-y,z
1/2+x,1/2+y,z
1/2-x,1/2-y,z
1/2+x,1/2-y,-z
1/2-x,1/2+y,-z
1/2-x,1/2-y,-z
1/2+x,1/2+y,-z
1/2-x,1/2+y,z
1/2+x,1/2-y,z
loop_
_atom_site_type_symbol
_atom_site_label
_atom_site_fract_x
_atom_site_fract_y
_atom_site_fract_z
Si Si1 0.667811 0.823269 0.000000
Si Si2 0.331111 0.421979 0.612891
Si Si3 0.833894 0.580632 0.074238
Si Si4 0.164780 0.178973 0.455390
Si Si5 0.831300 0.920912 0.701692
Si Si6 0.331700 0.323035 0.227316
Si Si7 0.335262 0.580651 0.152420
O O1 0.750000 0.750000 0.000000
O O2 0.714209 0.868501 0.038491
O O3 0.500000 0.808364 0.000000
O O4 0.500000 0.424441 0.609684
O O5 0.268517 0.500000 0.606297
O O6 0.269083 0.373324 0.577699
O O7 0.285934 0.394821 0.657164
O O8 0.794727 0.500000 0.062817
O O9 0.752486 0.605443 0.113874
O O10 0.000000 0.587924 0.082965
O O11 0.184183 0.146488 0.500000
O O12 0.250000 0.250000 0.451192
O O13 0.000000 0.195063 0.446725
O O14 0.772793 0.865300 0.733964
O O15 0.000000 0.924608 0.705409
O O16 0.771083 0.000000 0.709778
O O17 0.500000 0.308910 0.230041
O O18 0.250000 0.250000 0.224343
O O19 0.291675 0.369676 0.188976
O O20 0.500000 0.588851 0.141631
O O21 0.299014 0.500000 0.164215
#
# Coordination Sequence:
#
# PCOD8270020 Si02
#       7
#     8  16  16  16  16  16  16
#     4  10  21  35  51  73 101 130 158 190 230 274
#     4   8  14  25  43  67  89 110 145 192 232 264
#     4   9  18  34  55  75  95 123 159 195 230 270
#     4   9  17  28  42  62  89 119 148 180 222 271
#     4   8  14  27  47  67  87 115 152 190 226 267
#     4  10  20  32  47  69  96 123 151 186 228 272
#     4   9  18  33  52  72  93 120 156 194 229 267
#
# _framework density 17.482661
#
# number of rings (size 3 to 8) (size 9 to 14) (size 15 to 20)
#    0.000    3.077    0.000    1.615    0.000    5.538 
#    0.000    4.615    0.000    4.154    0.000    4.308 
#    0.000    0.000    0.000    0.000    0.000    0.000 
#
# Total GULP energy -644598.727185 kJ/mol
# GULP energy per Si atom -12396.129369 kJ/mol
# Density = 1.744287 g / cm^3
# Si number density = 17.482661 Si / 1000 Ang^3
#
#
#
# Elastic Constant Matrix: (Units=GPa)
#
#
# Indices 1 2 3 4 5 6 
#
# 1 28.4650 37.5621 45.2624 0.0000 0.0000 0.0000
# 2 37.5621 119.4805 102.5002 0.0000 0.0000 0.0000
# 3 45.2624 102.5002 177.7074 0.0000 0.0000 0.0000
# 4 0.0000 0.0000 0.0000 22.8614 0.0000 0.0000
# 5 0.0000 0.0000 0.0000 0.0000 17.2344 0.0000
# 6 0.0000 0.0000 0.0000 0.0000 0.0000 25.1250
#
#
#
# Elastic Compliance Matrix: (Units=1/GPa)
#
#
# Indices 1 2 3 4 5 6 
#
# 1 0.067739 -0.012856 -0.009838 0.000000 0.000000 0.000000
# 2 -0.012856 0.019007 -0.007689 0.000000 0.000000 0.000000
# 3 -0.009838 -0.007689 0.012568 0.000000 0.000000 0.000000
# 4 0.000000 0.000000 0.000000 0.043742 0.000000 0.000000
# 5 0.000000 0.000000 0.000000 0.000000 0.058023 0.000000
# 6 0.000000 0.000000 0.000000 0.000000 0.000000 0.039801
#
#
# Mechanical properties :
#
#
# Convention : Reuss Voigt Hill
#
# Bulk Modulus (GPa) = 25.94126 77.36692 51.65409
# Shear Modulus (GPa) = 15.89849 22.39938 19.14894
#
# Velocity S-wave (km/s) = 3.01887 3.58332 3.31314
# Velocity P-wave (km/s) = 5.19827 7.84027 6.65176
#
# Compressibility (1/GPa) = 0.03854863
#
# Stress axis : x y z
#
# Youngs Moduli (GPa) = 14.76257 52.61147 79.56780
#
# Poissons Ratio (x) = 0.67636 0.78280
# Poissons Ratio (y) = 0.18978 0.61179
# Poissons Ratio (z) = 0.14524 0.40452
#
# Static dielectric constant tensor:
#      x y z
#    x 2.885040 0.000000 0.000000 
#    y 0.000000 3.313840 0.000000 
#    z 0.000000 0.000000 3.580390 
# 
# 
# High freq. dielectric constant tensor:
#      x y z
#    x 1.635310 0.000000 0.000000 
#    y 0.000000 1.672560 0.000000 
#    z 0.000000 0.000000 1.691590 
# 
# From -- ./inp_files/77438.got.cif
#   From: 2010.03.12/outbox.cif.g09.slc.cpg/sg65_39_cif.got.tgz:77438.got - 2010.04.10 20:52:16.
