data_PCOD8270400
_publ_section_title
;
Structure prediction by ZEFSAII (Michael W. Deem and Ramdas Pophale) SiO2 
 PCOD8270400
Probable space group: C M M M
;
_chemical_formula_sum "Si O2"
_cell_formula_units_Z 88
_cell_length_a 30.862128
_cell_length_b 8.928099
_cell_length_c 17.403876
_cell_angle_alpha 90.000000
_cell_angle_beta 90.000000
_cell_angle_gamma 90.000000
_cell_volume 4795.466328
_symmetry_space_group_name_H-M "C M M M"
_symmetry_group_IT_number 65
_symmetry_cell_setting 'orthorhombic'
loop_
_space_group_symop_operation_xyz
x,y,z
-x,-y,z
x,-y,-z
-x,y,-z
-x,-y,-z
x,y,-z
-x,y,z
x,-y,z
1/2+x,1/2+y,z
1/2-x,1/2-y,z
1/2+x,1/2-y,-z
1/2-x,1/2+y,-z
1/2-x,1/2-y,-z
1/2+x,1/2+y,-z
1/2-x,1/2+y,z
1/2+x,1/2-y,z
loop_
_atom_site_type_symbol
_atom_site_label
_atom_site_fract_x
_atom_site_fract_y
_atom_site_fract_z
Si Si1 0.206391 0.178401 0.737972
Si Si2 0.951793 0.323149 0.912745
Si Si3 0.909808 0.829112 0.365709
Si Si4 0.500000 0.333207 0.410192
Si Si5 0.174362 0.674801 0.413213
Si Si6 0.882708 0.832320 0.193505
O O1 0.250000 0.250000 0.773206
O O2 0.201641 0.234067 0.649941
O O3 0.166452 0.229570 0.792978
O O4 0.209114 0.000000 0.735295
O O5 0.950453 0.500000 0.907790
O O6 0.911501 0.264506 0.863646
O O7 0.000000 0.267962 0.884780
O O8 0.944792 0.268872 0.000000
O O9 0.875236 0.727073 0.409034
O O10 0.905260 0.829601 0.275151
O O11 0.956306 0.752390 0.382085
O O12 0.906531 0.000000 0.397788
O O13 0.500000 0.500000 0.374052
O O14 0.500000 0.339974 0.500000
O O15 0.191680 0.706160 0.500000
O O16 0.177474 0.500000 0.393178
O O17 0.880617 0.000000 0.160035
#
# Coordination Sequence:
#
# PCOD8270400 Si02
#       6
#    16  16  16   8  16  16
#     4  10  21  37  56  78 103 133 172 216 263 315
#     4   9  19  35  54  79 111 144 176 208 246 298
#     4   9  18  31  47  68  95 131 174 217 259 309
#     4   9  16  26  43  65  90 127 172 214 257 303
#     4  10  20  33  49  70  98 132 171 217 267 315
#     4   9  19  33  52  78 105 134 169 212 258 304
#
# _framework density 18.350667000000001
#
# number of rings (size 3 to 8) (size 9 to 14) (size 15 to 20)
#    0.000    2.636    0.000    3.273    1.273    6.909 
#    0.000    1.364    0.000    2.182    0.000    0.000 
#    0.000    0.000    0.000    0.000    0.000    0.000 
#
# Total GULP energy -545264.470551 kJ/mol
# GULP energy per Si atom -12392.374331 kJ/mol
# Density = 1.830890 g / cm^3
# Si number density = 18.350667 Si / 1000 Ang^3
#
#
#
# Elastic Constant Matrix: (Units=GPa)
#
#
# Indices 1 2 3 4 5 6 
#
# 1 154.6875 37.0477 48.3415 0.0000 0.0000 0.0000
# 2 37.0477 60.5013 30.2564 0.0000 0.0000 0.0000
# 3 48.3415 30.2564 64.1730 0.0000 0.0000 0.0000
# 4 0.0000 0.0000 0.0000 25.6741 0.0000 0.0000
# 5 0.0000 0.0000 0.0000 0.0000 18.5398 0.0000
# 6 0.0000 0.0000 0.0000 0.0000 0.0000 130.0405
#
#
#
# Elastic Compliance Matrix: (Units=1/GPa)
#
#
# Indices 1 2 3 4 5 6 
#
# 1 0.008781 -0.002708 -0.005339 0.000000 0.000000 0.000000
# 2 -0.002708 0.022463 -0.008551 0.000000 0.000000 0.000000
# 3 -0.005339 -0.008551 0.023636 0.000000 0.000000 0.000000
# 4 0.000000 0.000000 0.000000 0.038950 0.000000 0.000000
# 5 0.000000 0.000000 0.000000 0.000000 0.053938 0.000000
# 6 0.000000 0.000000 0.000000 0.000000 0.000000 0.007690
#
#
# Mechanical properties :
#
#
# Convention : Reuss Voigt Hill
#
# Bulk Modulus (GPa) = 46.11292 56.73924 51.42608
# Shear Modulus (GPa) = 25.52563 45.76530 35.64547
#
# Velocity S-wave (km/s) = 3.73365 4.99935 4.41212
# Velocity P-wave (km/s) = 6.61590 8.01942 7.35123
#
# Compressibility (1/GPa) = 0.02168590
#
# Stress axis : x y z
#
# Youngs Moduli (GPa) = 113.87656 44.51774 42.30804
#
# Poissons Ratio (x) = 0.12053 0.22586
# Poissons Ratio (y) = 0.30832 0.36179
# Poissons Ratio (z) = 0.60793 0.38068
#
# Static dielectric constant tensor:
#      x y z
#    x 3.684710 0.000000 0.000000 
#    y 0.000000 3.267270 0.000000 
#    z 0.000000 0.000000 3.178980 
# 
# 
# High freq. dielectric constant tensor:
#      x y z
#    x 1.724710 0.000000 0.000000 
#    y 0.000000 1.695960 0.000000 
#    z 0.000000 0.000000 1.685960 
# 
# From -- ./inp_files/58028.got.cif
#   From: 2010.03.12/outbox.cif.g09.slc.cpg/sg65_30_cif.got.tgz:58028.got - 2010.04.10 20:52:16.
