data_PCOD8270633
_publ_section_title
;
Structure prediction by ZEFSAII (Michael W. Deem and Ramdas Pophale) SiO2 
 PCOD8270633
Probable space group: C M M M
;
_chemical_formula_sum "Si O2"
_cell_formula_units_Z 88
_cell_length_a 18.413908
_cell_length_b 9.451933
_cell_length_c 28.924367
_cell_angle_alpha 90.000000
_cell_angle_beta 90.000000
_cell_angle_gamma 90.000000
_cell_volume 5034.200017
_symmetry_space_group_name_H-M "C M M M"
_symmetry_group_IT_number 65
_symmetry_cell_setting 'orthorhombic'
loop_
_space_group_symop_operation_xyz
x,y,z
-x,-y,z
x,-y,-z
-x,y,-z
-x,-y,-z
x,y,-z
-x,y,z
x,-y,z
1/2+x,1/2+y,z
1/2-x,1/2-y,z
1/2+x,1/2-y,-z
1/2-x,1/2+y,-z
1/2-x,1/2-y,-z
1/2+x,1/2+y,-z
1/2-x,1/2+y,z
1/2+x,1/2-y,z
loop_
_atom_site_type_symbol
_atom_site_label
_atom_site_fract_x
_atom_site_fract_y
_atom_site_fract_z
Si Si1 0.322769 0.662682 0.048868
Si Si2 0.324939 0.166890 0.587234
Si Si3 0.824124 0.165489 0.851396
Si Si4 0.581663 0.832376 0.500000
Si Si5 0.916489 0.664356 0.323100
Si Si6 0.416041 0.336040 0.764897
O O1 0.299535 0.500000 0.049447
O O2 0.250000 0.750000 0.047864
O O3 0.362475 0.695815 0.098006
O O4 0.366512 0.694347 0.000000
O O5 0.250000 0.250000 0.585586
O O6 0.374997 0.219518 0.545050
O O7 0.367446 0.207425 0.633652
O O8 0.309118 0.000000 0.584063
O O9 0.750000 0.250000 0.846651
O O10 0.877425 0.218562 0.811329
O O11 0.807176 0.000000 0.845433
O O12 0.500000 0.767802 0.500000
O O13 0.575569 0.000000 0.500000
O O14 0.909163 0.500000 0.311427
O O15 0.886459 0.750101 0.279098
O O16 0.000000 0.704247 0.334351
O O17 0.500000 0.303925 0.772520
O O18 0.400613 0.500000 0.755341
#
# Coordination Sequence:
#
# PCOD8270633 Si02
#       6
#    16  16  16   8  16  16
#     4   8  13  22  37  57  81 108 138 174 216 260
#     4  10  20  33  51  75 101 126 152 188 232 273
#     4   9  17  28  43  64  88 113 144 183 223 265
#     4   9  17  32  55  77  96 125 164 196 222 261
#     4   9  18  33  51  69  89 117 156 194 223 259
#     4   9  18  32  48  65  88 120 153 184 223 270
#
# _framework density 17.480433999999999
#
# number of rings (size 3 to 8) (size 9 to 14) (size 15 to 20)
#    0.000    3.000    0.000    0.818    0.000    4.364 
#    0.000    3.636    0.000    2.727    0.000    3.818 
#    0.000    0.000    0.000   34.000    0.000   18.545 
#
# Total GULP energy -545127.759159 kJ/mol
# GULP energy per Si atom -12389.267254 kJ/mol
# Density = 1.744065 g / cm^3
# Si number density = 17.480434 Si / 1000 Ang^3
#
#
#
# Elastic Constant Matrix: (Units=GPa)
#
#
# Indices 1 2 3 4 5 6 
#
# 1 86.9456 31.6375 83.3418 0.0000 0.0000 0.0000
# 2 31.6375 32.4924 49.9842 0.0000 0.0000 0.0000
# 3 83.3418 49.9842 215.8436 0.0000 0.0000 0.0000
# 4 0.0000 0.0000 0.0000 23.2480 0.0000 0.0000
# 5 0.0000 0.0000 0.0000 0.0000 20.5569 0.0000
# 6 0.0000 0.0000 0.0000 0.0000 0.0000 23.1357
#
#
#
# Elastic Compliance Matrix: (Units=1/GPa)
#
#
# Indices 1 2 3 4 5 6 
#
# 1 0.021058 -0.012420 -0.005255 0.000000 0.000000 0.000000
# 2 -0.012420 0.055133 -0.007972 0.000000 0.000000 0.000000
# 3 -0.005255 -0.007972 0.008508 0.000000 0.000000 0.000000
# 4 0.000000 0.000000 0.000000 0.043014 0.000000 0.000000
# 5 0.000000 0.000000 0.000000 0.000000 0.048646 0.000000
# 6 0.000000 0.000000 0.000000 0.000000 0.000000 0.043223
#
#
# Mechanical properties :
#
#
# Convention : Reuss Voigt Hill
#
# Bulk Modulus (GPa) = 29.93522 73.91209 51.92365
# Shear Modulus (GPa) = 17.72983 24.74266 21.23624
#
# Velocity S-wave (km/s) = 3.18821 3.76633 3.48926
# Velocity P-wave (km/s) = 5.54212 7.82868 6.78245
#
# Compressibility (1/GPa) = 0.03340547
#
# Stress axis : x y z
#
# Youngs Moduli (GPa) = 47.48856 18.13788 117.53706
#
# Poissons Ratio (x) = 0.22528 0.61761
# Poissons Ratio (y) = 0.58983 0.93698
# Poissons Ratio (z) = 0.24953 0.14459
#
# Static dielectric constant tensor:
#      x y z
#    x 3.100690 0.000000 0.000000 
#    y 0.000000 3.025620 0.000000 
#    z 0.000000 0.000000 3.944580 
# 
# 
# High freq. dielectric constant tensor:
#      x y z
#    x 1.640810 0.000000 0.000000 
#    y 0.000000 1.661200 0.000000 
#    z 0.000000 0.000000 1.705940 
# 
# From -- ./inp_files/70987.got.cif
#   From: 2010.03.12/outbox.cif.g09.slc.cpg/sg65_36_cif.got.tgz:70987.got - 2010.04.10 20:52:16.
