data_PCOD8270201
_publ_section_title
;
Structure prediction by ZEFSAII (Michael W. Deem and Ramdas Pophale) SiO2 
 PCOD8270201
Probable space group: C M M M
;
_chemical_formula_sum "Si O2"
_cell_formula_units_Z 88
_cell_length_a 18.548194
_cell_length_b 9.282463
_cell_length_c 28.191348
_cell_angle_alpha 90.000000
_cell_angle_beta 90.000000
_cell_angle_gamma 90.000000
_cell_volume 4853.786831
_symmetry_space_group_name_H-M "C M M M"
_symmetry_group_IT_number 65
_symmetry_cell_setting 'orthorhombic'
loop_
_space_group_symop_operation_xyz
x,y,z
-x,-y,z
x,-y,-z
-x,y,-z
-x,-y,-z
x,y,-z
-x,y,z
x,-y,z
1/2+x,1/2+y,z
1/2-x,1/2-y,z
1/2+x,1/2-y,-z
1/2-x,1/2+y,-z
1/2-x,1/2-y,-z
1/2+x,1/2+y,-z
1/2-x,1/2+y,z
1/2+x,1/2-y,z
loop_
_atom_site_type_symbol
_atom_site_label
_atom_site_fract_x
_atom_site_fract_y
_atom_site_fract_z
Si Si1 0.174591 0.829543 0.000000
Si Si2 0.085780 0.337723 0.715811
Si Si3 0.414394 0.336601 0.373399
Si Si4 0.917578 0.830868 0.090058
Si Si5 0.177705 0.667435 0.555279
Si Si6 0.414420 0.161943 0.179842
O O1 0.250000 0.750000 0.000000
O O2 0.129712 0.779215 0.045795
O O3 0.187173 0.000000 0.000000
O O4 0.113218 0.500000 0.705217
O O5 0.116091 0.229593 0.675890
O O6 0.113167 0.287082 0.768053
O O7 0.000000 0.336535 0.715014
O O8 0.500000 0.332304 0.374297
O O9 0.385846 0.500000 0.378051
O O10 0.388016 0.239785 0.416964
O O11 0.884040 0.761984 0.137875
O O12 0.000000 0.780871 0.081208
O O13 0.913724 0.000000 0.096761
O O14 0.161143 0.687520 0.500000
O O15 0.185089 0.500000 0.568888
O O16 0.250000 0.750000 0.570258
O O17 0.500000 0.169607 0.179648
O O18 0.387754 0.000000 0.170141
#
# Coordination Sequence:
#
# PCOD8270201 Si02
#       6
#     8  16  16  16  16  16
#     4  10  21  35  49  67  93 126 160 192 234 286
#     4   8  14  26  44  67  98 132 161 193 238 290
#     4  10  20  32  49  76 107 136 167 205 246 289
#     4   9  17  30  49  71  94 121 155 196 238 281
#     4  10  21  37  56  75  97 129 168 208 251 300
#     4   8  14  25  43  69  98 125 155 194 239 283
#
# _framework density 18.130174
#
# number of rings (size 3 to 8) (size 9 to 14) (size 15 to 20)
#    0.000    2.909    0.000    2.455    0.000    5.091 
#    0.000    5.455    0.000    3.818    0.000    2.545 
#    0.000    0.000    0.000    0.000    0.000    0.000 
#
# Total GULP energy -545433.167822 kJ/mol
# GULP energy per Si atom -12396.208360 kJ/mol
# Density = 1.808891 g / cm^3
# Si number density = 18.130174 Si / 1000 Ang^3
#
#
#
# Elastic Constant Matrix: (Units=GPa)
#
#
# Indices 1 2 3 4 5 6 
#
# 1 40.2876 32.7977 39.9431 0.0000 0.0000 0.0000
# 2 32.7977 102.2520 72.7789 0.0000 0.0000 0.0000
# 3 39.9431 72.7789 134.3785 0.0000 0.0000 0.0000
# 4 0.0000 0.0000 0.0000 38.0869 0.0000 0.0000
# 5 0.0000 0.0000 0.0000 0.0000 3.6624 0.0000
# 6 0.0000 0.0000 0.0000 0.0000 0.0000 24.2165
#
#
#
# Elastic Compliance Matrix: (Units=1/GPa)
#
#
# Indices 1 2 3 4 5 6 
#
# 1 0.037834 -0.006722 -0.007605 0.000000 0.000000 0.000000
# 2 -0.006722 0.017109 -0.007268 0.000000 0.000000 0.000000
# 3 -0.007605 -0.007268 0.013639 0.000000 0.000000 0.000000
# 4 0.000000 0.000000 0.000000 0.026256 0.000000 0.000000
# 5 0.000000 0.000000 0.000000 0.000000 0.273045 0.000000
# 6 0.000000 0.000000 0.000000 0.000000 0.000000 0.041294
#
#
# Mechanical properties :
#
#
# Convention : Reuss Voigt Hill
#
# Bulk Modulus (GPa) = 39.38442 63.10640 51.24541
# Shear Modulus (GPa) = 10.84995 21.95305 16.40150
#
# Velocity S-wave (km/s) = 2.44897 3.48351 3.01101
# Velocity P-wave (km/s) = 5.45591 7.14582 6.35727
#
# Compressibility (1/GPa) = 0.02539075
#
# Stress axis : x y z
#
# Youngs Moduli (GPa) = 26.43103 58.44837 73.32136
#
# Poissons Ratio (x) = 0.39292 0.55762
# Poissons Ratio (y) = 0.17768 0.53290
# Poissons Ratio (z) = 0.20101 0.42480
#
# Static dielectric constant tensor:
#      x y z
#    x 2.897740 0.000000 0.000000 
#    y 0.000000 3.472180 0.000000 
#    z 0.000000 0.000000 3.746390 
# 
# 
# High freq. dielectric constant tensor:
#      x y z
#    x 1.652520 0.000000 0.000000 
#    y 0.000000 1.703770 0.000000 
#    z 0.000000 0.000000 1.718590 
# 
# From -- ./inp_files/73078.got.cif
#   From: 2010.03.12/outbox.cif.g09.slc.cpg/sg65_37_cif.got.tgz:73078.got - 2010.04.10 20:52:16.
