data_PCOD8270565
_publ_section_title
;
Structure prediction by ZEFSAII (Michael W. Deem and Ramdas Pophale) SiO2 
 PCOD8270565
Probable space group: C M M M
;
_chemical_formula_sum "Si O2"
_cell_formula_units_Z 72
_cell_length_a 14.196388
_cell_length_b 33.520281
_cell_length_c 8.883596
_cell_angle_alpha 90.000000
_cell_angle_beta 90.000000
_cell_angle_gamma 90.000000
_cell_volume 4227.409422
_symmetry_space_group_name_H-M "C M M M"
_symmetry_group_IT_number 65
_symmetry_cell_setting 'orthorhombic'
loop_
_space_group_symop_operation_xyz
x,y,z
-x,-y,z
x,-y,-z
-x,y,-z
-x,-y,-z
x,y,-z
-x,y,z
x,-y,z
1/2+x,1/2+y,z
1/2-x,1/2-y,z
1/2+x,1/2-y,-z
1/2-x,1/2+y,-z
1/2-x,1/2-y,-z
1/2+x,1/2+y,-z
1/2-x,1/2+y,z
1/2+x,1/2-y,z
loop_
_atom_site_type_symbol
_atom_site_label
_atom_site_fract_x
_atom_site_fract_y
_atom_site_fract_z
Si Si1 0.111768 0.000000 0.830728
Si Si2 0.608520 0.580641 0.322401
Si Si3 0.721855 0.651932 0.822698
Si Si4 0.891729 0.311849 0.323797
Si Si5 0.891666 0.770129 0.172523
O O1 0.147786 0.960748 0.744757
O O2 0.000000 0.000000 0.831205
O O3 0.152302 0.000000 0.000000
O O4 0.619312 0.578816 0.500000
O O5 0.500000 0.587988 0.274867
O O6 0.672082 0.615434 0.257566
O O7 0.828899 0.655685 0.763989
O O8 0.668166 0.692117 0.774730
O O9 0.719754 0.644689 0.000000
O O10 0.873854 0.316076 0.500000
O O11 0.862637 0.267383 0.273568
O O12 0.000000 0.320334 0.280507
O O13 0.000000 0.781841 0.195521
O O14 0.869949 0.758631 0.000000
#
# Coordination Sequence:
#
# PCOD8270565 Si02
#       5
#     8  16  16  16  16
#     4   9  17  31  51  73 100 133 164 193 229 279
#     4  10  20  33  50  74 104 134 162 194 235 284
#     4  11  21  32  49  72  97 127 164 204 244 287
#     4  10  21  35  49  66  91 125 165 208 252 294
#     4   9  18  32  48  67  94 127 161 198 242 292
#
# _framework density 17.031706
#
# number of rings (size 3 to 8) (size 9 to 14) (size 15 to 20)
#    0.000    2.111    0.000    3.667    0.000    9.333 
#    0.000    2.222    0.000    0.000    0.000    0.778 
#    0.000    6.222    0.000    0.000    0.000    0.000 
#
# Total GULP energy -446514.354110 kJ/mol
# GULP energy per Si atom -12403.176503 kJ/mol
# Density = 1.699294 g / cm^3
# Si number density = 17.031706 Si / 1000 Ang^3
#
#
#
# Elastic Constant Matrix: (Units=GPa)
#
#
# Indices 1 2 3 4 5 6 
#
# 1 76.9119 63.3783 38.6290 0.0000 0.0000 0.0000
# 2 63.3783 102.3872 50.4033 0.0000 0.0000 0.0000
# 3 38.6290 50.4033 75.8535 0.0000 0.0000 0.0000
# 4 0.0000 0.0000 0.0000 51.6792 0.0000 0.0000
# 5 0.0000 0.0000 0.0000 0.0000 25.0229 0.0000
# 6 0.0000 0.0000 0.0000 0.0000 0.0000 14.7118
#
#
#
# Elastic Compliance Matrix: (Units=1/GPa)
#
#
# Indices 1 2 3 4 5 6 
#
# 1 0.027323 -0.014955 -0.003977 0.000000 0.000000 0.000000
# 2 -0.014955 0.022701 -0.007468 0.000000 0.000000 0.000000
# 3 -0.003977 -0.007468 0.020171 0.000000 0.000000 0.000000
# 4 0.000000 0.000000 0.000000 0.019350 0.000000 0.000000
# 5 0.000000 0.000000 0.000000 0.000000 0.039963 0.000000
# 6 0.000000 0.000000 0.000000 0.000000 0.000000 0.067973
#
#
# Mechanical properties :
#
#
# Convention : Reuss Voigt Hill
#
# Bulk Modulus (GPa) = 57.49094 62.21931 59.85513
# Shear Modulus (GPa) = 19.52518 25.13225 22.32872
#
# Velocity S-wave (km/s) = 3.38953 3.84554 3.62471
# Velocity P-wave (km/s) = 7.01050 7.50522 7.26207
#
# Compressibility (1/GPa) = 0.01739405
#
# Stress axis : x y z
#
# Youngs Moduli (GPa) = 36.59912 44.05149 49.57622
#
# Poissons Ratio (x) = 0.65881 0.19716
# Poissons Ratio (y) = 0.54735 0.37024
# Poissons Ratio (z) = 0.14555 0.32898
#
# Static dielectric constant tensor:
#      x y z
#    x 3.172290 0.000000 0.000000 
#    y 0.000000 3.149000 0.000000 
#    z 0.000000 0.000000 3.271860 
# 
# 
# High freq. dielectric constant tensor:
#      x y z
#    x 1.641650 0.000000 0.000000 
#    y 0.000000 1.642740 0.000000 
#    z 0.000000 0.000000 1.670260 
# 
# From -- ./inp_files/7304.got.cif
#   From: 2010.03.12/outbox.cif.g09.slc.cpg/sg65_4_cif.got.tgz:7304.got - 2010.04.10 20:52:16.
