data_PCOD8270013
_publ_section_title
;
Structure prediction by ZEFSAII (Michael W. Deem and Ramdas Pophale) SiO2 
 PCOD8270013
Probable space group: C M M M
;
_chemical_formula_sum "Si O2"
_cell_formula_units_Z 80
_cell_length_a 27.853579
_cell_length_b 9.247437
_cell_length_c 18.554158
_cell_angle_alpha 90.000000
_cell_angle_beta 90.000000
_cell_angle_gamma 90.000000
_cell_volume 4779.072719
_symmetry_space_group_name_H-M "C M M M"
_symmetry_group_IT_number 65
_symmetry_cell_setting 'orthorhombic'
loop_
_space_group_symop_operation_xyz
x,y,z
-x,-y,z
x,-y,-z
-x,y,-z
-x,-y,-z
x,y,-z
-x,y,z
x,-y,z
1/2+x,1/2+y,z
1/2-x,1/2-y,z
1/2+x,1/2-y,-z
1/2-x,1/2+y,-z
1/2-x,1/2-y,-z
1/2+x,1/2+y,-z
1/2-x,1/2+y,z
1/2+x,1/2-y,z
loop_
_atom_site_type_symbol
_atom_site_label
_atom_site_fract_x
_atom_site_fract_y
_atom_site_fract_z
Si Si1 0.053217 0.827870 0.784436
Si Si2 0.609298 0.327683 0.920164
Si Si3 0.201441 0.833310 0.162643
Si Si4 0.701572 0.832715 0.416183
Si Si5 0.356967 0.332333 0.694952
O O1 0.069791 0.769629 0.863149
O O2 0.090759 0.778807 0.722893
O O3 0.000000 0.767194 0.767037
O O4 0.053320 0.000000 0.787060
O O5 0.607987 0.500000 0.920763
O O6 0.661915 0.276865 0.894324
O O7 0.598457 0.265266 0.000000
O O8 0.250000 0.750000 0.148532
O O9 0.182309 0.807074 0.243158
O O10 0.212459 0.000000 0.149692
O O11 0.689970 0.812705 0.500000
O O12 0.750000 0.750000 0.394238
O O13 0.656885 0.764789 0.373397
O O14 0.708103 0.000000 0.395356
O O15 0.358717 0.500000 0.671815
#
# Coordination Sequence:
#
# PCOD8270013 Si02
#       5
#    16  16  16  16  16
#     4   8  14  25  42  64  87 112 146 187 227 264
#     4   8  14  24  37  56  84 114 143 179 223 265
#     4   9  17  27  39  58  84 114 147 180 214 255
#     4  10  20  32  47  69  95 120 146 176 211 254
#     4   9  17  29  45  65  90 118 147 182 221 260
#
# _framework density 16.739649
#
# number of rings (size 3 to 8) (size 9 to 14) (size 15 to 20)
#    0.000    3.200    0.000    3.600    0.000    4.400 
#    0.000    2.000    0.000    1.200    0.000    4.200 
#    0.000    0.000    0.000    8.800    0.000    8.800 
#
# Total GULP energy -495800.928886 kJ/mol
# GULP energy per Si atom -12395.023222 kJ/mol
# Density = 1.670155 g / cm^3
# Si number density = 16.739649 Si / 1000 Ang^3
#
#
#
# Elastic Constant Matrix: (Units=GPa)
#
#
# Indices 1 2 3 4 5 6 
#
# 1 139.9714 37.8367 61.1637 0.0000 0.0000 0.0000
# 2 37.8367 49.2361 39.7794 0.0000 0.0000 0.0000
# 3 61.1637 39.7794 93.6474 0.0000 0.0000 0.0000
# 4 0.0000 0.0000 0.0000 16.0475 0.0000 0.0000
# 5 0.0000 0.0000 0.0000 0.0000 19.6556 0.0000
# 6 0.0000 0.0000 0.0000 0.0000 0.0000 18.2827
#
#
#
# Elastic Compliance Matrix: (Units=1/GPa)
#
#
# Indices 1 2 3 4 5 6 
#
# 1 0.010452 -0.003832 -0.005199 0.000000 0.000000 0.000000
# 2 -0.003832 0.032328 -0.011229 0.000000 0.000000 0.000000
# 3 -0.005199 -0.011229 0.018844 0.000000 0.000000 0.000000
# 4 0.000000 0.000000 0.000000 0.062315 0.000000 0.000000
# 5 0.000000 0.000000 0.000000 0.000000 0.050876 0.000000
# 6 0.000000 0.000000 0.000000 0.000000 0.000000 0.054697
#
#
# Mechanical properties :
#
#
# Convention : Reuss Voigt Hill
#
# Bulk Modulus (GPa) = 47.38584 62.26830 54.82707
# Shear Modulus (GPa) = 18.04630 20.40215 19.22423
#
# Velocity S-wave (km/s) = 3.28694 3.49491 3.39252
# Velocity P-wave (km/s) = 6.54021 7.31879 6.94042
#
# Compressibility (1/GPa) = 0.02110335
#
# Stress axis : x y z
#
# Youngs Moduli (GPa) = 95.67724 30.93340 53.06781
#
# Poissons Ratio (x) = 0.11853 0.27589
# Poissons Ratio (y) = 0.36661 0.59592
# Poissons Ratio (z) = 0.49740 0.34736
#
# Static dielectric constant tensor:
#      x y z
#    x 3.285730 0.000000 0.000000 
#    y 0.000000 2.750830 0.000000 
#    z 0.000000 0.000000 3.189470 
# 
# 
# High freq. dielectric constant tensor:
#      x y z
#    x 1.640480 0.000000 0.000000 
#    y 0.000000 1.603030 0.000000 
#    z 0.000000 0.000000 1.641130 
# 
# From -- ./inp_files/49880.got.cif
#   From: 2010.03.12/outbox.cif.g09.slc.cpg/sg65_25_cif.got.tgz:49880.got - 2010.04.10 20:52:16.
