data_PCOD8270600
_publ_section_title
;
Structure prediction by ZEFSAII (Michael W. Deem and Ramdas Pophale) SiO2 
 PCOD8270600
Probable space group: C M M M
;
_chemical_formula_sum "Si O2"
_cell_formula_units_Z 104
_cell_length_a 28.348942
_cell_length_b 9.081409
_cell_length_c 22.958547
_cell_angle_alpha 90.000000
_cell_angle_beta 90.000000
_cell_angle_gamma 90.000000
_cell_volume 5910.639746
_symmetry_space_group_name_H-M "C M M M"
_symmetry_group_IT_number 65
_symmetry_cell_setting 'orthorhombic'
loop_
_space_group_symop_operation_xyz
x,y,z
-x,-y,z
x,-y,-z
-x,y,-z
-x,-y,-z
x,y,-z
-x,y,z
x,-y,z
1/2+x,1/2+y,z
1/2-x,1/2-y,z
1/2+x,1/2-y,-z
1/2-x,1/2+y,-z
1/2-x,1/2-y,-z
1/2+x,1/2+y,-z
1/2-x,1/2+y,z
1/2+x,1/2-y,z
loop_
_atom_site_type_symbol
_atom_site_label
_atom_site_fract_x
_atom_site_fract_y
_atom_site_fract_z
Si Si1 0.944731 0.329662 0.331294
Si Si2 0.103187 0.829703 0.433372
Si Si3 0.943892 0.166356 0.000000
Si Si4 0.944172 0.330611 0.114851
Si Si5 0.703884 0.327820 0.609927
Si Si6 0.795254 0.830000 0.257439
Si Si7 0.397975 0.327130 0.776488
O O1 0.930046 0.500000 0.325382
O O2 0.931100 0.270723 0.394970
O O3 0.917666 0.233871 0.283814
O O4 0.000000 0.309329 0.321446
O O5 0.088140 0.806386 0.500000
O O6 0.157520 0.780211 0.425568
O O7 0.097548 0.000000 0.414262
O O8 0.925034 0.250342 0.057008
O O9 0.000000 0.166874 0.000000
O O10 0.924183 0.000000 0.000000
O O11 0.928617 0.500000 0.112034
O O12 0.921665 0.255060 0.170332
O O13 0.000000 0.315278 0.120292
O O14 0.712587 0.500000 0.605133
O O15 0.750000 0.250000 0.582792
O O16 0.696337 0.275379 0.676507
O O17 0.750000 0.750000 0.229062
O O18 0.842017 0.796392 0.220231
O O19 0.783004 0.000000 0.257136
O O20 0.409316 0.500000 0.779756
#
# Coordination Sequence:
#
# PCOD8270600 Si02
#       7
#    16  16   8  16  16  16  16
#     4  11  24  39  54  74 101 132 168 214 264 310
#     4  10  21  38  57  75  98 130 169 210 254 311
#     4   9  17  31  51  75 106 147 190 225 259 301
#     4  10  20  33  50  77 113 149 183 220 262 305
#     4   9  17  32  51  75 102 128 160 202 253 309
#     4   9  18  32  51  75 103 132 165 207 256 308
#     4  11  21  35  55  80 107 137 175 216 257 307
#
# _framework density 17.595388
#
# number of rings (size 3 to 8) (size 9 to 14) (size 15 to 20)
#    0.000    2.077    1.538    2.077    0.000    7.692 
#    0.000    1.538    0.000    0.000    0.000    0.538 
#    0.000    0.000    0.000    0.000    0.000    0.000 
#
# Total GULP energy -644893.703075 kJ/mol
# GULP energy per Si atom -12401.801982 kJ/mol
# Density = 1.755534 g / cm^3
# Si number density = 17.595388 Si / 1000 Ang^3
#
#
#
# Elastic Constant Matrix: (Units=GPa)
#
#
# Indices 1 2 3 4 5 6 
#
# 1 55.6094 46.3299 20.2190 0.0000 0.0000 0.0000
# 2 46.3299 105.4675 49.7370 0.0000 0.0000 0.0000
# 3 20.2190 49.7370 86.9011 0.0000 0.0000 0.0000
# 4 0.0000 0.0000 0.0000 28.3422 0.0000 0.0000
# 5 0.0000 0.0000 0.0000 0.0000 -4.5953 0.0000
# 6 0.0000 0.0000 0.0000 0.0000 0.0000 31.4889
#
#
#
# Elastic Compliance Matrix: (Units=1/GPa)
#
#
# Indices 1 2 3 4 5 6 
#
# 1 0.028396 -0.012818 0.000729 0.000000 0.000000 0.000000
# 2 -0.012818 0.018773 -0.007762 0.000000 0.000000 0.000000
# 3 0.000729 -0.007762 0.015780 0.000000 0.000000 0.000000
# 4 0.000000 0.000000 0.000000 0.035283 0.000000 0.000000
# 5 0.000000 0.000000 0.000000 0.000000 -0.217611 0.000000
# 6 0.000000 0.000000 0.000000 0.000000 0.000000 0.031757
#
#
# Mechanical properties :
#
#
# Convention : Reuss Voigt Hill
#
# Bulk Modulus (GPa) = 43.01459 53.39444 48.20451
# Shear Modulus (GPa) = -124.46815 19.82662 -52.32076
#
# Velocity S-wave (km/s) = -8.41978 3.36044 -5.45894
# Velocity P-wave (km/s) = 8.36803 6.74302 3.50397
#
# Compressibility (1/GPa) = 0.02324793
#
# Stress axis : x y z
#
# Youngs Moduli (GPa) = 35.21570 53.26859 63.37053
#
# Poissons Ratio (x) = 0.68280 -0.04622
# Poissons Ratio (y) = 0.45139 0.49189
# Poissons Ratio (z) = -0.02568 0.41348
#
# Static dielectric constant tensor:
#      x y z
#    x 3.240630 0.000000 0.000000 
#    y 0.000000 3.381060 0.000000 
#    z 0.000000 0.000000 3.207350 
# 
# 
# High freq. dielectric constant tensor:
#      x y z
#    x 1.668730 0.000000 0.000000 
#    y 0.000000 1.688970 0.000000 
#    z 0.000000 0.000000 1.665630 
# 
# From -- ./inp_files/60804.got.cif
#   From: 2010.03.12/outbox.cif.g09.slc.cpg/sg65_31_cif.got.tgz:60804.got - 2010.04.10 20:52:16.
