data_PCOD8270128
_publ_section_title
;
Structure prediction by ZEFSAII (Michael W. Deem and Ramdas Pophale) SiO2 
 PCOD8270128
Probable space group: C M M M
;
_chemical_formula_sum "Si O2"
_cell_formula_units_Z 80
_cell_length_a 18.923595
_cell_length_b 9.054522
_cell_length_c 25.350695
_cell_angle_alpha 90.000000
_cell_angle_beta 90.000000
_cell_angle_gamma 90.000000
_cell_volume 4343.692203
_symmetry_space_group_name_H-M "C M M M"
_symmetry_group_IT_number 65
_symmetry_cell_setting 'orthorhombic'
loop_
_space_group_symop_operation_xyz
x,y,z
-x,-y,z
x,-y,-z
-x,y,-z
-x,-y,-z
x,y,-z
-x,y,z
x,-y,z
1/2+x,1/2+y,z
1/2-x,1/2-y,z
1/2+x,1/2-y,-z
1/2-x,1/2+y,-z
1/2-x,1/2-y,-z
1/2+x,1/2+y,-z
1/2-x,1/2+y,z
1/2+x,1/2-y,z
loop_
_atom_site_type_symbol
_atom_site_label
_atom_site_fract_x
_atom_site_fract_y
_atom_site_fract_z
Si Si1 0.674837 0.674577 0.847110
Si Si2 0.578975 0.675407 0.058767
Si Si3 0.821842 0.827553 0.561008
Si Si4 0.583392 0.831749 0.642060
Si Si5 0.081420 0.171404 0.252590
O O1 0.685343 0.500000 0.850584
O O2 0.750000 0.750000 0.842371
O O3 0.634734 0.737562 0.898878
O O4 0.628162 0.719589 0.796931
O O5 0.500000 0.735738 0.071059
O O6 0.576974 0.500000 0.062561
O O7 0.602470 0.725609 0.000000
O O8 0.837706 0.794127 0.500000
O O9 0.750000 0.750000 0.579522
O O10 0.885918 0.761177 0.593913
O O11 0.814748 0.000000 0.572367
O O12 0.500000 0.819428 0.637086
O O13 0.608744 0.764521 0.697587
O O14 0.609765 0.000000 0.638763
O O15 0.000000 0.206914 0.238989
O O16 0.091272 0.000000 0.266350
#
# Coordination Sequence:
#
# PCOD8270128 Si02
#       5
#    16  16  16  16  16
#     4  10  20  32  48  73 102 131 164 204 253 304
#     4   8  14  27  49  74  97 125 166 211 248 288
#     4  10  21  37  57  80 107 140 176 213 255 305
#     4  10  21  36  55  80 108 137 171 213 260 308
#     4   9  18  34  54  72  94 129 173 216 253 295
#
# _framework density 18.41751
#
# number of rings (size 3 to 8) (size 9 to 14) (size 15 to 20)
#    0.000    2.600    0.000    2.400    0.000    7.200 
#    0.000    4.000    0.000    1.800    0.000    1.400 
#    0.000    0.000    0.000    0.000    0.000    0.000 
#
# Total GULP energy -496035.443137 kJ/mol
# GULP energy per Si atom -12400.886078 kJ/mol
# Density = 1.837559 g / cm^3
# Si number density = 18.417510 Si / 1000 Ang^3
#
#
#
# Elastic Constant Matrix: (Units=GPa)
#
#
# Indices 1 2 3 4 5 6 
#
# 1 91.3822 40.5553 71.3613 0.0000 0.0000 0.0000
# 2 40.5553 68.2685 57.3135 0.0000 0.0000 0.0000
# 3 71.3613 57.3135 133.5683 0.0000 0.0000 0.0000
# 4 0.0000 0.0000 0.0000 19.0037 0.0000 0.0000
# 5 0.0000 0.0000 0.0000 0.0000 19.1889 0.0000
# 6 0.0000 0.0000 0.0000 0.0000 0.0000 31.9597
#
#
#
# Elastic Compliance Matrix: (Units=1/GPa)
#
#
# Indices 1 2 3 4 5 6 
#
# 1 0.019609 -0.004460 -0.008563 0.000000 0.000000 0.000000
# 2 -0.004460 0.023911 -0.007877 0.000000 0.000000 0.000000
# 3 -0.008563 -0.007877 0.015442 0.000000 0.000000 0.000000
# 4 0.000000 0.000000 0.000000 0.052621 0.000000 0.000000
# 5 0.000000 0.000000 0.000000 0.000000 0.052113 0.000000
# 6 0.000000 0.000000 0.000000 0.000000 0.000000 0.031289
#
#
# Mechanical properties :
#
#
# Convention : Reuss Voigt Hill
#
# Bulk Modulus (GPa) = 58.26987 70.18656 64.22822
# Shear Modulus (GPa) = 20.61805 22.29639 21.45722
#
# Velocity S-wave (km/s) = 3.34949 3.48315 3.41698
# Velocity P-wave (km/s) = 6.83124 7.37345 7.10752
#
# Compressibility (1/GPa) = 0.01716153
#
# Stress axis : x y z
#
# Youngs Moduli (GPa) = 50.99642 41.82233 64.76043
#
# Poissons Ratio (x) = 0.18654 0.55452
# Poissons Ratio (y) = 0.22746 0.51011
# Poissons Ratio (z) = 0.43667 0.32943
#
# Static dielectric constant tensor:
#      x y z
#    x 3.350910 0.000000 0.000000 
#    y 0.000000 3.241770 0.000000 
#    z 0.000000 0.000000 3.576420 
# 
# 
# High freq. dielectric constant tensor:
#      x y z
#    x 1.711270 0.000000 0.000000 
#    y 0.000000 1.694150 0.000000 
#    z 0.000000 0.000000 1.725910 
# 
# From -- ./inp_files/72743.got.cif
#   From: 2010.03.12/outbox.cif.g09.slc.cpg/sg65_37_cif.got.tgz:72743.got - 2010.04.10 20:52:16.
