data_PCOD8270337
_publ_section_title
;
Structure prediction by ZEFSAII (Michael W. Deem and Ramdas Pophale) SiO2 
 PCOD8270337
Probable space group: C M M M
;
_chemical_formula_sum "Si O2"
_cell_formula_units_Z 104
_cell_length_a 30.086181
_cell_length_b 8.920723
_cell_length_c 22.441999
_cell_angle_alpha 90.000000
_cell_angle_beta 90.000000
_cell_angle_gamma 90.000000
_cell_volume 6023.219037
_symmetry_space_group_name_H-M "C M M M"
_symmetry_group_IT_number 65
_symmetry_cell_setting 'orthorhombic'
loop_
_space_group_symop_operation_xyz
x,y,z
-x,-y,z
x,-y,-z
-x,y,-z
-x,-y,-z
x,y,-z
-x,y,z
x,-y,z
1/2+x,1/2+y,z
1/2-x,1/2-y,z
1/2+x,1/2-y,-z
1/2-x,1/2+y,-z
1/2-x,1/2-y,-z
1/2+x,1/2+y,-z
1/2-x,1/2+y,z
1/2+x,1/2-y,z
loop_
_atom_site_type_symbol
_atom_site_label
_atom_site_fract_x
_atom_site_fract_y
_atom_site_fract_z
Si Si1 0.116312 0.323559 0.843898
Si Si2 0.447362 0.827584 0.619605
Si Si3 0.292034 0.664139 0.709435
Si Si4 0.551461 0.329307 0.068974
Si Si5 0.947178 0.169295 0.500000
Si Si6 0.389101 0.320706 0.282015
Si Si7 0.793102 0.167630 0.149281
O O1 0.120433 0.500000 0.833797
O O2 0.079389 0.288208 0.892916
O O3 0.101117 0.246803 0.782596
O O4 0.163185 0.260769 0.867668
O O5 0.500000 0.811806 0.624928
O O6 0.429697 0.756331 0.558099
O O7 0.426715 0.736100 0.673821
O O8 0.432329 0.000000 0.622024
O O9 0.289521 0.500000 0.681158
O O10 0.250000 0.750000 0.681100
O O11 0.340432 0.734936 0.694437
O O12 0.287665 0.657734 0.780164
O O13 0.500000 0.301938 0.083377
O O14 0.564673 0.500000 0.085436
O O15 0.561339 0.298131 0.000000
O O16 0.000000 0.167346 0.500000
O O17 0.928277 0.000000 0.500000
O O18 0.389907 0.500000 0.276768
O O19 0.750000 0.250000 0.121577
O O20 0.796715 0.000000 0.122439
#
# Coordination Sequence:
#
# PCOD8270337 Si02
#       7
#    16  16  16  16   8  16  16
#     4  11  21  32  49  74 103 132 161 198 246 295
#     4  10  20  33  49  71  99 129 163 204 246 287
#     4   8  15  26  42  64  90 121 156 194 233 276
#     4   9  19  37  58  75  92 121 163 206 246 291
#     4   9  17  31  51  71  92 125 166 201 237 285
#     4  10  20  33  48  70 100 132 166 201 241 291
#     4   9  16  28  46  69  97 128 162 197 236 285
#
# _framework density 17.266515999999999
#
# number of rings (size 3 to 8) (size 9 to 14) (size 15 to 20)
#    0.000    2.538    0.000    4.385    0.000    7.385 
#    0.000    0.769    0.000    0.462    0.000    0.538 
#    0.000    0.000    0.000    0.000    0.000    0.000 
#
# Total GULP energy -644678.286943 kJ/mol
# GULP energy per Si atom -12397.659364 kJ/mol
# Density = 1.722722 g / cm^3
# Si number density = 17.266516 Si / 1000 Ang^3
#
#
#
# Elastic Constant Matrix: (Units=GPa)
#
#
# Indices 1 2 3 4 5 6 
#
# 1 75.8576 47.7968 44.6066 0.0000 0.0000 0.0000
# 2 47.7968 123.4244 41.8158 0.0000 0.0000 0.0000
# 3 44.6066 41.8158 66.2491 0.0000 0.0000 0.0000
# 4 0.0000 0.0000 0.0000 25.4893 0.0000 0.0000
# 5 0.0000 0.0000 0.0000 0.0000 -0.7374 0.0000
# 6 0.0000 0.0000 0.0000 0.0000 0.0000 31.3966
#
#
#
# Elastic Compliance Matrix: (Units=1/GPa)
#
#
# Indices 1 2 3 4 5 6 
#
# 1 0.023896 -0.004837 -0.013037 0.000000 0.000000 0.000000
# 2 -0.004837 0.011285 -0.003866 0.000000 0.000000 0.000000
# 3 -0.013037 -0.003866 0.026313 0.000000 0.000000 0.000000
# 4 0.000000 0.000000 0.000000 0.039232 0.000000 0.000000
# 5 0.000000 0.000000 0.000000 0.000000 -1.356035 0.000000
# 6 0.000000 0.000000 0.000000 0.000000 0.000000 0.031851
#
#
# Mechanical properties :
#
#
# Convention : Reuss Voigt Hill
#
# Bulk Modulus (GPa) = 55.51168 59.32992 57.42080
# Shear Modulus (GPa) = -4.25904 19.98382 7.86239
#
# Velocity S-wave (km/s) = -1.57226 3.40571 2.13622
# Velocity P-wave (km/s) = 5.37808 7.06407 6.27793
#
# Compressibility (1/GPa) = 0.01801423
#
# Stress axis : x y z
#
# Youngs Moduli (GPa) = 41.84733 88.61154 38.00466
#
# Poissons Ratio (x) = 0.42864 0.49545
# Poissons Ratio (y) = 0.20243 0.14693
# Poissons Ratio (z) = 0.54555 0.34258
#
# Static dielectric constant tensor:
#      x y z
#    x 3.303380 0.000000 0.000000 
#    y 0.000000 3.390850 0.000000 
#    z 0.000000 0.000000 2.875270 
# 
# 
# High freq. dielectric constant tensor:
#      x y z
#    x 1.664980 0.000000 0.000000 
#    y 0.000000 1.678630 0.000000 
#    z 0.000000 0.000000 1.625560 
# 
# From -- ./inp_files/66382.got.cif
#   From: 2010.03.12/outbox.cif.g09.slc.cpg/sg65_34_cif.got.tgz:66382.got - 2010.04.10 20:52:16.
