data_PCOD8270581
_publ_section_title
;
Structure prediction by ZEFSAII (Michael W. Deem and Ramdas Pophale) SiO2 
 PCOD8270581
Probable space group: C M M M
;
_chemical_formula_sum "Si O2"
_cell_formula_units_Z 104
_cell_length_a 23.746416
_cell_length_b 26.161662
_cell_length_c 9.407254
_cell_angle_alpha 90.000000
_cell_angle_beta 90.000000
_cell_angle_gamma 90.000000
_cell_volume 5844.216182
_symmetry_space_group_name_H-M "C M M M"
_symmetry_group_IT_number 65
_symmetry_cell_setting 'orthorhombic'
loop_
_space_group_symop_operation_xyz
x,y,z
-x,-y,z
x,-y,-z
-x,y,-z
-x,-y,-z
x,y,-z
-x,y,z
x,-y,z
1/2+x,1/2+y,z
1/2-x,1/2-y,z
1/2+x,1/2-y,-z
1/2-x,1/2+y,-z
1/2-x,1/2-y,-z
1/2+x,1/2+y,-z
1/2-x,1/2+y,z
1/2+x,1/2-y,z
loop_
_atom_site_type_symbol
_atom_site_label
_atom_site_fract_x
_atom_site_fract_y
_atom_site_fract_z
Si Si1 0.064756 0.905842 0.662101
Si Si2 0.435263 0.123928 0.165570
Si Si3 0.932816 0.000000 0.840165
Si Si4 0.147259 0.816387 0.337492
Si Si5 0.349832 0.058198 0.334649
Si Si6 0.646709 0.214528 0.833592
Si Si7 0.270080 0.851373 0.663260
O O1 0.073280 0.923643 0.500000
O O2 0.090558 0.949967 0.761200
O O3 0.095718 0.853369 0.694273
O O4 0.000000 0.895758 0.698098
O O5 0.500000 0.126330 0.215260
O O6 0.403762 0.079171 0.250235
O O7 0.407215 0.178826 0.198689
O O8 0.430198 0.110610 0.000000
O O9 0.000000 0.000000 0.833215
O O10 0.909818 0.000000 0.000000
O O11 0.147385 0.796589 0.500000
O O12 0.136981 0.769651 0.232906
O O13 0.203797 0.848712 0.305933
O O14 0.365240 0.061016 0.500000
O O15 0.294303 0.092175 0.300386
O O16 0.337138 0.000000 0.287399
O O17 0.702034 0.190736 0.763389
O O18 0.657686 0.220484 0.000000
O O19 0.283833 0.837388 0.500000
#
# Coordination Sequence:
#
# PCOD8270581 Si02
#       7
#    16  16   8  16  16  16  16
#     4   9  18  33  51  72  99 129 162 201 245 293
#     4   9  19  35  52  72 100 134 170 202 240 298
#     4   9  17  31  51  71  93 125 161 195 236 285
#     4  10  20  33  50  75 100 129 167 205 246 296
#     4   9  18  33  52  74 100 129 163 207 253 293
#     4  10  20  33  51  73  98 131 165 204 249 292
#     4   9  18  34  52  71  97 130 166 204 245 295
#
# _framework density 17.795373000000001
#
# number of rings (size 3 to 8) (size 9 to 14) (size 15 to 20)
#    0.000    2.692    0.000    1.154    0.000    6.154 
#    1.385    1.538    0.000    0.000    0.000    0.000 
#    0.000    0.000    0.000    0.000    0.000    0.000 
#
# Total GULP energy -644831.517971 kJ/mol
# GULP energy per Si atom -12400.606115 kJ/mol
# Density = 1.775487 g / cm^3
# Si number density = 17.795373 Si / 1000 Ang^3
#
#
#
# Elastic Constant Matrix: (Units=GPa)
#
#
# Indices 1 2 3 4 5 6 
#
# 1 78.0355 55.6838 40.8797 0.0000 0.0000 0.0000
# 2 55.6838 134.6453 68.0800 0.0000 0.0000 0.0000
# 3 40.8797 68.0800 84.5560 0.0000 0.0000 0.0000
# 4 0.0000 0.0000 0.0000 25.3738 0.0000 0.0000
# 5 0.0000 0.0000 0.0000 0.0000 20.9315 0.0000
# 6 0.0000 0.0000 0.0000 0.0000 0.0000 13.8577
#
#
#
# Elastic Compliance Matrix: (Units=1/GPa)
#
#
# Indices 1 2 3 4 5 6 
#
# 1 0.019314 -0.005509 -0.004902 0.000000 0.000000 0.000000
# 2 -0.005509 0.014098 -0.008687 0.000000 0.000000 0.000000
# 3 -0.004902 -0.008687 0.021191 0.000000 0.000000 0.000000
# 4 0.000000 0.000000 0.000000 0.039411 0.000000 0.000000
# 5 0.000000 0.000000 0.000000 0.000000 0.047775 0.000000
# 6 0.000000 0.000000 0.000000 0.000000 0.000000 0.072162
#
#
# Mechanical properties :
#
#
# Convention : Reuss Voigt Hill
#
# Bulk Modulus (GPa) = 60.95367 69.61375 65.28371
# Shear Modulus (GPa) = 19.40878 20.87213 20.14045
#
# Velocity S-wave (km/s) = 3.30610 3.42847 3.36784
# Velocity P-wave (km/s) = 6.99290 7.40787 7.20337
#
# Compressibility (1/GPa) = 0.01640590
#
# Stress axis : x y z
#
# Youngs Moduli (GPa) = 51.77720 70.93366 47.18954
#
# Poissons Ratio (x) = 0.39075 0.23133
# Poissons Ratio (y) = 0.28522 0.40996
# Poissons Ratio (z) = 0.25382 0.61623
#
# Static dielectric constant tensor:
#      x y z
#    x 3.237600 0.000000 0.000000 
#    y 0.000000 3.344790 0.000000 
#    z 0.000000 0.000000 3.347200 
# 
# 
# High freq. dielectric constant tensor:
#      x y z
#    x 1.677850 0.000000 0.000000 
#    y 0.000000 1.690430 0.000000 
#    z 0.000000 0.000000 1.688790 
# 
# From -- ./inp_files/16780.got.cif
#   From: 2010.03.12/outbox.cif.g09.slc.cpg/sg65_9_cif.got.tgz:16780.got - 2010.04.10 20:52:16.
