data_PCOD8270341
_publ_section_title
;
Structure prediction by ZEFSAII (Michael W. Deem and Ramdas Pophale) SiO2 
 PCOD8270341
Probable space group: C M M M
;
_chemical_formula_sum "Si O2"
_cell_formula_units_Z 64
_cell_length_a 8.850986
_cell_length_b 36.116090
_cell_length_c 11.591667
_cell_angle_alpha 90.000000
_cell_angle_beta 90.000000
_cell_angle_gamma 90.000000
_cell_volume 3705.427129
_symmetry_space_group_name_H-M "C M M M"
_symmetry_group_IT_number 65
_symmetry_cell_setting 'orthorhombic'
loop_
_space_group_symop_operation_xyz
x,y,z
-x,-y,z
x,-y,-z
-x,y,-z
-x,-y,-z
x,y,-z
-x,y,z
x,-y,z
1/2+x,1/2+y,z
1/2-x,1/2-y,z
1/2+x,1/2-y,-z
1/2-x,1/2+y,-z
1/2-x,1/2-y,-z
1/2+x,1/2+y,-z
1/2-x,1/2+y,z
1/2+x,1/2-y,z
loop_
_atom_site_type_symbol
_atom_site_label
_atom_site_fract_x
_atom_site_fract_y
_atom_site_fract_z
Si Si1 0.821195 0.958503 0.500000
Si Si2 0.169743 0.786530 0.863018
Si Si3 0.679147 0.568973 0.745264
Si Si4 0.322291 0.137879 0.133439
Si Si5 0.329090 0.000000 0.136267
O O1 0.766560 0.936660 0.613381
O O2 0.000000 0.961873 0.500000
O O3 0.751718 0.000000 0.500000
O O4 0.250000 0.750000 0.811525
O O5 0.264505 0.822242 0.824061
O O6 0.000000 0.789239 0.813367
O O7 0.165499 0.783813 0.000000
O O8 0.500000 0.568636 0.756370
O O9 0.741650 0.607821 0.788000
O O10 0.743394 0.536317 0.822820
O O11 0.500000 0.135609 0.152189
O O12 0.279098 0.130954 0.000000
O O13 0.500000 0.000000 0.184318
O O14 0.329542 0.000000 0.000000
#
# Coordination Sequence:
#
# PCOD8270341 Si02
#       5
#     8  16  16  16   8
#     4   9  18  36  56  74  95 122 161 214 262 296
#     4   9  16  27  45  70 100 135 172 205 242 292
#     4  11  21  35  55  74  95 127 168 209 251 299
#     4  10  20  33  48  71 106 139 166 204 251 296
#     4  11  23  36  49  70 102 133 160 197 248 301
#
# _framework density 17.271963
#
# number of rings (size 3 to 8) (size 9 to 14) (size 15 to 20)
#    0.000    2.000    1.250    3.375    0.000    8.500 
#    0.000    3.125    0.000    0.000    0.000    0.875 
#    0.000    0.000    0.000    0.000    0.000    0.000 
#
# Total GULP energy -396838.023088 kJ/mol
# GULP energy per Si atom -12401.188221 kJ/mol
# Density = 1.723265 g / cm^3
# Si number density = 17.271963 Si / 1000 Ang^3
#
#
#
# Elastic Constant Matrix: (Units=GPa)
#
#
# Indices 1 2 3 4 5 6 
#
# 1 97.7660 54.9356 41.0617 0.0000 0.0000 0.0000
# 2 54.9356 155.1458 58.7903 0.0000 0.0000 0.0000
# 3 41.0617 58.7903 78.0914 0.0000 0.0000 0.0000
# 4 0.0000 0.0000 0.0000 -2.2276 0.0000 0.0000
# 5 0.0000 0.0000 0.0000 0.0000 12.5628 0.0000
# 6 0.0000 0.0000 0.0000 0.0000 0.0000 34.4006
#
#
#
# Elastic Compliance Matrix: (Units=1/GPa)
#
#
# Indices 1 2 3 4 5 6 
#
# 1 0.014090 -0.003053 -0.005111 0.000000 0.000000 0.000000
# 2 -0.003053 0.009680 -0.005682 0.000000 0.000000 0.000000
# 3 -0.005111 -0.005682 0.019771 0.000000 0.000000 0.000000
# 4 0.000000 0.000000 0.000000 -0.448920 0.000000 0.000000
# 5 0.000000 0.000000 0.000000 0.000000 0.079600 0.000000
# 6 0.000000 0.000000 0.000000 0.000000 0.000000 0.029069
#
#
# Mechanical properties :
#
#
# Convention : Reuss Voigt Hill
#
# Bulk Modulus (GPa) = 63.09342 71.17537 67.13440
# Shear Modulus (GPa) = -18.95836 20.69486 0.86825
#
# Velocity S-wave (km/s) = -3.31666 3.46522 0.70978
# Velocity P-wave (km/s) = 4.68420 7.57023 6.29485
#
# Compressibility (1/GPa) = 0.01584951
#
# Stress axis : x y z
#
# Youngs Moduli (GPa) = 70.97077 103.31033 50.58035
#
# Poissons Ratio (x) = 0.31536 0.25851
# Poissons Ratio (y) = 0.21664 0.28740
# Poissons Ratio (z) = 0.36272 0.58702
#
# Static dielectric constant tensor:
#      x y z
#    x 3.369350 0.000000 0.000000 
#    y 0.000000 3.377060 0.000000 
#    z 0.000000 0.000000 3.056210 
# 
# 
# High freq. dielectric constant tensor:
#      x y z
#    x 1.677710 0.000000 0.000000 
#    y 0.000000 1.678790 0.000000 
#    z 0.000000 0.000000 1.626510 
# 
# From -- ./inp_files/20952.got.cif
#   From: 2010.03.12/outbox.cif.g09.slc.cpg/sg65_11_cif.got.tgz:20952.got - 2010.04.10 20:52:16.
