data_PCOD8270395
_publ_section_title
;
Structure prediction by ZEFSAII (Michael W. Deem and Ramdas Pophale) SiO2 
 PCOD8270395
Probable space group: C M M M
;
_chemical_formula_sum "Si O2"
_cell_formula_units_Z 72
_cell_length_a 18.717171
_cell_length_b 8.956209
_cell_length_c 23.658258
_cell_angle_alpha 90.000000
_cell_angle_beta 90.000000
_cell_angle_gamma 90.000000
_cell_volume 3965.949604
_symmetry_space_group_name_H-M "C M M M"
_symmetry_group_IT_number 65
_symmetry_cell_setting 'orthorhombic'
loop_
_space_group_symop_operation_xyz
x,y,z
-x,-y,z
x,-y,-z
-x,y,-z
-x,-y,-z
x,y,-z
-x,y,z
x,-y,z
1/2+x,1/2+y,z
1/2-x,1/2-y,z
1/2+x,1/2-y,-z
1/2-x,1/2+y,-z
1/2-x,1/2-y,-z
1/2+x,1/2+y,-z
1/2-x,1/2+y,z
1/2+x,1/2-y,z
loop_
_atom_site_type_symbol
_atom_site_label
_atom_site_fract_x
_atom_site_fract_y
_atom_site_fract_z
Si Si1 0.415422 0.171253 0.112597
Si Si2 0.826269 0.172874 0.332978
Si Si3 0.914972 0.168679 0.000000
Si Si4 0.826648 0.173936 0.207862
Si Si5 0.327226 0.174433 0.561360
O O1 0.500000 0.186851 0.116611
O O2 0.385978 0.246664 0.055329
O O3 0.383104 0.254680 0.165944
O O4 0.390929 0.000000 0.112498
O O5 0.750000 0.250000 0.330183
O O6 0.860363 0.196747 0.270889
O O7 0.869911 0.250978 0.385269
O O8 0.817929 0.000000 0.347325
O O9 0.000000 0.170221 0.000000
O O10 0.885407 0.000000 0.000000
O O11 0.750000 0.250000 0.200826
O O12 0.816956 0.000000 0.194271
O O13 0.365141 0.202041 0.500000
O O14 0.250000 0.250000 0.559283
O O15 0.318924 0.000000 0.572968
#
# Coordination Sequence:
#
# PCOD8270395 Si02
#       5
#    16  16   8  16  16
#     4  10  20  34  53  76 100 126 158 195 234 278
#     4   9  16  25  38  56  80 113 150 186 226 273
#     4   9  17  31  52  75  98 125 156 191 233 279
#     4  10  20  33  49  70  97 129 163 197 237 284
#     4   9  15  21  31  49  74 106 144 184 225 269
#
# _framework density 18.154540999999998
#
# number of rings (size 3 to 8) (size 9 to 14) (size 15 to 20)
#    0.000    2.556    0.000    4.333    0.000    6.667 
#    0.000    0.556    0.000    0.000    0.000    0.000 
#    0.000    0.889    0.000    9.778    0.000   10.889 
#
# Total GULP energy -446005.791118 kJ/mol
# GULP energy per Si atom -12389.049753 kJ/mol
# Density = 1.811322 g / cm^3
# Si number density = 18.154541 Si / 1000 Ang^3
#
#
#
# Elastic Constant Matrix: (Units=GPa)
#
#
# Indices 1 2 3 4 5 6 
#
# 1 12.3098 20.7533 23.0858 0.0000 0.0000 0.0000
# 2 20.7533 166.8961 100.5286 0.0000 0.0000 0.0000
# 3 23.0858 100.5286 192.4598 0.0000 0.0000 0.0000
# 4 0.0000 0.0000 0.0000 39.8740 0.0000 0.0000
# 5 0.0000 0.0000 0.0000 0.0000 -3.9456 0.0000
# 6 0.0000 0.0000 0.0000 0.0000 0.0000 18.1650
#
#
#
# Elastic Compliance Matrix: (Units=1/GPa)
#
#
# Indices 1 2 3 4 5 6 
#
# 1 0.112616 -0.008560 -0.009037 0.000000 0.000000 0.000000
# 2 -0.008560 0.009393 -0.003879 0.000000 0.000000 0.000000
# 3 -0.009037 -0.003879 0.008306 0.000000 0.000000 0.000000
# 4 0.000000 0.000000 0.000000 0.025079 0.000000 0.000000
# 5 0.000000 0.000000 0.000000 0.000000 -0.253446 0.000000
# 6 0.000000 0.000000 0.000000 0.000000 0.000000 0.055051
#
#
# Mechanical properties :
#
#
# Convention : Reuss Voigt Hill
#
# Bulk Modulus (GPa) = 11.44667 73.37791 42.41229
# Shear Modulus (GPa) = 171.97550 25.97187 98.97368
#
# Velocity S-wave (km/s) = 9.74342 3.78643 7.39159
# Velocity P-wave (km/s) = 11.52813 7.72155 9.81122
#
# Compressibility (1/GPa) = 0.08736167
#
# Stress axis : x y z
#
# Youngs Moduli (GPa) = 8.87973 106.46249 120.39065
#
# Poissons Ratio (x) = 0.91134 1.08798
# Poissons Ratio (y) = 0.07601 0.46705
# Poissons Ratio (z) = 0.08025 0.41302
#
# Static dielectric constant tensor:
#      x y z
#    x 2.595070 0.000000 0.000000 
#    y 0.000000 3.629440 0.000000 
#    z 0.000000 0.000000 4.634310 
# 
# 
# High freq. dielectric constant tensor:
#      x y z
#    x 1.612750 0.000000 0.000000 
#    y 0.000000 1.727430 0.000000 
#    z 0.000000 0.000000 1.739760 
# 
# From -- ./inp_files/64299.got.cif
#   From: 2010.03.12/outbox.cif.g09.slc.cpg/sg65_33_cif.got.tgz:64299.got - 2010.04.10 20:52:16.
