data_PCOD8270467
_publ_section_title
;
Structure prediction by ZEFSAII (Michael W. Deem and Ramdas Pophale) SiO2 
 PCOD8270467
Probable space group: C M M M
;
_chemical_formula_sum "Si O2"
_cell_formula_units_Z 104
_cell_length_a 20.080729
_cell_length_b 9.156335
_cell_length_c 32.140786
_cell_angle_alpha 90.000000
_cell_angle_beta 90.000000
_cell_angle_gamma 90.000000
_cell_volume 5909.593959
_symmetry_space_group_name_H-M "C M M M"
_symmetry_group_IT_number 65
_symmetry_cell_setting 'orthorhombic'
loop_
_space_group_symop_operation_xyz
x,y,z
-x,-y,z
x,-y,-z
-x,y,-z
-x,-y,-z
x,y,-z
-x,y,z
x,-y,z
1/2+x,1/2+y,z
1/2-x,1/2-y,z
1/2+x,1/2-y,-z
1/2-x,1/2+y,-z
1/2-x,1/2-y,-z
1/2+x,1/2+y,-z
1/2-x,1/2+y,z
1/2+x,1/2-y,z
loop_
_atom_site_type_symbol
_atom_site_label
_atom_site_fract_x
_atom_site_fract_y
_atom_site_fract_z
Si Si1 0.316437 0.329681 0.951843
Si Si2 0.682751 0.671083 0.251114
Si Si3 0.816576 0.828841 0.346598
Si Si4 0.925610 0.825121 0.410706
Si Si5 0.076857 0.332850 0.197240
Si Si6 0.576840 0.832969 0.100987
Si Si7 0.421090 0.659406 0.500000
O O1 0.306810 0.500000 0.943838
O O2 0.250000 0.250000 0.935670
O O3 0.379760 0.274869 0.926555
O O4 0.329197 0.293293 0.000000
O O5 0.692629 0.500000 0.244261
O O6 0.750000 0.750000 0.236023
O O7 0.667112 0.710193 0.298943
O O8 0.620764 0.724542 0.224366
O O9 0.750000 0.750000 0.361753
O O10 0.876756 0.767967 0.374780
O O11 0.806221 0.000000 0.352756
O O12 0.901609 0.761769 0.456192
O O13 0.000000 0.768950 0.399994
O O14 0.925630 0.000000 0.413003
O O15 0.092844 0.500000 0.209169
O O16 0.093360 0.305177 0.149108
O O17 0.000000 0.297087 0.206420
O O18 0.500000 0.797641 0.091806
O O19 0.592949 0.000000 0.089017
O O20 0.386926 0.500000 0.500000
O O21 0.500000 0.640460 0.500000
#
# Coordination Sequence:
#
# PCOD8270467 Si02
#       7
#    16  16  16  16  16  16   8
#     4  10  21  36  54  77 105 136 170 208 247 286
#     4  10  20  33  50  71  95 127 165 201 241 290
#     4   9  18  31  46  65  92 123 152 189 234 279
#     4   8  13  23  41  64  88 115 150 191 231 271
#     4   9  19  36  55  75 101 130 160 199 245 290
#     4   9  19  36  56  77 102 133 166 199 241 293
#     4   7  10  18  35  60  87 113 144 185 230 272
#
# _framework density 17.598502
#
# number of rings (size 3 to 8) (size 9 to 14) (size 15 to 20)
#    0.000    3.000    0.000    2.769    0.000    4.308 
#    0.000    5.000    0.000    0.462    0.000    0.000 
#    0.000    1.846    0.000    0.000    0.000    0.000 
#
# Total GULP energy -644614.879163 kJ/mol
# GULP energy per Si atom -12396.439984 kJ/mol
# Density = 1.755845 g / cm^3
# Si number density = 17.598502 Si / 1000 Ang^3
#
#
#
# Elastic Constant Matrix: (Units=GPa)
#
#
# Indices 1 2 3 4 5 6 
#
# 1 113.8670 49.3524 71.3614 0.0000 0.0000 0.0000
# 2 49.3524 60.5629 43.6097 0.0000 0.0000 0.0000
# 3 71.3614 43.6097 87.5644 0.0000 0.0000 0.0000
# 4 0.0000 0.0000 0.0000 13.9889 0.0000 0.0000
# 5 0.0000 0.0000 0.0000 0.0000 11.8882 0.0000
# 6 0.0000 0.0000 0.0000 0.0000 0.0000 32.0517
#
#
#
# Elastic Compliance Matrix: (Units=1/GPa)
#
#
# Indices 1 2 3 4 5 6 
#
# 1 0.019685 -0.007000 -0.012557 0.000000 0.000000 0.000000
# 2 -0.007000 0.028233 -0.008356 0.000000 0.000000 0.000000
# 3 -0.012557 -0.008356 0.025815 0.000000 0.000000 0.000000
# 4 0.000000 0.000000 0.000000 0.071485 0.000000 0.000000
# 5 0.000000 0.000000 0.000000 0.000000 0.084117 0.000000
# 6 0.000000 0.000000 0.000000 0.000000 0.000000 0.031200
#
#
# Mechanical properties :
#
#
# Convention : Reuss Voigt Hill
#
# Bulk Modulus (GPa) = 55.84149 65.62681 60.73415
# Shear Modulus (GPa) = 15.51203 18.09714 16.80459
#
# Velocity S-wave (km/s) = 2.97213 3.21024 3.09348
# Velocity P-wave (km/s) = 6.60135 7.14933 6.88080
#
# Compressibility (1/GPa) = 0.01790783
#
# Stress axis : x y z
#
# Youngs Moduli (GPa) = 50.79899 35.41945 38.73706
#
# Poissons Ratio (x) = 0.24793 0.48641
# Poissons Ratio (y) = 0.35558 0.32370
# Poissons Ratio (z) = 0.63787 0.29598
#
# Static dielectric constant tensor:
#      x y z
#    x 3.240190 0.000000 0.000000 
#    y 0.000000 3.004910 0.000000 
#    z 0.000000 0.000000 3.422100 
# 
# 
# High freq. dielectric constant tensor:
#      x y z
#    x 1.675920 0.000000 0.000000 
#    y 0.000000 1.656160 0.000000 
#    z 0.000000 0.000000 1.685880 
# 
# From -- ./inp_files/78178.got.cif
#   From: 2010.03.12/outbox.cif.g09.slc.cpg/sg65_40_cif.got.tgz:78178.got - 2010.04.10 20:52:16.
