data_PCOD8270380
_publ_section_title
;
Structure prediction by ZEFSAII (Michael W. Deem and Ramdas Pophale) SiO2 
 PCOD8270380
Probable space group: C M M M
;
_chemical_formula_sum "Si O2"
_cell_formula_units_Z 104
_cell_length_a 24.226905
_cell_length_b 26.729457
_cell_length_c 8.939203
_cell_angle_alpha 90.000000
_cell_angle_beta 90.000000
_cell_angle_gamma 90.000000
_cell_volume 5788.777703
_symmetry_space_group_name_H-M "C M M M"
_symmetry_group_IT_number 65
_symmetry_cell_setting 'orthorhombic'
loop_
_space_group_symop_operation_xyz
x,y,z
-x,-y,z
x,-y,-z
-x,y,-z
-x,-y,-z
x,y,-z
-x,y,z
x,-y,z
1/2+x,1/2+y,z
1/2-x,1/2-y,z
1/2+x,1/2-y,-z
1/2-x,1/2+y,-z
1/2-x,1/2-y,-z
1/2+x,1/2+y,-z
1/2-x,1/2+y,z
1/2+x,1/2-y,z
loop_
_atom_site_type_symbol
_atom_site_label
_atom_site_fract_x
_atom_site_fract_y
_atom_site_fract_z
Si Si1 0.668220 0.558926 0.328938
Si Si2 0.065561 0.500000 0.668987
Si Si3 0.850334 0.670897 0.677374
Si Si4 0.935301 0.600942 0.825475
Si Si5 0.238460 0.137002 0.824498
Si Si6 0.809477 0.774601 0.664381
Si Si7 0.060490 0.059385 0.832290
O O1 0.677430 0.574458 0.500000
O O2 0.673458 0.500000 0.304641
O O3 0.714944 0.583656 0.226279
O O4 0.607724 0.578798 0.279397
O O5 0.088844 0.500000 0.500000
O O6 0.087055 0.450698 0.753944
O O7 0.000000 0.500000 0.669522
O O8 0.849977 0.662895 0.500000
O O9 0.905010 0.647436 0.748534
O O10 0.796590 0.644250 0.743834
O O11 0.850825 0.730336 0.717673
O O12 0.000000 0.607979 0.795254
O O13 0.921487 0.599497 0.000000
O O14 0.193261 0.179452 0.779824
O O15 0.248244 0.138248 0.000000
O O16 0.826953 0.794850 0.500000
O O17 0.750000 0.750000 0.651747
O O18 0.000000 0.079359 0.780658
O O19 0.059436 0.000000 0.831694
O O20 0.073610 0.078645 0.000000
#
# Coordination Sequence:
#
# PCOD8270380 Si02
#       7
#    16   8  16  16  16  16  16
#     4  10  20  33  49  70 100 136 171 207 248 299
#     4   9  17  31  51  73  99 135 177 215 254 305
#     4  10  20  35  55  78 103 132 170 212 256 310
#     4  10  20  34  53  78 108 139 174 219 266 313
#     4  11  21  33  52  76 103 135 170 212 260 309
#     4   8  16  32  53  75  99 126 159 203 247 294
#     4   8  14  26  45  68  93 122 158 199 240 283
#
# _framework density 17.965796999999998
#
# number of rings (size 3 to 8) (size 9 to 14) (size 15 to 20)
#    0.000    2.538    0.000    4.385    0.000    6.462 
#    1.385    1.538    0.000    0.923    0.000    4.308 
#    0.000    0.000    0.000    0.000    0.000    0.000 
#
# Total GULP energy -644622.149657 kJ/mol
# GULP energy per Si atom -12396.579801 kJ/mol
# Density = 1.792491 g / cm^3
# Si number density = 17.965797 Si / 1000 Ang^3
#
#
#
# Elastic Constant Matrix: (Units=GPa)
#
#
# Indices 1 2 3 4 5 6 
#
# 1 59.5724 32.8227 40.8989 0.0000 0.0000 0.0000
# 2 32.8227 68.8958 43.5638 0.0000 0.0000 0.0000
# 3 40.8989 43.5638 116.7200 0.0000 0.0000 0.0000
# 4 0.0000 0.0000 0.0000 27.1926 0.0000 0.0000
# 5 0.0000 0.0000 0.0000 0.0000 30.4136 0.0000
# 6 0.0000 0.0000 0.0000 0.0000 0.0000 27.9511
#
#
#
# Elastic Compliance Matrix: (Units=1/GPa)
#
#
# Indices 1 2 3 4 5 6 
#
# 1 0.025391 -0.008470 -0.005736 0.000000 0.000000 0.000000
# 2 -0.008470 0.021823 -0.005177 0.000000 0.000000 0.000000
# 3 -0.005736 -0.005177 0.012510 0.000000 0.000000 0.000000
# 4 0.000000 0.000000 0.000000 0.036775 0.000000 0.000000
# 5 0.000000 0.000000 0.000000 0.000000 0.032880 0.000000
# 6 0.000000 0.000000 0.000000 0.000000 0.000000 0.035777
#
#
# Mechanical properties :
#
#
# Convention : Reuss Voigt Hill
#
# Bulk Modulus (GPa) = 47.71411 53.30656 50.51033
# Shear Modulus (GPa) = 23.70710 25.63830 24.67270
#
# Velocity S-wave (km/s) = 3.63653 3.78175 3.70985
# Velocity P-wave (km/s) = 6.65195 6.98601 6.82102
#
# Compressibility (1/GPa) = 0.02095816
#
# Stress axis : x y z
#
# Youngs Moduli (GPa) = 39.38454 45.82226 79.93755
#
# Poissons Ratio (x) = 0.38809 0.45851
# Poissons Ratio (y) = 0.33357 0.41388
# Poissons Ratio (z) = 0.22590 0.23724
#
# Static dielectric constant tensor:
#      x y z
#    x 3.262460 0.000000 0.000000 
#    y 0.000000 3.382230 0.000000 
#    z 0.000000 0.000000 3.425130 
# 
# 
# High freq. dielectric constant tensor:
#      x y z
#    x 1.672650 0.000000 0.000000 
#    y 0.000000 1.679680 0.000000 
#    z 0.000000 0.000000 1.705030 
# 
# From -- ./inp_files/12739.got.cif
#   From: 2010.03.12/outbox.cif.g09.slc.cpg/sg65_7_cif.got.tgz:12739.got - 2010.04.10 20:52:16.
