data_PCOD8270667
_publ_section_title
;
Structure prediction by ZEFSAII (Michael W. Deem and Ramdas Pophale) SiO2 
 PCOD8270667
Probable space group: C M M M
;
_chemical_formula_sum "Si O2"
_cell_formula_units_Z 80
_cell_length_a 19.849614
_cell_length_b 9.088835
_cell_length_c 25.178771
_cell_angle_alpha 90.000000
_cell_angle_beta 90.000000
_cell_angle_gamma 90.000000
_cell_volume 4542.498714
_symmetry_space_group_name_H-M "C M M M"
_symmetry_group_IT_number 65
_symmetry_cell_setting 'orthorhombic'
loop_
_space_group_symop_operation_xyz
x,y,z
-x,-y,z
x,-y,-z
-x,y,-z
-x,-y,-z
x,y,-z
-x,y,z
x,-y,z
1/2+x,1/2+y,z
1/2-x,1/2-y,z
1/2+x,1/2-y,-z
1/2-x,1/2+y,-z
1/2-x,1/2-y,-z
1/2+x,1/2+y,-z
1/2-x,1/2+y,z
1/2+x,1/2-y,z
loop_
_atom_site_type_symbol
_atom_site_label
_atom_site_fract_x
_atom_site_fract_y
_atom_site_fract_z
Si Si1 0.817895 0.829193 0.562227
Si Si2 0.318873 0.327108 0.060348
Si Si3 0.425212 0.324877 0.144835
Si Si4 0.920020 0.163363 0.738850
Si Si5 0.079160 0.329324 0.364522
O O1 0.828038 0.803756 0.500000
O O2 0.750000 0.750000 0.582338
O O3 0.882723 0.759480 0.589997
O O4 0.812556 0.000000 0.576945
O O5 0.309062 0.500000 0.067957
O O6 0.250000 0.250000 0.076813
O O7 0.376651 0.263579 0.098906
O O8 0.339370 0.288149 0.000000
O O9 0.500000 0.259175 0.135151
O O10 0.428993 0.500000 0.142653
O O11 0.396617 0.278301 0.203062
O O12 0.895333 0.274027 0.693117
O O13 0.000000 0.154250 0.740154
O O14 0.890648 0.000000 0.727208
O O15 0.096806 0.500000 0.369558
O O16 0.000000 0.299114 0.372015
#
# Coordination Sequence:
#
# PCOD8270667 Si02
#       5
#    16  16  16  16  16
#     4  10  21  37  56  76 100 131 165 201 243 291
#     4   9  17  29  45  65  91 122 153 188 233 284
#     4   8  14  26  46  70  91 115 154 200 239 275
#     4   8  14  27  47  68  92 123 157 195 240 286
#     4  10  20  33  51  76 104 132 164 202 241 284
#
# _framework density 17.611453000000001
#
# number of rings (size 3 to 8) (size 9 to 14) (size 15 to 20)
#    0.000    3.000    0.000    2.400    0.000    3.200 
#    0.000    6.000    0.000    4.200    0.000    2.800 
#    0.000    0.000    0.000    0.000    0.000    0.000 
#
# Total GULP energy -495878.991104 kJ/mol
# GULP energy per Si atom -12396.974778 kJ/mol
# Density = 1.757137 g / cm^3
# Si number density = 17.611453 Si / 1000 Ang^3
#
#
#
# Elastic Constant Matrix: (Units=GPa)
#
#
# Indices 1 2 3 4 5 6 
#
# 1 83.3189 45.9054 65.3634 0.0000 0.0000 0.0000
# 2 45.9054 78.4274 53.7455 0.0000 0.0000 0.0000
# 3 65.3634 53.7455 106.6485 0.0000 0.0000 0.0000
# 4 0.0000 0.0000 0.0000 20.4880 0.0000 0.0000
# 5 0.0000 0.0000 0.0000 0.0000 13.9147 0.0000
# 6 0.0000 0.0000 0.0000 0.0000 0.0000 26.2672
#
#
#
# Elastic Compliance Matrix: (Units=1/GPa)
#
#
# Indices 1 2 3 4 5 6 
#
# 1 0.025010 -0.006316 -0.012145 0.000000 0.000000 0.000000
# 2 -0.006316 0.021072 -0.006748 0.000000 0.000000 0.000000
# 3 -0.012145 -0.006748 0.020221 0.000000 0.000000 0.000000
# 4 0.000000 0.000000 0.000000 0.048809 0.000000 0.000000
# 5 0.000000 0.000000 0.000000 0.000000 0.071867 0.000000
# 6 0.000000 0.000000 0.000000 0.000000 0.000000 0.038070
#
#
# Mechanical properties :
#
#
# Convention : Reuss Voigt Hill
#
# Bulk Modulus (GPa) = 62.95644 66.49147 64.72396
# Shear Modulus (GPa) = 17.80866 19.02602 18.41734
#
# Velocity S-wave (km/s) = 3.18338 3.29039 3.23733
# Velocity P-wave (km/s) = 7.02403 7.22995 7.12773
#
# Compressibility (1/GPa) = 0.01588400
#
# Stress axis : x y z
#
# Youngs Moduli (GPa) = 39.98446 47.45633 49.45316
#
# Poissons Ratio (x) = 0.29972 0.60062
# Poissons Ratio (y) = 0.25253 0.33373
# Poissons Ratio (z) = 0.48562 0.32026
#
# Static dielectric constant tensor:
#      x y z
#    x 3.187510 0.000000 0.000000 
#    y 0.000000 3.154770 0.000000 
#    z 0.000000 0.000000 3.557270 
# 
# 
# High freq. dielectric constant tensor:
#      x y z
#    x 1.658840 0.000000 0.000000 
#    y 0.000000 1.663540 0.000000 
#    z 0.000000 0.000000 1.690170 
# 
# From -- ./inp_files/72717.got.cif
#   From: 2010.03.12/outbox.cif.g09.slc.cpg/sg65_37_cif.got.tgz:72717.got - 2010.04.10 20:52:16.
