data_PCOD8270229
_publ_section_title
;
Structure prediction by ZEFSAII (Michael W. Deem and Ramdas Pophale) SiO2 
 PCOD8270229
Probable space group: C M M M
;
_chemical_formula_sum "Si O2"
_cell_formula_units_Z 72
_cell_length_a 29.320446
_cell_length_b 9.201738
_cell_length_c 15.165291
_cell_angle_alpha 90.000000
_cell_angle_beta 90.000000
_cell_angle_gamma 90.000000
_cell_volume 4091.581289
_symmetry_space_group_name_H-M "C M M M"
_symmetry_group_IT_number 65
_symmetry_cell_setting 'orthorhombic'
loop_
_space_group_symop_operation_xyz
x,y,z
-x,-y,z
x,-y,-z
-x,y,-z
-x,-y,-z
x,y,-z
-x,y,z
x,-y,z
1/2+x,1/2+y,z
1/2-x,1/2-y,z
1/2+x,1/2-y,-z
1/2-x,1/2+y,-z
1/2-x,1/2-y,-z
1/2+x,1/2+y,-z
1/2-x,1/2+y,z
1/2+x,1/2-y,z
loop_
_atom_site_type_symbol
_atom_site_label
_atom_site_fract_x
_atom_site_fract_y
_atom_site_fract_z
Si Si1 0.553870 0.660391 0.000000
Si Si2 0.949299 0.666819 0.170039
Si Si3 0.795499 0.669786 0.400902
Si Si4 0.703166 0.330210 0.898417
Si Si5 0.856078 0.332383 0.759404
O O1 0.569466 0.744431 0.913217
O O2 0.576478 0.500000 0.000000
O O3 0.500000 0.648189 0.000000
O O4 0.951908 0.500000 0.140561
O O5 0.911146 0.689681 0.245807
O O6 0.000000 0.718456 0.201869
O O7 0.809209 0.718295 0.500000
O O8 0.785149 0.500000 0.397102
O O9 0.750000 0.750000 0.368817
O O10 0.836374 0.714377 0.335572
O O11 0.709682 0.500000 0.878823
O O12 0.750000 0.250000 0.874793
O O13 0.663813 0.266577 0.836869
O O14 0.689194 0.302493 0.000000
O O15 0.844016 0.500000 0.780332
#
# Coordination Sequence:
#
# PCOD8270229 Si02
#       5
#     8  16  16  16  16
#     4   9  17  29  45  65  90 121 160 205 247 281
#     4   9  18  32  48  67  94 129 167 204 242 286
#     4   9  18  33  52  74  99 124 154 196 246 296
#     4  10  21  35  49  68  97 131 163 197 238 287
#     4  10  20  32  50  73  96 128 165 202 243 289
#
# _framework density 17.597107000000001
#
# number of rings (size 3 to 8) (size 9 to 14) (size 15 to 20)
#    0.000    2.556    0.000    1.667    1.556    6.222 
#    0.000    0.000    0.000    0.667    0.000    4.667 
#    0.000    0.000    0.000   13.111    0.000   13.778 
#
# Total GULP energy -446288.302750 kJ/mol
# GULP energy per Si atom -12396.897299 kJ/mol
# Density = 1.755706 g / cm^3
# Si number density = 17.597107 Si / 1000 Ang^3
#
#
#
# Elastic Constant Matrix: (Units=GPa)
#
#
# Indices 1 2 3 4 5 6 
#
# 1 125.7211 40.9090 73.6225 0.0000 0.0000 0.0000
# 2 40.9090 64.6228 36.9950 0.0000 0.0000 0.0000
# 3 73.6225 36.9950 94.0226 0.0000 0.0000 0.0000
# 4 0.0000 0.0000 0.0000 18.7572 0.0000 0.0000
# 5 0.0000 0.0000 0.0000 0.0000 25.0700 0.0000
# 6 0.0000 0.0000 0.0000 0.0000 0.0000 20.6398
#
#
#
# Elastic Compliance Matrix: (Units=1/GPa)
#
#
# Indices 1 2 3 4 5 6 
#
# 1 0.015332 -0.003657 -0.010566 0.000000 0.000000 0.000000
# 2 -0.003657 0.020846 -0.005339 0.000000 0.000000 0.000000
# 3 -0.010566 -0.005339 0.021010 0.000000 0.000000 0.000000
# 4 0.000000 0.000000 0.000000 0.053313 0.000000 0.000000
# 5 0.000000 0.000000 0.000000 0.000000 0.039888 0.000000
# 6 0.000000 0.000000 0.000000 0.000000 0.000000 0.048450
#
#
# Mechanical properties :
#
#
# Convention : Reuss Voigt Hill
#
# Bulk Modulus (GPa) = 55.35950 65.26883 60.31417
# Shear Modulus (GPa) = 20.49318 21.74940 21.12129
#
# Velocity S-wave (km/s) = 3.41629 3.51944 3.46825
# Velocity P-wave (km/s) = 6.86215 7.32711 7.09844
#
# Compressibility (1/GPa) = 0.01806375
#
# Stress axis : x y z
#
# Youngs Moduli (GPa) = 65.22456 47.97185 47.59590
#
# Poissons Ratio (x) = 0.17541 0.50292
# Poissons Ratio (y) = 0.23850 0.25411
# Poissons Ratio (z) = 0.68919 0.25612
#
# Static dielectric constant tensor:
#      x y z
#    x 3.345420 0.000000 0.000000 
#    y 0.000000 3.374660 0.000000 
#    z 0.000000 0.000000 3.229780 
# 
# 
# High freq. dielectric constant tensor:
#      x y z
#    x 1.679380 0.000000 0.000000 
#    y 0.000000 1.682310 0.000000 
#    z 0.000000 0.000000 1.654840 
# 
# From -- ./inp_files/36926.got.cif
#   From: 2010.03.12/outbox.cif.g09.slc.cpg/sg65_19_cif.got.tgz:36926.got - 2010.04.10 20:52:16.
