data_PCOD8270184
_publ_section_title
;
Structure prediction by ZEFSAII (Michael W. Deem and Ramdas Pophale) SiO2 
 PCOD8270184
Probable space group: C M M M
;
_chemical_formula_sum "Si O2"
_cell_formula_units_Z 104
_cell_length_a 8.415005
_cell_length_b 20.100352
_cell_length_c 34.305743
_cell_angle_alpha 90.000000
_cell_angle_beta 90.000000
_cell_angle_gamma 90.000000
_cell_volume 5802.629894
_symmetry_space_group_name_H-M "C M M M"
_symmetry_group_IT_number 65
_symmetry_cell_setting 'orthorhombic'
loop_
_space_group_symop_operation_xyz
x,y,z
-x,-y,z
x,-y,-z
-x,y,-z
-x,-y,-z
x,y,-z
-x,y,z
x,-y,z
1/2+x,1/2+y,z
1/2-x,1/2-y,z
1/2+x,1/2-y,-z
1/2-x,1/2+y,-z
1/2-x,1/2-y,-z
1/2+x,1/2+y,-z
1/2-x,1/2+y,z
1/2+x,1/2-y,z
loop_
_atom_site_type_symbol
_atom_site_label
_atom_site_fract_x
_atom_site_fract_y
_atom_site_fract_z
Si Si1 0.500000 0.578979 0.955397
Si Si2 0.317359 0.075045 0.175308
Si Si3 0.321506 0.078967 0.086636
Si Si4 0.316434 0.076085 0.378021
Si Si5 0.685570 0.680717 0.680761
Si Si6 0.684680 0.681249 0.767458
Si Si7 0.679691 0.578881 0.542292
O O1 0.500000 0.500000 0.950863
O O2 0.333319 0.607056 0.936873
O O3 0.500000 0.601926 0.000000
O O4 0.500000 0.077650 0.187752
O O5 0.295874 0.101028 0.131227
O O6 0.219326 0.120419 0.204297
O O7 0.251339 0.000000 0.178923
O O8 0.500000 0.104238 0.072447
O O9 0.324520 0.000000 0.083312
O O10 0.500000 0.081126 0.368590
O O11 0.225546 0.118856 0.346331
O O12 0.285166 0.104780 0.421627
O O13 0.255333 0.000000 0.374776
O O14 0.500000 0.687188 0.683378
O O15 0.750000 0.750000 0.663030
O O16 0.758164 0.668782 0.724205
O O17 0.500000 0.689447 0.763455
O O18 0.750000 0.750000 0.785497
O O19 0.741525 0.605973 0.500000
O O20 0.500000 0.603342 0.549155
O O21 0.686966 0.500000 0.541004
#
# Coordination Sequence:
#
# PCOD8270184 Si02
#       7
#     8  16  16  16  16  16  16
#     4   9  16  24  38  62  92 130 170 206 247 297
#     4   9  18  32  50  72  99 133 167 203 252 301
#     4   8  15  27  41  61  92 129 165 203 250 299
#     4  10  20  32  49  75 103 131 164 203 243 285
#     4  10  21  37  54  71  95 129 167 202 247 300
#     4  10  21  35  52  73  97 128 163 207 252 295
#     4   8  14  26  45  69  97 128 160 196 241 287
#
# _framework density 17.922908
#
# number of rings (size 3 to 8) (size 9 to 14) (size 15 to 20)
#    0.000    2.846    0.000    2.769    1.077    4.308 
#    0.000    6.154    0.000    0.462    0.000    0.000 
#    0.000    0.615    0.308    0.000    0.000    0.000 
#
# Total GULP energy -644339.405006 kJ/mol
# GULP energy per Si atom -12391.142404 kJ/mol
# Density = 1.788212 g / cm^3
# Si number density = 17.922908 Si / 1000 Ang^3
#
#
#
# Elastic Constant Matrix: (Units=GPa)
#
#
# Indices 1 2 3 4 5 6 
#
# 1 89.0430 28.4240 50.0065 0.0000 0.0000 0.0000
# 2 28.4240 55.7616 42.8584 0.0000 0.0000 0.0000
# 3 50.0065 42.8584 103.7749 0.0000 0.0000 0.0000
# 4 0.0000 0.0000 0.0000 -3.4631 0.0000 0.0000
# 5 0.0000 0.0000 0.0000 0.0000 26.6872 0.0000
# 6 0.0000 0.0000 0.0000 0.0000 0.0000 23.1971
#
#
#
# Elastic Compliance Matrix: (Units=1/GPa)
#
#
# Indices 1 2 3 4 5 6 
#
# 1 0.015783 -0.003223 -0.006274 0.000000 0.000000 0.000000
# 2 -0.003223 0.026931 -0.009570 0.000000 0.000000 0.000000
# 3 -0.006274 -0.009570 0.016612 0.000000 0.000000 0.000000
# 4 0.000000 0.000000 0.000000 -0.288758 0.000000 0.000000
# 5 0.000000 0.000000 0.000000 0.000000 0.037471 0.000000
# 6 0.000000 0.000000 0.000000 0.000000 0.000000 0.043109
#
#
# Mechanical properties :
#
#
# Convention : Reuss Voigt Hill
#
# Bulk Modulus (GPa) = 47.18570 54.57301 50.87936
# Shear Modulus (GPa) = -48.23724 17.77029 -15.23347
#
# Velocity S-wave (km/s) = -5.19347 3.15220 -2.91854
# Velocity P-wave (km/s) = 3.09495 6.61539 4.13429
#
# Compressibility (1/GPa) = 0.02119286
#
# Stress axis : x y z
#
# Youngs Moduli (GPa) = 63.35929 37.13142 60.19778
#
# Poissons Ratio (x) = 0.11966 0.37771
# Poissons Ratio (y) = 0.20419 0.57607
# Poissons Ratio (z) = 0.39755 0.35533
#
# Static dielectric constant tensor:
#      x y z
#    x 3.508190 0.000000 0.000000 
#    y 0.000000 2.880870 0.000000 
#    z 0.000000 0.000000 3.593880 
# 
# 
# High freq. dielectric constant tensor:
#      x y z
#    x 1.702790 0.000000 0.000000 
#    y 0.000000 1.640500 0.000000 
#    z 0.000000 0.000000 1.696790 
# 
# From -- ./inp_files/76948.got.cif
#   From: 2010.03.12/outbox.cif.g09.slc.cpg/sg65_39_cif.got.tgz:76948.got - 2010.04.10 20:52:16.
