data_PCOD8270026
_publ_section_title
;
Structure prediction by ZEFSAII (Michael W. Deem and Ramdas Pophale) SiO2 
 PCOD8270026
Probable space group: C M M M
;
_chemical_formula_sum "Si O2"
_cell_formula_units_Z 104
_cell_length_a 8.976331
_cell_length_b 29.735144
_cell_length_c 23.018364
_cell_angle_alpha 90.000000
_cell_angle_beta 90.000000
_cell_angle_gamma 90.000000
_cell_volume 6143.888963
_symmetry_space_group_name_H-M "C M M M"
_symmetry_group_IT_number 65
_symmetry_cell_setting 'orthorhombic'
loop_
_space_group_symop_operation_xyz
x,y,z
-x,-y,z
x,-y,-z
-x,y,-z
-x,-y,-z
x,y,-z
-x,y,z
x,-y,z
1/2+x,1/2+y,z
1/2-x,1/2-y,z
1/2+x,1/2-y,-z
1/2-x,1/2+y,-z
1/2-x,1/2-y,-z
1/2+x,1/2+y,-z
1/2-x,1/2+y,z
1/2+x,1/2-y,z
loop_
_atom_site_type_symbol
_atom_site_label
_atom_site_fract_x
_atom_site_fract_y
_atom_site_fract_z
Si Si1 0.826430 0.052847 0.813167
Si Si2 0.824744 0.052816 0.500000
Si Si3 0.673813 0.883231 0.273885
Si Si4 0.324367 0.885337 0.408310
Si Si5 0.331541 0.294194 0.409283
Si Si6 0.169376 0.946654 0.061336
Si Si7 0.166951 0.206389 0.271125
O O1 0.730240 0.074870 0.762837
O O2 0.763521 0.069873 0.876743
O O3 0.000000 0.065606 0.806320
O O4 0.803804 0.000000 0.806559
O O5 0.751379 0.073920 0.442594
O O6 0.000000 0.062695 0.500000
O O7 0.790274 0.000000 0.500000
O O8 0.500000 0.876501 0.265663
O O9 0.714062 0.892622 0.340814
O O10 0.751209 0.838377 0.249592
O O11 0.500000 0.884923 0.420222
O O12 0.257075 0.838146 0.430786
O O13 0.500000 0.296068 0.433409
O O14 0.250000 0.250000 0.434648
O O15 0.331806 0.291878 0.340243
O O16 0.000000 0.930117 0.059646
O O17 0.174169 0.000000 0.062554
O O18 0.246993 0.929842 0.000000
O O19 0.250000 0.250000 0.245474
O O20 0.000000 0.206093 0.246491
#
# Coordination Sequence:
#
# PCOD8270026 Si02
#       7
#    16   8  16  16  16  16  16
#     4   9  17  28  43  65  93 125 160 197 236 276
#     4  11  25  43  60  75  90 113 151 199 245 285
#     4  10  20  32  47  69  97 127 157 190 230 276
#     4  10  21  37  55  73  94 122 156 192 232 279
#     4   9  16  28  49  76 103 127 150 179 221 274
#     4   7  10  19  37  60  85 115 153 194 232 271
#     4   9  16  27  45  68  94 123 154 188 227 273
#
# _framework density 16.927389000000002
#
# number of rings (size 3 to 8) (size 9 to 14) (size 15 to 20)
#    0.000    2.846    0.000    3.462    0.000    7.077 
#    0.000    3.462    0.000    0.462    0.000    2.154 
#    0.000    0.615    0.000    1.692    0.000    2.462 
#
# Total GULP energy -644365.760671 kJ/mol
# GULP energy per Si atom -12391.649244 kJ/mol
# Density = 1.688886 g / cm^3
# Si number density = 16.927389 Si / 1000 Ang^3
#
#
#
# Elastic Constant Matrix: (Units=GPa)
#
#
# Indices 1 2 3 4 5 6 
#
# 1 101.8604 51.8080 41.2969 0.0000 0.0000 0.0000
# 2 51.8080 81.9467 43.6750 0.0000 0.0000 0.0000
# 3 41.2969 43.6750 84.7340 0.0000 0.0000 0.0000
# 4 0.0000 0.0000 0.0000 -1.7373 0.0000 0.0000
# 5 0.0000 0.0000 0.0000 0.0000 10.5026 0.0000
# 6 0.0000 0.0000 0.0000 0.0000 0.0000 31.5087
#
#
#
# Elastic Compliance Matrix: (Units=1/GPa)
#
#
# Indices 1 2 3 4 5 6 
#
# 1 0.015138 -0.007774 -0.003371 0.000000 0.000000 0.000000
# 2 -0.007774 0.020817 -0.006941 0.000000 0.000000 0.000000
# 3 -0.003371 -0.006941 0.017022 0.000000 0.000000 0.000000
# 4 0.000000 0.000000 0.000000 -0.575613 0.000000 0.000000
# 5 0.000000 0.000000 0.000000 0.000000 0.095215 0.000000
# 6 0.000000 0.000000 0.000000 0.000000 0.000000 0.031737
#
#
# Mechanical properties :
#
#
# Convention : Reuss Voigt Hill
#
# Bulk Modulus (GPa) = 59.50413 60.23344 59.86878
# Shear Modulus (GPa) = -14.12789 16.83888 1.35549
#
# Velocity S-wave (km/s) = -2.89211 3.15742 0.89583
# Velocity P-wave (km/s) = 4.90678 6.99665 6.04275
#
# Compressibility (1/GPa) = 0.01680556
#
# Stress axis : x y z
#
# Youngs Moduli (GPa) = 66.05925 48.03701 58.74663
#
# Poissons Ratio (x) = 0.37343 0.19803
# Poissons Ratio (y) = 0.51354 0.40777
# Poissons Ratio (z) = 0.22268 0.33344
#
# Static dielectric constant tensor:
#      x y z
#    x 3.157010 0.000000 0.000000 
#    y 0.000000 3.055240 0.000000 
#    z 0.000000 0.000000 3.220780 
# 
# 
# High freq. dielectric constant tensor:
#      x y z
#    x 1.648360 0.000000 0.000000 
#    y 0.000000 1.633800 0.000000 
#    z 0.000000 0.000000 1.634310 
# 
# From -- ./inp_files/68161.got.cif
#   From: 2010.03.12/outbox.cif.g09.slc.cpg/sg65_35_cif.got.tgz:68161.got - 2010.04.10 20:52:16.
