data_PCOD8270494
_publ_section_title
;
Structure prediction by ZEFSAII (Michael W. Deem and Ramdas Pophale) SiO2 
 PCOD8270494
Probable space group: C M M M
;
_chemical_formula_sum "Si O2"
_cell_formula_units_Z 88
_cell_length_a 18.513541
_cell_length_b 9.595318
_cell_length_c 28.561155
_cell_angle_alpha 90.000000
_cell_angle_beta 90.000000
_cell_angle_gamma 90.000000
_cell_volume 5073.698203
_symmetry_space_group_name_H-M "C M M M"
_symmetry_group_IT_number 65
_symmetry_cell_setting 'orthorhombic'
loop_
_space_group_symop_operation_xyz
x,y,z
-x,-y,z
x,-y,-z
-x,y,-z
-x,-y,-z
x,y,-z
-x,y,z
x,-y,z
1/2+x,1/2+y,z
1/2-x,1/2-y,z
1/2+x,1/2-y,-z
1/2-x,1/2+y,-z
1/2-x,1/2-y,-z
1/2+x,1/2+y,-z
1/2-x,1/2+y,z
1/2+x,1/2-y,z
loop_
_atom_site_type_symbol
_atom_site_label
_atom_site_fract_x
_atom_site_fract_y
_atom_site_fract_z
Si Si1 0.581446 0.835121 0.500000
Si Si2 0.917011 0.338242 0.678051
Si Si3 0.920482 0.165620 0.865713
Si Si4 0.413930 0.655142 0.763721
Si Si5 0.676205 0.164431 0.587841
Si Si6 0.179011 0.839455 0.948080
O O1 0.500000 0.771211 0.500000
O O2 0.625398 0.785050 0.454576
O O3 0.574540 0.000000 0.500000
O O4 0.911558 0.500000 0.689904
O O5 0.886172 0.257131 0.723126
O O6 0.867065 0.297446 0.634642
O O7 0.000000 0.296758 0.666575
O O8 0.886361 0.207046 0.814955
O O9 0.873977 0.223231 0.908848
O O10 0.000000 0.231700 0.871084
O O11 0.926023 0.000000 0.868126
O O12 0.500000 0.653335 0.765752
O O13 0.384630 0.500000 0.752677
O O14 0.750000 0.250000 0.586281
O O15 0.693468 0.000000 0.584522
O O16 0.250000 0.750000 0.945050
O O17 0.198168 0.000000 0.937500
O O18 0.143952 0.825175 0.000000
#
# Coordination Sequence:
#
# PCOD8270494 Si02
#       6
#     8  16  16  16  16  16
#     4   9  17  32  55  77  94 119 158 194 224 267
#     4   9  17  30  48  69  92 119 154 191 222 259
#     4   8  14  26  45  68  90 112 145 188 227 264
#     4   8  14  26  45  67  90 117 148 184 227 269
#     4  10  20  33  50  72  98 126 153 186 229 271
#     4   9  17  29  45  64  87 116 147 180 221 268
#
# _framework density 17.344351
#
# number of rings (size 3 to 8) (size 9 to 14) (size 15 to 20)
#    0.000    3.182    0.000    1.909    0.000    3.273 
#    0.000    3.636    0.000    8.182    0.000    2.545 
#    0.000    0.000    0.000    0.000    0.000    0.000 
#
# Total GULP energy -545328.508331 kJ/mol
# GULP energy per Si atom -12393.829735 kJ/mol
# Density = 1.730487 g / cm^3
# Si number density = 17.344351 Si / 1000 Ang^3
#
#
#
# Elastic Constant Matrix: (Units=GPa)
#
#
# Indices 1 2 3 4 5 6 
#
# 1 91.4035 35.7468 76.6048 0.0000 0.0000 0.0000
# 2 35.7468 40.5970 51.6206 0.0000 0.0000 0.0000
# 3 76.6048 51.6206 184.3104 0.0000 0.0000 0.0000
# 4 0.0000 0.0000 0.0000 23.8209 0.0000 0.0000
# 5 0.0000 0.0000 0.0000 0.0000 9.2126 0.0000
# 6 0.0000 0.0000 0.0000 0.0000 0.0000 21.2571
#
#
#
# Elastic Compliance Matrix: (Units=1/GPa)
#
#
# Indices 1 2 3 4 5 6 
#
# 1 0.019324 -0.010565 -0.005072 0.000000 0.000000 0.000000
# 2 -0.010565 0.044033 -0.007941 0.000000 0.000000 0.000000
# 3 -0.005072 -0.007941 0.009758 0.000000 0.000000 0.000000
# 4 0.000000 0.000000 0.000000 0.041980 0.000000 0.000000
# 5 0.000000 0.000000 0.000000 0.000000 0.108547 0.000000
# 6 0.000000 0.000000 0.000000 0.000000 0.000000 0.047043
#
#
# Mechanical properties :
#
#
# Convention : Reuss Voigt Hill
#
# Bulk Modulus (GPa) = 38.52564 71.58391 55.05478
# Shear Modulus (GPa) = 15.31419 21.01405 18.16412
#
# Velocity S-wave (km/s) = 2.97467 3.48455 3.23966
# Velocity P-wave (km/s) = 5.83598 7.58625 6.76793
#
# Compressibility (1/GPa) = 0.02595674
#
# Stress axis : x y z
#
# Youngs Moduli (GPa) = 51.75031 22.71032 102.47993
#
# Poissons Ratio (x) = 0.23994 0.51982
# Poissons Ratio (y) = 0.54675 0.81382
# Poissons Ratio (z) = 0.26250 0.18035
#
# Static dielectric constant tensor:
#      x y z
#    x 3.129560 0.000000 0.000000 
#    y 0.000000 2.983320 0.000000 
#    z 0.000000 0.000000 3.688560 
# 
# 
# High freq. dielectric constant tensor:
#      x y z
#    x 1.646090 0.000000 0.000000 
#    y 0.000000 1.636790 0.000000 
#    z 0.000000 0.000000 1.691010 
# 
# From -- ./inp_files/74739.got.cif
#   From: 2010.03.12/outbox.cif.g09.slc.cpg/sg65_38_cif.got.tgz:74739.got - 2010.04.10 20:52:16.
