data_PCOD8270418
_publ_section_title
;
Structure prediction by ZEFSAII (Michael W. Deem and Ramdas Pophale) SiO2 
 PCOD8270418
Probable space group: C M M M
;
_chemical_formula_sum "Si O2"
_cell_formula_units_Z 104
_cell_length_a 27.998880
_cell_length_b 28.043563
_cell_length_c 7.679407
_cell_angle_alpha 90.000000
_cell_angle_beta 90.000000
_cell_angle_gamma 90.000000
_cell_volume 6029.780951
_symmetry_space_group_name_H-M "C M M M"
_symmetry_group_IT_number 65
_symmetry_cell_setting 'orthorhombic'
loop_
_space_group_symop_operation_xyz
x,y,z
-x,-y,z
x,-y,-z
-x,y,-z
-x,-y,-z
x,y,-z
-x,y,z
x,-y,z
1/2+x,1/2+y,z
1/2-x,1/2-y,z
1/2+x,1/2-y,-z
1/2-x,1/2+y,-z
1/2-x,1/2-y,-z
1/2+x,1/2+y,-z
1/2-x,1/2+y,z
1/2+x,1/2-y,z
loop_
_atom_site_type_symbol
_atom_site_label
_atom_site_fract_x
_atom_site_fract_y
_atom_site_fract_z
Si Si1 0.314578 0.057345 0.000000
Si Si2 0.946958 0.325832 0.301420
Si Si3 0.556432 0.724022 0.195812
Si Si4 0.116440 0.588024 0.292351
Si Si5 0.863890 0.944210 0.298075
Si Si6 0.052611 0.877897 0.300942
Si Si7 0.706753 0.556135 0.000000
Si Si8 0.447724 0.000000 0.704425
O O1 0.336527 0.079392 0.822780
O O2 0.260242 0.076232 0.000000
O O3 0.318914 0.000000 0.000000
O O4 0.954026 0.339822 0.500000
O O5 0.924902 0.272551 0.285467
O O6 0.908625 0.363149 0.226246
O O7 0.000000 0.329346 0.211126
O O8 0.500000 0.723997 0.212862
O O9 0.575062 0.675348 0.283643
O O10 0.574939 0.724518 0.000000
O O11 0.129066 0.587567 0.500000
O O12 0.080156 0.546718 0.236636
O O13 0.852195 0.931495 0.500000
O O14 0.910381 0.916293 0.224856
O O15 0.820088 0.927302 0.176657
O O16 0.874655 0.000000 0.276106
O O17 0.045339 0.890431 0.500000
O O18 0.000000 0.881514 0.208299
O O19 0.709502 0.500000 0.000000
O O20 0.500000 0.000000 0.793037
O O21 0.453693 0.000000 0.500000
#
# Coordination Sequence:
#
# PCOD8270418 Si02
#       8
#     8  16  16  16  16  16   8   8
#     4  11  22  36  52  72  96 124 163 210 256 300
#     4   9  17  30  47  66  94 132 168 201 239 285
#     4   9  17  27  41  66  98 132 168 202 232 270
#     4  10  20  33  49  71  97 128 163 202 249 297
#     4   9  18  33  52  76 103 131 165 198 235 289
#     4   9  17  29  47  72 104 138 165 193 231 278
#     4   9  20  36  53  71  95 127 163 208 253 290
#     4   9  16  29  47  67  98 133 161 190 233 295
#
# _framework density 17.247724999999999
#
# number of rings (size 3 to 8) (size 9 to 14) (size 15 to 20)
#    0.000    2.692    0.769    0.923    2.154    4.615 
#    0.000    4.615    0.000    1.385    0.000    2.154 
#    0.000    4.923    0.000    0.000    0.000    0.000 
#
# Total GULP energy -644325.442507 kJ/mol
# GULP energy per Si atom -12390.873894 kJ/mol
# Density = 1.720847 g / cm^3
# Si number density = 17.247725 Si / 1000 Ang^3
#
#
#
# Elastic Constant Matrix: (Units=GPa)
#
#
# Indices 1 2 3 4 5 6 
#
# 1 117.1957 63.3181 44.1869 0.0000 0.0000 0.0000
# 2 63.3181 98.1525 26.9817 0.0000 0.0000 0.0000
# 3 44.1869 26.9817 66.0202 0.0000 0.0000 0.0000
# 4 0.0000 0.0000 0.0000 15.6671 0.0000 0.0000
# 5 0.0000 0.0000 0.0000 0.0000 21.6518 0.0000
# 6 0.0000 0.0000 0.0000 0.0000 0.0000 12.6456
#
#
#
# Elastic Compliance Matrix: (Units=1/GPa)
#
#
# Indices 1 2 3 4 5 6 
#
# 1 0.015598 -0.008103 -0.007128 0.000000 0.000000 0.000000
# 2 -0.008103 0.015687 -0.000988 0.000000 0.000000 0.000000
# 3 -0.007128 -0.000988 0.020321 0.000000 0.000000 0.000000
# 4 0.000000 0.000000 0.000000 0.063828 0.000000 0.000000
# 5 0.000000 0.000000 0.000000 0.000000 0.046186 0.000000
# 6 0.000000 0.000000 0.000000 0.000000 0.000000 0.079079
#
#
# Mechanical properties :
#
#
# Convention : Reuss Voigt Hill
#
# Bulk Modulus (GPa) = 52.16841 61.14909 56.65875
# Shear Modulus (GPa) = 17.88742 19.78501 18.83622
#
# Velocity S-wave (km/s) = 3.22388 3.39057 3.30828
# Velocity P-wave (km/s) = 6.64606 7.13151 6.89306
#
# Compressibility (1/GPa) = 0.01916869
#
# Stress axis : x y z
#
# Youngs Moduli (GPa) = 64.11063 63.74742 49.20912
#
# Poissons Ratio (x) = 0.51653 0.35077
# Poissons Ratio (y) = 0.51947 0.04861
# Poissons Ratio (z) = 0.45699 0.06298
#
# Static dielectric constant tensor:
#      x y z
#    x 3.239280 0.000000 0.000000 
#    y 0.000000 3.347200 0.000000 
#    z 0.000000 0.000000 3.161250 
# 
# 
# High freq. dielectric constant tensor:
#      x y z
#    x 1.623330 0.000000 0.000000 
#    y 0.000000 1.663600 0.000000 
#    z 0.000000 0.000000 1.665760 
# 
# From -- ./inp_files/15077.got.cif
#   From: 2010.03.12/outbox.cif.g09.slc.cpg/sg65_8_cif.got.tgz:15077.got - 2010.04.10 20:52:16.
