data_PCOD8270058
_publ_section_title
;
Structure prediction by ZEFSAII (Michael W. Deem and Ramdas Pophale) SiO2 
 PCOD8270058
Probable space group: C M M M
;
_chemical_formula_sum "Si O2"
_cell_formula_units_Z 104
_cell_length_a 8.968818
_cell_length_b 30.458783
_cell_length_c 22.339558
_cell_angle_alpha 90.000000
_cell_angle_beta 90.000000
_cell_angle_gamma 90.000000
_cell_volume 6102.704397
_symmetry_space_group_name_H-M "C M M M"
_symmetry_group_IT_number 65
_symmetry_cell_setting 'orthorhombic'
loop_
_space_group_symop_operation_xyz
x,y,z
-x,-y,z
x,-y,-z
-x,y,-z
-x,-y,-z
x,y,-z
-x,y,z
x,-y,z
1/2+x,1/2+y,z
1/2-x,1/2-y,z
1/2+x,1/2-y,-z
1/2-x,1/2+y,-z
1/2-x,1/2-y,-z
1/2+x,1/2+y,-z
1/2-x,1/2+y,z
1/2+x,1/2-y,z
loop_
_atom_site_type_symbol
_atom_site_label
_atom_site_fract_x
_atom_site_fract_y
_atom_site_fract_z
Si Si1 0.830345 0.050845 0.931226
Si Si2 0.828017 0.290487 0.155699
Si Si3 0.672414 0.113090 0.158305
Si Si4 0.173473 0.208996 0.716322
Si Si5 0.668012 0.552166 0.500000
Si Si6 0.326465 0.611496 0.714770
Si Si7 0.325386 0.949053 0.380476
O O1 0.717258 0.077538 0.890438
O O2 0.000000 0.065868 0.919002
O O3 0.811538 0.000000 0.915119
O O4 0.787813 0.059359 0.000000
O O5 0.750000 0.250000 0.119070
O O6 0.804069 0.338794 0.127402
O O7 0.752897 0.292555 0.220145
O O8 0.000000 0.278741 0.162122
O O9 0.500000 0.106688 0.176379
O O10 0.771678 0.107559 0.217232
O O11 0.250000 0.250000 0.679751
O O12 0.198451 0.160728 0.687588
O O13 0.000000 0.219067 0.723741
O O14 0.672374 0.500000 0.500000
O O15 0.500000 0.570360 0.500000
O O16 0.750231 0.569676 0.559196
O O17 0.500000 0.598924 0.713327
O O18 0.235144 0.577242 0.675857
O O19 0.500000 0.941636 0.386682
O O20 0.285607 0.000000 0.370542
#
# Coordination Sequence:
#
# PCOD8270058 Si02
#       7
#    16  16  16  16   8  16  16
#     4   9  19  36  55  72  90 117 156 197 235 280
#     4   9  16  26  42  65  92 121 152 185 224 273
#     4  10  20  32  48  72  99 125 154 192 238 283
#     4   9  16  26  42  64  90 121 156 192 230 274
#     4   9  17  31  51  71  92 123 162 199 235 279
#     4  10  20  32  47  70  99 130 162 194 234 284
#     4  10  20  33  49  70  97 128 162 200 239 278
#
# _framework density 17.041625
#
# number of rings (size 3 to 8) (size 9 to 14) (size 15 to 20)
#    0.000    2.538    0.000    3.923    0.000    6.769 
#    0.000    0.769    0.000    0.462    0.000    0.538 
#    0.000    0.000    0.000    0.000    0.000    0.000 
#
# Total GULP energy -644406.084516 kJ/mol
# GULP energy per Si atom -12392.424702 kJ/mol
# Density = 1.700284 g / cm^3
# Si number density = 17.041625 Si / 1000 Ang^3
#
#
#
# Elastic Constant Matrix: (Units=GPa)
#
#
# Indices 1 2 3 4 5 6 
#
# 1 96.3560 50.1381 25.6509 0.0000 0.0000 0.0000
# 2 50.1381 92.1967 41.2778 0.0000 0.0000 0.0000
# 3 25.6509 41.2778 52.6004 0.0000 0.0000 0.0000
# 4 0.0000 0.0000 0.0000 -1.7445 0.0000 0.0000
# 5 0.0000 0.0000 0.0000 0.0000 26.5641 0.0000
# 6 0.0000 0.0000 0.0000 0.0000 0.0000 31.0216
#
#
#
# Elastic Compliance Matrix: (Units=1/GPa)
#
#
# Indices 1 2 3 4 5 6 
#
# 1 0.014537 -0.007294 -0.001365 0.000000 0.000000 0.000000
# 2 -0.007294 0.020381 -0.012437 0.000000 0.000000 0.000000
# 3 -0.001365 -0.012437 0.029437 0.000000 0.000000 0.000000
# 4 0.000000 0.000000 0.000000 -0.573241 0.000000 0.000000
# 5 0.000000 0.000000 0.000000 0.000000 0.037645 0.000000
# 6 0.000000 0.000000 0.000000 0.000000 0.000000 0.032236
#
#
# Mechanical properties :
#
#
# Convention : Reuss Voigt Hill
#
# Bulk Modulus (GPa) = 45.12098 52.80963 48.96530
# Shear Modulus (GPa) = -12.83942 19.44066 3.30062
#
# Velocity S-wave (km/s) = -2.74782 3.38120 1.39320
# Velocity P-wave (km/s) = 4.05796 6.80435 5.60207
#
# Compressibility (1/GPa) = 0.02216264
#
# Stress axis : x y z
#
# Youngs Moduli (GPa) = 68.78932 49.06418 33.97122
#
# Poissons Ratio (x) = 0.35790 0.04636
# Poissons Ratio (y) = 0.50178 0.42250
# Poissons Ratio (z) = 0.09389 0.61021
#
# Static dielectric constant tensor:
#      x y z
#    x 3.329240 0.000000 0.000000 
#    y 0.000000 3.939300 0.000000 
#    z 0.000000 0.000000 2.793110 
# 
# 
# High freq. dielectric constant tensor:
#      x y z
#    x 1.676730 0.000000 0.000000 
#    y 0.000000 1.665530 0.000000 
#    z 0.000000 0.000000 1.607800 
# 
# From -- ./inp_files/68479.got.cif
#   From: 2010.03.12/outbox.cif.g09.slc.cpg/sg65_35_cif.got.tgz:68479.got - 2010.04.10 20:52:16.
