data_PCOD8270253
_publ_section_title
;
Structure prediction by ZEFSAII (Michael W. Deem and Ramdas Pophale) SiO2 
 PCOD8270253
Probable space group: C M M M
;
_chemical_formula_sum "Si O2"
_cell_formula_units_Z 96
_cell_length_a 18.483801
_cell_length_b 17.210846
_cell_length_c 14.123912
_cell_angle_alpha 90.000000
_cell_angle_beta 90.000000
_cell_angle_gamma 90.000000
_cell_volume 4493.125050
_symmetry_space_group_name_H-M "C M M M"
_symmetry_group_IT_number 65
_symmetry_cell_setting 'orthorhombic'
loop_
_space_group_symop_operation_xyz
x,y,z
-x,-y,z
x,-y,-z
-x,y,-z
-x,-y,-z
x,y,-z
-x,y,z
x,-y,z
1/2+x,1/2+y,z
1/2-x,1/2-y,z
1/2+x,1/2-y,-z
1/2-x,1/2+y,-z
1/2-x,1/2-y,-z
1/2+x,1/2+y,-z
1/2-x,1/2+y,z
1/2+x,1/2-y,z
loop_
_atom_site_type_symbol
_atom_site_label
_atom_site_fract_x
_atom_site_fract_y
_atom_site_fract_z
Si Si1 0.080409 0.774724 0.892418
Si Si2 0.843477 0.154733 0.609772
Si Si3 0.794413 0.590878 0.701657
Si Si4 0.084369 0.681153 0.610589
Si Si5 0.207073 0.670379 0.893467
Si Si6 0.585198 0.583957 0.224396
O O1 0.123057 0.694401 0.880877
O O2 0.119500 0.846042 0.836992
O O3 0.000000 0.758870 0.853126
O O4 0.079051 0.802979 0.000000
O O5 0.853580 0.137118 0.500000
O O6 0.759597 0.143694 0.638437
O O7 0.873760 0.239651 0.636161
O O8 0.891256 0.092558 0.666707
O O9 0.782014 0.500000 0.682292
O O10 0.875928 0.613780 0.670875
O O11 0.777157 0.606766 0.812803
O O12 0.090876 0.661488 0.500000
O O13 0.000000 0.687012 0.640570
O O14 0.250000 0.750000 0.878061
O O15 0.221411 0.637050 0.000000
O O16 0.500000 0.587596 0.215032
O O17 0.613346 0.500000 0.187996
#
# Coordination Sequence:
#
# PCOD8270253 Si02
#       6
#    16  16  16  16  16  16
#     4   9  18  34  57  82 108 144 191 240 287 337
#     4  11  23  40  61  84 113 152 199 246 291 343
#     4  12  25  39  60  90 124 159 191 235 299 360
#     4  10  22  41  65  90 116 153 203 252 292 337
#     4  10  21  38  60  84 111 148 195 242 286 340
#     4  10  20  32  50  81 119 156 193 237 292 350
#
# _framework density 21.365974999999999
#
# number of rings (size 3 to 8) (size 9 to 14) (size 15 to 20)
#    0.000    1.667    0.000    5.000    0.000    7.667 
#    0.000    3.333    0.000    5.000    0.000    3.500 
#    0.000    0.000    0.000    0.000    0.000    0.000 
#
# Total GULP energy -595055.255898 kJ/mol
# GULP energy per Si atom -12396.984498 kJ/mol
# Density = 2.131735 g / cm^3
# Si number density = 21.365975 Si / 1000 Ang^3
#
#
#
# Elastic Constant Matrix: (Units=GPa)
#
#
# Indices 1 2 3 4 5 6 
#
# 1 59.2222 34.1773 10.6796 0.0000 0.0000 0.0000
# 2 34.1773 66.5175 22.3795 0.0000 0.0000 0.0000
# 3 10.6796 22.3795 67.4532 0.0000 0.0000 0.0000
# 4 0.0000 0.0000 0.0000 23.1998 0.0000 0.0000
# 5 0.0000 0.0000 0.0000 0.0000 29.3358 0.0000
# 6 0.0000 0.0000 0.0000 0.0000 0.0000 23.5604
#
#
#
# Elastic Compliance Matrix: (Units=1/GPa)
#
#
# Indices 1 2 3 4 5 6 
#
# 1 0.024009 -0.012447 0.000328 0.000000 0.000000 0.000000
# 2 -0.012447 0.023375 -0.005785 0.000000 0.000000 0.000000
# 3 0.000328 -0.005785 0.016692 0.000000 0.000000 0.000000
# 4 0.000000 0.000000 0.000000 0.043104 0.000000 0.000000
# 5 0.000000 0.000000 0.000000 0.000000 0.034088 0.000000
# 6 0.000000 0.000000 0.000000 0.000000 0.000000 0.042444
#
#
# Mechanical properties :
#
#
# Convention : Reuss Voigt Hill
#
# Bulk Modulus (GPa) = 35.37254 36.40730 35.88992
# Shear Modulus (GPa) = 21.83951 23.61628 22.72790
#
# Velocity S-wave (km/s) = 3.20060 3.32825 3.26504
# Velocity P-wave (km/s) = 5.49999 5.64327 5.57209
#
# Compressibility (1/GPa) = 0.02827052
#
# Stress axis : x y z
#
# Youngs Moduli (GPa) = 41.65035 42.78054 59.90760
#
# Poissons Ratio (x) = 0.53248 -0.01966
# Poissons Ratio (y) = 0.51841 0.34655
# Poissons Ratio (z) = -0.01367 0.24747
#
# Static dielectric constant tensor:
#      x y z
#    x 4.115210 0.000000 0.000000 
#    y 0.000000 3.788240 0.000000 
#    z 0.000000 0.000000 3.946050 
# 
# 
# High freq. dielectric constant tensor:
#      x y z
#    x 1.850470 0.000000 0.000000 
#    y 0.000000 1.809280 0.000000 
#    z 0.000000 0.000000 1.845600 
# 
# From -- ./inp_files/44092.got.cif
#   From: 2010.03.12/outbox.cif.g09.slc.cpg/sg65_23_cif.got.tgz:44092.got - 2010.04.10 20:52:16.
