data_PCOD8270525
_publ_section_title
;
Structure prediction by ZEFSAII (Michael W. Deem and Ramdas Pophale) SiO2 
 PCOD8270525
Probable space group: C M M M
;
_chemical_formula_sum "Si O2"
_cell_formula_units_Z 96
_cell_length_a 9.052044
_cell_length_b 26.975268
_cell_length_c 18.888524
_cell_angle_alpha 90.000000
_cell_angle_beta 90.000000
_cell_angle_gamma 90.000000
_cell_volume 4612.224588
_symmetry_space_group_name_H-M "C M M M"
_symmetry_group_IT_number 65
_symmetry_cell_setting 'orthorhombic'
loop_
_space_group_symop_operation_xyz
x,y,z
-x,-y,z
x,-y,-z
-x,y,-z
-x,-y,-z
x,y,-z
-x,y,z
x,-y,z
1/2+x,1/2+y,z
1/2-x,1/2-y,z
1/2+x,1/2-y,-z
1/2-x,1/2+y,-z
1/2-x,1/2-y,-z
1/2+x,1/2+y,-z
1/2-x,1/2+y,z
1/2+x,1/2-y,z
loop_
_atom_site_type_symbol
_atom_site_label
_atom_site_fract_x
_atom_site_fract_y
_atom_site_fract_z
Si Si1 0.329249 0.699577 0.285300
Si Si2 0.326564 0.103503 0.921512
Si Si3 0.328422 0.358224 0.420833
Si Si4 0.329784 0.943453 0.649055
Si Si5 0.162813 0.794702 0.919763
Si Si6 0.827749 0.903603 0.216099
O O1 0.500000 0.712228 0.289681
O O2 0.250000 0.750000 0.262279
O O3 0.272669 0.681661 0.362948
O O4 0.297540 0.655653 0.228137
O O5 0.500000 0.101817 0.906832
O O6 0.269654 0.159005 0.917834
O O7 0.241457 0.076020 0.857776
O O8 0.291151 0.080883 0.000000
O O9 0.301953 0.337336 0.500000
O O10 0.500000 0.370356 0.406697
O O11 0.238822 0.409238 0.412162
O O12 0.500000 0.929315 0.660370
O O13 0.245343 0.935297 0.722397
O O14 0.310975 0.000000 0.624527
O O15 0.250000 0.750000 0.880386
O O16 0.000000 0.804742 0.883920
O O17 0.131568 0.778674 0.000000
O O18 0.000000 0.915221 0.215718
#
# Coordination Sequence:
#
# PCOD8270525 Si02
#       6
#    16  16  16  16  16  16
#     4   9  19  34  52  76 106 144 188 229 268 311
#     4  10  20  33  50  73 101 133 170 217 276 334
#     4   9  19  36  56  81 115 150 185 225 267 317
#     4  10  21  37  58  84 112 141 176 221 273 327
#     4   9  16  26  40  59  86 121 162 207 254 306
#     4  10  21  37  56  78 106 141 183 227 270 326
#
# _framework density 20.814250000000001
#
# number of rings (size 3 to 8) (size 9 to 14) (size 15 to 20)
#    0.000    2.500    0.000    3.000    0.000    9.333 
#    0.000    3.333    0.000    0.500    0.000    3.500 
#    0.000    0.000    0.000    0.000    0.000    0.000 
#
# Total GULP energy -594926.772999 kJ/mol
# GULP energy per Si atom -12394.307771 kJ/mol
# Density = 2.076688 g / cm^3
# Si number density = 20.814250 Si / 1000 Ang^3
#
#
#
# Elastic Constant Matrix: (Units=GPa)
#
#
# Indices 1 2 3 4 5 6 
#
# 1 91.2834 16.0622 33.5901 0.0000 0.0000 0.0000
# 2 16.0622 41.5371 -2.1889 0.0000 0.0000 0.0000
# 3 33.5901 -2.1889 115.7912 0.0000 0.0000 0.0000
# 4 0.0000 0.0000 0.0000 -0.3859 0.0000 0.0000
# 5 0.0000 0.0000 0.0000 0.0000 30.2734 0.0000
# 6 0.0000 0.0000 0.0000 0.0000 0.0000 27.5142
#
#
#
# Elastic Compliance Matrix: (Units=1/GPa)
#
#
# Indices 1 2 3 4 5 6 
#
# 1 0.013365 -0.005378 -0.003979 0.000000 0.000000 0.000000
# 2 -0.005378 0.026263 0.002057 0.000000 0.000000 0.000000
# 3 -0.003979 0.002057 0.009829 0.000000 0.000000 0.000000
# 4 0.000000 0.000000 0.000000 -2.591633 0.000000 0.000000
# 5 0.000000 0.000000 0.000000 0.000000 0.033032 0.000000
# 6 0.000000 0.000000 0.000000 0.000000 0.000000 0.036345
#
#
# Mechanical properties :
#
#
# Convention : Reuss Voigt Hill
#
# Bulk Modulus (GPa) = 28.68860 38.17096 33.42978
# Shear Modulus (GPa) = -2.04367 24.89025 11.42329
#
# Velocity S-wave (km/s) = -0.99196 3.46182 2.34523
# Velocity P-wave (km/s) = 3.53569 5.86154 4.84039
#
# Compressibility (1/GPa) = 0.03485705
#
# Stress axis : x y z
#
# Youngs Moduli (GPa) = 74.82051 38.07656 101.73625
#
# Poissons Ratio (x) = 0.20478 0.40479
# Poissons Ratio (y) = 0.40238 -0.20923
# Poissons Ratio (z) = 0.29770 -0.07831
#
# Static dielectric constant tensor:
#      x y z
#    x 4.001210 0.000000 0.000000 
#    y 0.000000 3.384880 0.000000 
#    z 0.000000 0.000000 4.128860 
# 
# 
# High freq. dielectric constant tensor:
#      x y z
#    x 1.821500 0.000000 0.000000 
#    y 0.000000 1.776460 0.000000 
#    z 0.000000 0.000000 1.825290 
# 
# From -- ./inp_files/60205.got.cif
#   From: 2010.03.12/outbox.cif.g09.slc.cpg/sg65_31_cif.got.tgz:60205.got - 2010.04.10 20:52:16.
