data_PCOD8270343
_publ_section_title
;
Structure prediction by ZEFSAII (Michael W. Deem and Ramdas Pophale) SiO2 
 PCOD8270343
Probable space group: C M M M
;
_chemical_formula_sum "Si O2"
_cell_formula_units_Z 104
_cell_length_a 8.034333
_cell_length_b 27.582460
_cell_length_c 28.604580
_cell_angle_alpha 90.000000
_cell_angle_beta 90.000000
_cell_angle_gamma 90.000000
_cell_volume 6338.965680
_symmetry_space_group_name_H-M "C M M M"
_symmetry_group_IT_number 65
_symmetry_cell_setting 'orthorhombic'
loop_
_space_group_symop_operation_xyz
x,y,z
-x,-y,z
x,-y,-z
-x,y,-z
-x,-y,-z
x,y,-z
-x,y,z
x,-y,z
1/2+x,1/2+y,z
1/2-x,1/2-y,z
1/2+x,1/2-y,-z
1/2-x,1/2+y,-z
1/2-x,1/2-y,-z
1/2+x,1/2+y,-z
1/2-x,1/2+y,z
1/2+x,1/2-y,z
loop_
_atom_site_type_symbol
_atom_site_label
_atom_site_fract_x
_atom_site_fract_y
_atom_site_fract_z
Si Si1 0.304167 0.945938 0.890993
Si Si2 0.695280 0.302895 0.860393
Si Si3 0.303619 0.553893 0.284273
Si Si4 0.807759 0.892912 0.195569
Si Si5 0.500000 0.057797 0.552949
Si Si6 0.313536 0.442234 0.388323
Si Si7 0.195989 0.644545 0.051528
O O1 0.500000 0.940123 0.883373
O O2 0.215845 0.936012 0.841621
O O3 0.238284 0.907287 0.929142
O O4 0.257362 0.000000 0.908071
O O5 0.500000 0.307482 0.859114
O O6 0.750000 0.250000 0.843550
O O7 0.774408 0.343255 0.825118
O O8 0.753859 0.312313 0.913499
O O9 0.500000 0.549497 0.276917
O O10 0.224885 0.500000 0.278754
O O11 0.226551 0.590073 0.244971
O O12 0.266041 0.575058 0.335906
O O13 0.000000 0.882754 0.204323
O O14 0.500000 0.076954 0.500000
O O15 0.669178 0.077775 0.577350
O O16 0.500000 0.000000 0.554933
O O17 0.500000 0.423299 0.402642
O O18 0.317759 0.500000 0.389112
O O19 0.000000 0.643085 0.047206
O O20 0.274359 0.653597 0.000000
#
# Coordination Sequence:
#
# PCOD8270343 Si02
#       7
#    16  16  16  16   8  16  16
#     4   9  17  28  41  61  88 110 130 159 196 239
#     4  10  20  33  49  65  82 104 129 165 206 248
#     4   8  13  23  40  59  80 105 132 167 205 241
#     4   9  17  29  45  63  80 104 138 168 199 246
#     4   9  16  24  34  50  74 106 148 192 221 247
#     4   8  14  24  36  51  74 105 140 180 221 253
#     4   9  18  32  48  64  82 105 133 164 198 238
#
# _framework density 16.406461
#
# number of rings (size 3 to 8) (size 9 to 14) (size 15 to 20)
#    0.000    3.154    0.000    1.846    0.000    2.769 
#    1.385    3.077    0.000    0.000    0.000    4.308 
#    0.000    0.000    0.000    0.000    0.000    0.769 
#
# Total GULP energy -644338.471985 kJ/mol
# GULP energy per Si atom -12391.124461 kJ/mol
# Density = 1.636912 g / cm^3
# Si number density = 16.406461 Si / 1000 Ang^3
#
#
#
# Elastic Constant Matrix: (Units=GPa)
#
#
# Indices 1 2 3 4 5 6 
#
# 1 43.8524 10.5299 40.0701 0.0000 0.0000 0.0000
# 2 10.5299 70.1446 34.0538 0.0000 0.0000 0.0000
# 3 40.0701 34.0538 131.5664 0.0000 0.0000 0.0000
# 4 0.0000 0.0000 0.0000 12.1346 0.0000 0.0000
# 5 0.0000 0.0000 0.0000 0.0000 20.1368 0.0000
# 6 0.0000 0.0000 0.0000 0.0000 0.0000 11.1890
#
#
#
# Elastic Compliance Matrix: (Units=1/GPa)
#
#
# Indices 1 2 3 4 5 6 
#
# 1 0.031597 -0.000082 -0.009602 0.000000 0.000000 0.000000
# 2 -0.000082 0.016305 -0.004196 0.000000 0.000000 0.000000
# 3 -0.009602 -0.004196 0.011611 0.000000 0.000000 0.000000
# 4 0.000000 0.000000 0.000000 0.082409 0.000000 0.000000
# 5 0.000000 0.000000 0.000000 0.000000 0.049660 0.000000
# 6 0.000000 0.000000 0.000000 0.000000 0.000000 0.089374
#
#
# Mechanical properties :
#
#
# Convention : Reuss Voigt Hill
#
# Bulk Modulus (GPa) = 31.49093 46.09680 38.79387
# Shear Modulus (GPa) = 15.65921 19.41937 17.53929
#
# Velocity S-wave (km/s) = 3.09278 3.44414 3.27318
# Velocity P-wave (km/s) = 5.65593 6.63128 6.16293
#
# Compressibility (1/GPa) = 0.03175517
#
# Stress axis : x y z
#
# Youngs Moduli (GPa) = 31.64812 61.32955 86.12413
#
# Poissons Ratio (x) = 0.00501 0.82699
# Poissons Ratio (y) = 0.00258 0.36134
# Poissons Ratio (z) = 0.30389 0.25731
#
# Static dielectric constant tensor:
#      x y z
#    x 3.034820 0.000000 0.000000 
#    y 0.000000 2.850260 0.000000 
#    z 0.000000 0.000000 3.368540 
# 
# 
# High freq. dielectric constant tensor:
#      x y z
#    x 1.623630 0.000000 0.000000 
#    y 0.000000 1.584090 0.000000 
#    z 0.000000 0.000000 1.621090 
# 
# From -- ./inp_files/73757.got.cif
#   From: 2010.03.12/outbox.cif.g09.slc.cpg/sg65_37_cif.got.tgz:73757.got - 2010.04.10 20:52:16.
