data_PCOD8270918
_publ_section_title
;
Structure prediction by ZEFSAII (Michael W. Deem and Ramdas Pophale) SiO2 
 PCOD8270918
Probable space group: C M M M
;
_chemical_formula_sum "Si O2"
_cell_formula_units_Z 56
_cell_length_a 29.318607
_cell_length_b 13.594702
_cell_length_c 8.639375
_cell_angle_alpha 90.000000
_cell_angle_beta 90.000000
_cell_angle_gamma 90.000000
_cell_volume 3443.462435
_symmetry_space_group_name_H-M "C M M M"
_symmetry_group_IT_number 65
_symmetry_cell_setting 'orthorhombic'
loop_
_space_group_symop_operation_xyz
x,y,z
-x,-y,z
x,-y,-z
-x,y,-z
-x,-y,-z
x,y,-z
-x,y,z
x,-y,z
1/2+x,1/2+y,z
1/2-x,1/2-y,z
1/2+x,1/2-y,-z
1/2-x,1/2+y,-z
1/2-x,1/2-y,-z
1/2+x,1/2+y,-z
1/2-x,1/2+y,z
1/2+x,1/2-y,z
loop_
_atom_site_type_symbol
_atom_site_label
_atom_site_fract_x
_atom_site_fract_y
_atom_site_fract_z
Si Si1 0.727763 0.111696 0.818649
Si Si2 0.685594 0.294915 0.679769
Si Si3 0.000000 0.107305 0.817167
Si Si4 0.098625 0.883155 0.821530
O O1 0.692572 0.181325 0.727622
O O2 0.779822 0.136292 0.774639
O O3 0.716764 0.000000 0.771914
O O4 0.721620 0.129267 0.000000
O O5 0.696268 0.307547 0.500000
O O6 0.634236 0.327130 0.714049
O O7 0.048134 0.158885 0.772005
O O8 0.000000 0.000000 0.738433
O O9 0.000000 0.092800 0.000000
O O10 0.101082 0.000000 0.793895
O O11 0.109214 0.858390 0.000000
#
# Coordination Sequence:
#
# PCOD8270918 Si02
#       4
#    16  16   8  16
#     4  10  20  34  50  65  84 114 152 190 221 253
#     4  11  21  30  44  67  94 121 146 176 219 269
#     4   7  12  24  43  65  86 113 150 187 219 250
#     4   9  16  28  46  66  90 120 153 186 217 254
#
# _framework density 16.262701
#
# number of rings (size 3 to 8) (size 9 to 14) (size 15 to 20)
#    0.000    2.429    0.000    7.714    0.000    6.286 
#    0.000    0.714    0.000    2.571    0.000    1.000 
#    0.000    8.000    0.000    0.000    0.000    0.000 
#
# Total GULP energy -347016.989353 kJ/mol
# GULP energy per Si atom -12393.463905 kJ/mol
# Density = 1.622569 g / cm^3
# Si number density = 16.262701 Si / 1000 Ang^3
#
#
#
# Elastic Constant Matrix: (Units=GPa)
#
#
# Indices 1 2 3 4 5 6 
#
# 1 112.9069 34.8073 15.1829 0.0000 0.0000 0.0000
# 2 34.8073 71.2876 23.8704 0.0000 0.0000 0.0000
# 3 15.1829 23.8704 40.8473 0.0000 0.0000 0.0000
# 4 0.0000 0.0000 0.0000 5.5676 0.0000 0.0000
# 5 0.0000 0.0000 0.0000 0.0000 8.6140 0.0000
# 6 0.0000 0.0000 0.0000 0.0000 0.0000 18.6806
#
#
#
# Elastic Compliance Matrix: (Units=1/GPa)
#
#
# Indices 1 2 3 4 5 6 
#
# 1 0.010468 -0.004735 -0.001124 0.000000 0.000000 0.000000
# 2 -0.004735 0.019582 -0.009683 0.000000 0.000000 0.000000
# 3 -0.001124 -0.009683 0.030558 0.000000 0.000000 0.000000
# 4 0.000000 0.000000 0.000000 0.179611 0.000000 0.000000
# 5 0.000000 0.000000 0.000000 0.000000 0.116089 0.000000
# 6 0.000000 0.000000 0.000000 0.000000 0.000000 0.053532
#
#
# Mechanical properties :
#
#
# Convention : Reuss Voigt Hill
#
# Bulk Modulus (GPa) = 33.87140 41.41813 37.64476
# Shear Modulus (GPa) = 11.09226 16.65119 13.87172
#
# Velocity S-wave (km/s) = 2.61447 3.20330 2.92375
# Velocity P-wave (km/s) = 5.47602 6.26138 5.88183
#
# Compressibility (1/GPa) = 0.02952343
#
# Stress axis : x y z
#
# Youngs Moduli (GPa) = 95.53292 51.06753 32.72464
#
# Poissons Ratio (x) = 0.24178 0.03678
# Poissons Ratio (y) = 0.45231 0.31689
# Poissons Ratio (z) = 0.10738 0.49451
#
# Static dielectric constant tensor:
#      x y z
#    x 3.261940 0.000000 0.000000 
#    y 0.000000 2.895790 0.000000 
#    z 0.000000 0.000000 2.950060 
# 
# 
# High freq. dielectric constant tensor:
#      x y z
#    x 1.626000 0.000000 0.000000 
#    y 0.000000 1.591980 0.000000 
#    z 0.000000 0.000000 1.621190 
# 
# From -- ./inp_files/7503.got.cif
#   From: 2010.03.12/outbox.cif.g09.slc.cpg/sg65_4_cif.got.tgz:7503.got - 2010.04.10 20:52:16.
