data_PCOD8270630
_publ_section_title
;
Structure prediction by ZEFSAII (Michael W. Deem and Ramdas Pophale) SiO2 
 PCOD8270630
Probable space group: C M M M
;
_chemical_formula_sum "Si O2"
_cell_formula_units_Z 80
_cell_length_a 19.332052
_cell_length_b 9.256847
_cell_length_c 24.927528
_cell_angle_alpha 90.000000
_cell_angle_beta 90.000000
_cell_angle_gamma 90.000000
_cell_volume 4460.877046
_symmetry_space_group_name_H-M "C M M M"
_symmetry_group_IT_number 65
_symmetry_cell_setting 'orthorhombic'
loop_
_space_group_symop_operation_xyz
x,y,z
-x,-y,z
x,-y,-z
-x,y,-z
-x,-y,-z
x,y,-z
-x,y,z
x,-y,z
1/2+x,1/2+y,z
1/2-x,1/2-y,z
1/2+x,1/2-y,-z
1/2-x,1/2+y,-z
1/2-x,1/2-y,-z
1/2+x,1/2+y,-z
1/2-x,1/2+y,z
1/2+x,1/2-y,z
loop_
_atom_site_type_symbol
_atom_site_label
_atom_site_fract_x
_atom_site_fract_y
_atom_site_fract_z
Si Si1 0.419050 0.836130 0.561114
Si Si2 0.180999 0.168498 0.241562
Si Si3 0.077075 0.828776 0.848389
Si Si4 0.819534 0.168962 0.061110
Si Si5 0.319299 0.668790 0.364488
O O1 0.396002 0.807334 0.500000
O O2 0.500000 0.809648 0.567480
O O3 0.381923 0.723056 0.599454
O O4 0.399909 0.000000 0.577574
O O5 0.250000 0.250000 0.223277
O O6 0.117567 0.222961 0.204874
O O7 0.162015 0.204091 0.302915
O O8 0.195206 0.000000 0.232818
O O9 0.117990 0.776354 0.901330
O O10 0.000000 0.760269 0.848406
O O11 0.071080 0.000000 0.848637
O O12 0.750000 0.250000 0.078418
O O13 0.805618 0.000000 0.069244
O O14 0.840164 0.205578 0.000000
O O15 0.307982 0.500000 0.373991
O O16 0.250000 0.750000 0.382379
#
# Coordination Sequence:
#
# PCOD8270630 Si02
#       5
#    16  16  16  16  16
#     4   9  19  36  55  74  99 131 163 196 239 290
#     4   9  18  32  50  70  93 124 159 195 236 282
#     4   9  17  29  46  69  96 124 155 194 238 280
#     4   9  17  29  47  70  93 121 158 196 234 278
#     4  10  20  33  51  75 100 127 162 203 244 287
#
# _framework density 17.933692000000001
#
# number of rings (size 3 to 8) (size 9 to 14) (size 15 to 20)
#    0.000    2.800    0.000    1.800    0.000    3.200 
#    0.000    5.000    0.000    2.400    0.000    2.800 
#    0.000    0.000    0.000    0.000    0.000    0.000 
#
# Total GULP energy -496011.227439 kJ/mol
# GULP energy per Si atom -12400.280686 kJ/mol
# Density = 1.789287 g / cm^3
# Si number density = 17.933692 Si / 1000 Ang^3
#
#
#
# Elastic Constant Matrix: (Units=GPa)
#
#
# Indices 1 2 3 4 5 6 
#
# 1 139.5395 45.6554 80.4403 0.0000 0.0000 0.0000
# 2 45.6554 53.1112 39.8320 0.0000 0.0000 0.0000
# 3 80.4403 39.8320 106.3672 0.0000 0.0000 0.0000
# 4 0.0000 0.0000 0.0000 19.5502 0.0000 0.0000
# 5 0.0000 0.0000 0.0000 0.0000 30.6605 0.0000
# 6 0.0000 0.0000 0.0000 0.0000 0.0000 29.5267
#
#
#
# Elastic Compliance Matrix: (Units=1/GPa)
#
#
# Indices 1 2 3 4 5 6 
#
# 1 0.013814 -0.005618 -0.008343 0.000000 0.000000 0.000000
# 2 -0.005618 0.028466 -0.006411 0.000000 0.000000 0.000000
# 3 -0.008343 -0.006411 0.018112 0.000000 0.000000 0.000000
# 4 0.000000 0.000000 0.000000 0.051150 0.000000 0.000000
# 5 0.000000 0.000000 0.000000 0.000000 0.032615 0.000000
# 6 0.000000 0.000000 0.000000 0.000000 0.000000 0.033868
#
#
# Mechanical properties :
#
#
# Convention : Reuss Voigt Hill
#
# Bulk Modulus (GPa) = 50.89781 70.09700 60.49741
# Shear Modulus (GPa) = 22.19081 24.82018 23.50549
#
# Velocity S-wave (km/s) = 3.52146 3.72425 3.62427
# Velocity P-wave (km/s) = 6.70649 7.59375 7.16387
#
# Compressibility (1/GPa) = 0.01964721
#
# Stress axis : x y z
#
# Youngs Moduli (GPa) = 72.39003 35.12984 55.21233
#
# Poissons Ratio (x) = 0.19735 0.46065
# Poissons Ratio (y) = 0.40666 0.35399
# Poissons Ratio (z) = 0.60397 0.22523
#
# Static dielectric constant tensor:
#      x y z
#    x 3.424410 0.000000 0.000000 
#    y 0.000000 3.128350 0.000000 
#    z 0.000000 0.000000 3.438290 
# 
# 
# High freq. dielectric constant tensor:
#      x y z
#    x 1.691770 0.000000 0.000000 
#    y 0.000000 1.671680 0.000000 
#    z 0.000000 0.000000 1.703880 
# 
# From -- ./inp_files/72724.got.cif
#   From: 2010.03.12/outbox.cif.g09.slc.cpg/sg65_37_cif.got.tgz:72724.got - 2010.04.10 20:52:16.
