data_PCOD8270462
_publ_section_title
;
Structure prediction by ZEFSAII (Michael W. Deem and Ramdas Pophale) SiO2 
 PCOD8270462
Probable space group: C M M M
;
_chemical_formula_sum "Si O2"
_cell_formula_units_Z 104
_cell_length_a 9.418945
_cell_length_b 18.361192
_cell_length_c 33.408934
_cell_angle_alpha 90.000000
_cell_angle_beta 90.000000
_cell_angle_gamma 90.000000
_cell_volume 5777.843197
_symmetry_space_group_name_H-M "C M M M"
_symmetry_group_IT_number 65
_symmetry_cell_setting 'orthorhombic'
loop_
_space_group_symop_operation_xyz
x,y,z
-x,-y,z
x,-y,-z
-x,y,-z
-x,-y,-z
x,y,-z
-x,y,z
x,-y,z
1/2+x,1/2+y,z
1/2-x,1/2-y,z
1/2+x,1/2-y,-z
1/2-x,1/2+y,-z
1/2-x,1/2-y,-z
1/2+x,1/2+y,-z
1/2-x,1/2+y,z
1/2+x,1/2-y,z
loop_
_atom_site_type_symbol
_atom_site_label
_atom_site_fract_x
_atom_site_fract_y
_atom_site_fract_z
Si Si1 0.831762 0.918286 0.000000
Si Si2 0.334928 0.177830 0.454781
Si Si3 0.832284 0.825266 0.924302
Si Si4 0.664347 0.083651 0.769815
Si Si5 0.832297 0.324918 0.692314
Si Si6 0.668163 0.080741 0.617733
Si Si7 0.834898 0.083502 0.153164
O O1 0.779540 0.875279 0.960882
O O2 0.000000 0.924167 0.000000
O O3 0.766777 0.000000 0.000000
O O4 0.302594 0.151496 0.500000
O O5 0.500000 0.196005 0.448923
O O6 0.250000 0.250000 0.443887
O O7 0.284515 0.114889 0.424645
O O8 0.750000 0.750000 0.926246
O O9 0.789494 0.866853 0.883920
O O10 0.000000 0.810268 0.926694
O O11 0.500000 0.093666 0.780076
O O12 0.709531 0.130659 0.731781
O O13 0.751217 0.111769 0.808060
O O14 0.700878 0.000000 0.759934
O O15 0.750000 0.250000 0.693155
O O16 0.776124 0.370281 0.654236
O O17 0.000000 0.310316 0.689773
O O18 0.500000 0.075141 0.620431
O O19 0.735064 0.000000 0.620769
O O20 0.000000 0.091373 0.162689
O O21 0.795280 0.000000 0.142995
#
# Coordination Sequence:
#
# PCOD8270462 Si02
#       7
#     8  16  16  16  16  16  16
#     4   9  17  32  55  77  96 125 166 204 236 277
#     4   9  17  29  47  71  97 125 156 191 233 281
#     4  10  20  33  51  75 102 130 160 197 239 283
#     4   9  18  33  52  72  94 123 160 199 238 281
#     4  10  20  33  50  71  95 124 158 196 238 285
#     4   9  17  30  49  71  94 122 158 199 238 276
#     4   9  18  33  52  73  97 127 163 199 235 278
#
# _framework density 17.999797000000001
#
# number of rings (size 3 to 8) (size 9 to 14) (size 15 to 20)
#    0.000    2.692    0.000    1.615    0.000    5.846 
#    0.000    4.615    0.000    4.615    0.000    2.154 
#    0.000    0.000    0.000    0.000    0.000    0.000 
#
# Total GULP energy -644841.459027 kJ/mol
# GULP energy per Si atom -12400.797289 kJ/mol
# Density = 1.795883 g / cm^3
# Si number density = 17.999797 Si / 1000 Ang^3
#
#
#
# Elastic Constant Matrix: (Units=GPa)
#
#
# Indices 1 2 3 4 5 6 
#
# 1 32.1091 45.6465 46.4667 0.0000 0.0000 0.0000
# 2 45.6465 152.9691 104.3759 0.0000 0.0000 0.0000
# 3 46.4667 104.3759 171.8964 0.0000 0.0000 0.0000
# 4 0.0000 0.0000 0.0000 29.1810 0.0000 0.0000
# 5 0.0000 0.0000 0.0000 0.0000 22.0012 0.0000
# 6 0.0000 0.0000 0.0000 0.0000 0.0000 29.5796
#
#
#
# Elastic Compliance Matrix: (Units=1/GPa)
#
#
# Indices 1 2 3 4 5 6 
#
# 1 0.061894 -0.012043 -0.009419 0.000000 0.000000 0.000000
# 2 -0.012043 0.013505 -0.004945 0.000000 0.000000 0.000000
# 3 -0.009419 -0.004945 0.011366 0.000000 0.000000 0.000000
# 4 0.000000 0.000000 0.000000 0.034269 0.000000 0.000000
# 5 0.000000 0.000000 0.000000 0.000000 0.045452 0.000000
# 6 0.000000 0.000000 0.000000 0.000000 0.000000 0.033807
#
#
# Mechanical properties :
#
#
# Convention : Reuss Voigt Hill
#
# Bulk Modulus (GPa) = 29.45291 83.32810 56.39050
# Shear Modulus (GPa) = 18.90908 26.85140 22.88024
#
# Velocity S-wave (km/s) = 3.24468 3.86652 3.56917
# Velocity P-wave (km/s) = 5.51686 8.14418 6.95570
#
# Compressibility (1/GPa) = 0.03395251
#
# Stress axis : x y z
#
# Youngs Moduli (GPa) = 16.15661 74.04736 87.98137
#
# Poissons Ratio (x) = 0.89173 0.82868
# Poissons Ratio (y) = 0.19457 0.43505
# Poissons Ratio (z) = 0.15218 0.36615
#
# Static dielectric constant tensor:
#      x y z
#    x 3.046710 0.000000 0.000000 
#    y 0.000000 3.407550 0.000000 
#    z 0.000000 0.000000 3.560960 
# 
# 
# High freq. dielectric constant tensor:
#      x y z
#    x 1.664090 0.000000 0.000000 
#    y 0.000000 1.700090 0.000000 
#    z 0.000000 0.000000 1.714430 
# 
# From -- ./inp_files/77431.got.cif
#   From: 2010.03.12/outbox.cif.g09.slc.cpg/sg65_39_cif.got.tgz:77431.got - 2010.04.10 20:52:16.
