data_PCOD8270602
_publ_section_title
;
Structure prediction by ZEFSAII (Michael W. Deem and Ramdas Pophale) SiO2 
 PCOD8270602
Probable space group: C M M M
;
_chemical_formula_sum "Si O2"
_cell_formula_units_Z 88
_cell_length_a 18.251669
_cell_length_b 28.709421
_cell_length_c 8.804942
_cell_angle_alpha 90.000000
_cell_angle_beta 90.000000
_cell_angle_gamma 90.000000
_cell_volume 4613.744256
_symmetry_space_group_name_H-M "C M M M"
_symmetry_group_IT_number 65
_symmetry_cell_setting 'orthorhombic'
loop_
_space_group_symop_operation_xyz
x,y,z
-x,-y,z
x,-y,-z
-x,y,-z
-x,-y,-z
x,y,-z
-x,y,z
x,-y,z
1/2+x,1/2+y,z
1/2-x,1/2-y,z
1/2+x,1/2-y,-z
1/2-x,1/2+y,-z
1/2-x,1/2-y,-z
1/2+x,1/2+y,-z
1/2-x,1/2+y,z
1/2+x,1/2-y,z
loop_
_atom_site_type_symbol
_atom_site_label
_atom_site_fract_x
_atom_site_fract_y
_atom_site_fract_z
Si Si1 0.134540 0.389758 0.180708
Si Si2 0.919317 0.052161 0.680407
Si Si3 0.315981 0.280970 0.679285
Si Si4 0.000000 0.445278 0.321200
Si Si5 0.212236 0.115255 0.681351
Si Si6 0.084714 0.711002 0.825395
O O1 0.213791 0.404833 0.243859
O O2 0.123215 0.336240 0.233215
O O3 0.072728 0.422806 0.250531
O O4 0.130607 0.394567 0.000000
O O5 0.916630 0.052594 0.500000
O O6 0.855095 0.084625 0.744323
O O7 0.000000 0.069870 0.734079
O O8 0.906089 0.000000 0.741376
O O9 0.316626 0.281837 0.500000
O O10 0.250000 0.250000 0.744879
O O11 0.306100 0.333020 0.741414
O O12 0.390444 0.256859 0.734923
O O13 0.000000 0.500000 0.283198
O O14 0.000000 0.435945 0.500000
O O15 0.220573 0.113168 0.500000
O O16 0.000000 0.703632 0.794924
O O17 0.103009 0.719665 0.000000
#
# Coordination Sequence:
#
# PCOD8270602 Si02
#       6
#    16  16  16   8  16  16
#     4  11  22  38  59  83 113 151 192 233 285 343
#     4   8  15  30  53  79 106 138 177 226 283 335
#     4  10  20  33  50  78 111 144 182 225 277 326
#     4  11  25  43  63  87 115 149 193 245 296 343
#     4  10  20  34  55  84 116 146 187 238 284 341
#     4  10  21  37  55  77 106 146 192 229 272 337
#
# _framework density 19.073445
#
# number of rings (size 3 to 8) (size 9 to 14) (size 15 to 20)
#    0.000    2.091    2.727    1.364    0.000    4.364 
#    0.000    3.636    0.000    0.545    0.000    1.273 
#    0.000    0.000    0.000    0.000    0.000    0.000 
#
# Total GULP energy -545567.687819 kJ/mol
# GULP energy per Si atom -12399.265632 kJ/mol
# Density = 1.903003 g / cm^3
# Si number density = 19.073445 Si / 1000 Ang^3
#
#
#
# Elastic Constant Matrix: (Units=GPa)
#
#
# Indices 1 2 3 4 5 6 
#
# 1 146.1530 93.8433 38.0234 0.0000 0.0000 0.0000
# 2 93.8433 125.1936 34.0823 0.0000 0.0000 0.0000
# 3 38.0234 34.0823 38.7236 0.0000 0.0000 0.0000
# 4 0.0000 0.0000 0.0000 17.1946 0.0000 0.0000
# 5 0.0000 0.0000 0.0000 0.0000 23.7388 0.0000
# 6 0.0000 0.0000 0.0000 0.0000 0.0000 39.7319
#
#
#
# Elastic Compliance Matrix: (Units=1/GPa)
#
#
# Indices 1 2 3 4 5 6 
#
# 1 0.014180 -0.008993 -0.006008 0.000000 0.000000 0.000000
# 2 -0.008993 0.016209 -0.005435 0.000000 0.000000 0.000000
# 3 -0.006008 -0.005435 0.036507 0.000000 0.000000 0.000000
# 4 0.000000 0.000000 0.000000 0.058158 0.000000 0.000000
# 5 0.000000 0.000000 0.000000 0.000000 0.042125 0.000000
# 6 0.000000 0.000000 0.000000 0.000000 0.000000 0.025169
#
#
# Mechanical properties :
#
#
# Convention : Reuss Voigt Hill
#
# Bulk Modulus (GPa) = 38.42820 71.32980 54.87900
# Shear Modulus (GPa) = 20.67023 25.74113 23.20568
#
# Velocity S-wave (km/s) = 3.29556 3.67765 3.49183
# Velocity P-wave (km/s) = 5.88831 7.45064 6.71507
#
# Compressibility (1/GPa) = 0.02602256
#
# Stress axis : x y z
#
# Youngs Moduli (GPa) = 70.52335 61.69590 27.39201
#
# Poissons Ratio (x) = 0.55485 0.16457
# Poissons Ratio (y) = 0.63424 0.14888
# Poissons Ratio (z) = 0.42370 0.33532
#
# Static dielectric constant tensor:
#      x y z
#    x 3.670570 0.000000 0.000000 
#    y 0.000000 3.723890 0.000000 
#    z 0.000000 0.000000 3.173530 
# 
# 
# High freq. dielectric constant tensor:
#      x y z
#    x 1.754670 0.000000 0.000000 
#    y 0.000000 1.741510 0.000000 
#    z 0.000000 0.000000 1.714720 
# 
# From -- ./inp_files/10088.got.cif
#   From: 2010.03.12/outbox.cif.g09.slc.cpg/sg65_6_cif.got.tgz:10088.got - 2010.04.10 20:52:16.
