data_PCOD8270732
_publ_section_title
;
Structure prediction by ZEFSAII (Michael W. Deem and Ramdas Pophale) SiO2 
 PCOD8270732
Probable space group: C M M M
;
_chemical_formula_sum "Si O2"
_cell_formula_units_Z 104
_cell_length_a 8.710003
_cell_length_b 29.315824
_cell_length_c 22.546169
_cell_angle_alpha 90.000000
_cell_angle_beta 90.000000
_cell_angle_gamma 90.000000
_cell_volume 5756.959422
_symmetry_space_group_name_H-M "C M M M"
_symmetry_group_IT_number 65
_symmetry_cell_setting 'orthorhombic'
loop_
_space_group_symop_operation_xyz
x,y,z
-x,-y,z
x,-y,-z
-x,y,-z
-x,-y,-z
x,y,-z
-x,y,z
x,-y,z
1/2+x,1/2+y,z
1/2-x,1/2-y,z
1/2+x,1/2-y,-z
1/2-x,1/2+y,-z
1/2-x,1/2-y,-z
1/2+x,1/2+y,-z
1/2-x,1/2+y,z
1/2+x,1/2-y,z
loop_
_atom_site_type_symbol
_atom_site_label
_atom_site_fract_x
_atom_site_fract_y
_atom_site_fract_z
Si Si1 0.820724 0.202465 0.839213
Si Si2 0.170393 0.950489 0.070148
Si Si3 0.318905 0.699682 0.500000
Si Si4 0.325314 0.860982 0.069333
Si Si5 0.681023 0.358279 0.386867
Si Si6 0.818307 0.700748 0.285242
Si Si7 0.820503 0.448480 0.568639
O O1 0.750000 0.250000 0.859537
O O2 0.792418 0.169096 0.893781
O O3 0.738494 0.185203 0.779520
O O4 0.000000 0.207604 0.826374
O O5 0.294825 0.913056 0.089418
O O6 0.000000 0.937664 0.094041
O O7 0.220568 0.000000 0.095713
O O8 0.163736 0.953267 0.000000
O O9 0.500000 0.704759 0.500000
O O10 0.250000 0.750000 0.500000
O O11 0.262344 0.671420 0.442951
O O12 0.500000 0.848235 0.084555
O O13 0.289688 0.853671 0.000000
O O14 0.500000 0.354660 0.378093
O O15 0.765041 0.338325 0.329778
O O16 0.726050 0.411352 0.393945
O O17 0.750000 0.750000 0.303225
O O18 0.000000 0.704928 0.285884
O O19 0.775430 0.443032 0.500000
O O20 0.778173 0.500000 0.589803
O O21 0.000000 0.439475 0.577949
#
# Coordination Sequence:
#
# PCOD8270732 Si02
#       7
#    16  16   8  16  16  16  16
#     4  11  22  38  58  78 103 137 177 221 265 316
#     4   8  14  26  45  70 101 136 172 209 251 302
#     4  10  22  34  47  72 107 141 172 213 259 308
#     4  10  20  33  51  78 110 141 175 217 265 317
#     4  11  21  35  53  79 109 142 181 219 266 315
#     4  11  22  38  58  80 105 138 178 220 264 317
#     4   9  18  33  53  78 108 143 183 224 268 318
#
# _framework density 18.065090000000001
#
# number of rings (size 3 to 8) (size 9 to 14) (size 15 to 20)
#    0.000    2.000    0.769    6.000    0.000    4.308 
#    0.000    2.308    0.000    0.923    0.000    0.000 
#    0.000    0.000    0.000    0.000    0.000    0.000 
#
# Total GULP energy -644744.032868 kJ/mol
# GULP energy per Si atom -12398.923709 kJ/mol
# Density = 1.802397 g / cm^3
# Si number density = 18.065090 Si / 1000 Ang^3
#
#
#
# Elastic Constant Matrix: (Units=GPa)
#
#
# Indices 1 2 3 4 5 6 
#
# 1 103.5827 48.1686 37.6116 0.0000 0.0000 0.0000
# 2 48.1686 120.5763 56.6952 0.0000 0.0000 0.0000
# 3 37.6116 56.6952 69.5035 0.0000 0.0000 0.0000
# 4 0.0000 0.0000 0.0000 14.2747 0.0000 0.0000
# 5 0.0000 0.0000 0.0000 0.0000 24.7540 0.0000
# 6 0.0000 0.0000 0.0000 0.0000 0.0000 34.5386
#
#
#
# Elastic Compliance Matrix: (Units=1/GPa)
#
#
# Indices 1 2 3 4 5 6 
#
# 1 0.012640 -0.002974 -0.004414 0.000000 0.000000 0.000000
# 2 -0.002974 0.014153 -0.009936 0.000000 0.000000 0.000000
# 3 -0.004414 -0.009936 0.024881 0.000000 0.000000 0.000000
# 4 0.000000 0.000000 0.000000 0.070054 0.000000 0.000000
# 5 0.000000 0.000000 0.000000 0.000000 0.040397 0.000000
# 6 0.000000 0.000000 0.000000 0.000000 0.000000 0.028953
#
#
# Mechanical properties :
#
#
# Convention : Reuss Voigt Hill
#
# Bulk Modulus (GPa) = 58.73108 64.29034 61.51071
# Shear Modulus (GPa) = 21.60737 24.79261 23.19999
#
# Velocity S-wave (km/s) = 3.46220 3.70862 3.58752
# Velocity P-wave (km/s) = 6.96877 7.34873 7.16127
#
# Compressibility (1/GPa) = 0.01702676
#
# Stress axis : x y z
#
# Youngs Moduli (GPa) = 79.11472 70.65446 40.19086
#
# Poissons Ratio (x) = 0.21012 0.17741
# Poissons Ratio (y) = 0.23528 0.39933
# Poissons Ratio (z) = 0.34922 0.70201
#
# Static dielectric constant tensor:
#      x y z
#    x 3.350600 0.000000 0.000000 
#    y 0.000000 3.545180 0.000000 
#    z 0.000000 0.000000 3.114410 
# 
# 
# High freq. dielectric constant tensor:
#      x y z
#    x 1.707390 0.000000 0.000000 
#    y 0.000000 1.706260 0.000000 
#    z 0.000000 0.000000 1.670200 
# 
# From -- ./inp_files/68230.got.cif
#   From: 2010.03.12/outbox.cif.g09.slc.cpg/sg65_35_cif.got.tgz:68230.got - 2010.04.10 20:52:16.
