data_PCOD8270344
_publ_section_title
;
Structure prediction by ZEFSAII (Michael W. Deem and Ramdas Pophale) SiO2 
 PCOD8270344
Probable space group: C M M M
;
_chemical_formula_sum "Si O2"
_cell_formula_units_Z 88
_cell_length_a 27.136566
_cell_length_b 9.284159
_cell_length_c 23.027791
_cell_angle_alpha 90.000000
_cell_angle_beta 90.000000
_cell_angle_gamma 90.000000
_cell_volume 5801.626119
_symmetry_space_group_name_H-M "C M M M"
_symmetry_group_IT_number 65
_symmetry_cell_setting 'orthorhombic'
loop_
_space_group_symop_operation_xyz
x,y,z
-x,-y,z
x,-y,-z
-x,y,-z
-x,-y,-z
x,y,-z
-x,y,z
x,-y,z
1/2+x,1/2+y,z
1/2-x,1/2-y,z
1/2+x,1/2-y,-z
1/2-x,1/2+y,-z
1/2-x,1/2-y,-z
1/2+x,1/2+y,-z
1/2-x,1/2+y,z
1/2+x,1/2-y,z
loop_
_atom_site_type_symbol
_atom_site_label
_atom_site_fract_x
_atom_site_fract_y
_atom_site_fract_z
Si Si1 0.798579 0.830385 0.832458
Si Si2 0.348941 0.832520 0.933483
Si Si3 0.054748 0.665684 0.868133
Si Si4 0.000000 0.669183 0.433096
Si Si5 0.554374 0.340095 0.653429
Si Si6 0.103168 0.831880 0.767796
O O1 0.750000 0.750000 0.809592
O O2 0.813294 0.766003 0.894984
O O3 0.840631 0.796361 0.784981
O O4 0.789029 0.000000 0.839369
O O5 0.405965 0.797894 0.918492
O O6 0.336793 0.000000 0.921669
O O7 0.339718 0.790871 0.000000
O O8 0.058605 0.500000 0.850088
O O9 0.065466 0.754064 0.810292
O O10 0.000000 0.703654 0.891403
O O11 0.049585 0.734936 0.402738
O O12 0.000000 0.500000 0.424269
O O13 0.000000 0.714279 0.500000
O O14 0.500000 0.347830 0.683101
O O15 0.570526 0.500000 0.632373
O O16 0.592896 0.280568 0.701516
O O17 0.092046 0.000000 0.773203
#
# Coordination Sequence:
#
# PCOD8270344 Si02
#       6
#    16  16  16   8  16  16
#     4  10  20  33  49  65  83 106 134 175 224 269
#     4   9  18  32  47  62  82 108 139 174 212 260
#     4   9  17  27  41  63  87 110 137 171 211 254
#     4   9  17  27  39  61  95 129 156 179 202 229
#     4   8  15  26  42  62  86 118 151 177 201 237
#     4   9  17  30  45  62  84 111 143 176 212 254
#
# _framework density 15.168161
#
# number of rings (size 3 to 8) (size 9 to 14) (size 15 to 20)
#    0.545    2.455    0.000    1.091    0.000    4.364 
#    0.000    1.818    0.000    0.000    0.000    5.091 
#    0.000    0.727    0.000    1.636    0.000    2.909 
#
# Total GULP energy -545278.313371 kJ/mol
# GULP energy per Si atom -12392.688940 kJ/mol
# Density = 1.513364 g / cm^3
# Si number density = 15.168161 Si / 1000 Ang^3
#
#
#
# Elastic Constant Matrix: (Units=GPa)
#
#
# Indices 1 2 3 4 5 6 
#
# 1 71.1406 29.4248 32.3183 0.0000 0.0000 0.0000
# 2 29.4248 57.7722 44.0252 0.0000 0.0000 0.0000
# 3 32.3183 44.0252 104.3736 0.0000 0.0000 0.0000
# 4 0.0000 0.0000 0.0000 23.6991 0.0000 0.0000
# 5 0.0000 0.0000 0.0000 0.0000 15.1984 0.0000
# 6 0.0000 0.0000 0.0000 0.0000 0.0000 19.2770
#
#
#
# Elastic Compliance Matrix: (Units=1/GPa)
#
#
# Indices 1 2 3 4 5 6 
#
# 1 0.018258 -0.007355 -0.002551 0.000000 0.000000 0.000000
# 2 -0.007355 0.028472 -0.009732 0.000000 0.000000 0.000000
# 3 -0.002551 -0.009732 0.014476 0.000000 0.000000 0.000000
# 4 0.000000 0.000000 0.000000 0.042196 0.000000 0.000000
# 5 0.000000 0.000000 0.000000 0.000000 0.065796 0.000000
# 6 0.000000 0.000000 0.000000 0.000000 0.000000 0.051875
#
#
# Mechanical properties :
#
#
# Convention : Reuss Voigt Hill
#
# Bulk Modulus (GPa) = 45.60148 49.42478 47.51313
# Shear Modulus (GPa) = 18.68049 20.13611 19.40830
#
# Velocity S-wave (km/s) = 3.51317 3.64747 3.58095
# Velocity P-wave (km/s) = 6.82537 7.09888 6.96347
#
# Compressibility (1/GPa) = 0.02192911
#
# Stress axis : x y z
#
# Youngs Moduli (GPa) = 54.77128 35.12238 69.08053
#
# Poissons Ratio (x) = 0.25833 0.17622
# Poissons Ratio (y) = 0.40285 0.67230
# Poissons Ratio (z) = 0.13972 0.34181
#
# Static dielectric constant tensor:
#      x y z
#    x 2.919230 0.000000 0.000000 
#    y 0.000000 2.934120 0.000000 
#    z 0.000000 0.000000 2.742880 
# 
# 
# High freq. dielectric constant tensor:
#      x y z
#    x 1.564990 0.000000 0.000000 
#    y 0.000000 1.586350 0.000000 
#    z 0.000000 0.000000 1.555160 
# 
# From -- ./inp_files/72045.got.cif
#   From: 2010.03.12/outbox.cif.g09.slc.cpg/sg65_37_cif.got.tgz:72045.got - 2010.04.10 20:52:16.
