data_PCOD8270142
_publ_section_title
;
Structure prediction by ZEFSAII (Michael W. Deem and Ramdas Pophale) SiO2 
 PCOD8270142
Probable space group: C M M M
;
_chemical_formula_sum "Si O2"
_cell_formula_units_Z 104
_cell_length_a 8.900110
_cell_length_b 27.867109
_cell_length_c 23.376957
_cell_angle_alpha 90.000000
_cell_angle_beta 90.000000
_cell_angle_gamma 90.000000
_cell_volume 5797.960718
_symmetry_space_group_name_H-M "C M M M"
_symmetry_group_IT_number 65
_symmetry_cell_setting 'orthorhombic'
loop_
_space_group_symop_operation_xyz
x,y,z
-x,-y,z
x,-y,-z
-x,y,-z
-x,-y,-z
x,y,-z
-x,y,z
x,-y,z
1/2+x,1/2+y,z
1/2-x,1/2-y,z
1/2+x,1/2-y,-z
1/2-x,1/2+y,-z
1/2-x,1/2-y,-z
1/2+x,1/2+y,-z
1/2-x,1/2+y,z
1/2+x,1/2-y,z
loop_
_atom_site_type_symbol
_atom_site_label
_atom_site_fract_x
_atom_site_fract_y
_atom_site_fract_z
Si Si1 0.322327 0.874029 0.674198
Si Si2 0.333547 0.000000 0.566972
Si Si3 0.325293 0.200698 0.933790
Si Si4 0.832607 0.201812 0.747941
Si Si5 0.322450 0.403148 0.434706
Si Si6 0.334425 0.631586 0.852355
Si Si7 0.321840 0.555723 0.237304
O O1 0.500000 0.878791 0.672769
O O2 0.272695 0.824773 0.702821
O O3 0.258153 0.867950 0.609740
O O4 0.255988 0.920133 0.707747
O O5 0.236311 0.045213 0.585617
O O6 0.500000 0.000000 0.596082
O O7 0.356711 0.000000 0.500000
O O8 0.500000 0.206745 0.922426
O O9 0.250000 0.250000 0.911110
O O10 0.271440 0.152163 0.902117
O O11 0.285656 0.193106 0.000000
O O12 0.750000 0.250000 0.765002
O O13 0.846846 0.171962 0.805009
O O14 0.000000 0.210618 0.722561
O O15 0.275153 0.390798 0.500000
O O16 0.500000 0.401255 0.427734
O O17 0.500000 0.621442 0.878386
O O18 0.271505 0.582972 0.821581
O O19 0.500000 0.562150 0.245232
O O20 0.274365 0.500000 0.233169
#
# Coordination Sequence:
#
# PCOD8270142 Si02
#       7
#    16   8  16  16  16  16  16
#     4  11  22  34  51  76 104 133 168 208 253 303
#     4   9  17  29  45  67  93 121 157 199 240 287
#     4  10  20  32  48  73 105 139 172 208 252 301
#     4  10  20  35  54  77 104 132 167 208 254 304
#     4  10  20  34  51  70  96 132 169 205 251 305
#     4   9  18  32  52  77 102 132 169 208 251 300
#     4   9  19  36  55  74 100 134 171 212 257 304
#
# _framework density 17.937342000000001
#
# number of rings (size 3 to 8) (size 9 to 14) (size 15 to 20)
#    0.000    2.231    0.000    4.385    1.077    7.385 
#    0.000    0.000    0.000    0.923    0.000    3.231 
#    0.000    0.000    0.000    0.000    0.000    0.000 
#
# Total GULP energy -644572.665703 kJ/mol
# GULP energy per Si atom -12395.628187 kJ/mol
# Density = 1.789652 g / cm^3
# Si number density = 17.937342 Si / 1000 Ang^3
#
#
#
# Elastic Constant Matrix: (Units=GPa)
#
#
# Indices 1 2 3 4 5 6 
#
# 1 96.8587 26.2348 38.5592 0.0000 0.0000 0.0000
# 2 26.2348 71.4995 17.4338 0.0000 0.0000 0.0000
# 3 38.5592 17.4338 70.1240 0.0000 0.0000 0.0000
# 4 0.0000 0.0000 0.0000 12.7248 0.0000 0.0000
# 5 0.0000 0.0000 0.0000 0.0000 29.1975 0.0000
# 6 0.0000 0.0000 0.0000 0.0000 0.0000 21.5761
#
#
#
# Elastic Compliance Matrix: (Units=1/GPa)
#
#
# Indices 1 2 3 4 5 6 
#
# 1 0.013980 -0.003465 -0.006826 0.000000 0.000000 0.000000
# 2 -0.003465 0.015748 -0.002010 0.000000 0.000000 0.000000
# 3 -0.006826 -0.002010 0.018513 0.000000 0.000000 0.000000
# 4 0.000000 0.000000 0.000000 0.078587 0.000000 0.000000
# 5 0.000000 0.000000 0.000000 0.000000 0.034249 0.000000
# 6 0.000000 0.000000 0.000000 0.000000 0.000000 0.046348
#
#
# Mechanical properties :
#
#
# Convention : Reuss Voigt Hill
#
# Bulk Modulus (GPa) = 42.30155 44.77086 43.53620
# Shear Modulus (GPa) = 20.84146 23.11666 21.97906
#
# Velocity S-wave (km/s) = 3.41237 3.59380 3.50426
# Velocity P-wave (km/s) = 6.25778 6.49879 6.37943
#
# Compressibility (1/GPa) = 0.02363979
#
# Stress axis : x y z
#
# Youngs Moduli (GPa) = 71.52943 63.50172 54.01501
#
# Poissons Ratio (x) = 0.22005 0.36870
# Poissons Ratio (y) = 0.24787 0.10855
# Poissons Ratio (z) = 0.48825 0.12761
#
# Static dielectric constant tensor:
#      x y z
#    x 3.419690 0.000000 0.000000 
#    y 0.000000 3.173490 0.000000 
#    z 0.000000 0.000000 3.356790 
# 
# 
# High freq. dielectric constant tensor:
#      x y z
#    x 1.703970 0.000000 0.000000 
#    y 0.000000 1.674570 0.000000 
#    z 0.000000 0.000000 1.683670 
# 
# From -- ./inp_files/68276.got.cif
#   From: 2010.03.12/outbox.cif.g09.slc.cpg/sg65_35_cif.got.tgz:68276.got - 2010.04.10 20:52:16.
