data_PCOD8270063
_publ_section_title
;
Structure prediction by ZEFSAII (Michael W. Deem and Ramdas Pophale) SiO2 
 PCOD8270063
Probable space group: C M M M
;
_chemical_formula_sum "Si O2"
_cell_formula_units_Z 88
_cell_length_a 19.601368
_cell_length_b 9.118647
_cell_length_c 27.649809
_cell_angle_alpha 90.000000
_cell_angle_beta 90.000000
_cell_angle_gamma 90.000000
_cell_volume 4942.070331
_symmetry_space_group_name_H-M "C M M M"
_symmetry_group_IT_number 65
_symmetry_cell_setting 'orthorhombic'
loop_
_space_group_symop_operation_xyz
x,y,z
-x,-y,z
x,-y,-z
-x,y,-z
-x,-y,-z
x,y,-z
-x,y,z
x,-y,z
1/2+x,1/2+y,z
1/2-x,1/2-y,z
1/2+x,1/2-y,-z
1/2-x,1/2+y,-z
1/2-x,1/2-y,-z
1/2+x,1/2+y,-z
1/2-x,1/2+y,z
1/2+x,1/2-y,z
loop_
_atom_site_type_symbol
_atom_site_label
_atom_site_fract_x
_atom_site_fract_y
_atom_site_fract_z
Si Si1 0.317916 0.329822 0.378932
Si Si2 0.680893 0.671933 0.266886
Si Si3 0.918583 0.164496 0.103483
Si Si4 0.074721 0.825876 0.000000
Si Si5 0.920512 0.667385 0.555072
Si Si6 0.580387 0.169510 0.197568
O O1 0.307080 0.500000 0.388132
O O2 0.250000 0.250000 0.397422
O O3 0.332068 0.294260 0.323038
O O4 0.381913 0.275844 0.409396
O O5 0.687060 0.500000 0.256270
O O6 0.750000 0.750000 0.248915
O O7 0.616576 0.738100 0.239146
O O8 0.893682 0.274144 0.145268
O O9 0.000000 0.164307 0.099406
O O10 0.892875 0.000000 0.115941
O O11 0.888325 0.218228 0.050900
O O12 0.000000 0.751819 0.000000
O O13 0.066754 0.000000 0.000000
O O14 0.898200 0.698733 0.500000
O O15 0.903460 0.500000 0.568946
O O16 0.000000 0.698947 0.561561
O O17 0.500000 0.195568 0.203529
O O18 0.600130 0.000000 0.202499
#
# Coordination Sequence:
#
# PCOD8270063 Si02
#       6
#    16  16  16   8  16  16
#     4  10  21  36  55  78 102 130 166 208 251 295
#     4  10  21  37  55  74  98 129 166 207 251 299
#     4   8  13  23  40  62  90 124 161 201 244 289
#     4   7  10  18  35  59  86 119 158 197 240 289
#     4   9  19  36  56  78 106 139 171 203 243 291
#     4  10  20  32  47  71 102 133 166 204 246 293
#
# _framework density 17.806301999999999
#
# number of rings (size 3 to 8) (size 9 to 14) (size 15 to 20)
#    0.000    2.818    0.000    3.273    0.000    5.091 
#    0.000    5.000    0.000    2.727    0.000    0.636 
#    0.000    0.000    0.000    0.000    0.000    0.000 
#
# Total GULP energy -545418.104316 kJ/mol
# GULP energy per Si atom -12395.866007 kJ/mol
# Density = 1.776577 g / cm^3
# Si number density = 17.806302 Si / 1000 Ang^3
#
#
#
# Elastic Constant Matrix: (Units=GPa)
#
#
# Indices 1 2 3 4 5 6 
#
# 1 52.7028 41.8610 47.8435 0.0000 0.0000 0.0000
# 2 41.8610 97.1299 60.2612 0.0000 0.0000 0.0000
# 3 47.8435 60.2612 99.7217 0.0000 0.0000 0.0000
# 4 0.0000 0.0000 0.0000 27.9280 0.0000 0.0000
# 5 0.0000 0.0000 0.0000 0.0000 2.6513 0.0000
# 6 0.0000 0.0000 0.0000 0.0000 0.0000 29.7326
#
#
#
# Elastic Compliance Matrix: (Units=1/GPa)
#
#
# Indices 1 2 3 4 5 6 
#
# 1 0.037055 -0.007903 -0.013002 0.000000 0.000000 0.000000
# 2 -0.007903 0.018156 -0.007180 0.000000 0.000000 0.000000
# 3 -0.013002 -0.007180 0.020605 0.000000 0.000000 0.000000
# 4 0.000000 0.000000 0.000000 0.035806 0.000000 0.000000
# 5 0.000000 0.000000 0.000000 0.000000 0.377178 0.000000
# 6 0.000000 0.000000 0.000000 0.000000 0.000000 0.033633
#
#
# Mechanical properties :
#
#
# Convention : Reuss Voigt Hill
#
# Bulk Modulus (GPa) = 50.90230 61.05399 55.97814
# Shear Modulus (GPa) = 8.54479 18.70162 13.62321
#
# Velocity S-wave (km/s) = 2.19298 3.24432 2.76900
# Velocity P-wave (km/s) = 5.92123 6.95675 6.45978
#
# Compressibility (1/GPa) = 0.01964548
#
# Stress axis : x y z
#
# Youngs Moduli (GPa) = 26.98695 55.07770 48.53269
#
# Poissons Ratio (x) = 0.43529 0.63102
# Poissons Ratio (y) = 0.21328 0.34846
# Poissons Ratio (z) = 0.35088 0.39545
#
# Static dielectric constant tensor:
#      x y z
#    x 2.954520 0.000000 0.000000 
#    y 0.000000 3.272520 0.000000 
#    z 0.000000 0.000000 3.564230 
# 
# 
# High freq. dielectric constant tensor:
#      x y z
#    x 1.651550 0.000000 0.000000 
#    y 0.000000 1.686740 0.000000 
#    z 0.000000 0.000000 1.701650 
# 
# From -- ./inp_files/67545.got.cif
#   From: 2010.03.12/outbox.cif.g09.slc.cpg/sg65_34_cif.got.tgz:67545.got - 2010.04.10 20:52:16.
