data_PCOD8270834
_publ_section_title
;
Structure prediction by ZEFSAII (Michael W. Deem and Ramdas Pophale) SiO2 
 PCOD8270834
Probable space group: C M M M
;
_chemical_formula_sum "Si O2"
_cell_formula_units_Z 88
_cell_length_a 9.185005
_cell_length_b 28.297632
_cell_length_c 17.861413
_cell_angle_alpha 90.000000
_cell_angle_beta 90.000000
_cell_angle_gamma 90.000000
_cell_volume 4642.429359
_symmetry_space_group_name_H-M "C M M M"
_symmetry_group_IT_number 65
_symmetry_cell_setting 'orthorhombic'
loop_
_space_group_symop_operation_xyz
x,y,z
-x,-y,z
x,-y,-z
-x,y,-z
-x,-y,-z
x,y,-z
-x,y,z
x,-y,z
1/2+x,1/2+y,z
1/2-x,1/2-y,z
1/2+x,1/2-y,-z
1/2-x,1/2+y,-z
1/2-x,1/2-y,-z
1/2+x,1/2+y,-z
1/2-x,1/2+y,z
1/2+x,1/2-y,z
loop_
_atom_site_type_symbol
_atom_site_label
_atom_site_fract_x
_atom_site_fract_y
_atom_site_fract_z
Si Si1 0.334219 0.648282 0.370286
Si Si2 0.168507 0.136685 0.915929
Si Si3 0.333970 0.552584 0.696630
Si Si4 0.667741 0.298314 0.782926
Si Si5 0.326966 0.199664 0.500000
Si Si6 0.830857 0.553703 0.151591
O O1 0.500000 0.659113 0.396462
O O2 0.305565 0.591721 0.367587
O O3 0.305652 0.668177 0.287768
O O4 0.220290 0.671042 0.426795
O O5 0.228132 0.175436 0.857115
O O6 0.253864 0.087604 0.907861
O O7 0.000000 0.126287 0.899183
O O8 0.192474 0.156097 0.000000
O O9 0.500000 0.557370 0.725576
O O10 0.305244 0.500000 0.663353
O O11 0.229810 0.562955 0.765830
O O12 0.500000 0.285580 0.793417
O O13 0.750000 0.250000 0.769377
O O14 0.500000 0.206459 0.500000
O O15 0.250000 0.250000 0.500000
O O16 0.801063 0.500000 0.126133
O O17 0.000000 0.565669 0.153209
#
# Coordination Sequence:
#
# PCOD8270834 Si02
#       6
#    16  16  16  16   8  16
#     4  10  20  38  62  88 118 150 188 234 281 332
#     4  10  21  38  57  78 108 147 193 240 284 335
#     4   9  17  33  60  89 116 150 191 230 271 328
#     4  10  21  37  57  83 109 143 187 234 284 338
#     4  12  26  42  61  88 119 153 192 235 287 340
#     4  10  20  33  52  81 116 150 185 230 284 339
#
# _framework density 18.955594000000001
#
# number of rings (size 3 to 8) (size 9 to 14) (size 15 to 20)
#    0.000    2.000    1.818    1.909    0.000    5.818 
#    0.000    2.273    0.000    2.727    0.000    0.000 
#    0.000    0.000    0.000    0.000    0.000    0.000 
#
# Total GULP energy -545656.790806 kJ/mol
# GULP energy per Si atom -12401.290700 kJ/mol
# Density = 1.891245 g / cm^3
# Si number density = 18.955594 Si / 1000 Ang^3
#
#
#
# Elastic Constant Matrix: (Units=GPa)
#
#
# Indices 1 2 3 4 5 6 
#
# 1 79.5541 46.0700 37.4113 0.0000 0.0000 0.0000
# 2 46.0700 121.1232 44.5207 0.0000 0.0000 0.0000
# 3 37.4113 44.5207 91.0939 0.0000 0.0000 0.0000
# 4 0.0000 0.0000 0.0000 21.2362 0.0000 0.0000
# 5 0.0000 0.0000 0.0000 0.0000 24.5345 0.0000
# 6 0.0000 0.0000 0.0000 0.0000 0.0000 28.5127
#
#
#
# Elastic Compliance Matrix: (Units=1/GPa)
#
#
# Indices 1 2 3 4 5 6 
#
# 1 0.017724 -0.004956 -0.004857 0.000000 0.000000 0.000000
# 2 -0.004956 0.011450 -0.003560 0.000000 0.000000 0.000000
# 3 -0.004857 -0.003560 0.014712 0.000000 0.000000 0.000000
# 4 0.000000 0.000000 0.000000 0.047089 0.000000 0.000000
# 5 0.000000 0.000000 0.000000 0.000000 0.040759 0.000000
# 6 0.000000 0.000000 0.000000 0.000000 0.000000 0.035072
#
#
# Mechanical properties :
#
#
# Convention : Reuss Voigt Hill
#
# Bulk Modulus (GPa) = 58.34514 60.86393 59.60454
# Shear Modulus (GPa) = 25.09188 25.77462 25.43325
#
# Velocity S-wave (km/s) = 3.64224 3.69146 3.66693
# Velocity P-wave (km/s) = 6.96668 7.09560 7.03144
#
# Compressibility (1/GPa) = 0.01713939
#
# Stress axis : x y z
#
# Youngs Moduli (GPa) = 56.41971 87.33668 67.96964
#
# Poissons Ratio (x) = 0.43287 0.33012
# Poissons Ratio (y) = 0.27964 0.24200
# Poissons Ratio (z) = 0.27402 0.31096
#
# Static dielectric constant tensor:
#      x y z
#    x 3.455210 0.000000 0.000000 
#    y 0.000000 3.683750 0.000000 
#    z 0.000000 0.000000 3.308720 
# 
# 
# High freq. dielectric constant tensor:
#      x y z
#    x 1.730780 0.000000 0.000000 
#    y 0.000000 1.747750 0.000000 
#    z 0.000000 0.000000 1.720720 
# 
# From -- ./inp_files/50355.got.cif
#   From: 2010.03.12/outbox.cif.g09.slc.cpg/sg65_26_cif.got.tgz:50355.got - 2010.04.10 20:52:16.
