data_PCOD8270986
_publ_section_title
;
Structure prediction by ZEFSAII (Michael W. Deem and Ramdas Pophale) SiO2 
 PCOD8270986
Probable space group: C M M M
;
_chemical_formula_sum "Si O2"
_cell_formula_units_Z 104
_cell_length_a 8.801273
_cell_length_b 25.492821
_cell_length_c 27.300176
_cell_angle_alpha 90.000000
_cell_angle_beta 90.000000
_cell_angle_gamma 90.000000
_cell_volume 6125.320755
_symmetry_space_group_name_H-M "C M M M"
_symmetry_group_IT_number 65
_symmetry_cell_setting 'orthorhombic'
loop_
_space_group_symop_operation_xyz
x,y,z
-x,-y,z
x,-y,-z
-x,y,-z
-x,-y,-z
x,y,-z
-x,y,z
x,-y,z
1/2+x,1/2+y,z
1/2-x,1/2-y,z
1/2+x,1/2-y,-z
1/2-x,1/2+y,-z
1/2-x,1/2-y,-z
1/2+x,1/2+y,-z
1/2-x,1/2+y,z
1/2+x,1/2-y,z
loop_
_atom_site_type_symbol
_atom_site_label
_atom_site_fract_x
_atom_site_fract_y
_atom_site_fract_z
Si Si1 0.828557 0.000000 0.733336
Si Si2 0.320004 0.692263 0.201966
Si Si3 0.823575 0.306148 0.000000
Si Si4 0.671094 0.500000 0.616893
Si Si5 0.826014 0.394425 0.616469
Si Si6 0.825204 0.606785 0.732391
Si Si7 0.320449 0.807408 0.104668
Si Si8 0.678548 0.304152 0.444552
O O1 0.829863 0.000000 0.675138
O O2 0.742120 0.051842 0.752361
O O3 0.000000 0.000000 0.754152
O O4 0.500000 0.696998 0.201359
O O5 0.250000 0.750000 0.209341
O O6 0.268377 0.655274 0.246057
O O7 0.260579 0.665202 0.151113
O O8 0.750000 0.250000 0.000000
O O9 0.783547 0.335817 0.051697
O O10 0.000000 0.294170 0.000000
O O11 0.500000 0.500000 0.596061
O O12 0.759069 0.449256 0.597162
O O13 0.807555 0.389376 0.674392
O O14 0.731503 0.348930 0.591663
O O15 0.000000 0.390752 0.600112
O O16 0.000000 0.610261 0.748748
O O17 0.500000 0.804793 0.114632
O O18 0.250000 0.750000 0.101732
O O19 0.731677 0.316830 0.500000
O O20 0.500000 0.298550 0.441199
O O21 0.750000 0.250000 0.426083
#
# Coordination Sequence:
#
# PCOD8270986 Si02
#       8
#     8  16   8   8  16  16  16  16
#     4   9  17  31  51  74  96 122 156 195 236 277
#     4  11  21  32  45  64  93 129 163 197 239 285
#     4   8  14  22  36  56  78 109 150 191 230 274
#     4   9  17  31  52  76 103 129 154 189 234 281
#     4  10  20  34  54  77 100 126 158 195 236 282
#     4  10  20  34  51  72  97 127 160 195 235 281
#     4   9  15  25  39  57  83 116 153 192 233 279
#     4  10  21  37  56  76  99 128 161 197 237 280
#
# _framework density 16.978702999999999
#
# number of rings (size 3 to 8) (size 9 to 14) (size 15 to 20)
#    0.000    2.308    0.000    4.615    0.000    5.846 
#    0.000    0.385    0.000    2.308    0.000    0.000 
#    0.000    0.615    0.000    6.615    0.000    3.385 
#
# Total GULP energy -644465.849984 kJ/mol
# GULP energy per Si atom -12393.574038 kJ/mol
# Density = 1.694006 g / cm^3
# Si number density = 16.978703 Si / 1000 Ang^3
#
#
#
# Elastic Constant Matrix: (Units=GPa)
#
#
# Indices 1 2 3 4 5 6 
#
# 1 111.4687 43.9771 31.7333 0.0000 0.0000 0.0000
# 2 43.9771 99.2734 36.2154 0.0000 0.0000 0.0000
# 3 31.7333 36.2154 43.0233 0.0000 0.0000 0.0000
# 4 0.0000 0.0000 0.0000 -2.6911 0.0000 0.0000
# 5 0.0000 0.0000 0.0000 0.0000 25.1768 0.0000
# 6 0.0000 0.0000 0.0000 0.0000 0.0000 30.6245
#
#
#
# Elastic Compliance Matrix: (Units=1/GPa)
#
#
# Indices 1 2 3 4 5 6 
#
# 1 0.011943 -0.002998 -0.006286 0.000000 0.000000 0.000000
# 2 -0.002998 0.015290 -0.010659 0.000000 0.000000 0.000000
# 3 -0.006286 -0.010659 0.036852 0.000000 0.000000 0.000000
# 4 0.000000 0.000000 0.000000 -0.371589 0.000000 0.000000
# 5 0.000000 0.000000 0.000000 0.000000 0.039719 0.000000
# 6 0.000000 0.000000 0.000000 0.000000 0.000000 0.032654
#
#
# Mechanical properties :
#
#
# Convention : Reuss Voigt Hill
#
# Bulk Modulus (GPa) = 41.32312 53.06857 47.19585
# Shear Modulus (GPa) = -26.71234 20.07799 -3.31717
#
# Velocity S-wave (km/s) = -3.97077 3.44254 -1.39927
# Velocity P-wave (km/s) = 1.83531 6.86478 5.02462
#
# Compressibility (1/GPa) = 0.02419953
#
# Stress axis : x y z
#
# Youngs Moduli (GPa) = 83.72930 65.40360 27.13548
#
# Poissons Ratio (x) = 0.19606 0.17057
# Poissons Ratio (y) = 0.25099 0.28924
# Poissons Ratio (z) = 0.52631 0.69716
#
# Static dielectric constant tensor:
#      x y z
#    x 3.204370 0.000000 0.000000 
#    y 0.000000 2.957230 0.000000 
#    z 0.000000 0.000000 3.545340 
# 
# 
# High freq. dielectric constant tensor:
#      x y z
#    x 1.676660 0.000000 0.000000 
#    y 0.000000 1.622300 0.000000 
#    z 0.000000 0.000000 1.646500 
# 
# From -- ./inp_files/77078.got.cif
#   From: 2010.03.12/outbox.cif.g09.slc.cpg/sg65_39_cif.got.tgz:77078.got - 2010.04.10 20:52:16.
