data_PCOD8270566
_publ_section_title
;
Structure prediction by ZEFSAII (Michael W. Deem and Ramdas Pophale) SiO2 
 PCOD8270566
Probable space group: C M M M
;
_chemical_formula_sum "Si O2"
_cell_formula_units_Z 96
_cell_length_a 19.101001
_cell_length_b 8.906281
_cell_length_c 31.031837
_cell_angle_alpha 90.000000
_cell_angle_beta 90.000000
_cell_angle_gamma 90.000000
_cell_volume 5279.101426
_symmetry_space_group_name_H-M "C M M M"
_symmetry_group_IT_number 65
_symmetry_cell_setting 'orthorhombic'
loop_
_space_group_symop_operation_xyz
x,y,z
-x,-y,z
x,-y,-z
-x,y,-z
-x,-y,-z
x,y,-z
-x,y,z
x,-y,z
1/2+x,1/2+y,z
1/2-x,1/2-y,z
1/2+x,1/2-y,-z
1/2-x,1/2+y,-z
1/2-x,1/2-y,-z
1/2+x,1/2+y,-z
1/2-x,1/2+y,z
1/2+x,1/2-y,z
loop_
_atom_site_type_symbol
_atom_site_label
_atom_site_fract_x
_atom_site_fract_y
_atom_site_fract_z
Si Si1 0.174814 0.824012 0.288169
Si Si2 0.173377 0.322001 0.795965
Si Si3 0.175703 0.826398 0.382728
Si Si4 0.582590 0.672712 0.132160
Si Si5 0.416969 0.168285 0.952735
Si Si6 0.418804 0.827917 0.548705
O O1 0.250000 0.750000 0.290700
O O2 0.136648 0.741175 0.248164
O O3 0.140981 0.794519 0.335373
O O4 0.179912 0.000000 0.277742
O O5 0.180721 0.500000 0.793544
O O6 0.250000 0.250000 0.802595
O O7 0.122727 0.277851 0.834608
O O8 0.250000 0.750000 0.389440
O O9 0.121973 0.777228 0.418870
O O10 0.191005 0.000000 0.388120
O O11 0.500000 0.700842 0.137568
O O12 0.602303 0.500000 0.140143
O O13 0.608892 0.718262 0.084291
O O14 0.500000 0.166893 0.953612
O O15 0.389469 0.000000 0.942754
O O16 0.389256 0.221056 0.000000
O O17 0.393178 0.796314 0.500000
O O18 0.500000 0.788753 0.552791
O O19 0.404662 0.000000 0.561066
#
# Coordination Sequence:
#
# PCOD8270566 Si02
#       6
#    16  16  16  16  16  16
#     4   9  17  31  50  73 100 129 164 204 247 294
#     4  11  21  34  54  76 100 132 170 207 247 300
#     4  10  20  33  53  79 104 131 164 206 251 294
#     4  10  20  33  50  74 104 134 166 208 253 294
#     4   8  14  26  45  69  97 129 165 204 246 294
#     4   9  19  36  55  74 100 135 171 207 249 297
#
# _framework density 18.184913999999999
#
# number of rings (size 3 to 8) (size 9 to 14) (size 15 to 20)
#    0.000    2.500    0.000    5.000    0.000    4.333 
#    0.000    3.333    0.000    1.500    0.000    0.000 
#    0.000    0.000    0.000    0.000    0.000    0.000 
#
# Total GULP energy -594861.553028 kJ/mol
# GULP energy per Si atom -12392.949021 kJ/mol
# Density = 1.814352 g / cm^3
# Si number density = 18.184914 Si / 1000 Ang^3
#
#
#
# Elastic Constant Matrix: (Units=GPa)
#
#
# Indices 1 2 3 4 5 6 
#
# 1 36.0545 32.4791 43.1428 0.0000 0.0000 0.0000
# 2 32.4791 117.3062 67.1201 0.0000 0.0000 0.0000
# 3 43.1428 67.1201 147.0874 0.0000 0.0000 0.0000
# 4 0.0000 0.0000 0.0000 37.2459 0.0000 0.0000
# 5 0.0000 0.0000 0.0000 0.0000 26.1218 0.0000
# 6 0.0000 0.0000 0.0000 0.0000 0.0000 25.6847
#
#
#
# Elastic Compliance Matrix: (Units=1/GPa)
#
#
# Indices 1 2 3 4 5 6 
#
# 1 0.046485 -0.006860 -0.010504 0.000000 0.000000 0.000000
# 2 -0.006860 0.012549 -0.003714 0.000000 0.000000 0.000000
# 3 -0.010504 -0.003714 0.011575 0.000000 0.000000 0.000000
# 4 0.000000 0.000000 0.000000 0.026849 0.000000 0.000000
# 5 0.000000 0.000000 0.000000 0.000000 0.038282 0.000000
# 6 0.000000 0.000000 0.000000 0.000000 0.000000 0.038934
#
#
# Mechanical properties :
#
#
# Convention : Reuss Voigt Hill
#
# Bulk Modulus (GPa) = 35.14766 65.10357 50.12561
# Shear Modulus (GPa) = 22.09309 28.32423 25.20866
#
# Velocity S-wave (km/s) = 3.48934 3.95088 3.72726
# Velocity P-wave (km/s) = 5.96690 7.52936 6.79320
#
# Compressibility (1/GPa) = 0.02845140
#
# Stress axis : x y z
#
# Youngs Moduli (GPa) = 21.51233 79.68474 86.39523
#
# Poissons Ratio (x) = 0.54665 0.90751
# Poissons Ratio (y) = 0.14758 0.32091
# Poissons Ratio (z) = 0.22597 0.29599
#
# Static dielectric constant tensor:
#      x y z
#    x 2.890150 0.000000 0.000000 
#    y 0.000000 3.473520 0.000000 
#    z 0.000000 0.000000 4.123120 
# 
# 
# High freq. dielectric constant tensor:
#      x y z
#    x 1.653600 0.000000 0.000000 
#    y 0.000000 1.714990 0.000000 
#    z 0.000000 0.000000 1.727940 
# 
# From -- ./inp_files/73191.got.cif
#   From: 2010.03.12/outbox.cif.g09.slc.cpg/sg65_37_cif.got.tgz:73191.got - 2010.04.10 20:52:16.
