data_PCOD8270307
_publ_section_title
;
Structure prediction by ZEFSAII (Michael W. Deem and Ramdas Pophale) SiO2 
 PCOD8270307
Probable space group: C M M M
;
_chemical_formula_sum "Si O2"
_cell_formula_units_Z 80
_cell_length_a 8.783746
_cell_length_b 23.496561
_cell_length_c 23.551734
_cell_angle_alpha 90.000000
_cell_angle_beta 90.000000
_cell_angle_gamma 90.000000
_cell_volume 4860.791125
_symmetry_space_group_name_H-M "C M M M"
_symmetry_group_IT_number 65
_symmetry_cell_setting 'orthorhombic'
loop_
_space_group_symop_operation_xyz
x,y,z
-x,-y,z
x,-y,-z
-x,y,-z
-x,-y,-z
x,y,-z
-x,y,z
x,-y,z
1/2+x,1/2+y,z
1/2-x,1/2-y,z
1/2+x,1/2-y,-z
1/2-x,1/2+y,-z
1/2-x,1/2-y,-z
1/2+x,1/2+y,-z
1/2-x,1/2+y,z
1/2+x,1/2-y,z
loop_
_atom_site_type_symbol
_atom_site_label
_atom_site_fract_x
_atom_site_fract_y
_atom_site_fract_z
Si Si1 0.678041 0.812348 0.204662
Si Si2 0.820561 0.000000 0.936570
Si Si3 0.678049 0.312295 0.561432
Si Si4 0.319558 0.621516 0.895855
Si Si5 0.175363 0.688775 0.330509
Si Si6 0.319398 0.188128 0.000000
O O1 0.500000 0.807757 0.189177
O O2 0.750000 0.750000 0.197419
O O3 0.763417 0.856911 0.164851
O O4 0.700612 0.838403 0.268232
O O5 0.768808 0.944238 0.902021
O O6 0.000000 0.000000 0.943550
O O7 0.747806 0.000000 0.000000
O O8 0.713823 0.341970 0.500000
O O9 0.500000 0.306934 0.570592
O O10 0.750000 0.250000 0.560726
O O11 0.748111 0.345862 0.616324
O O12 0.500000 0.629345 0.901858
O O13 0.236957 0.656712 0.944251
O O14 0.250000 0.750000 0.327251
O O15 0.000000 0.695251 0.344918
O O16 0.250000 0.250000 0.000000
O O17 0.500000 0.191699 0.000000
#
# Coordination Sequence:
#
# PCOD8270307 Si02
#       6
#    16   8  16  16  16   8
#     4  10  20  33  47  68  95 123 156 192 231 275
#     4   9  18  36  58  76  94 116 147 184 225 276
#     4   9  15  21  31  49  74 105 144 187 224 259
#     4  11  21  36  56  74  93 120 151 186 227 273
#     4   9  16  25  38  54  78 112 148 185 222 263
#     4  12  24  37  52  73  99 124 150 184 225 268
#
# _framework density 16.458227000000001
#
# number of rings (size 3 to 8) (size 9 to 14) (size 15 to 20)
#    0.000    2.100    1.000    5.100    0.000    3.600 
#    0.000    2.500    0.000    0.000    0.000    0.000 
#    0.000    0.000    0.000    0.900    0.000   18.000 
#
# Total GULP energy -495593.832854 kJ/mol
# GULP energy per Si atom -12389.845821 kJ/mol
# Density = 1.642077 g / cm^3
# Si number density = 16.458227 Si / 1000 Ang^3
#
#
#
# Elastic Constant Matrix: (Units=GPa)
#
#
# Indices 1 2 3 4 5 6 
#
# 1 112.6701 35.6392 61.7615 0.0000 0.0000 0.0000
# 2 35.6392 81.1509 50.2875 0.0000 0.0000 0.0000
# 3 61.7615 50.2875 154.0688 0.0000 0.0000 0.0000
# 4 0.0000 0.0000 0.0000 -11.1180 0.0000 0.0000
# 5 0.0000 0.0000 0.0000 0.0000 30.1982 0.0000
# 6 0.0000 0.0000 0.0000 0.0000 0.0000 14.0758
#
#
#
# Elastic Compliance Matrix: (Units=1/GPa)
#
#
# Indices 1 2 3 4 5 6 
#
# 1 0.011875 -0.002840 -0.003834 0.000000 0.000000 0.000000
# 2 -0.002840 0.016126 -0.004125 0.000000 0.000000 0.000000
# 3 -0.003834 -0.004125 0.009374 0.000000 0.000000 0.000000
# 4 0.000000 0.000000 0.000000 -0.089944 0.000000 0.000000
# 5 0.000000 0.000000 0.000000 0.000000 0.033115 0.000000
# 6 0.000000 0.000000 0.000000 0.000000 0.000000 0.071044
#
#
# Mechanical properties :
#
#
# Convention : Reuss Voigt Hill
#
# Bulk Modulus (GPa) = 63.37818 71.47402 67.42610
# Shear Modulus (GPa) = 63.73839 19.97797 41.85818
#
# Velocity S-wave (km/s) = 6.22988 3.48783 5.04858
# Velocity P-wave (km/s) = 9.50477 7.72928 8.66263
#
# Compressibility (1/GPa) = 0.01577830
#
# Stress axis : x y z
#
# Youngs Moduli (GPa) = 84.21000 62.01126 106.68048
#
# Poissons Ratio (x) = 0.17609 0.40896
# Poissons Ratio (y) = 0.23913 0.44007
# Poissons Ratio (z) = 0.32282 0.25581
#
# Static dielectric constant tensor:
#      x y z
#    x 3.230250 0.000000 0.000000 
#    y 0.000000 2.715080 0.000000 
#    z 0.000000 0.000000 4.243160 
# 
# 
# High freq. dielectric constant tensor:
#      x y z
#    x 1.648630 0.000000 0.000000 
#    y 0.000000 1.561770 0.000000 
#    z 0.000000 0.000000 1.661350 
# 
# From -- ./inp_files/71643.got.cif
#   From: 2010.03.12/outbox.cif.g09.slc.cpg/sg65_36_cif.got.tgz:71643.got - 2010.04.10 20:52:16.
