data_PCOD8270743
_publ_section_title
;
Structure prediction by ZEFSAII (Michael W. Deem and Ramdas Pophale) SiO2 
 PCOD8270743
Probable space group: C M M M
;
_chemical_formula_sum "Si O2"
_cell_formula_units_Z 80
_cell_length_a 14.682134
_cell_length_b 28.551456
_cell_length_c 9.133794
_cell_angle_alpha 90.000000
_cell_angle_beta 90.000000
_cell_angle_gamma 90.000000
_cell_volume 3828.852676
_symmetry_space_group_name_H-M "C M M M"
_symmetry_group_IT_number 65
_symmetry_cell_setting 'orthorhombic'
loop_
_space_group_symop_operation_xyz
x,y,z
-x,-y,z
x,-y,-z
-x,y,-z
-x,-y,-z
x,y,-z
-x,y,z
x,-y,z
1/2+x,1/2+y,z
1/2-x,1/2-y,z
1/2+x,1/2-y,-z
1/2-x,1/2+y,-z
1/2-x,1/2-y,-z
1/2+x,1/2+y,-z
1/2-x,1/2+y,z
1/2+x,1/2-y,z
loop_
_atom_site_type_symbol
_atom_site_label
_atom_site_fract_x
_atom_site_fract_y
_atom_site_fract_z
Si Si1 0.717437 0.553664 0.830614
Si Si2 0.153535 0.775292 0.833875
Si Si3 0.603204 0.104111 0.168869
Si Si4 0.107036 0.868020 0.672294
Si Si5 0.398971 0.191674 0.658174
O O1 0.697397 0.500000 0.792021
O O2 0.825076 0.562705 0.799082
O O3 0.651410 0.584097 0.729200
O O4 0.695481 0.564827 0.000000
O O5 0.250000 0.750000 0.827378
O O6 0.156064 0.825163 0.754665
O O7 0.089514 0.740334 0.744463
O O8 0.118975 0.781709 0.000000
O O9 0.500000 0.089430 0.217459
O O10 0.646156 0.149741 0.249361
O O11 0.601866 0.118240 0.000000
O O12 0.124222 0.863226 0.500000
O O13 0.000000 0.868124 0.709472
O O14 0.348970 0.198346 0.500000
O O15 0.500000 0.173659 0.628686
#
# Coordination Sequence:
#
# PCOD8270743 Si02
#       5
#    16  16  16  16  16
#     4  10  22  40  62  88 116 149 194 247 302 358
#     4  11  23  37  56  84 116 149 187 232 283 341
#     4   9  18  34  57  86 121 158 194 235 287 350
#     4  11  25  43  62  86 117 155 201 250 298 348
#     4  10  20  33  51  78 112 148 185 223 266 324
#
# _framework density 20.893986000000002
#
# number of rings (size 3 to 8) (size 9 to 14) (size 15 to 20)
#    0.000    1.800    0.000    3.600    0.000   13.600 
#    0.000    4.000    0.000    0.000    0.000    4.200 
#    0.000    0.000    0.000    0.000    0.000    0.000 
#
# Total GULP energy -495812.811213 kJ/mol
# GULP energy per Si atom -12395.320280 kJ/mol
# Density = 2.084643 g / cm^3
# Si number density = 20.893986 Si / 1000 Ang^3
#
#
#
# Elastic Constant Matrix: (Units=GPa)
#
#
# Indices 1 2 3 4 5 6 
#
# 1 79.9972 39.0025 44.9560 0.0000 0.0000 0.0000
# 2 39.0025 128.8587 62.2772 0.0000 0.0000 0.0000
# 3 44.9560 62.2772 132.1615 0.0000 0.0000 0.0000
# 4 0.0000 0.0000 0.0000 18.1811 0.0000 0.0000
# 5 0.0000 0.0000 0.0000 0.0000 20.9460 0.0000
# 6 0.0000 0.0000 0.0000 0.0000 0.0000 30.1634
#
#
#
# Elastic Compliance Matrix: (Units=1/GPa)
#
#
# Indices 1 2 3 4 5 6 
#
# 1 0.016256 -0.002911 -0.004158 0.000000 0.000000 0.000000
# 2 -0.002911 0.010570 -0.003991 0.000000 0.000000 0.000000
# 3 -0.004158 -0.003991 0.010861 0.000000 0.000000 0.000000
# 4 0.000000 0.000000 0.000000 0.055002 0.000000 0.000000
# 5 0.000000 0.000000 0.000000 0.000000 0.047742 0.000000
# 6 0.000000 0.000000 0.000000 0.000000 0.000000 0.033153
#
#
# Mechanical properties :
#
#
# Convention : Reuss Voigt Hill
#
# Bulk Modulus (GPa) = 64.23171 70.38763 67.30967
# Shear Modulus (GPa) = 24.88878 26.84354 25.86616
#
# Velocity S-wave (km/s) = 3.45511 3.58823 3.52230
# Velocity P-wave (km/s) = 6.83561 7.13641 6.98763
#
# Compressibility (1/GPa) = 0.01556863
#
# Stress axis : x y z
#
# Youngs Moduli (GPa) = 61.51447 94.60569 92.06879
#
# Poissons Ratio (x) = 0.27538 0.38283
# Poissons Ratio (y) = 0.17906 0.36742
# Poissons Ratio (z) = 0.25578 0.37755
#
# Static dielectric constant tensor:
#      x y z
#    x 3.808930 0.000000 0.000000 
#    y 0.000000 3.658510 0.000000 
#    z 0.000000 0.000000 4.132300 
# 
# 
# High freq. dielectric constant tensor:
#      x y z
#    x 1.820180 0.000000 0.000000 
#    y 0.000000 1.808460 0.000000 
#    z 0.000000 0.000000 1.822780 
# 
# From -- ./inp_files/9591.got.cif
#   From: 2010.03.12/outbox.cif.g09.slc.cpg/sg65_5_cif.got.tgz:9591.got - 2010.04.10 20:52:16.
