data_PCOD8270694
_publ_section_title
;
Structure prediction by ZEFSAII (Michael W. Deem and Ramdas Pophale) SiO2 
 PCOD8270694
Probable space group: C M M M
;
_chemical_formula_sum "Si O2"
_cell_formula_units_Z 96
_cell_length_a 22.628056
_cell_length_b 28.282850
_cell_length_c 7.560407
_cell_angle_alpha 90.000000
_cell_angle_beta 90.000000
_cell_angle_gamma 90.000000
_cell_volume 4838.553981
_symmetry_space_group_name_H-M "C M M M"
_symmetry_group_IT_number 65
_symmetry_cell_setting 'orthorhombic'
loop_
_space_group_symop_operation_xyz
x,y,z
-x,-y,z
x,-y,-z
-x,y,-z
-x,-y,-z
x,y,-z
-x,y,z
x,-y,z
1/2+x,1/2+y,z
1/2-x,1/2-y,z
1/2+x,1/2-y,-z
1/2-x,1/2+y,-z
1/2-x,1/2-y,-z
1/2+x,1/2+y,-z
1/2-x,1/2+y,z
1/2+x,1/2-y,z
loop_
_atom_site_type_symbol
_atom_site_label
_atom_site_fract_x
_atom_site_fract_y
_atom_site_fract_z
Si Si1 0.681044 0.554935 0.000000
Si Si2 0.112832 0.826032 0.296913
Si Si3 0.933756 0.274949 0.290573
Si Si4 0.066772 0.446784 0.791449
Si Si5 0.065873 0.891406 0.000000
Si Si6 0.857812 0.640485 0.300487
Si Si7 0.770877 0.120345 0.705365
O O1 0.709389 0.575916 0.177990
O O2 0.693940 0.500000 0.000000
O O3 0.610921 0.564828 0.000000
O O4 0.093120 0.834253 0.500000
O O5 0.101125 0.772385 0.237091
O O6 0.074122 0.860132 0.175499
O O7 0.182425 0.836912 0.271339
O O8 0.938248 0.280222 0.500000
O O9 0.898145 0.319502 0.206125
O O10 0.000000 0.274123 0.209974
O O11 0.084116 0.500000 0.733314
O O12 0.111196 0.410502 0.701475
O O13 0.000000 0.435585 0.729121
O O14 0.071834 0.441483 0.000000
O O15 0.000000 0.912374 0.000000
O O16 0.848742 0.657197 0.500000
O O17 0.792289 0.637583 0.217470
O O18 0.766717 0.104180 0.500000
#
# Coordination Sequence:
#
# PCOD8270694 Si02
#       7
#     8  16  16  16   8  16  16
#     4  10  22  39  59  81 108 143 175 221 281 316
#     4   9  18  35  56  78 111 149 181 218 262 313
#     4   9  17  30  51  78 107 141 178 217 267 320
#     4   9  19  35  51  68  95 133 175 218 268 326
#     4  10  20  35  57  85 111 138 181 221 259 327
#     4  10  20  33  51  77 106 134 173 226 272 313
#     4   9  20  37  56  80 108 143 185 220 262 325
#
# _framework density 19.84064
#
# number of rings (size 3 to 8) (size 9 to 14) (size 15 to 20)
#    0.000    2.667    0.000    1.500    1.167    4.167 
#    1.500    5.833    0.000    3.000    0.000    4.667 
#    0.000    0.000    0.000    0.000    0.000    0.000 
#
# Total GULP energy -595069.101185 kJ/mol
# GULP energy per Si atom -12397.272941 kJ/mol
# Density = 1.979548 g / cm^3
# Si number density = 19.840640 Si / 1000 Ang^3
#
#
#
# Elastic Constant Matrix: (Units=GPa)
#
#
# Indices 1 2 3 4 5 6 
#
# 1 171.2208 81.1356 28.3444 0.0000 0.0000 0.0000
# 2 81.1356 133.9365 25.2457 0.0000 0.0000 0.0000
# 3 28.3444 25.2457 59.6579 0.0000 0.0000 0.0000
# 4 0.0000 0.0000 0.0000 3.4642 0.0000 0.0000
# 5 0.0000 0.0000 0.0000 0.0000 14.3735 0.0000
# 6 0.0000 0.0000 0.0000 0.0000 0.0000 25.8015
#
#
#
# Elastic Compliance Matrix: (Units=1/GPa)
#
#
# Indices 1 2 3 4 5 6 
#
# 1 0.008406 -0.004715 -0.001998 0.000000 0.000000 0.000000
# 2 -0.004715 0.010758 -0.002312 0.000000 0.000000 0.000000
# 3 -0.001998 -0.002312 0.018690 0.000000 0.000000 0.000000
# 4 0.000000 0.000000 0.000000 0.288669 0.000000 0.000000
# 5 0.000000 0.000000 0.000000 0.000000 0.069572 0.000000
# 6 0.000000 0.000000 0.000000 0.000000 0.000000 0.038757
#
#
# Mechanical properties :
#
#
# Convention : Reuss Voigt Hill
#
# Bulk Modulus (GPa) = 50.49891 70.47405 60.48648
# Shear Modulus (GPa) = 10.88127 24.06715 17.47421
#
# Velocity S-wave (km/s) = 2.34441 3.48663 2.97093
# Velocity P-wave (km/s) = 5.73026 7.19763 6.50545
#
# Compressibility (1/GPa) = 0.01980241
#
# Stress axis : x y z
#
# Youngs Moduli (GPa) = 118.96817 92.94982 53.50403
#
# Poissons Ratio (x) = 0.43828 0.10691
# Poissons Ratio (y) = 0.56097 0.12372
# Poissons Ratio (z) = 0.23773 0.21494
#
# Static dielectric constant tensor:
#      x y z
#    x 3.826970 0.000000 0.000000 
#    y 0.000000 3.495500 0.000000 
#    z 0.000000 0.000000 3.492650 
# 
# 
# High freq. dielectric constant tensor:
#      x y z
#    x 1.780860 0.000000 0.000000 
#    y 0.000000 1.757890 0.000000 
#    z 0.000000 0.000000 1.766930 
# 
# From -- ./inp_files/14647.got.cif
#   From: 2010.03.12/outbox.cif.g09.slc.cpg/sg65_8_cif.got.tgz:14647.got - 2010.04.10 20:52:16.
