data_PCOD8270151
_publ_section_title
;
Structure prediction by ZEFSAII (Michael W. Deem and Ramdas Pophale) SiO2 
 PCOD8270151
Probable space group: C M M M
;
_chemical_formula_sum "Si O2"
_cell_formula_units_Z 104
_cell_length_a 13.557291
_cell_length_b 23.496421
_cell_length_c 18.754393
_cell_angle_alpha 90.000000
_cell_angle_beta 90.000000
_cell_angle_gamma 90.000000
_cell_volume 5974.170948
_symmetry_space_group_name_H-M "C M M M"
_symmetry_group_IT_number 65
_symmetry_cell_setting 'orthorhombic'
loop_
_space_group_symop_operation_xyz
x,y,z
-x,-y,z
x,-y,-z
-x,y,-z
-x,-y,-z
x,y,-z
-x,y,z
x,-y,z
1/2+x,1/2+y,z
1/2-x,1/2-y,z
1/2+x,1/2-y,-z
1/2-x,1/2+y,-z
1/2-x,1/2-y,-z
1/2+x,1/2+y,-z
1/2-x,1/2+y,z
1/2+x,1/2-y,z
loop_
_atom_site_type_symbol
_atom_site_label
_atom_site_fract_x
_atom_site_fract_y
_atom_site_fract_z
Si Si1 0.606585 0.500000 0.416267
Si Si2 0.887558 0.064696 0.210513
Si Si3 0.258742 0.563485 0.080067
Si Si4 0.703439 0.332397 0.716029
Si Si5 0.617820 0.375913 0.581373
Si Si6 0.886789 0.336533 0.080123
Si Si7 0.612967 0.777192 0.223524
O O1 0.500000 0.500000 0.377374
O O2 0.587861 0.500000 0.500000
O O3 0.658687 0.560310 0.397610
O O4 0.855123 0.070698 0.128542
O O5 0.818044 0.104085 0.257975
O O6 0.000000 0.084960 0.216500
O O7 0.874455 0.000000 0.238280
O O8 0.213830 0.500000 0.088761
O O9 0.174409 0.607806 0.101879
O O10 0.295469 0.574540 0.000000
O O11 0.673119 0.330525 0.632389
O O12 0.637469 0.288461 0.761617
O O13 0.818556 0.317098 0.726396
O O14 0.644647 0.360316 0.500000
O O15 0.500000 0.373410 0.593066
O O16 0.865643 0.288061 0.139316
O O17 0.000000 0.355423 0.082584
O O18 0.859560 0.314314 0.000000
O O19 0.500000 0.790822 0.243083
#
# Coordination Sequence:
#
# PCOD8270151 Si02
#       7
#     8  16  16  16  16  16  16
#     4   7  12  24  44  74 107 133 158 197 251 299
#     4  10  20  32  48  74 105 136 171 209 255 313
#     4   9  17  30  47  70 101 134 170 211 258 312
#     4  11  21  35  55  77 101 138 173 208 260 309
#     4   9  17  30  50  78 109 137 169 209 253 305
#     4   9  17  32  53  73  97 131 172 220 264 300
#     4  10  21  37  54  75 104 136 173 217 258 299
#
# _framework density 17.408273000000001
#
# number of rings (size 3 to 8) (size 9 to 14) (size 15 to 20)
#    0.000    2.538    1.538    2.308    1.077    0.615 
#    0.000    6.923    0.000    3.692    0.000    0.000 
#    0.000    1.846    0.000    0.000    0.000    0.000 
#
# Total GULP energy -644411.274096 kJ/mol
# GULP energy per Si atom -12392.524502 kJ/mol
# Density = 1.736865 g / cm^3
# Si number density = 17.408273 Si / 1000 Ang^3
#
#
#
# Elastic Constant Matrix: (Units=GPa)
#
#
# Indices 1 2 3 4 5 6 
#
# 1 83.9959 37.4390 40.1558 0.0000 0.0000 0.0000
# 2 37.4390 82.3198 50.5138 0.0000 0.0000 0.0000
# 3 40.1558 50.5138 98.3315 0.0000 0.0000 0.0000
# 4 0.0000 0.0000 0.0000 30.0832 0.0000 0.0000
# 5 0.0000 0.0000 0.0000 0.0000 23.5668 0.0000
# 6 0.0000 0.0000 0.0000 0.0000 0.0000 18.6940
#
#
#
# Elastic Compliance Matrix: (Units=1/GPa)
#
#
# Indices 1 2 3 4 5 6 
#
# 1 0.015978 -0.004765 -0.004077 0.000000 0.000000 0.000000
# 2 -0.004765 0.019161 -0.007897 0.000000 0.000000 0.000000
# 3 -0.004077 -0.007897 0.015892 0.000000 0.000000 0.000000
# 4 0.000000 0.000000 0.000000 0.033241 0.000000 0.000000
# 5 0.000000 0.000000 0.000000 0.000000 0.042433 0.000000
# 6 0.000000 0.000000 0.000000 0.000000 0.000000 0.053493
#
#
# Mechanical properties :
#
#
# Convention : Reuss Voigt Hill
#
# Bulk Modulus (GPa) = 56.97417 57.87384 57.42401
# Shear Modulus (GPa) = 22.77621 23.57138 23.17380
#
# Velocity S-wave (km/s) = 3.62104 3.68371 3.65251
# Velocity P-wave (km/s) = 7.09097 7.17009 7.13064
#
# Compressibility (1/GPa) = 0.01755181
#
# Stress axis : x y z
#
# Youngs Moduli (GPa) = 62.58422 52.18985 62.92641
#
# Poissons Ratio (x) = 0.24869 0.25657
# Poissons Ratio (y) = 0.29822 0.49694
# Poissons Ratio (z) = 0.25517 0.41215
#
# Static dielectric constant tensor:
#      x y z
#    x 3.064370 0.000000 0.000000 
#    y 0.000000 3.280180 0.000000 
#    z 0.000000 0.000000 3.401240 
# 
# 
# High freq. dielectric constant tensor:
#      x y z
#    x 1.642700 0.000000 0.000000 
#    y 0.000000 1.668340 0.000000 
#    z 0.000000 0.000000 1.679020 
# 
# From -- ./inp_files/53311.got.cif
#   From: 2010.03.12/outbox.cif.g09.slc.cpg/sg65_27_cif.got.tgz:53311.got - 2010.04.10 20:52:16.
