data_PCOD8270894
_publ_section_title
;
Structure prediction by ZEFSAII (Michael W. Deem and Ramdas Pophale) SiO2 
 PCOD8270894
Probable space group: C M M M
;
_chemical_formula_sum "Si O2"
_cell_formula_units_Z 96
_cell_length_a 14.194408
_cell_length_b 19.532699
_cell_length_c 15.052579
_cell_angle_alpha 90.000000
_cell_angle_beta 90.000000
_cell_angle_gamma 90.000000
_cell_volume 4173.404280
_symmetry_space_group_name_H-M "C M M M"
_symmetry_group_IT_number 65
_symmetry_cell_setting 'orthorhombic'
loop_
_space_group_symop_operation_xyz
x,y,z
-x,-y,z
x,-y,-z
-x,y,-z
-x,-y,-z
x,y,-z
-x,y,z
x,-y,z
1/2+x,1/2+y,z
1/2-x,1/2-y,z
1/2+x,1/2-y,-z
1/2-x,1/2+y,-z
1/2-x,1/2-y,-z
1/2+x,1/2+y,-z
1/2-x,1/2+y,z
1/2+x,1/2-y,z
loop_
_atom_site_type_symbol
_atom_site_label
_atom_site_fract_x
_atom_site_fract_y
_atom_site_fract_z
Si Si1 0.895803 0.243123 0.099251
Si Si2 0.698587 0.605012 0.098689
Si Si3 0.108116 0.924314 0.278118
Si Si4 0.895661 0.612633 0.162017
Si Si5 0.606439 0.076964 0.636703
Si Si6 0.230537 0.827173 0.401143
O O1 0.815744 0.186394 0.115038
O O2 0.886593 0.304930 0.169094
O O3 0.000000 0.208999 0.109599
O O4 0.884873 0.274512 0.000000
O O5 0.641823 0.567602 0.176217
O O6 0.809576 0.585542 0.101976
O O7 0.661423 0.584170 0.000000
O O8 0.164017 0.866627 0.332044
O O9 0.000000 0.901732 0.279798
O O10 0.121502 0.000000 0.321483
O O11 0.881399 0.580631 0.257917
O O12 0.000000 0.592628 0.123991
O O13 0.500000 0.093736 0.608114
O O14 0.671777 0.132097 0.589315
O O15 0.634072 0.000000 0.606910
O O16 0.184518 0.824619 0.500000
O O17 0.250000 0.750000 0.366776
#
# Coordination Sequence:
#
# PCOD8270894 Si02
#       6
#    16  16  16  16  16  16
#     4   9  18  32  51  81 121 168 225 282 335 393
#     4  11  22  36  59  92 133 181 233 289 345 402
#     4  11  26  47  71 100 138 187 237 284 341 410
#     4  10  20  33  55  88 126 171 224 280 335 400
#     4  10  22  41  67  99 136 178 221 269 330 405
#     4  11  26  47  74 108 141 173 216 280 351 412
#
# _framework density 23.002803
#
# number of rings (size 3 to 8) (size 9 to 14) (size 15 to 20)
#    0.000    1.667    1.667    2.000    2.333    6.333 
#    0.000    4.167    0.000    1.500    0.000   11.667 
#    0.000    0.000    0.000    0.000    0.000    0.000 
#
# Total GULP energy -594914.940648 kJ/mol
# GULP energy per Si atom -12394.061263 kJ/mol
# Density = 2.295045 g / cm^3
# Si number density = 23.002803 Si / 1000 Ang^3
#
#
#
# Elastic Constant Matrix: (Units=GPa)
#
#
# Indices 1 2 3 4 5 6 
#
# 1 137.1677 50.4340 44.5147 0.0000 0.0000 0.0000
# 2 50.4340 130.6755 41.3632 0.0000 0.0000 0.0000
# 3 44.5147 41.3632 98.2106 0.0000 0.0000 0.0000
# 4 0.0000 0.0000 0.0000 927.0620 0.0000 0.0000
# 5 0.0000 0.0000 0.0000 0.0000 15.7545 0.0000
# 6 0.0000 0.0000 0.0000 0.0000 0.0000 30.0596
#
#
#
# Elastic Compliance Matrix: (Units=1/GPa)
#
#
# Indices 1 2 3 4 5 6 
#
# 1 0.009248 -0.002587 -0.003102 0.000000 0.000000 0.000000
# 2 -0.002587 0.009554 -0.002851 0.000000 0.000000 0.000000
# 3 -0.003102 -0.002851 0.012789 0.000000 0.000000 0.000000
# 4 0.000000 0.000000 0.000000 0.001079 0.000000 0.000000
# 5 0.000000 0.000000 0.000000 0.000000 0.063474 0.000000
# 6 0.000000 0.000000 0.000000 0.000000 0.000000 0.033267
#
#
# Mechanical properties :
#
#
# Convention : Reuss Voigt Hill
#
# Bulk Modulus (GPa) = 68.91813 70.96418 69.94115
# Shear Modulus (GPa) = 33.04075 209.89136 121.46605
#
# Velocity S-wave (km/s) = 3.79407 9.56264 7.27458
# Velocity P-wave (km/s) = 7.01563 12.36295 10.05141
#
# Compressibility (1/GPa) = 0.01450997
#
# Stress axis : x y z
#
# Youngs Moduli (GPa) = 108.12617 104.67288 78.19233
#
# Poissons Ratio (x) = 0.27084 0.24257
# Poissons Ratio (y) = 0.27978 0.22292
# Poissons Ratio (z) = 0.33543 0.29841
#
# Static dielectric constant tensor:
#      x y z
#    x 4.354080 0.000000 0.000000 
#    y 0.000000 4.038380 0.000000 
#    z 0.000000 0.000000 3.912810 
# 
# 
# High freq. dielectric constant tensor:
#      x y z
#    x 1.915720 0.000000 0.000000 
#    y 0.000000 1.903580 0.000000 
#    z 0.000000 0.000000 1.890980 
# 
# From -- ./inp_files/40333.got.cif
#   From: 2010.03.12/outbox.cif.g09.slc.cpg/sg65_21_cif.got.tgz:40333.got - 2010.04.10 20:52:16.
