data_PCOD8270150
_publ_section_title
;
Structure prediction by ZEFSAII (Michael W. Deem and Ramdas Pophale) SiO2 
 PCOD8270150
Probable space group: C M M M
;
_chemical_formula_sum "Si O2"
_cell_formula_units_Z 120
_cell_length_a 9.194177
_cell_length_b 25.971988
_cell_length_c 27.492979
_cell_angle_alpha 90.000000
_cell_angle_beta 90.000000
_cell_angle_gamma 90.000000
_cell_volume 6565.077453
_symmetry_space_group_name_H-M "C M M M"
_symmetry_group_IT_number 65
_symmetry_cell_setting 'orthorhombic'
loop_
_space_group_symop_operation_xyz
x,y,z
-x,-y,z
x,-y,-z
-x,y,-z
-x,-y,-z
x,y,-z
-x,y,z
x,-y,z
1/2+x,1/2+y,z
1/2-x,1/2-y,z
1/2+x,1/2-y,-z
1/2-x,1/2+y,-z
1/2-x,1/2-y,-z
1/2+x,1/2+y,-z
1/2-x,1/2+y,z
1/2+x,1/2-y,z
loop_
_atom_site_type_symbol
_atom_site_label
_atom_site_fract_x
_atom_site_fract_y
_atom_site_fract_z
Si Si1 0.665097 0.058192 0.897914
Si Si2 0.668248 0.560430 0.300310
Si Si3 0.830658 0.145281 0.054233
Si Si4 0.833114 0.000000 0.557515
Si Si5 0.168369 0.092988 0.193619
Si Si6 0.833734 0.799329 0.149382
Si Si7 0.672686 0.906193 0.392463
Si Si8 0.669626 0.199215 0.555777
O O1 0.500000 0.077553 0.892735
O O2 0.745642 0.092135 0.938354
O O3 0.739759 0.061372 0.845299
O O4 0.672053 0.000000 0.916752
O O5 0.500000 0.575693 0.308136
O O6 0.691941 0.500000 0.308639
O O7 0.721247 0.576587 0.246835
O O8 0.769783 0.591458 0.337414
O O9 0.778268 0.186017 0.094898
O O10 0.000000 0.133042 0.062429
O O11 0.799797 0.166819 0.000000
O O12 0.751927 0.050633 0.575860
O O13 0.828856 0.000000 0.500000
O O14 0.000000 0.000000 0.576847
O O15 0.194081 0.153878 0.186374
O O16 0.000000 0.078512 0.185852
O O17 0.750000 0.750000 0.169362
O O18 0.000000 0.783366 0.147340
O O19 0.500000 0.915457 0.394445
O O20 0.716208 0.850461 0.413263
O O21 0.714685 0.188723 0.500000
O O22 0.500000 0.209923 0.560734
O O23 0.750000 0.250000 0.576102
#
# Coordination Sequence:
#
# PCOD8270150 Si02
#       8
#    16  16  16   8  16  16  16  16
#     4  10  20  32  48  74 105 133 165 211 261 310
#     4  10  20  35  56  80 108 142 181 221 263 317
#     4   9  19  35  52  71  98 134 175 213 251 308
#     4  11  23  37  55  81 113 151 193 231 270 325
#     4   9  19  36  56  76  99 135 177 216 257 309
#     4   9  18  33  53  76 101 129 168 215 263 312
#     4  11  22  36  55  82 116 149 181 226 282 333
#     4   9  19  36  57  80 106 141 186 230 273 322
#
# _framework density 18.278535000000002
#
# number of rings (size 3 to 8) (size 9 to 14) (size 15 to 20)
#    0.000    2.333    0.667    2.600    0.000    7.200 
#    0.000    3.333    0.000    3.200    0.000    0.000 
#    0.000    0.000    0.000    0.000    0.000    0.000 
#
# Total GULP energy -744068.054254 kJ/mol
# GULP energy per Si atom -12401.134238 kJ/mol
# Density = 1.823693 g / cm^3
# Si number density = 18.278535 Si / 1000 Ang^3
#
#
#
# Elastic Constant Matrix: (Units=GPa)
#
#
# Indices 1 2 3 4 5 6 
#
# 1 65.9505 38.8753 22.6319 0.0000 0.0000 0.0000
# 2 38.8753 96.8131 20.8009 0.0000 0.0000 0.0000
# 3 22.6319 20.8009 74.0200 0.0000 0.0000 0.0000
# 4 0.0000 0.0000 0.0000 19.4802 0.0000 0.0000
# 5 0.0000 0.0000 0.0000 0.0000 23.7884 0.0000
# 6 0.0000 0.0000 0.0000 0.0000 0.0000 33.6788
#
#
#
# Elastic Compliance Matrix: (Units=1/GPa)
#
#
# Indices 1 2 3 4 5 6 
#
# 1 0.021093 -0.007540 -0.004331 0.000000 0.000000 0.000000
# 2 -0.007540 0.013688 -0.001541 0.000000 0.000000 0.000000
# 3 -0.004331 -0.001541 0.015267 0.000000 0.000000 0.000000
# 4 0.000000 0.000000 0.000000 0.051334 0.000000 0.000000
# 5 0.000000 0.000000 0.000000 0.000000 0.042037 0.000000
# 6 0.000000 0.000000 0.000000 0.000000 0.000000 0.029692
#
#
# Mechanical properties :
#
#
# Convention : Reuss Voigt Hill
#
# Bulk Modulus (GPa) = 43.05642 44.59999 43.82820
# Shear Modulus (GPa) = 24.07588 25.68783 24.88186
#
# Velocity S-wave (km/s) = 3.63322 3.75287 3.69353
# Velocity P-wave (km/s) = 6.41928 6.57510 6.49766
#
# Compressibility (1/GPa) = 0.02322534
#
# Stress axis : x y z
#
# Youngs Moduli (GPa) = 47.40845 73.05752 65.50037
#
# Poissons Ratio (x) = 0.55082 0.28366
# Poissons Ratio (y) = 0.35744 0.10095
# Poissons Ratio (z) = 0.20531 0.11260
#
# Static dielectric constant tensor:
#      x y z
#    x 3.379670 0.000000 0.000000 
#    y 0.000000 3.301390 0.000000 
#    z 0.000000 0.000000 3.401920 
# 
# 
# High freq. dielectric constant tensor:
#      x y z
#    x 1.709220 0.000000 0.000000 
#    y 0.000000 1.705020 0.000000 
#    z 0.000000 0.000000 1.704170 
# 
# From -- ./inp_files/73968.got.cif
#   From: 2010.03.12/outbox.cif.g09.slc.cpg/sg65_37_cif.got.tgz:73968.got - 2010.04.10 20:52:16.
