data_PCOD8270730
_publ_section_title
;
Structure prediction by ZEFSAII (Michael W. Deem and Ramdas Pophale) SiO2 
 PCOD8270730
Probable space group: C M M M
;
_chemical_formula_sum "Si O2"
_cell_formula_units_Z 104
_cell_length_a 22.143410
_cell_length_b 29.389112
_cell_length_c 9.166708
_cell_angle_alpha 90.000000
_cell_angle_beta 90.000000
_cell_angle_gamma 90.000000
_cell_volume 5965.465834
_symmetry_space_group_name_H-M "C M M M"
_symmetry_group_IT_number 65
_symmetry_cell_setting 'orthorhombic'
loop_
_space_group_symop_operation_xyz
x,y,z
-x,-y,z
x,-y,-z
-x,y,-z
-x,-y,-z
x,y,-z
-x,y,z
x,-y,z
1/2+x,1/2+y,z
1/2-x,1/2-y,z
1/2+x,1/2-y,-z
1/2-x,1/2+y,-z
1/2-x,1/2-y,-z
1/2+x,1/2+y,-z
1/2-x,1/2+y,z
1/2+x,1/2-y,z
loop_
_atom_site_type_symbol
_atom_site_label
_atom_site_fract_x
_atom_site_fract_y
_atom_site_fract_z
Si Si1 0.571857 0.213953 0.335251
Si Si2 0.500000 0.553784 0.331804
Si Si3 0.889451 0.099697 0.170742
Si Si4 0.146394 0.552678 0.666566
Si Si5 0.569493 0.698566 0.167764
Si Si6 0.785734 0.052600 0.332862
Si Si7 0.070148 0.625116 0.170112
O O1 0.595799 0.211539 0.500000
O O2 0.500000 0.214847 0.326793
O O3 0.596837 0.260103 0.262162
O O4 0.596151 0.169864 0.250066
O O5 0.500000 0.500000 0.315551
O O6 0.500000 0.568923 0.500000
O O7 0.440540 0.572751 0.256295
O O8 0.892996 0.153365 0.203603
O O9 0.824207 0.083456 0.224009
O O10 0.897875 0.089817 0.000000
O O11 0.129351 0.564535 0.500000
O O12 0.133664 0.500000 0.698595
O O13 0.216107 0.564255 0.695909
O O14 0.105353 0.581077 0.775512
O O15 0.500000 0.688431 0.208145
O O16 0.575340 0.712989 0.000000
O O17 0.803256 0.063341 0.500000
O O18 0.798954 0.000000 0.298613
O O19 0.000000 0.617787 0.206798
O O20 0.081299 0.631792 0.000000
#
# Coordination Sequence:
#
# PCOD8270730 Si02
#       7
#    16   8  16  16  16  16  16
#     4   9  17  29  48  74 100 130 169 206 242 295
#     4  11  23  35  47  67  99 137 173 215 266 311
#     4  11  21  33  50  74 101 132 170 214 262 310
#     4   9  19  36  56  76 101 135 173 211 248 293
#     4   9  17  31  47  67 100 134 164 204 256 305
#     4   9  19  36  54  72  97 132 173 213 255 302
#     4  10  20  33  51  78 110 139 164 198 250 303
#
# _framework density 17.433675000000001
#
# number of rings (size 3 to 8) (size 9 to 14) (size 15 to 20)
#    0.000    2.385    0.769    3.000    0.000    8.000 
#    0.000    3.077    0.000    0.923    0.000    6.462 
#    0.000    0.000    0.000    0.000    0.000    0.000 
#
# Total GULP energy -644909.925838 kJ/mol
# GULP energy per Si atom -12402.113958 kJ/mol
# Density = 1.739400 g / cm^3
# Si number density = 17.433675 Si / 1000 Ang^3
#
#
#
# Elastic Constant Matrix: (Units=GPa)
#
#
# Indices 1 2 3 4 5 6 
#
# 1 58.3791 51.7134 49.0233 0.0000 0.0000 0.0000
# 2 51.7134 117.1831 75.9265 0.0000 0.0000 0.0000
# 3 49.0233 75.9265 116.1864 0.0000 0.0000 0.0000
# 4 0.0000 0.0000 0.0000 37.5454 0.0000 0.0000
# 5 0.0000 0.0000 0.0000 0.0000 27.5542 0.0000
# 6 0.0000 0.0000 0.0000 0.0000 0.0000 8.4323
#
#
#
# Elastic Compliance Matrix: (Units=1/GPa)
#
#
# Indices 1 2 3 4 5 6 
#
# 1 0.031285 -0.009111 -0.007246 0.000000 0.000000 0.000000
# 2 -0.009111 0.017454 -0.007562 0.000000 0.000000 0.000000
# 3 -0.007246 -0.007562 0.016606 0.000000 0.000000 0.000000
# 4 0.000000 0.000000 0.000000 0.026634 0.000000 0.000000
# 5 0.000000 0.000000 0.000000 0.000000 0.036292 0.000000
# 6 0.000000 0.000000 0.000000 0.000000 0.000000 0.118591
#
#
# Mechanical properties :
#
#
# Convention : Reuss Voigt Hill
#
# Bulk Modulus (GPa) = 57.12092 71.67500 64.39796
# Shear Modulus (GPa) = 16.63690 22.37873 19.50782
#
# Velocity S-wave (km/s) = 3.09252 3.58669 3.34873
# Velocity P-wave (km/s) = 6.75185 7.63902 7.20910
#
# Compressibility (1/GPa) = 0.01750672
#
# Stress axis : x y z
#
# Youngs Moduli (GPa) = 31.96380 57.29413 60.22015
#
# Poissons Ratio (x) = 0.52202 0.43638
# Poissons Ratio (y) = 0.29123 0.45535
# Poissons Ratio (z) = 0.23162 0.43323
#
# Static dielectric constant tensor:
#      x y z
#    x 2.961920 0.000000 0.000000 
#    y 0.000000 3.300810 0.000000 
#    z 0.000000 0.000000 3.311280 
# 
# 
# High freq. dielectric constant tensor:
#      x y z
#    x 1.640910 0.000000 0.000000 
#    y 0.000000 1.680730 0.000000 
#    z 0.000000 0.000000 1.682770 
# 
# From -- ./inp_files/12798.got.cif
#   From: 2010.03.12/outbox.cif.g09.slc.cpg/sg65_7_cif.got.tgz:12798.got - 2010.04.10 20:52:16.
