data_PCOD8270637
_publ_section_title
;
Structure prediction by ZEFSAII (Michael W. Deem and Ramdas Pophale) SiO2 
 PCOD8270637
Probable space group: C M M M
;
_chemical_formula_sum "Si O2"
_cell_formula_units_Z 88
_cell_length_a 18.461952
_cell_length_b 9.371098
_cell_length_c 28.324170
_cell_angle_alpha 90.000000
_cell_angle_beta 90.000000
_cell_angle_gamma 90.000000
_cell_volume 4900.329571
_symmetry_space_group_name_H-M "C M M M"
_symmetry_group_IT_number 65
_symmetry_cell_setting 'orthorhombic'
loop_
_space_group_symop_operation_xyz
x,y,z
-x,-y,z
x,-y,-z
-x,y,-z
-x,-y,-z
x,y,-z
-x,y,z
x,-y,z
1/2+x,1/2+y,z
1/2-x,1/2-y,z
1/2+x,1/2-y,-z
1/2-x,1/2+y,-z
1/2-x,1/2-y,-z
1/2+x,1/2+y,-z
1/2-x,1/2+y,z
1/2+x,1/2-y,z
loop_
_atom_site_type_symbol
_atom_site_label
_atom_site_fract_x
_atom_site_fract_y
_atom_site_fract_z
Si Si1 0.081599 0.830747 0.000000
Si Si2 0.913788 0.338767 0.728773
Si Si3 0.415531 0.336170 0.359802
Si Si4 0.825261 0.832111 0.088899
Si Si5 0.178343 0.834128 0.552809
Si Si6 0.416453 0.334740 0.180870
O O1 0.124879 0.777601 0.954060
O O2 0.000000 0.766310 0.000000
O O3 0.075952 0.000000 0.000000
O O4 0.884010 0.500000 0.729607
O O5 0.882831 0.259639 0.682406
O O6 0.886672 0.257594 0.775450
O O7 0.000000 0.334674 0.727481
O O8 0.500000 0.309842 0.365075
O O9 0.397743 0.500000 0.347712
O O10 0.382286 0.288581 0.409716
O O11 0.750000 0.750000 0.087743
O O12 0.867917 0.793439 0.136360
O O13 0.809630 0.000000 0.084900
O O14 0.150819 0.795147 0.500000
O O15 0.250000 0.750000 0.566046
O O16 0.196846 0.000000 0.556506
O O17 0.500000 0.298857 0.168899
O O18 0.408403 0.500000 0.194560
#
# Coordination Sequence:
#
# PCOD8270637 Si02
#       6
#     8  16  16  16  16  16
#     4   9  17  32  55  79 100 127 168 208 238 279
#     4   9  17  29  47  72  99 125 155 196 245 289
#     4   9  17  30  49  72  97 125 158 197 239 283
#     4  10  20  33  51  75 103 133 162 198 244 289
#     4   9  18  32  49  69  94 125 159 194 235 284
#     4   9  17  31  51  72  94 125 166 203 234 277
#
# _framework density 17.957975999999999
#
# number of rings (size 3 to 8) (size 9 to 14) (size 15 to 20)
#    0.000    2.818    0.000    1.364    0.000    6.182 
#    0.000    2.727    0.000    2.182    0.000    5.091 
#    0.000    0.000    0.000    0.000    0.000    0.000 
#
# Total GULP energy -545574.801553 kJ/mol
# GULP energy per Si atom -12399.427308 kJ/mol
# Density = 1.791710 g / cm^3
# Si number density = 17.957976 Si / 1000 Ang^3
#
#
#
# Elastic Constant Matrix: (Units=GPa)
#
#
# Indices 1 2 3 4 5 6 
#
# 1 86.2943 44.5846 73.0025 0.0000 0.0000 0.0000
# 2 44.5846 72.1332 74.1014 0.0000 0.0000 0.0000
# 3 73.0025 74.1014 176.0175 0.0000 0.0000 0.0000
# 4 0.0000 0.0000 0.0000 20.6181 0.0000 0.0000
# 5 0.0000 0.0000 0.0000 0.0000 9.3166 0.0000
# 6 0.0000 0.0000 0.0000 0.0000 0.0000 25.9270
#
#
#
# Elastic Compliance Matrix: (Units=1/GPa)
#
#
# Indices 1 2 3 4 5 6 
#
# 1 0.019482 -0.006592 -0.005305 0.000000 0.000000 0.000000
# 2 -0.006592 0.026658 -0.008489 0.000000 0.000000 0.000000
# 3 -0.005305 -0.008489 0.011455 0.000000 0.000000 0.000000
# 4 0.000000 0.000000 0.000000 0.048501 0.000000 0.000000
# 5 0.000000 0.000000 0.000000 0.000000 0.107336 0.000000
# 6 0.000000 0.000000 0.000000 0.000000 0.000000 0.038570
#
#
# Mechanical properties :
#
#
# Convention : Reuss Voigt Hill
#
# Bulk Modulus (GPa) = 59.43931 79.75801 69.59866
# Shear Modulus (GPa) = 16.75714 20.68944 18.72329
#
# Velocity S-wave (km/s) = 3.05803 3.39795 3.23246
# Velocity P-wave (km/s) = 6.75572 7.73982 7.26445
#
# Compressibility (1/GPa) = 0.01682388
#
# Stress axis : x y z
#
# Youngs Moduli (GPa) = 51.33020 37.51226 87.29720
#
# Poissons Ratio (x) = 0.24727 0.46310
# Poissons Ratio (y) = 0.33836 0.74105
# Poissons Ratio (z) = 0.27230 0.31843
#
# Static dielectric constant tensor:
#      x y z
#    x 3.126710 0.000000 0.000000 
#    y 0.000000 3.271980 0.000000 
#    z 0.000000 0.000000 3.587990 
# 
# 
# High freq. dielectric constant tensor:
#      x y z
#    x 1.670840 0.000000 0.000000 
#    y 0.000000 1.681820 0.000000 
#    z 0.000000 0.000000 1.712450 
# 
# From -- ./inp_files/75368.got.cif
#   From: 2010.03.12/outbox.cif.g09.slc.cpg/sg65_38_cif.got.tgz:75368.got - 2010.04.10 20:52:16.
