data_PCOD8270364
_publ_section_title
;
Structure prediction by ZEFSAII (Michael W. Deem and Ramdas Pophale) SiO2 
 PCOD8270364
Probable space group: C M M M
;
_chemical_formula_sum "Si O2"
_cell_formula_units_Z 104
_cell_length_a 9.044904
_cell_length_b 26.803133
_cell_length_c 27.012438
_cell_angle_alpha 90.000000
_cell_angle_beta 90.000000
_cell_angle_gamma 90.000000
_cell_volume 6548.673018
_symmetry_space_group_name_H-M "C M M M"
_symmetry_group_IT_number 65
_symmetry_cell_setting 'orthorhombic'
loop_
_space_group_symop_operation_xyz
x,y,z
-x,-y,z
x,-y,-z
-x,y,-z
-x,-y,-z
x,y,-z
-x,y,z
x,-y,z
1/2+x,1/2+y,z
1/2-x,1/2-y,z
1/2+x,1/2-y,-z
1/2-x,1/2+y,-z
1/2-x,1/2-y,-z
1/2+x,1/2+y,-z
1/2-x,1/2+y,z
1/2+x,1/2-y,z
loop_
_atom_site_type_symbol
_atom_site_label
_atom_site_fract_x
_atom_site_fract_y
_atom_site_fract_z
Si Si1 0.827709 0.197479 0.447727
Si Si2 0.174659 0.140076 0.755208
Si Si3 0.673563 0.696958 0.340902
Si Si4 0.173533 0.098605 0.096812
Si Si5 0.830521 0.557078 0.190367
Si Si6 0.830045 0.800445 0.850780
Si Si7 0.175153 0.441988 0.000000
O O1 0.786608 0.168487 0.500000
O O2 0.750000 0.250000 0.448830
O O3 0.786050 0.171799 0.394919
O O4 0.000000 0.208455 0.447173
O O5 0.227245 0.159455 0.701672
O O6 0.261740 0.088957 0.764841
O O7 0.221808 0.180417 0.796756
O O8 0.000000 0.129290 0.758209
O O9 0.500000 0.706280 0.335229
O O10 0.750000 0.750000 0.334028
O O11 0.237211 0.064655 0.140568
O O12 0.202410 0.156815 0.108711
O O13 0.257925 0.085296 0.047157
O O14 0.000000 0.087303 0.091354
O O15 0.819665 0.500000 0.206940
O O16 0.000000 0.572946 0.180634
O O17 0.750000 0.750000 0.866640
O O18 0.000000 0.786700 0.848849
O O19 0.220369 0.500000 0.000000
O O20 0.000000 0.435458 0.000000
#
# Coordination Sequence:
#
# PCOD8270364 Si02
#       7
#    16  16  16  16  16  16   8
#     4   8  13  21  33  50  75 109 146 181 217 255
#     4   9  18  30  43  63  89 116 148 182 216 260
#     4   9  16  25  38  58  85 116 150 185 218 256
#     4  10  21  36  53  74  97 121 150 179 212 259
#     4  10  20  33  49  69  91 114 142 177 218 263
#     4   9  18  31  47  67  90 117 149 181 211 249
#     4  11  23  37  54  77 100 119 146 185 224 261
#
# _framework density 15.881079
#
# number of rings (size 3 to 8) (size 9 to 14) (size 15 to 20)
#    0.000    2.692    0.000    3.000    0.000    7.385 
#    0.000    0.385    0.000    0.000    0.000    0.000 
#    0.000    0.615    0.000    7.692    0.000    1.231 
#
# Total GULP energy -644342.921088 kJ/mol
# GULP energy per Si atom -12391.210021 kJ/mol
# Density = 1.584493 g / cm^3
# Si number density = 15.881079 Si / 1000 Ang^3
#
#
#
# Elastic Constant Matrix: (Units=GPa)
#
#
# Indices 1 2 3 4 5 6 
#
# 1 56.1671 40.4268 40.9724 0.0000 0.0000 0.0000
# 2 40.4268 83.3243 54.4790 0.0000 0.0000 0.0000
# 3 40.9724 54.4790 154.6923 0.0000 0.0000 0.0000
# 4 0.0000 0.0000 0.0000 19.6151 0.0000 0.0000
# 5 0.0000 0.0000 0.0000 0.0000 15.7762 0.0000
# 6 0.0000 0.0000 0.0000 0.0000 0.0000 26.0334
#
#
#
# Elastic Compliance Matrix: (Units=1/GPa)
#
#
# Indices 1 2 3 4 5 6 
#
# 1 0.028754 -0.011655 -0.003511 0.000000 0.000000 0.000000
# 2 -0.011655 0.020316 -0.004068 0.000000 0.000000 0.000000
# 3 -0.003511 -0.004068 0.008827 0.000000 0.000000 0.000000
# 4 0.000000 0.000000 0.000000 0.050981 0.000000 0.000000
# 5 0.000000 0.000000 0.000000 0.000000 0.063387 0.000000
# 6 0.000000 0.000000 0.000000 0.000000 0.000000 0.038412
#
#
# Mechanical properties :
#
#
# Convention : Reuss Voigt Hill
#
# Bulk Modulus (GPa) = 51.47015 62.88223 57.17619
# Shear Modulus (GPa) = 19.56019 22.83864 21.19941
#
# Velocity S-wave (km/s) = 3.51332 3.79635 3.65757
# Velocity P-wave (km/s) = 6.99557 7.67450 7.34289
#
# Compressibility (1/GPa) = 0.01942874
#
# Stress axis : x y z
#
# Youngs Moduli (GPa) = 34.77741 49.22341 113.28881
#
# Poissons Ratio (x) = 0.57370 0.39779
# Poissons Ratio (y) = 0.40533 0.46082
# Poissons Ratio (z) = 0.12212 0.20022
#
# Static dielectric constant tensor:
#      x y z
#    x 2.896250 0.000000 0.000000 
#    y 0.000000 2.786790 0.000000 
#    z 0.000000 0.000000 3.555310 
# 
# 
# High freq. dielectric constant tensor:
#      x y z
#    x 1.618480 0.000000 0.000000 
#    y 0.000000 1.574970 0.000000 
#    z 0.000000 0.000000 1.616960 
# 
# From -- ./inp_files/73808.got.cif
#   From: 2010.03.12/outbox.cif.g09.slc.cpg/sg65_37_cif.got.tgz:73808.got - 2010.04.10 20:52:16.
