data_PCOD8270331
_publ_section_title
;
Structure prediction by ZEFSAII (Michael W. Deem and Ramdas Pophale) SiO2 
 PCOD8270331
Probable space group: C M M M
;
_chemical_formula_sum "Si O2"
_cell_formula_units_Z 104
_cell_length_a 7.963033
_cell_length_b 19.214415
_cell_length_c 35.408157
_cell_angle_alpha 90.000000
_cell_angle_beta 90.000000
_cell_angle_gamma 90.000000
_cell_volume 5417.625795
_symmetry_space_group_name_H-M "C M M M"
_symmetry_group_IT_number 65
_symmetry_cell_setting 'orthorhombic'
loop_
_space_group_symop_operation_xyz
x,y,z
-x,-y,z
x,-y,-z
-x,y,-z
-x,-y,-z
x,y,-z
-x,y,z
x,-y,z
1/2+x,1/2+y,z
1/2-x,1/2-y,z
1/2+x,1/2-y,-z
1/2-x,1/2+y,-z
1/2-x,1/2-y,-z
1/2+x,1/2+y,-z
1/2-x,1/2+y,z
1/2+x,1/2-y,z
loop_
_atom_site_type_symbol
_atom_site_label
_atom_site_fract_x
_atom_site_fract_y
_atom_site_fract_z
Si Si1 0.500000 0.583040 0.042788
Si Si2 0.698456 0.673362 0.541865
Si Si3 0.198286 0.577432 0.175342
Si Si4 0.301487 0.829754 0.242929
Si Si5 0.698746 0.422239 0.607683
Si Si6 0.302381 0.921705 0.311184
Si Si7 0.812327 0.417250 0.908999
O O1 0.500000 0.500000 0.044500
O O2 0.669607 0.612059 0.062739
O O3 0.500000 0.610415 0.000000
O O4 0.771071 0.655935 0.500000
O O5 0.500000 0.666495 0.541049
O O6 0.750000 0.750000 0.554402
O O7 0.776559 0.621755 0.573088
O O8 0.275323 0.500000 0.182048
O O9 0.272875 0.631902 0.205710
O O10 0.241268 0.605109 0.133348
O O11 0.000000 0.571771 0.179931
O O12 0.500000 0.834678 0.242814
O O13 0.250000 0.750000 0.243604
O O14 0.227163 0.870104 0.279457
O O15 0.500000 0.421803 0.605208
O O16 0.771674 0.500000 0.603944
O O17 0.754546 0.390493 0.647889
O O18 0.500000 0.925435 0.306710
O O19 0.226734 0.000000 0.306440
O O20 0.819417 0.500000 0.910936
O O21 0.000000 0.388383 0.919386
#
# Coordination Sequence:
#
# PCOD8270331 Si02
#       7
#     8  16  16  16  16  16  16
#     4   9  16  24  36  60  96 130 158 196 245 297
#     4   9  18  32  49  69  93 122 155 189 230 281
#     4   8  14  28  50  68  85 120 164 199 231 276
#     4  10  20  33  48  69  97 124 152 195 240 283
#     4   9  18  32  50  71  94 119 149 192 237 276
#     4   9  18  33  52  70  90 123 164 196 227 277
#     4   8  14  25  41  61  86 121 163 201 240 290
#
# _framework density 19.196601000000001
#
# number of rings (size 3 to 8) (size 9 to 14) (size 15 to 20)
#    0.000    3.154    0.000    1.385    0.000    4.308 
#    1.385    6.154    0.000    0.923    0.000    4.308 
#    0.000    0.615    0.308    0.000    0.000    0.000 
#
# Total GULP energy -644448.424830 kJ/mol
# GULP energy per Si atom -12393.238939 kJ/mol
# Density = 1.915291 g / cm^3
# Si number density = 19.196601 Si / 1000 Ang^3
#
#
#
# Elastic Constant Matrix: (Units=GPa)
#
#
# Indices 1 2 3 4 5 6 
#
# 1 43.9463 18.1361 43.8162 0.0000 0.0000 0.0000
# 2 18.1361 87.4115 81.4153 0.0000 0.0000 0.0000
# 3 43.8162 81.4153 192.8146 0.0000 0.0000 0.0000
# 4 0.0000 0.0000 0.0000 11.9337 0.0000 0.0000
# 5 0.0000 0.0000 0.0000 0.0000 25.9904 0.0000
# 6 0.0000 0.0000 0.0000 0.0000 0.0000 17.9021
#
#
#
# Elastic Compliance Matrix: (Units=1/GPa)
#
#
# Indices 1 2 3 4 5 6 
#
# 1 0.029423 0.000203 -0.006772 0.000000 0.000000 0.000000
# 2 0.000203 0.018857 -0.008008 0.000000 0.000000 0.000000
# 3 -0.006772 -0.008008 0.010107 0.000000 0.000000 0.000000
# 4 0.000000 0.000000 0.000000 0.083796 0.000000 0.000000
# 5 0.000000 0.000000 0.000000 0.000000 0.038476 0.000000
# 6 0.000000 0.000000 0.000000 0.000000 0.000000 0.055859
#
#
# Mechanical properties :
#
#
# Convention : Reuss Voigt Hill
#
# Bulk Modulus (GPa) = 34.20935 67.87863 51.04399
# Shear Modulus (GPa) = 18.15426 23.21891 20.68659
#
# Velocity S-wave (km/s) = 3.07856 3.48161 3.28627
# Velocity P-wave (km/s) = 5.52231 7.18322 6.40681
#
# Compressibility (1/GPa) = 0.02923177
#
# Stress axis : x y z
#
# Youngs Moduli (GPa) = 33.98678 53.03021 98.94411
#
# Poissons Ratio (x) = -0.01074 0.67003
# Poissons Ratio (y) = -0.00688 0.79239
# Poissons Ratio (z) = 0.23015 0.42469
#
# Static dielectric constant tensor:
#      x y z
#    x 3.348610 0.000000 0.000000 
#    y 0.000000 3.647850 0.000000 
#    z 0.000000 0.000000 3.911400 
# 
# 
# High freq. dielectric constant tensor:
#      x y z
#    x 1.726790 0.000000 0.000000 
#    y 0.000000 1.706040 0.000000 
#    z 0.000000 0.000000 1.757030 
# 
# From -- ./inp_files/76850.got.cif
#   From: 2010.03.12/outbox.cif.g09.slc.cpg/sg65_39_cif.got.tgz:76850.got - 2010.04.10 20:52:16.
