data_PCOD8270881
_publ_section_title
;
Structure prediction by ZEFSAII (Michael W. Deem and Ramdas Pophale) SiO2 
 PCOD8270881
Probable space group: C M M M
;
_chemical_formula_sum "Si O2"
_cell_formula_units_Z 88
_cell_length_a 30.345235
_cell_length_b 16.857590
_cell_length_c 8.897136
_cell_angle_alpha 90.000000
_cell_angle_beta 90.000000
_cell_angle_gamma 90.000000
_cell_volume 4551.307946
_symmetry_space_group_name_H-M "C M M M"
_symmetry_group_IT_number 65
_symmetry_cell_setting 'orthorhombic'
loop_
_space_group_symop_operation_xyz
x,y,z
-x,-y,z
x,-y,-z
-x,y,-z
-x,-y,-z
x,y,-z
-x,y,z
x,-y,z
1/2+x,1/2+y,z
1/2-x,1/2-y,z
1/2+x,1/2-y,-z
1/2-x,1/2+y,-z
1/2-x,1/2-y,-z
1/2+x,1/2+y,-z
1/2-x,1/2+y,z
1/2+x,1/2-y,z
loop_
_atom_site_type_symbol
_atom_site_label
_atom_site_fract_x
_atom_site_fract_y
_atom_site_fract_z
Si Si1 0.126042 0.307726 0.822111
Si Si2 0.948240 0.000000 0.321714
Si Si3 0.202030 0.408056 0.676377
Si Si4 0.951991 0.588157 0.821253
Si Si5 0.711690 0.590159 0.163680
Si Si6 0.615112 0.626527 0.177809
O O1 0.169598 0.345084 0.751947
O O2 0.084976 0.355521 0.753421
O O3 0.115330 0.218199 0.774653
O O4 0.130694 0.315587 0.000000
O O5 0.924158 0.921168 0.258723
O O6 0.944060 0.000000 0.500000
O O7 0.000000 0.000000 0.273127
O O8 0.197988 0.399789 0.500000
O O9 0.192390 0.500000 0.725013
O O10 0.250786 0.377589 0.724458
O O11 0.943575 0.500000 0.759099
O O12 0.000000 0.618677 0.768523
O O13 0.949677 0.587918 0.000000
O O14 0.723565 0.500000 0.135712
O O15 0.662810 0.595813 0.233268
O O16 0.713217 0.634439 0.000000
O O17 0.608991 0.613682 0.000000
#
# Coordination Sequence:
#
# PCOD8270881 Si02
#       6
#    16   8  16  16  16  16
#     4  10  20  33  54  83 113 143 181 232 289 340
#     4  11  25  43  63  87 115 151 193 235 288 353
#     4  10  21  35  52  78 113 153 194 230 271 329
#     4   8  14  26  46  73 104 137 174 216 263 320
#     4   9  17  33  56  77 104 142 186 232 282 338
#     4  10  21  38  60  86 111 141 185 238 291 342
#
# _framework density 19.335101999999999
#
# number of rings (size 3 to 8) (size 9 to 14) (size 15 to 20)
#    0.000    2.455    0.909    1.909    0.000    5.455 
#    0.000    5.455    0.000    0.545    0.000    2.545 
#    0.000    0.000    0.000    0.000    0.000    0.000 
#
# Total GULP energy -545236.497080 kJ/mol
# GULP energy per Si atom -12391.738570 kJ/mol
# Density = 1.929109 g / cm^3
# Si number density = 19.335102 Si / 1000 Ang^3
#
#
#
# Elastic Constant Matrix: (Units=GPa)
#
#
# Indices 1 2 3 4 5 6 
#
# 1 177.7233 81.2717 46.8239 0.0000 0.0000 0.0000
# 2 81.2717 104.9578 40.0299 0.0000 0.0000 0.0000
# 3 46.8239 40.0299 50.6105 0.0000 0.0000 0.0000
# 4 0.0000 0.0000 0.0000 18.4443 0.0000 0.0000
# 5 0.0000 0.0000 0.0000 0.0000 19.9639 0.0000
# 6 0.0000 0.0000 0.0000 0.0000 0.0000 7.5173
#
#
#
# Elastic Compliance Matrix: (Units=1/GPa)
#
#
# Indices 1 2 3 4 5 6 
#
# 1 0.009285 -0.005604 -0.004158 0.000000 0.000000 0.000000
# 2 -0.005604 0.017025 -0.008282 0.000000 0.000000 0.000000
# 3 -0.004158 -0.008282 0.030156 0.000000 0.000000 0.000000
# 4 0.000000 0.000000 0.000000 0.054217 0.000000 0.000000
# 5 0.000000 0.000000 0.000000 0.000000 0.050091 0.000000
# 6 0.000000 0.000000 0.000000 0.000000 0.000000 0.133027
#
#
# Mechanical properties :
#
#
# Convention : Reuss Voigt Hill
#
# Bulk Modulus (GPa) = 49.06883 74.39362 61.73122
# Shear Modulus (GPa) = 14.85091 20.19616 17.52353
#
# Velocity S-wave (km/s) = 2.77443 3.23543 3.01376
# Velocity P-wave (km/s) = 5.97466 7.24685 6.64128
#
# Compressibility (1/GPa) = 0.02037954
#
# Stress axis : x y z
#
# Youngs Moduli (GPa) = 107.70434 58.73663 33.16115
#
# Poissons Ratio (x) = 0.32914 0.13788
# Poissons Ratio (y) = 0.60353 0.27463
# Poissons Ratio (z) = 0.44782 0.48643
#
# Static dielectric constant tensor:
#      x y z
#    x 3.797310 0.000000 0.000000 
#    y 0.000000 3.585650 0.000000 
#    z 0.000000 0.000000 3.269470 
# 
# 
# High freq. dielectric constant tensor:
#      x y z
#    x 1.765920 0.000000 0.000000 
#    y 0.000000 1.746550 0.000000 
#    z 0.000000 0.000000 1.719690 
# 
# From -- ./inp_files/18335.got.cif
#   From: 2010.03.12/outbox.cif.g09.slc.cpg/sg65_10_cif.got.tgz:18335.got - 2010.04.10 20:52:16.
