data_PCOD8270370
_publ_section_title
;
Structure prediction by ZEFSAII (Michael W. Deem and Ramdas Pophale) SiO2 
 PCOD8270370
Probable space group: C M M M
;
_chemical_formula_sum "Si O2"
_cell_formula_units_Z 96
_cell_length_a 20.466581
_cell_length_b 20.392849
_cell_length_c 13.119941
_cell_angle_alpha 90.000000
_cell_angle_beta 90.000000
_cell_angle_gamma 90.000000
_cell_volume 5475.894649
_symmetry_space_group_name_H-M "C M M M"
_symmetry_group_IT_number 65
_symmetry_cell_setting 'orthorhombic'
loop_
_space_group_symop_operation_xyz
x,y,z
-x,-y,z
x,-y,-z
-x,y,-z
-x,-y,-z
x,y,-z
-x,y,z
x,-y,z
1/2+x,1/2+y,z
1/2-x,1/2-y,z
1/2+x,1/2-y,-z
1/2-x,1/2+y,-z
1/2-x,1/2-y,-z
1/2+x,1/2+y,-z
1/2-x,1/2+y,z
1/2+x,1/2-y,z
loop_
_atom_site_type_symbol
_atom_site_label
_atom_site_fract_x
_atom_site_fract_y
_atom_site_fract_z
Si Si1 0.925193 0.187495 0.262118
Si Si2 0.294892 0.312033 0.619731
Si Si3 0.112899 0.924546 0.882250
Si Si4 0.925656 0.294440 0.889659
Si Si5 0.128163 0.571449 0.882863
Si Si6 0.759197 0.073347 0.763647
O O1 0.872682 0.189342 0.353611
O O2 0.928009 0.120809 0.195395
O O3 0.895160 0.245893 0.192690
O O4 0.000000 0.200093 0.301864
O O5 0.289260 0.320880 0.500000
O O6 0.250000 0.250000 0.654583
O O7 0.265362 0.376403 0.671376
O O8 0.188533 0.915057 0.853440
O O9 0.090420 0.000000 0.867357
O O10 0.102018 0.903097 0.000000
O O11 0.922356 0.370727 0.856531
O O12 0.000000 0.273497 0.899572
O O13 0.890902 0.284613 0.000000
O O14 0.096497 0.500000 0.858589
O O15 0.189894 0.584451 0.813511
O O16 0.150348 0.573797 0.000000
O O17 0.766637 0.000000 0.718577
#
# Coordination Sequence:
#
# PCOD8270370 Si02
#       6
#    16  16  16  16  16  16
#     4  10  20  33  49  69  94 123 154 189 230 274
#     4  10  21  36  53  71  90 115 151 195 239 281
#     4   9  17  29  46  69  97 127 157 188 221 261
#     4   9  17  28  42  63  93 126 156 185 219 263
#     4   9  16  26  43  67  94 124 155 185 219 263
#     4   9  17  30  48  69  93 120 151 188 230 274
#
# _framework density 17.531381
#
# number of rings (size 3 to 8) (size 9 to 14) (size 15 to 20)
#    0.000    2.667    0.000    2.000    0.000    4.333 
#    0.000    2.500    0.000    8.000    0.000    4.667 
#    0.000    0.000    0.000   31.000    0.000    0.333 
#
# Total GULP energy -594707.747103 kJ/mol
# GULP energy per Si atom -12389.744731 kJ/mol
# Density = 1.749148 g / cm^3
# Si number density = 17.531381 Si / 1000 Ang^3
#
#
#
# Elastic Constant Matrix: (Units=GPa)
#
#
# Indices 1 2 3 4 5 6 
#
# 1 49.2173 20.6485 22.1455 0.0000 0.0000 0.0000
# 2 20.6485 97.6870 36.1438 0.0000 0.0000 0.0000
# 3 22.1455 36.1438 61.9228 0.0000 0.0000 0.0000
# 4 0.0000 0.0000 0.0000 25.1289 0.0000 0.0000
# 5 0.0000 0.0000 0.0000 0.0000 16.2977 0.0000
# 6 0.0000 0.0000 0.0000 0.0000 0.0000 25.0404
#
#
#
# Elastic Compliance Matrix: (Units=1/GPa)
#
#
# Indices 1 2 3 4 5 6 
#
# 1 0.024680 -0.002488 -0.007374 0.000000 0.000000 0.000000
# 2 -0.002488 0.013307 -0.006877 0.000000 0.000000 0.000000
# 3 -0.007374 -0.006877 0.022801 0.000000 0.000000 0.000000
# 4 0.000000 0.000000 0.000000 0.039795 0.000000 0.000000
# 5 0.000000 0.000000 0.000000 0.000000 0.061358 0.000000
# 6 0.000000 0.000000 0.000000 0.000000 0.000000 0.039936
#
#
# Mechanical properties :
#
#
# Convention : Reuss Voigt Hill
#
# Bulk Modulus (GPa) = 36.61872 40.74476 38.68174
# Shear Modulus (GPa) = 20.45332 21.95267 21.20299
#
# Velocity S-wave (km/s) = 3.41936 3.54247 3.48146
# Velocity P-wave (km/s) = 6.04336 6.32642 6.18651
#
# Compressibility (1/GPa) = 0.02730844
#
# Stress axis : x y z
#
# Youngs Moduli (GPa) = 40.51879 75.14614 43.85851
#
# Poissons Ratio (x) = 0.18699 0.32341
# Poissons Ratio (y) = 0.10083 0.30164
# Poissons Ratio (z) = 0.29878 0.51682
#
# Static dielectric constant tensor:
#      x y z
#    x 3.145680 0.000000 0.000000 
#    y 0.000000 3.566910 0.000000 
#    z 0.000000 0.000000 3.045160 
# 
# 
# High freq. dielectric constant tensor:
#      x y z
#    x 1.666570 0.000000 0.000000 
#    y 0.000000 1.694950 0.000000 
#    z 0.000000 0.000000 1.647890 
# 
# From -- ./inp_files/27088.got.cif
#   From: 2010.03.12/outbox.cif.g09.slc.cpg/sg65_14_cif.got.tgz:27088.got - 2010.04.10 20:52:16.
