data_PCOD8270585
_publ_section_title
;
Structure prediction by ZEFSAII (Michael W. Deem and Ramdas Pophale) SiO2 
 PCOD8270585
Probable space group: C M M M
;
_chemical_formula_sum "Si O2"
_cell_formula_units_Z 96
_cell_length_a 18.394013
_cell_length_b 20.367464
_cell_length_c 13.993528
_cell_angle_alpha 90.000000
_cell_angle_beta 90.000000
_cell_angle_gamma 90.000000
_cell_volume 5242.526900
_symmetry_space_group_name_H-M "C M M M"
_symmetry_group_IT_number 65
_symmetry_cell_setting 'orthorhombic'
loop_
_space_group_symop_operation_xyz
x,y,z
-x,-y,z
x,-y,-z
-x,y,-z
-x,-y,-z
x,y,-z
-x,y,z
x,-y,z
1/2+x,1/2+y,z
1/2-x,1/2-y,z
1/2+x,1/2-y,-z
1/2-x,1/2+y,-z
1/2-x,1/2-y,-z
1/2+x,1/2+y,-z
1/2-x,1/2+y,z
1/2+x,1/2-y,z
loop_
_atom_site_type_symbol
_atom_site_label
_atom_site_fract_x
_atom_site_fract_y
_atom_site_fract_z
Si Si1 0.414285 0.669905 0.390065
Si Si2 0.310499 0.574741 0.713863
Si Si3 0.581255 0.842539 0.104644
Si Si4 0.917342 0.695633 0.306221
Si Si5 0.335837 0.073980 0.389831
Si Si6 0.276569 0.076556 0.106102
O O1 0.394598 0.655534 0.500000
O O2 0.500000 0.666556 0.371767
O O3 0.378848 0.616628 0.320620
O O4 0.383680 0.742090 0.361752
O O5 0.337317 0.500000 0.727969
O O6 0.249327 0.579159 0.632568
O O7 0.278661 0.604533 0.813762
O O8 0.500000 0.874228 0.110431
O O9 0.589444 0.790773 0.191748
O O10 0.641687 0.898009 0.118487
O O11 0.591406 0.808125 0.000000
O O12 0.878057 0.627482 0.328475
O O13 0.000000 0.686918 0.339433
O O14 0.348523 0.090091 0.500000
O O15 0.363303 0.000000 0.364833
O O16 0.283158 0.000000 0.124707
O O17 0.246110 0.093115 0.000000
#
# Coordination Sequence:
#
# PCOD8270585 Si02
#       6
#    16  16  16  16  16  16
#     4  10  22  39  58  79 102 134 179 228 275 321
#     4  10  20  36  56  79 107 136 170 220 277 325
#     4   9  17  30  50  76 107 144 183 220 257 302
#     4  10  20  35  53  75 109 145 177 217 262 310
#     4  10  20  33  50  75 106 141 179 215 257 313
#     4   9  17  31  52  78 109 143 178 217 262 313
#
# _framework density 18.311779999999999
#
# number of rings (size 3 to 8) (size 9 to 14) (size 15 to 20)
#    0.000    2.333    1.667    1.000    0.000    3.667 
#    0.000    7.500    0.000    3.500    0.000    2.333 
#    0.000    0.000    0.000    0.000    0.000    0.000 
#
# Total GULP energy -594855.114041 kJ/mol
# GULP energy per Si atom -12392.814876 kJ/mol
# Density = 1.827010 g / cm^3
# Si number density = 18.311780 Si / 1000 Ang^3
#
#
#
# Elastic Constant Matrix: (Units=GPa)
#
#
# Indices 1 2 3 4 5 6 
#
# 1 60.3513 39.3240 46.8857 0.0000 0.0000 0.0000
# 2 39.3240 76.1568 42.4476 0.0000 0.0000 0.0000
# 3 46.8857 42.4476 132.6624 0.0000 0.0000 0.0000
# 4 0.0000 0.0000 0.0000 24.4513 0.0000 0.0000
# 5 0.0000 0.0000 0.0000 0.0000 30.3412 0.0000
# 6 0.0000 0.0000 0.0000 0.0000 0.0000 23.2577
#
#
#
# Elastic Compliance Matrix: (Units=1/GPa)
#
#
# Indices 1 2 3 4 5 6 
#
# 1 0.029131 -0.011323 -0.006673 0.000000 0.000000 0.000000
# 2 -0.011323 0.020382 -0.002520 0.000000 0.000000 0.000000
# 3 -0.006673 -0.002520 0.010702 0.000000 0.000000 0.000000
# 4 0.000000 0.000000 0.000000 0.040898 0.000000 0.000000
# 5 0.000000 0.000000 0.000000 0.000000 0.032958 0.000000
# 6 0.000000 0.000000 0.000000 0.000000 0.000000 0.042996
#
#
# Mechanical properties :
#
#
# Convention : Reuss Voigt Hill
#
# Bulk Modulus (GPa) = 52.12432 58.49835 55.31134
# Shear Modulus (GPa) = 22.27229 24.97760 23.62494
#
# Velocity S-wave (km/s) = 3.49131 3.69727 3.59576
# Velocity P-wave (km/s) = 6.69171 7.08812 6.89277
#
# Compressibility (1/GPa) = 0.01918490
#
# Stress axis : x y z
#
# Youngs Moduli (GPa) = 34.32719 49.06299 93.43664
#
# Poissons Ratio (x) = 0.55554 0.62347
# Poissons Ratio (y) = 0.38869 0.23544
# Poissons Ratio (z) = 0.22905 0.12363
#
# Static dielectric constant tensor:
#      x y z
#    x 3.176680 0.000000 0.000000 
#    y 0.000000 3.167900 0.000000 
#    z 0.000000 0.000000 3.782340 
# 
# 
# High freq. dielectric constant tensor:
#      x y z
#    x 1.691250 0.000000 0.000000 
#    y 0.000000 1.681330 0.000000 
#    z 0.000000 0.000000 1.734090 
# 
# From -- ./inp_files/40335.got.cif
#   From: 2010.03.12/outbox.cif.g09.slc.cpg/sg65_21_cif.got.tgz:40335.got - 2010.04.10 20:52:16.
