data_PCOD8270753
_publ_section_title
;
Structure prediction by ZEFSAII (Michael W. Deem and Ramdas Pophale) SiO2 
 PCOD8270753
Probable space group: C M M M
;
_chemical_formula_sum "Si O2"
_cell_formula_units_Z 88
_cell_length_a 25.103301
_cell_length_b 10.428300
_cell_length_c 17.798619
_cell_angle_alpha 90.000000
_cell_angle_beta 90.000000
_cell_angle_gamma 90.000000
_cell_volume 4659.407093
_symmetry_space_group_name_H-M "C M M M"
_symmetry_group_IT_number 65
_symmetry_cell_setting 'orthorhombic'
loop_
_space_group_symop_operation_xyz
x,y,z
-x,-y,z
x,-y,-z
-x,y,-z
-x,-y,-z
x,y,-z
-x,y,z
x,-y,z
1/2+x,1/2+y,z
1/2-x,1/2-y,z
1/2+x,1/2-y,-z
1/2-x,1/2+y,-z
1/2-x,1/2-y,-z
1/2+x,1/2+y,-z
1/2-x,1/2+y,z
1/2+x,1/2-y,z
loop_
_atom_site_type_symbol
_atom_site_label
_atom_site_fract_x
_atom_site_fract_y
_atom_site_fract_z
Si Si1 0.600330 0.351280 0.821076
Si Si2 0.100978 0.251737 0.658070
Si Si3 0.794065 0.353532 0.412788
Si Si4 0.000000 0.152106 0.083770
Si Si5 0.500000 0.143608 0.581772
Si Si6 0.938548 0.000000 0.411787
Si Si7 0.292958 0.645245 0.087013
O O1 0.591960 0.500000 0.798931
O O2 0.601255 0.265211 0.747176
O O3 0.552285 0.300468 0.872573
O O4 0.654483 0.329983 0.865666
O O5 0.153705 0.327456 0.635425
O O6 0.050632 0.332983 0.633094
O O7 0.096458 0.117452 0.616115
O O8 0.808214 0.334679 0.500000
O O9 0.774277 0.500000 0.397577
O O10 0.750000 0.250000 0.387264
O O11 0.000000 0.000000 0.077783
O O12 0.000000 0.211818 0.000000
O O13 0.500000 0.220897 0.500000
O O14 0.500000 0.000000 0.556268
O O15 0.940518 0.000000 0.500000
O O16 0.000000 0.000000 0.379801
O O17 0.271405 0.500000 0.100613
O O18 0.250000 0.750000 0.113805
O O19 0.307495 0.665377 0.000000
#
# Coordination Sequence:
#
# PCOD8270753 Si02
#       7
#    16  16  16   8   8   8  16
#     4  10  20  33  51  82 117 147 180 228 288 338
#     4  12  22  36  56  83 117 149 186 239 293 347
#     4  10  23  42  62  83 110 150 199 246 291 346
#     4   9  17  30  52  78 110 151 189 227 275 339
#     4  11  23  39  59  79 105 147 196 246 293 343
#     4  11  22  34  54  84 112 150 194 237 283 339
#     4   9  18  35  59  84 111 146 188 230 273 332
#
# _framework density 18.886523
#
# number of rings (size 3 to 8) (size 9 to 14) (size 15 to 20)
#    0.000    1.727    1.818    3.273    1.273    4.364 
#    0.000    3.636    0.000    0.000    0.000    0.000 
#    0.000    8.000    0.000    0.000    0.000    0.000 
#
# Total GULP energy -545558.261049 kJ/mol
# GULP energy per Si atom -12399.051387 kJ/mol
# Density = 1.884354 g / cm^3
# Si number density = 18.886523 Si / 1000 Ang^3
#
#
#
# Elastic Constant Matrix: (Units=GPa)
#
#
# Indices 1 2 3 4 5 6 
#
# 1 140.8656 57.8132 69.2873 0.0000 0.0000 0.0000
# 2 57.8132 98.8948 43.0626 0.0000 0.0000 0.0000
# 3 69.2873 43.0626 114.4562 0.0000 0.0000 0.0000
# 4 0.0000 0.0000 0.0000 28.0018 0.0000 0.0000
# 5 0.0000 0.0000 0.0000 0.0000 -128.9411 0.0000
# 6 0.0000 0.0000 0.0000 0.0000 0.0000 36.8748
#
#
#
# Elastic Compliance Matrix: (Units=1/GPa)
#
#
# Indices 1 2 3 4 5 6 
#
# 1 0.011529 -0.004426 -0.005314 0.000000 0.000000 0.000000
# 2 -0.004426 0.013792 -0.002510 0.000000 0.000000 0.000000
# 3 -0.005314 -0.002510 0.012898 0.000000 0.000000 0.000000
# 4 0.000000 0.000000 0.000000 0.035712 0.000000 0.000000
# 5 0.000000 0.000000 0.000000 0.000000 -0.007755 0.000000
# 6 0.000000 0.000000 0.000000 0.000000 0.000000 0.027119
#
#
# Mechanical properties :
#
#
# Convention : Reuss Voigt Hill
#
# Bulk Modulus (GPa) = 72.88765 77.17141 75.02953
# Shear Modulus (GPa) = 40.86040 -0.54265 20.15888
#
# Velocity S-wave (km/s) = 4.65636 -0.53661 3.27060
# Velocity P-wave (km/s) = 8.22101 6.36909 7.35358
#
# Compressibility (1/GPa) = 0.01371974
#
# Stress axis : x y z
#
# Youngs Moduli (GPa) = 86.73533 72.50591 77.52997
#
# Poissons Ratio (x) = 0.32091 0.41201
# Poissons Ratio (y) = 0.38389 0.19458
# Poissons Ratio (z) = 0.46093 0.18197
#
# Static dielectric constant tensor:
#      x y z
#    x 3.486290 0.000000 0.000000 
#    y 0.000000 3.478250 0.000000 
#    z 0.000000 0.000000 3.454150 
# 
# 
# High freq. dielectric constant tensor:
#      x y z
#    x 1.737190 0.000000 0.000000 
#    y 0.000000 1.719930 0.000000 
#    z 0.000000 0.000000 1.736640 
# 
# From -- ./inp_files/51502.got.cif
#   From: 2010.03.12/outbox.cif.g09.slc.cpg/sg65_26_cif.got.tgz:51502.got - 2010.04.10 20:52:16.
