data_PCOD8270578
_publ_section_title
;
Structure prediction by ZEFSAII (Michael W. Deem and Ramdas Pophale) SiO2 
 PCOD8270578
Probable space group: C M M M
;
_chemical_formula_sum "Si O2"
_cell_formula_units_Z 96
_cell_length_a 14.782264
_cell_length_b 21.840660
_cell_length_c 15.044644
_cell_angle_alpha 90.000000
_cell_angle_beta 90.000000
_cell_angle_gamma 90.000000
_cell_volume 4857.229543
_symmetry_space_group_name_H-M "C M M M"
_symmetry_group_IT_number 65
_symmetry_cell_setting 'orthorhombic'
loop_
_space_group_symop_operation_xyz
x,y,z
-x,-y,z
x,-y,-z
-x,y,-z
-x,-y,-z
x,y,-z
-x,y,z
x,-y,z
1/2+x,1/2+y,z
1/2-x,1/2-y,z
1/2+x,1/2-y,-z
1/2-x,1/2+y,-z
1/2-x,1/2-y,-z
1/2+x,1/2+y,-z
1/2-x,1/2+y,z
1/2+x,1/2-y,z
loop_
_atom_site_type_symbol
_atom_site_label
_atom_site_fract_x
_atom_site_fract_y
_atom_site_fract_z
Si Si1 0.374443 0.207167 0.097983
Si Si2 0.895207 0.867735 0.396268
Si Si3 0.785487 0.070419 0.751646
Si Si4 0.900848 0.368135 0.737939
Si Si5 0.671939 0.338239 0.901495
Si Si6 0.392817 0.230625 0.597711
O O1 0.424267 0.166196 0.170446
O O2 0.390780 0.279337 0.120791
O O3 0.270876 0.189279 0.098946
O O4 0.415002 0.193768 0.000000
O O5 0.883453 0.882737 0.500000
O O6 0.831969 0.914045 0.341988
O O7 0.860181 0.798688 0.375278
O O8 0.000000 0.876096 0.368351
O O9 0.676593 0.080835 0.748646
O O10 0.836737 0.108839 0.828270
O O11 0.801206 0.000000 0.774321
O O12 0.859270 0.319512 0.667817
O O13 0.000000 0.395116 0.707319
O O14 0.648588 0.364671 0.000000
O O15 0.354298 0.213302 0.500000
O O16 0.500000 0.232007 0.593779
#
# Coordination Sequence:
#
# PCOD8270578 Si02
#       6
#    16  16  16  16  16  16
#     4   8  14  27  50  77 100 125 163 213 269 319
#     4   9  19  37  60  84 106 125 155 212 279 330
#     4  11  23  35  50  74 103 143 190 219 243 295
#     4  10  20  33  50  74 107 143 176 214 256 299
#     4   8  15  30  51  74 101 131 165 212 266 310
#     4   8  15  30  53  79 102 124 155 200 261 325
#
# _framework density 19.764353
#
# number of rings (size 3 to 8) (size 9 to 14) (size 15 to 20)
#    0.000    3.000    0.000    3.000    0.000    4.333 
#    0.000    2.500    0.000    1.500    0.000    9.333 
#    0.000    0.000    0.000    0.000    0.000    0.000 
#
# Total GULP energy -594741.084303 kJ/mol
# GULP energy per Si atom -12390.439256 kJ/mol
# Density = 1.971937 g / cm^3
# Si number density = 19.764353 Si / 1000 Ang^3
#
#
#
# Elastic Constant Matrix: (Units=GPa)
#
#
# Indices 1 2 3 4 5 6 
#
# 1 38.1005 -0.5699 14.4182 0.0000 0.0000 0.0000
# 2 -0.5699 86.8872 44.2501 0.0000 0.0000 0.0000
# 3 14.4182 44.2501 98.1549 0.0000 0.0000 0.0000
# 4 0.0000 0.0000 0.0000 14.0752 0.0000 0.0000
# 5 0.0000 0.0000 0.0000 0.0000 21.4060 0.0000
# 6 0.0000 0.0000 0.0000 0.0000 0.0000 13.8824
#
#
#
# Elastic Compliance Matrix: (Units=1/GPa)
#
#
# Indices 1 2 3 4 5 6 
#
# 1 0.028380 0.002997 -0.005520 0.000000 0.000000 0.000000
# 2 0.002997 0.015256 -0.007318 0.000000 0.000000 0.000000
# 3 -0.005520 -0.007318 0.014298 0.000000 0.000000 0.000000
# 4 0.000000 0.000000 0.000000 0.071047 0.000000 0.000000
# 5 0.000000 0.000000 0.000000 0.000000 0.046716 0.000000
# 6 0.000000 0.000000 0.000000 0.000000 0.000000 0.072034
#
#
# Mechanical properties :
#
#
# Convention : Reuss Voigt Hill
#
# Bulk Modulus (GPa) = 26.14200 37.70438 31.92319
# Shear Modulus (GPa) = 17.84681 20.87567 19.36124
#
# Velocity S-wave (km/s) = 3.00822 3.25349 3.13326
# Velocity P-wave (km/s) = 5.03204 5.76472 5.41080
#
# Compressibility (1/GPa) = 0.03825263
#
# Stress axis : x y z
#
# Youngs Moduli (GPa) = 35.23592 65.54932 69.94052
#
# Poissons Ratio (x) = -0.19648 0.38608
# Poissons Ratio (y) = -0.10562 0.51181
# Poissons Ratio (z) = 0.19451 0.47968
#
# Static dielectric constant tensor:
#      x y z
#    x 3.446170 0.000000 0.000000 
#    y 0.000000 3.314670 0.000000 
#    z 0.000000 0.000000 4.047660 
# 
# 
# High freq. dielectric constant tensor:
#      x y z
#    x 1.764190 0.000000 0.000000 
#    y 0.000000 1.726950 0.000000 
#    z 0.000000 0.000000 1.778870 
# 
# From -- ./inp_files/40393.got.cif
#   From: 2010.03.12/outbox.cif.g09.slc.cpg/sg65_21_cif.got.tgz:40393.got - 2010.04.10 20:52:16.
