data_PCOD8270425
_publ_section_title
;
Structure prediction by ZEFSAII (Michael W. Deem and Ramdas Pophale) SiO2 
 PCOD8270425
Probable space group: C M M M
;
_chemical_formula_sum "Si O2"
_cell_formula_units_Z 104
_cell_length_a 28.122226
_cell_length_b 23.990553
_cell_length_c 9.023601
_cell_angle_alpha 90.000000
_cell_angle_beta 90.000000
_cell_angle_gamma 90.000000
_cell_volume 6087.932614
_symmetry_space_group_name_H-M "C M M M"
_symmetry_group_IT_number 65
_symmetry_cell_setting 'orthorhombic'
loop_
_space_group_symop_operation_xyz
x,y,z
-x,-y,z
x,-y,-z
-x,y,-z
-x,-y,-z
x,y,-z
-x,y,z
x,-y,z
1/2+x,1/2+y,z
1/2-x,1/2-y,z
1/2+x,1/2-y,-z
1/2-x,1/2+y,-z
1/2-x,1/2-y,-z
1/2+x,1/2+y,-z
1/2-x,1/2+y,z
1/2+x,1/2-y,z
loop_
_atom_site_type_symbol
_atom_site_label
_atom_site_fract_x
_atom_site_fract_y
_atom_site_fract_z
Si Si1 0.726521 0.066160 0.166787
Si Si2 0.446479 0.150320 0.674833
Si Si3 0.500000 0.434044 0.668406
Si Si4 0.321327 0.565564 0.327407
Si Si5 0.631968 0.935971 0.326125
Si Si6 0.089408 0.880727 0.825432
Si Si7 0.054356 0.761256 0.829066
O O1 0.771113 0.086862 0.263260
O O2 0.678126 0.087754 0.241960
O O3 0.725844 0.000000 0.165366
O O4 0.730343 0.089989 0.000000
O O5 0.446351 0.154848 0.500000
O O6 0.500000 0.139153 0.734498
O O7 0.413228 0.099701 0.727913
O O8 0.426441 0.208534 0.737467
O O9 0.500000 0.500000 0.670331
O O10 0.500000 0.411534 0.500000
O O11 0.546675 0.413529 0.750758
O O12 0.323814 0.580487 0.500000
O O13 0.328449 0.500000 0.300590
O O14 0.361366 0.598368 0.239676
O O15 0.641559 0.929377 0.500000
O O16 0.621340 0.000000 0.284444
O O17 0.085769 0.815061 0.789982
O O18 0.087211 0.892283 0.000000
O O19 0.000000 0.775386 0.785925
O O20 0.058550 0.745310 0.000000
#
# Coordination Sequence:
#
# PCOD8270425 Si02
#       7
#    16  16   8  16  16  16  16
#     4   9  17  30  49  72  97 128 167 204 239 289
#     4   9  18  31  49  75 102 131 168 203 238 287
#     4  11  23  35  47  69 101 133 164 203 254 303
#     4  10  20  33  49  72 101 130 162 202 251 301
#     4   9  17  30  49  74 105 136 162 195 242 291
#     4  11  21  34  51  71  96 129 169 209 250 297
#     4   9  18  34  51  68  93 127 168 208 247 289
#
# _framework density 17.082975000000001
#
# number of rings (size 3 to 8) (size 9 to 14) (size 15 to 20)
#    0.000    2.385    0.769    2.077    0.000    7.385 
#    0.000    1.538    0.000    0.923    0.000   10.769 
#    0.000    0.000    0.000    0.000    0.000    0.000 
#
# Total GULP energy -644844.964775 kJ/mol
# GULP energy per Si atom -12400.864707 kJ/mol
# Density = 1.704409 g / cm^3
# Si number density = 17.082975 Si / 1000 Ang^3
#
#
#
# Elastic Constant Matrix: (Units=GPa)
#
#
# Indices 1 2 3 4 5 6 
#
# 1 128.6038 64.8970 59.3774 0.0000 0.0000 0.0000
# 2 64.8970 82.5969 47.8048 0.0000 0.0000 0.0000
# 3 59.3774 47.8048 84.9805 0.0000 0.0000 0.0000
# 4 0.0000 0.0000 0.0000 24.9966 0.0000 0.0000
# 5 0.0000 0.0000 0.0000 0.0000 33.4419 0.0000
# 6 0.0000 0.0000 0.0000 0.0000 0.0000 17.5441
#
#
#
# Elastic Compliance Matrix: (Units=1/GPa)
#
#
# Indices 1 2 3 4 5 6 
#
# 1 0.014428 -0.008158 -0.005492 0.000000 0.000000 0.000000
# 2 -0.008158 0.022564 -0.006993 0.000000 0.000000 0.000000
# 3 -0.005492 -0.006993 0.019539 0.000000 0.000000 0.000000
# 4 0.000000 0.000000 0.000000 0.040005 0.000000 0.000000
# 5 0.000000 0.000000 0.000000 0.000000 0.029903 0.000000
# 6 0.000000 0.000000 0.000000 0.000000 0.000000 0.056999
#
#
# Mechanical properties :
#
#
# Convention : Reuss Voigt Hill
#
# Bulk Modulus (GPa) = 65.59583 71.14882 68.37232
# Shear Modulus (GPa) = 21.75749 23.47001 22.61375
#
# Velocity S-wave (km/s) = 3.57268 3.71061 3.64230
# Velocity P-wave (km/s) = 7.44986 7.75226 7.60257
#
# Compressibility (1/GPa) = 0.01524487
#
# Stress axis : x y z
#
# Youngs Moduli (GPa) = 69.30888 44.31848 51.17987
#
# Poissons Ratio (x) = 0.36153 0.28109
# Poissons Ratio (y) = 0.56539 0.35791
# Poissons Ratio (z) = 0.38066 0.30993
#
# Static dielectric constant tensor:
#      x y z
#    x 3.301560 0.000000 0.000000 
#    y 0.000000 3.086000 0.000000 
#    z 0.000000 0.000000 3.317580 
# 
# 
# High freq. dielectric constant tensor:
#      x y z
#    x 1.658050 0.000000 0.000000 
#    y 0.000000 1.635570 0.000000 
#    z 0.000000 0.000000 1.668160 
# 
# From -- ./inp_files/14703.got.cif
#   From: 2010.03.12/outbox.cif.g09.slc.cpg/sg65_8_cif.got.tgz:14703.got - 2010.04.10 20:52:16.
