data_PCOD8270174
_publ_section_title
;
Structure prediction by ZEFSAII (Michael W. Deem and Ramdas Pophale) SiO2 
 PCOD8270174
Probable space group: C M M M
;
_chemical_formula_sum "Si O2"
_cell_formula_units_Z 88
_cell_length_a 8.145558
_cell_length_b 18.822830
_cell_length_c 30.169594
_cell_angle_alpha 90.000000
_cell_angle_beta 90.000000
_cell_angle_gamma 90.000000
_cell_volume 4625.676173
_symmetry_space_group_name_H-M "C M M M"
_symmetry_group_IT_number 65
_symmetry_cell_setting 'orthorhombic'
loop_
_space_group_symop_operation_xyz
x,y,z
-x,-y,z
x,-y,-z
-x,y,-z
-x,-y,-z
x,y,-z
-x,y,z
x,-y,z
1/2+x,1/2+y,z
1/2-x,1/2-y,z
1/2+x,1/2-y,-z
1/2-x,1/2+y,-z
1/2-x,1/2-y,-z
1/2+x,1/2+y,-z
1/2-x,1/2+y,z
1/2+x,1/2-y,z
loop_
_atom_site_type_symbol
_atom_site_label
_atom_site_fract_x
_atom_site_fract_y
_atom_site_fract_z
Si Si1 0.695536 0.079636 0.450881
Si Si2 0.000000 0.915406 0.050161
Si Si3 0.312352 0.582263 0.707017
Si Si4 0.184772 0.584950 0.895604
Si Si5 0.187356 0.671564 0.628110
Si Si6 0.309850 0.920148 0.798114
O O1 0.751695 0.104828 0.500000
O O2 0.500000 0.078562 0.448063
O O3 0.773469 0.132202 0.413866
O O4 0.761649 0.000000 0.441616
O O5 0.168286 0.886578 0.072962
O O6 0.000000 0.000000 0.051850
O O7 0.000000 0.887137 0.000000
O O8 0.500000 0.590748 0.693206
O O9 0.255178 0.500000 0.705953
O O10 0.205690 0.626100 0.672533
O O11 0.285767 0.614989 0.756615
O O12 0.184813 0.500000 0.894160
O O13 0.221123 0.616215 0.846153
O O14 0.000000 0.609434 0.911240
O O15 0.250000 0.750000 0.636264
O O16 0.000000 0.678084 0.615764
O O17 0.500000 0.918185 0.786026
O O18 0.243528 0.000000 0.802512
#
# Coordination Sequence:
#
# PCOD8270174 Si02
#       6
#    16   8  16  16  16  16
#     4   8  15  30  53  78  99 123 161 205 247 291
#     4   9  16  22  30  46  70 106 150 192 237 291
#     4  10  20  32  49  73  97 122 157 204 250 296
#     4   8  14  23  34  49  72 103 142 192 241 287
#     4  11  22  35  51  71 100 135 166 200 242 296
#     4   8  14  25  41  61  83 109 145 192 243 288
#
# _framework density 19.024245000000001
#
# number of rings (size 3 to 8) (size 9 to 14) (size 15 to 20)
#    0.000    3.000    0.000    3.273    1.273    2.545 
#    0.000    1.818    0.000    1.636    0.000    6.364 
#    0.000    0.000    0.000    0.000    0.000    0.909 
#
# Total GULP energy -545129.329879 kJ/mol
# GULP energy per Si atom -12389.302952 kJ/mol
# Density = 1.898095 g / cm^3
# Si number density = 19.024245 Si / 1000 Ang^3
#
#
#
# Elastic Constant Matrix: (Units=GPa)
#
#
# Indices 1 2 3 4 5 6 
#
# 1 71.7021 18.5611 50.4706 0.0000 0.0000 0.0000
# 2 18.5611 49.1646 39.6185 0.0000 0.0000 0.0000
# 3 50.4706 39.6185 151.4138 0.0000 0.0000 0.0000
# 4 0.0000 0.0000 0.0000 -1.1082 0.0000 0.0000
# 5 0.0000 0.0000 0.0000 0.0000 18.9983 0.0000
# 6 0.0000 0.0000 0.0000 0.0000 0.0000 7.8980
#
#
#
# Elastic Compliance Matrix: (Units=1/GPa)
#
#
# Indices 1 2 3 4 5 6 
#
# 1 0.018471 -0.002549 -0.005490 0.000000 0.000000 0.000000
# 2 -0.002549 0.026126 -0.005986 0.000000 0.000000 0.000000
# 3 -0.005490 -0.005986 0.010001 0.000000 0.000000 0.000000
# 4 0.000000 0.000000 0.000000 -0.902377 0.000000 0.000000
# 5 0.000000 0.000000 0.000000 0.000000 0.052636 0.000000
# 6 0.000000 0.000000 0.000000 0.000000 0.000000 0.126615
#
#
# Mechanical properties :
#
#
# Convention : Reuss Voigt Hill
#
# Bulk Modulus (GPa) = 37.66946 54.39788 46.03367
# Shear Modulus (GPa) = -7.91605 16.06630 4.07512
#
# Velocity S-wave (km/s) = -2.04207 2.90921 1.46517
# Velocity P-wave (km/s) = 3.77937 6.31987 5.20694
#
# Compressibility (1/GPa) = 0.02654670
#
# Stress axis : x y z
#
# Youngs Moduli (GPa) = 54.13969 38.27554 99.99322
#
# Poissons Ratio (x) = 0.09758 0.54894
# Poissons Ratio (y) = 0.13803 0.59859
# Poissons Ratio (z) = 0.29721 0.22913
#
# Static dielectric constant tensor:
#      x y z
#    x 3.392970 0.000000 0.000000 
#    y 0.000000 3.210720 0.000000 
#    z 0.000000 0.000000 3.798670 
# 
# 
# High freq. dielectric constant tensor:
#      x y z
#    x 1.730520 0.000000 0.000000 
#    y 0.000000 1.666670 0.000000 
#    z 0.000000 0.000000 1.753830 
# 
# From -- ./inp_files/73091.got.cif
#   From: 2010.03.12/outbox.cif.g09.slc.cpg/sg65_37_cif.got.tgz:73091.got - 2010.04.10 20:52:16.
