data_PCOD8270198
_publ_section_title
;
Structure prediction by ZEFSAII (Michael W. Deem and Ramdas Pophale) SiO2 
 PCOD8270198
Probable space group: C M M M
;
_chemical_formula_sum "Si O2"
_cell_formula_units_Z 72
_cell_length_a 18.389503
_cell_length_b 24.766237
_cell_length_c 7.939985
_cell_angle_alpha 90.000000
_cell_angle_beta 90.000000
_cell_angle_gamma 90.000000
_cell_volume 3616.177158
_symmetry_space_group_name_H-M "C M M M"
_symmetry_group_IT_number 65
_symmetry_cell_setting 'orthorhombic'
loop_
_space_group_symop_operation_xyz
x,y,z
-x,-y,z
x,-y,-z
-x,y,-z
-x,-y,-z
x,y,-z
-x,y,z
x,-y,z
1/2+x,1/2+y,z
1/2-x,1/2-y,z
1/2+x,1/2-y,-z
1/2-x,1/2+y,-z
1/2-x,1/2-y,-z
1/2+x,1/2+y,-z
1/2-x,1/2+y,z
1/2+x,1/2-y,z
loop_
_atom_site_type_symbol
_atom_site_label
_atom_site_fract_x
_atom_site_fract_y
_atom_site_fract_z
Si Si1 0.916490 0.670030 0.809879
Si Si2 0.171408 0.765451 0.309213
Si Si3 0.413929 0.057974 0.307649
Si Si4 0.915739 0.865506 0.190162
Si Si5 0.414003 0.439453 0.500000
O O1 0.875912 0.711175 0.688737
O O2 0.883059 0.609400 0.794241
O O3 0.000000 0.669010 0.752524
O O4 0.907279 0.690329 0.000000
O O5 0.179596 0.786425 0.500000
O O6 0.250000 0.750000 0.231725
O O7 0.132703 0.811740 0.200982
O O8 0.390230 0.065433 0.500000
O O9 0.500000 0.056259 0.289710
O O10 0.383164 0.000000 0.239678
O O11 0.888563 0.908742 0.329428
O O12 0.000000 0.849940 0.224613
O O13 0.906985 0.889143 0.000000
O O14 0.380335 0.500000 0.500000
O O15 0.500000 0.443657 0.500000
#
# Coordination Sequence:
#
# PCOD8270198 Si02
#       5
#    16  16  16  16   8
#     4  10  20  32  49  76 106 137 174 217 268 323
#     4  11  23  37  54  77 106 144 187 229 278 330
#     4   8  14  26  45  69  97 130 168 209 253 300
#     4  10  20  35  58  87 117 150 187 228 280 339
#     4   9  18  34  57  86 118 148 181 228 282 335
#
# _framework density 19.910529
#
# number of rings (size 3 to 8) (size 9 to 14) (size 15 to 20)
#    0.000    2.333    1.111    2.667    0.000    6.667 
#    0.000    4.444    0.000    1.333    0.000    3.111 
#    0.000    0.000    0.000    0.000    0.000    0.000 
#
# Total GULP energy -446193.144569 kJ/mol
# GULP energy per Si atom -12394.254016 kJ/mol
# Density = 1.986521 g / cm^3
# Si number density = 19.910529 Si / 1000 Ang^3
#
#
#
# Elastic Constant Matrix: (Units=GPa)
#
#
# Indices 1 2 3 4 5 6 
#
# 1 55.0857 41.3060 26.3002 0.0000 0.0000 0.0000
# 2 41.3060 147.5546 48.0333 0.0000 0.0000 0.0000
# 3 26.3002 48.0333 94.2768 0.0000 0.0000 0.0000
# 4 0.0000 0.0000 0.0000 26.3687 0.0000 0.0000
# 5 0.0000 0.0000 0.0000 0.0000 15.5771 0.0000
# 6 0.0000 0.0000 0.0000 0.0000 0.0000 2.1448
#
#
#
# Elastic Compliance Matrix: (Units=1/GPa)
#
#
# Indices 1 2 3 4 5 6 
#
# 1 0.024142 -0.005474 -0.003946 0.000000 0.000000 0.000000
# 2 -0.005474 0.009366 -0.003245 0.000000 0.000000 0.000000
# 3 -0.003946 -0.003245 0.013361 0.000000 0.000000 0.000000
# 4 0.000000 0.000000 0.000000 0.037924 0.000000 0.000000
# 5 0.000000 0.000000 0.000000 0.000000 0.064197 0.000000
# 6 0.000000 0.000000 0.000000 0.000000 0.000000 0.466245
#
#
# Mechanical properties :
#
#
# Convention : Reuss Voigt Hill
#
# Bulk Modulus (GPa) = 46.42578 58.68846 52.55712
# Shear Modulus (GPa) = 7.71912 20.90331 14.31121
#
# Velocity S-wave (km/s) = 1.97112 3.24367 2.68391
# Velocity P-wave (km/s) = 5.34306 6.60065 6.00487
#
# Compressibility (1/GPa) = 0.02153976
#
# Stress axis : x y z
#
# Youngs Moduli (GPa) = 41.42166 106.77257 74.84437
#
# Poissons Ratio (x) = 0.58444 0.29534
# Poissons Ratio (y) = 0.22673 0.24285
# Poissons Ratio (z) = 0.16345 0.34645
#
# Static dielectric constant tensor:
#      x y z
#    x 3.201440 0.000000 0.000000 
#    y 0.000000 3.471160 0.000000 
#    z 0.000000 0.000000 3.562530 
# 
# 
# High freq. dielectric constant tensor:
#      x y z
#    x 1.721750 0.000000 0.000000 
#    y 0.000000 1.783820 0.000000 
#    z 0.000000 0.000000 1.777280 
# 
# From -- ./inp_files/11237.got.cif
#   From: 2010.03.12/outbox.cif.g09.slc.cpg/sg65_6_cif.got.tgz:11237.got - 2010.04.10 20:52:16.
