data_PCOD8270573
_publ_section_title
;
Structure prediction by ZEFSAII (Michael W. Deem and Ramdas Pophale) SiO2 
 PCOD8270573
Probable space group: C M M M
;
_chemical_formula_sum "Si O2"
_cell_formula_units_Z 88
_cell_length_a 26.931875
_cell_length_b 8.884212
_cell_length_c 21.072840
_cell_angle_alpha 90.000000
_cell_angle_beta 90.000000
_cell_angle_gamma 90.000000
_cell_volume 5042.066545
_symmetry_space_group_name_H-M "C M M M"
_symmetry_group_IT_number 65
_symmetry_cell_setting 'orthorhombic'
loop_
_space_group_symop_operation_xyz
x,y,z
-x,-y,z
x,-y,-z
-x,y,-z
-x,-y,-z
x,y,-z
-x,y,z
x,-y,z
1/2+x,1/2+y,z
1/2-x,1/2-y,z
1/2+x,1/2-y,-z
1/2-x,1/2+y,-z
1/2-x,1/2-y,-z
1/2+x,1/2+y,-z
1/2-x,1/2+y,z
1/2+x,1/2-y,z
loop_
_atom_site_type_symbol
_atom_site_label
_atom_site_fract_x
_atom_site_fract_y
_atom_site_fract_z
Si Si1 0.640679 0.321517 0.318033
Si Si2 0.443156 0.172190 0.245365
Si Si3 0.697902 0.825281 0.426888
Si Si4 0.057313 0.678557 0.000000
Si Si5 0.801431 0.825272 0.194449
Si Si6 0.900698 0.822505 0.125123
O O1 0.635661 0.500000 0.321889
O O2 0.587480 0.252068 0.301094
O O3 0.655933 0.254842 0.385613
O O4 0.680163 0.271903 0.263961
O O5 0.500000 0.180517 0.266327
O O6 0.436596 0.259388 0.179357
O O7 0.425574 0.000000 0.236666
O O8 0.683487 0.800328 0.500000
O O9 0.750000 0.750000 0.410325
O O10 0.701529 0.000000 0.409304
O O11 0.086055 0.741994 0.060213
O O12 0.060578 0.500000 0.000000
O O13 0.000000 0.732216 0.000000
O O14 0.750000 0.750000 0.174729
O O15 0.843493 0.785342 0.142612
O O16 0.790989 0.000000 0.196079
O O17 0.909467 0.000000 0.119151
#
# Coordination Sequence:
#
# PCOD8270573 Si02
#       6
#    16  16  16   8  16  16
#     4  10  20  33  51  76 104 135 172 212 254 302
#     4  10  20  34  53  77 104 133 167 209 256 304
#     4  10  20  33  50  74 105 139 173 210 254 303
#     4  11  23  37  54  77 102 129 166 209 254 305
#     4   9  19  33  50  74 101 130 165 204 245 292
#     4  10  21  36  53  76 104 133 168 207 250 302
#
# _framework density 17.453161000000001
#
# number of rings (size 3 to 8) (size 9 to 14) (size 15 to 20)
#    0.000    2.091    0.000    4.636    0.000   11.273 
#    0.000    0.455    0.000    0.545    0.000    3.818 
#    0.000    0.000    0.000    0.000    0.000    0.000 
#
# Total GULP energy -545718.589405 kJ/mol
# GULP energy per Si atom -12402.695214 kJ/mol
# Density = 1.741344 g / cm^3
# Si number density = 17.453161 Si / 1000 Ang^3
#
#
#
# Elastic Constant Matrix: (Units=GPa)
#
#
# Indices 1 2 3 4 5 6 
#
# 1 109.4532 59.6358 59.4047 0.0000 0.0000 0.0000
# 2 59.6358 98.2082 49.6797 0.0000 0.0000 0.0000
# 3 59.4047 49.6797 106.2965 0.0000 0.0000 0.0000
# 4 0.0000 0.0000 0.0000 33.6985 0.0000 0.0000
# 5 0.0000 0.0000 0.0000 0.0000 23.7379 0.0000
# 6 0.0000 0.0000 0.0000 0.0000 0.0000 33.0664
#
#
#
# Elastic Compliance Matrix: (Units=1/GPa)
#
#
# Indices 1 2 3 4 5 6 
#
# 1 0.015947 -0.006778 -0.005744 0.000000 0.000000 0.000000
# 2 -0.006778 0.016216 -0.003791 0.000000 0.000000 0.000000
# 3 -0.005744 -0.003791 0.014390 0.000000 0.000000 0.000000
# 4 0.000000 0.000000 0.000000 0.029675 0.000000 0.000000
# 5 0.000000 0.000000 0.000000 0.000000 0.042127 0.000000
# 6 0.000000 0.000000 0.000000 0.000000 0.000000 0.030242
#
#
# Mechanical properties :
#
#
# Convention : Reuss Voigt Hill
#
# Bulk Modulus (GPa) = 71.80652 72.37760 72.09206
# Shear Modulus (GPa) = 26.90130 27.78305 27.34217
#
# Velocity S-wave (km/s) = 3.93025 3.99414 3.96233
# Velocity P-wave (km/s) = 7.86305 7.92657 7.89488
#
# Compressibility (1/GPa) = 0.01392631
#
# Stress axis : x y z
#
# Youngs Moduli (GPa) = 62.70821 61.66796 69.49403
#
# Poissons Ratio (x) = 0.41797 0.39920
# Poissons Ratio (y) = 0.42502 0.26345
# Poissons Ratio (z) = 0.36022 0.23378
#
# Static dielectric constant tensor:
#      x y z
#    x 3.209840 0.000000 0.000000 
#    y 0.000000 3.399440 0.000000 
#    z 0.000000 0.000000 3.149650 
# 
# 
# High freq. dielectric constant tensor:
#      x y z
#    x 1.669680 0.000000 0.000000 
#    y 0.000000 1.692550 0.000000 
#    z 0.000000 0.000000 1.664370 
# 
# From -- ./inp_files/60711.got.cif
#   From: 2010.03.12/outbox.cif.g09.slc.cpg/sg65_31_cif.got.tgz:60711.got - 2010.04.10 20:52:16.
