data_PCOD8270030
_publ_section_title
;
Structure prediction by ZEFSAII (Michael W. Deem and Ramdas Pophale) SiO2 
 PCOD8270030
Probable space group: C M M M
;
_chemical_formula_sum "Si O2"
_cell_formula_units_Z 80
_cell_length_a 26.771272
_cell_length_b 9.013523
_cell_length_c 18.582654
_cell_angle_alpha 90.000000
_cell_angle_beta 90.000000
_cell_angle_gamma 90.000000
_cell_volume 4484.059002
_symmetry_space_group_name_H-M "C M M M"
_symmetry_group_IT_number 65
_symmetry_cell_setting 'orthorhombic'
loop_
_space_group_symop_operation_xyz
x,y,z
-x,-y,z
x,-y,-z
-x,y,-z
-x,-y,-z
x,y,-z
-x,y,z
x,-y,z
1/2+x,1/2+y,z
1/2-x,1/2-y,z
1/2+x,1/2-y,-z
1/2-x,1/2+y,-z
1/2-x,1/2-y,-z
1/2+x,1/2+y,-z
1/2-x,1/2+y,z
1/2+x,1/2-y,z
loop_
_atom_site_type_symbol
_atom_site_label
_atom_site_fract_x
_atom_site_fract_y
_atom_site_fract_z
Si Si1 0.944558 0.330445 0.272154
Si Si2 0.442544 0.824232 0.000000
Si Si3 0.196789 0.674466 0.500000
Si Si4 0.200363 0.172999 0.783641
Si Si5 0.401484 0.327197 0.139760
Si Si6 0.653864 0.172565 0.349465
O O1 0.937907 0.500000 0.245727
O O2 0.937438 0.224693 0.203864
O O3 0.904565 0.293297 0.334379
O O4 0.000000 0.303906 0.303931
O O5 0.413946 0.763344 0.068930
O O6 0.500000 0.770197 0.000000
O O7 0.439340 0.000000 0.000000
O O8 0.205364 0.500000 0.500000
O O9 0.250000 0.750000 0.500000
O O10 0.165512 0.725418 0.430231
O O11 0.250000 0.250000 0.814873
O O12 0.155769 0.206641 0.839148
O O13 0.188461 0.236897 0.704950
O O14 0.210090 0.000000 0.775053
O O15 0.410698 0.500000 0.125632
O O16 0.666257 0.000000 0.338603
#
# Coordination Sequence:
#
# PCOD8270030 Si02
#       6
#    16   8   8  16  16  16
#     4   9  17  31  51  73  98 130 166 203 245 293
#     4  11  23  37  54  77 104 133 164 199 242 291
#     4  10  20  32  47  69  97 129 164 204 251 298
#     4  10  20  34  53  76 100 129 166 205 246 292
#     4  10  21  35  52  76 103 130 164 204 244 290
#     4   9  18  32  49  71 100 131 165 205 247 293
#
# _framework density 17.840978
#
# number of rings (size 3 to 8) (size 9 to 14) (size 15 to 20)
#    0.000    2.300    0.000    2.700    0.000    8.400 
#    0.000    1.000    0.000    3.000    0.000    0.000 
#    0.000    7.200    0.000    0.000    0.000    0.000 
#
# Total GULP energy -496070.443527 kJ/mol
# GULP energy per Si atom -12401.761088 kJ/mol
# Density = 1.780037 g / cm^3
# Si number density = 17.840978 Si / 1000 Ang^3
#
#
#
# Elastic Constant Matrix: (Units=GPa)
#
#
# Indices 1 2 3 4 5 6 
#
# 1 137.2466 51.1497 66.0903 0.0000 0.0000 0.0000
# 2 51.1497 71.5444 49.1717 0.0000 0.0000 0.0000
# 3 66.0903 49.1717 132.4463 0.0000 0.0000 0.0000
# 4 0.0000 0.0000 0.0000 20.9421 0.0000 0.0000
# 5 0.0000 0.0000 0.0000 0.0000 17.1799 0.0000
# 6 0.0000 0.0000 0.0000 0.0000 0.0000 29.0290
#
#
#
# Elastic Compliance Matrix: (Units=1/GPa)
#
#
# Indices 1 2 3 4 5 6 
#
# 1 0.010992 -0.005489 -0.003447 0.000000 0.000000 0.000000
# 2 -0.005489 0.021507 -0.005245 0.000000 0.000000 0.000000
# 3 -0.003447 -0.005245 0.011218 0.000000 0.000000 0.000000
# 4 0.000000 0.000000 0.000000 0.047751 0.000000 0.000000
# 5 0.000000 0.000000 0.000000 0.000000 0.058208 0.000000
# 6 0.000000 0.000000 0.000000 0.000000 0.000000 0.034448
#
#
# Mechanical properties :
#
#
# Convention : Reuss Voigt Hill
#
# Bulk Modulus (GPa) = 65.13399 74.89562 70.01480
# Shear Modulus (GPa) = 22.97749 25.08524 24.03136
#
# Velocity S-wave (km/s) = 3.59263 3.75380 3.67410
# Velocity P-wave (km/s) = 7.33462 7.80120 7.57150
#
# Compressibility (1/GPa) = 0.01535297
#
# Stress axis : x y z
#
# Youngs Moduli (GPa) = 90.97676 46.49635 89.14547
#
# Poissons Ratio (x) = 0.25524 0.30727
# Poissons Ratio (y) = 0.49941 0.46761
# Poissons Ratio (z) = 0.31359 0.24389
#
# Static dielectric constant tensor:
#      x y z
#    x 3.570490 0.000000 0.000000 
#    y 0.000000 3.366480 0.000000 
#    z 0.000000 0.000000 3.316070 
# 
# 
# High freq. dielectric constant tensor:
#      x y z
#    x 1.700390 0.000000 0.000000 
#    y 0.000000 1.695540 0.000000 
#    z 0.000000 0.000000 1.674290 
# 
# From -- ./inp_files/49900.got.cif
#   From: 2010.03.12/outbox.cif.g09.slc.cpg/sg65_25_cif.got.tgz:49900.got - 2010.04.10 20:52:16.
