data_PCOD8270655
_publ_section_title
;
Structure prediction by ZEFSAII (Michael W. Deem and Ramdas Pophale) SiO2 
 PCOD8270655
Probable space group: C M M M
;
_chemical_formula_sum "Si O2"
_cell_formula_units_Z 104
_cell_length_a 27.110080
_cell_length_b 21.737545
_cell_length_c 9.714561
_cell_angle_alpha 90.000000
_cell_angle_beta 90.000000
_cell_angle_gamma 90.000000
_cell_volume 5724.854758
_symmetry_space_group_name_H-M "C M M M"
_symmetry_group_IT_number 65
_symmetry_cell_setting 'orthorhombic'
loop_
_space_group_symop_operation_xyz
x,y,z
-x,-y,z
x,-y,-z
-x,y,-z
-x,-y,-z
x,y,-z
-x,y,z
x,-y,z
1/2+x,1/2+y,z
1/2-x,1/2-y,z
1/2+x,1/2-y,-z
1/2-x,1/2+y,-z
1/2-x,1/2-y,-z
1/2+x,1/2+y,-z
1/2-x,1/2+y,z
1/2+x,1/2-y,z
loop_
_atom_site_type_symbol
_atom_site_label
_atom_site_fract_x
_atom_site_fract_y
_atom_site_fract_z
Si Si1 0.376240 0.719831 0.344891
Si Si2 0.056113 0.895982 0.348602
Si Si3 0.283856 0.690942 0.840846
Si Si4 0.372774 0.069922 0.342865
Si Si5 0.778878 0.570739 0.159995
Si Si6 0.559003 0.500000 0.846188
Si Si7 0.944955 0.326459 0.662029
O O1 0.356970 0.734266 0.500000
O O2 0.415604 0.666672 0.347972
O O3 0.331676 0.699427 0.250457
O O4 0.405763 0.777194 0.278772
O O5 0.059476 0.927197 0.500000
O O6 0.000000 0.880640 0.310613
O O7 0.079365 0.940769 0.234072
O O8 0.250000 0.750000 0.808818
O O9 0.260291 0.624272 0.801830
O O10 0.299281 0.690646 0.000000
O O11 0.356548 0.083895 0.500000
O O12 0.327234 0.087435 0.246214
O O13 0.421761 0.107404 0.302447
O O14 0.388443 0.000000 0.322143
O O15 0.760456 0.500000 0.193797
O O16 0.792784 0.575523 0.000000
O O17 0.500000 0.500000 0.844365
O O18 0.580628 0.500000 0.000000
O O19 0.949740 0.315426 0.500000
O O20 0.000000 0.321456 0.728090
#
# Coordination Sequence:
#
# PCOD8270655 Si02
#       7
#    16  16  16  16  16   8  16
#     4  10  20  33  51  75  98 127 169 211 251 295
#     4   9  17  31  50  70  96 129 163 200 244 295
#     4  10  21  36  53  73  99 131 167 209 258 310
#     4   9  17  29  49  78 106 132 166 207 249 292
#     4   9  18  34  54  73  97 132 170 204 248 310
#     4   9  17  29  47  71  95 123 161 199 237 283
#     4   9  17  30  49  74 105 138 170 205 246 297
#
# _framework density 18.166398999999998
#
# number of rings (size 3 to 8) (size 9 to 14) (size 15 to 20)
#    0.000    2.692    0.000    1.615    0.000    4.615 
#    1.385    1.538    0.000    2.769    0.000    2.154 
#    0.000    0.000    0.000    0.000    0.000    0.000 
#
# Total GULP energy -644465.556821 kJ/mol
# GULP energy per Si atom -12393.568400 kJ/mol
# Density = 1.812505 g / cm^3
# Si number density = 18.166399 Si / 1000 Ang^3
#
#
#
# Elastic Constant Matrix: (Units=GPa)
#
#
# Indices 1 2 3 4 5 6 
#
# 1 109.0972 61.5866 47.0187 0.0000 0.0000 0.0000
# 2 61.5866 115.6980 39.9200 0.0000 0.0000 0.0000
# 3 47.0187 39.9200 66.3965 0.0000 0.0000 0.0000
# 4 0.0000 0.0000 0.0000 17.5558 0.0000 0.0000
# 5 0.0000 0.0000 0.0000 0.0000 11.6556 0.0000
# 6 0.0000 0.0000 0.0000 0.0000 0.0000 28.3300
#
#
#
# Elastic Compliance Matrix: (Units=1/GPa)
#
#
# Indices 1 2 3 4 5 6 
#
# 1 0.015700 -0.005704 -0.007688 0.000000 0.000000 0.000000
# 2 -0.005704 0.012978 -0.003763 0.000000 0.000000 0.000000
# 3 -0.007688 -0.003763 0.022768 0.000000 0.000000 0.000000
# 4 0.000000 0.000000 0.000000 0.056961 0.000000 0.000000
# 5 0.000000 0.000000 0.000000 0.000000 0.085795 0.000000
# 6 0.000000 0.000000 0.000000 0.000000 0.000000 0.035298
#
#
# Mechanical properties :
#
#
# Convention : Reuss Voigt Hill
#
# Bulk Modulus (GPa) = 58.36272 65.36026 61.86149
# Shear Modulus (GPa) = 18.55123 21.01938 19.78531
#
# Velocity S-wave (km/s) = 3.19906 3.40523 3.30376
# Velocity P-wave (km/s) = 6.77066 7.17757 6.97708
#
# Compressibility (1/GPa) = 0.01713422
#
# Stress axis : x y z
#
# Youngs Moduli (GPa) = 63.69542 77.05244 43.92129
#
# Poissons Ratio (x) = 0.43954 0.33767
# Poissons Ratio (y) = 0.36334 0.16529
# Poissons Ratio (z) = 0.48969 0.28998
#
# Static dielectric constant tensor:
#      x y z
#    x 2.887530 0.000000 0.000000 
#    y 0.000000 3.631600 0.000000 
#    z 0.000000 0.000000 3.383360 
# 
# 
# High freq. dielectric constant tensor:
#      x y z
#    x 1.686520 0.000000 0.000000 
#    y 0.000000 1.721710 0.000000 
#    z 0.000000 0.000000 1.685150 
# 
# From -- ./inp_files/18707.got.cif
#   From: 2010.03.12/outbox.cif.g09.slc.cpg/sg65_10_cif.got.tgz:18707.got - 2010.04.10 20:52:16.
