data_PCOD8270257
_publ_section_title
;
Structure prediction by ZEFSAII (Michael W. Deem and Ramdas Pophale) SiO2 
 PCOD8270257
Probable space group: C M M M
;
_chemical_formula_sum "Si O2"
_cell_formula_units_Z 72
_cell_length_a 18.075876
_cell_length_b 7.682393
_cell_length_c 27.121020
_cell_angle_alpha 90.000000
_cell_angle_beta 90.000000
_cell_angle_gamma 90.000000
_cell_volume 3766.187109
_symmetry_space_group_name_H-M "C M M M"
_symmetry_group_IT_number 65
_symmetry_cell_setting 'orthorhombic'
loop_
_space_group_symop_operation_xyz
x,y,z
-x,-y,z
x,-y,-z
-x,y,-z
-x,-y,-z
x,y,-z
-x,y,z
x,-y,z
1/2+x,1/2+y,z
1/2-x,1/2-y,z
1/2+x,1/2-y,-z
1/2-x,1/2+y,-z
1/2-x,1/2-y,-z
1/2+x,1/2+y,-z
1/2-x,1/2+y,z
1/2+x,1/2-y,z
loop_
_atom_site_type_symbol
_atom_site_label
_atom_site_fract_x
_atom_site_fract_y
_atom_site_fract_z
Si Si1 0.164765 0.796389 0.096076
Si Si2 0.416121 0.292049 0.000000
Si Si3 0.412025 0.693300 0.555092
Si Si4 0.588573 0.000000 0.377128
Si Si5 0.087524 0.500000 0.266819
Si Si6 0.912914 0.199913 0.194583
O O1 0.250000 0.750000 0.095143
O O2 0.124938 0.714581 0.048185
O O3 0.127428 0.726101 0.145953
O O4 0.152206 0.000000 0.094739
O O5 0.413241 0.500000 0.000000
O O6 0.500000 0.224278 0.000000
O O7 0.384069 0.741215 0.500000
O O8 0.500000 0.699154 0.555479
O O9 0.384489 0.500000 0.569866
O O10 0.380331 0.830345 0.594501
O O11 0.500000 0.000000 0.376570
O O12 0.621248 0.000000 0.321811
O O13 0.113639 0.675784 0.239094
O O14 0.000000 0.500000 0.270281
O O15 0.000000 0.215268 0.185142
O O16 0.890816 0.000000 0.207051
#
# Coordination Sequence:
#
# PCOD8270257 Si02
#       6
#    16   8  16   8   8  16
#     4  10  20  32  51  75  97 125 156 196 242 287
#     4   9  17  32  53  75 100 129 160 190 233 295
#     4   8  13  20  30  46  72 108 148 189 231 277
#     4   9  15  22  33  52  75 104 147 195 241 277
#     4   9  18  29  44  64  86 117 156 205 249 279
#     4   9  18  33  50  67  90 123 161 197 240 292
#
# _framework density 19.117478999999999
#
# number of rings (size 3 to 8) (size 9 to 14) (size 15 to 20)
#    0.000    3.000    0.000    2.000    1.556    4.889 
#    0.000    4.444    0.000    0.667    0.000    0.000 
#    0.000    0.000    0.000    0.000    0.000    4.444 
#
# Total GULP energy -446237.387505 kJ/mol
# GULP energy per Si atom -12395.482986 kJ/mol
# Density = 1.907397 g / cm^3
# Si number density = 19.117479 Si / 1000 Ang^3
#
#
#
# Elastic Constant Matrix: (Units=GPa)
#
#
# Indices 1 2 3 4 5 6 
#
# 1 54.4343 19.0064 41.5907 0.0000 0.0000 0.0000
# 2 19.0064 105.0229 90.8182 0.0000 0.0000 0.0000
# 3 41.5907 90.8182 202.8725 0.0000 0.0000 0.0000
# 4 0.0000 0.0000 0.0000 15.3377 0.0000 0.0000
# 5 0.0000 0.0000 0.0000 0.0000 4.1984 0.0000
# 6 0.0000 0.0000 0.0000 0.0000 0.0000 14.5826
#
#
#
# Elastic Compliance Matrix: (Units=1/GPa)
#
#
# Indices 1 2 3 4 5 6 
#
# 1 0.021784 -0.000131 -0.004407 0.000000 0.000000 0.000000
# 2 -0.000131 0.015537 -0.006928 0.000000 0.000000 0.000000
# 3 -0.004407 -0.006928 0.008934 0.000000 0.000000 0.000000
# 4 0.000000 0.000000 0.000000 0.065199 0.000000 0.000000
# 5 0.000000 0.000000 0.000000 0.000000 0.238188 0.000000
# 6 0.000000 0.000000 0.000000 0.000000 0.000000 0.068575
#
#
# Mechanical properties :
#
#
# Convention : Reuss Voigt Hill
#
# Bulk Modulus (GPa) = 42.87895 73.90671 58.39283
# Shear Modulus (GPa) = 11.13776 20.88470 16.01123
#
# Velocity S-wave (km/s) = 2.41632 3.30879 2.89713
# Velocity P-wave (km/s) = 5.50115 7.30347 6.46542
#
# Compressibility (1/GPa) = 0.02332147
#
# Stress axis : x y z
#
# Youngs Moduli (GPa) = 45.90548 64.36375 111.92907
#
# Poissons Ratio (x) = 0.00845 0.49329
# Poissons Ratio (y) = 0.00603 0.77548
# Poissons Ratio (z) = 0.20231 0.44593
#
# Static dielectric constant tensor:
#      x y z
#    x 2.915960 0.000000 0.000000 
#    y 0.000000 3.634700 0.000000 
#    z 0.000000 0.000000 3.848680 
# 
# 
# High freq. dielectric constant tensor:
#      x y z
#    x 1.685190 0.000000 0.000000 
#    y 0.000000 1.744510 0.000000 
#    z 0.000000 0.000000 1.748020 
# 
# From -- ./inp_files/70391.got.cif
#   From: 2010.03.12/outbox.cif.g09.slc.cpg/sg65_36_cif.got.tgz:70391.got - 2010.04.10 20:52:16.
