data_PCOD8270233
_publ_section_title
;
Structure prediction by ZEFSAII (Michael W. Deem and Ramdas Pophale) SiO2 
 PCOD8270233
Probable space group: C M M M
;
_chemical_formula_sum "Si O2"
_cell_formula_units_Z 88
_cell_length_a 27.572121
_cell_length_b 19.239347
_cell_length_c 9.016054
_cell_angle_alpha 90.000000
_cell_angle_beta 90.000000
_cell_angle_gamma 90.000000
_cell_volume 4782.742590
_symmetry_space_group_name_H-M "C M M M"
_symmetry_group_IT_number 65
_symmetry_cell_setting 'orthorhombic'
loop_
_space_group_symop_operation_xyz
x,y,z
-x,-y,z
x,-y,-z
-x,y,-z
-x,-y,-z
x,y,-z
-x,y,z
x,-y,z
1/2+x,1/2+y,z
1/2-x,1/2-y,z
1/2+x,1/2-y,-z
1/2-x,1/2+y,-z
1/2-x,1/2-y,-z
1/2+x,1/2+y,-z
1/2-x,1/2+y,z
1/2+x,1/2-y,z
loop_
_atom_site_type_symbol
_atom_site_label
_atom_site_fract_x
_atom_site_fract_y
_atom_site_fract_z
Si Si1 0.918030 0.136405 0.332509
Si Si2 0.189284 0.178966 0.665966
Si Si3 0.945379 0.724655 0.826518
Si Si4 0.852568 0.320893 0.325455
Si Si5 0.555683 0.500000 0.161133
Si Si6 0.230180 0.577862 0.674842
O O1 0.938175 0.139464 0.500000
O O2 0.860192 0.136679 0.332027
O O3 0.941438 0.199136 0.242170
O O4 0.932027 0.065947 0.256965
O O5 0.208570 0.192356 0.500000
O O6 0.179274 0.255304 0.737662
O O7 0.229895 0.130662 0.746759
O O8 0.905073 0.674173 0.753125
O O9 0.000000 0.695812 0.797378
O O10 0.934577 0.729821 0.000000
O O11 0.862135 0.308448 0.500000
O O12 0.823447 0.391624 0.292764
O O13 0.500000 0.500000 0.125765
O O14 0.582760 0.500000 0.000000
O O15 0.239440 0.572663 0.500000
O O16 0.233764 0.500000 0.744140
#
# Coordination Sequence:
#
# PCOD8270233 Si02
#       6
#    16  16  16  16   8  16
#     4  10  20  32  50  74  98 127 168 214 252 290
#     4   8  15  27  45  71 101 129 159 201 246 290
#     4  10  20  34  52  72  95 126 163 203 253 308
#     4   9  17  30  49  75 101 128 165 206 246 290
#     4  11  23  35  45  61  95 141 177 209 254 301
#     4   9  16  26  46  75 104 131 161 202 249 296
#
# _framework density 18.399484000000001
#
# number of rings (size 3 to 8) (size 9 to 14) (size 15 to 20)
#    0.000    2.636    0.000    3.545    1.273    6.545 
#    0.000    0.000    0.000   10.909    0.000    3.818 
#    0.000    0.000    0.000    0.000    0.000    0.000 
#
# Total GULP energy -545251.789461 kJ/mol
# GULP energy per Si atom -12392.086124 kJ/mol
# Density = 1.835761 g / cm^3
# Si number density = 18.399484 Si / 1000 Ang^3
#
#
#
# Elastic Constant Matrix: (Units=GPa)
#
#
# Indices 1 2 3 4 5 6 
#
# 1 106.7687 47.5404 38.5907 0.0000 0.0000 0.0000
# 2 47.5404 74.7925 19.6208 0.0000 0.0000 0.0000
# 3 38.5907 19.6208 65.5336 0.0000 0.0000 0.0000
# 4 0.0000 0.0000 0.0000 10.2615 0.0000 0.0000
# 5 0.0000 0.0000 0.0000 0.0000 -5.1806 0.0000
# 6 0.0000 0.0000 0.0000 0.0000 0.0000 14.7358
#
#
#
# Elastic Compliance Matrix: (Units=1/GPa)
#
#
# Indices 1 2 3 4 5 6 
#
# 1 0.015325 -0.008002 -0.006629 0.000000 0.000000 0.000000
# 2 -0.008002 0.018688 -0.000883 0.000000 0.000000 0.000000
# 3 -0.006629 -0.000883 0.019427 0.000000 0.000000 0.000000
# 4 0.000000 0.000000 0.000000 0.097451 0.000000 0.000000
# 5 0.000000 0.000000 0.000000 0.000000 -0.193030 0.000000
# 6 0.000000 0.000000 0.000000 0.000000 0.000000 0.067862
#
#
# Mechanical properties :
#
#
# Convention : Reuss Voigt Hill
#
# Bulk Modulus (GPa) = 44.61718 50.95538 47.78628
# Shear Modulus (GPa) = 77.85470 13.38623 45.62046
#
# Velocity S-wave (km/s) = 6.51194 2.70021 4.98480
# Velocity P-wave (km/s) = 8.99123 6.12173 7.69148
#
# Compressibility (1/GPa) = 0.02241289
#
# Stress axis : x y z
#
# Youngs Moduli (GPa) = 65.25321 53.50924 51.47444
#
# Poissons Ratio (x) = 0.42818 0.34120
# Poissons Ratio (y) = 0.52216 0.04546
# Poissons Ratio (z) = 0.43253 0.04726
#
# Static dielectric constant tensor:
#      x y z
#    x 3.559880 0.000000 0.000000 
#    y 0.000000 3.237370 0.000000 
#    z 0.000000 0.000000 3.169480 
# 
# 
# High freq. dielectric constant tensor:
#      x y z
#    x 1.720870 0.000000 0.000000 
#    y 0.000000 1.695970 0.000000 
#    z 0.000000 0.000000 1.676310 
# 
# From -- ./inp_files/18266.got.cif
#   From: 2010.03.12/outbox.cif.g09.slc.cpg/sg65_10_cif.got.tgz:18266.got - 2010.04.10 20:52:16.
