data_PCOD8270067
_publ_section_title
;
Structure prediction by ZEFSAII (Michael W. Deem and Ramdas Pophale) SiO2 
 PCOD8270067
Probable space group: C M M M
;
_chemical_formula_sum "Si O2"
_cell_formula_units_Z 112
_cell_length_a 23.129752
_cell_length_b 17.880930
_cell_length_c 13.684359
_cell_angle_alpha 90.000000
_cell_angle_beta 90.000000
_cell_angle_gamma 90.000000
_cell_volume 5659.597399
_symmetry_space_group_name_H-M "C M M M"
_symmetry_group_IT_number 65
_symmetry_cell_setting 'orthorhombic'
loop_
_space_group_symop_operation_xyz
x,y,z
-x,-y,z
x,-y,-z
-x,y,-z
-x,-y,-z
x,y,-z
-x,y,z
x,-y,z
1/2+x,1/2+y,z
1/2-x,1/2-y,z
1/2+x,1/2-y,-z
1/2-x,1/2+y,-z
1/2-x,1/2-y,-z
1/2+x,1/2+y,-z
1/2-x,1/2+y,z
1/2+x,1/2-y,z
loop_
_atom_site_type_symbol
_atom_site_label
_atom_site_fract_x
_atom_site_fract_y
_atom_site_fract_z
Si Si1 0.656404 0.911848 0.699770
Si Si2 0.565458 0.664193 0.751295
Si Si3 0.567613 0.802894 0.386954
Si Si4 0.261980 0.668001 0.614469
Si Si5 0.217105 0.411394 0.892652
Si Si6 0.847228 0.914531 0.114712
Si Si7 0.372379 0.415678 0.607875
O O1 0.598414 0.875261 0.658233
O O2 0.709375 0.887883 0.632008
O O3 0.670815 0.885160 0.811226
O O4 0.647661 0.000000 0.694282
O O5 0.500000 0.671392 0.790210
O O6 0.584453 0.735235 0.685277
O O7 0.608038 0.646210 0.841123
O O8 0.571267 0.594791 0.675579
O O9 0.587509 0.787574 0.500000
O O10 0.500000 0.819264 0.384495
O O11 0.272077 0.675375 0.500000
O O12 0.250000 0.750000 0.660626
O O13 0.320732 0.632528 0.658090
O O14 0.218058 0.500000 0.899511
O O15 0.281951 0.386179 0.862281
O O16 0.200071 0.378563 0.000000
O O17 0.856964 0.000000 0.154939
O O18 0.858010 0.914956 0.000000
O O19 0.388490 0.387612 0.500000
O O20 0.350738 0.500000 0.605735
#
# Coordination Sequence:
#
# PCOD8270067 Si02
#       7
#    16  16  16  16  16  16  16
#     4  11  21  34  59  88 109 137 183 235 283 335
#     4  11  22  36  54  73 101 147 194 229 270 332
#     4  10  23  42  59  77 107 147 188 232 285 343
#     4  10  20  33  50  74 107 144 176 212 268 337
#     4   8  16  33  56  82 112 143 173 211 266 331
#     4   9  18  34  57  85 117 151 187 231 282 330
#     4  10  20  32  47  71 103 135 172 223 274 318
#
# _framework density 19.789394000000001
#
# number of rings (size 3 to 8) (size 9 to 14) (size 15 to 20)
#    0.000    2.143    0.000    4.286    0.000    6.571 
#    0.000    2.857    0.000    3.429    0.000    2.000 
#    0.000    0.000    0.000    0.000    0.000    0.000 
#
# Total GULP energy -693965.619717 kJ/mol
# GULP energy per Si atom -12392.243209 kJ/mol
# Density = 1.974435 g / cm^3
# Si number density = 19.789394 Si / 1000 Ang^3
#
#
#
# Elastic Constant Matrix: (Units=GPa)
#
#
# Indices 1 2 3 4 5 6 
#
# 1 69.1075 36.7657 35.6364 0.0000 0.0000 0.0000
# 2 36.7657 81.6175 32.5989 0.0000 0.0000 0.0000
# 3 35.6364 32.5989 81.9935 0.0000 0.0000 0.0000
# 4 0.0000 0.0000 0.0000 27.3432 0.0000 0.0000
# 5 0.0000 0.0000 0.0000 0.0000 30.9282 0.0000
# 6 0.0000 0.0000 0.0000 0.0000 0.0000 30.8738
#
#
#
# Elastic Compliance Matrix: (Units=1/GPa)
#
#
# Indices 1 2 3 4 5 6 
#
# 1 0.021654 -0.007127 -0.006578 0.000000 0.000000 0.000000
# 2 -0.007127 0.016911 -0.003626 0.000000 0.000000 0.000000
# 3 -0.006578 -0.003626 0.016497 0.000000 0.000000 0.000000
# 4 0.000000 0.000000 0.000000 0.036572 0.000000 0.000000
# 5 0.000000 0.000000 0.000000 0.000000 0.032333 0.000000
# 6 0.000000 0.000000 0.000000 0.000000 0.000000 0.032390
#
#
# Mechanical properties :
#
#
# Convention : Reuss Voigt Hill
#
# Bulk Modulus (GPa) = 49.01957 49.19117 49.10537
# Shear Modulus (GPa) = 25.27584 26.34353 25.80969
#
# Velocity S-wave (km/s) = 3.57773 3.65251 3.61531
# Velocity P-wave (km/s) = 6.47235 6.53445 6.50347
#
# Compressibility (1/GPa) = 0.02040002
#
# Stress axis : x y z
#
# Youngs Moduli (GPa) = 46.18140 59.13335 60.61890
#
# Poissons Ratio (x) = 0.42144 0.39873
# Poissons Ratio (y) = 0.32913 0.21980
# Poissons Ratio (z) = 0.30377 0.21441
#
# Static dielectric constant tensor:
#      x y z
#    x 3.503900 0.000000 0.000000 
#    y 0.000000 3.538530 0.000000 
#    z 0.000000 0.000000 3.863450 
# 
# 
# High freq. dielectric constant tensor:
#      x y z
#    x 1.757100 0.000000 0.000000 
#    y 0.000000 1.756190 0.000000 
#    z 0.000000 0.000000 1.777950 
# 
# From -- ./inp_files/45795.got.cif
#   From: 2010.03.12/outbox.cif.g09.slc.cpg/sg65_23_cif.got.tgz:45795.got - 2010.04.10 20:52:16.
