data_PCOD8270720
_publ_section_title
;
Structure prediction by ZEFSAII (Michael W. Deem and Ramdas Pophale) SiO2 
 PCOD8270720
Probable space group: C M M M
;
_chemical_formula_sum "Si O2"
_cell_formula_units_Z 120
_cell_length_a 26.817566
_cell_length_b 9.050416
_cell_length_c 27.362734
_cell_angle_alpha 90.000000
_cell_angle_beta 90.000000
_cell_angle_gamma 90.000000
_cell_volume 6641.212683
_symmetry_space_group_name_H-M "C M M M"
_symmetry_group_IT_number 65
_symmetry_cell_setting 'orthorhombic'
loop_
_space_group_symop_operation_xyz
x,y,z
-x,-y,z
x,-y,-z
-x,y,-z
-x,-y,-z
x,y,-z
-x,y,z
x,-y,z
1/2+x,1/2+y,z
1/2-x,1/2-y,z
1/2+x,1/2-y,-z
1/2-x,1/2+y,-z
1/2-x,1/2-y,-z
1/2+x,1/2+y,-z
1/2-x,1/2+y,z
1/2+x,1/2-y,z
loop_
_atom_site_type_symbol
_atom_site_label
_atom_site_fract_x
_atom_site_fract_y
_atom_site_fract_z
Si Si1 0.802134 0.671958 0.232655
Si Si2 0.401291 0.175480 0.611277
Si Si3 0.637915 0.170486 0.135118
Si Si4 0.614129 0.327318 0.288543
Si Si5 0.500000 0.824833 0.445475
Si Si6 0.301058 0.328503 0.056492
Si Si7 0.942586 0.169061 0.808960
Si Si8 0.699487 0.173330 0.443668
O O1 0.797179 0.500000 0.244689
O O2 0.750000 0.750000 0.234367
O O3 0.823968 0.700162 0.179039
O O4 0.834758 0.746666 0.274705
O O5 0.407287 0.255828 0.662727
O O6 0.449322 0.229464 0.580628
O O7 0.349682 0.226418 0.585509
O O8 0.401818 0.000000 0.618644
O O9 0.654123 0.261305 0.087632
O O10 0.583971 0.226706 0.151708
O O11 0.634621 0.000000 0.120727
O O12 0.624360 0.500000 0.296245
O O13 0.574002 0.296631 0.246214
O O14 0.500000 0.758289 0.500000
O O15 0.500000 0.000000 0.447526
O O16 0.294859 0.500000 0.068609
O O17 0.250000 0.250000 0.071841
O O18 0.313792 0.300395 0.000000
O O19 0.000000 0.206636 0.813117
O O20 0.930220 0.000000 0.822212
O O21 0.690981 0.217649 0.500000
O O22 0.750000 0.250000 0.423255
O O23 0.707142 0.000000 0.437484
#
# Coordination Sequence:
#
# PCOD8270720 Si02
#       8
#    16  16  16  16   8  16  16  16
#     4  10  20  34  52  75 105 139 177 216 258 309
#     4  10  20  34  53  78 105 133 168 213 262 314
#     4  10  20  33  52  79 107 138 177 221 268 316
#     4  10  21  35  52  75 104 137 172 209 256 310
#     4   9  18  34  57  81 103 133 173 215 264 319
#     4  10  20  33  51  77 110 147 183 219 261 311
#     4   9  19  36  56  75  99 135 176 218 264 316
#     4   9  18  33  53  75  99 129 166 207 250 301
#
# _framework density 18.068988999999998
#
# number of rings (size 3 to 8) (size 9 to 14) (size 15 to 20)
#    0.000    2.333    0.000    2.400    0.933    6.933 
#    0.000    1.333    0.000    2.000    0.000    2.800 
#    0.000    0.000    0.000    0.000    0.000    0.000 
#
# Total GULP energy -744147.459292 kJ/mol
# GULP energy per Si atom -12402.457655 kJ/mol
# Density = 1.802786 g / cm^3
# Si number density = 18.068989 Si / 1000 Ang^3
#
#
#
# Elastic Constant Matrix: (Units=GPa)
#
#
# Indices 1 2 3 4 5 6 
#
# 1 132.0778 53.2696 67.4856 0.0000 0.0000 0.0000
# 2 53.2696 81.5798 58.1868 0.0000 0.0000 0.0000
# 3 67.4856 58.1868 89.9631 0.0000 0.0000 0.0000
# 4 0.0000 0.0000 0.0000 31.9066 0.0000 0.0000
# 5 0.0000 0.0000 0.0000 0.0000 23.4765 0.0000
# 6 0.0000 0.0000 0.0000 0.0000 0.0000 28.5071
#
#
#
# Elastic Compliance Matrix: (Units=1/GPa)
#
#
# Indices 1 2 3 4 5 6 
#
# 1 0.012603 -0.002759 -0.007669 0.000000 0.000000 0.000000
# 2 -0.002759 0.023360 -0.013039 0.000000 0.000000 0.000000
# 3 -0.007669 -0.013039 0.025302 0.000000 0.000000 0.000000
# 4 0.000000 0.000000 0.000000 0.031342 0.000000 0.000000
# 5 0.000000 0.000000 0.000000 0.000000 0.042596 0.000000
# 6 0.000000 0.000000 0.000000 0.000000 0.000000 0.035079
#
#
# Mechanical properties :
#
#
# Convention : Reuss Voigt Hill
#
# Bulk Modulus (GPa) = 69.78474 73.50050 71.64262
# Shear Modulus (GPa) = 22.52332 25.08996 23.80664
#
# Velocity S-wave (km/s) = 3.53444 3.73039 3.63373
# Velocity P-wave (km/s) = 7.44053 7.70197 7.57238
#
# Compressibility (1/GPa) = 0.01432978
#
# Stress axis : x y z
#
# Youngs Moduli (GPa) = 79.34736 42.80903 39.52225
#
# Poissons Ratio (x) = 0.11811 0.30311
# Poissons Ratio (y) = 0.21893 0.51533
# Poissons Ratio (z) = 0.60855 0.55818
#
# Static dielectric constant tensor:
#      x y z
#    x 3.347470 0.000000 0.000000 
#    y 0.000000 3.335240 0.000000 
#    z 0.000000 0.000000 3.571430 
# 
# 
# High freq. dielectric constant tensor:
#      x y z
#    x 1.700510 0.000000 0.000000 
#    y 0.000000 1.699370 0.000000 
#    z 0.000000 0.000000 1.695240 
# 
# From -- ./inp_files/73978.got.cif
#   From: 2010.03.12/outbox.cif.g09.slc.cpg/sg65_37_cif.got.tgz:73978.got - 2010.04.10 20:52:16.
