data_PCOD8270747
_publ_section_title
;
Structure prediction by ZEFSAII (Michael W. Deem and Ramdas Pophale) SiO2 
 PCOD8270747
Probable space group: C M M M
;
_chemical_formula_sum "Si O2"
_cell_formula_units_Z 88
_cell_length_a 9.420113
_cell_length_b 28.480687
_cell_length_c 18.111052
_cell_angle_alpha 90.000000
_cell_angle_beta 90.000000
_cell_angle_gamma 90.000000
_cell_volume 4859.037502
_symmetry_space_group_name_H-M "C M M M"
_symmetry_group_IT_number 65
_symmetry_cell_setting 'orthorhombic'
loop_
_space_group_symop_operation_xyz
x,y,z
-x,-y,z
x,-y,-z
-x,y,-z
-x,-y,-z
x,y,-z
-x,y,z
x,-y,z
1/2+x,1/2+y,z
1/2-x,1/2-y,z
1/2+x,1/2-y,-z
1/2-x,1/2+y,-z
1/2-x,1/2-y,-z
1/2+x,1/2+y,-z
1/2-x,1/2+y,z
1/2+x,1/2-y,z
loop_
_atom_site_type_symbol
_atom_site_label
_atom_site_fract_x
_atom_site_fract_y
_atom_site_fract_z
Si Si1 0.836457 0.553905 0.584185
Si Si2 0.333493 0.604821 0.291886
Si Si3 0.162954 0.203030 0.077050
Si Si4 0.836239 0.202743 0.762890
Si Si5 0.837563 0.444062 0.000000
Si Si6 0.163658 0.055508 0.857516
O O1 0.808069 0.569199 0.500000
O O2 0.793179 0.500000 0.595515
O O3 0.741556 0.585428 0.636280
O O4 0.000000 0.561508 0.604953
O O5 0.500000 0.595627 0.299402
O O6 0.297603 0.660513 0.292074
O O7 0.278804 0.579385 0.217449
O O8 0.250000 0.250000 0.075485
O O9 0.196397 0.179033 0.155824
O O10 0.000000 0.217905 0.076336
O O11 0.197740 0.174154 0.000000
O O12 0.750000 0.250000 0.745349
O O13 0.000000 0.217118 0.755973
O O14 0.756716 0.425855 0.926535
O O15 0.834185 0.500000 0.000000
O O16 0.000000 0.425479 0.000000
O O17 0.000000 0.069777 0.873103
O O18 0.179243 0.000000 0.847491
#
# Coordination Sequence:
#
# PCOD8270747 Si02
#       6
#    16  16  16  16   8  16
#     4   9  19  36  57  82 111 139 165 197 246 310
#     4  10  20  33  51  79 107 133 171 214 255 305
#     4   8  13  23  40  60  83 115 156 202 251 296
#     4   9  18  32  48  70  99 132 172 215 258 304
#     4   9  17  29  45  65  92 129 172 213 250 291
#     4   9  17  30  47  68  97 132 167 204 250 304
#
# _framework density 18.110582000000001
#
# number of rings (size 3 to 8) (size 9 to 14) (size 15 to 20)
#    0.000    3.000    0.000    1.364    0.000    4.000 
#    1.636    2.727    0.000    0.545    0.000    0.000 
#    0.000    0.000    0.000    0.000    0.000    0.000 
#
# Total GULP energy -545089.884186 kJ/mol
# GULP energy per Si atom -12388.406459 kJ/mol
# Density = 1.806936 g / cm^3
# Si number density = 18.110582 Si / 1000 Ang^3
#
#
#
# Elastic Constant Matrix: (Units=GPa)
#
#
# Indices 1 2 3 4 5 6 
#
# 1 64.1332 37.8125 54.1078 0.0000 0.0000 0.0000
# 2 37.8125 65.4104 57.3547 0.0000 0.0000 0.0000
# 3 54.1078 57.3547 113.8674 0.0000 0.0000 0.0000
# 4 0.0000 0.0000 0.0000 15.3469 0.0000 0.0000
# 5 0.0000 0.0000 0.0000 0.0000 29.5082 0.0000
# 6 0.0000 0.0000 0.0000 0.0000 0.0000 21.3520
#
#
#
# Elastic Compliance Matrix: (Units=1/GPa)
#
#
# Indices 1 2 3 4 5 6 
#
# 1 0.028273 -0.008174 -0.009318 0.000000 0.000000 0.000000
# 2 -0.008174 0.029745 -0.011098 0.000000 0.000000 0.000000
# 3 -0.009318 -0.011098 0.018800 0.000000 0.000000 0.000000
# 4 0.000000 0.000000 0.000000 0.065160 0.000000 0.000000
# 5 0.000000 0.000000 0.000000 0.000000 0.033889 0.000000
# 6 0.000000 0.000000 0.000000 0.000000 0.000000 0.046834
#
#
# Mechanical properties :
#
#
# Convention : Reuss Voigt Hill
#
# Bulk Modulus (GPa) = 50.92185 60.21789 55.56987
# Shear Modulus (GPa) = 17.45654 19.51715 18.48684
#
# Velocity S-wave (km/s) = 3.10802 3.28634 3.19842
# Velocity P-wave (km/s) = 6.40765 6.90814 6.66259
#
# Compressibility (1/GPa) = 0.01963793
#
# Stress axis : x y z
#
# Youngs Moduli (GPa) = 35.36960 33.61938 53.19197
#
# Poissons Ratio (x) = 0.27480 0.49562
# Poissons Ratio (y) = 0.28911 0.59034
# Poissons Ratio (z) = 0.32956 0.37312
#
# Static dielectric constant tensor:
#      x y z
#    x 3.296360 0.000000 0.000000 
#    y 0.000000 2.990260 0.000000 
#    z 0.000000 0.000000 3.595290 
# 
# 
# High freq. dielectric constant tensor:
#      x y z
#    x 1.694730 0.000000 0.000000 
#    y 0.000000 1.682810 0.000000 
#    z 0.000000 0.000000 1.696290 
# 
# From -- ./inp_files/50462.got.cif
#   From: 2010.03.12/outbox.cif.g09.slc.cpg/sg65_26_cif.got.tgz:50462.got - 2010.04.10 20:52:16.
