data_PCOD8270750
_publ_section_title
;
Structure prediction by ZEFSAII (Michael W. Deem and Ramdas Pophale) SiO2 
 PCOD8270750
Probable space group: C M M M
;
_chemical_formula_sum "Si O2"
_cell_formula_units_Z 72
_cell_length_a 18.106527
_cell_length_b 19.561111
_cell_length_c 8.942064
_cell_angle_alpha 90.000000
_cell_angle_beta 90.000000
_cell_angle_gamma 90.000000
_cell_volume 3167.134069
_symmetry_space_group_name_H-M "C M M M"
_symmetry_group_IT_number 65
_symmetry_cell_setting 'orthorhombic'
loop_
_space_group_symop_operation_xyz
x,y,z
-x,-y,z
x,-y,-z
-x,y,-z
-x,-y,-z
x,y,-z
-x,y,z
x,-y,z
1/2+x,1/2+y,z
1/2-x,1/2-y,z
1/2+x,1/2-y,-z
1/2-x,1/2+y,-z
1/2-x,1/2-y,-z
1/2+x,1/2+y,-z
1/2-x,1/2+y,z
1/2+x,1/2-y,z
loop_
_atom_site_type_symbol
_atom_site_label
_atom_site_fract_x
_atom_site_fract_y
_atom_site_fract_z
Si Si1 0.084676 0.000000 0.176640
Si Si2 0.355365 0.730897 0.326258
Si Si3 0.000000 0.233064 0.832146
Si Si4 0.148244 0.391378 0.325740
Si Si5 0.500000 0.104667 0.832023
Si Si6 0.793748 0.107979 0.177033
O O1 0.132993 0.933969 0.227259
O O2 0.000000 0.000000 0.243874
O O3 0.077687 0.000000 0.000000
O O4 0.349802 0.713538 0.500000
O O5 0.431525 0.703829 0.258272
O O6 0.346679 0.810558 0.296037
O O7 0.294618 0.685452 0.241261
O O8 0.000000 0.314138 0.836237
O O9 0.000000 0.202402 0.000000
O O10 0.147526 0.409614 0.500000
O O11 0.073116 0.421362 0.253872
O O12 0.219461 0.425829 0.246908
O O13 0.500000 0.074844 0.000000
O O14 0.785069 0.108937 0.000000
#
# Coordination Sequence:
#
# PCOD8270750 Si02
#       6
#     8  16   8  16   8  16
#     4   9  22  44  63  82 111 152 202 254 305 342
#     4  10  20  33  51  80 117 153 187 233 293 356
#     4   9  17  29  47  74 109 148 187 227 273 335
#     4  10  20  35  55  83 122 159 186 226 295 359
#     4   9  17  31  53  82 115 148 187 225 265 337
#     4  11  22  36  59  83 108 147 198 251 295 345
#
# _framework density 22.733487
#
# number of rings (size 3 to 8) (size 9 to 14) (size 15 to 20)
#    0.000    2.111    0.000    3.333    1.556    8.000 
#    0.000    2.222    0.000    3.333    0.000    4.667 
#    0.000    0.000    0.000    0.000    0.000    0.000 
#
# Total GULP energy -446198.029245 kJ/mol
# GULP energy per Si atom -12394.389701 kJ/mol
# Density = 2.268174 g / cm^3
# Si number density = 22.733487 Si / 1000 Ang^3
#
#
#
# Elastic Constant Matrix: (Units=GPa)
#
#
# Indices 1 2 3 4 5 6 
#
# 1 208.4275 12.9110 76.0514 0.0000 0.0000 0.0000
# 2 12.9110 56.0216 21.9844 0.0000 0.0000 0.0000
# 3 76.0514 21.9844 127.7264 0.0000 0.0000 0.0000
# 4 0.0000 0.0000 0.0000 4.7229 0.0000 0.0000
# 5 0.0000 0.0000 0.0000 0.0000 44.6786 0.0000
# 6 0.0000 0.0000 0.0000 0.0000 0.0000 21.0529
#
#
#
# Elastic Compliance Matrix: (Units=1/GPa)
#
#
# Indices 1 2 3 4 5 6 
#
# 1 0.006130 0.000021 -0.003653 0.000000 0.000000 0.000000
# 2 0.000021 0.019143 -0.003307 0.000000 0.000000 0.000000
# 3 -0.003653 -0.003307 0.010574 0.000000 0.000000 0.000000
# 4 0.000000 0.000000 0.000000 0.211734 0.000000 0.000000
# 5 0.000000 0.000000 0.000000 0.000000 0.022382 0.000000
# 6 0.000000 0.000000 0.000000 0.000000 0.000000 0.047499
#
#
# Mechanical properties :
#
#
# Convention : Reuss Voigt Hill
#
# Bulk Modulus (GPa) = 45.52253 68.22989 56.87621
# Shear Modulus (GPa) = 14.76390 32.83947 23.80168
#
# Velocity S-wave (km/s) = 2.55116 3.80484 3.23923
# Velocity P-wave (km/s) = 5.36151 7.02712 6.25005
#
# Compressibility (1/GPa) = 0.02196715
#
# Stress axis : x y z
#
# Youngs Moduli (GPa) = 163.14415 52.23743 94.57354
#
# Poissons Ratio (x) = -0.00110 0.34551
# Poissons Ratio (y) = -0.00343 0.31280
# Poissons Ratio (z) = 0.59601 0.17277
#
# Static dielectric constant tensor:
#      x y z
#    x 4.508330 0.000000 0.000000 
#    y 0.000000 3.675380 0.000000 
#    z 0.000000 0.000000 3.951890 
# 
# 
# High freq. dielectric constant tensor:
#      x y z
#    x 1.920890 0.000000 0.000000 
#    y 0.000000 1.873440 0.000000 
#    z 0.000000 0.000000 1.886030 
# 
# From -- ./inp_files/9320.got.cif
#   From: 2010.03.12/outbox.cif.g09.slc.cpg/sg65_5_cif.got.tgz:9320.got - 2010.04.10 20:52:16.
