data_PCOD8270784
_publ_section_title
;
Structure prediction by ZEFSAII (Michael W. Deem and Ramdas Pophale) SiO2 
 PCOD8270784
Probable space group: C M M M
;
_chemical_formula_sum "Si O2"
_cell_formula_units_Z 64
_cell_length_a 8.856434
_cell_length_b 18.346452
_cell_length_c 20.526757
_cell_angle_alpha 90.000000
_cell_angle_beta 90.000000
_cell_angle_gamma 90.000000
_cell_volume 3335.272484
_symmetry_space_group_name_H-M "C M M M"
_symmetry_group_IT_number 65
_symmetry_cell_setting 'orthorhombic'
loop_
_space_group_symop_operation_xyz
x,y,z
-x,-y,z
x,-y,-z
-x,y,-z
-x,-y,-z
x,y,-z
-x,y,z
x,-y,z
1/2+x,1/2+y,z
1/2-x,1/2-y,z
1/2+x,1/2-y,-z
1/2-x,1/2+y,-z
1/2-x,1/2-y,-z
1/2+x,1/2+y,-z
1/2-x,1/2+y,z
1/2+x,1/2-y,z
loop_
_atom_site_type_symbol
_atom_site_label
_atom_site_fract_x
_atom_site_fract_y
_atom_site_fract_z
Si Si1 0.174714 0.084080 0.250948
Si Si2 0.320265 0.418057 0.000000
Si Si3 0.821237 0.171171 0.124203
Si Si4 0.677762 0.328721 0.500000
Si Si5 0.174420 0.585162 0.615294
O O1 0.230578 0.132065 0.190477
O O2 0.274007 0.107953 0.312602
O O3 0.000000 0.098314 0.267599
O O4 0.201822 0.000000 0.232590
O O5 0.260281 0.376314 0.063804
O O6 0.254442 0.500000 0.000000
O O7 0.500000 0.420877 0.000000
O O8 0.750000 0.250000 0.120395
O O9 0.000000 0.178350 0.121128
O O10 0.500000 0.320294 0.500000
O O11 0.750000 0.250000 0.500000
O O12 0.726822 0.371535 0.564015
O O13 0.203017 0.500000 0.603546
O O14 0.000000 0.605846 0.606079
#
# Coordination Sequence:
#
# PCOD8270784 Si02
#       5
#    16   8  16   8  16
#     4   9  18  34  55  78 104 139 185 228 265 313
#     4   9  17  32  55  79 102 135 182 228 266 311
#     4  10  20  33  52  78 108 141 176 220 272 324
#     4  12  25  40  59  83 113 147 183 226 275 326
#     4  10  21  38  60  85 113 145 182 225 272 324
#
# _framework density 19.188836999999999
#
# number of rings (size 3 to 8) (size 9 to 14) (size 15 to 20)
#    0.000    2.125    0.000    3.375    0.000    8.000 
#    0.000    2.500    0.000    3.000    0.000    0.000 
#    0.000    0.000    0.000    0.000    0.000    0.000 
#
# Total GULP energy -396920.577707 kJ/mol
# GULP energy per Si atom -12403.768053 kJ/mol
# Density = 1.914516 g / cm^3
# Si number density = 19.188837 Si / 1000 Ang^3
#
#
#
# Elastic Constant Matrix: (Units=GPa)
#
#
# Indices 1 2 3 4 5 6 
#
# 1 82.9873 50.5267 61.2765 0.0000 0.0000 0.0000
# 2 50.5267 133.6888 96.7577 0.0000 0.0000 0.0000
# 3 61.2765 96.7577 165.0835 0.0000 0.0000 0.0000
# 4 0.0000 0.0000 0.0000 9.3256 0.0000 0.0000
# 5 0.0000 0.0000 0.0000 0.0000 21.0565 0.0000
# 6 0.0000 0.0000 0.0000 0.0000 0.0000 33.1287
#
#
#
# Elastic Compliance Matrix: (Units=1/GPa)
#
#
# Indices 1 2 3 4 5 6 
#
# 1 0.017401 -0.003303 -0.004523 0.000000 0.000000 0.000000
# 2 -0.003303 0.013618 -0.006756 0.000000 0.000000 0.000000
# 3 -0.004523 -0.006756 0.011696 0.000000 0.000000 0.000000
# 4 0.000000 0.000000 0.000000 0.107232 0.000000 0.000000
# 5 0.000000 0.000000 0.000000 0.000000 0.047491 0.000000
# 6 0.000000 0.000000 0.000000 0.000000 0.000000 0.030185
#
#
# Mechanical properties :
#
#
# Convention : Reuss Voigt Hill
#
# Bulk Modulus (GPa) = 73.79291 88.76460 81.27875
# Shear Modulus (GPa) = 19.13489 24.24873 21.69181
#
# Velocity S-wave (km/s) = 3.16125 3.55870 3.36585
# Velocity P-wave (km/s) = 7.20169 7.95265 7.58647
#
# Compressibility (1/GPa) = 0.01355144
#
# Stress axis : x y z
#
# Youngs Moduli (GPa) = 57.46882 73.43368 85.49999
#
# Poissons Ratio (x) = 0.24255 0.38671
# Poissons Ratio (y) = 0.18982 0.57760
# Poissons Ratio (z) = 0.25993 0.49608
#
# Static dielectric constant tensor:
#      x y z
#    x 3.358690 0.000000 0.000000 
#    y 0.000000 3.593140 0.000000 
#    z 0.000000 0.000000 3.600120 
# 
# 
# High freq. dielectric constant tensor:
#      x y z
#    x 1.730760 0.000000 0.000000 
#    y 0.000000 1.750100 0.000000 
#    z 0.000000 0.000000 1.763700 
# 
# From -- ./inp_files/58779.got.cif
#   From: 2010.03.12/outbox.cif.g09.slc.cpg/sg65_30_cif.got.tgz:58779.got - 2010.04.10 20:52:16.
