data_PCOD8270438
_publ_section_title
;
Structure prediction by ZEFSAII (Michael W. Deem and Ramdas Pophale) SiO2 
 PCOD8270438
Probable space group: C M M M
;
_chemical_formula_sum "Si O2"
_cell_formula_units_Z 88
_cell_length_a 17.683126
_cell_length_b 16.790314
_cell_length_c 15.738023
_cell_angle_alpha 90.000000
_cell_angle_beta 90.000000
_cell_angle_gamma 90.000000
_cell_volume 4672.701465
_symmetry_space_group_name_H-M "C M M M"
_symmetry_group_IT_number 65
_symmetry_cell_setting 'orthorhombic'
loop_
_space_group_symop_operation_xyz
x,y,z
-x,-y,z
x,-y,-z
-x,y,-z
-x,-y,-z
x,y,-z
-x,y,z
x,-y,z
1/2+x,1/2+y,z
1/2-x,1/2-y,z
1/2+x,1/2-y,-z
1/2-x,1/2+y,-z
1/2-x,1/2-y,-z
1/2+x,1/2+y,-z
1/2-x,1/2+y,z
1/2+x,1/2-y,z
loop_
_atom_site_type_symbol
_atom_site_label
_atom_site_fract_x
_atom_site_fract_y
_atom_site_fract_z
Si Si1 0.688460 0.685485 0.365601
Si Si2 0.500000 0.405385 0.904500
Si Si3 0.091970 0.275645 0.500000
Si Si4 0.231626 0.338484 0.899923
Si Si5 0.216034 0.594286 0.500000
Si Si6 0.581298 0.088628 0.100820
Si Si7 0.858568 0.908540 0.796473
O O1 0.750000 0.750000 0.334180
O O2 0.620877 0.726676 0.418242
O O3 0.734424 0.619387 0.418650
O O4 0.647425 0.644064 0.287271
O O5 0.500000 0.500000 0.911339
O O6 0.426928 0.374890 0.853701
O O7 0.500000 0.368505 0.000000
O O8 0.133986 0.361784 0.500000
O O9 0.000000 0.284678 0.500000
O O10 0.250000 0.250000 0.870681
O O11 0.146503 0.353024 0.867050
O O12 0.283821 0.402348 0.853462
O O13 0.241376 0.351356 0.000000
O O14 0.201429 0.500000 0.500000
O O15 0.500000 0.121002 0.133302
O O16 0.595223 0.000000 0.137057
O O17 0.581796 0.084768 0.000000
O O18 0.871965 0.000000 0.770424
#
# Coordination Sequence:
#
# PCOD8270438 Si02
#       7
#    16   8   8  16   8  16  16
#     4   9  19  35  56  82 114 147 181 222 272 330
#     4   9  20  36  50  71 103 139 185 237 287 333
#     4   9  19  34  58  88 117 149 178 218 272 329
#     4  10  20  33  49  73 102 135 179 227 278 337
#     4   9  17  34  58  86 119 151 184 216 260 331
#     4   8  14  27  48  71  93 119 157 208 264 319
#     4  11  21  34  55  76 102 142 189 234 279 328
#
# _framework density 18.832788999999998
#
# number of rings (size 3 to 8) (size 9 to 14) (size 15 to 20)
#    0.000    2.636    0.000    3.818    1.273    2.000 
#    1.636    0.000    0.000    2.727    0.000    0.000 
#    0.000    0.000    0.000    0.000    0.000    1.455 
#
# Total GULP energy -545398.602640 kJ/mol
# GULP energy per Si atom -12395.422787 kJ/mol
# Density = 1.878993 g / cm^3
# Si number density = 18.832789 Si / 1000 Ang^3
#
#
#
# Elastic Constant Matrix: (Units=GPa)
#
#
# Indices 1 2 3 4 5 6 
#
# 1 176.3781 65.0522 56.9142 0.0000 0.0000 0.0000
# 2 65.0522 104.5225 46.0822 0.0000 0.0000 0.0000
# 3 56.9142 46.0822 105.0401 0.0000 0.0000 0.0000
# 4 0.0000 0.0000 0.0000 21.2157 0.0000 0.0000
# 5 0.0000 0.0000 0.0000 0.0000 21.1490 0.0000
# 6 0.0000 0.0000 0.0000 0.0000 0.0000 26.5276
#
#
#
# Elastic Compliance Matrix: (Units=1/GPa)
#
#
# Indices 1 2 3 4 5 6 
#
# 1 0.007906 -0.003759 -0.002635 0.000000 0.000000 0.000000
# 2 -0.003759 0.013649 -0.003951 0.000000 0.000000 0.000000
# 3 -0.002635 -0.003951 0.012681 0.000000 0.000000 0.000000
# 4 0.000000 0.000000 0.000000 0.047135 0.000000 0.000000
# 5 0.000000 0.000000 0.000000 0.000000 0.047284 0.000000
# 6 0.000000 0.000000 0.000000 0.000000 0.000000 0.037697
#
#
# Mechanical properties :
#
#
# Convention : Reuss Voigt Hill
#
# Bulk Modulus (GPa) = 73.82007 80.22645 77.02326
# Shear Modulus (GPa) = 26.10195 28.30460 27.20327
#
# Velocity S-wave (km/s) = 3.72692 3.88099 3.80473
# Velocity P-wave (km/s) = 7.60280 7.92304 7.76457
#
# Compressibility (1/GPa) = 0.01354645
#
# Stress axis : x y z
#
# Youngs Moduli (GPa) = 126.48239 73.26640 78.85721
#
# Poissons Ratio (x) = 0.27541 0.20777
# Poissons Ratio (y) = 0.47545 0.31157
# Poissons Ratio (z) = 0.33325 0.28948
#
# Static dielectric constant tensor:
#      x y z
#    x 3.733810 0.000000 0.000000 
#    y 0.000000 3.323610 0.000000 
#    z 0.000000 0.000000 3.231880 
# 
# 
# High freq. dielectric constant tensor:
#      x y z
#    x 1.739280 0.000000 0.000000 
#    y 0.000000 1.723960 0.000000 
#    z 0.000000 0.000000 1.710280 
# 
# From -- ./inp_files/42595.got.cif
#   From: 2010.03.12/outbox.cif.g09.slc.cpg/sg65_22_cif.got.tgz:42595.got - 2010.04.10 20:52:16.
