data_PCOD8270916
_publ_section_title
;
Structure prediction by ZEFSAII (Michael W. Deem and Ramdas Pophale) SiO2 
 PCOD8270916
Probable space group: C M M M
;
_chemical_formula_sum "Si O2"
_cell_formula_units_Z 88
_cell_length_a 28.405092
_cell_length_b 7.752121
_cell_length_c 27.627271
_cell_angle_alpha 90.000000
_cell_angle_beta 90.000000
_cell_angle_gamma 90.000000
_cell_volume 6083.517068
_symmetry_space_group_name_H-M "C M M M"
_symmetry_group_IT_number 65
_symmetry_cell_setting 'orthorhombic'
loop_
_space_group_symop_operation_xyz
x,y,z
-x,-y,z
x,-y,-z
-x,y,-z
-x,-y,-z
x,y,-z
-x,y,z
x,-y,z
1/2+x,1/2+y,z
1/2-x,1/2-y,z
1/2+x,1/2-y,-z
1/2-x,1/2+y,-z
1/2-x,1/2-y,-z
1/2+x,1/2+y,-z
1/2-x,1/2+y,z
1/2+x,1/2-y,z
loop_
_atom_site_type_symbol
_atom_site_label
_atom_site_fract_x
_atom_site_fract_y
_atom_site_fract_z
Si Si1 0.556376 0.500000 0.619486
Si Si2 0.605361 0.199275 0.896487
Si Si3 0.054521 0.303736 0.797258
Si Si4 0.055960 0.691549 0.554210
Si Si5 0.300989 0.799480 0.946240
Si Si6 0.055342 0.000000 0.272570
Si Si7 0.949097 0.000000 0.056333
O O1 0.500000 0.500000 0.619797
O O2 0.576124 0.330940 0.591962
O O3 0.577612 0.500000 0.673753
O O4 0.590240 0.231261 0.841270
O O5 0.659631 0.254426 0.906728
O O6 0.575537 0.322571 0.930093
O O7 0.595828 0.000000 0.910934
O O8 0.059838 0.500000 0.778345
O O9 0.000000 0.269207 0.812825
O O10 0.070968 0.173309 0.755356
O O11 0.073915 0.735527 0.500000
O O12 0.073206 0.500000 0.569540
O O13 0.000000 0.697817 0.554511
O O14 0.250000 0.750000 0.924956
O O15 0.303681 0.000000 0.953926
O O16 0.308800 0.713456 0.000000
O O17 0.000000 0.000000 0.278413
O O18 0.000000 0.000000 0.081882
O O19 0.954594 0.000000 0.000000
#
# Coordination Sequence:
#
# PCOD8270916 Si02
#       7
#     8  16  16  16  16   8   8
#     4   9  15  21  31  45  63  89 117 151 199 245
#     4  10  20  34  50  65  83 109 138 165 198 242
#     4   9  17  29  44  58  73  97 128 162 198 235
#     4   8  13  20  29  42  61  86 118 155 194 237
#     4   9  18  31  47  67  88 108 129 157 196 243
#     4   9  17  27  37  53  75  95 123 165 205 242
#     4  11  23  33  45  67  89 111 137 163 194 233
#
# _framework density 14.465316
#
# number of rings (size 3 to 8) (size 9 to 14) (size 15 to 20)
#    0.000    2.818    0.000    2.455    1.273    4.727 
#    0.000    4.545    0.000    0.000    0.000    0.000 
#    0.000    0.000    0.000    0.000    0.000    0.000 
#
# Total GULP energy -545207.339621 kJ/mol
# GULP energy per Si atom -12391.075900 kJ/mol
# Density = 1.443239 g / cm^3
# Si number density = 14.465316 Si / 1000 Ang^3
#
#
#
# Elastic Constant Matrix: (Units=GPa)
#
#
# Indices 1 2 3 4 5 6 
#
# 1 66.5672 31.1704 39.8874 0.0000 0.0000 0.0000
# 2 31.1704 94.6426 62.1890 0.0000 0.0000 0.0000
# 3 39.8874 62.1890 103.2226 0.0000 0.0000 0.0000
# 4 0.0000 0.0000 0.0000 22.5313 0.0000 0.0000
# 5 0.0000 0.0000 0.0000 0.0000 5.0306 0.0000
# 6 0.0000 0.0000 0.0000 0.0000 0.0000 12.3064
#
#
#
# Elastic Compliance Matrix: (Units=1/GPa)
#
#
# Indices 1 2 3 4 5 6 
#
# 1 0.019896 -0.002484 -0.006191 0.000000 0.000000 0.000000
# 2 -0.002484 0.017800 -0.009764 0.000000 0.000000 0.000000
# 3 -0.006191 -0.009764 0.017963 0.000000 0.000000 0.000000
# 4 0.000000 0.000000 0.000000 0.044383 0.000000 0.000000
# 5 0.000000 0.000000 0.000000 0.000000 0.198785 0.000000
# 6 0.000000 0.000000 0.000000 0.000000 0.000000 0.081259
#
#
# Mechanical properties :
#
#
# Convention : Reuss Voigt Hill
#
# Bulk Modulus (GPa) = 53.25074 58.99179 56.12126
# Shear Modulus (GPa) = 11.81405 16.71934 14.26669
#
# Velocity S-wave (km/s) = 2.86092 3.40343 3.14390
# Velocity P-wave (km/s) = 6.91417 7.50430 7.21527
#
# Compressibility (1/GPa) = 0.01877908
#
# Stress axis : x y z
#
# Youngs Moduli (GPa) = 50.26241 56.17887 55.67008
#
# Poissons Ratio (x) = 0.13957 0.34467
# Poissons Ratio (y) = 0.12487 0.54358
# Poissons Ratio (z) = 0.31119 0.54854
#
# Static dielectric constant tensor:
#      x y z
#    x 3.451840 0.000000 0.000000 
#    y 0.000000 3.034000 0.000000 
#    z 0.000000 0.000000 2.888790 
# 
# 
# High freq. dielectric constant tensor:
#      x y z
#    x 1.494430 0.000000 0.000000 
#    y 0.000000 1.572760 0.000000 
#    z 0.000000 0.000000 1.536900 
# 
# From -- ./inp_files/72091.got.cif
#   From: 2010.03.12/outbox.cif.g09.slc.cpg/sg65_37_cif.got.tgz:72091.got - 2010.04.10 20:52:16.
