data_PCOD8270356
_publ_section_title
;
Structure prediction by ZEFSAII (Michael W. Deem and Ramdas Pophale) SiO2 
 PCOD8270356
Probable space group: C M M M
;
_chemical_formula_sum "Si O2"
_cell_formula_units_Z 96
_cell_length_a 19.948265
_cell_length_b 9.449049
_cell_length_c 30.306636
_cell_angle_alpha 90.000000
_cell_angle_beta 90.000000
_cell_angle_gamma 90.000000
_cell_volume 5712.562477
_symmetry_space_group_name_H-M "C M M M"
_symmetry_group_IT_number 65
_symmetry_cell_setting 'orthorhombic'
loop_
_space_group_symop_operation_xyz
x,y,z
-x,-y,z
x,-y,-z
-x,y,-z
-x,-y,-z
x,y,-z
-x,y,z
x,-y,z
1/2+x,1/2+y,z
1/2-x,1/2-y,z
1/2+x,1/2-y,-z
1/2-x,1/2+y,-z
1/2-x,1/2-y,-z
1/2+x,1/2+y,-z
1/2-x,1/2+y,z
1/2+x,1/2-y,z
loop_
_atom_site_type_symbol
_atom_site_label
_atom_site_fract_x
_atom_site_fract_y
_atom_site_fract_z
Si Si1 0.685078 0.836149 0.115473
Si Si2 0.682945 0.165936 0.217817
Si Si3 0.421730 0.334553 0.725749
Si Si4 0.079480 0.155804 0.373210
Si Si5 0.425722 0.167972 0.950925
Si Si6 0.079667 0.341784 0.548336
O O1 0.750000 0.750000 0.101331
O O2 0.667190 0.812548 0.166417
O O3 0.624724 0.773386 0.086025
O O4 0.698796 0.000000 0.105187
O O5 0.750000 0.250000 0.231615
O O6 0.620068 0.232974 0.242709
O O7 0.691144 0.000000 0.229713
O O8 0.500000 0.306875 0.734864
O O9 0.404838 0.500000 0.733822
O O10 0.402453 0.289625 0.675723
O O11 0.111647 0.252407 0.411605
O O12 0.000000 0.150023 0.377966
O O13 0.109738 0.000000 0.380060
O O14 0.500000 0.228512 0.940965
O O15 0.427976 0.000000 0.948417
O O16 0.402569 0.215758 0.000000
O O17 0.100008 0.279847 0.500000
O O18 0.107824 0.500000 0.552887
O O19 0.000000 0.342973 0.552473
#
# Coordination Sequence:
#
# PCOD8270356 Si02
#       6
#    16  16  16  16  16  16
#     4   9  18  31  47  68  92 117 148 187 227 268
#     4  10  20  33  49  68  92 122 155 193 235 278
#     4   9  18  32  48  67  93 122 152 190 235 280
#     4   8  14  24  37  54  78 109 143 179 220 265
#     4   8  14  26  45  68  93 121 152 185 221 261
#     4   8  13  20  30  47  74 108 143 178 217 260
#
# _framework density 16.805067999999999
#
# number of rings (size 3 to 8) (size 9 to 14) (size 15 to 20)
#    0.000    3.333    0.000    2.500    0.000    3.000 
#    0.000    5.000    0.000    0.500    0.000    1.167 
#    0.000    0.667    0.000    2.167    0.000    4.833 
#
# Total GULP energy -594851.153512 kJ/mol
# GULP energy per Si atom -12392.732365 kJ/mol
# Density = 1.676682 g / cm^3
# Si number density = 16.805068 Si / 1000 Ang^3
#
#
#
# Elastic Constant Matrix: (Units=GPa)
#
#
# Indices 1 2 3 4 5 6 
#
# 1 75.1804 46.0896 65.6364 0.0000 0.0000 0.0000
# 2 46.0896 73.0276 56.7747 0.0000 0.0000 0.0000
# 3 65.6364 56.7747 113.3467 0.0000 0.0000 0.0000
# 4 0.0000 0.0000 0.0000 20.7443 0.0000 0.0000
# 5 0.0000 0.0000 0.0000 0.0000 3.0767 0.0000
# 6 0.0000 0.0000 0.0000 0.0000 0.0000 21.8849
#
#
#
# Elastic Compliance Matrix: (Units=1/GPa)
#
#
# Indices 1 2 3 4 5 6 
#
# 1 0.030069 -0.008910 -0.012949 0.000000 0.000000 0.000000
# 2 -0.008910 0.025067 -0.007396 0.000000 0.000000 0.000000
# 3 -0.012949 -0.007396 0.020026 0.000000 0.000000 0.000000
# 4 0.000000 0.000000 0.000000 0.048206 0.000000 0.000000
# 5 0.000000 0.000000 0.000000 0.000000 0.325028 0.000000
# 6 0.000000 0.000000 0.000000 0.000000 0.000000 0.045694
#
#
# Mechanical properties :
#
#
# Convention : Reuss Voigt Hill
#
# Bulk Modulus (GPa) = 60.05769 66.50621 63.28195
# Shear Modulus (GPa) = 8.95814 15.34479 12.15146
#
# Velocity S-wave (km/s) = 2.31132 3.02504 2.69194
# Velocity P-wave (km/s) = 6.55274 7.20154 6.88478
#
# Compressibility (1/GPa) = 0.01665066
#
# Stress axis : x y z
#
# Youngs Moduli (GPa) = 33.25678 39.89308 49.93534
#
# Poissons Ratio (x) = 0.35545 0.64663
# Poissons Ratio (y) = 0.29632 0.36934
# Poissons Ratio (z) = 0.43065 0.29506
#
# Static dielectric constant tensor:
#      x y z
#    x 2.897420 0.000000 0.000000 
#    y 0.000000 3.155740 0.000000 
#    z 0.000000 0.000000 3.395120 
# 
# 
# High freq. dielectric constant tensor:
#      x y z
#    x 1.607470 0.000000 0.000000 
#    y 0.000000 1.631910 0.000000 
#    z 0.000000 0.000000 1.658450 
# 
# From -- ./inp_files/70462.got.cif
#   From: 2010.03.12/outbox.cif.g09.slc.cpg/sg65_36_cif.got.tgz:70462.got - 2010.04.10 20:52:16.
