data_PCOD8270860
_publ_section_title
;
Structure prediction by ZEFSAII (Michael W. Deem and Ramdas Pophale) SiO2 
 PCOD8270860
Probable space group: C M M M
;
_chemical_formula_sum "Si O2"
_cell_formula_units_Z 64
_cell_length_a 24.068804
_cell_length_b 18.360281
_cell_length_c 7.694751
_cell_angle_alpha 90.000000
_cell_angle_beta 90.000000
_cell_angle_gamma 90.000000
_cell_volume 3400.387451
_symmetry_space_group_name_H-M "C M M M"
_symmetry_group_IT_number 65
_symmetry_cell_setting 'orthorhombic'
loop_
_space_group_symop_operation_xyz
x,y,z
-x,-y,z
x,-y,-z
-x,y,-z
-x,-y,-z
x,y,-z
-x,y,z
x,-y,z
1/2+x,1/2+y,z
1/2-x,1/2-y,z
1/2+x,1/2-y,-z
1/2-x,1/2+y,-z
1/2-x,1/2-y,-z
1/2+x,1/2+y,-z
1/2-x,1/2+y,z
1/2+x,1/2-y,z
loop_
_atom_site_type_symbol
_atom_site_label
_atom_site_fract_x
_atom_site_fract_y
_atom_site_fract_z
Si Si1 0.938218 0.086312 0.000000
Si Si2 0.061919 0.586509 0.500000
Si Si3 0.754293 0.333287 0.296974
Si Si4 0.142225 0.085296 0.301800
Si Si5 0.139576 0.416763 0.193438
O O1 0.906626 0.112359 0.825724
O O2 0.000000 0.120692 0.000000
O O3 0.942375 0.000000 0.000000
O O4 0.057667 0.500000 0.500000
O O5 0.094293 0.614308 0.671319
O O6 0.000000 0.620488 0.500000
O O7 0.766747 0.340706 0.500000
O O8 0.750000 0.250000 0.237534
O O9 0.697615 0.373135 0.245558
O O10 0.804517 0.370200 0.195660
O O11 0.124879 0.103915 0.500000
O O12 0.153995 0.000000 0.279010
O O13 0.154706 0.500000 0.242013
O O14 0.113868 0.411717 0.000000
#
# Coordination Sequence:
#
# PCOD8270860 Si02
#       5
#     8   8  16  16  16
#     4   9  18  32  51  76 102 130 169 212 254 303
#     4   9  18  34  55  78 106 138 173 218 264 307
#     4  10  20  34  53  79 107 143 174 213 264 316
#     4   9  18  32  51  76 104 134 167 210 257 304
#     4  10  20  33  53  81 108 138 174 216 265 317
#
# _framework density 18.821383999999998
#
# number of rings (size 3 to 8) (size 9 to 14) (size 15 to 20)
#    0.000    2.500    1.250    0.750    1.750    2.500 
#    0.000    5.000    0.000    1.500    0.000    0.000 
#    0.000    0.000    0.000    0.000    0.000    0.000 
#
# Total GULP energy -396818.227119 kJ/mol
# GULP energy per Si atom -12400.569597 kJ/mol
# Density = 1.877855 g / cm^3
# Si number density = 18.821384 Si / 1000 Ang^3
#
#
#
# Elastic Constant Matrix: (Units=GPa)
#
#
# Indices 1 2 3 4 5 6 
#
# 1 164.6777 43.2066 84.9017 0.0000 0.0000 0.0000
# 2 43.2066 54.0544 29.1322 0.0000 0.0000 0.0000
# 3 84.9017 29.1322 127.8752 0.0000 0.0000 0.0000
# 4 0.0000 0.0000 0.0000 13.1527 0.0000 0.0000
# 5 0.0000 0.0000 0.0000 0.0000 24.0515 0.0000
# 6 0.0000 0.0000 0.0000 0.0000 0.0000 -1.1054
#
#
#
# Elastic Compliance Matrix: (Units=1/GPa)
#
#
# Indices 1 2 3 4 5 6 
#
# 1 0.010385 -0.005226 -0.005704 0.000000 0.000000 0.000000
# 2 -0.005226 0.023720 -0.001934 0.000000 0.000000 0.000000
# 3 -0.005704 -0.001934 0.012048 0.000000 0.000000 0.000000
# 4 0.000000 0.000000 0.000000 0.076030 0.000000 0.000000
# 5 0.000000 0.000000 0.000000 0.000000 0.041577 0.000000
# 6 0.000000 0.000000 0.000000 0.000000 0.000000 -0.904659
#
#
# Mechanical properties :
#
#
# Convention : Reuss Voigt Hill
#
# Bulk Modulus (GPa) = 48.96293 73.45426 61.20860
# Shear Modulus (GPa) = -7.05852 19.84422 6.39285
#
# Velocity S-wave (km/s) = -1.93866 3.25059 1.84498
# Velocity P-wave (km/s) = 4.58909 7.29385 6.09344
#
# Compressibility (1/GPa) = 0.02042361
#
# Stress axis : x y z
#
# Youngs Moduli (GPa) = 96.29730 42.15931 83.00256
#
# Poissons Ratio (x) = 0.22034 0.47345
# Poissons Ratio (y) = 0.50328 0.16050
# Poissons Ratio (z) = 0.54929 0.08152
#
# Static dielectric constant tensor:
#      x y z
#    x 3.532950 0.000000 0.000000 
#    y 0.000000 3.098900 0.000000 
#    z 0.000000 0.000000 3.574490 
# 
# 
# High freq. dielectric constant tensor:
#      x y z
#    x 1.723490 0.000000 0.000000 
#    y 0.000000 1.694480 0.000000 
#    z 0.000000 0.000000 1.743850 
# 
# From -- ./inp_files/10848.got.cif
#   From: 2010.03.12/outbox.cif.g09.slc.cpg/sg65_6_cif.got.tgz:10848.got - 2010.04.10 20:52:16.
