data_PCOD8270890
_publ_section_title
;
Structure prediction by ZEFSAII (Michael W. Deem and Ramdas Pophale) SiO2 
 PCOD8270890
Probable space group: C M M M
;
_chemical_formula_sum "Si O2"
_cell_formula_units_Z 88
_cell_length_a 23.604175
_cell_length_b 8.801780
_cell_length_c 22.464382
_cell_angle_alpha 90.000000
_cell_angle_beta 90.000000
_cell_angle_gamma 90.000000
_cell_volume 4667.172046
_symmetry_space_group_name_H-M "C M M M"
_symmetry_group_IT_number 65
_symmetry_cell_setting 'orthorhombic'
loop_
_space_group_symop_operation_xyz
x,y,z
-x,-y,z
x,-y,-z
-x,y,-z
-x,-y,-z
x,y,-z
-x,y,z
x,-y,z
1/2+x,1/2+y,z
1/2-x,1/2-y,z
1/2+x,1/2-y,-z
1/2-x,1/2+y,-z
1/2-x,1/2-y,-z
1/2+x,1/2+y,-z
1/2-x,1/2+y,z
1/2+x,1/2-y,z
loop_
_atom_site_type_symbol
_atom_site_label
_atom_site_fract_x
_atom_site_fract_y
_atom_site_fract_z
Si Si1 0.876157 0.671809 0.165753
Si Si2 0.433293 0.819035 0.500000
Si Si3 0.500000 0.325195 0.682449
Si Si4 0.389548 0.682074 0.380731
Si Si5 0.500000 0.832144 0.199930
Si Si6 0.188761 0.680137 0.714671
Si Si7 0.308022 0.677663 0.933409
O O1 0.855788 0.500000 0.153885
O O2 0.943869 0.685878 0.160924
O O3 0.852316 0.724815 0.230086
O O4 0.856372 0.778619 0.112649
O O5 0.500000 0.766085 0.500000
O O6 0.397180 0.751479 0.445765
O O7 0.430205 0.000000 0.500000
O O8 0.500000 0.500000 0.666418
O O9 0.443807 0.253148 0.654735
O O10 0.500000 0.300367 0.752241
O O11 0.385257 0.500000 0.383672
O O12 0.334746 0.747221 0.346551
O O13 0.500000 0.000000 0.230686
O O14 0.193281 0.500000 0.706732
O O15 0.250000 0.750000 0.728280
O O16 0.299918 0.500000 0.933647
O O17 0.250000 0.750000 0.910259
O O18 0.323123 0.736765 0.000000
#
# Coordination Sequence:
#
# PCOD8270890 Si02
#       7
#    16   8   8  16   8  16  16
#     4  10  21  36  58  86 116 150 188 232 281 336
#     4  11  23  37  58  87 118 153 191 232 282 338
#     4  10  20  33  55  85 116 150 185 229 285 334
#     4  11  22  38  59  86 118 151 190 235 284 337
#     4  10  20  36  56  84 118 151 186 228 281 336
#     4  11  23  39  59  85 116 151 191 236 285 338
#     4  10  21  37  58  83 112 148 191 238 285 334
#
# _framework density 18.8551
#
# number of rings (size 3 to 8) (size 9 to 14) (size 15 to 20)
#    0.000    1.545    2.727    2.455    0.000    5.818 
#    0.000    0.909    0.000    2.727    0.000    0.000 
#    0.000    0.000    0.000    0.000    0.000    0.000 
#
# Total GULP energy -545585.049043 kJ/mol
# GULP energy per Si atom -12399.660206 kJ/mol
# Density = 1.881218 g / cm^3
# Si number density = 18.855100 Si / 1000 Ang^3
#
#
#
# Elastic Constant Matrix: (Units=GPa)
#
#
# Indices 1 2 3 4 5 6 
#
# 1 118.3402 40.2283 50.8763 0.0000 0.0000 0.0000
# 2 40.2283 77.8904 42.3874 0.0000 0.0000 0.0000
# 3 50.8763 42.3874 110.5008 0.0000 0.0000 0.0000
# 4 0.0000 0.0000 0.0000 33.3370 0.0000 0.0000
# 5 0.0000 0.0000 0.0000 0.0000 27.9822 0.0000
# 6 0.0000 0.0000 0.0000 0.0000 0.0000 28.7381
#
#
#
# Elastic Compliance Matrix: (Units=1/GPa)
#
#
# Indices 1 2 3 4 5 6 
#
# 1 0.011369 -0.003821 -0.003769 0.000000 0.000000 0.000000
# 2 -0.003821 0.017510 -0.004957 0.000000 0.000000 0.000000
# 3 -0.003769 -0.004957 0.012687 0.000000 0.000000 0.000000
# 4 0.000000 0.000000 0.000000 0.029997 0.000000 0.000000
# 5 0.000000 0.000000 0.000000 0.000000 0.035737 0.000000
# 6 0.000000 0.000000 0.000000 0.000000 0.000000 0.034797
#
#
# Mechanical properties :
#
#
# Convention : Reuss Voigt Hill
#
# Bulk Modulus (GPa) = 60.71215 63.74613 62.22914
# Shear Modulus (GPa) = 28.95502 29.56075 29.25789
#
# Velocity S-wave (km/s) = 3.92300 3.96382 3.94346
# Velocity P-wave (km/s) = 7.26561 7.40480 7.33554
#
# Compressibility (1/GPa) = 0.01647117
#
# Stress axis : x y z
#
# Youngs Moduli (GPa) = 87.95504 57.11102 78.82313
#
# Poissons Ratio (x) = 0.21822 0.29708
# Poissons Ratio (y) = 0.33607 0.39076
# Poissons Ratio (z) = 0.33150 0.28312
#
# Static dielectric constant tensor:
#      x y z
#    x 3.517460 0.000000 0.000000 
#    y 0.000000 3.444290 0.000000 
#    z 0.000000 0.000000 3.411160 
# 
# 
# High freq. dielectric constant tensor:
#      x y z
#    x 1.730210 0.000000 0.000000 
#    y 0.000000 1.737370 0.000000 
#    z 0.000000 0.000000 1.727720 
# 
# From -- ./inp_files/71055.got.cif
#   From: 2010.03.12/outbox.cif.g09.slc.cpg/sg65_36_cif.got.tgz:71055.got - 2010.04.10 20:52:16.
