data_PCOD8270335
_publ_section_title
;
Structure prediction by ZEFSAII (Michael W. Deem and Ramdas Pophale) SiO2 
 PCOD8270335
Probable space group: C M M M
;
_chemical_formula_sum "Si O2"
_cell_formula_units_Z 104
_cell_length_a 20.154612
_cell_length_b 32.571208
_cell_length_c 9.014858
_cell_angle_alpha 90.000000
_cell_angle_beta 90.000000
_cell_angle_gamma 90.000000
_cell_volume 5917.894220
_symmetry_space_group_name_H-M "C M M M"
_symmetry_group_IT_number 65
_symmetry_cell_setting 'orthorhombic'
loop_
_space_group_symop_operation_xyz
x,y,z
-x,-y,z
x,-y,-z
-x,y,-z
-x,-y,-z
x,y,-z
-x,y,z
x,-y,z
1/2+x,1/2+y,z
1/2-x,1/2-y,z
1/2+x,1/2-y,-z
1/2-x,1/2+y,-z
1/2-x,1/2-y,-z
1/2+x,1/2+y,-z
1/2-x,1/2+y,z
1/2+x,1/2-y,z
loop_
_atom_site_type_symbol
_atom_site_label
_atom_site_fract_x
_atom_site_fract_y
_atom_site_fract_z
Si Si1 0.868916 0.912816 0.170684
Si Si2 0.000000 0.955796 0.175630
Si Si3 0.425020 0.814236 0.670108
Si Si4 0.268032 0.953789 0.170675
Si Si5 0.308095 0.872580 0.326387
Si Si6 0.424555 0.729331 0.175107
Si Si7 0.671804 0.665774 0.673542
O O1 0.935115 0.933100 0.229716
O O2 0.810123 0.945529 0.188810
O O3 0.864903 0.875598 0.283732
O O4 0.873152 0.897204 0.000000
O O5 0.000000 0.000000 0.251713
O O6 0.000000 0.959761 0.000000
O O7 0.411098 0.801168 0.500000
O O8 0.500000 0.830376 0.689825
O O9 0.376868 0.851152 0.718665
O O10 0.411315 0.775613 0.774172
O O11 0.307858 0.917723 0.253424
O O12 0.283112 0.000000 0.232837
O O13 0.289389 0.951773 0.000000
O O14 0.301233 0.880276 0.500000
O O15 0.248448 0.841823 0.274803
O O16 0.500000 0.715825 0.223590
O O17 0.365505 0.702629 0.244319
O O18 0.417954 0.726647 0.000000
O O19 0.667243 0.674859 0.500000
#
# Coordination Sequence:
#
# PCOD8270335 Si02
#       7
#    16   8  16  16  16  16  16
#     4   9  17  29  45  66  93 125 163 207 248 286
#     4   9  16  26  43  65  87 117 159 205 251 291
#     4   9  18  35  57  77  98 126 160 198 245 298
#     4   9  17  30  49  72  98 129 165 203 242 289
#     4   9  19  34  52  76 102 128 161 201 245 295
#     4  10  21  35  51  72  99 131 169 207 242 285
#     4  10  20  33  48  69  99 132 165 201 245 291
#
# _framework density 17.573819
#
# number of rings (size 3 to 8) (size 9 to 14) (size 15 to 20)
#    0.000    2.692    0.000    1.385    1.077    4.923 
#    0.000    3.077    0.000    2.308    0.000    3.231 
#    0.000    0.000    0.000    0.000    0.000    0.000 
#
# Total GULP energy -644476.894113 kJ/mol
# GULP energy per Si atom -12393.786425 kJ/mol
# Density = 1.753382 g / cm^3
# Si number density = 17.573819 Si / 1000 Ang^3
#
#
#
# Elastic Constant Matrix: (Units=GPa)
#
#
# Indices 1 2 3 4 5 6 
#
# 1 111.0561 78.2598 33.4606 0.0000 0.0000 0.0000
# 2 78.2598 121.5287 42.5306 0.0000 0.0000 0.0000
# 3 33.4606 42.5306 47.4620 0.0000 0.0000 0.0000
# 4 0.0000 0.0000 0.0000 41.1799 0.0000 0.0000
# 5 0.0000 0.0000 0.0000 0.0000 20.6480 0.0000
# 6 0.0000 0.0000 0.0000 0.0000 0.0000 -0.2885
#
#
#
# Elastic Compliance Matrix: (Units=1/GPa)
#
#
# Indices 1 2 3 4 5 6 
#
# 1 0.016799 -0.009722 -0.003131 0.000000 0.000000 0.000000
# 2 -0.009722 0.017614 -0.008930 0.000000 0.000000 0.000000
# 3 -0.003131 -0.008930 0.031279 0.000000 0.000000 0.000000
# 4 0.000000 0.000000 0.000000 0.024284 0.000000 0.000000
# 5 0.000000 0.000000 0.000000 0.000000 0.048431 0.000000
# 6 0.000000 0.000000 0.000000 0.000000 0.000000 -3.465650
#
#
# Mechanical properties :
#
#
# Convention : Reuss Voigt Hill
#
# Bulk Modulus (GPa) = 45.19648 65.39429 55.29539
# Shear Modulus (GPa) = -1.52611 20.69425 9.58407
#
# Velocity S-wave (km/s) = -0.93289 3.43528 2.33783
# Velocity P-wave (km/s) = 4.96120 7.28196 6.23059
#
# Compressibility (1/GPa) = 0.02212562
#
# Stress axis : x y z
#
# Youngs Moduli (GPa) = 59.52789 56.77202 31.96991
#
# Poissons Ratio (x) = 0.55193 0.10011
# Poissons Ratio (y) = 0.57873 0.28550
# Poissons Ratio (z) = 0.18640 0.50698
#
# Static dielectric constant tensor:
#      x y z
#    x 3.370310 0.000000 0.000000 
#    y 0.000000 3.262200 0.000000 
#    z 0.000000 0.000000 3.163850 
# 
# 
# High freq. dielectric constant tensor:
#      x y z
#    x 1.672730 0.000000 0.000000 
#    y 0.000000 1.675500 0.000000 
#    z 0.000000 0.000000 1.668770 
# 
# From -- ./inp_files/12768.got.cif
#   From: 2010.03.12/outbox.cif.g09.slc.cpg/sg65_7_cif.got.tgz:12768.got - 2010.04.10 20:52:16.
