data_PCOD8270802
_publ_section_title
;
Structure prediction by ZEFSAII (Michael W. Deem and Ramdas Pophale) SiO2 
 PCOD8270802
Probable space group: C M M M
;
_chemical_formula_sum "Si O2"
_cell_formula_units_Z 104
_cell_length_a 9.438907
_cell_length_b 19.678014
_cell_length_c 29.470947
_cell_angle_alpha 90.000000
_cell_angle_beta 90.000000
_cell_angle_gamma 90.000000
_cell_volume 5473.902577
_symmetry_space_group_name_H-M "C M M M"
_symmetry_group_IT_number 65
_symmetry_cell_setting 'orthorhombic'
loop_
_space_group_symop_operation_xyz
x,y,z
-x,-y,z
x,-y,-z
-x,y,-z
-x,-y,-z
x,y,-z
-x,y,z
x,-y,z
1/2+x,1/2+y,z
1/2-x,1/2-y,z
1/2+x,1/2-y,-z
1/2-x,1/2+y,-z
1/2-x,1/2-y,-z
1/2+x,1/2+y,-z
1/2-x,1/2+y,z
1/2+x,1/2-y,z
loop_
_atom_site_type_symbol
_atom_site_label
_atom_site_fract_x
_atom_site_fract_y
_atom_site_fract_z
Si Si1 0.838517 0.813009 0.856985
Si Si2 0.835599 0.816555 0.285543
Si Si3 0.334218 0.682710 0.390444
Si Si4 0.660711 0.079049 0.552471
Si Si5 0.843872 0.500000 0.946418
Si Si6 0.839069 0.125872 0.949172
Si Si7 0.332885 0.424088 0.787657
O O1 0.750000 0.750000 0.838037
O O2 0.821178 0.815546 0.911744
O O3 0.786738 0.882663 0.832924
O O4 0.000000 0.799128 0.843175
O O5 0.750000 0.750000 0.270223
O O6 0.807229 0.833946 0.337847
O O7 0.782759 0.881366 0.256399
O O8 0.000000 0.801242 0.276145
O O9 0.500000 0.692937 0.401096
O O10 0.250000 0.750000 0.405311
O O11 0.274731 0.619740 0.418489
O O12 0.683238 0.097387 0.500000
O O13 0.500000 0.097704 0.567106
O O14 0.689490 0.000000 0.561057
O O15 0.760098 0.433822 0.930968
O O16 0.000000 0.500000 0.924227
O O17 0.854952 0.500000 0.000000
O O18 0.000000 0.098609 0.949665
O O19 0.796999 0.151775 0.000000
O O20 0.500000 0.432972 0.786523
O O21 0.263475 0.500000 0.787925
#
# Coordination Sequence:
#
# PCOD8270802 Si02
#       7
#    16  16  16  16   8  16  16
#     4  10  21  35  54  76 101 136 173 210 255 306
#     4   9  18  33  54  78 104 135 168 210 260 310
#     4  10  20  33  52  79 108 139 177 219 265 316
#     4   9  19  36  55  75 104 143 183 223 269 317
#     4   9  17  29  47  73 101 129 161 201 251 295
#     4   9  18  32  50  73 101 134 172 210 249 300
#     4   9  18  33  54  78 102 131 170 212 253 305
#
# _framework density 18.999241999999999
#
# number of rings (size 3 to 8) (size 9 to 14) (size 15 to 20)
#    0.000    2.692    0.000    1.615    1.077    4.000 
#    0.000    2.308    0.000    1.385    0.000    0.000 
#    0.000    0.000    0.000    0.000    0.000    0.000 
#
# Total GULP energy -644599.907234 kJ/mol
# GULP energy per Si atom -12396.152062 kJ/mol
# Density = 1.895600 g / cm^3
# Si number density = 18.999242 Si / 1000 Ang^3
#
#
#
# Elastic Constant Matrix: (Units=GPa)
#
#
# Indices 1 2 3 4 5 6 
#
# 1 80.5053 55.9699 38.8666 0.0000 0.0000 0.0000
# 2 55.9699 137.1292 61.3005 0.0000 0.0000 0.0000
# 3 38.8666 61.3005 93.6804 0.0000 0.0000 0.0000
# 4 0.0000 0.0000 0.0000 26.3175 0.0000 0.0000
# 5 0.0000 0.0000 0.0000 0.0000 15.4153 0.0000
# 6 0.0000 0.0000 0.0000 0.0000 0.0000 44.6935
#
#
#
# Elastic Compliance Matrix: (Units=1/GPa)
#
#
# Indices 1 2 3 4 5 6 
#
# 1 0.018259 -0.005747 -0.003815 0.000000 0.000000 0.000000
# 2 -0.005747 0.012117 -0.005544 0.000000 0.000000 0.000000
# 3 -0.003815 -0.005544 0.015885 0.000000 0.000000 0.000000
# 4 0.000000 0.000000 0.000000 0.037998 0.000000 0.000000
# 5 0.000000 0.000000 0.000000 0.000000 0.064870 0.000000
# 6 0.000000 0.000000 0.000000 0.000000 0.000000 0.022375
#
#
# Mechanical properties :
#
#
# Convention : Reuss Voigt Hill
#
# Bulk Modulus (GPa) = 62.31084 69.28768 65.79926
# Shear Modulus (GPa) = 24.14710 27.63046 25.88878
#
# Velocity S-wave (km/s) = 3.56891 3.81766 3.69538
# Velocity P-wave (km/s) = 7.06049 7.48201 7.27430
#
# Compressibility (1/GPa) = 0.01604857
#
# Stress axis : x y z
#
# Youngs Moduli (GPa) = 54.76814 82.53207 62.95231
#
# Poissons Ratio (x) = 0.47433 0.24014
# Poissons Ratio (y) = 0.31476 0.34901
# Poissons Ratio (z) = 0.20892 0.45757
#
# Static dielectric constant tensor:
#      x y z
#    x 3.436540 0.000000 0.000000 
#    y 0.000000 3.438450 0.000000 
#    z 0.000000 0.000000 3.469420 
# 
# 
# High freq. dielectric constant tensor:
#      x y z
#    x 1.720730 0.000000 0.000000 
#    y 0.000000 1.731070 0.000000 
#    z 0.000000 0.000000 1.740600 
# 
# From -- ./inp_files/73363.got.cif
#   From: 2010.03.12/outbox.cif.g09.slc.cpg/sg65_37_cif.got.tgz:73363.got - 2010.04.10 20:52:16.
