data_PCOD8270123
_publ_section_title
;
Structure prediction by ZEFSAII (Michael W. Deem and Ramdas Pophale) SiO2 
 PCOD8270123
Probable space group: C M M M
;
_chemical_formula_sum "Si O2"
_cell_formula_units_Z 96
_cell_length_a 9.370262
_cell_length_b 30.702855
_cell_length_c 18.808933
_cell_angle_alpha 90.000000
_cell_angle_beta 90.000000
_cell_angle_gamma 90.000000
_cell_volume 5411.213324
_symmetry_space_group_name_H-M "C M M M"
_symmetry_group_IT_number 65
_symmetry_cell_setting 'orthorhombic'
loop_
_space_group_symop_operation_xyz
x,y,z
-x,-y,z
x,-y,-z
-x,y,-z
-x,-y,-z
x,y,-z
-x,y,z
x,-y,z
1/2+x,1/2+y,z
1/2-x,1/2-y,z
1/2+x,1/2-y,-z
1/2-x,1/2+y,-z
1/2-x,1/2-y,-z
1/2+x,1/2+y,-z
1/2-x,1/2+y,z
1/2+x,1/2-y,z
loop_
_atom_site_type_symbol
_atom_site_label
_atom_site_fract_x
_atom_site_fract_y
_atom_site_fract_z
Si Si1 0.833820 0.706998 0.418252
Si Si2 0.830813 0.377661 0.834593
Si Si3 0.165102 0.949850 0.918239
Si Si4 0.330330 0.126086 0.673152
Si Si5 0.169853 0.548206 0.579585
Si Si6 0.665808 0.792193 0.082396
O O1 0.804314 0.694119 0.500000
O O2 0.750000 0.750000 0.395851
O O3 0.774712 0.668489 0.368490
O O4 0.000000 0.715798 0.405130
O O5 0.761567 0.420216 0.868391
O O6 0.776343 0.373163 0.753910
O O7 0.779799 0.334427 0.875487
O O8 0.000000 0.383338 0.839551
O O9 0.000000 0.938833 0.904836
O O10 0.196823 0.000000 0.899148
O O11 0.205336 0.940688 0.000000
O O12 0.500000 0.125095 0.670057
O O13 0.266387 0.083296 0.634515
O O14 0.224131 0.559076 0.500000
O O15 0.222265 0.500000 0.602478
O O16 0.000000 0.549928 0.580359
O O17 0.500000 0.783461 0.096394
O O18 0.750000 0.750000 0.110533
O O19 0.699035 0.800752 0.000000
#
# Coordination Sequence:
#
# PCOD8270123 Si02
#       6
#    16  16  16  16  16  16
#     4   9  17  30  48  68  92 125 164 203 240 279
#     4  10  20  32  48  73 102 127 154 195 245 291
#     4   9  19  36  55  73  95 126 163 198 232 279
#     4   9  17  28  42  64  95 126 153 186 234 285
#     4   8  13  22  38  60  86 118 155 190 222 262
#     4   9  18  32  48  66  89 118 153 191 230 275
#
# _framework density 17.740939000000001
#
# number of rings (size 3 to 8) (size 9 to 14) (size 15 to 20)
#    0.000    3.000    0.000    2.000    0.000    5.333 
#    0.000    5.000    0.000    0.000    0.000    0.000 
#    0.000    0.000    0.000   11.500    0.000   10.333 
#
# Total GULP energy -595145.730904 kJ/mol
# GULP energy per Si atom -12398.869394 kJ/mol
# Density = 1.770056 g / cm^3
# Si number density = 17.740939 Si / 1000 Ang^3
#
#
#
# Elastic Constant Matrix: (Units=GPa)
#
#
# Indices 1 2 3 4 5 6 
#
# 1 28.5079 41.2434 31.8319 0.0000 0.0000 0.0000
# 2 41.2434 163.5601 96.9976 0.0000 0.0000 0.0000
# 3 31.8319 96.9976 123.5958 0.0000 0.0000 0.0000
# 4 0.0000 0.0000 0.0000 16.5156 0.0000 0.0000
# 5 0.0000 0.0000 0.0000 0.0000 14.2685 0.0000
# 6 0.0000 0.0000 0.0000 0.0000 0.0000 29.2839
#
#
#
# Elastic Compliance Matrix: (Units=1/GPa)
#
#
# Indices 1 2 3 4 5 6 
#
# 1 0.057853 -0.010760 -0.006456 0.000000 0.000000 0.000000
# 2 -0.010760 0.013438 -0.007775 0.000000 0.000000 0.000000
# 3 -0.006456 -0.007775 0.015855 0.000000 0.000000 0.000000
# 4 0.000000 0.000000 0.000000 0.060549 0.000000 0.000000
# 5 0.000000 0.000000 0.000000 0.000000 0.070084 0.000000
# 6 0.000000 0.000000 0.000000 0.000000 0.000000 0.034148
#
#
# Mechanical properties :
#
#
# Convention : Reuss Voigt Hill
#
# Bulk Modulus (GPa) = 26.90671 72.86773 49.88722
# Shear Modulus (GPa) = 15.90853 21.71968 18.81410
#
# Velocity S-wave (km/s) = 2.99776 3.50275 3.26005
# Velocity P-wave (km/s) = 5.21359 7.58429 6.50780
#
# Compressibility (1/GPa) = 0.03716545
#
# Stress axis : x y z
#
# Youngs Moduli (GPa) = 17.28520 74.41605 63.07041
#
# Poissons Ratio (x) = 0.80069 0.40717
# Poissons Ratio (y) = 0.18598 0.49037
# Poissons Ratio (z) = 0.11159 0.57858
#
# Static dielectric constant tensor:
#      x y z
#    x 2.856680 0.000000 0.000000 
#    y 0.000000 3.479420 0.000000 
#    z 0.000000 0.000000 3.409940 
# 
# 
# High freq. dielectric constant tensor:
#      x y z
#    x 1.640700 0.000000 0.000000 
#    y 0.000000 1.700040 0.000000 
#    z 0.000000 0.000000 1.686490 
# 
# From -- ./inp_files/51682.got.cif
#   From: 2010.03.12/outbox.cif.g09.slc.cpg/sg65_26_cif.got.tgz:51682.got - 2010.04.10 20:52:16.
