data_PCOD8270056
_publ_section_title
;
Structure prediction by ZEFSAII (Michael W. Deem and Ramdas Pophale) SiO2 
 PCOD8270056
Probable space group: C M M M
;
_chemical_formula_sum "Si O2"
_cell_formula_units_Z 88
_cell_length_a 18.383372
_cell_length_b 9.423447
_cell_length_c 28.356416
_cell_angle_alpha 90.000000
_cell_angle_beta 90.000000
_cell_angle_gamma 90.000000
_cell_volume 4912.316118
_symmetry_space_group_name_H-M "C M M M"
_symmetry_group_IT_number 65
_symmetry_cell_setting 'orthorhombic'
loop_
_space_group_symop_operation_xyz
x,y,z
-x,-y,z
x,-y,-z
-x,y,-z
-x,-y,-z
x,y,-z
-x,y,z
x,-y,z
1/2+x,1/2+y,z
1/2-x,1/2-y,z
1/2+x,1/2-y,-z
1/2-x,1/2+y,-z
1/2-x,1/2-y,-z
1/2+x,1/2+y,-z
1/2-x,1/2+y,z
1/2+x,1/2-y,z
loop_
_atom_site_type_symbol
_atom_site_label
_atom_site_fract_x
_atom_site_fract_y
_atom_site_fract_z
Si Si1 0.918319 0.668137 0.500000
Si Si2 0.583730 0.663599 0.770574
Si Si3 0.174783 0.332347 0.410849
Si Si4 0.175961 0.167534 0.138465
Si Si5 0.416585 0.834759 0.680368
Si Si6 0.918828 0.168318 0.947728
O O1 0.924291 0.500000 0.500000
O O2 0.875202 0.720231 0.453959
O O3 0.000000 0.733032 0.500000
O O4 0.500000 0.698622 0.781098
O O5 0.595465 0.500000 0.757938
O O6 0.627368 0.707854 0.816802
O O7 0.612671 0.752615 0.726160
O O8 0.189870 0.500000 0.413631
O O9 0.250000 0.250000 0.413036
O O10 0.132931 0.289585 0.363386
O O11 0.250000 0.250000 0.144002
O O12 0.136007 0.226968 0.091655
O O13 0.190505 0.000000 0.135312
O O14 0.500000 0.793343 0.668864
O O15 0.409536 0.000000 0.691222
O O16 0.000000 0.228747 0.938597
O O17 0.922104 0.000000 0.943968
O O18 0.891856 0.214684 0.000000
#
# Coordination Sequence:
#
# PCOD8270056 Si02
#       6
#     8  16  16  16  16  16
#     4   9  17  32  55  77  96 125 166 204 236 277
#     4   9  18  33  52  71  92 123 163 203 239 276
#     4  10  20  33  51  75 102 130 159 195 239 286
#     4  10  20  32  47  70  99 127 156 193 237 285
#     4   9  18  33  52  73  96 124 161 201 238 279
#     4   8  14  27  49  73  93 118 157 200 236 274
#
# _framework density 17.914156999999999
#
# number of rings (size 3 to 8) (size 9 to 14) (size 15 to 20)
#    0.000    2.818    0.000    1.909    0.000    6.909 
#    0.000    3.636    0.000    3.818    0.000    1.273 
#    0.000    0.000    0.000    0.000    0.000    0.000 
#
# Total GULP energy -545569.870588 kJ/mol
# GULP energy per Si atom -12399.315241 kJ/mol
# Density = 1.787338 g / cm^3
# Si number density = 17.914157 Si / 1000 Ang^3
#
#
#
# Elastic Constant Matrix: (Units=GPa)
#
#
# Indices 1 2 3 4 5 6 
#
# 1 127.9508 43.7361 96.9507 0.0000 0.0000 0.0000
# 2 43.7361 31.5568 51.1323 0.0000 0.0000 0.0000
# 3 96.9507 51.1323 184.2069 0.0000 0.0000 0.0000
# 4 0.0000 0.0000 0.0000 20.3666 0.0000 0.0000
# 5 0.0000 0.0000 0.0000 0.0000 12.9148 0.0000
# 6 0.0000 0.0000 0.0000 0.0000 0.0000 28.7174
#
#
#
# Elastic Compliance Matrix: (Units=1/GPa)
#
#
# Indices 1 2 3 4 5 6 
#
# 1 0.016496 -0.015984 -0.004245 0.000000 0.000000 0.000000
# 2 -0.015984 0.073080 -0.011873 0.000000 0.000000 0.000000
# 3 -0.004245 -0.011873 0.010959 0.000000 0.000000 0.000000
# 4 0.000000 0.000000 0.000000 0.049100 0.000000 0.000000
# 5 0.000000 0.000000 0.000000 0.000000 0.077431 0.000000
# 6 0.000000 0.000000 0.000000 0.000000 0.000000 0.034822
#
#
# Mechanical properties :
#
#
# Convention : Reuss Voigt Hill
#
# Bulk Modulus (GPa) = 27.52525 80.81698 54.17111
# Shear Modulus (GPa) = 14.78413 22.52611 18.65512
#
# Velocity S-wave (km/s) = 2.87588 3.54990 3.23051
# Velocity P-wave (km/s) = 5.14062 7.87488 6.64980
#
# Compressibility (1/GPa) = 0.03633028
#
# Stress axis : x y z
#
# Youngs Moduli (GPa) = 60.62208 13.68370 91.25164
#
# Poissons Ratio (x) = 0.21871 0.38738
# Poissons Ratio (y) = 0.96896 1.08344
# Poissons Ratio (z) = 0.25735 0.16247
#
# Static dielectric constant tensor:
#      x y z
#    x 3.342770 0.000000 0.000000 
#    y 0.000000 2.977240 0.000000 
#    z 0.000000 0.000000 3.617520 
# 
# 
# High freq. dielectric constant tensor:
#      x y z
#    x 1.694570 0.000000 0.000000 
#    y 0.000000 1.655410 0.000000 
#    z 0.000000 0.000000 1.711300 
# 
# From -- ./inp_files/74267.got.cif
#   From: 2010.03.12/outbox.cif.g09.slc.cpg/sg65_38_cif.got.tgz:74267.got - 2010.04.10 20:52:16.
