data_PCOD8270868
_publ_section_title
;
Structure prediction by ZEFSAII (Michael W. Deem and Ramdas Pophale) SiO2 
 PCOD8270868
Probable space group: C M M M
;
_chemical_formula_sum "Si O2"
_cell_formula_units_Z 104
_cell_length_a 28.774334
_cell_length_b 8.636597
_cell_length_c 20.554028
_cell_angle_alpha 90.000000
_cell_angle_beta 90.000000
_cell_angle_gamma 90.000000
_cell_volume 5107.929321
_symmetry_space_group_name_H-M "C M M M"
_symmetry_group_IT_number 65
_symmetry_cell_setting 'orthorhombic'
loop_
_space_group_symop_operation_xyz
x,y,z
-x,-y,z
x,-y,-z
-x,y,-z
-x,-y,-z
x,y,-z
-x,y,z
x,-y,z
1/2+x,1/2+y,z
1/2-x,1/2-y,z
1/2+x,1/2-y,-z
1/2-x,1/2+y,-z
1/2-x,1/2-y,-z
1/2+x,1/2+y,-z
1/2-x,1/2+y,z
1/2+x,1/2-y,z
loop_
_atom_site_type_symbol
_atom_site_label
_atom_site_fract_x
_atom_site_fract_y
_atom_site_fract_z
Si Si1 0.051125 0.677950 0.887643
Si Si2 0.500000 0.175667 0.577353
Si Si3 0.698819 0.816049 0.190482
Si Si4 0.403280 0.682188 0.572806
Si Si5 0.862404 0.678190 0.689989
Si Si6 0.948335 0.822480 0.250256
Si Si7 0.858460 0.178816 0.071820
O O1 0.061057 0.500000 0.867493
O O2 0.052364 0.789143 0.825829
O O3 0.091349 0.739022 0.934735
O O4 0.000000 0.690627 0.921060
O O5 0.500000 0.183185 0.500000
O O6 0.547163 0.259691 0.601573
O O7 0.500000 0.000000 0.603026
O O8 0.750000 0.750000 0.190167
O O9 0.673710 0.755036 0.256481
O O10 0.672715 0.759912 0.126111
O O11 0.699580 0.000000 0.189373
O O12 0.394176 0.747731 0.500000
O O13 0.404989 0.500000 0.571658
O O14 0.360836 0.736515 0.619743
O O15 0.852056 0.500000 0.677459
O O16 0.914150 0.702402 0.716222
O O17 0.000000 0.793944 0.278686
O O18 0.932446 0.000000 0.262369
O O19 0.864384 0.000000 0.090866
O O20 0.835231 0.195437 0.000000
#
# Coordination Sequence:
#
# PCOD8270868 Si02
#       7
#    16   8  16  16  16  16  16
#     4  10  20  35  56  84 121 163 205 248 294 347
#     4   9  17  31  51  77 115 163 208 249 292 341
#     4  11  25  45  69  94 119 150 191 245 307 368
#     4  10  21  36  55  82 119 162 205 247 293 348
#     4  11  23  38  60  89 119 155 199 245 299 356
#     4  10  20  33  53  82 117 158 201 245 294 347
#     4  11  24  41  63  91 123 160 201 246 298 356
#
# _framework density 20.360500999999999
#
# number of rings (size 3 to 8) (size 9 to 14) (size 15 to 20)
#    0.000    1.615    1.538    3.000    1.077    7.385 
#    0.000    1.538    0.000    0.462    0.000    0.000 
#    0.000    0.000    0.000    0.000    0.000    0.000 
#
# Total GULP energy -644624.127567 kJ/mol
# GULP energy per Si atom -12396.617838 kJ/mol
# Density = 2.031416 g / cm^3
# Si number density = 20.360501 Si / 1000 Ang^3
#
#
#
# Elastic Constant Matrix: (Units=GPa)
#
#
# Indices 1 2 3 4 5 6 
#
# 1 111.9947 41.2442 65.6004 0.0000 0.0000 0.0000
# 2 41.2442 73.1988 26.0021 0.0000 0.0000 0.0000
# 3 65.6004 26.0021 118.5670 0.0000 0.0000 0.0000
# 4 0.0000 0.0000 0.0000 29.6346 0.0000 0.0000
# 5 0.0000 0.0000 0.0000 0.0000 15.3427 0.0000
# 6 0.0000 0.0000 0.0000 0.0000 0.0000 31.0100
#
#
#
# Elastic Compliance Matrix: (Units=1/GPa)
#
#
# Indices 1 2 3 4 5 6 
#
# 1 0.015382 -0.006121 -0.007168 0.000000 0.000000 0.000000
# 2 -0.006121 0.017251 -0.000397 0.000000 0.000000 0.000000
# 3 -0.007168 -0.000397 0.012487 0.000000 0.000000 0.000000
# 4 0.000000 0.000000 0.000000 0.033744 0.000000 0.000000
# 5 0.000000 0.000000 0.000000 0.000000 0.065177 0.000000
# 6 0.000000 0.000000 0.000000 0.000000 0.000000 0.032248
#
#
# Mechanical properties :
#
#
# Convention : Reuss Voigt Hill
#
# Bulk Modulus (GPa) = 56.34190 63.27264 59.80727
# Shear Modulus (GPa) = 23.85764 26.59172 25.22468
#
# Velocity S-wave (km/s) = 3.42681 3.61784 3.52362
# Velocity P-wave (km/s) = 6.58708 6.97104 6.78178
#
# Compressibility (1/GPa) = 0.01774878
#
# Stress axis : x y z
#
# Youngs Moduli (GPa) = 65.01243 57.96746 80.08326
#
# Poissons Ratio (x) = 0.35479 0.57404
# Poissons Ratio (y) = 0.39791 0.03178
# Poissons Ratio (z) = 0.46601 0.02300
#
# Static dielectric constant tensor:
#      x y z
#    x 3.637570 0.000000 0.000000 
#    y 0.000000 3.712980 0.000000 
#    z 0.000000 0.000000 3.923480 
# 
# 
# High freq. dielectric constant tensor:
#      x y z
#    x 1.763780 0.000000 0.000000 
#    y 0.000000 1.803850 0.000000 
#    z 0.000000 0.000000 1.805770 
# 
# From -- ./inp_files/60369.got.cif
#   From: 2010.03.12/outbox.cif.g09.slc.cpg/sg65_31_cif.got.tgz:60369.got - 2010.04.10 20:52:16.
