data_PCOD8270088
_publ_section_title
;
Structure prediction by ZEFSAII (Michael W. Deem and Ramdas Pophale) SiO2 
 PCOD8270088
Probable space group: C M M M
;
_chemical_formula_sum "Si O2"
_cell_formula_units_Z 88
_cell_length_a 8.779495
_cell_length_b 30.708898
_cell_length_c 17.772445
_cell_angle_alpha 90.000000
_cell_angle_beta 90.000000
_cell_angle_gamma 90.000000
_cell_volume 4791.604307
_symmetry_space_group_name_H-M "C M M M"
_symmetry_group_IT_number 65
_symmetry_cell_setting 'orthorhombic'
loop_
_space_group_symop_operation_xyz
x,y,z
-x,-y,z
x,-y,-z
-x,y,-z
-x,-y,-z
x,y,-z
-x,y,z
x,-y,z
1/2+x,1/2+y,z
1/2-x,1/2-y,z
1/2+x,1/2-y,-z
1/2-x,1/2+y,-z
1/2-x,1/2-y,-z
1/2+x,1/2+y,-z
1/2-x,1/2+y,z
1/2+x,1/2-y,z
loop_
_atom_site_type_symbol
_atom_site_label
_atom_site_fract_x
_atom_site_fract_y
_atom_site_fract_z
Si Si1 0.167973 0.000000 0.412429
Si Si2 0.818667 0.548694 0.914933
Si Si3 0.822802 0.826679 0.584703
Si Si4 0.318968 0.205540 0.733128
Si Si5 0.172761 0.383362 0.797161
Si Si6 0.826615 0.587422 0.630700
O O1 0.266673 0.959340 0.389025
O O2 0.143398 0.000000 0.500000
O O3 0.000000 0.000000 0.373790
O O4 0.759464 0.500000 0.892942
O O5 0.746672 0.586382 0.860900
O O6 0.000000 0.548677 0.907250
O O7 0.768733 0.559702 0.000000
O O8 0.787807 0.809711 0.500000
O O9 0.728435 0.799111 0.645665
O O10 0.777224 0.877193 0.589249
O O11 0.000000 0.821854 0.603908
O O12 0.500000 0.206709 0.735775
O O13 0.250000 0.250000 0.766733
O O14 0.254957 0.164975 0.783470
O O15 0.183343 0.409430 0.720127
O O16 0.000000 0.375784 0.822605
O O17 0.000000 0.593569 0.603030
#
# Coordination Sequence:
#
# PCOD8270088 Si02
#       6
#     8  16  16  16  16  16
#     4  11  23  35  45  61  90 127 168 214 257 297
#     4   8  13  22  41  71 105 136 160 188 235 293
#     4  10  20  34  51  70  95 126 159 202 255 306
#     4  10  20  34  51  71  96 128 167 210 253 297
#     4   8  16  29  45  69  99 128 159 198 245 293
#     4  10  20  32  48  69  93 127 167 208 250 295
#
# _framework density 18.365455999999998
#
# number of rings (size 3 to 8) (size 9 to 14) (size 15 to 20)
#    0.000    2.636    0.000    4.091    1.273    4.727 
#    0.000    0.000    0.000    0.545    0.000    0.000 
#    0.000   26.182    0.000    0.000    0.000    0.727 
#
# Total GULP energy -545286.713778 kJ/mol
# GULP energy per Si atom -12392.879859 kJ/mol
# Density = 1.832366 g / cm^3
# Si number density = 18.365456 Si / 1000 Ang^3
#
#
#
# Elastic Constant Matrix: (Units=GPa)
#
#
# Indices 1 2 3 4 5 6 
#
# 1 46.7732 19.9339 24.3499 0.0000 0.0000 0.0000
# 2 19.9339 139.0369 60.6279 0.0000 0.0000 0.0000
# 3 24.3499 60.6279 83.5717 0.0000 0.0000 0.0000
# 4 0.0000 0.0000 0.0000 18.6337 0.0000 0.0000
# 5 0.0000 0.0000 0.0000 0.0000 5.5559 0.0000
# 6 0.0000 0.0000 0.0000 0.0000 0.0000 30.6448
#
#
#
# Elastic Compliance Matrix: (Units=1/GPa)
#
#
# Indices 1 2 3 4 5 6 
#
# 1 0.025237 -0.000602 -0.006916 0.000000 0.000000 0.000000
# 2 -0.000602 0.010535 -0.007467 0.000000 0.000000 0.000000
# 3 -0.006916 -0.007467 0.019398 0.000000 0.000000 0.000000
# 4 0.000000 0.000000 0.000000 0.053666 0.000000 0.000000
# 5 0.000000 0.000000 0.000000 0.000000 0.179988 0.000000
# 6 0.000000 0.000000 0.000000 0.000000 0.000000 0.032632
#
#
# Mechanical properties :
#
#
# Convention : Reuss Voigt Hill
#
# Bulk Modulus (GPa) = 39.68490 53.24502 46.46496
# Shear Modulus (GPa) = 13.89557 21.93155 17.91356
#
# Velocity S-wave (km/s) = 2.75365 3.45943 3.12652
# Velocity P-wave (km/s) = 5.63608 6.70908 6.19585
#
# Compressibility (1/GPa) = 0.02519850
#
# Stress axis : x y z
#
# Youngs Moduli (GPa) = 39.62429 94.92400 51.55190
#
# Poissons Ratio (x) = 0.05718 0.35654
# Poissons Ratio (y) = 0.02387 0.38494
# Poissons Ratio (z) = 0.27405 0.70880
#
# Static dielectric constant tensor:
#      x y z
#    x 3.197160 0.000000 0.000000 
#    y 0.000000 3.985180 0.000000 
#    z 0.000000 0.000000 3.387600 
# 
# 
# High freq. dielectric constant tensor:
#      x y z
#    x 1.684560 0.000000 0.000000 
#    y 0.000000 1.721640 0.000000 
#    z 0.000000 0.000000 1.689990 
# 
# From -- ./inp_files/50307.got.cif
#   From: 2010.03.12/outbox.cif.g09.slc.cpg/sg65_26_cif.got.tgz:50307.got - 2010.04.10 20:52:16.
