data_PCOD8270372
_publ_section_title
;
Structure prediction by ZEFSAII (Michael W. Deem and Ramdas Pophale) SiO2 
 PCOD8270372
Probable space group: C M M M
;
_chemical_formula_sum "Si O2"
_cell_formula_units_Z 88
_cell_length_a 18.194631
_cell_length_b 8.954504
_cell_length_c 28.989812
_cell_angle_alpha 90.000000
_cell_angle_beta 90.000000
_cell_angle_gamma 90.000000
_cell_volume 4723.133117
_symmetry_space_group_name_H-M "C M M M"
_symmetry_group_IT_number 65
_symmetry_cell_setting 'orthorhombic'
loop_
_space_group_symop_operation_xyz
x,y,z
-x,-y,z
x,-y,-z
-x,y,-z
-x,-y,-z
x,y,-z
-x,y,z
x,-y,z
1/2+x,1/2+y,z
1/2-x,1/2-y,z
1/2+x,1/2-y,-z
1/2-x,1/2+y,-z
1/2-x,1/2-y,-z
1/2+x,1/2+y,-z
1/2-x,1/2+y,z
1/2+x,1/2-y,z
loop_
_atom_site_type_symbol
_atom_site_label
_atom_site_fract_x
_atom_site_fract_y
_atom_site_fract_z
Si Si1 0.912412 0.332684 0.810109
Si Si2 0.087423 0.830285 0.000000
Si Si3 0.912838 0.830818 0.279916
Si Si4 0.828965 0.174921 0.550078
Si Si5 0.329942 0.177142 0.639436
Si Si6 0.084764 0.326031 0.089267
O O1 0.884517 0.500000 0.798679
O O2 0.884310 0.220849 0.770459
O O3 0.881561 0.281313 0.860474
O O4 0.000000 0.333765 0.812412
O O5 0.122788 0.758692 0.953639
O O6 0.000000 0.804999 0.000000
O O7 0.110925 0.000000 0.000000
O O8 0.879873 0.720465 0.317613
O O9 0.000000 0.818320 0.282854
O O10 0.885977 0.000000 0.288309
O O11 0.868936 0.197409 0.500000
O O12 0.750000 0.250000 0.546759
O O13 0.869444 0.257176 0.592827
O O14 0.821023 0.000000 0.561314
O O15 0.250000 0.250000 0.645464
O O16 0.323205 0.000000 0.636019
O O17 0.094969 0.500000 0.080553
O O18 0.000000 0.279868 0.089985
#
# Coordination Sequence:
#
# PCOD8270372 Si02
#       6
#    16   8  16  16  16  16
#     4   8  14  25  40  57  77 105 144 185 223 267
#     4   9  15  19  25  41  65  93 128 171 216 261
#     4  10  20  33  49  69  94 124 158 195 235 280
#     4   9  16  27  45  69  96 123 152 187 227 272
#     4  11  21  33  51  73  99 127 157 194 233 275
#     4   8  13  21  32  45  65  96 133 172 214 262
#
# _framework density 18.631699000000001
#
# number of rings (size 3 to 8) (size 9 to 14) (size 15 to 20)
#    0.000    2.818    0.000    5.182    0.000    4.000 
#    0.000    3.636    0.000    0.545    0.000    3.818 
#    0.000    0.000    0.000    0.818    0.000   11.636 
#
# Total GULP energy -545117.510236 kJ/mol
# GULP energy per Si atom -12389.034324 kJ/mol
# Density = 1.858929 g / cm^3
# Si number density = 18.631699 Si / 1000 Ang^3
#
#
#
# Elastic Constant Matrix: (Units=GPa)
#
#
# Indices 1 2 3 4 5 6 
#
# 1 9.4625 17.2760 19.9934 0.0000 0.0000 0.0000
# 2 17.2760 110.5716 73.4023 0.0000 0.0000 0.0000
# 3 19.9934 73.4023 185.5861 0.0000 0.0000 0.0000
# 4 0.0000 0.0000 0.0000 38.0533 0.0000 0.0000
# 5 0.0000 0.0000 0.0000 0.0000 -28.8397 0.0000
# 6 0.0000 0.0000 0.0000 0.0000 0.0000 13.7926
#
#
#
# Elastic Compliance Matrix: (Units=1/GPa)
#
#
# Indices 1 2 3 4 5 6 
#
# 1 0.160457 -0.018435 -0.009995 0.000000 0.000000 0.000000
# 2 -0.018435 0.014382 -0.003702 0.000000 0.000000 0.000000
# 3 -0.009995 -0.003702 0.007929 0.000000 0.000000 0.000000
# 4 0.000000 0.000000 0.000000 0.026279 0.000000 0.000000
# 5 0.000000 0.000000 0.000000 0.000000 -0.034674 0.000000
# 6 0.000000 0.000000 0.000000 0.000000 0.000000 0.072502
#
#
# Mechanical properties :
#
#
# Convention : Reuss Voigt Hill
#
# Bulk Modulus (GPa) = 8.43854 58.55151 33.49503
# Shear Modulus (GPa) = 14.25956 17.59781 15.92869
#
# Velocity S-wave (km/s) = 2.76948 3.07662 2.92708
# Velocity P-wave (km/s) = 3.84261 6.64190 5.42588
#
# Compressibility (1/GPa) = 0.11850396
#
# Stress axis : x y z
#
# Youngs Moduli (GPa) = 6.23218 69.53123 126.11312
#
# Poissons Ratio (x) = 1.28183 1.26048
# Poissons Ratio (y) = 0.11489 0.46690
# Poissons Ratio (z) = 0.06229 0.25742
#
# Static dielectric constant tensor:
#      x y z
#    x 2.615740 0.000000 0.000000 
#    y 0.000000 3.507030 0.000000 
#    z 0.000000 0.000000 4.762550 
# 
# 
# High freq. dielectric constant tensor:
#      x y z
#    x 1.628050 0.000000 0.000000 
#    y 0.000000 1.730950 0.000000 
#    z 0.000000 0.000000 1.757400 
# 
# From -- ./inp_files/77882.got.cif
#   From: 2010.03.12/outbox.cif.g09.slc.cpg/sg65_39_cif.got.tgz:77882.got - 2010.04.10 20:52:16.
