data_PCOD8270328
_publ_section_title
;
Structure prediction by ZEFSAII (Michael W. Deem and Ramdas Pophale) SiO2 
 PCOD8270328
Probable space group: C M M M
;
_chemical_formula_sum "Si O2"
_cell_formula_units_Z 104
_cell_length_a 28.928785
_cell_length_b 22.314190
_cell_length_c 7.687155
_cell_angle_alpha 90.000000
_cell_angle_beta 90.000000
_cell_angle_gamma 90.000000
_cell_volume 4962.230783
_symmetry_space_group_name_H-M "C M M M"
_symmetry_group_IT_number 65
_symmetry_cell_setting 'orthorhombic'
loop_
_space_group_symop_operation_xyz
x,y,z
-x,-y,z
x,-y,-z
-x,y,-z
-x,-y,-z
x,y,-z
-x,y,z
x,-y,z
1/2+x,1/2+y,z
1/2-x,1/2-y,z
1/2+x,1/2-y,-z
1/2-x,1/2+y,-z
1/2-x,1/2-y,-z
1/2+x,1/2+y,-z
1/2-x,1/2+y,z
1/2+x,1/2-y,z
loop_
_atom_site_type_symbol
_atom_site_label
_atom_site_fract_x
_atom_site_fract_y
_atom_site_fract_z
Si Si1 0.449240 0.754308 0.705875
Si Si2 0.052839 0.070625 0.000000
Si Si3 0.693592 0.309775 0.205911
Si Si4 0.102188 0.861047 0.300397
Si Si5 0.797372 0.676293 0.793396
Si Si6 0.854104 0.435003 0.800223
Si Si7 0.448115 0.113189 0.706290
O O1 0.449691 0.756777 0.500000
O O2 0.500000 0.736895 0.775327
O O3 0.414423 0.703651 0.771726
O O4 0.435718 0.819994 0.776133
O O5 0.080005 0.089735 0.174609
O O6 0.000000 0.095262 0.000000
O O7 0.052335 0.000000 0.000000
O O8 0.657712 0.357004 0.289488
O O9 0.744253 0.331594 0.265467
O O10 0.684581 0.241317 0.273154
O O11 0.689069 0.312125 0.000000
O O12 0.086959 0.874513 0.500000
O O13 0.827473 0.621406 0.710682
O O14 0.800781 0.675798 0.000000
O O15 0.840004 0.500000 0.718013
O O16 0.909601 0.430112 0.784829
O O17 0.839747 0.435833 0.000000
O O18 0.445844 0.110290 0.500000
O O19 0.500000 0.094889 0.768054
#
# Coordination Sequence:
#
# PCOD8270328 Si02
#       7
#    16   8  16  16  16  16  16
#     4   8  15  29  50  78 110 139 169 215 274 327
#     4  11  26  46  64  85 116 156 201 242 290 362
#     4   9  16  32  57  85 116 148 185 239 296 351
#     4  11  21  36  62  92 121 151 189 240 294 350
#     4   8  16  31  54  80 113 153 191 233 288 345
#     4  10  20  33  48  69 100 139 186 230 270 326
#     4   9  18  33  51  72 102 139 180 226 276 328
#
# _framework density 20.958317000000001
#
# number of rings (size 3 to 8) (size 9 to 14) (size 15 to 20)
#    0.000    2.692    0.769    3.231    0.000    2.154 
#    1.385    5.385    0.000    0.000    0.000    0.000 
#    0.000    0.000    0.000    0.000    0.000    0.000 
#
# Total GULP energy -644356.547817 kJ/mol
# GULP energy per Si atom -12391.472073 kJ/mol
# Density = 2.091061 g / cm^3
# Si number density = 20.958317 Si / 1000 Ang^3
#
#
#
# Elastic Constant Matrix: (Units=GPa)
#
#
# Indices 1 2 3 4 5 6 
#
# 1 116.3995 59.3924 17.3372 0.0000 0.0000 0.0000
# 2 59.3924 105.9989 19.8676 0.0000 0.0000 0.0000
# 3 17.3372 19.8676 53.4526 0.0000 0.0000 0.0000
# 4 0.0000 0.0000 0.0000 12.4690 0.0000 0.0000
# 5 0.0000 0.0000 0.0000 0.0000 17.8081 0.0000
# 6 0.0000 0.0000 0.0000 0.0000 0.0000 26.2841
#
#
#
# Elastic Compliance Matrix: (Units=1/GPa)
#
#
# Indices 1 2 3 4 5 6 
#
# 1 0.012144 -0.006520 -0.001515 0.000000 0.000000 0.000000
# 2 -0.006520 0.013641 -0.002955 0.000000 0.000000 0.000000
# 3 -0.001515 -0.002955 0.020298 0.000000 0.000000 0.000000
# 4 0.000000 0.000000 0.000000 0.080199 0.000000 0.000000
# 5 0.000000 0.000000 0.000000 0.000000 0.056154 0.000000
# 6 0.000000 0.000000 0.000000 0.000000 0.000000 0.038046
#
#
# Mechanical properties :
#
#
# Convention : Reuss Voigt Hill
#
# Bulk Modulus (GPa) = 41.49173 52.11615 46.80394
# Shear Modulus (GPa) = 19.96026 23.26251 21.61139
#
# Velocity S-wave (km/s) = 3.08941 3.33519 3.21465
# Velocity P-wave (km/s) = 5.70668 6.30491 6.01324
#
# Compressibility (1/GPa) = 0.02410119
#
# Stress axis : x y z
#
# Youngs Moduli (GPa) = 82.34700 73.30629 49.26558
#
# Poissons Ratio (x) = 0.47798 0.07465
# Poissons Ratio (y) = 0.53692 0.14560
# Poissons Ratio (z) = 0.12478 0.21666
#
# Static dielectric constant tensor:
#      x y z
#    x 4.004960 0.000000 0.000000 
#    y 0.000000 3.955690 0.000000 
#    z 0.000000 0.000000 3.363860 
# 
# 
# High freq. dielectric constant tensor:
#      x y z
#    x 1.825020 0.000000 0.000000 
#    y 0.000000 1.800290 0.000000 
#    z 0.000000 0.000000 1.792970 
# 
# From -- ./inp_files/18882.got.cif
#   From: 2010.03.12/outbox.cif.g09.slc.cpg/sg65_10_cif.got.tgz:18882.got - 2010.04.10 20:52:16.
