data_PCOD8270960
_publ_section_title
;
Structure prediction by ZEFSAII (Michael W. Deem and Ramdas Pophale) SiO2 
 PCOD8270960
Probable space group: C M M M
;
_chemical_formula_sum "Si O2"
_cell_formula_units_Z 88
_cell_length_a 18.206079
_cell_length_b 8.863663
_cell_length_c 28.860395
_cell_angle_alpha 90.000000
_cell_angle_beta 90.000000
_cell_angle_gamma 90.000000
_cell_volume 4657.275501
_symmetry_space_group_name_H-M "C M M M"
_symmetry_group_IT_number 65
_symmetry_cell_setting 'orthorhombic'
loop_
_space_group_symop_operation_xyz
x,y,z
-x,-y,z
x,-y,-z
-x,y,-z
-x,-y,-z
x,y,-z
-x,y,z
x,-y,z
1/2+x,1/2+y,z
1/2-x,1/2-y,z
1/2+x,1/2-y,-z
1/2-x,1/2+y,-z
1/2-x,1/2-y,-z
1/2+x,1/2+y,-z
1/2-x,1/2+y,z
1/2+x,1/2-y,z
loop_
_atom_site_type_symbol
_atom_site_label
_atom_site_fract_x
_atom_site_fract_y
_atom_site_fract_z
Si Si1 0.087623 0.170030 0.092172
Si Si2 0.829412 0.176640 0.449756
Si Si3 0.412556 0.169719 0.815896
Si Si4 0.587087 0.328398 0.723116
Si Si5 0.087590 0.669966 0.000000
Si Si6 0.830197 0.321628 0.640773
O O1 0.118598 0.257968 0.136880
O O2 0.000000 0.172875 0.092214
O O3 0.117280 0.000000 0.093931
O O4 0.118309 0.247582 0.045677
O O5 0.869273 0.201915 0.500000
O O6 0.750000 0.250000 0.452908
O O7 0.869480 0.257765 0.406381
O O8 0.822239 0.000000 0.438941
O O9 0.500000 0.169532 0.817201
O O10 0.384328 0.267626 0.772522
O O11 0.382117 0.000000 0.811345
O O12 0.500000 0.317946 0.720206
O O13 0.614432 0.500000 0.717008
O O14 0.619476 0.222790 0.683581
O O15 0.117306 0.500000 0.000000
O O16 0.000000 0.673129 0.000000
O O17 0.823434 0.500000 0.637738
O O18 0.750000 0.250000 0.646976
#
# Coordination Sequence:
#
# PCOD8270960 Si02
#       6
#    16  16  16  16   8  16
#     4   9  15  22  32  47  69  99 136 177 221 269
#     4   9  16  27  45  69  96 124 155 191 231 276
#     4   9  16  26  40  58  80 108 145 186 226 271
#     4  10  20  34  51  70  94 125 161 199 239 284
#     4   9  15  21  29  43  65  95 132 175 222 269
#     4  11  21  33  51  74 101 129 159 196 237 281
#
# _framework density 18.895168000000002
#
# number of rings (size 3 to 8) (size 9 to 14) (size 15 to 20)
#    0.000    2.455    0.000    5.182    0.000    7.636 
#    0.000    0.000    0.000    0.545    0.000    3.818 
#    0.000    0.000    0.000    0.818    0.000   12.364 
#
# Total GULP energy -545387.881762 kJ/mol
# GULP energy per Si atom -12395.179131 kJ/mol
# Density = 1.885216 g / cm^3
# Si number density = 18.895168 Si / 1000 Ang^3
#
#
#
# Elastic Constant Matrix: (Units=GPa)
#
#
# Indices 1 2 3 4 5 6 
#
# 1 7.9631 15.7980 18.0660 0.0000 0.0000 0.0000
# 2 15.7980 172.6601 80.9486 0.0000 0.0000 0.0000
# 3 18.0660 80.9486 190.3566 0.0000 0.0000 0.0000
# 4 0.0000 0.0000 0.0000 40.7111 0.0000 0.0000
# 5 0.0000 0.0000 0.0000 0.0000 -53.8111 0.0000
# 6 0.0000 0.0000 0.0000 0.0000 0.0000 14.1222
#
#
#
# Elastic Compliance Matrix: (Units=1/GPa)
#
#
# Indices 1 2 3 4 5 6 
#
# 1 0.173248 -0.010171 -0.012117 0.000000 0.000000 0.000000
# 2 -0.010171 0.007831 -0.002365 0.000000 0.000000 0.000000
# 3 -0.012117 -0.002365 0.007409 0.000000 0.000000 0.000000
# 4 0.000000 0.000000 0.000000 0.024563 0.000000 0.000000
# 5 0.000000 0.000000 0.000000 0.000000 -0.018584 0.000000
# 6 0.000000 0.000000 0.000000 0.000000 0.000000 0.070810
#
#
# Mechanical properties :
#
#
# Convention : Reuss Voigt Hill
#
# Bulk Modulus (GPa) = 7.18483 66.73390 36.95936
# Shear Modulus (GPa) = 13.85127 17.28226 15.56676
#
# Velocity S-wave (km/s) = 2.71044 3.02758 2.87339
# Velocity P-wave (km/s) = 3.68864 6.90046 5.53274
#
# Compressibility (1/GPa) = 0.13918214
#
# Stress axis : x y z
#
# Youngs Moduli (GPa) = 5.77208 127.69677 134.97200
#
# Poissons Ratio (x) = 1.29878 1.63548
# Poissons Ratio (y) = 0.05871 0.31919
# Poissons Ratio (z) = 0.06994 0.30198
#
# Static dielectric constant tensor:
#      x y z
#    x 2.641270 0.000000 0.000000 
#    y 0.000000 3.718700 0.000000 
#    z 0.000000 0.000000 4.136800 
# 
# 
# High freq. dielectric constant tensor:
#      x y z
#    x 1.639790 0.000000 0.000000 
#    y 0.000000 1.756470 0.000000 
#    z 0.000000 0.000000 1.763700 
# 
# From -- ./inp_files/77816.got.cif
#   From: 2010.03.12/outbox.cif.g09.slc.cpg/sg65_39_cif.got.tgz:77816.got - 2010.04.10 20:52:16.
