data_PCOD8270442
_publ_section_title
;
Structure prediction by ZEFSAII (Michael W. Deem and Ramdas Pophale) SiO2 
 PCOD8270442
Probable space group: C M M M
;
_chemical_formula_sum "Si O2"
_cell_formula_units_Z 88
_cell_length_a 8.940030
_cell_length_b 27.958367
_cell_length_c 18.994802
_cell_angle_alpha 90.000000
_cell_angle_beta 90.000000
_cell_angle_gamma 90.000000
_cell_volume 4747.724922
_symmetry_space_group_name_H-M "C M M M"
_symmetry_group_IT_number 65
_symmetry_cell_setting 'orthorhombic'
loop_
_space_group_symop_operation_xyz
x,y,z
-x,-y,z
x,-y,-z
-x,y,-z
-x,-y,-z
x,y,-z
-x,y,z
x,-y,z
1/2+x,1/2+y,z
1/2-x,1/2-y,z
1/2+x,1/2-y,-z
1/2-x,1/2+y,-z
1/2-x,1/2-y,-z
1/2+x,1/2+y,-z
1/2-x,1/2+y,z
1/2+x,1/2-y,z
loop_
_atom_site_type_symbol
_atom_site_label
_atom_site_fract_x
_atom_site_fract_y
_atom_site_fract_z
Si Si1 0.675777 0.886043 0.079227
Si Si2 0.675859 0.903113 0.418717
Si Si3 0.176501 0.139116 0.292836
Si Si4 0.323156 0.200310 0.179112
Si Si5 0.833610 0.000000 0.417125
Si Si6 0.325658 0.553880 0.808667
O O1 0.500000 0.893144 0.079152
O O2 0.720481 0.836974 0.118094
O O3 0.745038 0.931382 0.119117
O O4 0.739457 0.883948 0.000000
O O5 0.713963 0.892189 0.500000
O O6 0.500000 0.904164 0.405560
O O7 0.753485 0.862462 0.371171
O O8 0.743283 0.953550 0.393305
O O9 0.251352 0.183484 0.252750
O O10 0.220581 0.089635 0.253933
O O11 0.000000 0.147265 0.297481
O O12 0.500000 0.205758 0.188449
O O13 0.250000 0.250000 0.156173
O O14 0.851807 0.000000 0.500000
O O15 0.000000 0.000000 0.381857
O O16 0.500000 0.557424 0.823807
O O17 0.277917 0.500000 0.787381
#
# Coordination Sequence:
#
# PCOD8270442 Si02
#       6
#    16  16  16  16   8  16
#     4   9  19  35  53  76 106 137 171 212 256 307
#     4  10  20  33  49  73 106 140 175 218 266 313
#     4  10  20  34  54  77 103 137 178 219 262 313
#     4  10  20  36  57  79 105 134 169 213 264 317
#     4   9  17  29  45  67  97 135 176 213 252 301
#     4   9  19  34  50  72 103 139 178 218 257 299
#
# _framework density 18.535194000000001
#
# number of rings (size 3 to 8) (size 9 to 14) (size 15 to 20)
#    0.000    2.455    0.000    1.909    1.273    5.091 
#    0.000    1.818    0.000    0.545    0.000    0.000 
#    0.000    0.000    0.000    0.000    0.000    0.000 
#
# Total GULP energy -545667.896752 kJ/mol
# GULP energy per Si atom -12401.543108 kJ/mol
# Density = 1.849301 g / cm^3
# Si number density = 18.535194 Si / 1000 Ang^3
#
#
#
# Elastic Constant Matrix: (Units=GPa)
#
#
# Indices 1 2 3 4 5 6 
#
# 1 71.2985 18.3872 31.0784 0.0000 0.0000 0.0000
# 2 18.3872 60.2279 9.6749 0.0000 0.0000 0.0000
# 3 31.0784 9.6749 84.4431 0.0000 0.0000 0.0000
# 4 0.0000 0.0000 0.0000 17.2089 0.0000 0.0000
# 5 0.0000 0.0000 0.0000 0.0000 29.0075 0.0000
# 6 0.0000 0.0000 0.0000 0.0000 0.0000 32.5247
#
#
#
# Elastic Compliance Matrix: (Units=1/GPa)
#
#
# Indices 1 2 3 4 5 6 
#
# 1 0.017812 -0.004467 -0.006044 0.000000 0.000000 0.000000
# 2 -0.004467 0.018035 -0.000422 0.000000 0.000000 0.000000
# 3 -0.006044 -0.000422 0.014115 0.000000 0.000000 0.000000
# 4 0.000000 0.000000 0.000000 0.058109 0.000000 0.000000
# 5 0.000000 0.000000 0.000000 0.000000 0.034474 0.000000
# 6 0.000000 0.000000 0.000000 0.000000 0.000000 0.030746
#
#
# Mechanical properties :
#
#
# Convention : Reuss Voigt Hill
#
# Bulk Modulus (GPa) = 35.59214 37.13893 36.36554
# Shear Modulus (GPa) = 24.44717 26.20348 25.32532
#
# Velocity S-wave (km/s) = 3.63569 3.76402 3.70041
# Velocity P-wave (km/s) = 6.07194 6.24267 6.15790
#
# Compressibility (1/GPa) = 0.02809609
#
# Stress axis : x y z
#
# Youngs Moduli (GPa) = 56.14220 55.44720 70.84662
#
# Poissons Ratio (x) = 0.24768 0.42817
# Poissons Ratio (y) = 0.25079 0.02992
# Poissons Ratio (z) = 0.33931 0.02342
#
# Static dielectric constant tensor:
#      x y z
#    x 3.419080 0.000000 0.000000 
#    y 0.000000 3.321950 0.000000 
#    z 0.000000 0.000000 3.481880 
# 
# 
# High freq. dielectric constant tensor:
#      x y z
#    x 1.726430 0.000000 0.000000 
#    y 0.000000 1.698270 0.000000 
#    z 0.000000 0.000000 1.718190 
# 
# From -- ./inp_files/50435.got.cif
#   From: 2010.03.12/outbox.cif.g09.slc.cpg/sg65_26_cif.got.tgz:50435.got - 2010.04.10 20:52:16.
