data_PCOD8270429
_publ_section_title
;
Structure prediction by ZEFSAII (Michael W. Deem and Ramdas Pophale) SiO2 
 PCOD8270429
Probable space group: C M M M
;
_chemical_formula_sum "Si O2"
_cell_formula_units_Z 120
_cell_length_a 28.556114
_cell_length_b 8.786953
_cell_length_c 28.083916
_cell_angle_alpha 90.000000
_cell_angle_beta 90.000000
_cell_angle_gamma 90.000000
_cell_volume 7046.850790
_symmetry_space_group_name_H-M "C M M M"
_symmetry_group_IT_number 65
_symmetry_cell_setting 'orthorhombic'
loop_
_space_group_symop_operation_xyz
x,y,z
-x,-y,z
x,-y,-z
-x,y,-z
-x,-y,-z
x,y,-z
-x,y,z
x,-y,z
1/2+x,1/2+y,z
1/2-x,1/2-y,z
1/2+x,1/2-y,-z
1/2-x,1/2+y,-z
1/2-x,1/2-y,-z
1/2+x,1/2+y,-z
1/2-x,1/2+y,z
1/2+x,1/2-y,z
loop_
_atom_site_type_symbol
_atom_site_label
_atom_site_fract_x
_atom_site_fract_y
_atom_site_fract_z
Si Si1 0.201525 0.321013 0.827234
Si Si2 0.444512 0.328735 0.500000
Si Si3 0.554937 0.177454 0.597264
Si Si4 0.390703 0.319787 0.316374
Si Si5 0.052370 0.819078 0.225326
Si Si6 0.446355 0.824542 0.945093
Si Si7 0.701216 0.820440 0.718126
Si Si8 0.610929 0.321210 0.135595
O O1 0.204973 0.500000 0.832272
O O2 0.250000 0.250000 0.845251
O O3 0.191495 0.271246 0.772743
O O4 0.161016 0.259027 0.861270
O O5 0.423734 0.500000 0.500000
O O6 0.500000 0.335569 0.500000
O O7 0.427198 0.237488 0.453715
O O8 0.500000 0.209580 0.604362
O O9 0.583018 0.271035 0.636244
O O10 0.566523 0.000000 0.601459
O O11 0.385478 0.500000 0.314967
O O12 0.420336 0.258080 0.271473
O O13 0.339471 0.245739 0.315118
O O14 0.078093 0.759008 0.178090
O O15 0.000000 0.750818 0.226019
O O16 0.050481 0.000000 0.225617
O O17 0.500000 0.778676 0.934965
O O18 0.412647 0.718296 0.914457
O O19 0.438050 0.000000 0.931560
O O20 0.433971 0.795762 0.000000
O O21 0.750000 0.750000 0.700340
O O22 0.703616 0.000000 0.712339
O O23 0.618553 0.500000 0.139765
#
# Coordination Sequence:
#
# PCOD8270429 Si02
#       8
#    16   8  16  16  16  16  16  16
#     4  10  20  34  53  75 102 133 170 211 255 304
#     4   9  17  31  51  73  96 129 176 221 261 307
#     4  10  20  33  49  72 104 139 175 217 262 305
#     4  11  20  32  50  72 103 139 174 210 254 306
#     4   9  18  30  44  67 101 137 169 203 244 293
#     4   9  19  36  55  75 102 136 173 213 256 301
#     4  10  20  34  52  73 100 132 171 214 257 303
#     4  11  20  32  52  77 105 134 170 211 256 305
#
# _framework density 17.028884000000001
#
# number of rings (size 3 to 8) (size 9 to 14) (size 15 to 20)
#    0.000    2.067    1.333    3.400    0.000    4.267 
#    0.000    0.667    0.000    3.600    0.000    0.467 
#    0.000    0.000    0.000    0.000    0.000    0.000 
#
# Total GULP energy -744221.393565 kJ/mol
# GULP energy per Si atom -12403.689893 kJ/mol
# Density = 1.699013 g / cm^3
# Si number density = 17.028884 Si / 1000 Ang^3
#
#
#
# Elastic Constant Matrix: (Units=GPa)
#
#
# Indices 1 2 3 4 5 6 
#
# 1 112.4286 38.1161 47.2280 0.0000 0.0000 0.0000
# 2 38.1161 67.4780 26.2461 0.0000 0.0000 0.0000
# 3 47.2280 26.2461 89.6445 0.0000 0.0000 0.0000
# 4 0.0000 0.0000 0.0000 28.0755 0.0000 0.0000
# 5 0.0000 0.0000 0.0000 0.0000 9.7075 0.0000
# 6 0.0000 0.0000 0.0000 0.0000 0.0000 28.2936
#
#
#
# Elastic Compliance Matrix: (Units=1/GPa)
#
#
# Indices 1 2 3 4 5 6 
#
# 1 0.012873 -0.005229 -0.005251 0.000000 0.000000 0.000000
# 2 -0.005229 0.018848 -0.002763 0.000000 0.000000 0.000000
# 3 -0.005251 -0.002763 0.014731 0.000000 0.000000 0.000000
# 4 0.000000 0.000000 0.000000 0.035618 0.000000 0.000000
# 5 0.000000 0.000000 0.000000 0.000000 0.103013 0.000000
# 6 0.000000 0.000000 0.000000 0.000000 0.000000 0.035344
#
#
# Mechanical properties :
#
#
# Convention : Reuss Voigt Hill
#
# Bulk Modulus (GPa) = 50.08828 54.74795 52.41811
# Shear Modulus (GPa) = 19.71844 23.74604 21.73224
#
# Velocity S-wave (km/s) = 3.40654 3.73829 3.57627
# Velocity P-wave (km/s) = 6.70450 7.13113 6.92110
#
# Compressibility (1/GPa) = 0.01996475
#
# Stress axis : x y z
#
# Youngs Moduli (GPa) = 77.68095 53.05510 67.88540
#
# Poissons Ratio (x) = 0.27744 0.35647
# Poissons Ratio (y) = 0.40621 0.18760
# Poissons Ratio (z) = 0.40791 0.14662
#
# Static dielectric constant tensor:
#      x y z
#    x 3.143870 0.000000 0.000000 
#    y 0.000000 3.107050 0.000000 
#    z 0.000000 0.000000 3.097510 
# 
# 
# High freq. dielectric constant tensor:
#      x y z
#    x 1.648840 0.000000 0.000000 
#    y 0.000000 1.660260 0.000000 
#    z 0.000000 0.000000 1.641530 
# 
# From -- ./inp_files/76147.got.cif
#   From: 2010.03.12/outbox.cif.g09.slc.cpg/sg65_39_cif.got.tgz:76147.got - 2010.04.10 20:52:16.
