data_PCOD8270662
_publ_section_title
;
Structure prediction by ZEFSAII (Michael W. Deem and Ramdas Pophale) SiO2 
 PCOD8270662
Probable space group: C M M M
;
_chemical_formula_sum "Si O2"
_cell_formula_units_Z 72
_cell_length_a 8.950263
_cell_length_b 18.318505
_cell_length_c 23.558987
_cell_angle_alpha 90.000000
_cell_angle_beta 90.000000
_cell_angle_gamma 90.000000
_cell_volume 3862.624021
_symmetry_space_group_name_H-M "C M M M"
_symmetry_group_IT_number 65
_symmetry_cell_setting 'orthorhombic'
loop_
_space_group_symop_operation_xyz
x,y,z
-x,-y,z
x,-y,-z
-x,y,-z
-x,-y,-z
x,y,-z
-x,y,z
x,-y,z
1/2+x,1/2+y,z
1/2-x,1/2-y,z
1/2+x,1/2-y,-z
1/2-x,1/2+y,-z
1/2-x,1/2-y,-z
1/2+x,1/2+y,-z
1/2-x,1/2+y,z
1/2+x,1/2-y,z
loop_
_atom_site_type_symbol
_atom_site_label
_atom_site_fract_x
_atom_site_fract_y
_atom_site_fract_z
Si Si1 0.332161 0.086722 0.437647
Si Si2 0.830273 0.086614 0.673002
Si Si3 0.676937 0.827984 0.771322
Si Si4 0.163570 0.586631 0.000000
Si Si5 0.678766 0.081932 0.878318
O O1 0.278184 0.114392 0.500000
O O2 0.500000 0.115114 0.425578
O O3 0.222127 0.116064 0.388719
O O4 0.331679 0.000000 0.437249
O O5 0.723387 0.120119 0.720103
O O6 0.000000 0.112298 0.682699
O O7 0.814914 0.000000 0.676686
O O8 0.500000 0.820118 0.771662
O O9 0.750000 0.750000 0.763281
O O10 0.736769 0.863470 0.829930
O O11 0.243954 0.608537 0.059753
O O12 0.146086 0.500000 0.000000
O O13 0.000000 0.623374 0.000000
O O14 0.500000 0.081381 0.881313
O O15 0.735916 0.000000 0.864202
#
# Coordination Sequence:
#
# PCOD8270662 Si02
#       5
#    16  16  16   8  16
#     4   8  14  26  46  73 103 132 162 198 241 289
#     4  10  20  33  51  76 103 131 166 207 250 296
#     4  11  22  35  50  69  98 134 172 211 252 298
#     4   7  10  20  41  70  99 121 150 197 246 291
#     4   8  14  26  47  73  97 124 160 202 247 295
#
# _framework density 18.640179
#
# number of rings (size 3 to 8) (size 9 to 14) (size 15 to 20)
#    0.000    3.000    0.000    4.000    0.000    2.667 
#    0.000    2.778    0.000    0.667    0.000    2.333 
#    0.000   12.444    0.000    0.000    0.000    0.000 
#
# Total GULP energy -446055.293082 kJ/mol
# GULP energy per Si atom -12390.424808 kJ/mol
# Density = 1.859775 g / cm^3
# Si number density = 18.640179 Si / 1000 Ang^3
#
#
#
# Elastic Constant Matrix: (Units=GPa)
#
#
# Indices 1 2 3 4 5 6 
#
# 1 57.0222 22.6397 40.9534 0.0000 0.0000 0.0000
# 2 22.6397 34.3280 34.1228 0.0000 0.0000 0.0000
# 3 40.9534 34.1228 163.7714 0.0000 0.0000 0.0000
# 4 0.0000 0.0000 0.0000 0.6997 0.0000 0.0000
# 5 0.0000 0.0000 0.0000 0.0000 9.3338 0.0000
# 6 0.0000 0.0000 0.0000 0.0000 0.0000 15.3360
#
#
#
# Elastic Compliance Matrix: (Units=1/GPa)
#
#
# Indices 1 2 3 4 5 6 
#
# 1 0.025336 -0.013131 -0.003600 0.000000 0.000000 0.000000
# 2 -0.013131 0.043546 -0.005789 0.000000 0.000000 0.000000
# 3 -0.003600 -0.005789 0.008212 0.000000 0.000000 0.000000
# 4 0.000000 0.000000 0.000000 1.429274 0.000000 0.000000
# 5 0.000000 0.000000 0.000000 0.000000 0.107137 0.000000
# 6 0.000000 0.000000 0.000000 0.000000 0.000000 0.065206
#
#
# Mechanical properties :
#
#
# Convention : Reuss Voigt Hill
#
# Bulk Modulus (GPa) = 31.19775 50.06149 40.62962
# Shear Modulus (GPa) = 2.88278 15.56760 9.22519
#
# Velocity S-wave (km/s) = 1.24495 2.89306 2.22707
# Velocity P-wave (km/s) = 4.34047 6.17048 5.33453
#
# Compressibility (1/GPa) = 0.03205360
#
# Stress axis : x y z
#
# Youngs Moduli (GPa) = 39.46988 22.96443 121.76619
#
# Poissons Ratio (x) = 0.30155 0.43831
# Poissons Ratio (y) = 0.51828 0.70495
# Poissons Ratio (z) = 0.14208 0.13295
#
# Static dielectric constant tensor:
#      x y z
#    x 3.162510 0.000000 0.000000 
#    y 0.000000 3.013290 0.000000 
#    z 0.000000 0.000000 4.086380 
# 
# 
# High freq. dielectric constant tensor:
#      x y z
#    x 1.689450 0.000000 0.000000 
#    y 0.000000 1.676680 0.000000 
#    z 0.000000 0.000000 1.751700 
# 
# From -- ./inp_files/59538.got.cif
#   From: 2010.03.12/outbox.cif.g09.slc.cpg/sg65_30_cif.got.tgz:59538.got - 2010.04.10 20:52:16.
