data_PCOD8270274
_publ_section_title
;
Structure prediction by ZEFSAII (Michael W. Deem and Ramdas Pophale) SiO2 
 PCOD8270274
Probable space group: C M M M
;
_chemical_formula_sum "Si O2"
_cell_formula_units_Z 80
_cell_length_a 9.880746
_cell_length_b 25.739682
_cell_length_c 17.106897
_cell_angle_alpha 90.000000
_cell_angle_beta 90.000000
_cell_angle_gamma 90.000000
_cell_volume 4350.750240
_symmetry_space_group_name_H-M "C M M M"
_symmetry_group_IT_number 65
_symmetry_cell_setting 'orthorhombic'
loop_
_space_group_symop_operation_xyz
x,y,z
-x,-y,z
x,-y,-z
-x,y,-z
-x,-y,-z
x,y,-z
-x,y,z
x,-y,z
1/2+x,1/2+y,z
1/2-x,1/2-y,z
1/2+x,1/2-y,-z
1/2-x,1/2+y,-z
1/2-x,1/2-y,-z
1/2+x,1/2+y,-z
1/2-x,1/2+y,z
1/2+x,1/2-y,z
loop_
_atom_site_type_symbol
_atom_site_label
_atom_site_fract_x
_atom_site_fract_y
_atom_site_fract_z
Si Si1 0.742417 0.153470 0.318119
Si Si2 0.000000 0.829362 0.590077
Si Si3 0.153760 0.904352 0.088886
Si Si4 0.844300 0.795580 0.838138
Si Si5 0.653343 0.058419 0.220646
Si Si6 0.500000 0.793334 0.408362
O O1 0.870423 0.143371 0.372509
O O2 0.784891 0.188740 0.245474
O O3 0.691139 0.097387 0.290184
O O4 0.631562 0.183202 0.368411
O O5 0.000000 0.767948 0.605315
O O6 0.000000 0.843077 0.500000
O O7 0.167243 0.842771 0.101544
O O8 0.252333 0.935725 0.145140
O O9 0.000000 0.921771 0.107240
O O10 0.193010 0.917420 0.000000
O O11 0.750000 0.750000 0.872286
O O12 0.000000 0.776925 0.829262
O O13 0.500000 0.069593 0.193596
O O14 0.669214 0.000000 0.253311
O O15 0.500000 0.807207 0.500000
#
# Coordination Sequence:
#
# PCOD8270274 Si02
#       6
#    16   8  16  16  16   8
#     4  11  21  37  56  82 116 149 186 232 275 325
#     4  11  22  36  57  87 120 149 181 225 275 329
#     4   9  20  38  56  81 115 145 181 230 282 334
#     4  10  20  32  52  78 110 152 191 225 268 325
#     4  10  22  40  61  83 107 144 191 235 280 327
#     4  11  22  36  57  85 116 153 185 217 271 333
#
# _framework density 18.387633999999998
#
# number of rings (size 3 to 8) (size 9 to 14) (size 15 to 20)
#    0.000    1.800    2.000    2.400    2.800    4.000 
#    0.000    2.000    0.000    3.600    0.000    0.000 
#    0.000    0.000    0.000    0.000    0.000    0.000 
#
# Total GULP energy -496107.772227 kJ/mol
# GULP energy per Si atom -12402.694306 kJ/mol
# Density = 1.834578 g / cm^3
# Si number density = 18.387634 Si / 1000 Ang^3
#
#
#
# Elastic Constant Matrix: (Units=GPa)
#
#
# Indices 1 2 3 4 5 6 
#
# 1 139.8400 48.9209 48.7794 0.0000 0.0000 0.0000
# 2 48.9209 84.2212 31.9526 0.0000 0.0000 0.0000
# 3 48.7794 31.9526 93.6137 0.0000 0.0000 0.0000
# 4 0.0000 0.0000 0.0000 13.0986 0.0000 0.0000
# 5 0.0000 0.0000 0.0000 0.0000 26.2715 0.0000
# 6 0.0000 0.0000 0.0000 0.0000 0.0000 26.5864
#
#
#
# Elastic Compliance Matrix: (Units=1/GPa)
#
#
# Indices 1 2 3 4 5 6 
#
# 1 0.009978 -0.004392 -0.003700 0.000000 0.000000 0.000000
# 2 -0.004392 0.015573 -0.003027 0.000000 0.000000 0.000000
# 3 -0.003700 -0.003027 0.013643 0.000000 0.000000 0.000000
# 4 0.000000 0.000000 0.000000 0.076344 0.000000 0.000000
# 5 0.000000 0.000000 0.000000 0.000000 0.038064 0.000000
# 6 0.000000 0.000000 0.000000 0.000000 0.000000 0.037613
#
#
# Mechanical properties :
#
#
# Convention : Reuss Voigt Hill
#
# Bulk Modulus (GPa) = 58.97516 64.10898 61.54207
# Shear Modulus (GPa) = 22.81991 25.72610 24.27300
#
# Velocity S-wave (km/s) = 3.52667 3.74451 3.63722
# Velocity P-wave (km/s) = 6.98041 7.32367 7.15410
#
# Compressibility (1/GPa) = 0.01695629
#
# Stress axis : x y z
#
# Youngs Moduli (GPa) = 100.21746 64.21330 73.29535
#
# Poissons Ratio (x) = 0.28204 0.27121
# Poissons Ratio (y) = 0.44017 0.22185
# Poissons Ratio (z) = 0.37083 0.19436
#
# Static dielectric constant tensor:
#      x y z
#    x 3.622850 0.000000 0.000000 
#    y 0.000000 3.273420 0.000000 
#    z 0.000000 0.000000 3.336510 
# 
# 
# High freq. dielectric constant tensor:
#      x y z
#    x 1.733150 0.000000 0.000000 
#    y 0.000000 1.701520 0.000000 
#    z 0.000000 0.000000 1.707070 
# 
# From -- ./inp_files/50231.got.cif
#   From: 2010.03.12/outbox.cif.g09.slc.cpg/sg65_26_cif.got.tgz:50231.got - 2010.04.10 20:52:16.
