data_PCOD8270182
_publ_section_title
;
Structure prediction by ZEFSAII (Michael W. Deem and Ramdas Pophale) SiO2 
 PCOD8270182
Probable space group: C M M M
;
_chemical_formula_sum "Si O2"
_cell_formula_units_Z 120
_cell_length_a 27.915528
_cell_length_b 9.047859
_cell_length_c 26.545276
_cell_angle_alpha 90.000000
_cell_angle_beta 90.000000
_cell_angle_gamma 90.000000
_cell_volume 6704.693293
_symmetry_space_group_name_H-M "C M M M"
_symmetry_group_IT_number 65
_symmetry_cell_setting 'orthorhombic'
loop_
_space_group_symop_operation_xyz
x,y,z
-x,-y,z
x,-y,-z
-x,y,-z
-x,-y,-z
x,y,-z
-x,y,z
x,-y,z
1/2+x,1/2+y,z
1/2-x,1/2-y,z
1/2+x,1/2-y,-z
1/2-x,1/2+y,-z
1/2-x,1/2-y,-z
1/2+x,1/2+y,-z
1/2-x,1/2+y,z
1/2+x,1/2-y,z
loop_
_atom_site_type_symbol
_atom_site_label
_atom_site_fract_x
_atom_site_fract_y
_atom_site_fract_z
Si Si1 0.945916 0.671321 0.763883
Si Si2 0.603516 0.326649 0.853907
Si Si3 0.200790 0.825858 0.199003
Si Si4 0.699769 0.176217 0.500000
Si Si5 0.054638 0.671953 0.942172
Si Si6 0.353684 0.175409 0.599310
Si Si7 0.948544 0.324067 0.556453
Si Si8 0.650767 0.173446 0.710773
O O1 0.943735 0.500000 0.778370
O O2 0.933918 0.760112 0.814297
O O3 0.905633 0.707626 0.721622
O O4 0.000000 0.713001 0.745164
O O5 0.595998 0.500000 0.853783
O O6 0.658467 0.285565 0.840184
O O7 0.591949 0.263821 0.908885
O O8 0.250000 0.750000 0.180604
O O9 0.185906 0.764904 0.253616
O O10 0.209021 0.000000 0.203087
O O11 0.750000 0.250000 0.500000
O O12 0.675521 0.236188 0.448575
O O13 0.702219 0.000000 0.500000
O O14 0.061700 0.500000 0.930634
O O15 0.000000 0.718667 0.930014
O O16 0.066708 0.707388 0.000000
O O17 0.407912 0.235758 0.593715
O O18 0.335720 0.227625 0.654165
O O19 0.353084 0.000000 0.597673
O O20 0.937642 0.267988 0.500000
O O21 0.948797 0.500000 0.556042
O O22 0.000000 0.263874 0.575144
O O23 0.661070 0.000000 0.718264
#
# Coordination Sequence:
#
# PCOD8270182 Si02
#       8
#    16  16  16   8  16  16  16  16
#     4   9  17  29  45  67  98 134 167 197 233 284
#     4  10  20  32  49  75 102 130 167 211 253 291
#     4  10  21  37  55  74  96 123 160 207 256 304
#     4  10  20  34  49  65  87 115 148 186 231 282
#     4   9  18  32  50  75 109 147 181 208 237 279
#     4   9  16  28  45  65  92 122 150 186 232 283
#     4   8  12  19  35  61  91 120 147 178 222 272
#     4   9  18  31  48  71  97 126 158 194 241 291
#
# _framework density 17.897908999999999
#
# number of rings (size 3 to 8) (size 9 to 14) (size 15 to 20)
#    0.000    2.800    0.667    2.000    0.000    5.067 
#    0.000    5.333    0.000    0.400    0.000    0.000 
#    0.000    2.133    0.000    0.000    0.000    0.133 
#
# Total GULP energy -743577.891309 kJ/mol
# GULP energy per Si atom -12392.964855 kJ/mol
# Density = 1.785717 g / cm^3
# Si number density = 17.897909 Si / 1000 Ang^3
#
#
#
# Elastic Constant Matrix: (Units=GPa)
#
#
# Indices 1 2 3 4 5 6 
#
# 1 110.0887 35.0087 53.7719 0.0000 0.0000 0.0000
# 2 35.0087 43.4045 35.1218 0.0000 0.0000 0.0000
# 3 53.7719 35.1218 114.7508 0.0000 0.0000 0.0000
# 4 0.0000 0.0000 0.0000 12.8513 0.0000 0.0000
# 5 0.0000 0.0000 0.0000 0.0000 18.6009 0.0000
# 6 0.0000 0.0000 0.0000 0.0000 0.0000 23.8568
#
#
#
# Elastic Compliance Matrix: (Units=1/GPa)
#
#
# Indices 1 2 3 4 5 6 
#
# 1 0.013449 -0.007640 -0.003964 0.000000 0.000000 0.000000
# 2 -0.007640 0.034964 -0.007121 0.000000 0.000000 0.000000
# 3 -0.003964 -0.007121 0.012752 0.000000 0.000000 0.000000
# 4 0.000000 0.000000 0.000000 0.077813 0.000000 0.000000
# 5 0.000000 0.000000 0.000000 0.000000 0.053761 0.000000
# 6 0.000000 0.000000 0.000000 0.000000 0.000000 0.041917
#
#
# Mechanical properties :
#
#
# Convention : Reuss Voigt Hill
#
# Bulk Modulus (GPa) = 42.16914 57.33877 49.75395
# Shear Modulus (GPa) = 17.85645 20.68457 19.27051
#
# Velocity S-wave (km/s) = 3.16204 3.40324 3.28486
# Velocity P-wave (km/s) = 6.07811 6.89557 6.49970
#
# Compressibility (1/GPa) = 0.02371402
#
# Stress axis : x y z
#
# Youngs Moduli (GPa) = 74.35293 28.60101 78.42199
#
# Poissons Ratio (x) = 0.21852 0.31085
# Poissons Ratio (y) = 0.56809 0.55845
# Poissons Ratio (z) = 0.29472 0.20367
#
# Static dielectric constant tensor:
#      x y z
#    x 3.467970 0.000000 0.000000 
#    y 0.000000 3.000610 0.000000 
#    z 0.000000 0.000000 3.370300 
# 
# 
# High freq. dielectric constant tensor:
#      x y z
#    x 1.694580 0.000000 0.000000 
#    y 0.000000 1.660000 0.000000 
#    z 0.000000 0.000000 1.684540 
# 
# From -- ./inp_files/76100.got.cif
#   From: 2010.03.12/outbox.cif.g09.slc.cpg/sg65_39_cif.got.tgz:76100.got - 2010.04.10 20:52:16.
