data_PCOD8270625
_publ_section_title
;
Structure prediction by ZEFSAII (Michael W. Deem and Ramdas Pophale) SiO2 
 PCOD8270625
Probable space group: C M M M
;
_chemical_formula_sum "Si O2"
_cell_formula_units_Z 96
_cell_length_a 20.378482
_cell_length_b 28.087636
_cell_length_c 9.069433
_cell_angle_alpha 90.000000
_cell_angle_beta 90.000000
_cell_angle_gamma 90.000000
_cell_volume 5191.192757
_symmetry_space_group_name_H-M "C M M M"
_symmetry_group_IT_number 65
_symmetry_cell_setting 'orthorhombic'
loop_
_space_group_symop_operation_xyz
x,y,z
-x,-y,z
x,-y,-z
-x,y,-z
-x,-y,-z
x,y,-z
-x,y,z
x,-y,z
1/2+x,1/2+y,z
1/2-x,1/2-y,z
1/2+x,1/2-y,-z
1/2-x,1/2+y,-z
1/2-x,1/2-y,-z
1/2+x,1/2+y,-z
1/2-x,1/2+y,z
1/2+x,1/2-y,z
loop_
_atom_site_type_symbol
_atom_site_label
_atom_site_fract_x
_atom_site_fract_y
_atom_site_fract_z
Si Si1 0.317697 0.555032 0.172193
Si Si2 0.925196 0.789500 0.827604
Si Si3 0.072423 0.553320 0.824645
Si Si4 0.575675 0.613274 0.327537
Si Si5 0.692094 0.113994 0.824152
Si Si6 0.811572 0.279294 0.175046
O O1 0.302633 0.500000 0.205574
O O2 0.382580 0.570489 0.259086
O O3 0.256503 0.586108 0.230363
O O4 0.330038 0.563736 0.000000
O O5 0.902585 0.836767 0.743346
O O6 0.879198 0.746015 0.775793
O O7 0.000000 0.775498 0.789133
O O8 0.916084 0.800039 0.000000
O O9 0.085365 0.500000 0.765561
O O10 0.127636 0.588087 0.758731
O O11 0.000000 0.570866 0.774406
O O12 0.076504 0.553057 0.000000
O O13 0.588883 0.616335 0.500000
O O14 0.500000 0.602430 0.291162
O O15 0.691757 0.167460 0.759823
O O16 0.689879 0.114056 0.000000
O O17 0.750000 0.250000 0.238964
O O18 0.807294 0.281743 0.000000
#
# Coordination Sequence:
#
# PCOD8270625 Si02
#       6
#    16  16  16  16  16  16
#     4  10  20  33  51  74  98 127 164 203 241 283
#     4   9  17  30  49  72  97 125 159 198 237 280
#     4   8  13  21  34  55  87 125 157 185 224 274
#     4  10  21  36  53  72  95 125 159 196 244 299
#     4   9  16  26  42  65  95 128 160 195 234 278
#     4   9  16  25  40  63  90 120 152 188 231 273
#
# _framework density 18.492861000000001
#
# number of rings (size 3 to 8) (size 9 to 14) (size 15 to 20)
#    0.000    2.833    0.000    2.500    0.000    7.000 
#    0.000    5.000    0.000    4.500    0.000    0.000 
#    0.000    0.667    0.000    3.500    0.000    3.333 
#
# Total GULP energy -595143.785421 kJ/mol
# GULP energy per Si atom -12398.828863 kJ/mol
# Density = 1.845077 g / cm^3
# Si number density = 18.492861 Si / 1000 Ang^3
#
#
#
# Elastic Constant Matrix: (Units=GPa)
#
#
# Indices 1 2 3 4 5 6 
#
# 1 135.0717 87.8886 26.4915 0.0000 0.0000 0.0000
# 2 87.8886 146.9920 27.2715 0.0000 0.0000 0.0000
# 3 26.4915 27.2715 27.1796 0.0000 0.0000 0.0000
# 4 0.0000 0.0000 0.0000 4.1032 0.0000 0.0000
# 5 0.0000 0.0000 0.0000 0.0000 9.4005 0.0000
# 6 0.0000 0.0000 0.0000 0.0000 0.0000 42.6388
#
#
#
# Elastic Compliance Matrix: (Units=1/GPa)
#
#
# Indices 1 2 3 4 5 6 
#
# 1 0.012848 -0.006585 -0.005916 0.000000 0.000000 0.000000
# 2 -0.006585 0.011734 -0.005356 0.000000 0.000000 0.000000
# 3 -0.005916 -0.005356 0.047932 0.000000 0.000000 0.000000
# 4 0.000000 0.000000 0.000000 0.243713 0.000000 0.000000
# 5 0.000000 0.000000 0.000000 0.000000 0.106378 0.000000
# 6 0.000000 0.000000 0.000000 0.000000 0.000000 0.023453
#
#
# Mechanical properties :
#
#
# Convention : Reuss Voigt Hill
#
# Bulk Modulus (GPa) = 27.17260 65.83847 46.50554
# Shear Modulus (GPa) = 10.12068 22.40127 16.26098
#
# Velocity S-wave (km/s) = 2.34193 3.48422 2.96854
# Velocity P-wave (km/s) = 4.69450 7.20179 6.07882
#
# Compressibility (1/GPa) = 0.03680177
#
# Stress axis : x y z
#
# Youngs Moduli (GPa) = 77.83182 85.22478 20.86277
#
# Poissons Ratio (x) = 0.56116 0.12343
# Poissons Ratio (y) = 0.51248 0.11173
# Poissons Ratio (z) = 0.46046 0.45642
#
# Static dielectric constant tensor:
#      x y z
#    x 3.639810 0.000000 0.000000 
#    y 0.000000 3.565250 0.000000 
#    z 0.000000 0.000000 2.813570 
# 
# 
# High freq. dielectric constant tensor:
#      x y z
#    x 1.732800 0.000000 0.000000 
#    y 0.000000 1.722260 0.000000 
#    z 0.000000 0.000000 1.651290 
# 
# From -- ./inp_files/12235.got.cif
#   From: 2010.03.12/outbox.cif.g09.slc.cpg/sg65_7_cif.got.tgz:12235.got - 2010.04.10 20:52:16.
