data_PCOD8270512
_publ_section_title
;
Structure prediction by ZEFSAII (Michael W. Deem and Ramdas Pophale) SiO2 
 PCOD8270512
Probable space group: C M M M
;
_chemical_formula_sum "Si O2"
_cell_formula_units_Z 72
_cell_length_a 29.192213
_cell_length_b 15.665055
_cell_length_c 8.923743
_cell_angle_alpha 90.000000
_cell_angle_beta 90.000000
_cell_angle_gamma 90.000000
_cell_volume 4080.806455
_symmetry_space_group_name_H-M "C M M M"
_symmetry_group_IT_number 65
_symmetry_cell_setting 'orthorhombic'
loop_
_space_group_symop_operation_xyz
x,y,z
-x,-y,z
x,-y,-z
-x,y,-z
-x,-y,-z
x,y,-z
-x,y,z
x,-y,z
1/2+x,1/2+y,z
1/2-x,1/2-y,z
1/2+x,1/2-y,-z
1/2-x,1/2+y,-z
1/2-x,1/2-y,-z
1/2+x,1/2+y,-z
1/2-x,1/2+y,z
1/2+x,1/2-y,z
loop_
_atom_site_type_symbol
_atom_site_label
_atom_site_fract_x
_atom_site_fract_y
_atom_site_fract_z
Si Si1 0.445538 0.000000 0.668246
Si Si2 0.612982 0.500000 0.163578
Si Si3 0.215777 0.172800 0.675194
Si Si4 0.947847 0.669754 0.823557
Si Si5 0.721613 0.500000 0.833231
Si Si6 0.119105 0.181694 0.179814
O O1 0.427156 0.084308 0.750484
O O2 0.500000 0.000000 0.674646
O O3 0.426623 0.000000 0.500000
O O4 0.667484 0.500000 0.151453
O O5 0.599586 0.589810 0.242198
O O6 0.589912 0.500000 0.000000
O O7 0.208192 0.156744 0.500000
O O8 0.250000 0.250000 0.707494
O O9 0.168050 0.201372 0.749014
O O10 0.236720 0.085904 0.745885
O O11 0.917060 0.747929 0.767301
O O12 0.000000 0.686881 0.771509
O O13 0.945133 0.657918 0.000000
O O14 0.743797 0.500000 0.000000
O O15 0.124562 0.177986 0.000000
#
# Coordination Sequence:
#
# PCOD8270512 Si02
#       6
#     8   8  16  16   8  16
#     4   9  17  29  46  67  90 121 161 199 238 287
#     4   7  12  25  44  66  90 116 149 185 218 261
#     4  10  20  33  50  73 100 128 159 198 243 287
#     4   9  17  30  48  70  96 125 158 197 238 280
#     4   9  17  31  52  73  94 125 164 200 234 283
#     4   9  17  30  49  71  95 126 162 195 231 280
#
# _framework density 17.643571999999999
#
# number of rings (size 3 to 8) (size 9 to 14) (size 15 to 20)
#    0.000    3.000    0.000    2.667    0.000    4.000 
#    0.000    1.667    0.000    3.333    0.000    0.000 
#    0.000    8.889    0.000    0.000    0.000    0.000 
#
# Total GULP energy -446118.681185 kJ/mol
# GULP energy per Si atom -12392.185588 kJ/mol
# Density = 1.760341 g / cm^3
# Si number density = 17.643572 Si / 1000 Ang^3
#
#
#
# Elastic Constant Matrix: (Units=GPa)
#
#
# Indices 1 2 3 4 5 6 
#
# 1 61.0402 69.0029 30.5450 0.0000 0.0000 0.0000
# 2 69.0029 197.7484 57.5054 0.0000 0.0000 0.0000
# 3 30.5450 57.5054 64.1355 0.0000 0.0000 0.0000
# 4 0.0000 0.0000 0.0000 24.2793 0.0000 0.0000
# 5 0.0000 0.0000 0.0000 0.0000 17.1643 0.0000
# 6 0.0000 0.0000 0.0000 0.0000 0.0000 30.3701
#
#
#
# Elastic Compliance Matrix: (Units=1/GPa)
#
#
# Indices 1 2 3 4 5 6 
#
# 1 0.028863 -0.008217 -0.006379 0.000000 0.000000 0.000000
# 2 -0.008217 0.009180 -0.004317 0.000000 0.000000 0.000000
# 3 -0.006379 -0.004317 0.022501 0.000000 0.000000 0.000000
# 4 0.000000 0.000000 0.000000 0.041187 0.000000 0.000000
# 5 0.000000 0.000000 0.000000 0.000000 0.058260 0.000000
# 6 0.000000 0.000000 0.000000 0.000000 0.000000 0.032927
#
#
# Mechanical properties :
#
#
# Convention : Reuss Voigt Hill
#
# Bulk Modulus (GPa) = 44.01848 70.78116 57.39982
# Shear Modulus (GPa) = 20.98040 25.42079 23.20059
#
# Velocity S-wave (km/s) = 3.45211 3.79990 3.63017
# Velocity P-wave (km/s) = 6.39471 7.71081 7.08340
#
# Compressibility (1/GPa) = 0.02271773
#
# Stress axis : x y z
#
# Youngs Moduli (GPa) = 34.64616 108.93792 44.44208
#
# Poissons Ratio (x) = 0.89509 0.28350
# Poissons Ratio (y) = 0.28467 0.19187
# Poissons Ratio (z) = 0.22101 0.47033
#
# Static dielectric constant tensor:
#      x y z
#    x 2.914700 0.000000 0.000000 
#    y 0.000000 3.793820 0.000000 
#    z 0.000000 0.000000 3.226790 
# 
# 
# High freq. dielectric constant tensor:
#      x y z
#    x 1.636860 0.000000 0.000000 
#    y 0.000000 1.705970 0.000000 
#    z 0.000000 0.000000 1.671860 
# 
# From -- ./inp_files/18067.got.cif
#   From: 2010.03.12/outbox.cif.g09.slc.cpg/sg65_10_cif.got.tgz:18067.got - 2010.04.10 20:52:16.
