data_PCOD8270032
_publ_section_title
;
Structure prediction by ZEFSAII (Michael W. Deem and Ramdas Pophale) SiO2 
 PCOD8270032
Probable space group: C M M M
;
_chemical_formula_sum "Si O2"
_cell_formula_units_Z 88
_cell_length_a 28.889626
_cell_length_b 8.803663
_cell_length_c 20.646974
_cell_angle_alpha 90.000000
_cell_angle_beta 90.000000
_cell_angle_gamma 90.000000
_cell_volume 5251.238459
_symmetry_space_group_name_H-M "C M M M"
_symmetry_group_IT_number 65
_symmetry_cell_setting 'orthorhombic'
loop_
_space_group_symop_operation_xyz
x,y,z
-x,-y,z
x,-y,-z
-x,y,-z
-x,-y,-z
x,y,-z
-x,y,z
x,-y,z
1/2+x,1/2+y,z
1/2-x,1/2-y,z
1/2+x,1/2-y,-z
1/2-x,1/2+y,-z
1/2-x,1/2-y,-z
1/2+x,1/2+y,-z
1/2-x,1/2+y,z
1/2+x,1/2-y,z
loop_
_atom_site_type_symbol
_atom_site_label
_atom_site_fract_x
_atom_site_fract_y
_atom_site_fract_z
Si Si1 0.300675 0.320475 0.302401
Si Si2 0.800250 0.677820 0.570155
Si Si3 0.447149 0.179303 0.867304
Si Si4 0.138675 0.820572 0.819220
Si Si5 0.798497 0.677980 0.074768
Si Si6 0.445396 0.330702 0.000000
O O1 0.295937 0.500000 0.305956
O O2 0.250000 0.250000 0.292116
O O3 0.325099 0.258525 0.368727
O O4 0.333151 0.267618 0.243771
O O5 0.825261 0.705855 0.500000
O O6 0.795914 0.500000 0.584472
O O7 0.750000 0.750000 0.566221
O O8 0.500000 0.228474 0.852503
O O9 0.413579 0.254796 0.813761
O O10 0.429636 0.238672 0.936911
O O11 0.441810 0.000000 0.866206
O O12 0.161324 0.751850 0.883342
O O13 0.136879 0.000000 0.825022
O O14 0.796006 0.500000 0.088361
O O15 0.750000 0.750000 0.096404
O O16 0.809283 0.714839 0.000000
O O17 0.423301 0.500000 0.000000
O O18 0.500000 0.344257 0.000000
#
# Coordination Sequence:
#
# PCOD8270032 Si02
#       6
#    16  16  16  16  16   8
#     4  10  20  32  47  69  97 130 165 198 234 276
#     4   9  16  26  43  67  94 126 161 194 230 272
#     4  10  21  36  53  72  94 120 153 196 246 298
#     4  11  23  35  50  71  95 126 162 199 242 291
#     4  10  21  36  52  69  91 121 159 202 244 285
#     4   9  17  31  51  71  90 113 142 183 237 291
#
# _framework density 16.757950999999998
#
# number of rings (size 3 to 8) (size 9 to 14) (size 15 to 20)
#    0.000    2.091    0.000    4.636    1.273    8.727 
#    0.000    0.000    0.000    0.000    0.000    0.000 
#    0.000    0.727    0.000    8.000    0.000    5.818 
#
# Total GULP energy -545454.009818 kJ/mol
# GULP energy per Si atom -12396.682041 kJ/mol
# Density = 1.671981 g / cm^3
# Si number density = 16.757951 Si / 1000 Ang^3
#
#
#
# Elastic Constant Matrix: (Units=GPa)
#
#
# Indices 1 2 3 4 5 6 
#
# 1 81.2301 36.8452 58.0527 0.0000 0.0000 0.0000
# 2 36.8452 85.1772 47.5899 0.0000 0.0000 0.0000
# 3 58.0527 47.5899 110.6968 0.0000 0.0000 0.0000
# 4 0.0000 0.0000 0.0000 27.5817 0.0000 0.0000
# 5 0.0000 0.0000 0.0000 0.0000 9.5634 0.0000
# 6 0.0000 0.0000 0.0000 0.0000 0.0000 25.3223
#
#
#
# Elastic Compliance Matrix: (Units=1/GPa)
#
#
# Indices 1 2 3 4 5 6 
#
# 1 0.020575 -0.003779 -0.009166 0.000000 0.000000 0.000000
# 2 -0.003779 0.016146 -0.004959 0.000000 0.000000 0.000000
# 3 -0.009166 -0.004959 0.015972 0.000000 0.000000 0.000000
# 4 0.000000 0.000000 0.000000 0.036256 0.000000 0.000000
# 5 0.000000 0.000000 0.000000 0.000000 0.104565 0.000000
# 6 0.000000 0.000000 0.000000 0.000000 0.000000 0.039491
#
#
# Mechanical properties :
#
#
# Convention : Reuss Voigt Hill
#
# Bulk Modulus (GPa) = 59.22322 62.45332 60.83827
# Shear Modulus (GPa) = 18.21877 21.46791 19.84334
#
# Velocity S-wave (km/s) = 3.30081 3.58307 3.44483
# Velocity P-wave (km/s) = 7.06712 7.38015 7.22533
#
# Compressibility (1/GPa) = 0.01688527
#
# Stress axis : x y z
#
# Youngs Moduli (GPa) = 48.60193 61.93514 62.60787
#
# Poissons Ratio (x) = 0.23408 0.57383
# Poissons Ratio (y) = 0.18368 0.31049
# Poissons Ratio (z) = 0.44546 0.30716
#
# Static dielectric constant tensor:
#      x y z
#    x 3.000650 0.000000 0.000000 
#    y 0.000000 3.303520 0.000000 
#    z 0.000000 0.000000 3.660330 
# 
# 
# High freq. dielectric constant tensor:
#      x y z
#    x 1.610360 0.000000 0.000000 
#    y 0.000000 1.666830 0.000000 
#    z 0.000000 0.000000 1.638000 
# 
# From -- ./inp_files/66198.got.cif
#   From: 2010.03.12/outbox.cif.g09.slc.cpg/sg65_34_cif.got.tgz:66198.got - 2010.04.10 20:52:16.
