data_PCOD8270903
_publ_section_title
;
Structure prediction by ZEFSAII (Michael W. Deem and Ramdas Pophale) SiO2 
 PCOD8270903
Probable space group: C M M M
;
_chemical_formula_sum "Si O2"
_cell_formula_units_Z 96
_cell_length_a 30.390894
_cell_length_b 13.165062
_cell_length_c 13.659558
_cell_angle_alpha 90.000000
_cell_angle_beta 90.000000
_cell_angle_gamma 90.000000
_cell_volume 5465.161888
_symmetry_space_group_name_H-M "C M M M"
_symmetry_group_IT_number 65
_symmetry_cell_setting 'orthorhombic'
loop_
_space_group_symop_operation_xyz
x,y,z
-x,-y,z
x,-y,-z
-x,y,-z
-x,-y,-z
x,y,-z
-x,y,z
x,-y,z
1/2+x,1/2+y,z
1/2-x,1/2-y,z
1/2+x,1/2-y,-z
1/2-x,1/2+y,-z
1/2-x,1/2-y,-z
1/2+x,1/2+y,-z
1/2-x,1/2+y,z
1/2+x,1/2-y,z
loop_
_atom_site_type_symbol
_atom_site_label
_atom_site_fract_x
_atom_site_fract_y
_atom_site_fract_z
Si Si1 0.047996 0.120429 0.791948
Si Si2 0.903237 0.880955 0.606755
Si Si3 0.363490 0.613394 0.885975
Si Si4 0.201314 0.287735 0.891570
Si Si5 0.307752 0.685086 0.613730
Si Si6 0.218376 0.613803 0.695846
O O1 0.061055 0.161061 0.683544
O O2 0.086618 0.152872 0.866231
O O3 0.000000 0.166557 0.821057
O O4 0.044293 0.000000 0.790950
O O5 0.910377 0.829295 0.500000
O O6 0.854638 0.857713 0.648236
O O7 0.908648 0.000000 0.596031
O O8 0.356309 0.500000 0.838682
O O9 0.328755 0.696499 0.847172
O O10 0.356106 0.603445 0.000000
O O11 0.250000 0.250000 0.907287
O O12 0.203065 0.375478 0.809450
O O13 0.184155 0.325235 0.000000
O O14 0.298751 0.657941 0.500000
O O15 0.270582 0.635299 0.682928
O O16 0.307715 0.807150 0.627228
O O17 0.207152 0.500000 0.661858
#
# Coordination Sequence:
#
# PCOD8270903 Si02
#       6
#    16  16  16  16  16  16
#     4   9  17  27  42  67  97 127 159 193 228 273
#     4   9  17  29  46  65  89 124 159 191 229 274
#     4   9  18  32  50  69  93 128 163 194 232 279
#     4  10  20  34  48  67  94 123 161 201 235 278
#     4  10  20  34  48  67  92 122 164 203 235 279
#     4  11  21  32  47  67  92 124 158 198 245 282
#
# _framework density 17.565811
#
# number of rings (size 3 to 8) (size 9 to 14) (size 15 to 20)
#    0.000    2.333    1.667    2.500    0.000    3.667 
#    0.000    5.000    0.000    0.000    0.000    0.000 
#    0.000   10.667    0.000   29.333    0.000    1.667 
#
# Total GULP energy -594704.536448 kJ/mol
# GULP energy per Si atom -12389.677843 kJ/mol
# Density = 1.752583 g / cm^3
# Si number density = 17.565811 Si / 1000 Ang^3
#
#
#
# Elastic Constant Matrix: (Units=GPa)
#
#
# Indices 1 2 3 4 5 6 
#
# 1 92.2126 16.6945 13.9662 0.0000 0.0000 0.0000
# 2 16.6945 56.5445 14.5804 0.0000 0.0000 0.0000
# 3 13.9662 14.5804 40.9414 0.0000 0.0000 0.0000
# 4 0.0000 0.0000 0.0000 16.1406 0.0000 0.0000
# 5 0.0000 0.0000 0.0000 0.0000 26.4680 0.0000
# 6 0.0000 0.0000 0.0000 0.0000 0.0000 17.6045
#
#
#
# Elastic Compliance Matrix: (Units=1/GPa)
#
#
# Indices 1 2 3 4 5 6 
#
# 1 0.011796 -0.002692 -0.003065 0.000000 0.000000 0.000000
# 2 -0.002692 0.020088 -0.006235 0.000000 0.000000 0.000000
# 3 -0.003065 -0.006235 0.027691 0.000000 0.000000 0.000000
# 4 0.000000 0.000000 0.000000 0.061956 0.000000 0.000000
# 5 0.000000 0.000000 0.000000 0.000000 0.037781 0.000000
# 6 0.000000 0.000000 0.000000 0.000000 0.000000 0.056804
#
#
# Mechanical properties :
#
#
# Convention : Reuss Voigt Hill
#
# Bulk Modulus (GPa) = 28.09813 31.13117 29.61465
# Shear Modulus (GPa) = 19.84400 21.67313 20.75856
#
# Velocity S-wave (km/s) = 3.36474 3.51639 3.44140
# Velocity P-wave (km/s) = 5.57906 5.85216 5.71724
#
# Compressibility (1/GPa) = 0.03558955
#
# Stress axis : x y z
#
# Youngs Moduli (GPa) = 84.77323 49.78104 36.11233
#
# Poissons Ratio (x) = 0.13403 0.11069
# Poissons Ratio (y) = 0.22824 0.22518
# Poissons Ratio (z) = 0.25984 0.31041
#
# Static dielectric constant tensor:
#      x y z
#    x 3.398430 0.000000 0.000000 
#    y 0.000000 3.056150 0.000000 
#    z 0.000000 0.000000 3.686540 
# 
# 
# High freq. dielectric constant tensor:
#      x y z
#    x 1.661770 0.000000 0.000000 
#    y 0.000000 1.621420 0.000000 
#    z 0.000000 0.000000 1.701120 
# 
# From -- ./inp_files/41259.got.cif
#   From: 2010.03.12/outbox.cif.g09.slc.cpg/sg65_21_cif.got.tgz:41259.got - 2010.04.10 20:52:16.
