data_PCOD8270950
_publ_section_title
;
Structure prediction by ZEFSAII (Michael W. Deem and Ramdas Pophale) SiO2 
 PCOD8270950
Probable space group: C M M M
;
_chemical_formula_sum "Si O2"
_cell_formula_units_Z 88
_cell_length_a 9.234796
_cell_length_b 27.206329
_cell_length_c 21.261421
_cell_angle_alpha 90.000000
_cell_angle_beta 90.000000
_cell_angle_gamma 90.000000
_cell_volume 5341.823555
_symmetry_space_group_name_H-M "C M M M"
_symmetry_group_IT_number 65
_symmetry_cell_setting 'orthorhombic'
loop_
_space_group_symop_operation_xyz
x,y,z
-x,-y,z
x,-y,-z
-x,y,-z
-x,-y,-z
x,y,-z
-x,y,z
x,-y,z
1/2+x,1/2+y,z
1/2-x,1/2-y,z
1/2+x,1/2-y,-z
1/2-x,1/2+y,-z
1/2-x,1/2-y,-z
1/2+x,1/2+y,-z
1/2-x,1/2+y,z
1/2+x,1/2-y,z
loop_
_atom_site_type_symbol
_atom_site_label
_atom_site_fract_x
_atom_site_fract_y
_atom_site_fract_z
Si Si1 0.332325 0.886501 0.746740
Si Si2 0.663421 0.558434 0.500000
Si Si3 0.832008 0.555203 0.870877
Si Si4 0.328599 0.699126 0.808867
Si Si5 0.832958 0.859760 0.070122
Si Si6 0.668802 0.056511 0.378315
O O1 0.500000 0.869923 0.747088
O O2 0.303015 0.926962 0.800063
O O3 0.230752 0.839459 0.757790
O O4 0.287021 0.910715 0.681100
O O5 0.668687 0.500000 0.500000
O O6 0.500000 0.578574 0.500000
O O7 0.744057 0.577883 0.562190
O O8 0.771394 0.500000 0.877118
O O9 0.752131 0.589581 0.920818
O O10 0.000000 0.557106 0.887591
O O11 0.500000 0.705330 0.800735
O O12 0.250000 0.750000 0.796002
O O13 0.285000 0.681069 0.879092
O O14 0.000000 0.872571 0.079894
O O15 0.801521 0.839230 0.000000
O O16 0.500000 0.060984 0.393813
O O17 0.710276 0.000000 0.363967
#
# Coordination Sequence:
#
# PCOD8270950 Si02
#       6
#    16   8  16  16  16  16
#     4   9  17  30  48  69  92 119 152 189 228 269
#     4   9  17  27  39  61  96 133 164 193 223 255
#     4   9  17  29  45  66  92 120 151 187 224 263
#     4  10  20  34  51  69  89 113 144 186 234 280
#     4   9  19  34  48  64  88 117 149 184 224 273
#     4   9  16  27  45  68  95 128 162 191 220 258
#
# _framework density 16.473776000000001
#
# number of rings (size 3 to 8) (size 9 to 14) (size 15 to 20)
#    0.000    2.818    0.000    1.364    0.000    6.182 
#    0.000    1.818    0.000    3.273    0.000    0.636 
#    0.000    0.000    0.000    0.000    0.000    0.000 
#
# Total GULP energy -545608.200605 kJ/mol
# GULP energy per Si atom -12400.186377 kJ/mol
# Density = 1.643628 g / cm^3
# Si number density = 16.473776 Si / 1000 Ang^3
#
#
#
# Elastic Constant Matrix: (Units=GPa)
#
#
# Indices 1 2 3 4 5 6 
#
# 1 64.2217 43.0543 44.1034 0.0000 0.0000 0.0000
# 2 43.0543 93.5950 38.1549 0.0000 0.0000 0.0000
# 3 44.1034 38.1549 111.9684 0.0000 0.0000 0.0000
# 4 0.0000 0.0000 0.0000 15.3026 0.0000 0.0000
# 5 0.0000 0.0000 0.0000 0.0000 24.7802 0.0000
# 6 0.0000 0.0000 0.0000 0.0000 0.0000 25.8571
#
#
#
# Elastic Compliance Matrix: (Units=1/GPa)
#
#
# Indices 1 2 3 4 5 6 
#
# 1 0.026951 -0.009372 -0.007422 0.000000 0.000000 0.000000
# 2 -0.009372 0.015667 -0.001647 0.000000 0.000000 0.000000
# 3 -0.007422 -0.001647 0.012416 0.000000 0.000000 0.000000
# 4 0.000000 0.000000 0.000000 0.065348 0.000000 0.000000
# 5 0.000000 0.000000 0.000000 0.000000 0.040355 0.000000
# 6 0.000000 0.000000 0.000000 0.000000 0.000000 0.038674
#
#
# Mechanical properties :
#
#
# Convention : Reuss Voigt Hill
#
# Bulk Modulus (GPa) = 55.09243 57.82338 56.45790
# Shear Modulus (GPa) = 20.63178 22.81949 21.72564
#
# Velocity S-wave (km/s) = 3.54277 3.72587 3.63547
# Velocity P-wave (km/s) = 7.08873 7.32707 7.20888
#
# Compressibility (1/GPa) = 0.01815132
#
# Stress axis : x y z
#
# Youngs Moduli (GPa) = 37.10418 63.82832 80.54162
#
# Poissons Ratio (x) = 0.59820 0.59779
# Poissons Ratio (y) = 0.34774 0.13267
# Poissons Ratio (z) = 0.27539 0.10514
#
# Static dielectric constant tensor:
#      x y z
#    x 3.121020 0.000000 0.000000 
#    y 0.000000 2.928610 0.000000 
#    z 0.000000 0.000000 3.139470 
# 
# 
# High freq. dielectric constant tensor:
#      x y z
#    x 1.635920 0.000000 0.000000 
#    y 0.000000 1.609480 0.000000 
#    z 0.000000 0.000000 1.630310 
# 
# From -- ./inp_files/59783.got.cif
#   From: 2010.03.12/outbox.cif.g09.slc.cpg/sg65_30_cif.got.tgz:59783.got - 2010.04.10 20:52:16.
