data_PCOD8270450
_publ_section_title
;
Structure prediction by ZEFSAII (Michael W. Deem and Ramdas Pophale) SiO2 
 PCOD8270450
Probable space group: C M M M
;
_chemical_formula_sum "Si O2"
_cell_formula_units_Z 72
_cell_length_a 9.218952
_cell_length_b 25.312507
_cell_length_c 17.084411
_cell_angle_alpha 90.000000
_cell_angle_beta 90.000000
_cell_angle_gamma 90.000000
_cell_volume 3986.729090
_symmetry_space_group_name_H-M "C M M M"
_symmetry_group_IT_number 65
_symmetry_cell_setting 'orthorhombic'
loop_
_space_group_symop_operation_xyz
x,y,z
-x,-y,z
x,-y,-z
-x,y,-z
-x,-y,-z
x,y,-z
-x,y,z
x,-y,z
1/2+x,1/2+y,z
1/2-x,1/2-y,z
1/2+x,1/2-y,-z
1/2-x,1/2+y,-z
1/2-x,1/2-y,-z
1/2+x,1/2+y,-z
1/2-x,1/2+y,z
1/2+x,1/2-y,z
loop_
_atom_site_type_symbol
_atom_site_label
_atom_site_fract_x
_atom_site_fract_y
_atom_site_fract_z
Si Si1 0.828535 0.699197 0.240113
Si Si2 0.672438 0.000000 0.412884
Si Si3 0.836458 0.056872 0.142159
Si Si4 0.332320 0.668254 0.913299
Si Si5 0.170511 0.585644 0.292133
O O1 0.750000 0.750000 0.278881
O O2 0.771556 0.694389 0.150847
O O3 0.785332 0.647890 0.292176
O O4 0.000000 0.708078 0.237777
O O5 0.725377 0.946349 0.368738
O O6 0.500000 0.000000 0.417690
O O7 0.740266 0.000000 0.500000
O O8 0.803519 0.105058 0.083849
O O9 0.733730 0.057529 0.216763
O O10 0.000000 0.062119 0.173947
O O11 0.813841 0.000000 0.099288
O O12 0.500000 0.680658 0.892230
O O13 0.293896 0.689953 0.000000
O O14 0.000000 0.580547 0.284878
#
# Coordination Sequence:
#
# PCOD8270450 Si02
#       5
#    16   8  16  16  16
#     4  10  20  33  50  70  91 122 163 202 239 279
#     4   9  16  28  51  81 106 125 148 184 229 275
#     4   9  16  26  43  66  92 125 160 192 232 280
#     4   9  18  31  45  64  92 124 159 201 245 285
#     4   9  17  30  49  72  97 124 156 192 229 274
#
# _framework density 18.059919000000001
#
# number of rings (size 3 to 8) (size 9 to 14) (size 15 to 20)
#    0.000    2.778    1.111    0.667    0.000    2.222 
#    0.000    2.222    0.000    2.000    0.000    6.222 
#    0.000    0.000    0.000    0.000    0.000    0.667 
#
# Total GULP energy -446045.429909 kJ/mol
# GULP energy per Si atom -12390.150831 kJ/mol
# Density = 1.801881 g / cm^3
# Si number density = 18.059919 Si / 1000 Ang^3
#
#
#
# Elastic Constant Matrix: (Units=GPa)
#
#
# Indices 1 2 3 4 5 6 
#
# 1 39.1197 37.4165 19.9229 0.0000 0.0000 0.0000
# 2 37.4165 130.0442 34.1613 0.0000 0.0000 0.0000
# 3 19.9229 34.1613 84.0871 0.0000 0.0000 0.0000
# 4 0.0000 0.0000 0.0000 16.1020 0.0000 0.0000
# 5 0.0000 0.0000 0.0000 0.0000 9.8001 0.0000
# 6 0.0000 0.0000 0.0000 0.0000 0.0000 24.0759
#
#
#
# Elastic Compliance Matrix: (Units=1/GPa)
#
#
# Indices 1 2 3 4 5 6 
#
# 1 0.037040 -0.009350 -0.004978 0.000000 0.000000 0.000000
# 2 -0.009350 0.010968 -0.002241 0.000000 0.000000 0.000000
# 3 -0.004978 -0.002241 0.013982 0.000000 0.000000 0.000000
# 4 0.000000 0.000000 0.000000 0.062104 0.000000 0.000000
# 5 0.000000 0.000000 0.000000 0.000000 0.102040 0.000000
# 6 0.000000 0.000000 0.000000 0.000000 0.000000 0.041535
#
#
# Mechanical properties :
#
#
# Convention : Reuss Voigt Hill
#
# Bulk Modulus (GPa) = 34.65651 48.47247 41.56449
# Shear Modulus (GPa) = 16.10698 20.77895 18.44296
#
# Velocity S-wave (km/s) = 2.98965 3.39566 3.19910
# Velocity P-wave (km/s) = 5.58110 6.50170 6.05891
#
# Compressibility (1/GPa) = 0.02885461
#
# Stress axis : x y z
#
# Youngs Moduli (GPa) = 26.99773 91.17077 71.51988
#
# Poissons Ratio (x) = 0.85242 0.35599
# Poissons Ratio (y) = 0.25242 0.16026
# Poissons Ratio (z) = 0.13438 0.20430
#
# Static dielectric constant tensor:
#      x y z
#    x 3.212980 0.000000 0.000000 
#    y 0.000000 3.788160 0.000000 
#    z 0.000000 0.000000 3.172730 
# 
# 
# High freq. dielectric constant tensor:
#      x y z
#    x 1.685850 0.000000 0.000000 
#    y 0.000000 1.721070 0.000000 
#    z 0.000000 0.000000 1.650650 
# 
# From -- ./inp_files/49697.got.cif
#   From: 2010.03.12/outbox.cif.g09.slc.cpg/sg65_25_cif.got.tgz:49697.got - 2010.04.10 20:52:16.
