data_PCOD8270930
_publ_section_title
;
Structure prediction by ZEFSAII (Michael W. Deem and Ramdas Pophale) SiO2 
 PCOD8270930
Probable space group: C M M M
;
_chemical_formula_sum "Si O2"
_cell_formula_units_Z 96
_cell_length_a 8.808564
_cell_length_b 26.987184
_cell_length_c 24.102180
_cell_angle_alpha 90.000000
_cell_angle_beta 90.000000
_cell_angle_gamma 90.000000
_cell_volume 5729.530158
_symmetry_space_group_name_H-M "C M M M"
_symmetry_group_IT_number 65
_symmetry_cell_setting 'orthorhombic'
loop_
_space_group_symop_operation_xyz
x,y,z
-x,-y,z
x,-y,-z
-x,y,-z
-x,-y,-z
x,y,-z
-x,y,z
x,-y,z
1/2+x,1/2+y,z
1/2-x,1/2-y,z
1/2+x,1/2-y,-z
1/2-x,1/2+y,-z
1/2-x,1/2-y,-z
1/2+x,1/2+y,-z
1/2-x,1/2+y,z
1/2+x,1/2-y,z
loop_
_atom_site_type_symbol
_atom_site_label
_atom_site_fract_x
_atom_site_fract_y
_atom_site_fract_z
Si Si1 0.822327 0.803688 0.560115
Si Si2 0.678454 0.401256 0.936989
Si Si3 0.178097 0.144689 0.227584
Si Si4 0.825217 0.443394 0.833287
Si Si5 0.824025 0.801139 0.116768
Si Si6 0.320577 0.195575 0.330481
O O1 0.796503 0.830676 0.500000
O O2 0.750000 0.750000 0.555945
O O3 0.739386 0.830030 0.612107
O O4 0.000000 0.799100 0.573274
O O5 0.500000 0.407257 0.924878
O O6 0.768291 0.438030 0.896637
O O7 0.728892 0.344685 0.924695
O O8 0.719602 0.415002 0.000000
O O9 0.226482 0.089931 0.208330
O O10 0.219855 0.183901 0.179515
O O11 0.271667 0.159232 0.281624
O O12 0.000000 0.144727 0.240825
O O13 0.804236 0.500000 0.814641
O O14 0.000000 0.426858 0.830034
O O15 0.750000 0.750000 0.098598
O O16 0.000000 0.792387 0.111322
O O17 0.500000 0.200578 0.331868
O O18 0.250000 0.250000 0.321831
#
# Coordination Sequence:
#
# PCOD8270930 Si02
#       6
#    16  16  16  16  16  16
#     4   9  16  26  40  59  87 125 167 205 237 270
#     4   9  19  35  51  68  92 121 154 188 222 270
#     4  10  20  34  50  68  92 121 156 194 231 278
#     4  10  21  36  53  73  95 116 142 184 238 289
#     4   9  18  30  45  65  89 119 151 185 223 263
#     4  11  20  29  44  67  97 131 165 199 236 276
#
# _framework density 16.755300999999999
#
# number of rings (size 3 to 8) (size 9 to 14) (size 15 to 20)
#    0.000    2.333    0.000    5.500    0.000    8.000 
#    0.000    1.667    0.000    0.000    0.000    0.000 
#    0.000    0.667    0.000    7.000    0.000    3.000 
#
# Total GULP energy -595023.849804 kJ/mol
# GULP energy per Si atom -12396.330204 kJ/mol
# Density = 1.671716 g / cm^3
# Si number density = 16.755301 Si / 1000 Ang^3
#
#
#
# Elastic Constant Matrix: (Units=GPa)
#
#
# Indices 1 2 3 4 5 6 
#
# 1 87.4140 22.7079 42.7476 0.0000 0.0000 0.0000
# 2 22.7079 53.8029 18.5476 0.0000 0.0000 0.0000
# 3 42.7476 18.5476 101.5214 0.0000 0.0000 0.0000
# 4 0.0000 0.0000 0.0000 -13.6759 0.0000 0.0000
# 5 0.0000 0.0000 0.0000 0.0000 27.1481 0.0000
# 6 0.0000 0.0000 0.0000 0.0000 0.0000 24.3081
#
#
#
# Elastic Compliance Matrix: (Units=1/GPa)
#
#
# Indices 1 2 3 4 5 6 
#
# 1 0.015382 -0.004546 -0.005646 0.000000 0.000000 0.000000
# 2 -0.004546 0.021179 -0.001955 0.000000 0.000000 0.000000
# 3 -0.005646 -0.001955 0.012585 0.000000 0.000000 0.000000
# 4 0.000000 0.000000 0.000000 -0.073121 0.000000 0.000000
# 5 0.000000 0.000000 0.000000 0.000000 0.036835 0.000000
# 6 0.000000 0.000000 0.000000 0.000000 0.000000 0.041139
#
#
# Mechanical properties :
#
#
# Convention : Reuss Voigt Hill
#
# Bulk Modulus (GPa) = 40.23958 45.63830 42.93894
# Shear Modulus (GPa) = 57.75268 18.13840 37.94554
#
# Velocity S-wave (km/s) = 5.87734 3.29378 4.76404
# Velocity P-wave (km/s) = 8.37411 6.46240 7.47958
#
# Compressibility (1/GPa) = 0.02485115
#
# Stress axis : x y z
#
# Youngs Moduli (GPa) = 65.01176 47.21683 79.46044
#
# Poissons Ratio (x) = 0.21463 0.44866
# Poissons Ratio (y) = 0.29551 0.15537
# Poissons Ratio (z) = 0.36708 0.09232
#
# Static dielectric constant tensor:
#      x y z
#    x 3.232790 0.000000 0.000000 
#    y 0.000000 2.889780 0.000000 
#    z 0.000000 0.000000 3.597020 
# 
# 
# High freq. dielectric constant tensor:
#      x y z
#    x 1.658610 0.000000 0.000000 
#    y 0.000000 1.604040 0.000000 
#    z 0.000000 0.000000 1.649200 
# 
# From -- ./inp_files/68038.got.cif
#   From: 2010.03.12/outbox.cif.g09.slc.cpg/sg65_35_cif.got.tgz:68038.got - 2010.04.10 20:52:16.
