data_PCOD8270923
_publ_section_title
;
Structure prediction by ZEFSAII (Michael W. Deem and Ramdas Pophale) SiO2 
 PCOD8270923
Probable space group: C M M M
;
_chemical_formula_sum "Si O2"
_cell_formula_units_Z 104
_cell_length_a 8.069710
_cell_length_b 27.468371
_cell_length_c 28.460745
_cell_angle_alpha 90.000000
_cell_angle_beta 90.000000
_cell_angle_gamma 90.000000
_cell_volume 6308.659629
_symmetry_space_group_name_H-M "C M M M"
_symmetry_group_IT_number 65
_symmetry_cell_setting 'orthorhombic'
loop_
_space_group_symop_operation_xyz
x,y,z
-x,-y,z
x,-y,-z
-x,y,-z
-x,-y,-z
x,y,-z
-x,y,z
x,-y,z
1/2+x,1/2+y,z
1/2-x,1/2-y,z
1/2+x,1/2-y,-z
1/2-x,1/2+y,-z
1/2-x,1/2-y,-z
1/2+x,1/2+y,-z
1/2-x,1/2+y,z
1/2+x,1/2-y,z
loop_
_atom_site_type_symbol
_atom_site_label
_atom_site_fract_x
_atom_site_fract_y
_atom_site_fract_z
Si Si1 0.196406 0.944081 0.211482
Si Si2 0.195483 0.353869 0.448165
Si Si3 0.000000 0.058069 0.946670
Si Si4 0.315135 0.057837 0.111082
Si Si5 0.304909 0.946013 0.607412
Si Si6 0.807431 0.894767 0.695554
Si Si7 0.805566 0.802827 0.358890
O O1 0.283436 0.924596 0.164309
O O2 0.267487 0.911232 0.254340
O O3 0.000000 0.939201 0.205156
O O4 0.244570 0.000000 0.221566
O O5 0.271719 0.343959 0.500000
O O6 0.262292 0.406211 0.429741
O O7 0.247447 0.311288 0.412467
O O8 0.000000 0.355192 0.451773
O O9 0.831783 0.078654 0.922182
O O10 0.000000 0.000000 0.944083
O O11 0.000000 0.076853 0.000000
O O12 0.500000 0.075564 0.095068
O O13 0.306657 0.000000 0.109315
O O14 0.500000 0.940480 0.613870
O O15 0.222116 0.937357 0.657911
O O16 0.256594 0.000000 0.589541
O O17 0.727987 0.844095 0.675842
O O18 0.000000 0.887130 0.703360
O O19 0.750000 0.750000 0.341227
O O20 0.000000 0.807044 0.357455
#
# Coordination Sequence:
#
# PCOD8270923 Si02
#       7
#    16  16   8  16  16  16  16
#     4   9  15  25  41  59  83 112 139 174 217 256
#     4   9  18  32  48  65  84 107 136 168 205 249
#     4   9  16  26  38  52  76 112 154 198 235 263
#     4   9  16  25  37  55  79 109 148 191 230 265
#     4   9  17  28  42  62  88 112 134 165 203 245
#     4   9  18  30  45  64  83 108 141 172 205 255
#     4  10  20  34  50  66  84 106 134 171 212 256
#
# _framework density 16.485275999999999
#
# number of rings (size 3 to 8) (size 9 to 14) (size 15 to 20)
#    0.000    2.846    0.769    0.923    0.000    3.385 
#    0.000    4.615    0.000    0.000    0.000    4.308 
#    0.000    0.000    0.000    0.000    0.000    0.769 
#
# Total GULP energy -644453.502579 kJ/mol
# GULP energy per Si atom -12393.336588 kJ/mol
# Density = 1.644776 g / cm^3
# Si number density = 16.485276 Si / 1000 Ang^3
#
#
#
# Elastic Constant Matrix: (Units=GPa)
#
#
# Indices 1 2 3 4 5 6 
#
# 1 52.2989 12.3733 44.4957 0.0000 0.0000 0.0000
# 2 12.3733 66.3578 28.3125 0.0000 0.0000 0.0000
# 3 44.4957 28.3125 119.3638 0.0000 0.0000 0.0000
# 4 0.0000 0.0000 0.0000 11.9427 0.0000 0.0000
# 5 0.0000 0.0000 0.0000 0.0000 17.4406 0.0000
# 6 0.0000 0.0000 0.0000 0.0000 0.0000 12.2796
#
#
#
# Elastic Compliance Matrix: (Units=1/GPa)
#
#
# Indices 1 2 3 4 5 6 
#
# 1 0.028045 -0.000855 -0.010252 0.000000 0.000000 0.000000
# 2 -0.000855 0.016793 -0.003664 0.000000 0.000000 0.000000
# 3 -0.010252 -0.003664 0.013068 0.000000 0.000000 0.000000
# 4 0.000000 0.000000 0.000000 0.083733 0.000000 0.000000
# 5 0.000000 0.000000 0.000000 0.000000 0.057338 0.000000
# 6 0.000000 0.000000 0.000000 0.000000 0.000000 0.081436
#
#
# Mechanical properties :
#
#
# Convention : Reuss Voigt Hill
#
# Bulk Modulus (GPa) = 35.25620 45.37594 40.31607
# Shear Modulus (GPa) = 15.65386 18.52186 17.08786
#
# Velocity S-wave (km/s) = 3.08485 3.35556 3.22305
# Velocity P-wave (km/s) = 5.84134 6.52671 6.19351
#
# Compressibility (1/GPa) = 0.02836380
#
# Stress axis : x y z
#
# Youngs Moduli (GPa) = 35.65663 59.54961 76.52017
#
# Poissons Ratio (x) = 0.05094 0.78446
# Poissons Ratio (y) = 0.03050 0.28039
# Poissons Ratio (z) = 0.36554 0.21821
#
# Static dielectric constant tensor:
#      x y z
#    x 3.111650 0.000000 0.000000 
#    y 0.000000 2.838930 0.000000 
#    z 0.000000 0.000000 3.306710 
# 
# 
# High freq. dielectric constant tensor:
#      x y z
#    x 1.635280 0.000000 0.000000 
#    y 0.000000 1.586640 0.000000 
#    z 0.000000 0.000000 1.623530 
# 
# From -- ./inp_files/73782.got.cif
#   From: 2010.03.12/outbox.cif.g09.slc.cpg/sg65_37_cif.got.tgz:73782.got - 2010.04.10 20:52:16.
