data_PCOD8270357
_publ_section_title
;
Structure prediction by ZEFSAII (Michael W. Deem and Ramdas Pophale) SiO2 
 PCOD8270357
Probable space group: C M M M
;
_chemical_formula_sum "Si O2"
_cell_formula_units_Z 80
_cell_length_a 27.946748
_cell_length_b 18.207819
_cell_length_c 8.928900
_cell_angle_alpha 90.000000
_cell_angle_beta 90.000000
_cell_angle_gamma 90.000000
_cell_volume 4543.464776
_symmetry_space_group_name_H-M "C M M M"
_symmetry_group_IT_number 65
_symmetry_cell_setting 'orthorhombic'
loop_
_space_group_symop_operation_xyz
x,y,z
-x,-y,z
x,-y,-z
-x,y,-z
-x,-y,-z
x,y,-z
-x,y,z
x,-y,z
1/2+x,1/2+y,z
1/2-x,1/2-y,z
1/2+x,1/2-y,-z
1/2-x,1/2+y,-z
1/2-x,1/2-y,-z
1/2+x,1/2+y,-z
1/2-x,1/2+y,z
1/2+x,1/2-y,z
loop_
_atom_site_type_symbol
_atom_site_label
_atom_site_fract_x
_atom_site_fract_y
_atom_site_fract_z
Si Si1 0.448074 0.274117 0.323959
Si Si2 0.396338 0.418492 0.326943
Si Si3 0.850184 0.713196 0.325466
Si Si4 0.692058 0.648911 0.176431
Si Si5 0.783818 0.416144 0.327034
O O1 0.452460 0.263900 0.500000
O O2 0.500000 0.254038 0.251201
O O3 0.436506 0.358953 0.283268
O O4 0.404828 0.222335 0.263520
O O5 0.381527 0.409214 0.500000
O O6 0.416703 0.500000 0.294852
O O7 0.348940 0.406565 0.229916
O O8 0.849358 0.733983 0.500000
O O9 0.814794 0.770150 0.244975
O O10 0.832139 0.630595 0.296440
O O11 0.742453 0.615595 0.224191
O O12 0.690742 0.656290 0.000000
O O13 0.768087 0.409209 0.500000
O O14 0.795260 0.500000 0.283578
#
# Coordination Sequence:
#
# PCOD8270357 Si02
#       5
#    16  16  16  16  16
#     4   8  14  26  46  70  91 114 150 193 230 265
#     4   9  17  29  45  66  94 127 159 188 221 265
#     4   9  18  33  51  69  91 121 155 188 224 270
#     4  11  21  31  46  69  96 125 156 188 224 266
#     4  10  20  33  49  68  92 123 156 188 224 270
#
# _framework density 17.607707000000001
#
# number of rings (size 3 to 8) (size 9 to 14) (size 15 to 20)
#    0.000    2.600    0.000    4.200    0.000    6.800 
#    0.000    2.000    0.000   10.200    0.000    9.800 
#    0.000    0.000    0.000    9.000    0.000   10.000 
#
# Total GULP energy -495800.403513 kJ/mol
# GULP energy per Si atom -12395.010088 kJ/mol
# Density = 1.756763 g / cm^3
# Si number density = 17.607707 Si / 1000 Ang^3
#
#
#
# Elastic Constant Matrix: (Units=GPa)
#
#
# Indices 1 2 3 4 5 6 
#
# 1 128.2471 72.7552 32.7944 0.0000 0.0000 0.0000
# 2 72.7552 115.8319 31.2964 0.0000 0.0000 0.0000
# 3 32.7944 31.2964 58.8434 0.0000 0.0000 0.0000
# 4 0.0000 0.0000 0.0000 5.2889 0.0000 0.0000
# 5 0.0000 0.0000 0.0000 0.0000 0.4704 0.0000
# 6 0.0000 0.0000 0.0000 0.0000 0.0000 32.8420
#
#
#
# Elastic Compliance Matrix: (Units=1/GPa)
#
#
# Indices 1 2 3 4 5 6 
#
# 1 0.012638 -0.007048 -0.003295 0.000000 0.000000 0.000000
# 2 -0.007048 0.014012 -0.003525 0.000000 0.000000 0.000000
# 3 -0.003295 -0.003525 0.020705 0.000000 0.000000 0.000000
# 4 0.000000 0.000000 0.000000 0.189074 0.000000 0.000000
# 5 0.000000 0.000000 0.000000 0.000000 2.125889 0.000000
# 6 0.000000 0.000000 0.000000 0.000000 0.000000 0.030449
#
#
# Mechanical properties :
#
#
# Convention : Reuss Voigt Hill
#
# Bulk Modulus (GPa) = 50.96669 64.06827 57.51748
# Shear Modulus (GPa) = 2.06012 18.79203 10.42608
#
# Velocity S-wave (km/s) = 1.08284 3.27044 2.43601
# Velocity P-wave (km/s) = 5.52919 7.12226 6.37567
#
# Compressibility (1/GPa) = 0.01962066
#
# Stress axis : x y z
#
# Youngs Moduli (GPa) = 79.12385 71.36505 48.29692
#
# Poissons Ratio (x) = 0.50298 0.15914
# Poissons Ratio (y) = 0.55767 0.17023
# Poissons Ratio (z) = 0.26072 0.25154
#
# Static dielectric constant tensor:
#      x y z
#    x 3.499640 0.000000 0.000000 
#    y 0.000000 3.350600 0.000000 
#    z 0.000000 0.000000 2.981900 
# 
# 
# High freq. dielectric constant tensor:
#      x y z
#    x 1.673670 0.000000 0.000000 
#    y 0.000000 1.671860 0.000000 
#    z 0.000000 0.000000 1.649880 
# 
# From -- ./inp_files/9639.got.cif
#   From: 2010.03.12/outbox.cif.g09.slc.cpg/sg65_5_cif.got.tgz:9639.got - 2010.04.10 20:52:16.
