data_PCOD8270915
_publ_section_title
;
Structure prediction by ZEFSAII (Michael W. Deem and Ramdas Pophale) SiO2 
 PCOD8270915
Probable space group: C M M M
;
_chemical_formula_sum "Si O2"
_cell_formula_units_Z 96
_cell_length_a 9.148765
_cell_length_b 27.443154
_cell_length_c 24.493748
_cell_angle_alpha 90.000000
_cell_angle_beta 90.000000
_cell_angle_gamma 90.000000
_cell_volume 6149.668991
_symmetry_space_group_name_H-M "C M M M"
_symmetry_group_IT_number 65
_symmetry_cell_setting 'orthorhombic'
loop_
_space_group_symop_operation_xyz
x,y,z
-x,-y,z
x,-y,-z
-x,y,-z
-x,-y,-z
x,y,-z
-x,y,z
x,-y,z
1/2+x,1/2+y,z
1/2-x,1/2-y,z
1/2+x,1/2-y,-z
1/2-x,1/2+y,-z
1/2-x,1/2-y,-z
1/2+x,1/2+y,-z
1/2-x,1/2+y,z
1/2+x,1/2-y,z
loop_
_atom_site_type_symbol
_atom_site_label
_atom_site_fract_x
_atom_site_fract_y
_atom_site_fract_z
Si Si1 0.663705 0.442128 0.557774
Si Si2 0.669553 0.554734 0.115027
Si Si3 0.825104 0.945209 0.674767
Si Si4 0.830659 0.638671 0.060969
Si Si5 0.170513 0.885445 0.778107
Si Si6 0.673080 0.801021 0.835404
O O1 0.742937 0.425967 0.500000
O O2 0.500000 0.421028 0.555484
O O3 0.657326 0.500000 0.560287
O O4 0.736480 0.425586 0.615548
O O5 0.500000 0.555735 0.100642
O O6 0.731929 0.500000 0.111408
O O7 0.748664 0.587924 0.070388
O O8 0.698651 0.574243 0.175747
O O9 0.771746 0.908384 0.721510
O O10 0.000000 0.946530 0.673024
O O11 0.767224 0.000000 0.687044
O O12 0.780973 0.679491 0.104473
O O13 0.000000 0.627283 0.068779
O O14 0.795236 0.657956 0.000000
O O15 0.266801 0.837765 0.789577
O O16 0.000000 0.870813 0.775515
O O17 0.500000 0.795306 0.829146
O O18 0.750000 0.750000 0.825884
#
# Coordination Sequence:
#
# PCOD8270915 Si02
#       6
#    16  16  16  16  16  16
#     4   7   9  13  22  41  74 113 146 173 200 227
#     4   9  17  28  42  61  85 112 140 169 198 227
#     4   8  12  18  32  55  82 114 148 175 198 228
#     4   9  19  34  48  63  83 105 130 160 195 239
#     4   9  16  27  43  62  84 109 138 170 202 238
#     4  10  20  34  50  65  81 101 126 160 204 250
#
# _framework density 15.610595999999999
#
# number of rings (size 3 to 8) (size 9 to 14) (size 15 to 20)
#    0.000    3.333    0.000    2.500    0.000    4.000 
#    0.000    1.667    0.000    1.500    0.000    0.000 
#    0.000    1.333    0.000    5.333    0.000    5.000 
#
# Total GULP energy -594661.526954 kJ/mol
# GULP energy per Si atom -12388.781812 kJ/mol
# Density = 1.557507 g / cm^3
# Si number density = 15.610596 Si / 1000 Ang^3
#
#
#
# Elastic Constant Matrix: (Units=GPa)
#
#
# Indices 1 2 3 4 5 6 
#
# 1 30.7460 30.2892 25.1665 0.0000 0.0000 0.0000
# 2 30.2892 95.5682 49.4097 0.0000 0.0000 0.0000
# 3 25.1665 49.4097 133.4537 0.0000 0.0000 0.0000
# 4 0.0000 0.0000 0.0000 12.8791 0.0000 0.0000
# 5 0.0000 0.0000 0.0000 0.0000 9.0263 0.0000
# 6 0.0000 0.0000 0.0000 0.0000 0.0000 19.5995
#
#
#
# Elastic Compliance Matrix: (Units=1/GPa)
#
#
# Indices 1 2 3 4 5 6 
#
# 1 0.049240 -0.013363 -0.004338 0.000000 0.000000 0.000000
# 2 -0.013363 0.016567 -0.003614 0.000000 0.000000 0.000000
# 3 -0.004338 -0.003614 0.009649 0.000000 0.000000 0.000000
# 4 0.000000 0.000000 0.000000 0.077645 0.000000 0.000000
# 5 0.000000 0.000000 0.000000 0.000000 0.110787 0.000000
# 6 0.000000 0.000000 0.000000 0.000000 0.000000 0.051022
#
#
# Mechanical properties :
#
#
# Convention : Reuss Voigt Hill
#
# Bulk Modulus (GPa) = 30.46319 52.16654 41.31486
# Shear Modulus (GPa) = 13.56913 18.62782 16.09848
#
# Velocity S-wave (km/s) = 2.95146 3.45814 3.21480
# Velocity P-wave (km/s) = 5.58316 7.03099 6.34848
#
# Compressibility (1/GPa) = 0.03282651
#
# Stress axis : x y z
#
# Youngs Moduli (GPa) = 20.30863 60.35919 103.63449
#
# Poissons Ratio (x) = 0.80660 0.44957
# Poissons Ratio (y) = 0.27139 0.37452
# Poissons Ratio (z) = 0.08810 0.21813
#
# Static dielectric constant tensor:
#      x y z
#    x 2.685080 0.000000 0.000000 
#    y 0.000000 2.767830 0.000000 
#    z 0.000000 0.000000 3.464710 
# 
# 
# High freq. dielectric constant tensor:
#      x y z
#    x 1.564380 0.000000 0.000000 
#    y 0.000000 1.565580 0.000000 
#    z 0.000000 0.000000 1.608340 
# 
# From -- ./inp_files/68071.got.cif
#   From: 2010.03.12/outbox.cif.g09.slc.cpg/sg65_35_cif.got.tgz:68071.got - 2010.04.10 20:52:16.
