data_PCOD8270000
_publ_section_title
;
Structure prediction by ZEFSAII (Michael W. Deem and Ramdas Pophale) SiO2 
 PCOD8270000
Probable space group: C M M M
;
_chemical_formula_sum "Si O2"
_cell_formula_units_Z 72
_cell_length_a 17.551050
_cell_length_b 23.425546
_cell_length_c 9.449405
_cell_angle_alpha 90.000000
_cell_angle_beta 90.000000
_cell_angle_gamma 90.000000
_cell_volume 3885.056050
_symmetry_space_group_name_H-M "C M M M"
_symmetry_group_IT_number 65
_symmetry_cell_setting 'orthorhombic'
loop_
_space_group_symop_operation_xyz
x,y,z
-x,-y,z
x,-y,-z
-x,y,-z
-x,-y,-z
x,y,-z
-x,y,z
x,-y,z
1/2+x,1/2+y,z
1/2-x,1/2-y,z
1/2+x,1/2-y,-z
1/2-x,1/2+y,-z
1/2-x,1/2-y,-z
1/2+x,1/2+y,-z
1/2-x,1/2+y,z
1/2+x,1/2-y,z
loop_
_atom_site_type_symbol
_atom_site_label
_atom_site_fract_x
_atom_site_fract_y
_atom_site_fract_z
Si Si1 0.909440 0.500000 0.344801
Si Si2 0.585361 0.877819 0.331587
Si Si3 0.090018 0.833738 0.158065
Si Si4 0.590667 0.436785 0.341567
Si Si5 0.336641 0.763446 0.665705
O O1 0.871254 0.500000 0.500000
O O2 0.886419 0.560247 0.268273
O O3 0.000000 0.500000 0.359619
O O4 0.583172 0.883762 0.500000
O O5 0.500000 0.862951 0.276592
O O6 0.643475 0.827977 0.285748
O O7 0.124925 0.889782 0.234956
O O8 0.109469 0.778008 0.246977
O O9 0.000000 0.839199 0.150422
O O10 0.124583 0.829900 0.000000
O O11 0.620839 0.423597 0.500000
O O12 0.500000 0.434262 0.341794
O O13 0.617853 0.500000 0.293726
O O14 0.353607 0.754452 0.500000
O O15 0.250000 0.750000 0.704245
#
# Coordination Sequence:
#
# PCOD8270000 Si02
#       5
#     8  16  16  16  16
#     4   7  10  18  36  64  91 109 136 185 240 286
#     4   8  13  23  42  67  91 116 148 191 242 288
#     4  10  20  32  48  71  96 125 164 205 245 292
#     4   8  14  26  46  71  96 121 151 193 244 288
#     4  10  20  32  47  67  96 130 163 198 240 294
#
# _framework density 18.532551999999999
#
# number of rings (size 3 to 8) (size 9 to 14) (size 15 to 20)
#    0.000    3.222    0.000    3.333    0.000    3.111 
#    0.000    2.222    2.444    0.000    0.000    0.778 
#    0.000    4.444    0.000    0.000    0.000    0.000 
#
# Total GULP energy -446009.331794 kJ/mol
# GULP energy per Si atom -12389.148105 kJ/mol
# Density = 1.849037 g / cm^3
# Si number density = 18.532552 Si / 1000 Ang^3
#
#
#
# Elastic Constant Matrix: (Units=GPa)
#
#
# Indices 1 2 3 4 5 6 
#
# 1 38.6513 42.9843 11.6485 0.0000 0.0000 0.0000
# 2 42.9843 199.6039 52.0423 0.0000 0.0000 0.0000
# 3 11.6485 52.0423 61.6488 0.0000 0.0000 0.0000
# 4 0.0000 0.0000 0.0000 4.2994 0.0000 0.0000
# 5 0.0000 0.0000 0.0000 0.0000 10.8159 0.0000
# 6 0.0000 0.0000 0.0000 0.0000 0.0000 12.6941
#
#
#
# Elastic Compliance Matrix: (Units=1/GPa)
#
#
# Indices 1 2 3 4 5 6 
#
# 1 0.034024 -0.007246 -0.000312 0.000000 0.000000 0.000000
# 2 -0.007246 0.007967 -0.005356 0.000000 0.000000 0.000000
# 3 -0.000312 -0.005356 0.020802 0.000000 0.000000 0.000000
# 4 0.000000 0.000000 0.000000 0.232588 0.000000 0.000000
# 5 0.000000 0.000000 0.000000 0.000000 0.092457 0.000000
# 6 0.000000 0.000000 0.000000 0.000000 0.000000 0.078777
#
#
# Mechanical properties :
#
#
# Convention : Reuss Voigt Hill
#
# Bulk Modulus (GPa) = 27.05316 57.02825 42.04071
# Shear Modulus (GPa) = 9.90561 18.44380 14.17470
#
# Velocity S-wave (km/s) = 2.31443 3.15812 2.76860
# Velocity P-wave (km/s) = 4.66599 6.64357 5.74058
#
# Compressibility (1/GPa) = 0.03696426
#
# Stress axis : x y z
#
# Youngs Moduli (GPa) = 29.39069 125.52097 48.07329
#
# Poissons Ratio (x) = 0.90948 0.01501
# Poissons Ratio (y) = 0.21295 0.25750
# Poissons Ratio (z) = 0.00918 0.67233
#
# Static dielectric constant tensor:
#      x y z
#    x 2.950890 0.000000 0.000000 
#    y 0.000000 4.005710 0.000000 
#    z 0.000000 0.000000 3.188160 
# 
# 
# High freq. dielectric constant tensor:
#      x y z
#    x 1.670100 0.000000 0.000000 
#    y 0.000000 1.745940 0.000000 
#    z 0.000000 0.000000 1.671280 
# 
# From -- ./inp_files/9288.got.cif
#   From: 2010.03.12/outbox.cif.g09.slc.cpg/sg65_5_cif.got.tgz:9288.got - 2010.04.10 20:52:16.
