data_PCOD8270561
_publ_section_title
;
Structure prediction by ZEFSAII (Michael W. Deem and Ramdas Pophale) SiO2 
 PCOD8270561
Probable space group: C M M M
;
_chemical_formula_sum "Si O2"
_cell_formula_units_Z 120
_cell_length_a 9.285966
_cell_length_b 26.048112
_cell_length_c 27.404298
_cell_angle_alpha 90.000000
_cell_angle_beta 90.000000
_cell_angle_gamma 90.000000
_cell_volume 6628.603186
_symmetry_space_group_name_H-M "C M M M"
_symmetry_group_IT_number 65
_symmetry_cell_setting 'orthorhombic'
loop_
_space_group_symop_operation_xyz
x,y,z
-x,-y,z
x,-y,-z
-x,y,-z
-x,-y,-z
x,y,-z
-x,y,z
x,-y,z
1/2+x,1/2+y,z
1/2-x,1/2-y,z
1/2+x,1/2-y,-z
1/2-x,1/2+y,-z
1/2-x,1/2-y,-z
1/2+x,1/2+y,-z
1/2-x,1/2+y,z
1/2+x,1/2-y,z
loop_
_atom_site_type_symbol
_atom_site_label
_atom_site_fract_x
_atom_site_fract_y
_atom_site_fract_z
Si Si1 0.667693 0.300307 0.056373
Si Si2 0.333503 0.406373 0.103773
Si Si3 0.665403 0.000000 0.057573
Si Si4 0.663879 0.440477 0.211308
Si Si5 0.332509 0.094999 0.303252
Si Si6 0.167020 0.641978 0.554845
Si Si7 0.163863 0.298807 0.351681
Si Si8 0.663806 0.558188 0.393964
O O1 0.500000 0.289767 0.063905
O O2 0.750000 0.250000 0.076120
O O3 0.718163 0.350122 0.086669
O O4 0.706289 0.310523 0.000000
O O5 0.500000 0.415789 0.089445
O O6 0.239704 0.449054 0.077433
O O7 0.311606 0.409428 0.161666
O O8 0.500000 0.000000 0.074646
O O9 0.679924 0.000000 0.000000
O O10 0.500000 0.434090 0.230007
O O11 0.699699 0.500000 0.201887
O O12 0.773077 0.416903 0.250034
O O13 0.500000 0.079993 0.306081
O O14 0.309141 0.155045 0.314154
O O15 0.246865 0.061687 0.342728
O O16 0.194269 0.662210 0.500000
O O17 0.214788 0.685179 0.593691
O O18 0.259874 0.591113 0.563941
O O19 0.000000 0.627700 0.563735
O O20 0.250000 0.250000 0.332733
O O21 0.000000 0.281706 0.352897
O O22 0.500000 0.577301 0.386555
O O23 0.667228 0.500000 0.412314
#
# Coordination Sequence:
#
# PCOD8270561 Si02
#       8
#    16  16   8  16  16  16  16  16
#     4   9  18  33  55  80 105 140 186 230 272 319
#     4  10  20  37  57  79 109 148 188 225 271 332
#     4  11  23  35  51  81 117 149 183 229 280 325
#     4  10  20  35  55  80 109 140 175 217 263 313
#     4  10  21  36  54  77 103 134 172 214 260 315
#     4   9  19  35  52  73 104 138 171 209 256 313
#     4   9  19  35  54  76 101 130 169 215 261 310
#     4  10  20  33  50  74 103 134 172 217 258 302
#
# _framework density 18.103361
#
# number of rings (size 3 to 8) (size 9 to 14) (size 15 to 20)
#    0.000    2.333    0.667    2.600    0.000    8.533 
#    0.000    3.333    0.000    3.200    0.000    0.000 
#    0.000    0.000    0.000    0.000    0.000    0.000 
#
# Total GULP energy -744109.957534 kJ/mol
# GULP energy per Si atom -12401.832626 kJ/mol
# Density = 1.806216 g / cm^3
# Si number density = 18.103361 Si / 1000 Ang^3
#
#
#
# Elastic Constant Matrix: (Units=GPa)
#
#
# Indices 1 2 3 4 5 6 
#
# 1 83.2124 48.8462 32.4404 0.0000 0.0000 0.0000
# 2 48.8462 113.2512 37.0417 0.0000 0.0000 0.0000
# 3 32.4404 37.0417 76.6712 0.0000 0.0000 0.0000
# 4 0.0000 0.0000 0.0000 16.2192 0.0000 0.0000
# 5 0.0000 0.0000 0.0000 0.0000 30.1502 0.0000
# 6 0.0000 0.0000 0.0000 0.0000 0.0000 34.4900
#
#
#
# Elastic Compliance Matrix: (Units=1/GPa)
#
#
# Indices 1 2 3 4 5 6 
#
# 1 0.017258 -0.006004 -0.004401 0.000000 0.000000 0.000000
# 2 -0.006004 0.012576 -0.003535 0.000000 0.000000 0.000000
# 3 -0.004401 -0.003535 0.016613 0.000000 0.000000 0.000000
# 4 0.000000 0.000000 0.000000 0.061655 0.000000 0.000000
# 5 0.000000 0.000000 0.000000 0.000000 0.033167 0.000000
# 6 0.000000 0.000000 0.000000 0.000000 0.000000 0.028994
#
#
# Mechanical properties :
#
#
# Convention : Reuss Voigt Hill
#
# Bulk Modulus (GPa) = 53.86371 56.64349 55.25360
# Shear Modulus (GPa) = 24.46998 26.49231 25.48115
#
# Velocity S-wave (km/s) = 3.68051 3.82958 3.75579
# Velocity P-wave (km/s) = 6.91951 7.13520 7.02818
#
# Compressibility (1/GPa) = 0.01856537
#
# Stress axis : x y z
#
# Youngs Moduli (GPa) = 57.94573 79.51812 60.19393
#
# Poissons Ratio (x) = 0.47741 0.26493
# Poissons Ratio (y) = 0.34789 0.21281
# Poissons Ratio (z) = 0.25503 0.28113
#
# Static dielectric constant tensor:
#      x y z
#    x 3.413990 0.000000 0.000000 
#    y 0.000000 3.268900 0.000000 
#    z 0.000000 0.000000 3.273720 
# 
# 
# High freq. dielectric constant tensor:
#      x y z
#    x 1.705310 0.000000 0.000000 
#    y 0.000000 1.698050 0.000000 
#    z 0.000000 0.000000 1.693730 
# 
# From -- ./inp_files/73949.got.cif
#   From: 2010.03.12/outbox.cif.g09.slc.cpg/sg65_37_cif.got.tgz:73949.got - 2010.04.10 20:52:16.
