data_PCOD8270878
_publ_section_title
;
Structure prediction by ZEFSAII (Michael W. Deem and Ramdas Pophale) SiO2 
 PCOD8270878
Probable space group: C M M M
;
_chemical_formula_sum "Si O2"
_cell_formula_units_Z 128
_cell_length_a 15.819575
_cell_length_b 17.352897
_cell_length_c 23.663794
_cell_angle_alpha 90.000000
_cell_angle_beta 90.000000
_cell_angle_gamma 90.000000
_cell_volume 6496.077190
_symmetry_space_group_name_H-M "C M M M"
_symmetry_group_IT_number 65
_symmetry_cell_setting 'orthorhombic'
loop_
_space_group_symop_operation_xyz
x,y,z
-x,-y,z
x,-y,-z
-x,y,-z
-x,-y,-z
x,y,-z
-x,y,z
x,-y,z
1/2+x,1/2+y,z
1/2-x,1/2-y,z
1/2+x,1/2-y,-z
1/2-x,1/2+y,-z
1/2-x,1/2-y,-z
1/2+x,1/2+y,-z
1/2-x,1/2+y,z
1/2+x,1/2-y,z
loop_
_atom_site_type_symbol
_atom_site_label
_atom_site_fract_x
_atom_site_fract_y
_atom_site_fract_z
Si Si1 0.330318 0.197760 0.848978
Si Si2 0.149049 0.087464 0.253154
Si Si3 0.257437 0.588901 0.934380
Si Si4 0.156149 0.412973 0.747999
Si Si5 0.247702 0.841706 0.436774
Si Si6 0.906234 0.169096 0.361152
Si Si7 0.904833 0.149581 0.133625
Si Si8 0.405241 0.847642 0.364678
O O1 0.250000 0.250000 0.830794
O O2 0.308558 0.140945 0.900341
O O3 0.365780 0.147407 0.797247
O O4 0.402270 0.257147 0.869794
O O5 0.246622 0.094787 0.270029
O O6 0.094271 0.130719 0.299792
O O7 0.136650 0.124731 0.192404
O O8 0.117913 0.000000 0.250721
O O9 0.239780 0.500000 0.919814
O O10 0.352927 0.610475 0.917020
O O11 0.245282 0.606448 0.000000
O O12 0.136280 0.500000 0.768737
O O13 0.100311 0.394808 0.693306
O O14 0.241227 0.875741 0.500000
O O15 0.250000 0.750000 0.439159
O O16 0.164391 0.868390 0.402131
O O17 0.333707 0.875599 0.408978
O O18 0.887576 0.258657 0.351209
O O19 0.000000 0.156733 0.387617
O O20 0.000000 0.119954 0.128475
O O21 0.500000 0.860038 0.389839
#
# Coordination Sequence:
#
# PCOD8270878 Si02
#       8
#    16  16  16  16  16  16  16  16
#     4  10  20  35  58  81 111 148 187 231 275 330
#     4  11  21  34  54  81 112 148 185 225 277 341
#     4  10  21  38  60  84 110 148 197 239 278 328
#     4  11  21  34  56  82 109 144 185 230 281 335
#     4   9  18  33  54  78 108 143 181 229 282 330
#     4  10  20  33  54  82 110 143 184 227 279 340
#     4  11  23  36  55  86 119 149 183 228 286 345
#     4  10  21  35  55  81 110 143 183 230 280 337
#
# _framework density 19.704198999999999
#
# number of rings (size 3 to 8) (size 9 to 14) (size 15 to 20)
#    0.000    1.750    3.750    1.875    0.000    6.500 
#    0.000    3.125    0.000    2.625    0.000    2.625 
#    0.000    0.000    0.000    0.000    0.000    0.000 
#
# Total GULP energy -793618.082134 kJ/mol
# GULP energy per Si atom -12400.282533 kJ/mol
# Density = 1.965935 g / cm^3
# Si number density = 19.704199 Si / 1000 Ang^3
#
#
#
# Elastic Constant Matrix: (Units=GPa)
#
#
# Indices 1 2 3 4 5 6 
#
# 1 82.9212 14.6965 12.3676 0.0000 0.0000 0.0000
# 2 14.6965 78.5303 34.6067 0.0000 0.0000 0.0000
# 3 12.3676 34.6067 76.3418 0.0000 0.0000 0.0000
# 4 0.0000 0.0000 0.0000 7.5164 0.0000 0.0000
# 5 0.0000 0.0000 0.0000 0.0000 14.9486 0.0000
# 6 0.0000 0.0000 0.0000 0.0000 0.0000 12.3437
#
#
#
# Elastic Compliance Matrix: (Units=1/GPa)
#
#
# Indices 1 2 3 4 5 6 
#
# 1 0.012562 -0.001817 -0.001211 0.000000 0.000000 0.000000
# 2 -0.001817 0.016176 -0.007038 0.000000 0.000000 0.000000
# 3 -0.001211 -0.007038 0.016486 0.000000 0.000000 0.000000
# 4 0.000000 0.000000 0.000000 0.133042 0.000000 0.000000
# 5 0.000000 0.000000 0.000000 0.000000 0.066896 0.000000
# 6 0.000000 0.000000 0.000000 0.000000 0.000000 0.081013
#
#
# Mechanical properties :
#
#
# Convention : Reuss Voigt Hill
#
# Bulk Modulus (GPa) = 39.85621 40.12611 39.99116
# Shear Modulus (GPa) = 14.09756 18.70325 16.40041
#
# Velocity S-wave (km/s) = 2.67771 3.08425 2.88814
# Velocity P-wave (km/s) = 5.46181 5.75256 5.60907
#
# Compressibility (1/GPa) = 0.02509019
#
# Stress axis : x y z
#
# Youngs Moduli (GPa) = 79.60275 61.82147 60.65836
#
# Poissons Ratio (x) = 0.11234 0.07348
# Poissons Ratio (y) = 0.14465 0.42693
# Poissons Ratio (z) = 0.09643 0.43511
#
# Static dielectric constant tensor:
#      x y z
#    x 3.569610 0.000000 0.000000 
#    y 0.000000 3.681540 0.000000 
#    z 0.000000 0.000000 3.478580 
# 
# 
# High freq. dielectric constant tensor:
#      x y z
#    x 1.759840 0.000000 0.000000 
#    y 0.000000 1.762720 0.000000 
#    z 0.000000 0.000000 1.755800 
# 
# From -- ./inp_files/70702.got.cif
#   From: 2010.03.12/outbox.cif.g09.slc.cpg/sg65_36_cif.got.tgz:70702.got - 2010.04.10 20:52:16.
