data_PCOD8270443
_publ_section_title
;
Structure prediction by ZEFSAII (Michael W. Deem and Ramdas Pophale) SiO2 
 PCOD8270443
Probable space group: C M M M
;
_chemical_formula_sum "Si O2"
_cell_formula_units_Z 56
_cell_length_a 28.776139
_cell_length_b 8.727904
_cell_length_c 12.183198
_cell_angle_alpha 90.000000
_cell_angle_beta 90.000000
_cell_angle_gamma 90.000000
_cell_volume 3059.875707
_symmetry_space_group_name_H-M "C M M M"
_symmetry_group_IT_number 65
_symmetry_cell_setting 'orthorhombic'
loop_
_space_group_symop_operation_xyz
x,y,z
-x,-y,z
x,-y,-z
-x,y,-z
-x,-y,-z
x,y,-z
-x,y,z
x,-y,z
1/2+x,1/2+y,z
1/2-x,1/2-y,z
1/2+x,1/2-y,-z
1/2-x,1/2+y,-z
1/2-x,1/2-y,-z
1/2+x,1/2+y,-z
1/2-x,1/2+y,z
1/2+x,1/2-y,z
loop_
_atom_site_type_symbol
_atom_site_label
_atom_site_fract_x
_atom_site_fract_y
_atom_site_fract_z
Si Si1 0.500000 0.830442 0.628634
Si Si2 0.447844 0.180378 0.000000
Si Si3 0.800807 0.818607 0.000000
Si Si4 0.129995 0.680891 0.166701
Si Si5 0.904741 0.180594 0.374748
O O1 0.500000 0.853525 0.500000
O O2 0.544615 0.734829 0.664485
O O3 0.500000 0.000000 0.685097
O O4 0.418383 0.230825 0.892528
O O5 0.500000 0.254879 0.000000
O O6 0.453566 0.000000 0.000000
O O7 0.750000 0.750000 0.000000
O O8 0.826868 0.761340 0.108588
O O9 0.798389 0.000000 0.000000
O O10 0.137191 0.500000 0.160002
O O11 0.131053 0.736775 0.292959
O O12 0.893944 0.231171 0.500000
O O13 0.901207 0.000000 0.362105
#
# Coordination Sequence:
#
# PCOD8270443 Si02
#       5
#     8   8   8  16  16
#     4   9  17  29  45  66  95 140 193 233 266 309
#     4   8  16  30  47  71 104 140 177 222 268 310
#     4  11  22  40  64  86 111 138 175 224 278 333
#     4  10  20  34  55  82 110 142 185 227 272 327
#     4  10  20  33  49  73 109 149 187 230 276 321
#
# _framework density 18.301397999999999
#
# number of rings (size 3 to 8) (size 9 to 14) (size 15 to 20)
#    0.000    2.286    0.000    4.286    2.000    3.429 
#    0.000    0.000    0.000    3.429    0.000    0.000 
#    0.000    0.000    0.000    0.000    0.000    0.000 
#
# Total GULP energy -347120.556194 kJ/mol
# GULP energy per Si atom -12397.162721 kJ/mol
# Density = 1.825974 g / cm^3
# Si number density = 18.301398 Si / 1000 Ang^3
#
#
#
# Elastic Constant Matrix: (Units=GPa)
#
#
# Indices 1 2 3 4 5 6 
#
# 1 126.1570 48.7558 59.8528 0.0000 0.0000 0.0000
# 2 48.7558 108.2818 52.6366 0.0000 0.0000 0.0000
# 3 59.8528 52.6366 128.1367 0.0000 0.0000 0.0000
# 4 0.0000 0.0000 0.0000 29.5544 0.0000 0.0000
# 5 0.0000 0.0000 0.0000 0.0000 82.6729 0.0000
# 6 0.0000 0.0000 0.0000 0.0000 0.0000 27.6428
#
#
#
# Elastic Compliance Matrix: (Units=1/GPa)
#
#
# Indices 1 2 3 4 5 6 
#
# 1 0.010934 -0.003049 -0.003855 0.000000 0.000000 0.000000
# 2 -0.003049 0.012390 -0.003665 0.000000 0.000000 0.000000
# 3 -0.003855 -0.003665 0.011110 0.000000 0.000000 0.000000
# 4 0.000000 0.000000 0.000000 0.033836 0.000000 0.000000
# 5 0.000000 0.000000 0.000000 0.000000 0.012096 0.000000
# 6 0.000000 0.000000 0.000000 0.000000 0.000000 0.036176
#
#
# Mechanical properties :
#
#
# Convention : Reuss Voigt Hill
#
# Bulk Modulus (GPa) = 75.21263 76.11842 75.66553
# Shear Modulus (GPa) = 35.18358 41.39604 38.28981
#
# Velocity S-wave (km/s) = 4.38934 4.76111 4.57900
# Velocity P-wave (km/s) = 8.17767 8.47975 8.33008
#
# Compressibility (1/GPa) = 0.01329564
#
# Stress axis : x y z
#
# Youngs Moduli (GPa) = 91.45889 80.71086 90.00708
#
# Poissons Ratio (x) = 0.24612 0.34694
# Poissons Ratio (y) = 0.27890 0.32989
# Poissons Ratio (z) = 0.35253 0.29582
#
# Static dielectric constant tensor:
#      x y z
#    x 3.198620 0.000000 0.000000 
#    y 0.000000 3.330800 0.000000 
#    z 0.000000 0.000000 3.497810 
# 
# 
# High freq. dielectric constant tensor:
#      x y z
#    x 1.677280 0.000000 0.000000 
#    y 0.000000 1.711430 0.000000 
#    z 0.000000 0.000000 1.712760 
# 
# From -- ./inp_files/20488.got.cif
#   From: 2010.03.12/outbox.cif.g09.slc.cpg/sg65_11_cif.got.tgz:20488.got - 2010.04.10 20:52:16.
