data_PCOD8270677
_publ_section_title
;
Structure prediction by ZEFSAII (Michael W. Deem and Ramdas Pophale) SiO2 
 PCOD8270677
Probable space group: C M M M
;
_chemical_formula_sum "Si O2"
_cell_formula_units_Z 96
_cell_length_a 27.567720
_cell_length_b 20.599537
_cell_length_c 8.893024
_cell_angle_alpha 90.000000
_cell_angle_beta 90.000000
_cell_angle_gamma 90.000000
_cell_volume 5050.190640
_symmetry_space_group_name_H-M "C M M M"
_symmetry_group_IT_number 65
_symmetry_cell_setting 'orthorhombic'
loop_
_space_group_symop_operation_xyz
x,y,z
-x,-y,z
x,-y,-z
-x,y,-z
-x,-y,-z
x,y,-z
-x,y,z
x,-y,z
1/2+x,1/2+y,z
1/2-x,1/2-y,z
1/2+x,1/2-y,-z
1/2-x,1/2+y,-z
1/2-x,1/2-y,-z
1/2+x,1/2+y,-z
1/2-x,1/2+y,z
1/2+x,1/2-y,z
loop_
_atom_site_type_symbol
_atom_site_label
_atom_site_fract_x
_atom_site_fract_y
_atom_site_fract_z
Si Si1 0.877381 0.571744 0.321266
Si Si2 0.109226 0.803474 0.821851
Si Si3 0.288355 0.694945 0.322881
Si Si4 0.943848 0.687315 0.675123
Si Si5 0.768698 0.428113 0.678686
Si Si6 0.554359 0.428425 0.821395
O O1 0.877980 0.572514 0.500000
O O2 0.893306 0.500000 0.264311
O O3 0.914164 0.625811 0.259237
O O4 0.823007 0.587127 0.262439
O O5 0.161703 0.787670 0.756604
O O6 0.070805 0.750623 0.767140
O O7 0.091018 0.873582 0.760523
O O8 0.111729 0.802155 0.000000
O O9 0.297568 0.693001 0.500000
O O10 0.250000 0.750000 0.279721
O O11 0.268398 0.626032 0.260043
O O12 0.932138 0.698979 0.500000
O O13 0.000000 0.672398 0.702057
O O14 0.769534 0.425224 0.500000
O O15 0.752152 0.500000 0.733292
O O16 0.500000 0.414839 0.760067
O O17 0.571863 0.500000 0.766747
O O18 0.553091 0.426278 0.000000
#
# Coordination Sequence:
#
# PCOD8270677 Si02
#       6
#    16  16  16  16  16  16
#     4   8  14  27  49  76 103 130 164 205 245 288
#     4  11  22  34  51  75 102 132 168 210 254 300
#     4  10  20  34  52  72  97 131 168 205 248 298
#     4  10  20  33  51  76 105 136 170 208 249 294
#     4   8  14  26  46  71  97 126 160 199 245 295
#     4   8  15  30  51  72  95 127 167 206 244 292
#
# _framework density 19.009184000000001
#
# number of rings (size 3 to 8) (size 9 to 14) (size 15 to 20)
#    0.000    2.833    0.000    3.500    0.000    5.000 
#    0.000    1.667    0.000    2.000    0.000    9.333 
#    0.000    0.000    0.000    0.000    0.000    0.000 
#
# Total GULP energy -595016.351789 kJ/mol
# GULP energy per Si atom -12396.173996 kJ/mol
# Density = 1.896592 g / cm^3
# Si number density = 19.009184 Si / 1000 Ang^3
#
#
#
# Elastic Constant Matrix: (Units=GPa)
#
#
# Indices 1 2 3 4 5 6 
#
# 1 70.1989 29.9290 17.4721 0.0000 0.0000 0.0000
# 2 29.9290 109.7294 17.6912 0.0000 0.0000 0.0000
# 3 17.4721 17.6912 21.2128 0.0000 0.0000 0.0000
# 4 0.0000 0.0000 0.0000 16.5804 0.0000 0.0000
# 5 0.0000 0.0000 0.0000 0.0000 14.5280 0.0000
# 6 0.0000 0.0000 0.0000 0.0000 0.0000 40.9139
#
#
#
# Elastic Compliance Matrix: (Units=1/GPa)
#
#
# Indices 1 2 3 4 5 6 
#
# 1 0.018753 -0.003032 -0.012917 0.000000 0.000000 0.000000
# 2 -0.003032 0.011019 -0.006692 0.000000 0.000000 0.000000
# 3 -0.012917 -0.006692 0.063362 0.000000 0.000000 0.000000
# 4 0.000000 0.000000 0.000000 0.060312 0.000000 0.000000
# 5 0.000000 0.000000 0.000000 0.000000 0.068832 0.000000
# 6 0.000000 0.000000 0.000000 0.000000 0.000000 0.024442
#
#
# Mechanical properties :
#
#
# Convention : Reuss Voigt Hill
#
# Bulk Modulus (GPa) = 20.89835 36.81394 28.85615
# Shear Modulus (GPa) = 16.23615 23.47438 19.85526
#
# Velocity S-wave (km/s) = 2.92571 3.51792 3.23539
# Velocity P-wave (km/s) = 4.73611 5.99245 5.40093
#
# Compressibility (1/GPa) = 0.04785066
#
# Stress axis : x y z
#
# Youngs Moduli (GPa) = 53.32454 90.74903 15.78233
#
# Poissons Ratio (x) = 0.27519 0.20386
# Poissons Ratio (y) = 0.16170 0.10562
# Poissons Ratio (z) = 0.68880 0.60733
#
# Static dielectric constant tensor:
#      x y z
#    x 3.540780 0.000000 0.000000 
#    y 0.000000 3.993290 0.000000 
#    z 0.000000 0.000000 2.909690 
# 
# 
# High freq. dielectric constant tensor:
#      x y z
#    x 1.739930 0.000000 0.000000 
#    y 0.000000 1.758680 0.000000 
#    z 0.000000 0.000000 1.678710 
# 
# From -- ./inp_files/12308.got.cif
#   From: 2010.03.12/outbox.cif.g09.slc.cpg/sg65_7_cif.got.tgz:12308.got - 2010.04.10 20:52:16.
