data_PCOD8270292
_publ_section_title
;
Structure prediction by ZEFSAII (Michael W. Deem and Ramdas Pophale) SiO2 
 PCOD8270292
Probable space group: C M M M
;
_chemical_formula_sum "Si O2"
_cell_formula_units_Z 80
_cell_length_a 29.061438
_cell_length_b 9.594043
_cell_length_c 18.923637
_cell_angle_alpha 90.000000
_cell_angle_beta 90.000000
_cell_angle_gamma 90.000000
_cell_volume 5276.225752
_symmetry_space_group_name_H-M "C M M M"
_symmetry_group_IT_number 65
_symmetry_cell_setting 'orthorhombic'
loop_
_space_group_symop_operation_xyz
x,y,z
-x,-y,z
x,-y,-z
-x,y,-z
-x,-y,-z
x,y,-z
-x,y,z
x,-y,z
1/2+x,1/2+y,z
1/2-x,1/2-y,z
1/2+x,1/2-y,-z
1/2-x,1/2+y,-z
1/2-x,1/2-y,-z
1/2+x,1/2+y,-z
1/2-x,1/2+y,z
1/2+x,1/2-y,z
loop_
_atom_site_type_symbol
_atom_site_label
_atom_site_fract_x
_atom_site_fract_y
_atom_site_fract_z
Si Si1 0.445256 0.245741 0.829034
Si Si2 0.445356 0.161487 0.675504
Si Si3 0.054929 0.500000 0.077776
Si Si4 0.445078 0.500000 0.919182
Si Si5 0.793148 0.660465 0.583983
Si Si6 0.119058 0.838284 0.583694
O O1 0.500000 0.245329 0.825382
O O2 0.426590 0.223980 0.749753
O O3 0.425671 0.127780 0.879121
O O4 0.425965 0.377274 0.870612
O O5 0.500000 0.170263 0.671076
O O6 0.425638 0.261669 0.614944
O O7 0.429603 0.000000 0.666680
O O8 0.000000 0.500000 0.073395
O O9 0.076516 0.500000 0.000000
O O10 0.500000 0.500000 0.924571
O O11 0.425492 0.500000 0.000000
O O12 0.791505 0.653944 0.500000
O O13 0.793126 0.500000 0.613231
O O14 0.750000 0.750000 0.612813
O O15 0.837598 0.746791 0.609797
O O16 0.114423 0.834385 0.500000
O O17 0.123022 0.000000 0.609130
#
# Coordination Sequence:
#
# PCOD8270292 Si02
#       6
#    16  16   8   8  16  16
#     4   9  16  26  38  55  77 103 137 175 215 261
#     4  10  20  33  46  59  80 114 154 193 230 265
#     4   9  14  22  38  56  75  99 130 171 213 253
#     4   9  16  24  36  56  79 101 130 171 215 257
#     4   9  16  28  48  71  93 113 133 165 212 265
#     4  10  21  34  47  65  86 110 147 189 226 266
#
# _framework density 15.162354000000001
#
# number of rings (size 3 to 8) (size 9 to 14) (size 15 to 20)
#    0.000    2.600    1.000    1.800    1.400    6.800 
#    0.000    2.000    0.000    0.000    0.000    0.000 
#    0.000    0.000    0.000    0.000    0.000    6.000 
#
# Total GULP energy -495530.660202 kJ/mol
# GULP energy per Si atom -12388.266505 kJ/mol
# Density = 1.512784 g / cm^3
# Si number density = 15.162354 Si / 1000 Ang^3
#
#
#
# Elastic Constant Matrix: (Units=GPa)
#
#
# Indices 1 2 3 4 5 6 
#
# 1 35.8400 35.3613 21.4245 0.0000 0.0000 0.0000
# 2 35.3613 157.5586 41.0402 0.0000 0.0000 0.0000
# 3 21.4245 41.0402 47.1478 0.0000 0.0000 0.0000
# 4 0.0000 0.0000 0.0000 25.6121 0.0000 0.0000
# 5 0.0000 0.0000 0.0000 0.0000 0.8967 0.0000
# 6 0.0000 0.0000 0.0000 0.0000 0.0000 21.6229
#
#
#
# Elastic Compliance Matrix: (Units=1/GPa)
#
#
# Indices 1 2 3 4 5 6 
#
# 1 0.041996 -0.005761 -0.014069 0.000000 0.000000 0.000000
# 2 -0.005761 0.008998 -0.005215 0.000000 0.000000 0.000000
# 3 -0.014069 -0.005215 0.032142 0.000000 0.000000 0.000000
# 4 0.000000 0.000000 0.000000 0.039044 0.000000 0.000000
# 5 0.000000 0.000000 0.000000 0.000000 1.115150 0.000000
# 6 0.000000 0.000000 0.000000 0.000000 0.000000 0.046247
#
#
# Mechanical properties :
#
#
# Convention : Reuss Voigt Hill
#
# Bulk Modulus (GPa) = 30.25965 48.46648 39.36307
# Shear Modulus (GPa) = 3.71835 19.14103 11.42969
#
# Velocity S-wave (km/s) = 1.56770 3.55689 2.74856
# Velocity P-wave (km/s) = 4.82466 6.99307 6.00751
#
# Compressibility (1/GPa) = 0.03304731
#
# Stress axis : x y z
#
# Youngs Moduli (GPa) = 23.81207 111.13557 31.11172
#
# Poissons Ratio (x) = 0.64020 0.43771
# Poissons Ratio (y) = 0.13717 0.16224
# Poissons Ratio (z) = 0.33501 0.57954
#
# Static dielectric constant tensor:
#      x y z
#    x 2.499550 0.000000 0.000000 
#    y 0.000000 3.251110 0.000000 
#    z 0.000000 0.000000 2.869060 
# 
# 
# High freq. dielectric constant tensor:
#      x y z
#    x 1.519250 0.000000 0.000000 
#    y 0.000000 1.607610 0.000000 
#    z 0.000000 0.000000 1.564770 
# 
# From -- ./inp_files/60095.got.cif
#   From: 2010.03.12/outbox.cif.g09.slc.cpg/sg65_31_cif.got.tgz:60095.got - 2010.04.10 20:52:16.
