data_PCOD8270455
_publ_section_title
;
Structure prediction by ZEFSAII (Michael W. Deem and Ramdas Pophale) SiO2 
 PCOD8270455
Probable space group: C M M M
;
_chemical_formula_sum "Si O2"
_cell_formula_units_Z 104
_cell_length_a 18.619223
_cell_length_b 9.488196
_cell_length_c 33.603872
_cell_angle_alpha 90.000000
_cell_angle_beta 90.000000
_cell_angle_gamma 90.000000
_cell_volume 5936.555368
_symmetry_space_group_name_H-M "C M M M"
_symmetry_group_IT_number 65
_symmetry_cell_setting 'orthorhombic'
loop_
_space_group_symop_operation_xyz
x,y,z
-x,-y,z
x,-y,-z
-x,y,-z
-x,-y,-z
x,y,-z
-x,y,z
x,-y,z
1/2+x,1/2+y,z
1/2-x,1/2-y,z
1/2+x,1/2-y,-z
1/2-x,1/2+y,-z
1/2-x,1/2-y,-z
1/2+x,1/2+y,-z
1/2-x,1/2+y,z
1/2+x,1/2-y,z
loop_
_atom_site_type_symbol
_atom_site_label
_atom_site_fract_x
_atom_site_fract_y
_atom_site_fract_z
Si Si1 0.176188 0.833789 0.311178
Si Si2 0.679829 0.336215 0.545230
Si Si3 0.917424 0.163126 0.234747
Si Si4 0.917218 0.663773 0.159184
Si Si5 0.320268 0.839917 0.000000
Si Si6 0.822997 0.335779 0.914118
Si Si7 0.579997 0.666607 0.615774
O O1 0.250000 0.750000 0.310048
O O2 0.130973 0.796131 0.272136
O O3 0.129906 0.777955 0.348537
O O4 0.192227 0.000000 0.314348
O O5 0.656452 0.303010 0.500000
O O6 0.698466 0.500000 0.551076
O O7 0.750000 0.250000 0.557593
O O8 0.614682 0.289170 0.573618
O O9 0.888392 0.251523 0.197295
O O10 0.000000 0.201348 0.244900
O O11 0.909790 0.000000 0.223765
O O12 0.903595 0.500000 0.167529
O O13 0.876911 0.717314 0.119771
O O14 0.000000 0.697966 0.151791
O O15 0.250000 0.750000 0.000000
O O16 0.360892 0.809751 0.957885
O O17 0.294110 0.000000 0.000000
O O18 0.805136 0.500000 0.908197
O O19 0.750000 0.250000 0.910117
O O20 0.500000 0.733221 0.618501
O O21 0.573560 0.500000 0.619310
#
# Coordination Sequence:
#
# PCOD8270455 Si02
#       7
#    16  16  16  16   8  16  16
#     4  10  20  33  50  71  94 120 151 189 231 273
#     4   9  17  29  47  71  97 125 156 191 232 276
#     4   9  18  33  51  68  87 116 154 189 221 264
#     4   9  18  32  48  67  93 122 149 181 225 272
#     4   8  14  26  43  63  87 115 147 182 220 260
#     4   9  17  29  46  67  90 117 150 186 222 263
#     4   9  17  30  49  71  94 122 157 195 231 268
#
# _framework density 17.518577000000001
#
# number of rings (size 3 to 8) (size 9 to 14) (size 15 to 20)
#    0.000    2.923    0.000    0.923    0.000    4.000 
#    0.000    5.000    0.000    5.077    0.000    2.154 
#    0.000    8.615    0.000    0.000    0.000    0.000 
#
# Total GULP energy -644534.018015 kJ/mol
# GULP energy per Si atom -12394.884962 kJ/mol
# Density = 1.747870 g / cm^3
# Si number density = 17.518577 Si / 1000 Ang^3
#
#
#
# Elastic Constant Matrix: (Units=GPa)
#
#
# Indices 1 2 3 4 5 6 
#
# 1 111.7376 38.0228 87.4443 0.0000 0.0000 0.0000
# 2 38.0228 34.7699 45.6716 0.0000 0.0000 0.0000
# 3 87.4443 45.6716 167.9932 0.0000 0.0000 0.0000
# 4 0.0000 0.0000 0.0000 22.9011 0.0000 0.0000
# 5 0.0000 0.0000 0.0000 0.0000 31.7237 0.0000
# 6 0.0000 0.0000 0.0000 0.0000 0.0000 24.3822
#
#
#
# Elastic Compliance Matrix: (Units=1/GPa)
#
#
# Indices 1 2 3 4 5 6 
#
# 1 0.017502 -0.011157 -0.006077 0.000000 0.000000 0.000000
# 2 -0.011157 0.051848 -0.008288 0.000000 0.000000 0.000000
# 3 -0.006077 -0.008288 0.011369 0.000000 0.000000 0.000000
# 4 0.000000 0.000000 0.000000 0.043666 0.000000 0.000000
# 5 0.000000 0.000000 0.000000 0.000000 0.031522 0.000000
# 6 0.000000 0.000000 0.000000 0.000000 0.000000 0.041014
#
#
# Mechanical properties :
#
#
# Convention : Reuss Voigt Hill
#
# Bulk Modulus (GPa) = 33.69858 72.97534 53.33696
# Shear Modulus (GPa) = 19.39062 25.35887 22.37474
#
# Velocity S-wave (km/s) = 3.33056 3.80878 3.57767
# Velocity P-wave (km/s) = 5.83677 7.81594 6.89771
#
# Compressibility (1/GPa) = 0.02967484
#
# Stress axis : x y z
#
# Youngs Moduli (GPa) = 57.13717 19.28706 87.95769
#
# Poissons Ratio (x) = 0.21518 0.53451
# Poissons Ratio (y) = 0.63747 0.72903
# Poissons Ratio (z) = 0.34722 0.15986
#
# Static dielectric constant tensor:
#      x y z
#    x 5.490060 0.000000 0.000000 
#    y 0.000000 3.032780 0.000000 
#    z 0.000000 0.000000 3.694450 
# 
# 
# High freq. dielectric constant tensor:
#      x y z
#    x 1.660270 0.000000 0.000000 
#    y 0.000000 1.655710 0.000000 
#    z 0.000000 0.000000 1.698670 
# 
# From -- ./inp_files/77661.got.cif
#   From: 2010.03.12/outbox.cif.g09.slc.cpg/sg65_39_cif.got.tgz:77661.got - 2010.04.10 20:52:16.
