data_PCOD8270938
_publ_section_title
;
Structure prediction by ZEFSAII (Michael W. Deem and Ramdas Pophale) SiO2 
 PCOD8270938
Probable space group: C M M M
;
_chemical_formula_sum "Si O2"
_cell_formula_units_Z 80
_cell_length_a 29.017057
_cell_length_b 8.208276
_cell_length_c 21.940683
_cell_angle_alpha 90.000000
_cell_angle_beta 90.000000
_cell_angle_gamma 90.000000
_cell_volume 5225.832153
_symmetry_space_group_name_H-M "C M M M"
_symmetry_group_IT_number 65
_symmetry_cell_setting 'orthorhombic'
loop_
_space_group_symop_operation_xyz
x,y,z
-x,-y,z
x,-y,-z
-x,y,-z
-x,-y,-z
x,y,-z
-x,y,z
x,-y,z
1/2+x,1/2+y,z
1/2-x,1/2-y,z
1/2+x,1/2-y,-z
1/2-x,1/2+y,-z
1/2-x,1/2-y,-z
1/2+x,1/2+y,-z
1/2-x,1/2+y,z
1/2+x,1/2-y,z
loop_
_atom_site_type_symbol
_atom_site_label
_atom_site_fract_x
_atom_site_fract_y
_atom_site_fract_z
Si Si1 0.945324 0.181547 0.860063
Si Si2 0.445118 0.000000 0.930550
Si Si3 0.798311 0.189677 0.432171
Si Si4 0.609552 0.812340 0.386814
Si Si5 0.447895 0.311689 0.721384
Si Si6 0.051676 0.305530 0.500000
O O1 0.925565 0.332803 0.899880
O O2 0.930775 0.214151 0.790422
O O3 0.000000 0.177527 0.865073
O O4 0.927099 0.000000 0.880910
O O5 0.500000 0.000000 0.925489
O O6 0.428223 0.000000 0.000000
O O7 0.805949 0.267335 0.500000
O O8 0.750000 0.250000 0.403750
O O9 0.839895 0.234050 0.387135
O O10 0.795500 0.000000 0.438597
O O11 0.586260 0.787676 0.321505
O O12 0.577648 0.736723 0.440210
O O13 0.616277 0.000000 0.400152
O O14 0.500000 0.244713 0.713501
O O15 0.446079 0.500000 0.703142
O O16 0.049879 0.500000 0.500000
O O17 0.000000 0.234052 0.500000
#
# Coordination Sequence:
#
# PCOD8270938 Si02
#       6
#    16   8  16  16  16   8
#     4   8  15  27  40  55  80 112 145 184 223 259
#     4   9  16  24  38  60  82 107 145 187 221 258
#     4  10  20  34  51  66  83 105 134 175 224 271
#     4  11  20  30  46  65  85 109 142 180 222 272
#     4   9  18  31  44  60  84 115 150 186 221 261
#     4   9  18  30  40  57  86 111 136 177 224 263
#
# _framework density 15.308566000000001
#
# number of rings (size 3 to 8) (size 9 to 14) (size 15 to 20)
#    0.000    2.600    1.000    3.000    1.400    2.400 
#    0.000    2.000    0.000    2.400    0.000    0.000 
#    0.000    0.000    0.000    0.000    0.000    1.000 
#
# Total GULP energy -495815.791410 kJ/mol
# GULP energy per Si atom -12395.394785 kJ/mol
# Density = 1.527372 g / cm^3
# Si number density = 15.308566 Si / 1000 Ang^3
#
#
#
# Elastic Constant Matrix: (Units=GPa)
#
#
# Indices 1 2 3 4 5 6 
#
# 1 81.1891 25.6750 31.3385 0.0000 0.0000 0.0000
# 2 25.6750 78.4218 42.7506 0.0000 0.0000 0.0000
# 3 31.3385 42.7506 83.2859 0.0000 0.0000 0.0000
# 4 0.0000 0.0000 0.0000 22.3126 0.0000 0.0000
# 5 0.0000 0.0000 0.0000 0.0000 5.9312 0.0000
# 6 0.0000 0.0000 0.0000 0.0000 0.0000 16.8424
#
#
#
# Elastic Compliance Matrix: (Units=1/GPa)
#
#
# Indices 1 2 3 4 5 6 
#
# 1 0.014756 -0.002505 -0.004266 0.000000 0.000000 0.000000
# 2 -0.002505 0.018131 -0.008364 0.000000 0.000000 0.000000
# 3 -0.004266 -0.008364 0.017905 0.000000 0.000000 0.000000
# 4 0.000000 0.000000 0.000000 0.044818 0.000000 0.000000
# 5 0.000000 0.000000 0.000000 0.000000 0.168601 0.000000
# 6 0.000000 0.000000 0.000000 0.000000 0.000000 0.059374
#
#
# Mechanical properties :
#
#
# Convention : Reuss Voigt Hill
#
# Bulk Modulus (GPa) = 48.73000 49.15832 48.94416
# Shear Modulus (GPa) = 13.86202 18.55941 16.21071
#
# Velocity S-wave (km/s) = 3.01243 3.48567 3.25765
# Velocity P-wave (km/s) = 6.63329 6.95566 6.79639
#
# Compressibility (1/GPa) = 0.02052124
#
# Stress axis : x y z
#
# Youngs Moduli (GPa) = 67.76911 55.15292 55.84881
#
# Poissons Ratio (x) = 0.13818 0.23827
# Poissons Ratio (y) = 0.16978 0.46713
# Poissons Ratio (z) = 0.28913 0.46131
#
# Static dielectric constant tensor:
#      x y z
#    x 2.564170 0.000000 0.000000 
#    y 0.000000 3.074570 0.000000 
#    z 0.000000 0.000000 2.831290 
# 
# 
# High freq. dielectric constant tensor:
#      x y z
#    x 1.539600 0.000000 0.000000 
#    y 0.000000 1.597060 0.000000 
#    z 0.000000 0.000000 1.565140 
# 
# From -- ./inp_files/59643.got.cif
#   From: 2010.03.12/outbox.cif.g09.slc.cpg/sg65_30_cif.got.tgz:59643.got - 2010.04.10 20:52:16.
