data_PCOD8270393
_publ_section_title
;
Structure prediction by ZEFSAII (Michael W. Deem and Ramdas Pophale) SiO2 
 PCOD8270393
Probable space group: C M M M
;
_chemical_formula_sum "Si O2"
_cell_formula_units_Z 104
_cell_length_a 27.778243
_cell_length_b 8.882122
_cell_length_c 23.423896
_cell_angle_alpha 90.000000
_cell_angle_beta 90.000000
_cell_angle_gamma 90.000000
_cell_volume 5779.371847
_symmetry_space_group_name_H-M "C M M M"
_symmetry_group_IT_number 65
_symmetry_cell_setting 'orthorhombic'
loop_
_space_group_symop_operation_xyz
x,y,z
-x,-y,z
x,-y,-z
-x,y,-z
-x,-y,-z
x,y,-z
-x,y,z
x,-y,z
1/2+x,1/2+y,z
1/2-x,1/2-y,z
1/2+x,1/2-y,-z
1/2-x,1/2+y,-z
1/2-x,1/2-y,-z
1/2+x,1/2+y,-z
1/2-x,1/2+y,z
1/2+x,1/2-y,z
loop_
_atom_site_type_symbol
_atom_site_label
_atom_site_fract_x
_atom_site_fract_y
_atom_site_fract_z
Si Si1 0.556628 0.177686 0.731325
Si Si2 0.299763 0.826992 0.567360
Si Si3 0.702677 0.336391 0.744905
Si Si4 0.597182 0.177968 0.064863
Si Si5 0.877885 0.820010 0.824603
Si Si6 0.372382 0.331446 0.645765
Si Si7 0.000000 0.166474 0.066652
O O1 0.500000 0.215208 0.727373
O O2 0.576976 0.250121 0.790037
O O3 0.582708 0.244743 0.674871
O O4 0.566100 0.000000 0.733120
O O5 0.304293 0.809216 0.500000
O O6 0.250000 0.750000 0.588824
O O7 0.349083 0.755125 0.592111
O O8 0.297229 0.000000 0.586833
O O9 0.718959 0.500000 0.765574
O O10 0.750000 0.250000 0.729277
O O11 0.671035 0.262410 0.794969
O O12 0.670906 0.344830 0.689288
O O13 0.630623 0.259396 0.111013
O O14 0.545109 0.234770 0.084770
O O15 0.599858 0.000000 0.070498
O O16 0.610077 0.228203 0.000000
O O17 0.883514 0.000000 0.823404
O O18 0.389408 0.500000 0.627866
O O19 0.000000 0.000000 0.096218
O O20 0.000000 0.140443 0.000000
#
# Coordination Sequence:
#
# PCOD8270393 Si02
#       7
#    16  16  16  16  16  16   8
#     4  10  21  36  54  76 103 136 173 214 260 307
#     4  10  20  33  51  78 112 147 181 218 262 310
#     4   9  19  33  50  74 100 128 163 205 252 301
#     4  10  20  33  49  70  97 128 164 206 251 303
#     4  10  21  35  51  74 102 132 168 207 253 308
#     4  10  20  34  53  78 107 139 176 214 257 310
#     4   9  17  29  45  65  89 121 157 191 234 287
#
# _framework density 17.995035999999999
#
# number of rings (size 3 to 8) (size 9 to 14) (size 15 to 20)
#    0.000    2.231    0.000    3.923    1.077    8.923 
#    0.000    0.000    0.000    0.923    0.000    3.231 
#    0.000    0.000    0.000    0.000    0.000    0.000 
#
# Total GULP energy -644428.884608 kJ/mol
# GULP energy per Si atom -12392.863166 kJ/mol
# Density = 1.795408 g / cm^3
# Si number density = 17.995036 Si / 1000 Ang^3
#
#
#
# Elastic Constant Matrix: (Units=GPa)
#
#
# Indices 1 2 3 4 5 6 
#
# 1 67.2467 38.0514 15.9767 0.0000 0.0000 0.0000
# 2 38.0514 109.8317 33.2618 0.0000 0.0000 0.0000
# 3 15.9767 33.2618 59.0297 0.0000 0.0000 0.0000
# 4 0.0000 0.0000 0.0000 30.3524 0.0000 0.0000
# 5 0.0000 0.0000 0.0000 0.0000 11.7930 0.0000
# 6 0.0000 0.0000 0.0000 0.0000 0.0000 20.7954
#
#
#
# Elastic Compliance Matrix: (Units=1/GPa)
#
#
# Indices 1 2 3 4 5 6 
#
# 1 0.018636 -0.005943 -0.001695 0.000000 0.000000 0.000000
# 2 -0.005943 0.012874 -0.005645 0.000000 0.000000 0.000000
# 3 -0.001695 -0.005645 0.020580 0.000000 0.000000 0.000000
# 4 0.000000 0.000000 0.000000 0.032946 0.000000 0.000000
# 5 0.000000 0.000000 0.000000 0.000000 0.084796 0.000000
# 6 0.000000 0.000000 0.000000 0.000000 0.000000 0.048087
#
#
# Mechanical properties :
#
#
# Convention : Reuss Voigt Hill
#
# Bulk Modulus (GPa) = 39.18061 45.63200 42.40631
# Shear Modulus (GPa) = 19.76320 22.50937 21.13629
#
# Velocity S-wave (km/s) = 3.31759 3.54059 3.43091
# Velocity P-wave (km/s) = 6.04115 6.49058 6.26989
#
# Compressibility (1/GPa) = 0.02552283
#
# Stress axis : x y z
#
# Youngs Moduli (GPa) = 53.65863 77.67868 48.58978
#
# Poissons Ratio (x) = 0.46166 0.08237
# Poissons Ratio (y) = 0.31891 0.27431
# Poissons Ratio (z) = 0.09096 0.43852
#
# Static dielectric constant tensor:
#      x y z
#    x 3.278540 0.000000 0.000000 
#    y 0.000000 3.591660 0.000000 
#    z 0.000000 0.000000 3.423750 
# 
# 
# High freq. dielectric constant tensor:
#      x y z
#    x 1.673260 0.000000 0.000000 
#    y 0.000000 1.712720 0.000000 
#    z 0.000000 0.000000 1.690650 
# 
# From -- ./inp_files/72144.got.cif
#   From: 2010.03.12/outbox.cif.g09.slc.cpg/sg65_37_cif.got.tgz:72144.got - 2010.04.10 20:52:16.
