data_PCOD8270963
_publ_section_title
;
Structure prediction by ZEFSAII (Michael W. Deem and Ramdas Pophale) SiO2 
 PCOD8270963
Probable space group: C M M M
;
_chemical_formula_sum "Si O2"
_cell_formula_units_Z 104
_cell_length_a 23.898383
_cell_length_b 28.128229
_cell_length_c 9.078907
_cell_angle_alpha 90.000000
_cell_angle_beta 90.000000
_cell_angle_gamma 90.000000
_cell_volume 6103.015507
_symmetry_space_group_name_H-M "C M M M"
_symmetry_group_IT_number 65
_symmetry_cell_setting 'orthorhombic'
loop_
_space_group_symop_operation_xyz
x,y,z
-x,-y,z
x,-y,-z
-x,y,-z
-x,-y,-z
x,y,-z
-x,y,z
x,-y,z
1/2+x,1/2+y,z
1/2-x,1/2-y,z
1/2+x,1/2-y,-z
1/2-x,1/2+y,-z
1/2-x,1/2-y,-z
1/2+x,1/2+y,-z
1/2-x,1/2+y,z
1/2+x,1/2-y,z
loop_
_atom_site_type_symbol
_atom_site_label
_atom_site_fract_x
_atom_site_fract_y
_atom_site_fract_z
Si Si1 0.847509 0.445710 0.829661
Si Si2 0.933787 0.000000 0.331156
Si Si3 0.566539 0.774632 0.333891
Si Si4 0.063628 0.632113 0.827804
Si Si5 0.234258 0.055610 0.670461
Si Si6 0.563955 0.318265 0.171232
Si Si7 0.626417 0.414392 0.826173
O O1 0.864933 0.500000 0.798115
O O2 0.899962 0.413539 0.783182
O O3 0.794958 0.430513 0.731246
O O4 0.831216 0.438432 0.000000
O O5 0.911674 0.953494 0.250887
O O6 0.912403 0.000000 0.500000
O O7 0.000000 0.000000 0.322424
O O8 0.588806 0.775366 0.500000
O O9 0.500000 0.774397 0.324593
O O10 0.589004 0.821702 0.252799
O O11 0.589360 0.727040 0.256436
O O12 0.000000 0.621586 0.777735
O O13 0.066526 0.642667 0.000000
O O14 0.230975 0.069893 0.500000
O O15 0.188933 0.084959 0.762709
O O16 0.221875 0.000000 0.694338
O O17 0.500000 0.328772 0.218460
O O18 0.600877 0.363465 0.213500
O O19 0.567436 0.306273 0.000000
O O20 0.627178 0.424117 0.000000
#
# Coordination Sequence:
#
# PCOD8270963 Si02
#       7
#    16   8  16  16  16  16  16
#     4   9  18  32  51  75 102 132 168 205 241 289
#     4  11  23  35  47  69 103 137 166 203 254 305
#     4   9  17  29  47  71  98 130 166 201 239 291
#     4   9  17  30  50  76 105 135 163 197 244 293
#     4  10  20  34  51  70  96 130 170 210 250 296
#     4   9  18  32  49  71  98 127 162 204 250 298
#     4  11  21  33  52  73  96 129 169 212 253 298
#
# _framework density 17.040755999999998
#
# number of rings (size 3 to 8) (size 9 to 14) (size 15 to 20)
#    0.000    2.385    0.769    2.077    0.000    5.846 
#    0.000    3.077    0.000    0.923    0.000   10.769 
#    0.000    0.000    0.000    0.000    0.000    0.000 
#
# Total GULP energy -644911.907682 kJ/mol
# GULP energy per Si atom -12402.152071 kJ/mol
# Density = 1.700197 g / cm^3
# Si number density = 17.040756 Si / 1000 Ang^3
#
#
#
# Elastic Constant Matrix: (Units=GPa)
#
#
# Indices 1 2 3 4 5 6 
#
# 1 87.3197 67.4855 51.4113 0.0000 0.0000 0.0000
# 2 67.4855 133.5696 68.5529 0.0000 0.0000 0.0000
# 3 51.4113 68.5529 93.0720 0.0000 0.0000 0.0000
# 4 0.0000 0.0000 0.0000 18.1494 0.0000 0.0000
# 5 0.0000 0.0000 0.0000 0.0000 22.5497 0.0000
# 6 0.0000 0.0000 0.0000 0.0000 0.0000 8.4046
#
#
#
# Elastic Compliance Matrix: (Units=1/GPa)
#
#
# Indices 1 2 3 4 5 6 
#
# 1 0.020678 -0.007372 -0.005992 0.000000 0.000000 0.000000
# 2 -0.007372 0.014665 -0.006730 0.000000 0.000000 0.000000
# 3 -0.005992 -0.006730 0.019011 0.000000 0.000000 0.000000
# 4 0.000000 0.000000 0.000000 0.055098 0.000000 0.000000
# 5 0.000000 0.000000 0.000000 0.000000 0.044346 0.000000
# 6 0.000000 0.000000 0.000000 0.000000 0.000000 0.118982
#
#
# Mechanical properties :
#
#
# Convention : Reuss Voigt Hill
#
# Bulk Modulus (GPa) = 70.58879 76.54006 73.56443
# Shear Modulus (GPa) = 15.73860 18.25486 16.99673
#
# Velocity S-wave (km/s) = 3.04235 3.27654 3.16162
# Velocity P-wave (km/s) = 7.33857 7.70245 7.52271
#
# Compressibility (1/GPa) = 0.01416656
#
# Stress axis : x y z
#
# Youngs Moduli (GPa) = 48.36170 68.18821 52.60082
#
# Poissons Ratio (x) = 0.50268 0.31519
# Poissons Ratio (y) = 0.35652 0.35399
# Poissons Ratio (z) = 0.28979 0.45889
#
# Static dielectric constant tensor:
#      x y z
#    x 3.045130 0.000000 0.000000 
#    y 0.000000 3.228560 0.000000 
#    z 0.000000 0.000000 3.280010 
# 
# 
# High freq. dielectric constant tensor:
#      x y z
#    x 1.635460 0.000000 0.000000 
#    y 0.000000 1.654600 0.000000 
#    z 0.000000 0.000000 1.665410 
# 
# From -- ./inp_files/14806.got.cif
#   From: 2010.03.12/outbox.cif.g09.slc.cpg/sg65_8_cif.got.tgz:14806.got - 2010.04.10 20:52:16.
