data_PCOD8270850
_publ_section_title
;
Structure prediction by ZEFSAII (Michael W. Deem and Ramdas Pophale) SiO2 
 PCOD8270850
Probable space group: C M M M
;
_chemical_formula_sum "Si O2"
_cell_formula_units_Z 88
_cell_length_a 18.422359
_cell_length_b 7.969947
_cell_length_c 30.066464
_cell_angle_alpha 90.000000
_cell_angle_beta 90.000000
_cell_angle_gamma 90.000000
_cell_volume 4414.515337
_symmetry_space_group_name_H-M "C M M M"
_symmetry_group_IT_number 65
_symmetry_cell_setting 'orthorhombic'
loop_
_space_group_symop_operation_xyz
x,y,z
-x,-y,z
x,-y,-z
-x,y,-z
-x,-y,-z
x,y,-z
-x,y,z
x,-y,z
1/2+x,1/2+y,z
1/2-x,1/2-y,z
1/2+x,1/2-y,-z
1/2-x,1/2+y,-z
1/2-x,1/2-y,-z
1/2+x,1/2+y,-z
1/2-x,1/2+y,z
1/2+x,1/2-y,z
loop_
_atom_site_type_symbol
_atom_site_label
_atom_site_fract_x
_atom_site_fract_y
_atom_site_fract_z
Si Si1 0.332808 0.803503 0.800565
Si Si2 0.331656 0.807901 0.632737
Si Si3 0.414561 0.806465 0.110772
Si Si4 0.918124 0.700877 0.715782
Si Si5 0.081573 0.801961 0.549895
Si Si6 0.914114 0.000000 0.950447
O O1 0.250000 0.750000 0.801940
O O2 0.373404 0.745700 0.845103
O O3 0.373435 0.725543 0.757772
O O4 0.337979 0.000000 0.796492
O O5 0.250000 0.750000 0.635353
O O6 0.380935 0.722959 0.671078
O O7 0.362397 0.778900 0.583686
O O8 0.332352 0.000000 0.644177
O O9 0.500000 0.792811 0.119986
O O10 0.388909 0.673095 0.073385
O O11 0.394702 0.000000 0.097183
O O12 0.918908 0.500000 0.715975
O O13 0.000000 0.770440 0.717919
O O14 0.102923 0.745053 0.500000
O O15 0.000000 0.740215 0.560886
O O16 0.086049 0.000000 0.554002
O O17 0.000000 0.000000 0.952976
O O18 0.880365 0.000000 0.000000
#
# Coordination Sequence:
#
# PCOD8270850 Si02
#       6
#    16  16  16  16  16   8
#     4  10  20  33  53  79 106 143 178 219 267 322
#     4  11  22  35  54  79 109 145 180 222 271 325
#     4   9  18  33  54  80 109 146 188 229 277 332
#     4   9  18  34  55  78 106 139 178 221 269 325
#     4   9  19  37  59  80 104 136 175 222 276 329
#     4   9  18  32  54  84 114 144 181 235 288 326
#
# _framework density 19.934238000000001
#
# number of rings (size 3 to 8) (size 9 to 14) (size 15 to 20)
#    0.000    2.455    0.000    2.727    1.273    4.364 
#    0.000    3.636    0.000    2.727    0.000    0.000 
#    0.000    0.000    0.000    0.000    0.000    0.000 
#
# Total GULP energy -545440.721171 kJ/mol
# GULP energy per Si atom -12396.380027 kJ/mol
# Density = 1.988887 g / cm^3
# Si number density = 19.934238 Si / 1000 Ang^3
#
#
#
# Elastic Constant Matrix: (Units=GPa)
#
#
# Indices 1 2 3 4 5 6 
#
# 1 131.8638 26.6743 84.4958 0.0000 0.0000 0.0000
# 2 26.6743 50.9384 47.2770 0.0000 0.0000 0.0000
# 3 84.4958 47.2770 176.0984 0.0000 0.0000 0.0000
# 4 0.0000 0.0000 0.0000 18.2543 0.0000 0.0000
# 5 0.0000 0.0000 0.0000 0.0000 20.5571 0.0000
# 6 0.0000 0.0000 0.0000 0.0000 0.0000 -30.3410
#
#
#
# Elastic Compliance Matrix: (Units=1/GPa)
#
#
# Indices 1 2 3 4 5 6 
#
# 1 0.011001 -0.001148 -0.004970 0.000000 0.000000 0.000000
# 2 -0.001148 0.026266 -0.006501 0.000000 0.000000 0.000000
# 3 -0.004970 -0.006501 0.009809 0.000000 0.000000 0.000000
# 4 0.000000 0.000000 0.000000 0.054782 0.000000 0.000000
# 5 0.000000 0.000000 0.000000 0.000000 0.048645 0.000000
# 6 0.000000 0.000000 0.000000 0.000000 0.000000 -0.032959
#
#
# Mechanical properties :
#
#
# Convention : Reuss Voigt Hill
#
# Bulk Modulus (GPa) = 45.79186 75.08830 60.44008
# Shear Modulus (GPa) = 33.31989 15.05765 24.18877
#
# Velocity S-wave (km/s) = 4.09282 2.75137 3.48721
# Velocity P-wave (km/s) = 6.73471 6.91688 6.82640
#
# Compressibility (1/GPa) = 0.02183794
#
# Stress axis : x y z
#
# Youngs Moduli (GPa) = 90.90475 38.07161 101.94936
#
# Poissons Ratio (x) = 0.04369 0.50671
# Poissons Ratio (y) = 0.10432 0.66278
# Poissons Ratio (z) = 0.45182 0.24751
#
# Static dielectric constant tensor:
#      x y z
#    x 3.483780 0.000000 0.000000 
#    y 0.000000 3.492930 0.000000 
#    z 0.000000 0.000000 9.777020 
# 
# 
# High freq. dielectric constant tensor:
#      x y z
#    x 1.770050 0.000000 0.000000 
#    y 0.000000 1.762070 0.000000 
#    z 0.000000 0.000000 1.784910 
# 
# From -- ./inp_files/77915.got.cif
#   From: 2010.03.12/outbox.cif.g09.slc.cpg/sg65_39_cif.got.tgz:77915.got - 2010.04.10 20:52:16.
