data_PCOD8270376
_publ_section_title
;
Structure prediction by ZEFSAII (Michael W. Deem and Ramdas Pophale) SiO2 
 PCOD8270376
Probable space group: C M M M
;
_chemical_formula_sum "Si O2"
_cell_formula_units_Z 96
_cell_length_a 20.295018
_cell_length_b 9.098422
_cell_length_c 29.688287
_cell_angle_alpha 90.000000
_cell_angle_beta 90.000000
_cell_angle_gamma 90.000000
_cell_volume 5482.020520
_symmetry_space_group_name_H-M "C M M M"
_symmetry_group_IT_number 65
_symmetry_cell_setting 'orthorhombic'
loop_
_space_group_symop_operation_xyz
x,y,z
-x,-y,z
x,-y,-z
-x,y,-z
-x,-y,-z
x,y,-z
-x,y,z
x,-y,z
1/2+x,1/2+y,z
1/2-x,1/2-y,z
1/2+x,1/2-y,-z
1/2-x,1/2+y,-z
1/2-x,1/2-y,-z
1/2+x,1/2+y,-z
1/2-x,1/2+y,z
1/2+x,1/2-y,z
loop_
_atom_site_type_symbol
_atom_site_label
_atom_site_fract_x
_atom_site_fract_y
_atom_site_fract_z
Si Si1 0.427503 0.174095 0.881689
Si Si2 0.682970 0.172736 0.948525
Si Si3 0.573144 0.674638 0.449693
Si Si4 0.182982 0.827625 0.279447
Si Si5 0.076615 0.670265 0.220303
Si Si6 0.316160 0.672459 0.616857
O O1 0.500000 0.238965 0.893075
O O2 0.374868 0.237856 0.917105
O O3 0.407229 0.216817 0.830982
O O4 0.430786 0.000000 0.885956
O O5 0.750000 0.250000 0.933461
O O6 0.692202 0.000000 0.941479
O O7 0.664967 0.211044 0.000000
O O8 0.593609 0.725936 0.500000
O O9 0.500000 0.734491 0.438048
O O10 0.572430 0.500000 0.447395
O O11 0.624406 0.737496 0.413230
O O12 0.250000 0.750000 0.262711
O O13 0.120459 0.770662 0.252175
O O14 0.168991 0.788854 0.331392
O O15 0.191331 0.000000 0.271459
O O16 0.094069 0.500000 0.228411
O O17 0.000000 0.699585 0.231097
O O18 0.307223 0.500000 0.609591
O O19 0.250000 0.750000 0.600072
#
# Coordination Sequence:
#
# PCOD8270376 Si02
#       6
#    16  16  16  16  16  16
#     4   8  15  29  48  69  92 118 150 188 227 267
#     4   9  17  29  46  68  93 120 150 185 224 267
#     4   8  14  26  45  68  92 118 150 186 222 264
#     4  10  20  33  49  69  95 125 158 197 236 277
#     4   9  18  33  51  70  95 125 155 191 236 283
#     4   9  18  31  47  68  93 120 150 187 229 270
#
# _framework density 17.511790999999999
#
# number of rings (size 3 to 8) (size 9 to 14) (size 15 to 20)
#    0.000    3.167    0.000    2.000    0.000    3.000 
#    0.000    5.833    0.000    2.000    0.000    3.500 
#    0.000    0.000    0.000    0.000    0.000    0.000 
#
# Total GULP energy -595071.764009 kJ/mol
# GULP energy per Si atom -12397.328417 kJ/mol
# Density = 1.747193 g / cm^3
# Si number density = 17.511791 Si / 1000 Ang^3
#
#
#
# Elastic Constant Matrix: (Units=GPa)
#
#
# Indices 1 2 3 4 5 6 
#
# 1 148.9974 40.5574 95.8779 0.0000 0.0000 0.0000
# 2 40.5574 35.5129 31.5578 0.0000 0.0000 0.0000
# 3 95.8779 31.5578 104.8034 0.0000 0.0000 0.0000
# 4 0.0000 0.0000 0.0000 16.0469 0.0000 0.0000
# 5 0.0000 0.0000 0.0000 0.0000 39.1315 0.0000
# 6 0.0000 0.0000 0.0000 0.0000 0.0000 28.5900
#
#
#
# Elastic Compliance Matrix: (Units=1/GPa)
#
#
# Indices 1 2 3 4 5 6 
#
# 1 0.017846 -0.008019 -0.013912 0.000000 0.000000 0.000000
# 2 -0.008019 0.042049 -0.005326 0.000000 0.000000 0.000000
# 3 -0.013912 -0.005326 0.023873 0.000000 0.000000 0.000000
# 4 0.000000 0.000000 0.000000 0.062317 0.000000 0.000000
# 5 0.000000 0.000000 0.000000 0.000000 0.025555 0.000000
# 6 0.000000 0.000000 0.000000 0.000000 0.000000 0.034977
#
#
# Mechanical properties :
#
#
# Convention : Reuss Voigt Hill
#
# Bulk Modulus (GPa) = 34.18204 69.47778 51.82991
# Shear Modulus (GPa) = 18.45819 24.84172 21.64996
#
# Velocity S-wave (km/s) = 3.25013 3.77048 3.51993
# Velocity P-wave (km/s) = 5.80054 7.66266 6.79568
#
# Compressibility (1/GPa) = 0.02925513
#
# Stress axis : x y z
#
# Youngs Moduli (GPa) = 56.03347 23.78162 41.88913
#
# Poissons Ratio (x) = 0.19070 0.58276
# Poissons Ratio (y) = 0.44932 0.22309
# Poissons Ratio (z) = 0.77954 0.12665
#
# Static dielectric constant tensor:
#      x y z
#    x 3.578250 0.000000 0.000000 
#    y 0.000000 2.892380 0.000000 
#    z 0.000000 0.000000 3.383680 
# 
# 
# High freq. dielectric constant tensor:
#      x y z
#    x 1.684800 0.000000 0.000000 
#    y 0.000000 1.640320 0.000000 
#    z 0.000000 0.000000 1.678360 
# 
# From -- ./inp_files/73066.got.cif
#   From: 2010.03.12/outbox.cif.g09.slc.cpg/sg65_37_cif.got.tgz:73066.got - 2010.04.10 20:52:16.
