data_PCOD8270879
_publ_section_title
;
Structure prediction by ZEFSAII (Michael W. Deem and Ramdas Pophale) SiO2 
 PCOD8270879
Probable space group: C M M M
;
_chemical_formula_sum "Si O2"
_cell_formula_units_Z 88
_cell_length_a 13.863568
_cell_length_b 19.087674
_cell_length_c 17.189630
_cell_angle_alpha 90.000000
_cell_angle_beta 90.000000
_cell_angle_gamma 90.000000
_cell_volume 4548.776040
_symmetry_space_group_name_H-M "C M M M"
_symmetry_group_IT_number 65
_symmetry_cell_setting 'orthorhombic'
loop_
_space_group_symop_operation_xyz
x,y,z
-x,-y,z
x,-y,-z
-x,y,-z
-x,-y,-z
x,y,-z
-x,y,z
x,-y,z
1/2+x,1/2+y,z
1/2-x,1/2-y,z
1/2+x,1/2-y,-z
1/2-x,1/2+y,-z
1/2-x,1/2-y,-z
1/2+x,1/2+y,-z
1/2-x,1/2+y,z
1/2+x,1/2-y,z
loop_
_atom_site_type_symbol
_atom_site_label
_atom_site_fract_x
_atom_site_fract_y
_atom_site_fract_z
Si Si1 0.893218 0.395644 0.500000
Si Si2 0.137233 0.761875 0.500000
Si Si3 0.115031 0.649974 0.914295
Si Si4 0.613881 0.203474 0.245472
Si Si5 0.108177 0.835200 0.340297
Si Si6 0.603981 0.000000 0.908856
Si Si7 0.208115 0.578846 0.338800
O O1 0.912393 0.313090 0.500000
O O2 0.832365 0.419779 0.425900
O O3 0.000000 0.430667 0.500000
O O4 0.250000 0.750000 0.500000
O O5 0.102466 0.804615 0.426204
O O6 0.144143 0.704041 0.846115
O O7 0.159216 0.573197 0.889813
O O8 0.000000 0.641671 0.918216
O O9 0.153135 0.674535 0.000000
O O10 0.500000 0.202863 0.256788
O O11 0.653424 0.275113 0.283563
O O12 0.650810 0.133437 0.286381
O O13 0.178399 0.901777 0.338146
O O14 0.000000 0.857901 0.314452
O O15 0.500000 0.000000 0.865275
O O16 0.585305 0.000000 0.000000
O O17 0.196973 0.500000 0.305200
#
# Coordination Sequence:
#
# PCOD8270879 Si02
#       7
#     8   8  16  16  16   8  16
#     4  12  23  38  57  82 114 145 174 205 262 329
#     4  12  18  35  62  82 107 138 178 223 259 315
#     4   8  14  25  43  71 107 143 175 207 253 317
#     4  10  20  33  54  82 111 143 176 215 265 325
#     4  11  22  39  60  78 100 139 190 233 266 304
#     4   7  10  18  34  58  94 137 168 192 231 295
#     4  12  25  38  54  79 111 144 178 223 270 315
#
# _framework density 19.345863000000001
#
# number of rings (size 3 to 8) (size 9 to 14) (size 15 to 20)
#    0.000    1.727    3.636    3.273    1.273    2.182 
#    0.000    0.000    0.000    4.364    0.000    0.000 
#    0.000    0.000    0.000    8.727    0.000    0.000 
#
# Total GULP energy -545217.009115 kJ/mol
# GULP energy per Si atom -12391.295662 kJ/mol
# Density = 1.930183 g / cm^3
# Si number density = 19.345863 Si / 1000 Ang^3
#
#
#
# Elastic Constant Matrix: (Units=GPa)
#
#
# Indices 1 2 3 4 5 6 
#
# 1 72.8223 22.8076 10.4934 0.0000 0.0000 0.0000
# 2 22.8076 79.4019 24.7709 0.0000 0.0000 0.0000
# 3 10.4934 24.7709 113.3803 0.0000 0.0000 0.0000
# 4 0.0000 0.0000 0.0000 9.7342 0.0000 0.0000
# 5 0.0000 0.0000 0.0000 0.0000 13.7830 0.0000
# 6 0.0000 0.0000 0.0000 0.0000 0.0000 -6.9644
#
#
#
# Elastic Compliance Matrix: (Units=1/GPa)
#
#
# Indices 1 2 3 4 5 6 
#
# 1 0.015114 -0.004191 -0.000483 0.000000 0.000000 0.000000
# 2 -0.004191 0.014677 -0.002819 0.000000 0.000000 0.000000
# 3 -0.000483 -0.002819 0.009480 0.000000 0.000000 0.000000
# 4 0.000000 0.000000 0.000000 0.102730 0.000000 0.000000
# 5 0.000000 0.000000 0.000000 0.000000 0.072553 0.000000
# 6 0.000000 0.000000 0.000000 0.000000 0.000000 -0.143588
#
#
# Mechanical properties :
#
#
# Convention : Reuss Voigt Hill
#
# Bulk Modulus (GPa) = 41.17522 42.41648 41.79585
# Shear Modulus (GPa) = 53.16419 17.14607 35.15513
#
# Velocity S-wave (km/s) = 5.24791 2.98029 4.26748
# Velocity P-wave (km/s) = 7.61910 5.81514 6.77741
#
# Compressibility (1/GPa) = 0.02428645
#
# Stress axis : x y z
#
# Youngs Moduli (GPa) = 66.16299 68.13253 105.48032
#
# Poissons Ratio (x) = 0.28552 0.05098
# Poissons Ratio (y) = 0.27727 0.29733
# Poissons Ratio (z) = 0.03197 0.19205
#
# Static dielectric constant tensor:
#      x y z
#    x 3.281370 0.000000 0.000000 
#    y 0.000000 3.587020 0.000000 
#    z 0.000000 0.000000 3.624930 
# 
# 
# High freq. dielectric constant tensor:
#      x y z
#    x 1.727520 0.000000 0.000000 
#    y 0.000000 1.737390 0.000000 
#    z 0.000000 0.000000 1.751620 
# 
# From -- ./inp_files/53082.got.cif
#   From: 2010.03.12/outbox.cif.g09.slc.cpg/sg65_27_cif.got.tgz:53082.got - 2010.04.10 20:52:16.
